EPH_relaxed_0001_pdb2pqr_Repair_251_r2_0001_out
     RDKit          3D

 82 86  0  0  0  0  0  0  0  0999 V2000
   -5.1640    5.8310   -1.6570 C   0  0  0  0  0  0  0  0  0  0  0  0
   -5.4480    7.3330   -1.7470 C   0  0  2  0  0  0  0  0  0  0  0  0
   -5.2170    8.0490   -0.4000 C   0  0  0  0  0  0  0  0  0  0  0  0
   -4.1750    9.1690   -0.4700 C   0  0  0  0  0  0  0  0  0  0  0  0
   -2.8160    8.6410   -0.8170 C   0  0  2  0  0  0  0  0  0  0  0  0
   -1.7930    8.9450    0.1400 O   0  0  0  0  0  0  0  0  0  0  0  0
   -1.6360    9.5310   -1.1620 C   0  0  0  0  0  0  0  0  0  0  0  0
   -1.7620   11.0220   -1.1770 C   0  0  0  0  0  0  0  0  0  0  0  0
   -0.5080    8.9480   -1.9540 C   0  0  0  0  0  0  0  0  0  0  0  0
   -6.8780    7.5640   -2.2200 C   0  0  1  0  0  0  0  0  0  0  0  0
   -7.1770    6.8730   -3.5770 C   0  0  0  0  0  0  0  0  0  0  0  0
   -8.6530    6.4030   -3.5240 C   0  0  0  0  0  0  0  0  0  0  0  0
   -9.2480    7.1230   -2.2910 C   0  0  1  0  0  0  0  0  0  0  0  0
   -9.5910    8.5600   -2.7930 C   0  0  0  0  0  0  0  0  0  0  0  0
  -10.4810    6.4360   -1.6180 C   0  0  2  0  0  0  0  0  0  0  0  0
  -11.7280    6.3160   -2.5100 C   0  0  0  0  0  0  0  0  0  0  0  0
  -12.6800    7.4630   -2.4340 C   0  0  0  0  0  0  0  0  0  0  0  0
  -12.6890    8.4100   -1.4770 C   0  0  0  0  0  0  0  0  0  0  0  0
  -11.7330    8.3280   -0.2790 C   0  0  1  0  0  0  0  0  0  0  0  0
  -12.5190    8.6060    1.0300 C   0  0  0  0  0  0  0  0  0  0  0  0
  -13.2850    9.9240    0.9830 C   0  0  0  0  0  0  0  0  0  0  0  0
  -14.2660    9.9440   -0.1860 C   0  0  2  0  0  0  0  0  0  0  0  0
  -15.2870    8.9720    0.0530 O   0  0  0  0  0  0  0  0  0  0  0  0
  -13.5900    9.6670   -1.5580 C   0  0  0  0  0  0  0  0  0  0  0  0
  -12.7050   10.8740   -1.9560 C   0  0  0  0  0  0  0  0  0  0  0  0
  -14.7080    9.5750   -2.6310 C   0  0  0  0  0  0  0  0  0  0  0  0
  -10.8440    7.0130   -0.1900 C   0  0  1  0  0  0  0  0  0  0  0  0
  -11.6270    5.8910    0.5570 C   0  0  0  0  0  0  0  0  0  0  0  0
   -9.5650    7.3160    0.6770 C   0  0  0  0  0  0  0  0  0  0  0  0
   -8.3400    7.8810   -0.0660 C   0  0  0  0  0  0  0  0  0  0  0  0
   -8.0210    7.0470   -1.3110 C   0  0  2  0  0  0  0  0  0  0  0  0
   -7.6490    5.6010   -0.8360 C   0  0  0  0  0  0  0  0  0  0  0  0
   -5.1073    5.5312   -0.6002 H   0  0  0  0  0  0  0  0  0  0  0  0
   -5.9728    5.2745   -2.1531 H   0  0  0  0  0  0  0  0  0  0  0  0
   -4.2078    5.6083   -2.1531 H   0  0  0  0  0  0  0  0  0  0  0  0
   -4.7420    7.7604   -2.4743 H   0  0  0  0  0  0  0  0  0  0  0  0
   -6.1720    8.4831   -0.0690 H   0  0  0  0  0  0  0  0  0  0  0  0
   -4.8329    7.2955    0.3033 H   0  0  0  0  0  0  0  0  0  0  0  0
   -4.4823    9.8943   -1.2378 H   0  0  0  0  0  0  0  0  0  0  0  0
   -4.1156    9.6444    0.5202 H   0  0  0  0  0  0  0  0  0  0  0  0
   -3.2578    7.7710   -1.3249 H   0  0  0  0  0  0  0  0  0  0  0  0
   -1.7937   11.3977   -0.1436 H   0  0  0  0  0  0  0  0  0  0  0  0
   -0.8975   11.4578   -1.6992 H   0  0  0  0  0  0  0  0  0  0  0  0
   -2.6874   11.3065   -1.6992 H   0  0  0  0  0  0  0  0  0  0  0  0
    0.2560    8.5532   -1.2681 H   0  0  0  0  0  0  0  0  0  0  0  0
   -0.8878    8.1333   -2.5880 H   0  0  0  0  0  0  0  0  0  0  0  0
   -0.0630    9.7290   -2.5880 H   0  0  0  0  0  0  0  0  0  0  0  0
   -6.8874    8.6636   -2.2469 H   0  0  0  0  0  0  0  0  0  0  0  0
   -7.0356    7.5847   -4.4037 H   0  0  0  0  0  0  0  0  0  0  0  0
   -6.4981    6.0242   -3.7460 H   0  0  0  0  0  0  0  0  0  0  0  0
   -9.1870    6.6961   -4.4400 H   0  0  0  0  0  0  0  0  0  0  0  0
   -8.7399    5.3089   -3.4503 H   0  0  0  0  0  0  0  0  0  0  0  0
   -9.7491    9.2222   -1.9290 H   0  0  0  0  0  0  0  0  0  0  0  0
   -8.7593    8.9439   -3.4019 H   0  0  0  0  0  0  0  0  0  0  0  0
  -10.5065    8.5269   -3.4019 H   0  0  0  0  0  0  0  0  0  0  0  0
  -10.1241    5.4068   -1.4649 H   0  0  0  0  0  0  0  0  0  0  0  0
  -11.3918    6.2221   -3.5531 H   0  0  0  0  0  0  0  0  0  0  0  0
  -12.2802    5.4379   -2.1439 H   0  0  0  0  0  0  0  0  0  0  0  0
  -13.4384    7.5412   -3.2269 H   0  0  0  0  0  0  0  0  0  0  0  0
  -10.9795    9.1138   -0.4362 H   0  0  0  0  0  0  0  0  0  0  0  0
  -13.2355    7.7872    1.1918 H   0  0  0  0  0  0  0  0  0  0  0  0
  -11.7891    8.6729    1.8502 H   0  0  0  0  0  0  0  0  0  0  0  0
  -13.8425   10.0500    1.9229 H   0  0  0  0  0  0  0  0  0  0  0  0
  -12.5642   10.7442    0.8502 H   0  0  0  0  0  0  0  0  0  0  0  0
  -14.6891   10.9577   -0.2447 H   0  0  0  0  0  0  0  0  0  0  0  0
  -16.1460    9.4030   -0.0990 H   0  0  0  0  0  0  0  0  0  0  0  0
  -12.3379   11.3747   -1.0480 H   0  0  0  0  0  0  0  0  0  0  0  0
  -11.8500   10.5212   -2.5514 H   0  0  0  0  0  0  0  0  0  0  0  0
  -13.2986   11.5834   -2.5514 H   0  0  0  0  0  0  0  0  0  0  0  0
  -15.6865    9.4945   -2.1350 H   0  0  0  0  0  0  0  0  0  0  0  0
  -14.6885   10.4778   -3.2592 H   0  0  0  0  0  0  0  0  0  0  0  0
  -14.5412    8.6875   -3.2592 H   0  0  0  0  0  0  0  0  0  0  0  0
  -11.5268    6.0346    1.6430 H   0  0  0  0  0  0  0  0  0  0  0  0
  -12.6899    5.9373    0.2776 H   0  0  0  0  0  0  0  0  0  0  0  0
  -11.2169    4.9093    0.2776 H   0  0  0  0  0  0  0  0  0  0  0  0
   -9.8515    8.0454    1.4490 H   0  0  0  0  0  0  0  0  0  0  0  0
   -9.2413    6.3384    1.0637 H   0  0  0  0  0  0  0  0  0  0  0  0
   -8.5503    8.9168   -0.3709 H   0  0  0  0  0  0  0  0  0  0  0  0
   -7.4732    7.8471    0.6104 H   0  0  0  0  0  0  0  0  0  0  0  0
   -7.6403    5.5671    0.2634 H   0  0  0  0  0  0  0  0  0  0  0  0
   -8.3926    4.8866   -1.2190 H   0  0  0  0  0  0  0  0  0  0  0  0
   -6.6530    5.3341   -1.2190 H   0  0  0  0  0  0  0  0  0  0  0  0
  1  2  1  0
  2  3  1  0
  3  4  1  0
  4  5  1  0
  5  6  1  0
  6  7  1  0
  7  8  1  0
  7  9  1  0
  2 10  1  0
 10 11  1  0
 11 12  1  0
 12 13  1  0
 13 14  1  6
 13 15  1  0
 15 16  1  0
 16 17  1  0
 17 18  2  0
 18 19  1  0
 19 20  1  0
 20 21  1  0
 21 22  1  0
 22 23  1  0
 22 24  1  0
 24 25  1  0
 24 26  1  0
 19 27  1  0
 27 28  1  1
 27 29  1  0
 29 30  1  0
 30 31  1  0
 31 32  1  1
  7  5  1  0
 31 10  1  0
 31 13  1  0
 27 15  1  0
 24 18  1  0
  1 33  1  0
  1 34  1  0
  1 35  1  0
  2 36  1  6
  3 37  1  0
  3 38  1  0
  4 39  1  0
  4 40  1  0
  5 41  1  6
  8 42  1  0
  8 43  1  0
  8 44  1  0
  9 45  1  0
  9 46  1  0
  9 47  1  0
 10 48  1  6
 11 49  1  0
 11 50  1  0
 12 51  1  0
 12 52  1  0
 14 53  1  0
 14 54  1  0
 14 55  1  0
 15 56  1  1
 16 57  1  0
 16 58  1  0
 17 59  1  0
 19 60  1  6
 20 61  1  0
 20 62  1  0
 21 63  1  0
 21 64  1  0
 22 65  1  6
 23 66  1  0
 25 67  1  0
 25 68  1  0
 25 69  1  0
 26 70  1  0
 26 71  1  0
 26 72  1  0
 28 73  1  0
 28 74  1  0
 28 75  1  0
 29 76  1  0
 29 77  1  0
 30 78  1  0
 30 79  1  0
 32 80  1  0
 32 81  1  0
 32 82  1  0
M  END
>  <meeko>  (1) 
{"is_sidechain": [false], "intermolecular_energy": 2.731, "internal_energy": -0.839}

$$$$
EPH_relaxed_0001_pdb2pqr_Repair_251_r2_0001_out
     RDKit          3D

 82 86  0  0  0  0  0  0  0  0999 V2000
   -5.0310    8.4830   -0.4780 C   0  0  0  0  0  0  0  0  0  0  0  0
   -5.3570    7.4230   -1.5330 C   0  0  2  0  0  0  0  0  0  0  0  0
   -4.3500    7.4370   -2.7010 C   0  0  0  0  0  0  0  0  0  0  0  0
   -2.9200    7.0830   -2.2840 C   0  0  0  0  0  0  0  0  0  0  0  0
   -1.9380    8.1220   -2.7350 C   0  0  2  0  0  0  0  0  0  0  0  0
   -0.5900    7.9020   -2.2990 O   0  0  0  0  0  0  0  0  0  0  0  0
   -1.2380    9.0790   -1.7880 C   0  0  0  0  0  0  0  0  0  0  0  0
   -1.4920    9.0420   -0.3140 C   0  0  0  0  0  0  0  0  0  0  0  0
   -0.6870   10.3570   -2.3400 C   0  0  0  0  0  0  0  0  0  0  0  0
   -6.7710    7.6330   -2.0620 C   0  0  1  0  0  0  0  0  0  0  0  0
   -7.0040    6.9470   -3.4350 C   0  0  0  0  0  0  0  0  0  0  0  0
   -8.4730    6.4520   -3.4440 C   0  0  0  0  0  0  0  0  0  0  0  0
   -9.1280    7.1530   -2.2310 C   0  0  1  0  0  0  0  0  0  0  0  0
   -9.4760    8.5890   -2.7360 C   0  0  0  0  0  0  0  0  0  0  0  0
  -10.3750    6.4420   -1.6120 C   0  0  2  0  0  0  0  0  0  0  0  0
  -11.5840    6.3070   -2.5540 C   0  0  0  0  0  0  0  0  0  0  0  0
  -12.5570    7.4380   -2.5080 C   0  0  0  0  0  0  0  0  0  0  0  0
  -12.6200    8.3770   -1.5460 C   0  0  0  0  0  0  0  0  0  0  0  0
  -11.7120    8.3020   -0.3120 C   0  0  1  0  0  0  0  0  0  0  0  0
  -12.5530    8.5580    0.9660 C   0  0  0  0  0  0  0  0  0  0  0  0
  -13.3390    9.8640    0.8980 C   0  0  0  0  0  0  0  0  0  0  0  0
  -14.2730    9.8760   -0.3090 C   0  0  2  0  0  0  0  0  0  0  0  0
  -15.2870    8.8850   -0.1180 O   0  0  0  0  0  0  0  0  0  0  0  0
  -13.5380    9.6200   -1.6550 C   0  0  0  0  0  0  0  0  0  0  0  0
  -12.6590   10.8440   -2.0090 C   0  0  0  0  0  0  0  0  0  0  0  0
  -14.6110    9.5170   -2.7720 C   0  0  0  0  0  0  0  0  0  0  0  0
  -10.8050    7.0020   -0.1960 C   0  0  1  0  0  0  0  0  0  0  0  0
  -11.5980    5.8620    0.5120 C   0  0  0  0  0  0  0  0  0  0  0  0
   -9.5670    7.3190    0.7230 C   0  0  0  0  0  0  0  0  0  0  0  0
   -8.3220    7.9100    0.0330 C   0  0  0  0  0  0  0  0  0  0  0  0
   -7.9400    7.0910   -1.2030 C   0  0  2  0  0  0  0  0  0  0  0  0
   -7.5640    5.6480   -0.7230 C   0  0  0  0  0  0  0  0  0  0  0  0
   -5.1630    8.0537    0.5261 H   0  0  0  0  0  0  0  0  0  0  0  0
   -3.9894    8.8145   -0.6010 H   0  0  0  0  0  0  0  0  0  0  0  0
   -5.7063    9.3426   -0.6010 H   0  0  0  0  0  0  0  0  0  0  0  0
   -5.2846    6.4391   -1.0464 H   0  0  0  0  0  0  0  0  0  0  0  0
   -4.6824    6.7084   -3.4551 H   0  0  0  0  0  0  0  0  0  0  0  0
   -4.3259    8.4646   -3.0928 H   0  0  0  0  0  0  0  0  0  0  0  0
   -2.8775    7.0043   -1.1876 H   0  0  0  0  0  0  0  0  0  0  0  0
   -2.6509    6.1277   -2.7584 H   0  0  0  0  0  0  0  0  0  0  0  0
   -2.5027    8.2853   -3.6648 H   0  0  0  0  0  0  0  0  0  0  0  0
   -0.5432    9.1802    0.2251 H   0  0  0  0  0  0  0  0  0  0  0  0
   -2.1892    9.8481   -0.0417 H   0  0  0  0  0  0  0  0  0  0  0  0
   -1.9303    8.0705   -0.0417 H   0  0  0  0  0  0  0  0  0  0  0  0
   -0.4007   11.0211   -1.5112 H   0  0  0  0  0  0  0  0  0  0  0  0
    0.1970   10.1388   -2.9572 H   0  0  0  0  0  0  0  0  0  0  0  0
   -1.4525   10.8500   -2.9572 H   0  0  0  0  0  0  0  0  0  0  0  0
   -6.7979    8.7325   -2.0825 H   0  0  0  0  0  0  0  0  0  0  0  0
   -6.8419    7.6671   -4.2506 H   0  0  0  0  0  0  0  0  0  0  0  0
   -6.3046    6.1109   -3.5826 H   0  0  0  0  0  0  0  0  0  0  0  0
   -8.9751    6.7429   -4.3785 H   0  0  0  0  0  0  0  0  0  0  0  0
   -8.5444    5.3561   -3.3813 H   0  0  0  0  0  0  0  0  0  0  0  0
   -9.6367    9.2522   -1.8732 H   0  0  0  0  0  0  0  0  0  0  0  0
   -8.6453    8.9748   -3.3453 H   0  0  0  0  0  0  0  0  0  0  0  0
  -10.3911    8.5517   -3.3453 H   0  0  0  0  0  0  0  0  0  0  0  0
  -10.0061    5.4183   -1.4511 H   0  0  0  0  0  0  0  0  0  0  0  0
  -11.2054    6.2259   -3.5836 H   0  0  0  0  0  0  0  0  0  0  0  0
  -12.1353    5.4171   -2.2162 H   0  0  0  0  0  0  0  0  0  0  0  0
  -13.2842    7.5101   -3.3301 H   0  0  0  0  0  0  0  0  0  0  0  0
  -10.9663    9.1014   -0.4343 H   0  0  0  0  0  0  0  0  0  0  0  0
  -13.2615    7.7264    1.0942 H   0  0  0  0  0  0  0  0  0  0  0  0
  -11.8567    8.6314    1.8144 H   0  0  0  0  0  0  0  0  0  0  0  0
  -13.9353    9.9735    1.8158 H   0  0  0  0  0  0  0  0  0  0  0  0
  -12.6277   10.6973    0.7999 H   0  0  0  0  0  0  0  0  0  0  0  0
  -14.7105   10.8829   -0.3773 H   0  0  0  0  0  0  0  0  0  0  0  0
  -15.4460    8.8080    0.8380 H   0  0  0  0  0  0  0  0  0  0  0  0
  -12.3124   11.3266   -1.0832 H   0  0  0  0  0  0  0  0  0  0  0  0
  -11.7904   10.5137   -2.5977 H   0  0  0  0  0  0  0  0  0  0  0  0
  -13.2495   11.5615   -2.5977 H   0  0  0  0  0  0  0  0  0  0  0  0
  -15.6073    9.4214   -2.3157 H   0  0  0  0  0  0  0  0  0  0  0  0
  -14.5788   10.4224   -3.3959 H   0  0  0  0  0  0  0  0  0  0  0  0
  -14.4072    8.6343   -3.3959 H   0  0  0  0  0  0  0  0  0  0  0  0
  -11.5155    5.9805    1.6025 H   0  0  0  0  0  0  0  0  0  0  0  0
  -12.6563    5.9134    0.2166 H   0  0  0  0  0  0  0  0  0  0  0  0
  -11.1817    4.8876    0.2166 H   0  0  0  0  0  0  0  0  0  0  0  0
   -9.8960    8.0376    1.4881 H   0  0  0  0  0  0  0  0  0  0  0  0
   -9.2428    6.3438    1.1152 H   0  0  0  0  0  0  0  0  0  0  0  0
   -8.5372    8.9444   -0.2731 H   0  0  0  0  0  0  0  0  0  0  0  0
   -7.4824    7.8855    0.7433 H   0  0  0  0  0  0  0  0  0  0  0  0
   -7.5561    5.6178    0.3766 H   0  0  0  0  0  0  0  0  0  0  0  0
   -8.3051    4.9300   -1.1043 H   0  0  0  0  0  0  0  0  0  0  0  0
   -6.5668    5.3830   -1.1043 H   0  0  0  0  0  0  0  0  0  0  0  0
  1  2  1  0
  2  3  1  0
  3  4  1  0
  4  5  1  0
  5  6  1  0
  6  7  1  0
  7  8  1  0
  7  9  1  0
  2 10  1  0
 10 11  1  0
 11 12  1  0
 12 13  1  0
 13 14  1  6
 13 15  1  0
 15 16  1  0
 16 17  1  0
 17 18  2  0
 18 19  1  0
 19 20  1  0
 20 21  1  0
 21 22  1  0
 22 23  1  0
 22 24  1  0
 24 25  1  0
 24 26  1  0
 19 27  1  0
 27 28  1  1
 27 29  1  0
 29 30  1  0
 30 31  1  0
 31 32  1  1
  7  5  1  0
 31 10  1  0
 31 13  1  0
 27 15  1  0
 24 18  1  0
  1 33  1  0
  1 34  1  0
  1 35  1  0
  2 36  1  1
  3 37  1  0
  3 38  1  0
  4 39  1  0
  4 40  1  0
  5 41  1  6
  8 42  1  0
  8 43  1  0
  8 44  1  0
  9 45  1  0
  9 46  1  0
  9 47  1  0
 10 48  1  6
 11 49  1  0
 11 50  1  0
 12 51  1  0
 12 52  1  0
 14 53  1  0
 14 54  1  0
 14 55  1  0
 15 56  1  1
 16 57  1  0
 16 58  1  0
 17 59  1  0
 19 60  1  6
 20 61  1  0
 20 62  1  0
 21 63  1  0
 21 64  1  0
 22 65  1  6
 23 66  1  0
 25 67  1  0
 25 68  1  0
 25 69  1  0
 26 70  1  0
 26 71  1  0
 26 72  1  0
 28 73  1  0
 28 74  1  0
 28 75  1  0
 29 76  1  0
 29 77  1  0
 30 78  1  0
 30 79  1  0
 32 80  1  0
 32 81  1  0
 32 82  1  0
M  END
>  <meeko>  (2) 
{"is_sidechain": [false], "intermolecular_energy": 2.731, "internal_energy": -0.839}

$$$$
EPH_relaxed_0001_pdb2pqr_Repair_251_r2_0001_out
     RDKit          3D

 82 86  0  0  0  0  0  0  0  0999 V2000
  -13.9580    5.5410    0.3130 C   0  0  0  0  0  0  0  0  0  0  0  0
  -13.5690    6.9960    0.0400 C   0  0  2  0  0  0  0  0  0  0  0  0
  -14.7730    7.8440   -0.4160 C   0  0  0  0  0  0  0  0  0  0  0  0
  -14.6730    9.3190   -0.0180 C   0  0  0  0  0  0  0  0  0  0  0  0
  -15.2870   10.2150   -1.0510 C   0  0  2  0  0  0  0  0  0  0  0  0
  -14.8910    9.9320   -2.4000 O   0  0  0  0  0  0  0  0  0  0  0  0
  -14.4900   11.2080   -1.8760 C   0  0  0  0  0  0  0  0  0  0  0  0
  -13.0110   11.3580   -1.7030 C   0  0  0  0  0  0  0  0  0  0  0  0
  -15.2110   12.3660   -2.4930 C   0  0  0  0  0  0  0  0  0  0  0  0
  -12.4650    7.0510   -1.0100 C   0  0  1  0  0  0  0  0  0  0  0  0
  -12.7330    8.1200   -2.1030 C   0  0  0  0  0  0  0  0  0  0  0  0
  -11.3540    8.7020   -2.5070 C   0  0  0  0  0  0  0  0  0  0  0  0
  -10.3230    7.7300   -1.8860 C   0  0  1  0  0  0  0  0  0  0  0  0
  -10.2510    6.5310   -2.8830 C   0  0  0  0  0  0  0  0  0  0  0  0
   -8.9070    8.3210   -1.5900 C   0  0  2  0  0  0  0  0  0  0  0  0
   -8.1330    8.8100   -2.8270 C   0  0  0  0  0  0  0  0  0  0  0  0
   -7.2610    7.7880   -3.4790 C   0  0  0  0  0  0  0  0  0  0  0  0
   -6.8840    6.6180   -2.9310 C   0  0  0  0  0  0  0  0  0  0  0  0
   -7.2610    6.2660   -1.4860 C   0  0  1  0  0  0  0  0  0  0  0  0
   -6.0150    5.7150   -0.7450 C   0  0  0  0  0  0  0  0  0  0  0  0
   -5.3670    4.5450   -1.4800 C   0  0  0  0  0  0  0  0  0  0  0  0
   -4.9540    4.9500   -2.8930 C   0  0  2  0  0  0  0  0  0  0  0  0
   -3.9010    5.9150   -2.8060 O   0  0  0  0  0  0  0  0  0  0  0  0
   -6.1260    5.5300   -3.7320 C   0  0  0  0  0  0  0  0  0  0  0  0
   -7.1250    4.4000   -4.0820 C   0  0  0  0  0  0  0  0  0  0  0  0
   -5.5450    6.0290   -5.0830 C   0  0  0  0  0  0  0  0  0  0  0  0
   -8.0030    7.4080   -0.6660 C   0  0  1  0  0  0  0  0  0  0  0  0
   -6.9550    8.3500    0.0020 C   0  0  0  0  0  0  0  0  0  0  0  0
   -8.8200    6.7500    0.5070 C   0  0  0  0  0  0  0  0  0  0  0  0
  -10.2560    6.2940    0.1840 C   0  0  0  0  0  0  0  0  0  0  0  0
  -11.0380    7.4060   -0.5230 C   0  0  2  0  0  0  0  0  0  0  0  0
  -11.1460    8.6170    0.4640 C   0  0  0  0  0  0  0  0  0  0  0  0
  -14.0034    5.3712    1.3989 H   0  0  0  0  0  0  0  0  0  0  0  0
  -14.9427    5.3351   -0.1318 H   0  0  0  0  0  0  0  0  0  0  0  0
  -13.2074    4.8711   -0.1318 H   0  0  0  0  0  0  0  0  0  0  0  0
  -13.2042    7.4235    0.9856 H   0  0  0  0  0  0  0  0  0  0  0  0
  -14.8447    7.7842   -1.5120 H   0  0  0  0  0  0  0  0  0  0  0  0
  -15.6625    7.4353    0.0858 H   0  0  0  0  0  0  0  0  0  0  0  0
  -15.1964    9.4665    0.9382 H   0  0  0  0  0  0  0  0  0  0  0  0
  -13.6078    9.5785    0.0714 H   0  0  0  0  0  0  0  0  0  0  0  0
  -16.2022   10.3212   -0.4500 H   0  0  0  0  0  0  0  0  0  0  0  0
  -12.7679   11.3827   -0.6305 H   0  0  0  0  0  0  0  0  0  0  0  0
  -12.4984   10.5072   -2.1757 H   0  0  0  0  0  0  0  0  0  0  0  0
  -12.6796   12.2944   -2.1757 H   0  0  0  0  0  0  0  0  0  0  0  0
  -15.6135   13.0124   -1.6992 H   0  0  0  0  0  0  0  0  0  0  0  0
  -14.5122   12.9429   -3.1166 H   0  0  0  0  0  0  0  0  0  0  0  0
  -16.0371   11.9935   -3.1166 H   0  0  0  0  0  0  0  0  0  0  0  0
  -12.4938    6.0096   -1.3630 H   0  0  0  0  0  0  0  0  0  0  0  0
  -13.2188    7.6571   -2.9746 H   0  0  0  0  0  0  0  0  0  0  0  0
  -13.4005    8.9098   -1.7278 H   0  0  0  0  0  0  0  0  0  0  0  0
  -11.2503    8.7307   -3.6017 H   0  0  0  0  0  0  0  0  0  0  0  0
  -11.2179    9.7352   -2.1549 H   0  0  0  0  0  0  0  0  0  0  0  0
  -10.1944    5.5882   -2.3192 H   0  0  0  0  0  0  0  0  0  0  0  0
  -11.1505    6.5261   -3.5162 H   0  0  0  0  0  0  0  0  0  0  0  0
   -9.3574    6.6338   -3.5162 H   0  0  0  0  0  0  0  0  0  0  0  0
   -9.1452    9.2246   -1.0097 H   0  0  0  0  0  0  0  0  0  0  0  0
   -8.8653    9.1565   -3.5711 H   0  0  0  0  0  0  0  0  0  0  0  0
   -7.4586    9.6025   -2.4703 H   0  0  0  0  0  0  0  0  0  0  0  0
   -6.8960    8.0102   -4.4926 H   0  0  0  0  0  0  0  0  0  0  0  0
   -8.0306    5.4830   -1.5545 H   0  0  0  0  0  0  0  0  0  0  0  0
   -5.2757    6.5238   -0.6486 H   0  0  0  0  0  0  0  0  0  0  0  0
   -6.3458    5.3496    0.2384 H   0  0  0  0  0  0  0  0  0  0  0  0
   -4.4756    4.2196   -0.9237 H   0  0  0  0  0  0  0  0  0  0  0  0
   -6.0976    3.7256   -1.5489 H   0  0  0  0  0  0  0  0  0  0  0  0
   -4.6180    4.0402   -3.4119 H   0  0  0  0  0  0  0  0  0  0  0  0
   -3.9580    6.3350   -1.9310 H   0  0  0  0  0  0  0  0  0  0  0  0
   -7.5168    3.9568   -3.1546 H   0  0  0  0  0  0  0  0  0  0  0  0
   -7.9568    4.8151   -4.6700 H   0  0  0  0  0  0  0  0  0  0  0  0
   -6.6110    3.6253   -4.6700 H   0  0  0  0  0  0  0  0  0  0  0  0
   -4.7234    6.7346   -4.8905 H   0  0  0  0  0  0  0  0  0  0  0  0
   -5.1649    5.1716   -5.6577 H   0  0  0  0  0  0  0  0  0  0  0  0
   -6.3352    6.5342   -5.6577 H   0  0  0  0  0  0  0  0  0  0  0  0
   -7.0390    8.2745    1.0962 H   0  0  0  0  0  0  0  0  0  0  0  0
   -5.9430    8.0520   -0.3095 H   0  0  0  0  0  0  0  0  0  0  0  0
   -7.1438    9.3879   -0.3095 H   0  0  0  0  0  0  0  0  0  0  0  0
   -8.2595    5.8672    0.8484 H   0  0  0  0  0  0  0  0  0  0  0  0
   -8.9330    7.5443    1.2596 H   0  0  0  0  0  0  0  0  0  0  0  0
  -10.2146    5.4109   -0.4706 H   0  0  0  0  0  0  0  0  0  0  0  0
  -10.7673    6.0503    1.1270 H   0  0  0  0  0  0  0  0  0  0  0  0
  -11.1132    8.2495    1.5003 H   0  0  0  0  0  0  0  0  0  0  0  0
  -10.3057    9.3059    0.2925 H   0  0  0  0  0  0  0  0  0  0  0  0
  -12.0949    9.1463    0.2925 H   0  0  0  0  0  0  0  0  0  0  0  0
  1  2  1  0
  2  3  1  0
  3  4  1  0
  4  5  1  0
  5  6  1  0
  6  7  1  0
  7  8  1  0
  7  9  1  0
  2 10  1  0
 10 11  1  0
 11 12  1  0
 12 13  1  0
 13 14  1  6
 13 15  1  0
 15 16  1  0
 16 17  1  0
 17 18  2  0
 18 19  1  0
 19 20  1  0
 20 21  1  0
 21 22  1  0
 22 23  1  0
 22 24  1  0
 24 25  1  0
 24 26  1  0
 19 27  1  0
 27 28  1  1
 27 29  1  0
 29 30  1  0
 30 31  1  0
 31 32  1  1
  7  5  1  0
 31 10  1  0
 31 13  1  0
 27 15  1  0
 24 18  1  0
  1 33  1  0
  1 34  1  0
  1 35  1  0
  2 36  1  1
  3 37  1  0
  3 38  1  0
  4 39  1  0
  4 40  1  0
  5 41  1  6
  8 42  1  0
  8 43  1  0
  8 44  1  0
  9 45  1  0
  9 46  1  0
  9 47  1  0
 10 48  1  6
 11 49  1  0
 11 50  1  0
 12 51  1  0
 12 52  1  0
 14 53  1  0
 14 54  1  0
 14 55  1  0
 15 56  1  1
 16 57  1  0
 16 58  1  0
 17 59  1  0
 19 60  1  6
 20 61  1  0
 20 62  1  0
 21 63  1  0
 21 64  1  0
 22 65  1  6
 23 66  1  0
 25 67  1  0
 25 68  1  0
 25 69  1  0
 26 70  1  0
 26 71  1  0
 26 72  1  0
 28 73  1  0
 28 74  1  0
 28 75  1  0
 29 76  1  0
 29 77  1  0
 30 78  1  0
 30 79  1  0
 32 80  1  0
 32 81  1  0
 32 82  1  0
M  END
>  <meeko>  (3) 
{"is_sidechain": [false], "intermolecular_energy": 2.731, "internal_energy": -0.839}

$$$$
EPH_relaxed_0001_pdb2pqr_Repair_251_r2_0001_out
     RDKit          3D

 82 86  0  0  0  0  0  0  0  0999 V2000
  -15.2400    8.9380    0.4980 C   0  0  0  0  0  0  0  0  0  0  0  0
  -14.3460    9.1820   -0.7210 C   0  0  2  0  0  0  0  0  0  0  0  0
  -14.6760    8.2250   -1.8850 C   0  0  0  0  0  0  0  0  0  0  0  0
  -14.7180    8.9110   -3.2530 C   0  0  0  0  0  0  0  0  0  0  0  0
  -15.2860   10.2950   -3.1620 C   0  0  2  0  0  0  0  0  0  0  0  0
  -14.8890   11.1760   -4.2210 O   0  0  0  0  0  0  0  0  0  0  0  0
  -14.4450   11.5300   -2.9010 C   0  0  0  0  0  0  0  0  0  0  0  0
  -12.9630   11.4390   -2.7120 C   0  0  0  0  0  0  0  0  0  0  0  0
  -15.1150   12.7480   -2.3460 C   0  0  0  0  0  0  0  0  0  0  0  0
  -12.8810    9.0380   -0.3280 C   0  0  1  0  0  0  0  0  0  0  0  0
  -12.6680    9.0720    1.2090 C   0  0  0  0  0  0  0  0  0  0  0  0
  -11.4970    8.1050    1.5210 C   0  0  0  0  0  0  0  0  0  0  0  0
  -10.8630    7.8040    0.1430 C   0  0  1  0  0  0  0  0  0  0  0  0
   -9.9390    9.0280   -0.1490 C   0  0  0  0  0  0  0  0  0  0  0  0
  -10.0860    6.4530    0.0200 C   0  0  2  0  0  0  0  0  0  0  0  0
   -8.8580    6.3210    0.9380 C   0  0  0  0  0  0  0  0  0  0  0  0
   -7.5690    6.7920    0.3500 C   0  0  0  0  0  0  0  0  0  0  0  0
   -7.3460    7.0350   -0.9550 C   0  0  0  0  0  0  0  0  0  0  0  0
   -8.4260    6.7430   -2.0050 C   0  0  1  0  0  0  0  0  0  0  0  0
   -7.7920    5.9890   -3.2040 C   0  0  0  0  0  0  0  0  0  0  0  0
   -6.5920    6.7260   -3.7900 C   0  0  0  0  0  0  0  0  0  0  0  0
   -5.5160    6.9460   -2.7300 C   0  0  2  0  0  0  0  0  0  0  0  0
   -4.9760    5.6770   -2.3500 O   0  0  0  0  0  0  0  0  0  0  0  0
   -6.0410    7.6890   -1.4690 C   0  0  0  0  0  0  0  0  0  0  0  0
   -6.3440    9.1660   -1.8240 C   0  0  0  0  0  0  0  0  0  0  0  0
   -4.8950    7.7210   -0.4220 C   0  0  0  0  0  0  0  0  0  0  0  0
   -9.7430    6.0350   -1.4670 C   0  0  1  0  0  0  0  0  0  0  0  0
   -9.5520    4.4870   -1.4620 C   0  0  0  0  0  0  0  0  0  0  0  0
  -10.9290    6.3320   -2.4600 C   0  0  0  0  0  0  0  0  0  0  0  0
  -11.7340    7.6220   -2.2140 C   0  0  0  0  0  0  0  0  0  0  0  0
  -12.1570    7.7330   -0.7470 C   0  0  2  0  0  0  0  0  0  0  0  0
  -13.1050    6.5260   -0.4290 C   0  0  0  0  0  0  0  0  0  0  0  0
  -14.6576    9.0970    1.4175 H   0  0  0  0  0  0  0  0  0  0  0  0
  -16.0888    9.6373    0.4761 H   0  0  0  0  0  0  0  0  0  0  0  0
  -15.6158    7.9044    0.4761 H   0  0  0  0  0  0  0  0  0  0  0  0
  -14.5379   10.2067   -1.0720 H   0  0  0  0  0  0  0  0  0  0  0  0
  -13.9088    7.4372   -1.9150 H   0  0  0  0  0  0  0  0  0  0  0  0
  -15.6826    7.8238   -1.6957 H   0  0  0  0  0  0  0  0  0  0  0  0
  -13.6951    8.9711   -3.6532 H   0  0  0  0  0  0  0  0  0  0  0  0
  -15.3660    8.3173   -3.9145 H   0  0  0  0  0  0  0  0  0  0  0  0
  -16.2017    9.9127   -2.6874 H   0  0  0  0  0  0  0  0  0  0  0  0
  -12.7307   11.4247   -1.6369 H   0  0  0  0  0  0  0  0  0  0  0  0
  -12.5896   10.5162   -3.1801 H   0  0  0  0  0  0  0  0  0  0  0  0
  -12.4796   12.3092   -3.1801 H   0  0  0  0  0  0  0  0  0  0  0  0
  -15.0938   12.7094   -1.2469 H   0  0  0  0  0  0  0  0  0  0  0  0
  -14.5849   13.6477   -2.6916 H   0  0  0  0  0  0  0  0  0  0  0  0
  -16.1587   12.7820   -2.6916 H   0  0  0  0  0  0  0  0  0  0  0  0
  -12.4591    9.8948   -0.8737 H   0  0  0  0  0  0  0  0  0  0  0  0
  -12.4136   10.0918    1.5335 H   0  0  0  0  0  0  0  0  0  0  0  0
  -13.5821    8.7691    1.7407 H   0  0  0  0  0  0  0  0  0  0  0  0
  -10.7656    8.5834    2.1890 H   0  0  0  0  0  0  0  0  0  0  0  0
  -11.8347    7.1921    2.0335 H   0  0  0  0  0  0  0  0  0  0  0  0
   -9.6051    9.4703    0.8012 H   0  0  0  0  0  0  0  0  0  0  0  0
   -9.0636    8.6969   -0.7270 H   0  0  0  0  0  0  0  0  0  0  0  0
  -10.4972    9.7792   -0.7270 H   0  0  0  0  0  0  0  0  0  0  0  0
  -10.8197    5.7243    0.3949 H   0  0  0  0  0  0  0  0  0  0  0  0
   -9.0501    6.9066    1.8491 H   0  0  0  0  0  0  0  0  0  0  0  0
   -8.7320    5.2444    1.1249 H   0  0  0  0  0  0  0  0  0  0  0  0
   -6.7298    6.9543    1.0424 H   0  0  0  0  0  0  0  0  0  0  0  0
   -8.8010    7.7228   -2.3358 H   0  0  0  0  0  0  0  0  0  0  0  0
   -7.4637    4.9962   -2.8625 H   0  0  0  0  0  0  0  0  0  0  0  0
   -8.5553    5.9139   -3.9925 H   0  0  0  0  0  0  0  0  0  0  0  0
   -6.1702    6.1301   -4.6128 H   0  0  0  0  0  0  0  0  0  0  0  0
   -6.9278    7.7067   -4.1581 H   0  0  0  0  0  0  0  0  0  0  0  0
   -4.7425    7.5896   -3.1744 H   0  0  0  0  0  0  0  0  0  0  0  0
   -5.4530    4.9930   -2.8500 H   0  0  0  0  0  0  0  0  0  0  0  0
   -6.4635    9.7485   -0.8985 H   0  0  0  0  0  0  0  0  0  0  0  0
   -5.5120    9.5797   -2.4128 H   0  0  0  0  0  0  0  0  0  0  0  0
   -7.2717    9.2187   -2.4128 H   0  0  0  0  0  0  0  0  0  0  0  0
   -5.3235    7.7090    0.5911 H   0  0  0  0  0  0  0  0  0  0  0  0
   -4.2497    6.8405   -0.5576 H   0  0  0  0  0  0  0  0  0  0  0  0
   -4.2999    8.6361   -0.5576 H   0  0  0  0  0  0  0  0  0  0  0  0
   -9.5075    4.1264   -0.4237 H   0  0  0  0  0  0  0  0  0  0  0  0
  -10.3983    4.0115   -1.9794 H   0  0  0  0  0  0  0  0  0  0  0  0
   -8.6155    4.2314   -1.9794 H   0  0  0  0  0  0  0  0  0  0  0  0
  -10.5071    6.3913   -3.4741 H   0  0  0  0  0  0  0  0  0  0  0  0
  -11.6456    5.5117   -2.3062 H   0  0  0  0  0  0  0  0  0  0  0  0
  -11.1111    8.4901   -2.4755 H   0  0  0  0  0  0  0  0  0  0  0  0
  -12.6390    7.5950   -2.8387 H   0  0  0  0  0  0  0  0  0  0  0  0
  -13.1968    6.4091    0.6609 H   0  0  0  0  0  0  0  0  0  0  0  0
  -14.0981    6.7157   -0.8624 H   0  0  0  0  0  0  0  0  0  0  0  0
  -12.6854    5.6061   -0.8624 H   0  0  0  0  0  0  0  0  0  0  0  0
  1  2  1  0
  2  3  1  0
  3  4  1  0
  4  5  1  0
  5  6  1  0
  6  7  1  0
  7  8  1  0
  7  9  1  0
  2 10  1  0
 10 11  1  0
 11 12  1  0
 12 13  1  0
 13 14  1  6
 13 15  1  0
 15 16  1  0
 16 17  1  0
 17 18  2  0
 18 19  1  0
 19 20  1  0
 20 21  1  0
 21 22  1  0
 22 23  1  0
 22 24  1  0
 24 25  1  0
 24 26  1  0
 19 27  1  0
 27 28  1  1
 27 29  1  0
 29 30  1  0
 30 31  1  0
 31 32  1  1
  7  5  1  0
 31 10  1  0
 31 13  1  0
 27 15  1  0
 24 18  1  0
  1 33  1  0
  1 34  1  0
  1 35  1  0
  2 36  1  6
  3 37  1  0
  3 38  1  0
  4 39  1  0
  4 40  1  0
  5 41  1  1
  8 42  1  0
  8 43  1  0
  8 44  1  0
  9 45  1  0
  9 46  1  0
  9 47  1  0
 10 48  1  6
 11 49  1  0
 11 50  1  0
 12 51  1  0
 12 52  1  0
 14 53  1  0
 14 54  1  0
 14 55  1  0
 15 56  1  1
 16 57  1  0
 16 58  1  0
 17 59  1  0
 19 60  1  6
 20 61  1  0
 20 62  1  0
 21 63  1  0
 21 64  1  0
 22 65  1  6
 23 66  1  0
 25 67  1  0
 25 68  1  0
 25 69  1  0
 26 70  1  0
 26 71  1  0
 26 72  1  0
 28 73  1  0
 28 74  1  0
 28 75  1  0
 29 76  1  0
 29 77  1  0
 30 78  1  0
 30 79  1  0
 32 80  1  0
 32 81  1  0
 32 82  1  0
M  END
>  <meeko>  (4) 
{"is_sidechain": [false], "intermolecular_energy": 2.731, "internal_energy": -0.839}

$$$$
EPH_relaxed_0001_pdb2pqr_Repair_251_r2_0001_out
     RDKit          3D

 82 86  0  0  0  0  0  0  0  0999 V2000
   -4.0690    7.0440   -2.9300 C   0  0  0  0  0  0  0  0  0  0  0  0
   -4.0690    7.5860   -1.4970 C   0  0  2  0  0  0  0  0  0  0  0  0
   -5.4930    7.8990   -0.9950 C   0  0  0  0  0  0  0  0  0  0  0  0
   -6.4610    6.7190   -1.1140 C   0  0  0  0  0  0  0  0  0  0  0  0
   -7.8870    7.1530   -0.9600 C   0  0  2  0  0  0  0  0  0  0  0  0
   -8.8300    6.0800   -0.8420 O   0  0  0  0  0  0  0  0  0  0  0  0
   -8.9540    6.9070   -2.0100 C   0  0  0  0  0  0  0  0  0  0  0  0
   -8.6400    6.2000   -3.2920 C   0  0  0  0  0  0  0  0  0  0  0  0
  -10.1740    7.7750   -2.0090 C   0  0  0  0  0  0  0  0  0  0  0  0
   -3.2010    8.8360   -1.4140 C   0  0  1  0  0  0  0  0  0  0  0  0
   -3.6590    9.8080   -0.2950 C   0  0  0  0  0  0  0  0  0  0  0  0
   -2.3770   10.4620    0.2820 C   0  0  0  0  0  0  0  0  0  0  0  0
   -1.2660   10.1030   -0.7320 C   0  0  1  0  0  0  0  0  0  0  0  0
   -1.4270   11.1410   -1.8870 C   0  0  0  0  0  0  0  0  0  0  0  0
    0.1950   10.0800   -0.1770 C   0  0  2  0  0  0  0  0  0  0  0  0
    0.7130   11.4290    0.3530 C   0  0  0  0  0  0  0  0  0  0  0  0
    1.4090   12.2840   -0.6540 C   0  0  0  0  0  0  0  0  0  0  0  0
    1.8610   11.8720   -1.8520 C   0  0  0  0  0  0  0  0  0  0  0  0
    1.7770   10.3960   -2.2610 C   0  0  1  0  0  0  0  0  0  0  0  0
    3.1330    9.9470   -2.8640 C   0  0  0  0  0  0  0  0  0  0  0  0
    3.5890   10.8440   -4.0110 C   0  0  0  0  0  0  0  0  0  0  0  0
    3.7170   12.2940   -3.5510 C   0  0  2  0  0  0  0  0  0  0  0  0
    4.7890   12.3860   -2.6080 O   0  0  0  0  0  0  0  0  0  0  0  0
    2.4130   12.8530   -2.9160 C   0  0  0  0  0  0  0  0  0  0  0  0
    1.3360   13.0360   -4.0140 C   0  0  0  0  0  0  0  0  0  0  0  0
    2.7190   14.2730   -2.3680 C   0  0  0  0  0  0  0  0  0  0  0  0
    1.2450    9.3970   -1.1440 C   0  0  1  0  0  0  0  0  0  0  0  0
    2.4300    8.9200   -0.2490 C   0  0  0  0  0  0  0  0  0  0  0  0
    0.6670    8.1080   -1.8400 C   0  0  0  0  0  0  0  0  0  0  0  0
   -0.8150    8.1490   -2.2580 C   0  0  0  0  0  0  0  0  0  0  0  0
   -1.6960    8.6380   -1.1040 C   0  0  2  0  0  0  0  0  0  0  0  0
   -1.5720    7.6020    0.0650 C   0  0  0  0  0  0  0  0  0  0  0  0
   -3.0319    6.9143   -3.2730 H   0  0  0  0  0  0  0  0  0  0  0  0
   -4.5875    6.0742   -2.9552 H   0  0  0  0  0  0  0  0  0  0  0  0
   -4.5875    7.7543   -3.5907 H   0  0  0  0  0  0  0  0  0  0  0  0
   -3.6544    6.8019   -0.8465 H   0  0  0  0  0  0  0  0  0  0  0  0
   -5.4314    8.1922    0.0634 H   0  0  0  0  0  0  0  0  0  0  0  0
   -5.8883    8.7044   -1.6315 H   0  0  0  0  0  0  0  0  0  0  0  0
   -6.3351    6.2532   -2.1025 H   0  0  0  0  0  0  0  0  0  0  0  0
   -6.2314    6.0052   -0.3092 H   0  0  0  0  0  0  0  0  0  0  0  0
   -7.5773    8.0606   -0.4212 H   0  0  0  0  0  0  0  0  0  0  0  0
   -8.2027    5.2154   -3.0701 H   0  0  0  0  0  0  0  0  0  0  0  0
   -9.5641    6.0681   -3.8738 H   0  0  0  0  0  0  0  0  0  0  0  0
   -7.9225    6.7972   -3.8738 H   0  0  0  0  0  0  0  0  0  0  0  0
  -10.4722    7.9872   -0.9717 H   0  0  0  0  0  0  0  0  0  0  0  0
   -9.9524    8.7196   -2.5273 H   0  0  0  0  0  0  0  0  0  0  0  0
  -10.9937    7.2559   -2.5273 H   0  0  0  0  0  0  0  0  0  0  0  0
   -3.3271    9.2159   -2.4386 H   0  0  0  0  0  0  0  0  0  0  0  0
   -4.3231   10.5795   -0.7118 H   0  0  0  0  0  0  0  0  0  0  0  0
   -4.2166    9.2737    0.4883 H   0  0  0  0  0  0  0  0  0  0  0  0
   -2.4972   11.5529    0.3563 H   0  0  0  0  0  0  0  0  0  0  0  0
   -2.1470   10.1051    1.2967 H   0  0  0  0  0  0  0  0  0  0  0  0
   -1.5824   12.1430   -1.4605 H   0  0  0  0  0  0  0  0  0  0  0  0
   -0.5185   11.1434   -2.5072 H   0  0  0  0  0  0  0  0  0  0  0  0
   -2.2935   10.8680   -2.5072 H   0  0  0  0  0  0  0  0  0  0  0  0
    0.1023    9.4285    0.7045 H   0  0  0  0  0  0  0  0  0  0  0  0
   -0.1466   11.9939    0.7428 H   0  0  0  0  0  0  0  0  0  0  0  0
    1.4645   11.1872    1.1190 H   0  0  0  0  0  0  0  0  0  0  0  0
    1.5655   13.3413   -0.3939 H   0  0  0  0  0  0  0  0  0  0  0  0
    0.9907   10.3373   -3.0280 H   0  0  0  0  0  0  0  0  0  0  0  0
    3.8963    9.9715   -2.0723 H   0  0  0  0  0  0  0  0  0  0  0  0
    2.9996    8.9320   -3.2666 H   0  0  0  0  0  0  0  0  0  0  0  0
    4.5662   10.4941   -4.3752 H   0  0  0  0  0  0  0  0  0  0  0  0
    2.8395   10.7952   -4.8146 H   0  0  0  0  0  0  0  0  0  0  0  0
    3.9188   12.9059   -4.4426 H   0  0  0  0  0  0  0  0  0  0  0  0
    5.5340   11.8690   -2.9590 H   0  0  0  0  0  0  0  0  0  0  0  0
    0.3562   13.2025   -3.5425 H   0  0  0  0  0  0  0  0  0  0  0  0
    1.5939   13.9032   -4.6397 H   0  0  0  0  0  0  0  0  0  0  0  0
    1.2930   12.1323   -4.6397 H   0  0  0  0  0  0  0  0  0  0  0  0
    2.7142   14.2505   -1.2682 H   0  0  0  0  0  0  0  0  0  0  0  0
    3.7078   14.5981   -2.7237 H   0  0  0  0  0  0  0  0  0  0  0  0
    1.9518   14.9765   -2.7237 H   0  0  0  0  0  0  0  0  0  0  0  0
    2.1565    9.0301    0.8108 H   0  0  0  0  0  0  0  0  0  0  0  0
    2.6492    7.8636   -0.4633 H   0  0  0  0  0  0  0  0  0  0  0  0
    3.3200    9.5299   -0.4633 H   0  0  0  0  0  0  0  0  0  0  0  0
    1.2631    7.9234   -2.7458 H   0  0  0  0  0  0  0  0  0  0  0  0
    0.7290    7.3173   -1.0778 H   0  0  0  0  0  0  0  0  0  0  0  0
   -0.9292    8.8321   -3.1126 H   0  0  0  0  0  0  0  0  0  0  0  0
   -1.1303    7.1319   -2.5338 H   0  0  0  0  0  0  0  0  0  0  0  0
   -1.6349    8.1278    1.0291 H   0  0  0  0  0  0  0  0  0  0  0  0
   -2.3888    6.8687   -0.0067 H   0  0  0  0  0  0  0  0  0  0  0  0
   -0.6052    7.0822   -0.0067 H   0  0  0  0  0  0  0  0  0  0  0  0
  1  2  1  0
  2  3  1  0
  3  4  1  0
  4  5  1  0
  5  6  1  0
  6  7  1  0
  7  8  1  0
  7  9  1  0
  2 10  1  0
 10 11  1  0
 11 12  1  0
 12 13  1  0
 13 14  1  6
 13 15  1  0
 15 16  1  0
 16 17  1  0
 17 18  2  0
 18 19  1  0
 19 20  1  0
 20 21  1  0
 21 22  1  0
 22 23  1  0
 22 24  1  0
 24 25  1  0
 24 26  1  0
 19 27  1  0
 27 28  1  1
 27 29  1  0
 29 30  1  0
 30 31  1  0
 31 32  1  1
  7  5  1  0
 31 10  1  0
 31 13  1  0
 27 15  1  0
 24 18  1  0
  1 33  1  0
  1 34  1  0
  1 35  1  0
  2 36  1  1
  3 37  1  0
  3 38  1  0
  4 39  1  0
  4 40  1  0
  5 41  1  1
  8 42  1  0
  8 43  1  0
  8 44  1  0
  9 45  1  0
  9 46  1  0
  9 47  1  0
 10 48  1  6
 11 49  1  0
 11 50  1  0
 12 51  1  0
 12 52  1  0
 14 53  1  0
 14 54  1  0
 14 55  1  0
 15 56  1  1
 16 57  1  0
 16 58  1  0
 17 59  1  0
 19 60  1  6
 20 61  1  0
 20 62  1  0
 21 63  1  0
 21 64  1  0
 22 65  1  6
 23 66  1  0
 25 67  1  0
 25 68  1  0
 25 69  1  0
 26 70  1  0
 26 71  1  0
 26 72  1  0
 28 73  1  0
 28 74  1  0
 28 75  1  0
 29 76  1  0
 29 77  1  0
 30 78  1  0
 30 79  1  0
 32 80  1  0
 32 81  1  0
 32 82  1  0
M  END
>  <meeko>  (5) 
{"is_sidechain": [false], "intermolecular_energy": 2.731, "internal_energy": -0.839}

$$$$
EPH_relaxed_0001_pdb2pqr_Repair_251_r2_0001_out
     RDKit          3D

 82 86  0  0  0  0  0  0  0  0999 V2000
  -13.9090    9.8920    0.7380 C   0  0  0  0  0  0  0  0  0  0  0  0
  -13.2940    9.3180   -0.5410 C   0  0  2  0  0  0  0  0  0  0  0  0
  -14.2670    8.3790   -1.2820 C   0  0  0  0  0  0  0  0  0  0  0  0
  -14.5540    8.8050   -2.7250 C   0  0  0  0  0  0  0  0  0  0  0  0
  -15.2590   10.1270   -2.7820 C   0  0  2  0  0  0  0  0  0  0  0  0
  -15.0400   10.8700   -3.9890 O   0  0  0  0  0  0  0  0  0  0  0  0
  -14.5360   11.4610   -2.7800 C   0  0  0  0  0  0  0  0  0  0  0  0
  -13.0430   11.5390   -2.7180 C   0  0  0  0  0  0  0  0  0  0  0  0
  -15.2870   12.6810   -2.3470 C   0  0  0  0  0  0  0  0  0  0  0  0
  -12.0040    8.5760   -0.2100 C   0  0  1  0  0  0  0  0  0  0  0  0
  -12.2090    7.4670    0.8560 C   0  0  0  0  0  0  0  0  0  0  0  0
  -11.2470    6.3090    0.4870 C   0  0  0  0  0  0  0  0  0  0  0  0
  -10.2930    6.9150   -0.5690 C   0  0  1  0  0  0  0  0  0  0  0  0
   -9.2290    7.7030    0.2590 C   0  0  0  0  0  0  0  0  0  0  0  0
   -9.6240    5.9050   -1.5570 C   0  0  2  0  0  0  0  0  0  0  0  0
   -8.7020    4.8630   -0.9000 C   0  0  0  0  0  0  0  0  0  0  0  0
   -7.2690    5.2640   -0.7810 C   0  0  0  0  0  0  0  0  0  0  0  0
   -6.6860    6.2860   -1.4360 C   0  0  0  0  0  0  0  0  0  0  0  0
   -7.4640    7.1010   -2.4770 C   0  0  1  0  0  0  0  0  0  0  0  0
   -6.5950    7.2800   -3.7490 C   0  0  0  0  0  0  0  0  0  0  0  0
   -5.2260    7.8800   -3.4430 C   0  0  0  0  0  0  0  0  0  0  0  0
   -4.4600    7.0110   -2.4500 C   0  0  2  0  0  0  0  0  0  0  0  0
   -4.1460    5.7630   -3.0750 O   0  0  0  0  0  0  0  0  0  0  0  0
   -5.2410    6.7540   -1.1310 C   0  0  0  0  0  0  0  0  0  0  0  0
   -5.3180    8.0630   -0.3070 C   0  0  0  0  0  0  0  0  0  0  0  0
   -4.4190    5.7510   -0.2770 C   0  0  0  0  0  0  0  0  0  0  0  0
   -8.9300    6.5840   -2.8070 C   0  0  1  0  0  0  0  0  0  0  0  0
   -8.8730    5.5010   -3.9270 C   0  0  0  0  0  0  0  0  0  0  0  0
   -9.7780    7.7780   -3.3860 C   0  0  0  0  0  0  0  0  0  0  0  0
  -10.5120    8.6680   -2.3650 C   0  0  0  0  0  0  0  0  0  0  0  0
  -11.3030    7.8190   -1.3660 C   0  0  2  0  0  0  0  0  0  0  0  0
  -12.3960    7.0310   -2.1660 C   0  0  0  0  0  0  0  0  0  0  0  0
  -13.4229    9.4383    1.6142 H   0  0  0  0  0  0  0  0  0  0  0  0
  -13.7602   10.9817    0.7594 H   0  0  0  0  0  0  0  0  0  0  0  0
  -14.9858    9.6685    0.7594 H   0  0  0  0  0  0  0  0  0  0  0  0
  -13.0754   10.1624   -1.2112 H   0  0  0  0  0  0  0  0  0  0  0  0
  -13.8308    7.3693   -1.2981 H   0  0  0  0  0  0  0  0  0  0  0  0
  -15.2235    8.4141   -0.7399 H   0  0  0  0  0  0  0  0  0  0  0  0
  -13.6015    8.8849   -3.2694 H   0  0  0  0  0  0  0  0  0  0  0  0
  -15.2070    8.0476   -3.1832 H   0  0  0  0  0  0  0  0  0  0  0  0
  -16.0900    9.7374   -2.1756 H   0  0  0  0  0  0  0  0  0  0  0  0
  -12.7201   11.5559   -1.6666 H   0  0  0  0  0  0  0  0  0  0  0  0
  -12.6088   10.6623   -3.2209 H   0  0  0  0  0  0  0  0  0  0  0  0
  -12.7025   12.4562   -3.2209 H   0  0  0  0  0  0  0  0  0  0  0  0
  -15.3137   12.7244   -1.2482 H   0  0  0  0  0  0  0  0  0  0  0  0
  -14.7848   13.5785   -2.7373 H   0  0  0  0  0  0  0  0  0  0  0  0
  -16.3145   12.6368   -2.7373 H   0  0  0  0  0  0  0  0  0  0  0  0
  -11.3825    9.4228    0.1165 H   0  0  0  0  0  0  0  0  0  0  0  0
  -11.9688    7.8547    1.8570 H   0  0  0  0  0  0  0  0  0  0  0  0
  -13.2536    7.1228    0.8721 H   0  0  0  0  0  0  0  0  0  0  0  0
  -10.6850    5.9744    1.3714 H   0  0  0  0  0  0  0  0  0  0  0  0
  -11.7830    5.4267    0.1072 H   0  0  0  0  0  0  0  0  0  0  0  0
   -9.4211    7.5608    1.3327 H   0  0  0  0  0  0  0  0  0  0  0  0
   -8.2237    7.3299    0.0138 H   0  0  0  0  0  0  0  0  0  0  0  0
   -9.2928    8.7734    0.0138 H   0  0  0  0  0  0  0  0  0  0  0  0
  -10.4880    5.3412   -1.9385 H   0  0  0  0  0  0  0  0  0  0  0  0
   -9.0836    4.6615    0.1118 H   0  0  0  0  0  0  0  0  0  0  0  0
   -8.7179    3.9834   -1.5604 H   0  0  0  0  0  0  0  0  0  0  0  0
   -6.6360    4.6750   -0.1010 H   0  0  0  0  0  0  0  0  0  0  0  0
   -7.6557    8.0809   -2.0153 H   0  0  0  0  0  0  0  0  0  0  0  0
   -6.4515    6.2960   -4.2193 H   0  0  0  0  0  0  0  0  0  0  0  0
   -7.1223    7.9758   -4.4182 H   0  0  0  0  0  0  0  0  0  0  0  0
   -4.6487    7.9545   -4.3764 H   0  0  0  0  0  0  0  0  0  0  0  0
   -5.3702    8.8763   -2.9997 H   0  0  0  0  0  0  0  0  0  0  0  0
   -3.5460    7.5561   -2.1717 H   0  0  0  0  0  0  0  0  0  0  0  0
   -3.3240    5.8850   -3.5800 H   0  0  0  0  0  0  0  0  0  0  0  0
   -5.3038    7.8221    0.7662 H   0  0  0  0  0  0  0  0  0  0  0  0
   -4.4558    8.7011   -0.5510 H   0  0  0  0  0  0  0  0  0  0  0  0
   -6.2490    8.5956   -0.5510 H   0  0  0  0  0  0  0  0  0  0  0  0
   -4.5864    5.9553    0.7908 H   0  0  0  0  0  0  0  0  0  0  0  0
   -4.7388    4.7243   -0.5084 H   0  0  0  0  0  0  0  0  0  0  0  0
   -3.3495    5.8629   -0.5084 H   0  0  0  0  0  0  0  0  0  0  0  0
   -8.8204    4.5023   -3.4690 H   0  0  0  0  0  0  0  0  0  0  0  0
   -9.7761    5.5711   -4.5511 H   0  0  0  0  0  0  0  0  0  0  0  0
   -7.9823    5.6655   -4.5511 H   0  0  0  0  0  0  0  0  0  0  0  0
   -9.0962    8.4228   -3.9600 H   0  0  0  0  0  0  0  0  0  0  0  0
  -10.5738    7.3045   -3.9797 H   0  0  0  0  0  0  0  0  0  0  0  0
   -9.7734    9.2723   -1.8180 H   0  0  0  0  0  0  0  0  0  0  0  0
  -11.2152    9.3171   -2.9074 H   0  0  0  0  0  0  0  0  0  0  0  0
  -13.0812    6.5370   -1.4614 H   0  0  0  0  0  0  0  0  0  0  0  0
  -12.9623    7.7300   -2.7991 H   0  0  0  0  0  0  0  0  0  0  0  0
  -11.9118    6.2729   -2.7991 H   0  0  0  0  0  0  0  0  0  0  0  0
  1  2  1  0
  2  3  1  0
  3  4  1  0
  4  5  1  0
  5  6  1  0
  6  7  1  0
  7  8  1  0
  7  9  1  0
  2 10  1  0
 10 11  1  0
 11 12  1  0
 12 13  1  0
 13 14  1  1
 13 15  1  0
 15 16  1  0
 16 17  1  0
 17 18  2  0
 18 19  1  0
 19 20  1  0
 20 21  1  0
 21 22  1  0
 22 23  1  0
 22 24  1  0
 24 25  1  0
 24 26  1  0
 19 27  1  0
 27 28  1  6
 27 29  1  0
 29 30  1  0
 30 31  1  0
 31 32  1  6
  7  5  1  0
 31 10  1  0
 31 13  1  0
 27 15  1  0
 24 18  1  0
  1 33  1  0
  1 34  1  0
  1 35  1  0
  2 36  1  6
  3 37  1  0
  3 38  1  0
  4 39  1  0
  4 40  1  0
  5 41  1  1
  8 42  1  0
  8 43  1  0
  8 44  1  0
  9 45  1  0
  9 46  1  0
  9 47  1  0
 10 48  1  1
 11 49  1  0
 11 50  1  0
 12 51  1  0
 12 52  1  0
 14 53  1  0
 14 54  1  0
 14 55  1  0
 15 56  1  6
 16 57  1  0
 16 58  1  0
 17 59  1  0
 19 60  1  1
 20 61  1  0
 20 62  1  0
 21 63  1  0
 21 64  1  0
 22 65  1  1
 23 66  1  0
 25 67  1  0
 25 68  1  0
 25 69  1  0
 26 70  1  0
 26 71  1  0
 26 72  1  0
 28 73  1  0
 28 74  1  0
 28 75  1  0
 29 76  1  0
 29 77  1  0
 30 78  1  0
 30 79  1  0
 32 80  1  0
 32 81  1  0
 32 82  1  0
M  END
>  <meeko>  (6) 
{"is_sidechain": [false], "intermolecular_energy": 2.731, "internal_energy": -0.839}

$$$$
EPH_relaxed_0001_pdb2pqr_Repair_251_r2_0001_out
     RDKit          3D

 82 86  0  0  0  0  0  0  0  0999 V2000
  -13.7550   10.2080   -0.5390 C   0  0  0  0  0  0  0  0  0  0  0  0
  -13.1800    9.1040   -1.4300 C   0  0  2  0  0  0  0  0  0  0  0  0
  -14.1380    7.9020   -1.5570 C   0  0  0  0  0  0  0  0  0  0  0  0
  -15.2870    8.1310   -2.5420 C   0  0  0  0  0  0  0  0  0  0  0  0
  -15.0430    7.4390   -3.8490 C   0  0  2  0  0  0  0  0  0  0  0  0
  -13.8220    7.8080   -4.5030 O   0  0  0  0  0  0  0  0  0  0  0  0
  -15.0380    8.1550   -5.1860 C   0  0  0  0  0  0  0  0  0  0  0  0
  -15.2820    9.6280   -5.2840 C   0  0  0  0  0  0  0  0  0  0  0  0
  -15.2810    7.3540   -6.4280 C   0  0  0  0  0  0  0  0  0  0  0  0
  -11.8340    8.6420   -0.8840 C   0  0  1  0  0  0  0  0  0  0  0  0
  -11.9640    7.8900    0.4670 C   0  0  0  0  0  0  0  0  0  0  0  0
  -10.8750    6.7870    0.4720 C   0  0  0  0  0  0  0  0  0  0  0  0
   -9.9490    7.1490   -0.7130 C   0  0  1  0  0  0  0  0  0  0  0  0
   -9.0040    8.2610   -0.1590 C   0  0  0  0  0  0  0  0  0  0  0  0
   -9.1420    5.9680   -1.3450 C   0  0  2  0  0  0  0  0  0  0  0  0
   -8.1430    5.2800   -0.3980 C   0  0  0  0  0  0  0  0  0  0  0  0
   -6.7640    5.8530   -0.4000 C   0  0  0  0  0  0  0  0  0  0  0  0
   -6.2650    6.6880   -1.3310 C   0  0  0  0  0  0  0  0  0  0  0  0
   -7.0830    7.0610   -2.5740 C   0  0  1  0  0  0  0  0  0  0  0  0
   -6.1900    6.9430   -3.8360 C   0  0  0  0  0  0  0  0  0  0  0  0
   -4.9030    7.7540   -3.7200 C   0  0  0  0  0  0  0  0  0  0  0  0
   -4.0890    7.3140   -2.5060 C   0  0  2  0  0  0  0  0  0  0  0  0
   -3.6250    5.9780   -2.7210 O   0  0  0  0  0  0  0  0  0  0  0  0
   -4.8890    7.3810   -1.1750 C   0  0  0  0  0  0  0  0  0  0  0  0
   -5.1320    8.8610   -0.7880 C   0  0  0  0  0  0  0  0  0  0  0  0
   -4.0010    6.7780   -0.0530 C   0  0  0  0  0  0  0  0  0  0  0  0
   -8.4750    6.3110   -2.7390 C   0  0  1  0  0  0  0  0  0  0  0  0
   -8.2640    4.9540   -3.4770 C   0  0  0  0  0  0  0  0  0  0  0  0
   -9.4190    7.1750   -3.6570 C   0  0  0  0  0  0  0  0  0  0  0  0
  -10.2790    8.2440   -2.9580 C   0  0  0  0  0  0  0  0  0  0  0  0
  -11.0150    7.6540   -1.7510 C   0  0  2  0  0  0  0  0  0  0  0  0
  -11.9900    6.5470   -2.2810 C   0  0  0  0  0  0  0  0  0  0  0  0
  -13.6139    9.9371    0.5177 H   0  0  0  0  0  0  0  0  0  0  0  0
  -13.2356   11.1550   -0.7472 H   0  0  0  0  0  0  0  0  0  0  0  0
  -14.8287   10.3252   -0.7472 H   0  0  0  0  0  0  0  0  0  0  0  0
  -13.0466    9.5277   -2.4363 H   0  0  0  0  0  0  0  0  0  0  0  0
  -13.5586    7.0307   -1.8962 H   0  0  0  0  0  0  0  0  0  0  0  0
  -14.5905    7.7461   -0.5666 H   0  0  0  0  0  0  0  0  0  0  0  0
  -16.2171    7.7428   -2.1013 H   0  0  0  0  0  0  0  0  0  0  0  0
  -15.3631    9.2113   -2.7349 H   0  0  0  0  0  0  0  0  0  0  0  0
  -15.5666    6.5381   -3.4967 H   0  0  0  0  0  0  0  0  0  0  0  0
  -15.3529   10.0560   -4.2732 H   0  0  0  0  0  0  0  0  0  0  0  0
  -14.4502   10.1022   -5.8254 H   0  0  0  0  0  0  0  0  0  0  0  0
  -16.2223    9.8087   -5.8254 H   0  0  0  0  0  0  0  0  0  0  0  0
  -15.5902    6.3349   -6.1525 H   0  0  0  0  0  0  0  0  0  0  0  0
  -16.0751    7.8301   -7.0219 H   0  0  0  0  0  0  0  0  0  0  0  0
  -14.3562    7.3087   -7.0219 H   0  0  0  0  0  0  0  0  0  0  0  0
  -11.3161    9.6109   -0.8280 H   0  0  0  0  0  0  0  0  0  0  0  0
  -11.8030    8.5850    1.3043 H   0  0  0  0  0  0  0  0  0  0  0  0
  -12.9676    7.4544    0.5814 H   0  0  0  0  0  0  0  0  0  0  0  0
  -10.3159    6.7974    1.4192 H   0  0  0  0  0  0  0  0  0  0  0  0
  -11.3022    5.7780    0.3750 H   0  0  0  0  0  0  0  0  0  0  0  0
   -9.0204    8.2417    0.9407 H   0  0  0  0  0  0  0  0  0  0  0  0
   -7.9784    8.0808   -0.5136 H   0  0  0  0  0  0  0  0  0  0  0  0
   -9.3472    9.2441   -0.5136 H   0  0  0  0  0  0  0  0  0  0  0  0
   -9.9280    5.2241   -1.5419 H   0  0  0  0  0  0  0  0  0  0  0  0
   -8.5397    5.3524    0.6254 H   0  0  0  0  0  0  0  0  0  0  0  0
   -8.0434    4.2460   -0.7597 H   0  0  0  0  0  0  0  0  0  0  0  0
   -6.0996    5.5689    0.4294 H   0  0  0  0  0  0  0  0  0  0  0  0
   -7.3919    8.1071   -2.4319 H   0  0  0  0  0  0  0  0  0  0  0  0
   -5.9279    5.8851   -3.9848 H   0  0  0  0  0  0  0  0  0  0  0  0
   -6.7607    7.3424   -4.6873 H   0  0  0  0  0  0  0  0  0  0  0  0
   -4.3016    7.6070   -4.6292 H   0  0  0  0  0  0  0  0  0  0  0  0
   -5.1662    8.8154   -3.6006 H   0  0  0  0  0  0  0  0  0  0  0  0
   -3.2475    8.0148   -2.4021 H   0  0  0  0  0  0  0  0  0  0  0  0
   -3.1990    5.6780   -1.9000 H   0  0  0  0  0  0  0  0  0  0  0  0
   -5.1475    8.9557    0.3078 H   0  0  0  0  0  0  0  0  0  0  0  0
   -4.3242    9.4847   -1.1985 H   0  0  0  0  0  0  0  0  0  0  0  0
   -6.0968    9.1937   -1.1985 H   0  0  0  0  0  0  0  0  0  0  0  0
   -4.4113    7.0566    0.9289 H   0  0  0  0  0  0  0  0  0  0  0  0
   -3.9859    5.6821   -0.1465 H   0  0  0  0  0  0  0  0  0  0  0  0
   -2.9768    7.1681   -0.1465 H   0  0  0  0  0  0  0  0  0  0  0  0
   -8.1389    4.1498   -2.7370 H   0  0  0  0  0  0  0  0  0  0  0  0
   -9.1396    4.7394   -4.1073 H   0  0  0  0  0  0  0  0  0  0  0  0
   -7.3646    5.0154   -4.1073 H   0  0  0  0  0  0  0  0  0  0  0  0
   -8.7859    7.6882   -4.3959 H   0  0  0  0  0  0  0  0  0  0  0  0
  -10.1385    6.4604   -4.0833 H   0  0  0  0  0  0  0  0  0  0  0  0
   -9.6282    9.0628   -2.6174 H   0  0  0  0  0  0  0  0  0  0  0  0
  -11.0250    8.6172   -3.6750 H   0  0  0  0  0  0  0  0  0  0  0  0
  -12.4498    6.0249   -1.4290 H   0  0  0  0  0  0  0  0  0  0  0  0
  -12.7762    7.0132   -2.8930 H   0  0  0  0  0  0  0  0  0  0  0  0
  -11.4282    5.8260   -2.8930 H   0  0  0  0  0  0  0  0  0  0  0  0
  1  2  1  0
  2  3  1  0
  3  4  1  0
  4  5  1  0
  5  6  1  0
  6  7  1  0
  7  8  1  0
  7  9  1  0
  2 10  1  0
 10 11  1  0
 11 12  1  0
 12 13  1  0
 13 14  1  1
 13 15  1  0
 15 16  1  0
 16 17  1  0
 17 18  2  0
 18 19  1  0
 19 20  1  0
 20 21  1  0
 21 22  1  0
 22 23  1  0
 22 24  1  0
 24 25  1  0
 24 26  1  0
 19 27  1  0
 27 28  1  6
 27 29  1  0
 29 30  1  0
 30 31  1  0
 31 32  1  6
  7  5  1  0
 31 10  1  0
 31 13  1  0
 27 15  1  0
 24 18  1  0
  1 33  1  0
  1 34  1  0
  1 35  1  0
  2 36  1  6
  3 37  1  0
  3 38  1  0
  4 39  1  0
  4 40  1  0
  5 41  1  6
  8 42  1  0
  8 43  1  0
  8 44  1  0
  9 45  1  0
  9 46  1  0
  9 47  1  0
 10 48  1  1
 11 49  1  0
 11 50  1  0
 12 51  1  0
 12 52  1  0
 14 53  1  0
 14 54  1  0
 14 55  1  0
 15 56  1  6
 16 57  1  0
 16 58  1  0
 17 59  1  0
 19 60  1  1
 20 61  1  0
 20 62  1  0
 21 63  1  0
 21 64  1  0
 22 65  1  1
 23 66  1  0
 25 67  1  0
 25 68  1  0
 25 69  1  0
 26 70  1  0
 26 71  1  0
 26 72  1  0
 28 73  1  0
 28 74  1  0
 28 75  1  0
 29 76  1  0
 29 77  1  0
 30 78  1  0
 30 79  1  0
 32 80  1  0
 32 81  1  0
 32 82  1  0
M  END
>  <meeko>  (7) 
{"is_sidechain": [false], "intermolecular_energy": 2.731, "internal_energy": -0.839}

$$$$
EPH_relaxed_0001_pdb2pqr_Repair_251_r2_0001_out
     RDKit          3D

 82 86  0  0  0  0  0  0  0  0999 V2000
   -3.0040    7.3270   -1.6920 C   0  0  0  0  0  0  0  0  0  0  0  0
   -2.8560    8.5610   -0.7970 C   0  0  2  0  0  0  0  0  0  0  0  0
   -4.2210    9.1710   -0.4190 C   0  0  0  0  0  0  0  0  0  0  0  0
   -5.3380    8.1350   -0.2700 C   0  0  0  0  0  0  0  0  0  0  0  0
   -5.9030    7.7340   -1.5980 C   0  0  2  0  0  0  0  0  0  0  0  0
   -6.9160    8.6110   -2.1080 O   0  0  0  0  0  0  0  0  0  0  0  0
   -7.3360    7.2740   -1.7930 C   0  0  0  0  0  0  0  0  0  0  0  0
   -8.2920    7.1910   -0.6450 C   0  0  0  0  0  0  0  0  0  0  0  0
   -7.6640    6.4460   -2.9970 C   0  0  0  0  0  0  0  0  0  0  0  0
   -1.9920    9.6060   -1.4930 C   0  0  1  0  0  0  0  0  0  0  0  0
   -2.5330   11.0490   -1.3040 C   0  0  0  0  0  0  0  0  0  0  0  0
   -1.2970   11.9810   -1.2130 C   0  0  0  0  0  0  0  0  0  0  0  0
   -0.1120   11.1040   -1.6800 C   0  0  1  0  0  0  0  0  0  0  0  0
   -0.1790   11.1370   -3.2390 C   0  0  0  0  0  0  0  0  0  0  0  0
    1.3020   11.5160   -1.1540 C   0  0  2  0  0  0  0  0  0  0  0  0
    1.7820   12.9090   -1.5970 C   0  0  0  0  0  0  0  0  0  0  0  0
    2.5570   12.9410   -2.8730 C   0  0  0  0  0  0  0  0  0  0  0  0
    3.1000   11.8720   -3.4850 C   0  0  0  0  0  0  0  0  0  0  0  0
    3.0420   10.4810   -2.8400 C   0  0  1  0  0  0  0  0  0  0  0  0
    4.4400    9.8140   -2.9230 C   0  0  0  0  0  0  0  0  0  0  0  0
    4.9870    9.7750   -4.3460 C   0  0  0  0  0  0  0  0  0  0  0  0
    5.0840   11.1810   -4.9320 C   0  0  2  0  0  0  0  0  0  0  0  0
    6.0800   11.9130   -4.2110 O   0  0  0  0  0  0  0  0  0  0  0  0
    3.7360   11.9550   -4.8940 C   0  0  0  0  0  0  0  0  0  0  0  0
    2.7490   11.3320   -5.9110 C   0  0  0  0  0  0  0  0  0  0  0  0
    4.0050   13.4050   -5.3820 C   0  0  0  0  0  0  0  0  0  0  0  0
    2.4210   10.4200   -1.3790 C   0  0  1  0  0  0  0  0  0  0  0  0
    3.5310   10.6940   -0.3180 C   0  0  0  0  0  0  0  0  0  0  0  0
    1.8950    8.9620   -1.1040 C   0  0  0  0  0  0  0  0  0  0  0  0
    0.4500    8.6520   -1.5390 C   0  0  0  0  0  0  0  0  0  0  0  0
   -0.5170    9.7280   -1.0360 C   0  0  2  0  0  0  0  0  0  0  0  0
   -0.4880    9.7040    0.5300 C   0  0  0  0  0  0  0  0  0  0  0  0
   -3.1116    6.4298   -1.0647 H   0  0  0  0  0  0  0  0  0  0  0  0
   -3.8951    7.4394   -2.3271 H   0  0  0  0  0  0  0  0  0  0  0  0
   -2.1116    7.2255   -2.3271 H   0  0  0  0  0  0  0  0  0  0  0  0
   -2.3699    8.2382    0.1355 H   0  0  0  0  0  0  0  0  0  0  0  0
   -4.1108    9.7028    0.5376 H   0  0  0  0  0  0  0  0  0  0  0  0
   -4.5121    9.8416   -1.2410 H   0  0  0  0  0  0  0  0  0  0  0  0
   -4.9321    7.2425    0.2288 H   0  0  0  0  0  0  0  0  0  0  0  0
   -6.1464    8.5857    0.3244 H   0  0  0  0  0  0  0  0  0  0  0  0
   -4.9399    7.2982   -1.9023 H   0  0  0  0  0  0  0  0  0  0  0  0
   -7.7335    7.2395    0.3015 H   0  0  0  0  0  0  0  0  0  0  0  0
   -9.0003    8.0310   -0.6962 H   0  0  0  0  0  0  0  0  0  0  0  0
   -8.8450    6.2415   -0.6962 H   0  0  0  0  0  0  0  0  0  0  0  0
   -8.0514    5.4681   -2.6750 H   0  0  0  0  0  0  0  0  0  0  0  0
   -8.4258    6.9616   -3.6002 H   0  0  0  0  0  0  0  0  0  0  0  0
   -6.7558    6.3001   -3.6002 H   0  0  0  0  0  0  0  0  0  0  0  0
   -2.0356    9.2253   -2.5241 H   0  0  0  0  0  0  0  0  0  0  0  0
   -3.1601   11.3339   -2.1616 H   0  0  0  0  0  0  0  0  0  0  0  0
   -3.1519   11.1236   -0.3977 H   0  0  0  0  0  0  0  0  0  0  0  0
   -1.4186   12.8528   -1.8727 H   0  0  0  0  0  0  0  0  0  0  0  0
   -1.1477   12.3779   -0.1980 H   0  0  0  0  0  0  0  0  0  0  0  0
   -1.1240   11.6025   -3.5556 H   0  0  0  0  0  0  0  0  0  0  0  0
    0.6668   11.7216   -3.6301 H   0  0  0  0  0  0  0  0  0  0  0  0
   -0.1269   10.1102   -3.6301 H   0  0  0  0  0  0  0  0  0  0  0  0
    1.1391   11.5877   -0.0685 H   0  0  0  0  0  0  0  0  0  0  0  0
    0.8967   13.5500   -1.7210 H   0  0  0  0  0  0  0  0  0  0  0  0
    2.4715   13.2565   -0.8135 H   0  0  0  0  0  0  0  0  0  0  0  0
    2.6959   13.9208   -3.3534 H   0  0  0  0  0  0  0  0  0  0  0  0
    2.3167    9.9012   -3.4298 H   0  0  0  0  0  0  0  0  0  0  0  0
    5.1395   10.3820   -2.2920 H   0  0  0  0  0  0  0  0  0  0  0  0
    4.3347    8.7749   -2.5777 H   0  0  0  0  0  0  0  0  0  0  0  0
    5.9884    9.3200   -4.3344 H   0  0  0  0  0  0  0  0  0  0  0  0
    4.3020    9.1814   -4.9692 H   0  0  0  0  0  0  0  0  0  0  0  0
    5.3566   11.0785   -5.9927 H   0  0  0  0  0  0  0  0  0  0  0  0
    5.8180   11.9220   -3.2750 H   0  0  0  0  0  0  0  0  0  0  0  0
    1.9391   10.8208   -5.3700 H   0  0  0  0  0  0  0  0  0  0  0  0
    2.3239   12.1258   -6.5428 H   0  0  0  0  0  0  0  0  0  0  0  0
    3.2827   10.6068   -6.5428 H   0  0  0  0  0  0  0  0  0  0  0  0
    4.1279   14.0676   -4.5126 H   0  0  0  0  0  0  0  0  0  0  0  0
    4.9219   13.4233   -5.9895 H   0  0  0  0  0  0  0  0  0  0  0  0
    3.1557   13.7509   -5.9895 H   0  0  0  0  0  0  0  0  0  0  0  0
    3.1070   10.5893    0.6916 H   0  0  0  0  0  0  0  0  0  0  0  0
    4.3496    9.9710   -0.4487 H   0  0  0  0  0  0  0  0  0  0  0  0
    3.9191   11.7149   -0.4487 H   0  0  0  0  0  0  0  0  0  0  0  0
    2.5592    8.2631   -1.6334 H   0  0  0  0  0  0  0  0  0  0  0  0
    1.8950    8.8575   -0.0090 H   0  0  0  0  0  0  0  0  0  0  0  0
    0.4054    8.6132   -2.6374 H   0  0  0  0  0  0  0  0  0  0  0  0
    0.1537    7.6847   -1.1071 H   0  0  0  0  0  0  0  0  0  0  0  0
   -1.2800   10.3594    0.9215 H   0  0  0  0  0  0  0  0  0  0  0  0
   -0.6545    8.6759    0.8841 H   0  0  0  0  0  0  0  0  0  0  0  0
    0.4908   10.0598    0.8841 H   0  0  0  0  0  0  0  0  0  0  0  0
  1  2  1  0
  2  3  1  0
  3  4  1  0
  4  5  1  0
  5  6  1  0
  6  7  1  0
  7  8  1  0
  7  9  1  0
  2 10  1  0
 10 11  1  0
 11 12  1  0
 12 13  1  0
 13 14  1  6
 13 15  1  0
 15 16  1  0
 16 17  1  0
 17 18  2  0
 18 19  1  0
 19 20  1  0
 20 21  1  0
 21 22  1  0
 22 23  1  0
 22 24  1  0
 24 25  1  0
 24 26  1  0
 19 27  1  0
 27 28  1  1
 27 29  1  0
 29 30  1  0
 30 31  1  0
 31 32  1  1
  7  5  1  0
 31 10  1  0
 31 13  1  0
 27 15  1  0
 24 18  1  0
  1 33  1  0
  1 34  1  0
  1 35  1  0
  2 36  1  1
  3 37  1  0
  3 38  1  0
  4 39  1  0
  4 40  1  0
  5 41  1  6
  8 42  1  0
  8 43  1  0
  8 44  1  0
  9 45  1  0
  9 46  1  0
  9 47  1  0
 10 48  1  6
 11 49  1  0
 11 50  1  0
 12 51  1  0
 12 52  1  0
 14 53  1  0
 14 54  1  0
 14 55  1  0
 15 56  1  1
 16 57  1  0
 16 58  1  0
 17 59  1  0
 19 60  1  6
 20 61  1  0
 20 62  1  0
 21 63  1  0
 21 64  1  0
 22 65  1  6
 23 66  1  0
 25 67  1  0
 25 68  1  0
 25 69  1  0
 26 70  1  0
 26 71  1  0
 26 72  1  0
 28 73  1  0
 28 74  1  0
 28 75  1  0
 29 76  1  0
 29 77  1  0
 30 78  1  0
 30 79  1  0
 32 80  1  0
 32 81  1  0
 32 82  1  0
M  END
>  <meeko>  (8) 
{"is_sidechain": [false], "intermolecular_energy": 2.731, "internal_energy": -0.839}

$$$$
EPH_relaxed_0001_pdb2pqr_Repair_251_r2_0001_out
     RDKit          3D

 82 86  0  0  0  0  0  0  0  0999 V2000
  -11.4740    8.8790   -2.6850 C   0  0  0  0  0  0  0  0  0  0  0  0
  -11.0720    7.6180   -1.9150 C   0  0  2  0  0  0  0  0  0  0  0  0
  -12.1510    7.1900   -0.9000 C   0  0  0  0  0  0  0  0  0  0  0  0
  -13.5640    7.6450   -1.2740 C   0  0  0  0  0  0  0  0  0  0  0  0
  -13.8120    9.0680   -0.8740 C   0  0  2  0  0  0  0  0  0  0  0  0
  -15.1900    9.3960   -0.6540 O   0  0  0  0  0  0  0  0  0  0  0  0
  -14.5460   10.0670   -1.7490 C   0  0  0  0  0  0  0  0  0  0  0  0
  -15.0770    9.6840   -3.0950 C   0  0  0  0  0  0  0  0  0  0  0  0
  -14.3190   11.5280   -1.5110 C   0  0  0  0  0  0  0  0  0  0  0  0
   -9.7460    7.8460   -1.1990 C   0  0  1  0  0  0  0  0  0  0  0  0
   -9.8430    7.6060    0.3310 C   0  0  0  0  0  0  0  0  0  0  0  0
   -8.4870    6.9990    0.7760 C   0  0  0  0  0  0  0  0  0  0  0  0
   -7.5480    7.2170   -0.4330 C   0  0  1  0  0  0  0  0  0  0  0  0
   -7.0690    8.6970   -0.3090 C   0  0  0  0  0  0  0  0  0  0  0  0
   -6.3420    6.2290   -0.5580 C   0  0  2  0  0  0  0  0  0  0  0  0
   -5.3340    6.2810    0.6040 C   0  0  0  0  0  0  0  0  0  0  0  0
   -4.2040    7.2400    0.4250 C   0  0  0  0  0  0  0  0  0  0  0  0
   -3.8450    7.8190   -0.7360 C   0  0  0  0  0  0  0  0  0  0  0  0
   -4.5450    7.4490   -2.0500 C   0  0  1  0  0  0  0  0  0  0  0  0
   -3.4820    7.2070   -3.1530 C   0  0  0  0  0  0  0  0  0  0  0  0
   -2.5260    8.3860   -3.3130 C   0  0  0  0  0  0  0  0  0  0  0  0
   -1.8060    8.6860   -2.0010 C   0  0  2  0  0  0  0  0  0  0  0  0
   -0.9390    7.5920   -1.6900 O   0  0  0  0  0  0  0  0  0  0  0  0
   -2.7770    8.9380   -0.8130 C   0  0  0  0  0  0  0  0  0  0  0  0
   -3.5030   10.2910   -1.0120 C   0  0  0  0  0  0  0  0  0  0  0  0
   -1.9250    9.0880    0.4760 C   0  0  0  0  0  0  0  0  0  0  0  0
   -5.6100    6.2730   -1.9600 C   0  0  1  0  0  0  0  0  0  0  0  0
   -4.8980    4.8960   -2.1340 C   0  0  0  0  0  0  0  0  0  0  0  0
   -6.6230    6.4030   -3.1590 C   0  0  0  0  0  0  0  0  0  0  0  0
   -7.8560    7.2990   -2.9330 C   0  0  0  0  0  0  0  0  0  0  0  0
   -8.5520    6.9500   -1.6130 C   0  0  2  0  0  0  0  0  0  0  0  0
   -9.0630    5.4730   -1.7180 C   0  0  0  0  0  0  0  0  0  0  0  0
  -11.7287    9.6778   -1.9730 H   0  0  0  0  0  0  0  0  0  0  0  0
  -10.6353    9.2053   -3.3176 H   0  0  0  0  0  0  0  0  0  0  0  0
  -12.3468    8.6597   -3.3176 H   0  0  0  0  0  0  0  0  0  0  0  0
  -10.9640    6.8038   -2.6468 H   0  0  0  0  0  0  0  0  0  0  0  0
  -12.1467    6.0922   -0.8311 H   0  0  0  0  0  0  0  0  0  0  0  0
  -11.9011    7.6721    0.0566 H   0  0  0  0  0  0  0  0  0  0  0  0
  -13.6916    7.5533   -2.3627 H   0  0  0  0  0  0  0  0  0  0  0  0
  -14.2827    7.0078   -0.7379 H   0  0  0  0  0  0  0  0  0  0  0  0
  -12.8447    9.1150   -0.3523 H   0  0  0  0  0  0  0  0  0  0  0  0
  -15.9635    9.0446   -2.9711 H   0  0  0  0  0  0  0  0  0  0  0  0
  -15.3543   10.5914   -3.6515 H   0  0  0  0  0  0  0  0  0  0  0  0
  -14.3035    9.1345   -3.6515 H   0  0  0  0  0  0  0  0  0  0  0  0
  -14.2887   11.7228   -0.4288 H   0  0  0  0  0  0  0  0  0  0  0  0
  -13.3633   11.8293   -1.9647 H   0  0  0  0  0  0  0  0  0  0  0  0
  -15.1383   12.1050   -1.9647 H   0  0  0  0  0  0  0  0  0  0  0  0
   -9.5549    8.8886   -1.4931 H   0  0  0  0  0  0  0  0  0  0  0  0
  -10.0215    8.5576    0.8531 H   0  0  0  0  0  0  0  0  0  0  0  0
  -10.6764    6.9299    0.5725 H   0  0  0  0  0  0  0  0  0  0  0  0
   -8.1019    7.5188    1.6657 H   0  0  0  0  0  0  0  0  0  0  0  0
   -8.5747    5.9375    1.0507 H   0  0  0  0  0  0  0  0  0  0  0  0
   -6.9818    8.9663    0.7539 H   0  0  0  0  0  0  0  0  0  0  0  0
   -6.0893    8.8074   -0.7968 H   0  0  0  0  0  0  0  0  0  0  0  0
   -7.7983    9.3605   -0.7968 H   0  0  0  0  0  0  0  0  0  0  0  0
   -6.8327    5.2472   -0.4855 H   0  0  0  0  0  0  0  0  0  0  0  0
   -5.8802    6.5655    1.5154 H   0  0  0  0  0  0  0  0  0  0  0  0
   -4.8790    5.2809    0.6574 H   0  0  0  0  0  0  0  0  0  0  0  0
   -3.6145    7.4952    1.3179 H   0  0  0  0  0  0  0  0  0  0  0  0
   -5.1685    8.3150   -2.3170 H   0  0  0  0  0  0  0  0  0  0  0  0
   -2.8981    6.3127   -2.8899 H   0  0  0  0  0  0  0  0  0  0  0  0
   -4.0142    7.0767   -4.1068 H   0  0  0  0  0  0  0  0  0  0  0  0
   -1.7811    8.1433   -4.0852 H   0  0  0  0  0  0  0  0  0  0  0  0
   -3.1077    9.2727   -3.6051 H   0  0  0  0  0  0  0  0  0  0  0  0
   -1.2360    9.6160   -2.1429 H   0  0  0  0  0  0  0  0  0  0  0  0
   -1.4380    6.7700   -1.8350 H   0  0  0  0  0  0  0  0  0  0  0  0
   -3.7380   10.7289   -0.0306 H   0  0  0  0  0  0  0  0  0  0  0  0
   -2.8520   10.9773   -1.5734 H   0  0  0  0  0  0  0  0  0  0  0  0
   -4.4348   10.1280   -1.5734 H   0  0  0  0  0  0  0  0  0  0  0  0
   -2.5719    8.9741    1.3584 H   0  0  0  0  0  0  0  0  0  0  0  0
   -1.1440    8.3135    0.4915 H   0  0  0  0  0  0  0  0  0  0  0  0
   -1.4554   10.0826    0.4915 H   0  0  0  0  0  0  0  0  0  0  0  0
   -4.6775    4.4696   -1.1443 H   0  0  0  0  0  0  0  0  0  0  0  0
   -5.5550    4.2112   -2.6902 H   0  0  0  0  0  0  0  0  0  0  0  0
   -3.9594    5.0362   -2.6902 H   0  0  0  0  0  0  0  0  0  0  0  0
   -6.0702    6.8085   -4.0192 H   0  0  0  0  0  0  0  0  0  0  0  0
   -7.0263    5.3902   -3.3060 H   0  0  0  0  0  0  0  0  0  0  0  0
   -7.5361    8.3511   -2.9041 H   0  0  0  0  0  0  0  0  0  0  0  0
   -8.5651    7.1351   -3.7579 H   0  0  0  0  0  0  0  0  0  0  0  0
   -9.2053    5.0616   -0.7078 H   0  0  0  0  0  0  0  0  0  0  0  0
  -10.0200    5.4538   -2.2600 H   0  0  0  0  0  0  0  0  0  0  0  0
   -8.3225    4.8665   -2.2600 H   0  0  0  0  0  0  0  0  0  0  0  0
  1  2  1  0
  2  3  1  0
  3  4  1  0
  4  5  1  0
  5  6  1  0
  6  7  1  0
  7  8  1  0
  7  9  1  0
  2 10  1  0
 10 11  1  0
 11 12  1  0
 12 13  1  0
 13 14  1  6
 13 15  1  0
 15 16  1  0
 16 17  1  0
 17 18  2  0
 18 19  1  0
 19 20  1  0
 20 21  1  0
 21 22  1  0
 22 23  1  0
 22 24  1  0
 24 25  1  0
 24 26  1  0
 19 27  1  0
 27 28  1  6
 27 29  1  0
 29 30  1  0
 30 31  1  0
 31 32  1  6
  7  5  1  0
 31 10  1  0
 31 13  1  0
 27 15  1  0
 24 18  1  0
  1 33  1  0
  1 34  1  0
  1 35  1  0
  2 36  1  6
  3 37  1  0
  3 38  1  0
  4 39  1  0
  4 40  1  0
  5 41  1  1
  8 42  1  0
  8 43  1  0
  8 44  1  0
  9 45  1  0
  9 46  1  0
  9 47  1  0
 10 48  1  1
 11 49  1  0
 11 50  1  0
 12 51  1  0
 12 52  1  0
 14 53  1  0
 14 54  1  0
 14 55  1  0
 15 56  1  6
 16 57  1  0
 16 58  1  0
 17 59  1  0
 19 60  1  6
 20 61  1  0
 20 62  1  0
 21 63  1  0
 21 64  1  0
 22 65  1  6
 23 66  1  0
 25 67  1  0
 25 68  1  0
 25 69  1  0
 26 70  1  0
 26 71  1  0
 26 72  1  0
 28 73  1  0
 28 74  1  0
 28 75  1  0
 29 76  1  0
 29 77  1  0
 30 78  1  0
 30 79  1  0
 32 80  1  0
 32 81  1  0
 32 82  1  0
M  END
>  <meeko>  (9) 
{"is_sidechain": [false], "intermolecular_energy": 2.731, "internal_energy": -0.839}

$$$$
EPH_relaxed_0001_pdb2pqr_Repair_251_r2_0001_out
     RDKit          3D

 82 86  0  0  0  0  0  0  0  0999 V2000
   -5.4520    4.8400   -0.8220 C   0  0  0  0  0  0  0  0  0  0  0  0
   -5.3910    6.3690   -0.7720 C   0  0  2  0  0  0  0  0  0  0  0  0
   -6.4910    7.0230   -1.6310 C   0  0  0  0  0  0  0  0  0  0  0  0
   -7.6290    6.0690   -2.0030 C   0  0  0  0  0  0  0  0  0  0  0  0
   -8.8920    6.8110   -2.3250 C   0  0  2  0  0  0  0  0  0  0  0  0
   -8.8730    8.2020   -1.9780 O   0  0  0  0  0  0  0  0  0  0  0  0
   -9.8170    7.3840   -1.2680 C   0  0  0  0  0  0  0  0  0  0  0  0
   -9.5200    7.2390    0.1920 C   0  0  0  0  0  0  0  0  0  0  0  0
  -11.2430    7.6520   -1.6350 C   0  0  0  0  0  0  0  0  0  0  0  0
   -4.0180    6.8490   -1.2290 C   0  0  1  0  0  0  0  0  0  0  0  0
   -3.7500    6.5500   -2.7280 C   0  0  0  0  0  0  0  0  0  0  0  0
   -2.9030    7.7280   -3.2750 C   0  0  0  0  0  0  0  0  0  0  0  0
   -2.4340    8.4890   -2.0130 C   0  0  1  0  0  0  0  0  0  0  0  0
   -1.2040    7.6820   -1.4910 C   0  0  0  0  0  0  0  0  0  0  0  0
   -2.0910   10.0020   -2.2060 C   0  0  2  0  0  0  0  0  0  0  0  0
   -0.9230   10.2890   -3.1660 C   0  0  0  0  0  0  0  0  0  0  0  0
    0.4260   10.3540   -2.5290 C   0  0  0  0  0  0  0  0  0  0  0  0
    0.6620   10.4730   -1.2090 C   0  0  0  0  0  0  0  0  0  0  0  0
   -0.4930   10.6530   -0.2150 C   0  0  1  0  0  0  0  0  0  0  0  0
   -0.1510   11.7980    0.7740 C   0  0  0  0  0  0  0  0  0  0  0  0
    1.1910   11.5880    1.4700 C   0  0  0  0  0  0  0  0  0  0  0  0
    2.3210   11.4720    0.4510 C   0  0  2  0  0  0  0  0  0  0  0  0
    2.4790   12.7320   -0.2080 O   0  0  0  0  0  0  0  0  0  0  0  0
    2.0830   10.3560   -0.6040 C   0  0  0  0  0  0  0  0  0  0  0  0
    2.2120    8.9670    0.0690 C   0  0  0  0  0  0  0  0  0  0  0  0
    3.2250   10.4380   -1.6530 C   0  0  0  0  0  0  0  0  0  0  0  0
   -1.9390   10.8110   -0.8540 C   0  0  1  0  0  0  0  0  0  0  0  0
   -2.2090   12.3080   -1.1980 C   0  0  0  0  0  0  0  0  0  0  0  0
   -3.0210   10.3990    0.2130 C   0  0  0  0  0  0  0  0  0  0  0  0
   -3.4040    8.9080    0.2740 C   0  0  0  0  0  0  0  0  0  0  0  0
   -3.7230    8.3660   -1.1220 C   0  0  2  0  0  0  0  0  0  0  0  0
   -4.9710    9.1450   -1.6640 C   0  0  0  0  0  0  0  0  0  0  0  0
   -5.4680    4.4400    0.2026 H   0  0  0  0  0  0  0  0  0  0  0  0
   -6.3634    4.5265   -1.3522 H   0  0  0  0  0  0  0  0  0  0  0  0
   -4.5685    4.4549   -1.3522 H   0  0  0  0  0  0  0  0  0  0  0  0
   -5.5634    6.6732    0.2710 H   0  0  0  0  0  0  0  0  0  0  0  0
   -6.9155    7.8673   -1.0680 H   0  0  0  0  0  0  0  0  0  0  0  0
   -6.0179    7.3417   -2.5715 H   0  0  0  0  0  0  0  0  0  0  0  0
   -7.3276    5.4801   -2.8818 H   0  0  0  0  0  0  0  0  0  0  0  0
   -7.8254    5.4163   -1.1396 H   0  0  0  0  0  0  0  0  0  0  0  0
   -9.0776    6.1663   -3.1967 H   0  0  0  0  0  0  0  0  0  0  0  0
  -10.3562    7.6472    0.7786 H   0  0  0  0  0  0  0  0  0  0  0  0
   -9.3868    6.1745    0.4351 H   0  0  0  0  0  0  0  0  0  0  0  0
   -8.5987    7.7887    0.4351 H   0  0  0  0  0  0  0  0  0  0  0  0
  -11.8423    7.7646   -0.7195 H   0  0  0  0  0  0  0  0  0  0  0  0
  -11.3015    8.5769   -2.2276 H   0  0  0  0  0  0  0  0  0  0  0  0
  -11.6333    6.8115   -2.2276 H   0  0  0  0  0  0  0  0  0  0  0  0
   -3.3834    6.2920   -0.5240 H   0  0  0  0  0  0  0  0  0  0  0  0
   -3.1967    5.6051   -2.8327 H   0  0  0  0  0  0  0  0  0  0  0  0
   -4.6930    6.4496   -3.2853 H   0  0  0  0  0  0  0  0  0  0  0  0
   -2.0405    7.3540   -3.8461 H   0  0  0  0  0  0  0  0  0  0  0  0
   -3.4747    8.3700   -3.9613 H   0  0  0  0  0  0  0  0  0  0  0  0
   -1.2051    7.6827   -0.3910 H   0  0  0  0  0  0  0  0  0  0  0  0
   -1.2628    6.6464   -1.8571 H   0  0  0  0  0  0  0  0  0  0  0  0
   -0.2774    8.1483   -1.8571 H   0  0  0  0  0  0  0  0  0  0  0  0
   -2.9920   10.3850   -2.7075 H   0  0  0  0  0  0  0  0  0  0  0  0
   -0.9027    9.4922   -3.9241 H   0  0  0  0  0  0  0  0  0  0  0  0
   -1.1109   11.2895   -3.5827 H   0  0  0  0  0  0  0  0  0  0  0  0
    1.3004   10.3001   -3.1943 H   0  0  0  0  0  0  0  0  0  0  0  0
   -0.5763    9.7011    0.3300 H   0  0  0  0  0  0  0  0  0  0  0  0
   -0.1151   12.7460    0.2173 H   0  0  0  0  0  0  0  0  0  0  0  0
   -0.9309   11.8137    1.5496 H   0  0  0  0  0  0  0  0  0  0  0  0
    1.3904   12.4427    2.1331 H   0  0  0  0  0  0  0  0  0  0  0  0
    1.1437   10.6545    2.0499 H   0  0  0  0  0  0  0  0  0  0  0  0
    3.2327   11.1942    1.0002 H   0  0  0  0  0  0  0  0  0  0  0  0
    3.4320   12.9200   -0.2590 H   0  0  0  0  0  0  0  0  0  0  0  0
    2.2009    9.0869    1.1624 H   0  0  0  0  0  0  0  0  0  0  0  0
    1.3691    8.3308   -0.2387 H   0  0  0  0  0  0  0  0  0  0  0  0
    3.1577    8.4969   -0.2387 H   0  0  0  0  0  0  0  0  0  0  0  0
    4.1935   10.5075   -1.1360 H   0  0  0  0  0  0  0  0  0  0  0  0
    3.2096    9.5364   -2.2830 H   0  0  0  0  0  0  0  0  0  0  0  0
    3.0809   11.3281   -2.2830 H   0  0  0  0  0  0  0  0  0  0  0  0
   -2.3131   12.8851   -0.2673 H   0  0  0  0  0  0  0  0  0  0  0  0
   -1.3683   12.7068   -1.7847 H   0  0  0  0  0  0  0  0  0  0  0  0
   -3.1361   12.3880   -1.7847 H   0  0  0  0  0  0  0  0  0  0  0  0
   -2.6373   10.6848    1.2035 H   0  0  0  0  0  0  0  0  0  0  0  0
   -3.9401   10.9200   -0.0932 H   0  0  0  0  0  0  0  0  0  0  0  0
   -2.5642    8.3379    0.6980 H   0  0  0  0  0  0  0  0  0  0  0  0
   -4.2992    8.8016    0.9043 H   0  0  0  0  0  0  0  0  0  0  0  0
   -5.5670    9.5170   -0.8176 H   0  0  0  0  0  0  0  0  0  0  0  0
   -4.6352    9.9942   -2.2773 H   0  0  0  0  0  0  0  0  0  0  0  0
   -5.5864    8.4704   -2.2773 H   0  0  0  0  0  0  0  0  0  0  0  0
  1  2  1  0
  2  3  1  0
  3  4  1  0
  4  5  1  0
  5  6  1  0
  6  7  1  0
  7  8  1  0
  7  9  1  0
  2 10  1  0
 10 11  1  0
 11 12  1  0
 12 13  1  0
 13 14  1  1
 13 15  1  0
 15 16  1  0
 16 17  1  0
 17 18  2  0
 18 19  1  0
 19 20  1  0
 20 21  1  0
 21 22  1  0
 22 23  1  0
 22 24  1  0
 24 25  1  0
 24 26  1  0
 19 27  1  0
 27 28  1  6
 27 29  1  0
 29 30  1  0
 30 31  1  0
 31 32  1  6
  7  5  1  0
 31 10  1  0
 31 13  1  0
 27 15  1  0
 24 18  1  0
  1 33  1  0
  1 34  1  0
  1 35  1  0
  2 36  1  1
  3 37  1  0
  3 38  1  0
  4 39  1  0
  4 40  1  0
  5 41  1  6
  8 42  1  0
  8 43  1  0
  8 44  1  0
  9 45  1  0
  9 46  1  0
  9 47  1  0
 10 48  1  1
 11 49  1  0
 11 50  1  0
 12 51  1  0
 12 52  1  0
 14 53  1  0
 14 54  1  0
 14 55  1  0
 15 56  1  6
 16 57  1  0
 16 58  1  0
 17 59  1  0
 19 60  1  1
 20 61  1  0
 20 62  1  0
 21 63  1  0
 21 64  1  0
 22 65  1  1
 23 66  1  0
 25 67  1  0
 25 68  1  0
 25 69  1  0
 26 70  1  0
 26 71  1  0
 26 72  1  0
 28 73  1  0
 28 74  1  0
 28 75  1  0
 29 76  1  0
 29 77  1  0
 30 78  1  0
 30 79  1  0
 32 80  1  0
 32 81  1  0
 32 82  1  0
M  END
>  <meeko>  (10) 
{"is_sidechain": [false], "intermolecular_energy": 2.731, "internal_energy": -0.839}

$$$$
EPH_relaxed_0001_pdb2pqr_Repair_251_r2_0001_out
     RDKit          3D

 82 86  0  0  0  0  0  0  0  0999 V2000
    3.2550   12.0390   -5.4270 C   0  0  0  0  0  0  0  0  0  0  0  0
    1.7600   12.3250   -5.5980 C   0  0  2  0  0  0  0  0  0  0  0  0
    1.4900   13.7950   -5.9770 C   0  0  0  0  0  0  0  0  0  0  0  0
    1.9820   14.1690   -7.3780 C   0  0  0  0  0  0  0  0  0  0  0  0
    1.5210   15.5380   -7.7800 C   0  0  2  0  0  0  0  0  0  0  0  0
    0.4080   15.5530   -8.6830 O   0  0  0  0  0  0  0  0  0  0  0  0
    1.6450   16.0810   -9.1910 C   0  0  0  0  0  0  0  0  0  0  0  0
    2.2480   15.2660  -10.2910 C   0  0  0  0  0  0  0  0  0  0  0  0
    1.6300   17.5650   -9.3900 C   0  0  0  0  0  0  0  0  0  0  0  0
    1.0140   11.9720   -4.3160 C   0  0  1  0  0  0  0  0  0  0  0  0
    0.0280   10.7890   -4.5050 C   0  0  0  0  0  0  0  0  0  0  0  0
    0.0340    9.9860   -3.1790 C   0  0  0  0  0  0  0  0  0  0  0  0
    0.7560   10.9070   -2.1680 C   0  0  1  0  0  0  0  0  0  0  0  0
   -0.3350   11.9180   -1.6970 C   0  0  0  0  0  0  0  0  0  0  0  0
    1.4470   10.1970   -0.9580 C   0  0  2  0  0  0  0  0  0  0  0  0
    0.4960    9.4310   -0.0220 C   0  0  0  0  0  0  0  0  0  0  0  0
   -0.0520   10.2240    1.1180 C   0  0  0  0  0  0  0  0  0  0  0  0
    0.4220   11.4090    1.5460 C   0  0  0  0  0  0  0  0  0  0  0  0
    1.6830   12.0230    0.9260 C   0  0  1  0  0  0  0  0  0  0  0  0
    2.6230   12.5240    2.0530 C   0  0  0  0  0  0  0  0  0  0  0  0
    1.9240   13.4770    3.0180 C   0  0  0  0  0  0  0  0  0  0  0  0
    0.7090   12.8110    3.6580 C   0  0  2  0  0  0  0  0  0  0  0  0
    1.1590   11.7480    4.5040 O   0  0  0  0  0  0  0  0  0  0  0  0
   -0.3050   12.2570    2.6180 C   0  0  0  0  0  0  0  0  0  0  0  0
   -1.0160   13.4350    1.9070 C   0  0  0  0  0  0  0  0  0  0  0  0
   -1.4100   11.4880    3.3910 C   0  0  0  0  0  0  0  0  0  0  0  0
    2.4390   11.1230   -0.1440 C   0  0  1  0  0  0  0  0  0  0  0  0
    3.4450   10.1730    0.5750 C   0  0  0  0  0  0  0  0  0  0  0  0
    3.2980   12.0510   -1.0820 C   0  0  0  0  0  0  0  0  0  0  0  0
    2.5920   12.6250   -2.3260 C   0  0  0  0  0  0  0  0  0  0  0  0
    1.8630   11.5230   -3.1000 C   0  0  2  0  0  0  0  0  0  0  0  0
    2.9370   10.5020   -3.6060 C   0  0  0  0  0  0  0  0  0  0  0  0
    3.4992   11.9923   -4.3555 H   0  0  0  0  0  0  0  0  0  0  0  0
    3.5010   11.0775   -5.9014 H   0  0  0  0  0  0  0  0  0  0  0  0
    3.8385   12.8418   -5.9014 H   0  0  0  0  0  0  0  0  0  0  0  0
    1.3951   11.6985   -6.4253 H   0  0  0  0  0  0  0  0  0  0  0  0
    0.4053   13.9721   -5.9309 H   0  0  0  0  0  0  0  0  0  0  0  0
    2.0474   14.4190   -5.2629 H   0  0  0  0  0  0  0  0  0  0  0  0
    3.0817   14.1459   -7.3877 H   0  0  0  0  0  0  0  0  0  0  0  0
    1.5664   13.4434   -8.0927 H   0  0  0  0  0  0  0  0  0  0  0  0
    1.8139   15.9498   -6.8030 H   0  0  0  0  0  0  0  0  0  0  0  0
    2.8494   14.4532   -9.8578 H   0  0  0  0  0  0  0  0  0  0  0  0
    1.4470   14.8386  -10.9120 H   0  0  0  0  0  0  0  0  0  0  0  0
    2.8910   15.9070  -10.9120 H   0  0  0  0  0  0  0  0  0  0  0  0
    1.6249   18.0662   -8.4108 H   0  0  0  0  0  0  0  0  0  0  0  0
    2.5251   17.8686   -9.9527 H   0  0  0  0  0  0  0  0  0  0  0  0
    0.7289   17.8504   -9.9527 H   0  0  0  0  0  0  0  0  0  0  0  0
    0.5393   12.9418   -4.1058 H   0  0  0  0  0  0  0  0  0  0  0  0
   -0.9832   11.1683   -4.7136 H   0  0  0  0  0  0  0  0  0  0  0  0
    0.3291   10.1552   -5.3521 H   0  0  0  0  0  0  0  0  0  0  0  0
   -0.9937    9.7759   -2.8477 H   0  0  0  0  0  0  0  0  0  0  0  0
    0.5321    9.0109   -3.2843 H   0  0  0  0  0  0  0  0  0  0  0  0
   -0.3618   11.9428   -0.5976 H   0  0  0  0  0  0  0  0  0  0  0  0
   -0.0957   12.9208   -2.0807 H   0  0  0  0  0  0  0  0  0  0  0  0
   -1.3167   11.6032   -2.0807 H   0  0  0  0  0  0  0  0  0  0  0  0
    2.0608    9.4298   -1.4527 H   0  0  0  0  0  0  0  0  0  0  0  0
   -0.3515    9.0675   -0.6217 H   0  0  0  0  0  0  0  0  0  0  0  0
    1.0950    8.6254    0.4277 H   0  0  0  0  0  0  0  0  0  0  0  0
   -0.9163    9.8044    1.6536 H   0  0  0  0  0  0  0  0  0  0  0  0
    1.3397   12.8745    0.3201 H   0  0  0  0  0  0  0  0  0  0  0  0
    2.9891   11.6548    2.6191 H   0  0  0  0  0  0  0  0  0  0  0  0
    3.4483   13.0753    1.5787 H   0  0  0  0  0  0  0  0  0  0  0  0
    2.6306   13.7719    3.8078 H   0  0  0  0  0  0  0  0  0  0  0  0
    1.5851   14.3597    2.4559 H   0  0  0  0  0  0  0  0  0  0  0  0
    0.1766   13.5810    4.2356 H   0  0  0  0  0  0  0  0  0  0  0  0
    0.7210   10.9310    4.2090 H   0  0  0  0  0  0  0  0  0  0  0  0
   -1.4303   14.1215    2.6600 H   0  0  0  0  0  0  0  0  0  0  0  0
   -0.2924   13.9742    1.2780 H   0  0  0  0  0  0  0  0  0  0  0  0
   -1.8303   13.0460    1.2780 H   0  0  0  0  0  0  0  0  0  0  0  0
   -1.2471   11.6014    4.4730 H   0  0  0  0  0  0  0  0  0  0  0  0
   -2.3960   11.8961    3.1239 H   0  0  0  0  0  0  0  0  0  0  0  0
   -1.3699   10.4217    3.1239 H   0  0  0  0  0  0  0  0  0  0  0  0
    3.3339   10.2779    1.6643 H   0  0  0  0  0  0  0  0  0  0  0  0
    3.2387    9.1325    0.2839 H   0  0  0  0  0  0  0  0  0  0  0  0
    4.4720   10.4385    0.2839 H   0  0  0  0  0  0  0  0  0  0  0  0
    3.6506   12.9000   -0.4779 H   0  0  0  0  0  0  0  0  0  0  0  0
    4.0951   11.4035   -1.4762 H   0  0  0  0  0  0  0  0  0  0  0  0
    1.8623   13.3840   -2.0075 H   0  0  0  0  0  0  0  0  0  0  0  0
    3.3508   13.0728   -2.9845 H   0  0  0  0  0  0  0  0  0  0  0  0
    3.4314   10.0320   -2.7430 H   0  0  0  0  0  0  0  0  0  0  0  0
    2.4482    9.7274   -4.2152 H   0  0  0  0  0  0  0  0  0  0  0  0
    3.6859   11.0293   -4.2152 H   0  0  0  0  0  0  0  0  0  0  0  0
  1  2  1  0
  2  3  1  0
  3  4  1  0
  4  5  1  0
  5  6  1  0
  6  7  1  0
  7  8  1  0
  7  9  1  0
  2 10  1  0
 10 11  1  0
 11 12  1  0
 12 13  1  0
 13 14  1  1
 13 15  1  0
 15 16  1  0
 16 17  1  0
 17 18  2  0
 18 19  1  0
 19 20  1  0
 20 21  1  0
 21 22  1  0
 22 23  1  0
 22 24  1  0
 24 25  1  0
 24 26  1  0
 19 27  1  0
 27 28  1  1
 27 29  1  0
 29 30  1  0
 30 31  1  0
 31 32  1  6
  7  5  1  0
 31 10  1  0
 31 13  1  0
 27 15  1  0
 24 18  1  0
  1 33  1  0
  1 34  1  0
  1 35  1  0
  2 36  1  6
  3 37  1  0
  3 38  1  0
  4 39  1  0
  4 40  1  0
  5 41  1  1
  8 42  1  0
  8 43  1  0
  8 44  1  0
  9 45  1  0
  9 46  1  0
  9 47  1  0
 10 48  1  1
 11 49  1  0
 11 50  1  0
 12 51  1  0
 12 52  1  0
 14 53  1  0
 14 54  1  0
 14 55  1  0
 15 56  1  6
 16 57  1  0
 16 58  1  0
 17 59  1  0
 19 60  1  6
 20 61  1  0
 20 62  1  0
 21 63  1  0
 21 64  1  0
 22 65  1  1
 23 66  1  0
 25 67  1  0
 25 68  1  0
 25 69  1  0
 26 70  1  0
 26 71  1  0
 26 72  1  0
 28 73  1  0
 28 74  1  0
 28 75  1  0
 29 76  1  0
 29 77  1  0
 30 78  1  0
 30 79  1  0
 32 80  1  0
 32 81  1  0
 32 82  1  0
M  END
>  <meeko>  (11) 
{"is_sidechain": [false], "intermolecular_energy": 2.731, "internal_energy": -0.839}

$$$$
EPH_relaxed_0001_pdb2pqr_Repair_251_r2_0001_out
     RDKit          3D

 82 86  0  0  0  0  0  0  0  0999 V2000
  -13.1260    5.7760    0.6800 C   0  0  0  0  0  0  0  0  0  0  0  0
  -13.1770    7.1750    0.0590 C   0  0  2  0  0  0  0  0  0  0  0  0
  -14.5400    7.4690   -0.5990 C   0  0  0  0  0  0  0  0  0  0  0  0
  -14.9510    6.4350   -1.6510 C   0  0  0  0  0  0  0  0  0  0  0  0
  -15.1570    7.0640   -2.9960 C   0  0  2  0  0  0  0  0  0  0  0  0
  -15.2870    6.1340   -4.0780 O   0  0  0  0  0  0  0  0  0  0  0  0
  -14.1370    6.9940   -4.1170 C   0  0  0  0  0  0  0  0  0  0  0  0
  -12.8350    6.2780   -3.9440 C   0  0  0  0  0  0  0  0  0  0  0  0
  -14.1930    8.0260   -5.2000 C   0  0  0  0  0  0  0  0  0  0  0  0
  -12.0590    7.3300   -0.9660 C   0  0  1  0  0  0  0  0  0  0  0  0
  -12.2480    8.5750   -1.8730 C   0  0  0  0  0  0  0  0  0  0  0  0
  -10.8320    9.1280   -2.1750 C   0  0  0  0  0  0  0  0  0  0  0  0
   -9.8700    8.0070   -1.7160 C   0  0  1  0  0  0  0  0  0  0  0  0
   -9.8580    6.9820   -2.8930 C   0  0  0  0  0  0  0  0  0  0  0  0
   -8.4240    8.4540   -1.3260 C   0  0  2  0  0  0  0  0  0  0  0  0
   -7.6060    9.0870   -2.4660 C   0  0  0  0  0  0  0  0  0  0  0  0
   -6.7900    8.1310   -3.2720 C   0  0  0  0  0  0  0  0  0  0  0  0
   -6.4910    6.8670   -2.9190 C   0  0  0  0  0  0  0  0  0  0  0  0
   -6.9070    6.3120   -1.5500 C   0  0  1  0  0  0  0  0  0  0  0  0
   -5.7050    5.5730   -0.9050 C   0  0  0  0  0  0  0  0  0  0  0  0
   -5.1210    4.4980   -1.8170 C   0  0  0  0  0  0  0  0  0  0  0  0
   -4.6660    5.0990   -3.1450 C   0  0  2  0  0  0  0  0  0  0  0  0
   -3.5580    5.9700   -2.9010 O   0  0  0  0  0  0  0  0  0  0  0  0
   -5.7910    5.8780   -3.8830 C   0  0  0  0  0  0  0  0  0  0  0  0
   -6.8520    4.8820   -4.4120 C   0  0  0  0  0  0  0  0  0  0  0  0
   -5.1640    6.5510   -5.1340 C   0  0  0  0  0  0  0  0  0  0  0  0
   -7.5880    7.3510   -0.5590 C   0  0  1  0  0  0  0  0  0  0  0  0
   -6.4930    8.1060    0.2550 C   0  0  0  0  0  0  0  0  0  0  0  0
   -8.4580    6.5640    0.4910 C   0  0  0  0  0  0  0  0  0  0  0  0
   -9.9150    6.2560    0.0950 C   0  0  0  0  0  0  0  0  0  0  0  0
  -10.6190    7.5130   -0.4250 C   0  0  2  0  0  0  0  0  0  0  0  0
  -10.6660    8.5540    0.7450 C   0  0  0  0  0  0  0  0  0  0  0  0
  -13.1291    5.8613    1.7767 H   0  0  0  0  0  0  0  0  0  0  0  0
  -14.0037    5.1982    0.3547 H   0  0  0  0  0  0  0  0  0  0  0  0
  -12.2086    5.2636    0.3547 H   0  0  0  0  0  0  0  0  0  0  0  0
  -13.0393    7.9031    0.8720 H   0  0  0  0  0  0  0  0  0  0  0  0
  -15.3085    7.4884    0.1877 H   0  0  0  0  0  0  0  0  0  0  0  0
  -14.4454    8.4348   -1.1170 H   0  0  0  0  0  0  0  0  0  0  0  0
  -14.1607    5.6740   -1.7306 H   0  0  0  0  0  0  0  0  0  0  0  0
  -15.9027    5.9834   -1.3343 H   0  0  0  0  0  0  0  0  0  0  0  0
  -15.7007    7.9071   -2.5447 H   0  0  0  0  0  0  0  0  0  0  0  0
  -12.6210    6.1603   -2.8715 H   0  0  0  0  0  0  0  0  0  0  0  0
  -12.8961    5.2866   -4.4167 H   0  0  0  0  0  0  0  0  0  0  0  0
  -12.0305    6.8606   -4.4167 H   0  0  0  0  0  0  0  0  0  0  0  0
  -14.2474    9.0279   -4.7493 H   0  0  0  0  0  0  0  0  0  0  0  0
  -13.2896    7.9529   -5.8233 H   0  0  0  0  0  0  0  0  0  0  0  0
  -15.0832    7.8555   -5.8233 H   0  0  0  0  0  0  0  0  0  0  0  0
  -12.1470    6.3627   -1.4824 H   0  0  0  0  0  0  0  0  0  0  0  0
  -12.7504    8.2890   -2.8088 H   0  0  0  0  0  0  0  0  0  0  0  0
  -12.8706    9.3340   -1.3768 H   0  0  0  0  0  0  0  0  0  0  0  0
  -10.7133    9.3254   -3.2506 H   0  0  0  0  0  0  0  0  0  0  0  0
  -10.6377   10.0811   -1.6612 H   0  0  0  0  0  0  0  0  0  0  0  0
   -9.8460    5.9592   -2.4884 H   0  0  0  0  0  0  0  0  0  0  0  0
  -10.7578    7.1217   -3.5101 H   0  0  0  0  0  0  0  0  0  0  0  0
   -8.9617    7.1427   -3.5101 H   0  0  0  0  0  0  0  0  0  0  0  0
   -8.6150    9.2657   -0.6086 H   0  0  0  0  0  0  0  0  0  0  0  0
   -8.3064    9.5937   -3.1463 H   0  0  0  0  0  0  0  0  0  0  0  0
   -6.8892    9.7684   -1.9844 H   0  0  0  0  0  0  0  0  0  0  0  0
   -6.4002    8.4901   -4.2359 H   0  0  0  0  0  0  0  0  0  0  0  0
   -7.7224    5.5998   -1.7446 H   0  0  0  0  0  0  0  0  0  0  0  0
   -4.9190    6.3086   -0.6789 H   0  0  0  0  0  0  0  0  0  0  0  0
   -6.0688    5.0760    0.0064 H   0  0  0  0  0  0  0  0  0  0  0  0
   -4.2584    4.0320   -1.3181 H   0  0  0  0  0  0  0  0  0  0  0  0
   -5.8993    3.7474   -2.0190 H   0  0  0  0  0  0  0  0  0  0  0  0
   -4.3787    4.2656   -3.8029 H   0  0  0  0  0  0  0  0  0  0  0  0
   -3.6660    6.3410   -2.0090 H   0  0  0  0  0  0  0  0  0  0  0  0
   -7.3616    4.4036   -3.5626 H   0  0  0  0  0  0  0  0  0  0  0  0
   -7.5888    5.4222   -5.0246 H   0  0  0  0  0  0  0  0  0  0  0  0
   -6.3594    4.1126   -5.0246 H   0  0  0  0  0  0  0  0  0  0  0  0
   -4.4464    7.3213   -4.8151 H   0  0  0  0  0  0  0  0  0  0  0  0
   -4.6436    5.7920   -5.7366 H   0  0  0  0  0  0  0  0  0  0  0  0
   -5.9579    7.0165   -5.7366 H   0  0  0  0  0  0  0  0  0  0  0  0
   -6.6812    7.9762    1.3310 H   0  0  0  0  0  0  0  0  0  0  0  0
   -5.5028    7.6978    0.0041 H   0  0  0  0  0  0  0  0  0  0  0  0
   -6.5225    9.1766    0.0041 H   0  0  0  0  0  0  0  0  0  0  0  0
   -7.9564    5.6047    0.6865 H   0  0  0  0  0  0  0  0  0  0  0  0
   -8.5316    7.2318    1.3620 H   0  0  0  0  0  0  0  0  0  0  0  0
   -9.9192    5.4890   -0.6934 H   0  0  0  0  0  0  0  0  0  0  0  0
  -10.4519    5.8960    0.9851 H   0  0  0  0  0  0  0  0  0  0  0  0
  -10.6421    8.0240    1.7086 H   0  0  0  0  0  0  0  0  0  0  0  0
   -9.7972    9.2250    0.6739 H   0  0  0  0  0  0  0  0  0  0  0  0
  -11.5917    9.1439    0.6739 H   0  0  0  0  0  0  0  0  0  0  0  0
  1  2  1  0
  2  3  1  0
  3  4  1  0
  4  5  1  0
  5  6  1  0
  6  7  1  0
  7  8  1  0
  7  9  1  0
  2 10  1  0
 10 11  1  0
 11 12  1  0
 12 13  1  0
 13 14  1  6
 13 15  1  0
 15 16  1  0
 16 17  1  0
 17 18  2  0
 18 19  1  0
 19 20  1  0
 20 21  1  0
 21 22  1  0
 22 23  1  0
 22 24  1  0
 24 25  1  0
 24 26  1  0
 19 27  1  0
 27 28  1  1
 27 29  1  0
 29 30  1  0
 30 31  1  0
 31 32  1  1
  7  5  1  0
 31 10  1  0
 31 13  1  0
 27 15  1  0
 24 18  1  0
  1 33  1  0
  1 34  1  0
  1 35  1  0
  2 36  1  1
  3 37  1  0
  3 38  1  0
  4 39  1  0
  4 40  1  0
  5 41  1  1
  8 42  1  0
  8 43  1  0
  8 44  1  0
  9 45  1  0
  9 46  1  0
  9 47  1  0
 10 48  1  6
 11 49  1  0
 11 50  1  0
 12 51  1  0
 12 52  1  0
 14 53  1  0
 14 54  1  0
 14 55  1  0
 15 56  1  1
 16 57  1  0
 16 58  1  0
 17 59  1  0
 19 60  1  6
 20 61  1  0
 20 62  1  0
 21 63  1  0
 21 64  1  0
 22 65  1  6
 23 66  1  0
 25 67  1  0
 25 68  1  0
 25 69  1  0
 26 70  1  0
 26 71  1  0
 26 72  1  0
 28 73  1  0
 28 74  1  0
 28 75  1  0
 29 76  1  0
 29 77  1  0
 30 78  1  0
 30 79  1  0
 32 80  1  0
 32 81  1  0
 32 82  1  0
M  END
>  <meeko>  (12) 
{"is_sidechain": [false], "intermolecular_energy": 2.731, "internal_energy": -0.839}

$$$$
EPH_relaxed_0001_pdb2pqr_Repair_251_r2_0001_out
     RDKit          3D

 82 86  0  0  0  0  0  0  0  0999 V2000
    1.4930   12.8470   -4.5750 C   0  0  0  0  0  0  0  0  0  0  0  0
    1.6050   12.3630   -3.1260 C   0  0  2  0  0  0  0  0  0  0  0  0
    3.0710   12.1740   -2.6890 C   0  0  0  0  0  0  0  0  0  0  0  0
    3.9230   11.4080   -3.7050 C   0  0  0  0  0  0  0  0  0  0  0  0
    5.3420   11.2680   -3.2440 C   0  0  2  0  0  0  0  0  0  0  0  0
    6.2340   12.2760   -3.7360 O   0  0  0  0  0  0  0  0  0  0  0  0
    6.4940   10.9320   -4.1730 C   0  0  0  0  0  0  0  0  0  0  0  0
    6.2770   10.7150   -5.6380 C   0  0  0  0  0  0  0  0  0  0  0  0
    7.7360   10.3370   -3.5860 C   0  0  0  0  0  0  0  0  0  0  0  0
    0.8380   11.0570   -2.9540 C   0  0  1  0  0  0  0  0  0  0  0  0
    1.7670    9.8550   -2.6390 C   0  0  0  0  0  0  0  0  0  0  0  0
    0.9860    8.9260   -1.6750 C   0  0  0  0  0  0  0  0  0  0  0  0
   -0.4700    9.4430   -1.7280 C   0  0  1  0  0  0  0  0  0  0  0  0
   -1.0720    8.8140   -3.0230 C   0  0  0  0  0  0  0  0  0  0  0  0
   -1.3560    9.1450   -0.4750 C   0  0  2  0  0  0  0  0  0  0  0  0
   -1.5920    7.6520   -0.1840 C   0  0  0  0  0  0  0  0  0  0  0  0
   -2.7990    7.0590   -0.8300 C   0  0  0  0  0  0  0  0  0  0  0  0
   -3.8140    7.7530   -1.3790 C   0  0  0  0  0  0  0  0  0  0  0  0
   -3.8560    9.2840   -1.2950 C   0  0  1  0  0  0  0  0  0  0  0  0
   -5.2760    9.7410   -0.8670 C   0  0  0  0  0  0  0  0  0  0  0  0
   -6.3690    9.1750   -1.7680 C   0  0  0  0  0  0  0  0  0  0  0  0
   -6.3310    7.6490   -1.7800 C   0  0  2  0  0  0  0  0  0  0  0  0
   -6.6880    7.1690   -0.4790 O   0  0  0  0  0  0  0  0  0  0  0  0
   -4.9460    7.0730   -2.1870 C   0  0  0  0  0  0  0  0  0  0  0  0
   -4.6950    7.3380   -3.6920 C   0  0  0  0  0  0  0  0  0  0  0  0
   -5.0030    5.5310   -2.0210 C   0  0  0  0  0  0  0  0  0  0  0  0
   -2.7100    9.9630   -0.4290 C   0  0  1  0  0  0  0  0  0  0  0  0
   -3.1410   10.0260    1.0690 C   0  0  0  0  0  0  0  0  0  0  0  0
   -2.5240   11.4540   -0.9000 C   0  0  0  0  0  0  0  0  0  0  0  0
   -1.5440   11.6980   -2.0640 C   0  0  0  0  0  0  0  0  0  0  0  0
   -0.2080   10.9910   -1.8130 C   0  0  2  0  0  0  0  0  0  0  0  0
    0.4310   11.6190   -0.5280 C   0  0  0  0  0  0  0  0  0  0  0  0
    1.2450   13.9186   -4.5855 H   0  0  0  0  0  0  0  0  0  0  0  0
    2.4518   12.6875   -5.0900 H   0  0  0  0  0  0  0  0  0  0  0  0
    0.7018   12.2825   -5.0900 H   0  0  0  0  0  0  0  0  0  0  0  0
    1.1662   13.1398   -2.4825 H   0  0  0  0  0  0  0  0  0  0  0  0
    3.5192   13.1672   -2.5387 H   0  0  0  0  0  0  0  0  0  0  0  0
    3.0564   11.5757   -1.7661 H   0  0  0  0  0  0  0  0  0  0  0  0
    3.4935   10.4053   -3.8466 H   0  0  0  0  0  0  0  0  0  0  0  0
    3.9229   11.9734   -4.6486 H   0  0  0  0  0  0  0  0  0  0  0  0
    5.0133   10.8328   -2.2887 H   0  0  0  0  0  0  0  0  0  0  0  0
    5.5061    9.9441   -5.7842 H   0  0  0  0  0  0  0  0  0  0  0  0
    5.9476   11.6558   -6.1032 H   0  0  0  0  0  0  0  0  0  0  0  0
    7.2178   10.3856   -6.1032 H   0  0  0  0  0  0  0  0  0  0  0  0
    7.6735   10.3670   -2.4882 H   0  0  0  0  0  0  0  0  0  0  0  0
    7.8355    9.2934   -3.9192 H   0  0  0  0  0  0  0  0  0  0  0  0
    8.6116   10.9134   -3.9192 H   0  0  0  0  0  0  0  0  0  0  0  0
    0.3338   11.0104   -3.9305 H   0  0  0  0  0  0  0  0  0  0  0  0
    2.0163    9.3162   -3.5650 H   0  0  0  0  0  0  0  0  0  0  0  0
    2.7096   10.1933   -2.1839 H   0  0  0  0  0  0  0  0  0  0  0  0
    1.0395    7.8811   -2.0145 H   0  0  0  0  0  0  0  0  0  0  0  0
    1.3975    8.9431   -0.6550 H   0  0  0  0  0  0  0  0  0  0  0  0
   -1.8085    8.0444   -2.7486 H   0  0  0  0  0  0  0  0  0  0  0  0
   -1.5648    9.5981   -3.6166 H   0  0  0  0  0  0  0  0  0  0  0  0
   -0.2671    8.3561   -3.6166 H   0  0  0  0  0  0  0  0  0  0  0  0
   -0.7306    9.5162    0.3503 H   0  0  0  0  0  0  0  0  0  0  0  0
   -0.7108    7.0943   -0.5339 H   0  0  0  0  0  0  0  0  0  0  0  0
   -1.7597    7.5765    0.9005 H   0  0  0  0  0  0  0  0  0  0  0  0
   -2.8654    5.9614   -0.8604 H   0  0  0  0  0  0  0  0  0  0  0  0
   -3.6359    9.6496   -2.3088 H   0  0  0  0  0  0  0  0  0  0  0  0
   -5.4591    9.4039    0.1639 H   0  0  0  0  0  0  0  0  0  0  0  0
   -5.3121   10.8375   -0.9468 H   0  0  0  0  0  0  0  0  0  0  0  0
   -7.3496    9.5077   -1.3968 H   0  0  0  0  0  0  0  0  0  0  0  0
   -6.2020    9.5382   -2.7928 H   0  0  0  0  0  0  0  0  0  0  0  0
   -7.0482    7.3074   -2.5409 H   0  0  0  0  0  0  0  0  0  0  0  0
   -6.1930    6.3480   -0.3230 H   0  0  0  0  0  0  0  0  0  0  0  0
   -3.9425    8.1325   -3.8039 H   0  0  0  0  0  0  0  0  0  0  0  0
   -4.3300    6.4172   -4.1706 H   0  0  0  0  0  0  0  0  0  0  0  0
   -5.6342    7.6525   -4.1706 H   0  0  0  0  0  0  0  0  0  0  0  0
   -5.0124    5.2775   -0.9506 H   0  0  0  0  0  0  0  0  0  0  0  0
   -5.9160    5.1444   -2.4974 H   0  0  0  0  0  0  0  0  0  0  0  0
   -4.1210    5.0781   -2.4974 H   0  0  0  0  0  0  0  0  0  0  0  0
   -2.2569    9.8968    1.7106 H   0  0  0  0  0  0  0  0  0  0  0  0
   -3.6051   11.0015    1.2763 H   0  0  0  0  0  0  0  0  0  0  0  0
   -3.8649    9.2241    1.2763 H   0  0  0  0  0  0  0  0  0  0  0  0
   -3.5099   11.8303   -1.2106 H   0  0  0  0  0  0  0  0  0  0  0  0
   -2.0823   11.9752   -0.0379 H   0  0  0  0  0  0  0  0  0  0  0  0
   -1.9865   11.3117   -2.9940 H   0  0  0  0  0  0  0  0  0  0  0  0
   -1.3589   12.7792   -2.1460 H   0  0  0  0  0  0  0  0  0  0  0  0
   -0.0262   11.1697    0.3659 H   0  0  0  0  0  0  0  0  0  0  0  0
    1.5135   11.4236   -0.5238 H   0  0  0  0  0  0  0  0  0  0  0  0
    0.2544   12.7047   -0.5238 H   0  0  0  0  0  0  0  0  0  0  0  0
  1  2  1  0
  2  3  1  0
  3  4  1  0
  4  5  1  0
  5  6  1  0
  6  7  1  0
  7  8  1  0
  7  9  1  0
  2 10  1  0
 10 11  1  0
 11 12  1  0
 12 13  1  0
 13 14  1  6
 13 15  1  0
 15 16  1  0
 16 17  1  0
 17 18  2  0
 18 19  1  0
 19 20  1  0
 20 21  1  0
 21 22  1  0
 22 23  1  0
 22 24  1  0
 24 25  1  0
 24 26  1  0
 19 27  1  0
 27 28  1  1
 27 29  1  0
 29 30  1  0
 30 31  1  0
 31 32  1  1
  7  5  1  0
 31 10  1  0
 31 13  1  0
 27 15  1  0
 24 18  1  0
  1 33  1  0
  1 34  1  0
  1 35  1  0
  2 36  1  1
  3 37  1  0
  3 38  1  0
  4 39  1  0
  4 40  1  0
  5 41  1  1
  8 42  1  0
  8 43  1  0
  8 44  1  0
  9 45  1  0
  9 46  1  0
  9 47  1  0
 10 48  1  6
 11 49  1  0
 11 50  1  0
 12 51  1  0
 12 52  1  0
 14 53  1  0
 14 54  1  0
 14 55  1  0
 15 56  1  1
 16 57  1  0
 16 58  1  0
 17 59  1  0
 19 60  1  6
 20 61  1  0
 20 62  1  0
 21 63  1  0
 21 64  1  0
 22 65  1  6
 23 66  1  0
 25 67  1  0
 25 68  1  0
 25 69  1  0
 26 70  1  0
 26 71  1  0
 26 72  1  0
 28 73  1  0
 28 74  1  0
 28 75  1  0
 29 76  1  0
 29 77  1  0
 30 78  1  0
 30 79  1  0
 32 80  1  0
 32 81  1  0
 32 82  1  0
M  END
>  <meeko>  (13) 
{"is_sidechain": [false], "intermolecular_energy": 2.731, "internal_energy": -0.839}

$$$$
EPH_relaxed_0001_pdb2pqr_Repair_251_r2_0001_out
     RDKit          3D

 82 86  0  0  0  0  0  0  0  0999 V2000
   -5.1400    5.1920   -0.6800 C   0  0  0  0  0  0  0  0  0  0  0  0
   -5.5550    5.9420   -1.9490 C   0  0  2  0  0  0  0  0  0  0  0  0
   -4.3660    6.6690   -2.6090 C   0  0  0  0  0  0  0  0  0  0  0  0
   -3.6770    7.6820   -1.6900 C   0  0  0  0  0  0  0  0  0  0  0  0
   -2.4790    8.3000   -2.3450 C   0  0  2  0  0  0  0  0  0  0  0  0
   -1.2220    7.7370   -1.9470 O   0  0  0  0  0  0  0  0  0  0  0  0
   -1.4410    9.1120   -1.5940 C   0  0  0  0  0  0  0  0  0  0  0  0
   -1.5530    9.3520   -0.1210 C   0  0  0  0  0  0  0  0  0  0  0  0
   -0.5920   10.0750   -2.3640 C   0  0  0  0  0  0  0  0  0  0  0  0
   -6.6610    6.9400   -1.6250 C   0  0  1  0  0  0  0  0  0  0  0  0
   -6.3410    8.3710   -2.1320 C   0  0  0  0  0  0  0  0  0  0  0  0
   -7.6880    9.0020   -2.5680 C   0  0  0  0  0  0  0  0  0  0  0  0
   -8.7670    8.0530   -1.9960 C   0  0  1  0  0  0  0  0  0  0  0  0
   -8.9130    8.4690   -0.4980 C   0  0  0  0  0  0  0  0  0  0  0  0
  -10.1470    8.0520   -2.7310 C   0  0  2  0  0  0  0  0  0  0  0  0
  -10.9010    9.3930   -2.7070 C   0  0  0  0  0  0  0  0  0  0  0  0
  -11.8320    9.5800   -1.5560 C   0  0  0  0  0  0  0  0  0  0  0  0
  -12.2700    8.6050   -0.7370 C   0  0  0  0  0  0  0  0  0  0  0  0
  -11.9040    7.1380   -0.9930 C   0  0  1  0  0  0  0  0  0  0  0  0
  -13.1730    6.2570   -0.8640 C   0  0  0  0  0  0  0  0  0  0  0  0
  -13.8900    6.4550    0.4690 C   0  0  0  0  0  0  0  0  0  0  0  0
  -14.2900    7.9160    0.6600 C   0  0  2  0  0  0  0  0  0  0  0  0
  -15.2870    8.2510   -0.3090 O   0  0  0  0  0  0  0  0  0  0  0  0
  -13.0930    8.9000    0.5410 C   0  0  0  0  0  0  0  0  0  0  0  0
  -12.1610    8.7360    1.7670 C   0  0  0  0  0  0  0  0  0  0  0  0
  -13.6540   10.3450    0.6130 C   0  0  0  0  0  0  0  0  0  0  0  0
  -11.0940    6.8490   -2.3300 C   0  0  1  0  0  0  0  0  0  0  0  0
  -12.0830    6.6450   -3.5180 C   0  0  0  0  0  0  0  0  0  0  0  0
  -10.3060    5.4950   -2.1710 C   0  0  0  0  0  0  0  0  0  0  0  0
   -8.9000    5.5780   -1.5470 C   0  0  0  0  0  0  0  0  0  0  0  0
   -8.0630    6.6670   -2.2250 C   0  0  2  0  0  0  0  0  0  0  0  0
   -7.8810    6.2640   -3.7280 C   0  0  0  0  0  0  0  0  0  0  0  0
   -5.4567    5.7644    0.2043 H   0  0  0  0  0  0  0  0  0  0  0  0
   -5.6184    4.2016   -0.6664 H   0  0  0  0  0  0  0  0  0  0  0  0
   -4.0467    5.0713   -0.6664 H   0  0  0  0  0  0  0  0  0  0  0  0
   -5.9260    5.1963   -2.6676 H   0  0  0  0  0  0  0  0  0  0  0  0
   -3.6243    5.9160   -2.9138 H   0  0  0  0  0  0  0  0  0  0  0  0
   -4.7680    7.2321   -3.4641 H   0  0  0  0  0  0  0  0  0  0  0  0
   -4.3934    8.4768   -1.4350 H   0  0  0  0  0  0  0  0  0  0  0  0
   -3.3388    7.1515   -0.7877 H   0  0  0  0  0  0  0  0  0  0  0  0
   -3.0550    8.5039   -3.2597 H   0  0  0  0  0  0  0  0  0  0  0  0
   -1.1488    8.4858    0.4234 H   0  0  0  0  0  0  0  0  0  0  0  0
   -0.9824   10.2531    0.1481 H   0  0  0  0  0  0  0  0  0  0  0  0
   -2.6101    9.4935    0.1481 H   0  0  0  0  0  0  0  0  0  0  0  0
   -0.0313   10.7110   -1.6632 H   0  0  0  0  0  0  0  0  0  0  0  0
    0.1133    9.5168   -2.9973 H   0  0  0  0  0  0  0  0  0  0  0  0
   -1.2341   10.7048   -2.9973 H   0  0  0  0  0  0  0  0  0  0  0  0
   -6.6926    6.8320   -0.5308 H   0  0  0  0  0  0  0  0  0  0  0  0
   -5.8872    8.9660   -1.3257 H   0  0  0  0  0  0  0  0  0  0  0  0
   -5.6282    8.3434   -2.9693 H   0  0  0  0  0  0  0  0  0  0  0  0
   -7.7975   10.0126   -2.1476 H   0  0  0  0  0  0  0  0  0  0  0  0
   -7.7639    9.1098   -3.6601 H   0  0  0  0  0  0  0  0  0  0  0  0
   -8.6178    7.6279    0.1466 H   0  0  0  0  0  0  0  0  0  0  0  0
   -8.2646    9.3335   -0.2927 H   0  0  0  0  0  0  0  0  0  0  0  0
   -9.9595    8.7386   -0.2927 H   0  0  0  0  0  0  0  0  0  0  0  0
   -9.8550    7.8930   -3.7796 H   0  0  0  0  0  0  0  0  0  0  0  0
  -10.1558   10.2015   -2.6762 H   0  0  0  0  0  0  0  0  0  0  0  0
  -11.5279    9.4060   -3.6108 H   0  0  0  0  0  0  0  0  0  0  0  0
  -12.1910   10.6011   -1.3599 H   0  0  0  0  0  0  0  0  0  0  0  0
  -11.1796    6.8648   -0.2116 H   0  0  0  0  0  0  0  0  0  0  0  0
  -13.8656    6.5149   -1.6787 H   0  0  0  0  0  0  0  0  0  0  0  0
  -12.8563    5.2051   -0.9197 H   0  0  0  0  0  0  0  0  0  0  0  0
  -14.7939    5.8285    0.4884 H   0  0  0  0  0  0  0  0  0  0  0  0
  -13.2067    6.1683    1.2819 H   0  0  0  0  0  0  0  0  0  0  0  0
  -14.6799    8.0202    1.6833 H   0  0  0  0  0  0  0  0  0  0  0  0
  -15.2040    9.2010   -0.5010 H   0  0  0  0  0  0  0  0  0  0  0  0
  -12.7489    8.8395    2.6909 H   0  0  0  0  0  0  0  0  0  0  0  0
  -11.6917    7.7415    1.7404 H   0  0  0  0  0  0  0  0  0  0  0  0
  -11.3804    9.5106    1.7404 H   0  0  0  0  0  0  0  0  0  0  0  0
  -13.7691   10.6416    1.6660 H   0  0  0  0  0  0  0  0  0  0  0  0
  -12.9580   11.0339    0.1120 H   0  0  0  0  0  0  0  0  0  0  0  0
  -14.6325   10.3838    0.1120 H   0  0  0  0  0  0  0  0  0  0  0  0
  -13.0895    6.4374   -3.1257 H   0  0  0  0  0  0  0  0  0  0  0  0
  -12.1101    7.5565   -4.1332 H   0  0  0  0  0  0  0  0  0  0  0  0
  -11.7472    5.7972   -4.1332 H   0  0  0  0  0  0  0  0  0  0  0  0
  -10.9120    4.8298   -1.5383 H   0  0  0  0  0  0  0  0  0  0  0  0
  -10.1442    5.1343   -3.1975 H   0  0  0  0  0  0  0  0  0  0  0  0
   -8.9947    5.8113   -0.4762 H   0  0  0  0  0  0  0  0  0  0  0  0
   -8.3963    4.6102   -1.6870 H   0  0  0  0  0  0  0  0  0  0  0  0
   -7.4289    5.2629   -3.7870 H   0  0  0  0  0  0  0  0  0  0  0  0
   -8.8617    6.2534   -4.2261 H   0  0  0  0  0  0  0  0  0  0  0  0
   -7.2246    6.9927   -4.2261 H   0  0  0  0  0  0  0  0  0  0  0  0
  1  2  1  0
  2  3  1  0
  3  4  1  0
  4  5  1  0
  5  6  1  0
  6  7  1  0
  7  8  1  0
  7  9  1  0
  2 10  1  0
 10 11  1  0
 11 12  1  0
 12 13  1  0
 13 14  1  1
 13 15  1  0
 15 16  1  0
 16 17  1  0
 17 18  2  0
 18 19  1  0
 19 20  1  0
 20 21  1  0
 21 22  1  0
 22 23  1  0
 22 24  1  0
 24 25  1  0
 24 26  1  0
 19 27  1  0
 27 28  1  6
 27 29  1  0
 29 30  1  0
 30 31  1  0
 31 32  1  6
  7  5  1  0
 31 10  1  0
 31 13  1  0
 27 15  1  0
 24 18  1  0
  1 33  1  0
  1 34  1  0
  1 35  1  0
  2 36  1  6
  3 37  1  0
  3 38  1  0
  4 39  1  0
  4 40  1  0
  5 41  1  6
  8 42  1  0
  8 43  1  0
  8 44  1  0
  9 45  1  0
  9 46  1  0
  9 47  1  0
 10 48  1  1
 11 49  1  0
 11 50  1  0
 12 51  1  0
 12 52  1  0
 14 53  1  0
 14 54  1  0
 14 55  1  0
 15 56  1  6
 16 57  1  0
 16 58  1  0
 17 59  1  0
 19 60  1  1
 20 61  1  0
 20 62  1  0
 21 63  1  0
 21 64  1  0
 22 65  1  1
 23 66  1  0
 25 67  1  0
 25 68  1  0
 25 69  1  0
 26 70  1  0
 26 71  1  0
 26 72  1  0
 28 73  1  0
 28 74  1  0
 28 75  1  0
 29 76  1  0
 29 77  1  0
 30 78  1  0
 30 79  1  0
 32 80  1  0
 32 81  1  0
 32 82  1  0
M  END
>  <meeko>  (14) 
{"is_sidechain": [false], "intermolecular_energy": 2.731, "internal_energy": -0.839}

$$$$
EPH_relaxed_0001_pdb2pqr_Repair_251_r2_0001_out
     RDKit          3D

 82 86  0  0  0  0  0  0  0  0999 V2000
    0.4250   14.5100   -4.2720 C   0  0  0  0  0  0  0  0  0  0  0  0
    1.4980   13.4660   -4.5960 C   0  0  2  0  0  0  0  0  0  0  0  0
    2.0590   13.6330   -6.0230 C   0  0  0  0  0  0  0  0  0  0  0  0
    1.4130   14.7780   -6.8070 C   0  0  0  0  0  0  0  0  0  0  0  0
    2.0260   14.9330   -8.1660 C   0  0  2  0  0  0  0  0  0  0  0  0
    2.4680   16.2620   -8.4760 O   0  0  0  0  0  0  0  0  0  0  0  0
    1.3950   15.7470   -9.2810 C   0  0  0  0  0  0  0  0  0  0  0  0
    0.0920   16.4580   -9.0860 C   0  0  0  0  0  0  0  0  0  0  0  0
    1.7900   15.4520  -10.6940 C   0  0  0  0  0  0  0  0  0  0  0  0
    0.9280   12.0630   -4.4210 C   0  0  1  0  0  0  0  0  0  0  0  0
    1.9580   10.9530   -4.7620 C   0  0  0  0  0  0  0  0  0  0  0  0
    1.6840    9.7760   -3.7910 C   0  0  0  0  0  0  0  0  0  0  0  0
    0.3130   10.1040   -3.1570 C   0  0  1  0  0  0  0  0  0  0  0  0
   -0.7390    9.6430   -4.2140 C   0  0  0  0  0  0  0  0  0  0  0  0
    0.0330    9.4770   -1.7520 C   0  0  2  0  0  0  0  0  0  0  0  0
    0.0050    7.9390   -1.7190 C   0  0  0  0  0  0  0  0  0  0  0  0
   -1.3340    7.3200   -1.9500 C   0  0  0  0  0  0  0  0  0  0  0  0
   -2.5140    7.9650   -1.8930 C   0  0  0  0  0  0  0  0  0  0  0  0
   -2.5860    9.4390   -1.4740 C   0  0  1  0  0  0  0  0  0  0  0  0
   -3.7240    9.6260   -0.4360 C   0  0  0  0  0  0  0  0  0  0  0  0
   -5.0640    9.0950   -0.9340 C   0  0  0  0  0  0  0  0  0  0  0  0
   -4.9660    7.6130   -1.2860 C   0  0  2  0  0  0  0  0  0  0  0  0
   -4.7360    6.8680   -0.0860 O   0  0  0  0  0  0  0  0  0  0  0  0
   -3.8460    7.3010   -2.3180 C   0  0  0  0  0  0  0  0  0  0  0  0
   -4.2470    7.8580   -3.7060 C   0  0  0  0  0  0  0  0  0  0  0  0
   -3.7610    5.7590   -2.4780 C   0  0  0  0  0  0  0  0  0  0  0  0
   -1.2170   10.0940   -1.0040 C   0  0  1  0  0  0  0  0  0  0  0  0
   -0.9970    9.8340    0.5180 C   0  0  0  0  0  0  0  0  0  0  0  0
   -1.3070   11.6560   -1.1790 C   0  0  0  0  0  0  0  0  0  0  0  0
   -0.9040   12.2260   -2.5520 C   0  0  0  0  0  0  0  0  0  0  0  0
    0.4470   11.6630   -3.0040 C   0  0  2  0  0  0  0  0  0  0  0  0
    1.5290   12.1300   -1.9710 C   0  0  0  0  0  0  0  0  0  0  0  0
    0.3254   14.6069   -3.1808 H   0  0  0  0  0  0  0  0  0  0  0  0
    0.7159   15.4801   -4.7013 H   0  0  0  0  0  0  0  0  0  0  0  0
   -0.5368   14.1927   -4.7013 H   0  0  0  0  0  0  0  0  0  0  0  0
    2.3310   13.6189   -3.8941 H   0  0  0  0  0  0  0  0  0  0  0  0
    3.1393   13.8272   -5.9511 H   0  0  0  0  0  0  0  0  0  0  0  0
    1.8355   12.7037   -6.5675 H   0  0  0  0  0  0  0  0  0  0  0  0
    0.3389   14.5702   -6.9218 H   0  0  0  0  0  0  0  0  0  0  0  0
    1.5759   15.7115   -6.2483 H   0  0  0  0  0  0  0  0  0  0  0  0
    2.4166   13.9052   -8.1327 H   0  0  0  0  0  0  0  0  0  0  0  0
   -0.1085   16.5674   -8.0100 H   0  0  0  0  0  0  0  0  0  0  0  0
    0.1438   17.4529   -9.5524 H   0  0  0  0  0  0  0  0  0  0  0  0
   -0.7166   15.8761   -9.5524 H   0  0  0  0  0  0  0  0  0  0  0  0
    2.6713   14.7938  -10.6985 H   0  0  0  0  0  0  0  0  0  0  0  0
    0.9571   14.9531  -11.2110 H   0  0  0  0  0  0  0  0  0  0  0  0
    2.0319   16.3923  -11.2110 H   0  0  0  0  0  0  0  0  0  0  0  0
    0.0697   12.1256   -5.1062 H   0  0  0  0  0  0  0  0  0  0  0  0
    1.8287   10.6231   -5.8034 H   0  0  0  0  0  0  0  0  0  0  0  0
    2.9882   11.3230   -4.6538 H   0  0  0  0  0  0  0  0  0  0  0  0
    1.6405    8.8230   -4.3386 H   0  0  0  0  0  0  0  0  0  0  0  0
    2.4765    9.6649   -3.0363 H   0  0  0  0  0  0  0  0  0  0  0  0
   -1.6293    9.2528   -3.6992 H   0  0  0  0  0  0  0  0  0  0  0  0
   -1.0250   10.4983   -4.8439 H   0  0  0  0  0  0  0  0  0  0  0  0
   -0.3040    8.8530   -4.8439 H   0  0  0  0  0  0  0  0  0  0  0  0
    0.9245    9.7726   -1.1794 H   0  0  0  0  0  0  0  0  0  0  0  0
    0.6889    7.5699   -2.4975 H   0  0  0  0  0  0  0  0  0  0  0  0
    0.3013    7.6512   -0.6995 H   0  0  0  0  0  0  0  0  0  0  0  0
   -1.3581    6.2461   -2.1868 H   0  0  0  0  0  0  0  0  0  0  0  0
   -2.8176   10.0049   -2.3884 H   0  0  0  0  0  0  0  0  0  0  0  0
   -3.4526    9.0894    0.4851 H   0  0  0  0  0  0  0  0  0  0  0  0
   -3.8385   10.7054   -0.2575 H   0  0  0  0  0  0  0  0  0  0  0  0
   -5.8197    9.2287   -0.1459 H   0  0  0  0  0  0  0  0  0  0  0  0
   -5.3489    9.6528   -1.8383 H   0  0  0  0  0  0  0  0  0  0  0  0
   -5.9164    7.3226   -1.7575 H   0  0  0  0  0  0  0  0  0  0  0  0
   -4.1620    6.1170   -0.3120 H   0  0  0  0  0  0  0  0  0  0  0  0
   -4.8851    8.7444   -3.5750 H   0  0  0  0  0  0  0  0  0  0  0  0
   -3.3415    8.1374   -4.2645 H   0  0  0  0  0  0  0  0  0  0  0  0
   -4.7993    7.0879   -4.2645 H   0  0  0  0  0  0  0  0  0  0  0  0
   -3.7350    5.2881   -1.4842 H   0  0  0  0  0  0  0  0  0  0  0  0
   -4.6407    5.3988   -3.0316 H   0  0  0  0  0  0  0  0  0  0  0  0
   -2.8471    5.4976   -3.0316 H   0  0  0  0  0  0  0  0  0  0  0  0
   -1.5990   10.5455    1.1023 H   0  0  0  0  0  0  0  0  0  0  0  0
   -1.3040    8.8064    0.7626 H   0  0  0  0  0  0  0  0  0  0  0  0
    0.0672    9.9667    0.7626 H   0  0  0  0  0  0  0  0  0  0  0  0
   -2.3490   11.9526   -0.9885 H   0  0  0  0  0  0  0  0  0  0  0  0
   -0.5733   12.0675   -0.4702 H   0  0  0  0  0  0  0  0  0  0  0  0
   -1.6717   11.9574   -3.2926 H   0  0  0  0  0  0  0  0  0  0  0  0
   -0.8176   13.3192   -2.4663 H   0  0  0  0  0  0  0  0  0  0  0  0
    1.1545   11.9684   -0.9494 H   0  0  0  0  0  0  0  0  0  0  0  0
    2.4519   11.5501   -2.1192 H   0  0  0  0  0  0  0  0  0  0  0  0
    1.7401   13.1993   -2.1192 H   0  0  0  0  0  0  0  0  0  0  0  0
  1  2  1  0
  2  3  1  0
  3  4  1  0
  4  5  1  0
  5  6  1  0
  6  7  1  0
  7  8  1  0
  7  9  1  0
  2 10  1  0
 10 11  1  0
 11 12  1  0
 12 13  1  0
 13 14  1  6
 13 15  1  0
 15 16  1  0
 16 17  1  0
 17 18  2  0
 18 19  1  0
 19 20  1  0
 20 21  1  0
 21 22  1  0
 22 23  1  0
 22 24  1  0
 24 25  1  0
 24 26  1  0
 19 27  1  0
 27 28  1  1
 27 29  1  0
 29 30  1  0
 30 31  1  0
 31 32  1  1
  7  5  1  0
 31 10  1  0
 31 13  1  0
 27 15  1  0
 24 18  1  0
  1 33  1  0
  1 34  1  0
  1 35  1  0
  2 36  1  1
  3 37  1  0
  3 38  1  0
  4 39  1  0
  4 40  1  0
  5 41  1  6
  8 42  1  0
  8 43  1  0
  8 44  1  0
  9 45  1  0
  9 46  1  0
  9 47  1  0
 10 48  1  6
 11 49  1  0
 11 50  1  0
 12 51  1  0
 12 52  1  0
 14 53  1  0
 14 54  1  0
 14 55  1  0
 15 56  1  1
 16 57  1  0
 16 58  1  0
 17 59  1  0
 19 60  1  6
 20 61  1  0
 20 62  1  0
 21 63  1  0
 21 64  1  0
 22 65  1  6
 23 66  1  0
 25 67  1  0
 25 68  1  0
 25 69  1  0
 26 70  1  0
 26 71  1  0
 26 72  1  0
 28 73  1  0
 28 74  1  0
 28 75  1  0
 29 76  1  0
 29 77  1  0
 30 78  1  0
 30 79  1  0
 32 80  1  0
 32 81  1  0
 32 82  1  0
M  END
>  <meeko>  (15) 
{"is_sidechain": [false], "intermolecular_energy": 2.731, "internal_energy": -0.839}

$$$$
EPH_relaxed_0001_pdb2pqr_Repair_251_r2_0001_out
     RDKit          3D

 82 86  0  0  0  0  0  0  0  0999 V2000
   -2.4840    9.3120    0.2860 C   0  0  0  0  0  0  0  0  0  0  0  0
   -3.2200    8.3110   -0.6090 C   0  0  2  0  0  0  0  0  0  0  0  0
   -2.5860    8.2100   -2.0110 C   0  0  0  0  0  0  0  0  0  0  0  0
   -1.0550    8.2070   -1.9950 C   0  0  0  0  0  0  0  0  0  0  0  0
   -0.4960    9.5820   -2.2050 C   0  0  2  0  0  0  0  0  0  0  0  0
    0.8650    9.6130   -2.6530 O   0  0  0  0  0  0  0  0  0  0  0  0
    0.6130   10.1730   -1.3540 C   0  0  0  0  0  0  0  0  0  0  0  0
    1.2280    9.4030   -0.2290 C   0  0  0  0  0  0  0  0  0  0  0  0
    0.7570   11.6620   -1.3020 C   0  0  0  0  0  0  0  0  0  0  0  0
   -4.6880    8.7040   -0.7290 C   0  0  1  0  0  0  0  0  0  0  0  0
   -4.9100    9.8990   -1.6940 C   0  0  0  0  0  0  0  0  0  0  0  0
   -6.2650    9.6540   -2.4060 C   0  0  0  0  0  0  0  0  0  0  0  0
   -6.9300    8.5150   -1.5970 C   0  0  1  0  0  0  0  0  0  0  0  0
   -7.5650    9.2210   -0.3590 C   0  0  0  0  0  0  0  0  0  0  0  0
   -7.9770    7.6430   -2.3640 C   0  0  2  0  0  0  0  0  0  0  0  0
   -9.2170    8.4030   -2.8650 C   0  0  0  0  0  0  0  0  0  0  0  0
  -10.3670    8.4440   -1.9140 C   0  0  0  0  0  0  0  0  0  0  0  0
  -10.5140    7.6610   -0.8290 C   0  0  0  0  0  0  0  0  0  0  0  0
   -9.5070    6.5450   -0.5220 C   0  0  1  0  0  0  0  0  0  0  0  0
  -10.2710    5.2440   -0.1610 C   0  0  0  0  0  0  0  0  0  0  0  0
  -11.2770    5.4490    0.9670 C   0  0  0  0  0  0  0  0  0  0  0  0
  -12.2950    6.5250    0.6010 C   0  0  2  0  0  0  0  0  0  0  0  0
  -13.1000    6.0490   -0.4820 O   0  0  0  0  0  0  0  0  0  0  0  0
  -11.6410    7.8800    0.2090 C   0  0  0  0  0  0  0  0  0  0  0  0
  -11.0240    8.5420    1.4660 C   0  0  0  0  0  0  0  0  0  0  0  0
  -12.7690    8.8320   -0.2730 C   0  0  0  0  0  0  0  0  0  0  0  0
   -8.3800    6.3070   -1.6160 C   0  0  1  0  0  0  0  0  0  0  0  0
   -8.8980    5.3240   -2.7100 C   0  0  0  0  0  0  0  0  0  0  0  0
   -7.1440    5.6050   -0.9380 C   0  0  0  0  0  0  0  0  0  0  0  0
   -6.0850    6.5260   -0.3030 C   0  0  0  0  0  0  0  0  0  0  0  0
   -5.6680    7.6350   -1.2740 C   0  0  2  0  0  0  0  0  0  0  0  0
   -5.0060    6.9560   -2.5200 C   0  0  0  0  0  0  0  0  0  0  0  0
   -2.6668    9.0633    1.3418 H   0  0  0  0  0  0  0  0  0  0  0  0
   -1.4046    9.2638    0.0796 H   0  0  0  0  0  0  0  0  0  0  0  0
   -2.8518   10.3279    0.0796 H   0  0  0  0  0  0  0  0  0  0  0  0
   -3.1367    7.3210   -0.1369 H   0  0  0  0  0  0  0  0  0  0  0  0
   -2.9303    7.2772   -2.4815 H   0  0  0  0  0  0  0  0  0  0  0  0
   -2.9000    9.1031   -2.5711 H   0  0  0  0  0  0  0  0  0  0  0  0
   -0.7093    7.8263   -1.0226 H   0  0  0  0  0  0  0  0  0  0  0  0
   -0.7046    7.5650   -2.8166 H   0  0  0  0  0  0  0  0  0  0  0  0
   -1.4846    9.9647   -2.4985 H   0  0  0  0  0  0  0  0  0  0  0  0
    0.8919    9.8238    0.7302 H   0  0  0  0  0  0  0  0  0  0  0  0
    0.9204    8.3489   -0.2949 H   0  0  0  0  0  0  0  0  0  0  0  0
    2.3240    9.4700   -0.2949 H   0  0  0  0  0  0  0  0  0  0  0  0
    0.7888   11.9909   -0.2528 H   0  0  0  0  0  0  0  0  0  0  0  0
    1.6880   11.9582   -1.8075 H   0  0  0  0  0  0  0  0  0  0  0  0
   -0.1000   12.1311   -1.8075 H   0  0  0  0  0  0  0  0  0  0  0  0
   -4.9093    8.9140    0.3278 H   0  0  0  0  0  0  0  0  0  0  0  0
   -4.9447   10.8415   -1.1279 H   0  0  0  0  0  0  0  0  0  0  0  0
   -4.0895    9.9756   -2.4226 H   0  0  0  0  0  0  0  0  0  0  0  0
   -6.8862   10.5615   -2.3818 H   0  0  0  0  0  0  0  0  0  0  0  0
   -6.1378    9.3931   -3.4670 H   0  0  0  0  0  0  0  0  0  0  0  0
   -7.1639    8.7751    0.5631 H   0  0  0  0  0  0  0  0  0  0  0  0
   -7.3216   10.2935   -0.3836 H   0  0  0  0  0  0  0  0  0  0  0  0
   -8.6572    9.0922   -0.3836 H   0  0  0  0  0  0  0  0  0  0  0  0
   -7.4227    7.3483   -3.2673 H   0  0  0  0  0  0  0  0  0  0  0  0
   -8.9167    9.4391   -3.0801 H   0  0  0  0  0  0  0  0  0  0  0  0
   -9.5731    7.8548   -3.7497 H   0  0  0  0  0  0  0  0  0  0  0  0
  -11.1620    9.1765   -2.1172 H   0  0  0  0  0  0  0  0  0  0  0  0
   -8.9258    6.8903    0.3458 H   0  0  0  0  0  0  0  0  0  0  0  0
  -10.8092    4.8922   -1.0535 H   0  0  0  0  0  0  0  0  0  0  0  0
   -9.5304    4.5069    0.1827 H   0  0  0  0  0  0  0  0  0  0  0  0
  -11.8053    4.5026    1.1546 H   0  0  0  0  0  0  0  0  0  0  0  0
  -10.7338    5.7714    1.8675 H   0  0  0  0  0  0  0  0  0  0  0  0
  -12.9057    6.7184    1.4952 H   0  0  0  0  0  0  0  0  0  0  0  0
  -13.7680    5.4490   -0.1100 H   0  0  0  0  0  0  0  0  0  0  0  0
  -11.4518    8.0830    2.3695 H   0  0  0  0  0  0  0  0  0  0  0  0
   -9.9340    8.3942    1.4606 H   0  0  0  0  0  0  0  0  0  0  0  0
  -11.2480    9.6189    1.4606 H   0  0  0  0  0  0  0  0  0  0  0  0
  -13.2814    9.2644    0.5990 H   0  0  0  0  0  0  0  0  0  0  0  0
  -12.3331    9.6394   -0.8798 H   0  0  0  0  0  0  0  0  0  0  0  0
  -13.4916    8.2666   -0.8798 H   0  0  0  0  0  0  0  0  0  0  0  0
   -9.3590    4.4491   -2.2282 H   0  0  0  0  0  0  0  0  0  0  0  0
   -9.6448    5.8334   -3.3368 H   0  0  0  0  0  0  0  0  0  0  0  0
   -8.0556    4.9960   -3.3368 H   0  0  0  0  0  0  0  0  0  0  0  0
   -7.5288    4.9450   -0.1466 H   0  0  0  0  0  0  0  0  0  0  0  0
   -6.6221    5.0872   -1.7563 H   0  0  0  0  0  0  0  0  0  0  0  0
   -6.5039    6.9825    0.6059 H   0  0  0  0  0  0  0  0  0  0  0  0
   -5.1981    5.9232   -0.0581 H   0  0  0  0  0  0  0  0  0  0  0  0
   -4.2749    6.2061   -2.1837 H   0  0  0  0  0  0  0  0  0  0  0  0
   -5.7821    6.4655   -3.1258 H   0  0  0  0  0  0  0  0  0  0  0  0
   -4.4959    7.7194   -3.1258 H   0  0  0  0  0  0  0  0  0  0  0  0
  1  2  1  0
  2  3  1  0
  3  4  1  0
  4  5  1  0
  5  6  1  0
  6  7  1  0
  7  8  1  0
  7  9  1  0
  2 10  1  0
 10 11  1  0
 11 12  1  0
 12 13  1  0
 13 14  1  1
 13 15  1  0
 15 16  1  0
 16 17  1  0
 17 18  2  0
 18 19  1  0
 19 20  1  0
 20 21  1  0
 21 22  1  0
 22 23  1  0
 22 24  1  0
 24 25  1  0
 24 26  1  0
 19 27  1  0
 27 28  1  6
 27 29  1  0
 29 30  1  0
 30 31  1  0
 31 32  1  6
  7  5  1  0
 31 10  1  0
 31 13  1  0
 27 15  1  0
 24 18  1  0
  1 33  1  0
  1 34  1  0
  1 35  1  0
  2 36  1  1
  3 37  1  0
  3 38  1  0
  4 39  1  0
  4 40  1  0
  5 41  1  6
  8 42  1  0
  8 43  1  0
  8 44  1  0
  9 45  1  0
  9 46  1  0
  9 47  1  0
 10 48  1  1
 11 49  1  0
 11 50  1  0
 12 51  1  0
 12 52  1  0
 14 53  1  0
 14 54  1  0
 14 55  1  0
 15 56  1  6
 16 57  1  0
 16 58  1  0
 17 59  1  0
 19 60  1  1
 20 61  1  0
 20 62  1  0
 21 63  1  0
 21 64  1  0
 22 65  1  1
 23 66  1  0
 25 67  1  0
 25 68  1  0
 25 69  1  0
 26 70  1  0
 26 71  1  0
 26 72  1  0
 28 73  1  0
 28 74  1  0
 28 75  1  0
 29 76  1  0
 29 77  1  0
 30 78  1  0
 30 79  1  0
 32 80  1  0
 32 81  1  0
 32 82  1  0
M  END
>  <meeko>  (16) 
{"is_sidechain": [false], "intermolecular_energy": 2.731, "internal_energy": -0.839}

$$$$
EPH_relaxed_0001_pdb2pqr_Repair_251_r2_0001_out
     RDKit          3D

 82 86  0  0  0  0  0  0  0  0999 V2000
    1.6190   16.8090   -5.2860 C   0  0  0  0  0  0  0  0  0  0  0  0
    1.6470   15.5860   -6.2080 C   0  0  2  0  0  0  0  0  0  0  0  0
    1.0380   15.8880   -7.5910 C   0  0  0  0  0  0  0  0  0  0  0  0
    2.0160   16.5520   -8.5640 C   0  0  0  0  0  0  0  0  0  0  0  0
    1.6360   16.3010   -9.9910 C   0  0  2  0  0  0  0  0  0  0  0  0
    0.9850   15.0450  -10.2250 O   0  0  0  0  0  0  0  0  0  0  0  0
    2.2680   15.2200  -10.8480 C   0  0  0  0  0  0  0  0  0  0  0  0
    3.3340   14.3200  -10.3070 C   0  0  0  0  0  0  0  0  0  0  0  0
    2.2020   15.3570  -12.3370 C   0  0  0  0  0  0  0  0  0  0  0  0
    0.9070   14.4260   -5.5530 C   0  0  1  0  0  0  0  0  0  0  0  0
    0.1730   13.5280   -6.5850 C   0  0  0  0  0  0  0  0  0  0  0  0
    0.2520   12.0750   -6.0490 C   0  0  0  0  0  0  0  0  0  0  0  0
    0.7270   12.2250   -4.5850 C   0  0  1  0  0  0  0  0  0  0  0  0
   -0.5600   12.5860   -3.7800 C   0  0  0  0  0  0  0  0  0  0  0  0
    1.4660   10.9920   -3.9690 C   0  0  2  0  0  0  0  0  0  0  0  0
    0.6230    9.7090   -3.8680 C   0  0  0  0  0  0  0  0  0  0  0  0
   -0.1310    9.5400   -2.5910 C   0  0  0  0  0  0  0  0  0  0  0  0
    0.0860   10.2330   -1.4570 C   0  0  0  0  0  0  0  0  0  0  0  0
    1.2440   11.2340   -1.3550 C   0  0  1  0  0  0  0  0  0  0  0  0
    2.0050   11.0110   -0.0220 C   0  0  0  0  0  0  0  0  0  0  0  0
    1.0830   11.0590    1.1930 C   0  0  0  0  0  0  0  0  0  0  0  0
   -0.0210   10.0100    1.0820 C   0  0  2  0  0  0  0  0  0  0  0  0
    0.5700    8.7100    1.1610 O   0  0  0  0  0  0  0  0  0  0  0  0
   -0.8500   10.1300   -0.2270 C   0  0  0  0  0  0  0  0  0  0  0  0
   -1.7260   11.4060   -0.1740 C   0  0  0  0  0  0  0  0  0  0  0  0
   -1.8330    8.9300   -0.2810 C   0  0  0  0  0  0  0  0  0  0  0  0
    2.2170   11.2990   -2.6100 C   0  0  1  0  0  0  0  0  0  0  0  0
    3.3390   10.2260   -2.4690 C   0  0  0  0  0  0  0  0  0  0  0  0
    2.9400   12.6980   -2.6280 C   0  0  0  0  0  0  0  0  0  0  0  0
    2.2140   13.8460   -3.3550 C   0  0  0  0  0  0  0  0  0  0  0  0
    1.7510   13.4070   -4.7480 C   0  0  2  0  0  0  0  0  0  0  0  0
    3.0270   13.0580   -5.5880 C   0  0  0  0  0  0  0  0  0  0  0  0
    1.6266   16.4777   -4.2371 H   0  0  0  0  0  0  0  0  0  0  0  0
    2.5031   17.4343   -5.4794 H   0  0  0  0  0  0  0  0  0  0  0  0
    0.7072   17.3932   -5.4794 H   0  0  0  0  0  0  0  0  0  0  0  0
    2.7008   15.3127   -6.3654 H   0  0  0  0  0  0  0  0  0  0  0  0
    0.6968   14.9408   -8.0343 H   0  0  0  0  0  0  0  0  0  0  0  0
    0.2134   16.5981   -7.4303 H   0  0  0  0  0  0  0  0  0  0  0  0
    2.0187   17.6368   -8.3816 H   0  0  0  0  0  0  0  0  0  0  0  0
    3.0136   16.1206   -8.3944 H   0  0  0  0  0  0  0  0  0  0  0  0
    1.4725   17.3754  -10.1609 H   0  0  0  0  0  0  0  0  0  0  0  0
    3.3087   14.3414   -9.2075 H   0  0  0  0  0  0  0  0  0  0  0  0
    3.1591   13.2923  -10.6579 H   0  0  0  0  0  0  0  0  0  0  0  0
    4.3179   14.6648  -10.6579 H   0  0  0  0  0  0  0  0  0  0  0  0
    1.7380   16.3200  -12.5964 H   0  0  0  0  0  0  0  0  0  0  0  0
    3.2189   15.3156  -12.7545 H   0  0  0  0  0  0  0  0  0  0  0  0
    1.6006   14.5360  -12.7545 H   0  0  0  0  0  0  0  0  0  0  0  0
    0.2482   14.9872   -4.8741 H   0  0  0  0  0  0  0  0  0  0  0  0
   -0.8775   13.8404   -6.6796 H   0  0  0  0  0  0  0  0  0  0  0  0
    0.6368   13.6082   -7.5792 H   0  0  0  0  0  0  0  0  0  0  0  0
   -0.7354   11.5919   -6.0894 H   0  0  0  0  0  0  0  0  0  0  0  0
    0.9298   11.4465   -6.6453 H   0  0  0  0  0  0  0  0  0  0  0  0
   -0.3473   12.5263   -2.7024 H   0  0  0  0  0  0  0  0  0  0  0  0
   -0.8774   13.6079   -4.0350 H   0  0  0  0  0  0  0  0  0  0  0  0
   -1.3626   11.8783   -4.0350 H   0  0  0  0  0  0  0  0  0  0  0  0
    2.2404   10.7815   -4.7213 H   0  0  0  0  0  0  0  0  0  0  0  0
   -0.1038    9.7141   -4.6937 H   0  0  0  0  0  0  0  0  0  0  0  0
    1.3358    8.8724   -3.9133 H   0  0  0  0  0  0  0  0  0  0  0  0
   -0.9315    8.7857   -2.5749 H   0  0  0  0  0  0  0  0  0  0  0  0
    0.7838   12.2331   -1.3594 H   0  0  0  0  0  0  0  0  0  0  0  0
    2.4935   10.0260   -0.0553 H   0  0  0  0  0  0  0  0  0  0  0  0
    2.7391   11.8234    0.0835 H   0  0  0  0  0  0  0  0  0  0  0  0
    1.6734   10.8656    2.1008 H   0  0  0  0  0  0  0  0  0  0  0  0
    0.6178   12.0546    1.2416 H   0  0  0  0  0  0  0  0  0  0  0  0
   -0.7220   10.1783    1.9128 H   0  0  0  0  0  0  0  0  0  0  0  0
    0.3830    8.3550    2.0460 H   0  0  0  0  0  0  0  0  0  0  0  0
   -1.9133   11.6788    0.8750 H   0  0  0  0  0  0  0  0  0  0  0  0
   -1.2030   12.2311   -0.6797 H   0  0  0  0  0  0  0  0  0  0  0  0
   -2.6839   11.2144   -0.6797 H   0  0  0  0  0  0  0  0  0  0  0  0
   -2.0881    8.6186    0.7427 H   0  0  0  0  0  0  0  0  0  0  0  0
   -2.7486    9.2296   -0.8120 H   0  0  0  0  0  0  0  0  0  0  0  0
   -1.3590    8.0913   -0.8120 H   0  0  0  0  0  0  0  0  0  0  0  0
    3.5351   10.0385   -1.4030 H   0  0  0  0  0  0  0  0  0  0  0  0
    3.0161    9.2921   -2.9523 H   0  0  0  0  0  0  0  0  0  0  0  0
    4.2576   10.5903   -2.9523 H   0  0  0  0  0  0  0  0  0  0  0  0
    3.0906   13.0082   -1.5834 H   0  0  0  0  0  0  0  0  0  0  0  0
    3.8661   12.5360   -3.1990 H   0  0  0  0  0  0  0  0  0  0  0  0
    1.3376   14.1492   -2.7635 H   0  0  0  0  0  0  0  0  0  0  0  0
    2.9130   14.6879   -3.4669 H   0  0  0  0  0  0  0  0  0  0  0  0
    3.8618   12.8297   -4.9090 H   0  0  0  0  0  0  0  0  0  0  0  0
    2.8205   12.1833   -6.2223 H   0  0  0  0  0  0  0  0  0  0  0  0
    3.2944   13.9160   -6.2223 H   0  0  0  0  0  0  0  0  0  0  0  0
  1  2  1  0
  2  3  1  0
  3  4  1  0
  4  5  1  0
  5  6  1  0
  6  7  1  0
  7  8  1  0
  7  9  1  0
  2 10  1  0
 10 11  1  0
 11 12  1  0
 12 13  1  0
 13 14  1  1
 13 15  1  0
 15 16  1  0
 16 17  1  0
 17 18  2  0
 18 19  1  0
 19 20  1  0
 20 21  1  0
 21 22  1  0
 22 23  1  0
 22 24  1  0
 24 25  1  0
 24 26  1  0
 19 27  1  0
 27 28  1  1
 27 29  1  0
 29 30  1  0
 30 31  1  0
 31 32  1  6
  7  5  1  0
 31 10  1  0
 31 13  1  0
 27 15  1  0
 24 18  1  0
  1 33  1  0
  1 34  1  0
  1 35  1  0
  2 36  1  6
  3 37  1  0
  3 38  1  0
  4 39  1  0
  4 40  1  0
  5 41  1  6
  8 42  1  0
  8 43  1  0
  8 44  1  0
  9 45  1  0
  9 46  1  0
  9 47  1  0
 10 48  1  1
 11 49  1  0
 11 50  1  0
 12 51  1  0
 12 52  1  0
 14 53  1  0
 14 54  1  0
 14 55  1  0
 15 56  1  6
 16 57  1  0
 16 58  1  0
 17 59  1  0
 19 60  1  1
 20 61  1  0
 20 62  1  0
 21 63  1  0
 21 64  1  0
 22 65  1  1
 23 66  1  0
 25 67  1  0
 25 68  1  0
 25 69  1  0
 26 70  1  0
 26 71  1  0
 26 72  1  0
 28 73  1  0
 28 74  1  0
 28 75  1  0
 29 76  1  0
 29 77  1  0
 30 78  1  0
 30 79  1  0
 32 80  1  0
 32 81  1  0
 32 82  1  0
M  END
>  <meeko>  (17) 
{"is_sidechain": [false], "intermolecular_energy": 2.731, "internal_energy": -0.839}

$$$$
EPH_relaxed_0001_pdb2pqr_Repair_251_r2_0001_out
     RDKit          3D

 82 86  0  0  0  0  0  0  0  0999 V2000
   -1.0190   11.7780   -1.7130 C   0  0  0  0  0  0  0  0  0  0  0  0
   -0.7040   10.2950   -1.4930 C   0  0  2  0  0  0  0  0  0  0  0  0
    0.6760    9.9040   -2.0580 C   0  0  0  0  0  0  0  0  0  0  0  0
    1.3390   11.0100   -2.8820 C   0  0  0  0  0  0  0  0  0  0  0  0
    2.8330   10.8810   -2.8830 C   0  0  2  0  0  0  0  0  0  0  0  0
    3.5420   12.1260   -2.8430 O   0  0  0  0  0  0  0  0  0  0  0  0
    3.7110   11.3380   -4.0320 C   0  0  0  0  0  0  0  0  0  0  0  0
    3.1270   11.9600   -5.2620 C   0  0  0  0  0  0  0  0  0  0  0  0
    5.0770   10.7410   -4.1700 C   0  0  0  0  0  0  0  0  0  0  0  0
   -1.7910    9.4340   -2.1260 C   0  0  1  0  0  0  0  0  0  0  0  0
   -1.2190    8.3830   -3.1140 C   0  0  0  0  0  0  0  0  0  0  0  0
   -2.1110    7.1210   -2.9910 C   0  0  0  0  0  0  0  0  0  0  0  0
   -3.3490    7.5950   -2.1940 C   0  0  1  0  0  0  0  0  0  0  0  0
   -4.2630    8.2920   -3.2510 C   0  0  0  0  0  0  0  0  0  0  0  0
   -4.1230    6.4940   -1.3990 C   0  0  2  0  0  0  0  0  0  0  0  0
   -4.7440    5.3810   -2.2610 C   0  0  0  0  0  0  0  0  0  0  0  0
   -6.1420    5.6350   -2.7200 C   0  0  0  0  0  0  0  0  0  0  0  0
   -6.9710    6.5720   -2.2220 C   0  0  0  0  0  0  0  0  0  0  0  0
   -6.5560    7.4330   -1.0220 C   0  0  1  0  0  0  0  0  0  0  0  0
   -7.7170    7.4850    0.0040 C   0  0  0  0  0  0  0  0  0  0  0  0
   -9.0300    7.9490   -0.6200 C   0  0  0  0  0  0  0  0  0  0  0  0
   -9.4390    7.0340   -1.7720 C   0  0  2  0  0  0  0  0  0  0  0  0
   -9.7570    5.7430   -1.2440 O   0  0  0  0  0  0  0  0  0  0  0  0
   -8.3420    6.8960   -2.8640 C   0  0  0  0  0  0  0  0  0  0  0  0
   -8.2120    8.2290   -3.6420 C   0  0  0  0  0  0  0  0  0  0  0  0
   -8.8240    5.8390   -3.8940 C   0  0  0  0  0  0  0  0  0  0  0  0
   -5.1640    7.0620   -0.3510 C   0  0  1  0  0  0  0  0  0  0  0  0
   -5.3700    5.9470    0.7200 C   0  0  0  0  0  0  0  0  0  0  0  0
   -4.6120    8.3200    0.4190 C   0  0  0  0  0  0  0  0  0  0  0  0
   -3.7550    9.3100   -0.3930 C   0  0  0  0  0  0  0  0  0  0  0  0
   -2.6620    8.5750   -1.1750 C   0  0  2  0  0  0  0  0  0  0  0  0
   -1.7140    7.8830   -0.1370 C   0  0  0  0  0  0  0  0  0  0  0  0
   -1.1253   12.2786   -0.7393 H   0  0  0  0  0  0  0  0  0  0  0  0
   -0.2004   12.2467   -2.2788 H   0  0  0  0  0  0  0  0  0  0  0  0
   -1.9575   11.8735   -2.2788 H   0  0  0  0  0  0  0  0  0  0  0  0
   -0.6764   10.1195   -0.4074 H   0  0  0  0  0  0  0  0  0  0  0  0
    1.3380    9.6541   -1.2158 H   0  0  0  0  0  0  0  0  0  0  0  0
    0.5167    9.0510   -2.7340 H   0  0  0  0  0  0  0  0  0  0  0  0
    0.9752   10.9492   -3.9183 H   0  0  0  0  0  0  0  0  0  0  0  0
    1.0787   11.9780   -2.4290 H   0  0  0  0  0  0  0  0  0  0  0  0
    2.7745    9.9310   -2.3316 H   0  0  0  0  0  0  0  0  0  0  0  0
    2.4007   12.7336   -4.9722 H   0  0  0  0  0  0  0  0  0  0  0  0
    3.9304   12.4165   -5.8588 H   0  0  0  0  0  0  0  0  0  0  0  0
    2.6208   11.1870   -5.8588 H   0  0  0  0  0  0  0  0  0  0  0  0
    5.4991   10.5565   -3.1711 H   0  0  0  0  0  0  0  0  0  0  0  0
    5.0081    9.7909   -4.7201 H   0  0  0  0  0  0  0  0  0  0  0  0
    5.7274   11.4369   -4.7201 H   0  0  0  0  0  0  0  0  0  0  0  0
   -2.4043   10.2211   -2.5890 H   0  0  0  0  0  0  0  0  0  0  0  0
   -1.2530    8.7720   -4.1423 H   0  0  0  0  0  0  0  0  0  0  0  0
   -0.1701    8.1496   -2.8786 H   0  0  0  0  0  0  0  0  0  0  0  0
   -2.4060    6.7554   -3.9857 H   0  0  0  0  0  0  0  0  0  0  0  0
   -1.5899    6.2882   -2.4962 H   0  0  0  0  0  0  0  0  0  0  0  0
   -5.0358    8.8813   -2.7358 H   0  0  0  0  0  0  0  0  0  0  0  0
   -3.6539    8.9570   -3.8809 H   0  0  0  0  0  0  0  0  0  0  0  0
   -4.7431    7.5286   -3.8809 H   0  0  0  0  0  0  0  0  0  0  0  0
   -3.3199    6.0119   -0.8223 H   0  0  0  0  0  0  0  0  0  0  0  0
   -4.1125    5.2487   -3.1519 H   0  0  0  0  0  0  0  0  0  0  0  0
   -4.7918    4.4894   -1.6186 H   0  0  0  0  0  0  0  0  0  0  0  0
   -6.5273    5.0032   -3.5339 H   0  0  0  0  0  0  0  0  0  0  0  0
   -6.3661    8.4402   -1.4214 H   0  0  0  0  0  0  0  0  0  0  0  0
   -7.8623    6.4784    0.4232 H   0  0  0  0  0  0  0  0  0  0  0  0
   -7.4421    8.2123    0.7822 H   0  0  0  0  0  0  0  0  0  0  0  0
   -9.8179    7.9360    0.1475 H   0  0  0  0  0  0  0  0  0  0  0  0
   -8.8923    8.9675   -1.0120 H   0  0  0  0  0  0  0  0  0  0  0  0
  -10.3125    7.4897   -2.2612 H   0  0  0  0  0  0  0  0  0  0  0  0
   -9.2750    5.6410   -0.4050 H   0  0  0  0  0  0  0  0  0  0  0  0
   -8.1307    9.0630   -2.9294 H   0  0  0  0  0  0  0  0  0  0  0  0
   -7.3126    8.1982   -4.2746 H   0  0  0  0  0  0  0  0  0  0  0  0
   -9.1004    8.3725   -4.2746 H   0  0  0  0  0  0  0  0  0  0  0  0
   -9.2233    4.9634   -3.3612 H   0  0  0  0  0  0  0  0  0  0  0  0
   -9.6123    6.2750   -4.5253 H   0  0  0  0  0  0  0  0  0  0  0  0
   -7.9779    5.5297   -4.5253 H   0  0  0  0  0  0  0  0  0  0  0  0
   -5.2890    6.3852    1.7257 H   0  0  0  0  0  0  0  0  0  0  0  0
   -6.3663    5.4979    0.5948 H   0  0  0  0  0  0  0  0  0  0  0  0
   -4.5999    5.1716    0.5948 H   0  0  0  0  0  0  0  0  0  0  0  0
   -5.4762    8.8741    0.8141 H   0  0  0  0  0  0  0  0  0  0  0  0
   -3.9352    7.9145    1.1855 H   0  0  0  0  0  0  0  0  0  0  0  0
   -4.4018    9.8503   -1.0999 H   0  0  0  0  0  0  0  0  0  0  0  0
   -3.2754   10.0128    0.3042 H   0  0  0  0  0  0  0  0  0  0  0  0
   -2.0471    8.1261    0.8828 H   0  0  0  0  0  0  0  0  0  0  0  0
   -1.7442    6.7931   -0.2825 H   0  0  0  0  0  0  0  0  0  0  0  0
   -0.6851    8.2440   -0.2825 H   0  0  0  0  0  0  0  0  0  0  0  0
  1  2  1  0
  2  3  1  0
  3  4  1  0
  4  5  1  0
  5  6  1  0
  6  7  1  0
  7  8  1  0
  7  9  1  0
  2 10  1  0
 10 11  1  0
 11 12  1  0
 12 13  1  0
 13 14  1  6
 13 15  1  0
 15 16  1  0
 16 17  1  0
 17 18  2  0
 18 19  1  0
 19 20  1  0
 20 21  1  0
 21 22  1  0
 22 23  1  0
 22 24  1  0
 24 25  1  0
 24 26  1  0
 19 27  1  0
 27 28  1  1
 27 29  1  0
 29 30  1  0
 30 31  1  0
 31 32  1  1
  7  5  1  0
 31 10  1  0
 31 13  1  0
 27 15  1  0
 24 18  1  0
  1 33  1  0
  1 34  1  0
  1 35  1  0
  2 36  1  1
  3 37  1  0
  3 38  1  0
  4 39  1  0
  4 40  1  0
  5 41  1  1
  8 42  1  0
  8 43  1  0
  8 44  1  0
  9 45  1  0
  9 46  1  0
  9 47  1  0
 10 48  1  6
 11 49  1  0
 11 50  1  0
 12 51  1  0
 12 52  1  0
 14 53  1  0
 14 54  1  0
 14 55  1  0
 15 56  1  1
 16 57  1  0
 16 58  1  0
 17 59  1  0
 19 60  1  6
 20 61  1  0
 20 62  1  0
 21 63  1  0
 21 64  1  0
 22 65  1  6
 23 66  1  0
 25 67  1  0
 25 68  1  0
 25 69  1  0
 26 70  1  0
 26 71  1  0
 26 72  1  0
 28 73  1  0
 28 74  1  0
 28 75  1  0
 29 76  1  0
 29 77  1  0
 30 78  1  0
 30 79  1  0
 32 80  1  0
 32 81  1  0
 32 82  1  0
M  END
>  <meeko>  (18) 
{"is_sidechain": [false], "intermolecular_energy": 2.731, "internal_energy": -0.839}

$$$$
