EPH_relaxed_0001_pdb2pqr_Repair_279_r2_0001_out
     RDKit          3D

 82 86  0  0  0  0  0  0  0  0999 V2000
   -1.7170    8.5830   -1.8760 C   0  0  0  0  0  0  0  0  0  0  0  0
   -2.0970    9.1000   -0.4860 C   0  0  2  0  0  0  0  0  0  0  0  0
   -3.5930    9.4620   -0.3900 C   0  0  0  0  0  0  0  0  0  0  0  0
   -4.5110    8.2470   -0.2290 C   0  0  0  0  0  0  0  0  0  0  0  0
   -5.2180    7.9130   -1.5070 C   0  0  2  0  0  0  0  0  0  0  0  0
   -6.3530    8.7390   -1.7980 O   0  0  0  0  0  0  0  0  0  0  0  0
   -6.6250    7.3480   -1.5630 C   0  0  0  0  0  0  0  0  0  0  0  0
   -7.4100    7.0850   -0.3160 C   0  0  0  0  0  0  0  0  0  0  0  0
   -7.0490    6.6010   -2.7880 C   0  0  0  0  0  0  0  0  0  0  0  0
   -1.2440   10.3120   -0.1310 C   0  0  1  0  0  0  0  0  0  0  0  0
   -0.2250   10.0150    1.0010 C   0  0  0  0  0  0  0  0  0  0  0  0
    1.0470   10.8440    0.6870 C   0  0  0  0  0  0  0  0  0  0  0  0
    0.6040   11.8340   -0.4150 C   0  0  1  0  0  0  0  0  0  0  0  0
   -0.1130   12.9910    0.3490 C   0  0  0  0  0  0  0  0  0  0  0  0
    1.7330   12.3750   -1.3520 C   0  0  2  0  0  0  0  0  0  0  0  0
    2.8270   13.1970   -0.6490 C   0  0  0  0  0  0  0  0  0  0  0  0
    2.5720   14.6660   -0.5740 C   0  0  0  0  0  0  0  0  0  0  0  0
    1.6560   15.3380   -1.2960 C   0  0  0  0  0  0  0  0  0  0  0  0
    0.8240   14.6280   -2.3710 C   0  0  1  0  0  0  0  0  0  0  0  0
    0.8100   15.4850   -3.6640 C   0  0  0  0  0  0  0  0  0  0  0  0
    0.3400   16.9150   -3.4140 C   0  0  0  0  0  0  0  0  0  0  0  0
    1.2270   17.6070   -2.3820 C   0  0  2  0  0  0  0  0  0  0  0  0
    2.5350   17.7760   -2.9370 O   0  0  0  0  0  0  0  0  0  0  0  0
    1.3260   16.8300   -1.0390 C   0  0  0  0  0  0  0  0  0  0  0  0
   -0.0280   16.9060   -0.2920 C   0  0  0  0  0  0  0  0  0  0  0  0
    2.3600   17.5600   -0.1400 C   0  0  0  0  0  0  0  0  0  0  0  0
    1.2020   13.1100   -2.6500 C   0  0  1  0  0  0  0  0  0  0  0  0
    2.3470   13.0310   -3.7050 C   0  0  0  0  0  0  0  0  0  0  0  0
   -0.0390   12.3790   -3.2850 C   0  0  0  0  0  0  0  0  0  0  0  0
   -1.0570   11.7620   -2.3080 C   0  0  0  0  0  0  0  0  0  0  0  0
   -0.3530   10.9070   -1.2490 C   0  0  2  0  0  0  0  0  0  0  0  0
    0.3590    9.7230   -1.9870 C   0  0  0  0  0  0  0  0  0  0  0  0
   -1.0683    7.7005   -1.7743 H   0  0  0  0  0  0  0  0  0  0  0  0
   -2.6285    8.3066   -2.4262 H   0  0  0  0  0  0  0  0  0  0  0  0
   -1.1811    9.3705   -2.4262 H   0  0  0  0  0  0  0  0  0  0  0  0
   -1.9070    8.2887    0.2321 H   0  0  0  0  0  0  0  0  0  0  0  0
   -3.7355   10.1224    0.4780 H   0  0  0  0  0  0  0  0  0  0  0  0
   -3.8674    9.9491   -1.3373 H   0  0  0  0  0  0  0  0  0  0  0  0
   -3.9062    7.3818    0.0804 H   0  0  0  0  0  0  0  0  0  0  0  0
   -5.2700    8.4890    0.5295 H   0  0  0  0  0  0  0  0  0  0  0  0
   -4.2743    7.5901   -1.9709 H   0  0  0  0  0  0  0  0  0  0  0  0
   -6.7830    7.2951    0.5631 H   0  0  0  0  0  0  0  0  0  0  0  0
   -8.2972    7.7350   -0.2973 H   0  0  0  0  0  0  0  0  0  0  0  0
   -7.7266    6.0317   -0.2973 H   0  0  0  0  0  0  0  0  0  0  0  0
   -7.5721    5.6794   -2.4928 H   0  0  0  0  0  0  0  0  0  0  0  0
   -7.7244    7.2305   -3.3859 H   0  0  0  0  0  0  0  0  0  0  0  0
   -6.1622    6.3438   -3.3859 H   0  0  0  0  0  0  0  0  0  0  0  0
   -2.0388   11.0242    0.1355 H   0  0  0  0  0  0  0  0  0  0  0  0
   -0.6417   10.3146    1.9739 H   0  0  0  0  0  0  0  0  0  0  0  0
    0.0064    8.9408    1.0521 H   0  0  0  0  0  0  0  0  0  0  0  0
    1.3883   11.3857    1.5815 H   0  0  0  0  0  0  0  0  0  0  0  0
    1.8887   10.2122    0.3669 H   0  0  0  0  0  0  0  0  0  0  0  0
   -0.0140   12.8313    1.4328 H   0  0  0  0  0  0  0  0  0  0  0  0
    0.3483   13.9516    0.0763 H   0  0  0  0  0  0  0  0  0  0  0  0
   -1.1786   13.0054    0.0763 H   0  0  0  0  0  0  0  0  0  0  0  0
    2.2240   11.4495   -1.6872 H   0  0  0  0  0  0  0  0  0  0  0  0
    2.9303   12.8171    0.3781 H   0  0  0  0  0  0  0  0  0  0  0  0
    3.7359   13.0766   -1.2569 H   0  0  0  0  0  0  0  0  0  0  0  0
    3.1841   15.2482    0.1305 H   0  0  0  0  0  0  0  0  0  0  0  0
   -0.1949   14.5486   -1.9640 H   0  0  0  0  0  0  0  0  0  0  0  0
    1.8289   15.5160   -4.0773 H   0  0  0  0  0  0  0  0  0  0  0  0
    0.1022   15.0191   -4.3654 H   0  0  0  0  0  0  0  0  0  0  0  0
    0.3799   17.4776   -4.3584 H   0  0  0  0  0  0  0  0  0  0  0  0
   -0.6898   16.8843   -3.0285 H   0  0  0  0  0  0  0  0  0  0  0  0
    0.7655   18.5780   -2.1493 H   0  0  0  0  0  0  0  0  0  0  0  0
    2.7580   18.7210   -2.8810 H   0  0  0  0  0  0  0  0  0  0  0  0
    0.1509   16.8960    0.7933 H   0  0  0  0  0  0  0  0  0  0  0  0
   -0.5481   17.8348   -0.5693 H   0  0  0  0  0  0  0  0  0  0  0  0
   -0.6488   16.0413   -0.5693 H   0  0  0  0  0  0  0  0  0  0  0  0
    2.1136   17.3860    0.9178 H   0  0  0  0  0  0  0  0  0  0  0  0
    3.3675   17.1719   -0.3504 H   0  0  0  0  0  0  0  0  0  0  0  0
    2.3315   18.6393   -0.3504 H   0  0  0  0  0  0  0  0  0  0  0  0
    3.3165   12.9641   -3.1896 H   0  0  0  0  0  0  0  0  0  0  0  0
    2.2044   12.1406   -4.3349 H   0  0  0  0  0  0  0  0  0  0  0  0
    2.3280   13.9326   -4.3349 H   0  0  0  0  0  0  0  0  0  0  0  0
   -0.5754   13.1122   -3.9052 H   0  0  0  0  0  0  0  0  0  0  0  0
    0.3816   11.5264   -3.8384 H   0  0  0  0  0  0  0  0  0  0  0  0
   -1.6110   12.5701   -1.8079 H   0  0  0  0  0  0  0  0  0  0  0  0
   -1.7441   11.1190   -2.8776 H   0  0  0  0  0  0  0  0  0  0  0  0
    0.7775    9.0271   -1.2450 H   0  0  0  0  0  0  0  0  0  0  0  0
   -0.3699    9.1924   -2.6171 H   0  0  0  0  0  0  0  0  0  0  0  0
    1.1695   10.1181   -2.6171 H   0  0  0  0  0  0  0  0  0  0  0  0
  1  2  1  0
  2  3  1  0
  3  4  1  0
  4  5  1  0
  5  6  1  0
  6  7  1  0
  7  8  1  0
  7  9  1  0
  2 10  1  0
 10 11  1  0
 11 12  1  0
 12 13  1  0
 13 14  1  1
 13 15  1  0
 15 16  1  0
 16 17  1  0
 17 18  2  0
 18 19  1  0
 19 20  1  0
 20 21  1  0
 21 22  1  0
 22 23  1  0
 22 24  1  0
 24 25  1  0
 24 26  1  0
 19 27  1  0
 27 28  1  6
 27 29  1  0
 29 30  1  0
 30 31  1  0
 31 32  1  6
  7  5  1  0
 31 10  1  0
 31 13  1  0
 27 15  1  0
 24 18  1  0
  1 33  1  0
  1 34  1  0
  1 35  1  0
  2 36  1  1
  3 37  1  0
  3 38  1  0
  4 39  1  0
  4 40  1  0
  5 41  1  6
  8 42  1  0
  8 43  1  0
  8 44  1  0
  9 45  1  0
  9 46  1  0
  9 47  1  0
 10 48  1  1
 11 49  1  0
 11 50  1  0
 12 51  1  0
 12 52  1  0
 14 53  1  0
 14 54  1  0
 14 55  1  0
 15 56  1  6
 16 57  1  0
 16 58  1  0
 17 59  1  0
 19 60  1  1
 20 61  1  0
 20 62  1  0
 21 63  1  0
 21 64  1  0
 22 65  1  1
 23 66  1  0
 25 67  1  0
 25 68  1  0
 25 69  1  0
 26 70  1  0
 26 71  1  0
 26 72  1  0
 28 73  1  0
 28 74  1  0
 28 75  1  0
 29 76  1  0
 29 77  1  0
 30 78  1  0
 30 79  1  0
 32 80  1  0
 32 81  1  0
 32 82  1  0
M  END
>  <meeko>  (1) 
{"is_sidechain": [false], "intermolecular_energy": 2.731, "internal_energy": -0.839}

$$$$
EPH_relaxed_0001_pdb2pqr_Repair_279_r2_0001_out
     RDKit          3D

 82 86  0  0  0  0  0  0  0  0999 V2000
    4.2320   17.5490   -0.6430 C   0  0  0  0  0  0  0  0  0  0  0  0
    2.8710   18.1290   -0.2480 C   0  0  2  0  0  0  0  0  0  0  0  0
    2.9190   18.8440    1.1170 C   0  0  0  0  0  0  0  0  0  0  0  0
    4.2780   18.7480    1.8150 C   0  0  0  0  0  0  0  0  0  0  0  0
    4.2200   19.2740    3.2180 C   0  0  2  0  0  0  0  0  0  0  0  0
    5.2650   20.1940    3.5560 O   0  0  0  0  0  0  0  0  0  0  0  0
    5.2580   18.9510    4.2760 C   0  0  0  0  0  0  0  0  0  0  0  0
    6.4290   18.0680    3.9770 C   0  0  0  0  0  0  0  0  0  0  0  0
    4.8780   19.0910    5.7170 C   0  0  0  0  0  0  0  0  0  0  0  0
    1.8230   17.0240   -0.2210 C   0  0  1  0  0  0  0  0  0  0  0  0
    0.3930   17.5480   -0.5220 C   0  0  0  0  0  0  0  0  0  0  0  0
   -0.3360   16.4320   -1.3130 C   0  0  0  0  0  0  0  0  0  0  0  0
    0.5690   15.1870   -1.1540 C   0  0  1  0  0  0  0  0  0  0  0  0
    0.2070   14.6050    0.2480 C   0  0  0  0  0  0  0  0  0  0  0  0
    0.4570   14.1030   -2.2750 C   0  0  2  0  0  0  0  0  0  0  0  0
   -0.9260   13.4400   -2.4060 C   0  0  0  0  0  0  0  0  0  0  0  0
   -1.1220   12.2080   -1.5860 C   0  0  0  0  0  0  0  0  0  0  0  0
   -0.1420   11.4950   -0.9990 C   0  0  0  0  0  0  0  0  0  0  0  0
    1.3330   11.8570   -1.2150 C   0  0  1  0  0  0  0  0  0  0  0  0
    2.1400   10.5700   -1.5320 C   0  0  0  0  0  0  0  0  0  0  0  0
    1.9540    9.4870   -0.4730 C   0  0  0  0  0  0  0  0  0  0  0  0
    0.4810    9.1140   -0.3290 C   0  0  2  0  0  0  0  0  0  0  0  0
    0.0450    8.4810   -1.5370 O   0  0  0  0  0  0  0  0  0  0  0  0
   -0.4330   10.3320   -0.0190 C   0  0  0  0  0  0  0  0  0  0  0  0
   -0.1630   10.8320    1.4220 C   0  0  0  0  0  0  0  0  0  0  0  0
   -1.9060    9.8420   -0.0390 C   0  0  0  0  0  0  0  0  0  0  0  0
    1.6150   13.0260   -2.2540 C   0  0  1  0  0  0  0  0  0  0  0  0
    1.7090   12.4440   -3.6970 C   0  0  0  0  0  0  0  0  0  0  0  0
    3.0200   13.6640   -1.9400 C   0  0  0  0  0  0  0  0  0  0  0  0
    3.0480   14.8110   -0.9120 C   0  0  0  0  0  0  0  0  0  0  0  0
    1.9850   15.8640   -1.2360 C   0  0  2  0  0  0  0  0  0  0  0  0
    2.3360   16.4840   -2.6320 C   0  0  0  0  0  0  0  0  0  0  0  0
    4.8040   17.3052    0.2644 H   0  0  0  0  0  0  0  0  0  0  0  0
    4.0827   16.6363   -1.2386 H   0  0  0  0  0  0  0  0  0  0  0  0
    4.7870   18.2888   -1.2386 H   0  0  0  0  0  0  0  0  0  0  0  0
    2.5991   18.8799   -1.0044 H   0  0  0  0  0  0  0  0  0  0  0  0
    2.6833   19.9070    0.9606 H   0  0  0  0  0  0  0  0  0  0  0  0
    2.1874   18.3430    1.7680 H   0  0  0  0  0  0  0  0  0  0  0  0
    4.5909   17.6938    1.8423 H   0  0  0  0  0  0  0  0  0  0  0  0
    4.9974   19.3586    1.2497 H   0  0  0  0  0  0  0  0  0  0  0  0
    3.1216   19.2147    3.2197 H   0  0  0  0  0  0  0  0  0  0  0  0
    6.8813   17.7270    4.9199 H   0  0  0  0  0  0  0  0  0  0  0  0
    6.0924   17.1969    3.3957 H   0  0  0  0  0  0  0  0  0  0  0  0
    7.1739   18.6312    3.3957 H   0  0  0  0  0  0  0  0  0  0  0  0
    5.7218   18.7801    6.3506 H   0  0  0  0  0  0  0  0  0  0  0  0
    4.6270   20.1406    5.9297 H   0  0  0  0  0  0  0  0  0  0  0  0
    4.0060   18.4551    5.9297 H   0  0  0  0  0  0  0  0  0  0  0  0
    1.9749   16.6523    0.8031 H   0  0  0  0  0  0  0  0  0  0  0  0
   -0.1397   17.7558    0.4177 H   0  0  0  0  0  0  0  0  0  0  0  0
    0.4290   18.4827   -1.1008 H   0  0  0  0  0  0  0  0  0  0  0  0
   -1.3335   16.2438   -0.8893 H   0  0  0  0  0  0  0  0  0  0  0  0
   -0.4927   16.7022   -2.3677 H   0  0  0  0  0  0  0  0  0  0  0  0
    0.6140   15.2594    1.0329 H   0  0  0  0  0  0  0  0  0  0  0  0
   -0.8868   14.5470    0.3497 H   0  0  0  0  0  0  0  0  0  0  0  0
    0.6386   13.5983    0.3497 H   0  0  0  0  0  0  0  0  0  0  0  0
    0.5914   14.6970   -3.1911 H   0  0  0  0  0  0  0  0  0  0  0  0
   -1.6857   14.1752   -2.1021 H   0  0  0  0  0  0  0  0  0  0  0  0
   -1.0143   13.1243   -3.4560 H   0  0  0  0  0  0  0  0  0  0  0  0
   -2.1541   11.8526   -1.4498 H   0  0  0  0  0  0  0  0  0  0  0  0
    1.6819   12.2928   -0.2672 H   0  0  0  0  0  0  0  0  0  0  0  0
    1.8065   10.1748   -2.5029 H   0  0  0  0  0  0  0  0  0  0  0  0
    3.2061   10.8402   -1.5496 H   0  0  0  0  0  0  0  0  0  0  0  0
    2.5247    8.5938   -0.7671 H   0  0  0  0  0  0  0  0  0  0  0  0
    2.3150    9.8729    0.4918 H   0  0  0  0  0  0  0  0  0  0  0  0
    0.3968    8.4323    0.5301 H   0  0  0  0  0  0  0  0  0  0  0  0
    0.3650    7.5630   -1.5200 H   0  0  0  0  0  0  0  0  0  0  0  0
   -0.5575   10.1014    2.1436 H   0  0  0  0  0  0  0  0  0  0  0  0
    0.9204   10.9481    1.5729 H   0  0  0  0  0  0  0  0  0  0  0  0
   -0.6602   11.8016    1.5729 H   0  0  0  0  0  0  0  0  0  0  0  0
   -2.2666    9.7221    0.9933 H   0  0  0  0  0  0  0  0  0  0  0  0
   -2.5311   10.5806   -0.5622 H   0  0  0  0  0  0  0  0  0  0  0  0
   -1.9641    8.8762   -0.5622 H   0  0  0  0  0  0  0  0  0  0  0  0
    1.8842   11.3593   -3.6442 H   0  0  0  0  0  0  0  0  0  0  0  0
    0.7679   12.6378   -4.2326 H   0  0  0  0  0  0  0  0  0  0  0  0
    2.5412   12.9242   -4.2326 H   0  0  0  0  0  0  0  0  0  0  0  0
    3.6724   12.8628   -1.5625 H   0  0  0  0  0  0  0  0  0  0  0  0
    3.3480   14.1180   -2.8867 H   0  0  0  0  0  0  0  0  0  0  0  0
    2.8543   14.4008    0.0901 H   0  0  0  0  0  0  0  0  0  0  0  0
    4.0378   15.2896   -0.9477 H   0  0  0  0  0  0  0  0  0  0  0  0
    2.8732   17.4329   -2.4871 H   0  0  0  0  0  0  0  0  0  0  0  0
    2.9722   15.7846   -3.1943 H   0  0  0  0  0  0  0  0  0  0  0  0
    1.4090   16.6696   -3.1943 H   0  0  0  0  0  0  0  0  0  0  0  0
  1  2  1  0
  2  3  1  0
  3  4  1  0
  4  5  1  0
  5  6  1  0
  6  7  1  0
  7  8  1  0
  7  9  1  0
  2 10  1  0
 10 11  1  0
 11 12  1  0
 12 13  1  0
 13 14  1  1
 13 15  1  0
 15 16  1  0
 16 17  1  0
 17 18  2  0
 18 19  1  0
 19 20  1  0
 20 21  1  0
 21 22  1  0
 22 23  1  0
 22 24  1  0
 24 25  1  0
 24 26  1  0
 19 27  1  0
 27 28  1  6
 27 29  1  0
 29 30  1  0
 30 31  1  0
 31 32  1  6
  7  5  1  0
 31 10  1  0
 31 13  1  0
 27 15  1  0
 24 18  1  0
  1 33  1  0
  1 34  1  0
  1 35  1  0
  2 36  1  6
  3 37  1  0
  3 38  1  0
  4 39  1  0
  4 40  1  0
  5 41  1  1
  8 42  1  0
  8 43  1  0
  8 44  1  0
  9 45  1  0
  9 46  1  0
  9 47  1  0
 10 48  1  1
 11 49  1  0
 11 50  1  0
 12 51  1  0
 12 52  1  0
 14 53  1  0
 14 54  1  0
 14 55  1  0
 15 56  1  6
 16 57  1  0
 16 58  1  0
 17 59  1  0
 19 60  1  1
 20 61  1  0
 20 62  1  0
 21 63  1  0
 21 64  1  0
 22 65  1  1
 23 66  1  0
 25 67  1  0
 25 68  1  0
 25 69  1  0
 26 70  1  0
 26 71  1  0
 26 72  1  0
 28 73  1  0
 28 74  1  0
 28 75  1  0
 29 76  1  0
 29 77  1  0
 30 78  1  0
 30 79  1  0
 32 80  1  0
 32 81  1  0
 32 82  1  0
M  END
>  <meeko>  (2) 
{"is_sidechain": [false], "intermolecular_energy": 2.731, "internal_energy": -0.839}

$$$$
EPH_relaxed_0001_pdb2pqr_Repair_279_r2_0001_out
     RDKit          3D

 82 86  0  0  0  0  0  0  0  0999 V2000
    2.2350   18.0800   -2.7700 C   0  0  0  0  0  0  0  0  0  0  0  0
    0.9820   17.6730   -1.9910 C   0  0  2  0  0  0  0  0  0  0  0  0
    1.2060   17.7190   -0.4660 C   0  0  0  0  0  0  0  0  0  0  0  0
    0.8660   19.0720    0.1660 C   0  0  0  0  0  0  0  0  0  0  0  0
   -0.5790   19.1560    0.5510 C   0  0  2  0  0  0  0  0  0  0  0  0
   -1.4470   18.2840   -0.1840 O   0  0  0  0  0  0  0  0  0  0  0  0
   -1.6600   19.6920   -0.3690 C   0  0  0  0  0  0  0  0  0  0  0  0
   -1.3410   20.1810   -1.7470 C   0  0  0  0  0  0  0  0  0  0  0  0
   -2.9330   20.1940    0.2390 C   0  0  0  0  0  0  0  0  0  0  0  0
    0.5390   16.2760   -2.4100 C   0  0  1  0  0  0  0  0  0  0  0  0
    0.5950   16.0690   -3.9470 C   0  0  0  0  0  0  0  0  0  0  0  0
    1.0070   14.5930   -4.1850 C   0  0  0  0  0  0  0  0  0  0  0  0
    0.8530   13.9180   -2.8020 C   0  0  1  0  0  0  0  0  0  0  0  0
   -0.6710   13.6030   -2.6780 C   0  0  0  0  0  0  0  0  0  0  0  0
    1.7270   12.6460   -2.5530 C   0  0  2  0  0  0  0  0  0  0  0  0
    1.4340   11.4590   -3.4880 C   0  0  0  0  0  0  0  0  0  0  0  0
    0.4000   10.5010   -2.9970 C   0  0  0  0  0  0  0  0  0  0  0  0
   -0.0620   10.4270   -1.7350 C   0  0  0  0  0  0  0  0  0  0  0  0
    0.5360   11.3030   -0.6250 C   0  0  1  0  0  0  0  0  0  0  0  0
    0.8090   10.4330    0.6300 C   0  0  0  0  0  0  0  0  0  0  0  0
   -0.4270    9.6680    1.0920 C   0  0  0  0  0  0  0  0  0  0  0  0
   -0.9570    8.7650   -0.0190 C   0  0  2  0  0  0  0  0  0  0  0  0
    0.0020    7.7330   -0.2700 O   0  0  0  0  0  0  0  0  0  0  0  0
   -1.2590    9.5300   -1.3380 C   0  0  0  0  0  0  0  0  0  0  0  0
   -2.5010   10.4340   -1.1410 C   0  0  0  0  0  0  0  0  0  0  0  0
   -1.6510    8.4840   -2.4170 C   0  0  0  0  0  0  0  0  0  0  0  0
    1.7890   12.1880   -1.0400 C   0  0  1  0  0  0  0  0  0  0  0  0
    3.1010   11.3610   -0.8780 C   0  0  0  0  0  0  0  0  0  0  0  0
    1.9070   13.4070   -0.0500 C   0  0  0  0  0  0  0  0  0  0  0  0
    1.1140   14.6760   -0.4140 C   0  0  0  0  0  0  0  0  0  0  0  0
    1.3600   15.0780   -1.8710 C   0  0  2  0  0  0  0  0  0  0  0  0
    2.8810   15.4220   -2.0220 C   0  0  0  0  0  0  0  0  0  0  0  0
    3.0372   18.3406   -2.0639 H   0  0  0  0  0  0  0  0  0  0  0  0
    2.5616   17.2418   -3.4030 H   0  0  0  0  0  0  0  0  0  0  0  0
    2.0067   18.9502   -3.4030 H   0  0  0  0  0  0  0  0  0  0  0  0
    0.1928   18.4006   -2.2314 H   0  0  0  0  0  0  0  0  0  0  0  0
    0.5743   16.9490    0.0011 H   0  0  0  0  0  0  0  0  0  0  0  0
    2.2782   17.5440   -0.2933 H   0  0  0  0  0  0  0  0  0  0  0  0
    1.4833   19.2103    1.0659 H   0  0  0  0  0  0  0  0  0  0  0  0
    1.0694   19.8580   -0.5762 H   0  0  0  0  0  0  0  0  0  0  0  0
   -0.3118   19.3914    1.5918 H   0  0  0  0  0  0  0  0  0  0  0  0
   -0.7411   21.1006   -1.6800 H   0  0  0  0  0  0  0  0  0  0  0  0
   -0.7715   19.4102   -2.2869 H   0  0  0  0  0  0  0  0  0  0  0  0
   -2.2759   20.3916   -2.2869 H   0  0  0  0  0  0  0  0  0  0  0  0
   -2.8530   20.1624    1.3356 H   0  0  0  0  0  0  0  0  0  0  0  0
   -3.1111   21.2297   -0.0860 H   0  0  0  0  0  0  0  0  0  0  0  0
   -3.7701   19.5586   -0.0860 H   0  0  0  0  0  0  0  0  0  0  0  0
   -0.4718   16.2645   -1.9763 H   0  0  0  0  0  0  0  0  0  0  0  0
   -0.3923   16.2631   -4.3916 H   0  0  0  0  0  0  0  0  0  0  0  0
    1.3135   16.7596   -4.4126 H   0  0  0  0  0  0  0  0  0  0  0  0
    0.3446   14.1192   -4.9244 H   0  0  0  0  0  0  0  0  0  0  0  0
    2.0291   14.5036   -4.5817 H   0  0  0  0  0  0  0  0  0  0  0  0
   -0.9483   13.5457   -1.6151 H   0  0  0  0  0  0  0  0  0  0  0  0
   -1.2511   14.4002   -3.1658 H   0  0  0  0  0  0  0  0  0  0  0  0
   -0.8875   12.6411   -3.1658 H   0  0  0  0  0  0  0  0  0  0  0  0
    2.7344   12.9964   -2.8220 H   0  0  0  0  0  0  0  0  0  0  0  0
    1.0928   11.8624   -4.4528 H   0  0  0  0  0  0  0  0  0  0  0  0
    2.3710   10.8869   -3.5564 H   0  0  0  0  0  0  0  0  0  0  0  0
   -0.0202    9.7954   -3.7289 H   0  0  0  0  0  0  0  0  0  0  0  0
   -0.2246   12.0631   -0.3933 H   0  0  0  0  0  0  0  0  0  0  0  0
    1.6027    9.7096    0.3916 H   0  0  0  0  0  0  0  0  0  0  0  0
    1.1078   11.1081    1.4455 H   0  0  0  0  0  0  0  0  0  0  0  0
   -0.1632    9.0501    1.9630 H   0  0  0  0  0  0  0  0  0  0  0  0
   -1.2098   10.3936    1.3580 H   0  0  0  0  0  0  0  0  0  0  0  0
   -1.9132    8.3439    0.3251 H   0  0  0  0  0  0  0  0  0  0  0  0
   -0.2460    7.2970   -1.1040 H   0  0  0  0  0  0  0  0  0  0  0  0
   -2.6884   10.5704   -0.0657 H   0  0  0  0  0  0  0  0  0  0  0  0
   -2.3198   11.4130   -1.6087 H   0  0  0  0  0  0  0  0  0  0  0  0
   -3.3769    9.9607   -1.6087 H   0  0  0  0  0  0  0  0  0  0  0  0
   -1.9964    7.5624   -1.9258 H   0  0  0  0  0  0  0  0  0  0  0  0
   -2.4581    8.8896   -3.0447 H   0  0  0  0  0  0  0  0  0  0  0  0
   -0.7761    8.2592   -3.0447 H   0  0  0  0  0  0  0  0  0  0  0  0
    3.3184   11.2240    0.1916 H   0  0  0  0  0  0  0  0  0  0  0  0
    2.9762   10.3780   -1.3556 H   0  0  0  0  0  0  0  0  0  0  0  0
    3.9340   11.8976   -1.3556 H   0  0  0  0  0  0  0  0  0  0  0  0
    1.5591   13.0689    0.9373 H   0  0  0  0  0  0  0  0  0  0  0  0
    2.9645   13.7075   -0.0879 H   0  0  0  0  0  0  0  0  0  0  0  0
    0.0406   14.4829   -0.2705 H   0  0  0  0  0  0  0  0  0  0  0  0
    1.4484   15.4970    0.2372 H   0  0  0  0  0  0  0  0  0  0  0  0
    3.3345   15.5246   -1.0251 H   0  0  0  0  0  0  0  0  0  0  0  0
    3.3864   14.6155   -2.5735 H   0  0  0  0  0  0  0  0  0  0  0  0
    2.9901   16.3675   -2.5735 H   0  0  0  0  0  0  0  0  0  0  0  0
  1  2  1  0
  2  3  1  0
  3  4  1  0
  4  5  1  0
  5  6  1  0
  6  7  1  0
  7  8  1  0
  7  9  1  0
  2 10  1  0
 10 11  1  0
 11 12  1  0
 12 13  1  0
 13 14  1  1
 13 15  1  0
 15 16  1  0
 16 17  1  0
 17 18  2  0
 18 19  1  0
 19 20  1  0
 20 21  1  0
 21 22  1  0
 22 23  1  0
 22 24  1  0
 24 25  1  0
 24 26  1  0
 19 27  1  0
 27 28  1  6
 27 29  1  0
 29 30  1  0
 30 31  1  0
 31 32  1  1
  7  5  1  0
 31 10  1  0
 31 13  1  0
 27 15  1  0
 24 18  1  0
  1 33  1  0
  1 34  1  0
  1 35  1  0
  2 36  1  1
  3 37  1  0
  3 38  1  0
  4 39  1  0
  4 40  1  0
  5 41  1  1
  8 42  1  0
  8 43  1  0
  8 44  1  0
  9 45  1  0
  9 46  1  0
  9 47  1  0
 10 48  1  1
 11 49  1  0
 11 50  1  0
 12 51  1  0
 12 52  1  0
 14 53  1  0
 14 54  1  0
 14 55  1  0
 15 56  1  6
 16 57  1  0
 16 58  1  0
 17 59  1  0
 19 60  1  1
 20 61  1  0
 20 62  1  0
 21 63  1  0
 21 64  1  0
 22 65  1  1
 23 66  1  0
 25 67  1  0
 25 68  1  0
 25 69  1  0
 26 70  1  0
 26 71  1  0
 26 72  1  0
 28 73  1  0
 28 74  1  0
 28 75  1  0
 29 76  1  0
 29 77  1  0
 30 78  1  0
 30 79  1  0
 32 80  1  0
 32 81  1  0
 32 82  1  0
M  END
>  <meeko>  (3) 
{"is_sidechain": [false], "intermolecular_energy": 2.731, "internal_energy": -0.839}

$$$$
EPH_relaxed_0001_pdb2pqr_Repair_279_r2_0001_out
     RDKit          3D

 82 86  0  0  0  0  0  0  0  0999 V2000
    0.3860   18.4210   -0.0480 C   0  0  0  0  0  0  0  0  0  0  0  0
    1.4760   17.3680   -0.2620 C   0  0  2  0  0  0  0  0  0  0  0  0
    2.6870   17.9340   -1.0300 C   0  0  0  0  0  0  0  0  0  0  0  0
    3.9100   18.1940   -0.1460 C   0  0  0  0  0  0  0  0  0  0  0  0
    3.5160   18.6630    1.2220 C   0  0  2  0  0  0  0  0  0  0  0  0
    3.7680   20.0510    1.4740 O   0  0  0  0  0  0  0  0  0  0  0  0
    4.5140   19.1170    2.2700 C   0  0  0  0  0  0  0  0  0  0  0  0
    5.9860   19.1220    1.9970 C   0  0  0  0  0  0  0  0  0  0  0  0
    4.1030   19.0880    3.7090 C   0  0  0  0  0  0  0  0  0  0  0  0
    0.9020   16.1690   -1.0070 C   0  0  1  0  0  0  0  0  0  0  0  0
    0.7730   16.4190   -2.5330 C   0  0  0  0  0  0  0  0  0  0  0  0
    1.0620   15.0660   -3.2340 C   0  0  0  0  0  0  0  0  0  0  0  0
    1.0180   14.0200   -2.0950 C   0  0  1  0  0  0  0  0  0  0  0  0
   -0.5000   13.7270   -1.8780 C   0  0  0  0  0  0  0  0  0  0  0  0
    1.8310   12.7060   -2.3330 C   0  0  2  0  0  0  0  0  0  0  0  0
    1.3610   11.8540   -3.5250 C   0  0  0  0  0  0  0  0  0  0  0  0
    0.3280   10.8250   -3.2050 C   0  0  0  0  0  0  0  0  0  0  0  0
    0.0050   10.3980   -1.9700 C   0  0  0  0  0  0  0  0  0  0  0  0
    0.7760   10.8920   -0.7390 C   0  0  1  0  0  0  0  0  0  0  0  0
    1.1310    9.6860    0.1690 C   0  0  0  0  0  0  0  0  0  0  0  0
   -0.0930    8.8550    0.5420 C   0  0  0  0  0  0  0  0  0  0  0  0
   -0.7990    8.3330   -0.7060 C   0  0  2  0  0  0  0  0  0  0  0  0
    0.0570    7.3920   -1.3610 O   0  0  0  0  0  0  0  0  0  0  0  0
   -1.1960    9.4590   -1.7010 C   0  0  0  0  0  0  0  0  0  0  0  0
   -2.3480   10.3020   -1.1000 C   0  0  0  0  0  0  0  0  0  0  0  0
   -1.7710    8.7870   -2.9780 C   0  0  0  0  0  0  0  0  0  0  0  0
    2.0300   11.8230   -1.0350 C   0  0  1  0  0  0  0  0  0  0  0  0
    3.2970   10.9480   -1.2820 C   0  0  0  0  0  0  0  0  0  0  0  0
    2.3350   12.6950    0.2410 C   0  0  0  0  0  0  0  0  0  0  0  0
    1.5900   14.0380    0.3590 C   0  0  0  0  0  0  0  0  0  0  0  0
    1.6990   14.8420   -0.9410 C   0  0  2  0  0  0  0  0  0  0  0  0
    3.2130   15.1700   -1.1740 C   0  0  0  0  0  0  0  0  0  0  0  0
    0.2292   18.5725    1.0302 H   0  0  0  0  0  0  0  0  0  0  0  0
    0.6968   19.3696   -0.5102 H   0  0  0  0  0  0  0  0  0  0  0  0
   -0.5513   18.0777   -0.5102 H   0  0  0  0  0  0  0  0  0  0  0  0
    1.8313   17.0537    0.7305 H   0  0  0  0  0  0  0  0  0  0  0  0
    2.9702   17.2135   -1.8114 H   0  0  0  0  0  0  0  0  0  0  0  0
    2.3788   18.9046   -1.4457 H   0  0  0  0  0  0  0  0  0  0  0  0
    4.4858   17.2616   -0.0510 H   0  0  0  0  0  0  0  0  0  0  0  0
    4.5129   18.9834   -0.6186 H   0  0  0  0  0  0  0  0  0  0  0  0
    2.6869   17.9410    1.2567 H   0  0  0  0  0  0  0  0  0  0  0  0
    6.5356   19.1239    2.9498 H   0  0  0  0  0  0  0  0  0  0  0  0
    6.2550   18.2248    1.4203 H   0  0  0  0  0  0  0  0  0  0  0  0
    6.2489   20.0210    1.4203 H   0  0  0  0  0  0  0  0  0  0  0  0
    4.9969   19.1511    4.3470 H   0  0  0  0  0  0  0  0  0  0  0  0
    3.4418   19.9417    3.9188 H   0  0  0  0  0  0  0  0  0  0  0  0
    3.5683   18.1499    3.9188 H   0  0  0  0  0  0  0  0  0  0  0  0
   -0.0534   16.0609   -0.4726 H   0  0  0  0  0  0  0  0  0  0  0  0
   -0.2435   16.7621   -2.7761 H   0  0  0  0  0  0  0  0  0  0  0  0
    1.4772   17.1953   -2.8670 H   0  0  0  0  0  0  0  0  0  0  0  0
    0.2939   14.8487   -3.9908 H   0  0  0  0  0  0  0  0  0  0  0  0
    2.0267   15.0674   -3.7625 H   0  0  0  0  0  0  0  0  0  0  0  0
   -0.7150   13.6855   -0.8000 H   0  0  0  0  0  0  0  0  0  0  0  0
   -1.0975   14.5264   -2.3405 H   0  0  0  0  0  0  0  0  0  0  0  0
   -0.7571   12.7627   -2.3405 H   0  0  0  0  0  0  0  0  0  0  0  0
    2.8228   13.0904   -2.6134 H   0  0  0  0  0  0  0  0  0  0  0  0
    0.9420   12.5319   -4.2832 H   0  0  0  0  0  0  0  0  0  0  0  0
    2.2460   11.2997   -3.8707 H   0  0  0  0  0  0  0  0  0  0  0  0
   -0.2155   10.3777   -4.0503 H   0  0  0  0  0  0  0  0  0  0  0  0
    0.0947   11.5716   -0.2061 H   0  0  0  0  0  0  0  0  0  0  0  0
    1.8458    9.0417   -0.3638 H   0  0  0  0  0  0  0  0  0  0  0  0
    1.5611   10.0839    1.1000 H   0  0  0  0  0  0  0  0  0  0  0  0
    0.2256    8.0017    1.1588 H   0  0  0  0  0  0  0  0  0  0  0  0
   -0.7936    9.4932    1.1005 H   0  0  0  0  0  0  0  0  0  0  0  0
   -1.7358    7.8574   -0.3802 H   0  0  0  0  0  0  0  0  0  0  0  0
    0.6590    7.8930   -1.9370 H   0  0  0  0  0  0  0  0  0  0  0  0
   -2.2960   10.2639   -0.0019 H   0  0  0  0  0  0  0  0  0  0  0  0
   -2.2527   11.3452   -1.4356 H   0  0  0  0  0  0  0  0  0  0  0  0
   -3.3135    9.8956   -1.4356 H   0  0  0  0  0  0  0  0  0  0  0  0
   -2.4610    7.9806   -2.6889 H   0  0  0  0  0  0  0  0  0  0  0  0
   -2.3120    9.5362   -3.5747 H   0  0  0  0  0  0  0  0  0  0  0  0
   -0.9472    8.3684   -3.5747 H   0  0  0  0  0  0  0  0  0  0  0  0
    3.7301   10.6489   -0.3161 H   0  0  0  0  0  0  0  0  0  0  0  0
    3.0169   10.0499   -1.8521 H   0  0  0  0  0  0  0  0  0  0  0  0
    4.0377   11.5280   -1.8521 H   0  0  0  0  0  0  0  0  0  0  0  0
    2.0775   12.0929    1.1248 H   0  0  0  0  0  0  0  0  0  0  0  0
    3.3989   12.9624    0.1592 H   0  0  0  0  0  0  0  0  0  0  0  0
    0.5289   13.8432    0.5737 H   0  0  0  0  0  0  0  0  0  0  0  0
    2.0465   14.6220    1.1718 H   0  0  0  0  0  0  0  0  0  0  0  0
    3.7181   15.2794   -0.2030 H   0  0  0  0  0  0  0  0  0  0  0  0
    3.6822   14.3527   -1.7413 H   0  0  0  0  0  0  0  0  0  0  0  0
    3.3018   16.1082   -1.7413 H   0  0  0  0  0  0  0  0  0  0  0  0
  1  2  1  0
  2  3  1  0
  3  4  1  0
  4  5  1  0
  5  6  1  0
  6  7  1  0
  7  8  1  0
  7  9  1  0
  2 10  1  0
 10 11  1  0
 11 12  1  0
 12 13  1  0
 13 14  1  1
 13 15  1  0
 15 16  1  0
 16 17  1  0
 17 18  2  0
 18 19  1  0
 19 20  1  0
 20 21  1  0
 21 22  1  0
 22 23  1  0
 22 24  1  0
 24 25  1  0
 24 26  1  0
 19 27  1  0
 27 28  1  6
 27 29  1  0
 29 30  1  0
 30 31  1  0
 31 32  1  6
  7  5  1  0
 31 10  1  0
 31 13  1  0
 27 15  1  0
 24 18  1  0
  1 33  1  0
  1 34  1  0
  1 35  1  0
  2 36  1  1
  3 37  1  0
  3 38  1  0
  4 39  1  0
  4 40  1  0
  5 41  1  1
  8 42  1  0
  8 43  1  0
  8 44  1  0
  9 45  1  0
  9 46  1  0
  9 47  1  0
 10 48  1  1
 11 49  1  0
 11 50  1  0
 12 51  1  0
 12 52  1  0
 14 53  1  0
 14 54  1  0
 14 55  1  0
 15 56  1  6
 16 57  1  0
 16 58  1  0
 17 59  1  0
 19 60  1  1
 20 61  1  0
 20 62  1  0
 21 63  1  0
 21 64  1  0
 22 65  1  1
 23 66  1  0
 25 67  1  0
 25 68  1  0
 25 69  1  0
 26 70  1  0
 26 71  1  0
 26 72  1  0
 28 73  1  0
 28 74  1  0
 28 75  1  0
 29 76  1  0
 29 77  1  0
 30 78  1  0
 30 79  1  0
 32 80  1  0
 32 81  1  0
 32 82  1  0
M  END
>  <meeko>  (4) 
{"is_sidechain": [false], "intermolecular_energy": 2.731, "internal_energy": -0.839}

$$$$
EPH_relaxed_0001_pdb2pqr_Repair_279_r2_0001_out
     RDKit          3D

 82 86  0  0  0  0  0  0  0  0999 V2000
    2.2200   17.9920   -2.6410 C   0  0  0  0  0  0  0  0  0  0  0  0
    0.6960   17.8470   -2.6710 C   0  0  2  0  0  0  0  0  0  0  0  0
    0.0420   18.3190   -1.3570 C   0  0  0  0  0  0  0  0  0  0  0  0
    0.8160   17.9100   -0.1020 C   0  0  0  0  0  0  0  0  0  0  0  0
    1.3340   19.1020    0.6440 C   0  0  2  0  0  0  0  0  0  0  0  0
    2.2500   19.9200   -0.0960 O   0  0  0  0  0  0  0  0  0  0  0  0
    2.7830   19.2620    1.0640 C   0  0  0  0  0  0  0  0  0  0  0  0
    3.8060   18.2140    0.7540 C   0  0  0  0  0  0  0  0  0  0  0  0
    3.1030   20.1930    2.1920 C   0  0  0  0  0  0  0  0  0  0  0  0
    0.3180   16.3960   -2.9480 C   0  0  1  0  0  0  0  0  0  0  0  0
    0.3760   16.0420   -4.4580 C   0  0  0  0  0  0  0  0  0  0  0  0
    0.8570   14.5720   -4.5550 C   0  0  0  0  0  0  0  0  0  0  0  0
    0.7410   14.0280   -3.1120 C   0  0  1  0  0  0  0  0  0  0  0  0
   -0.7660   13.6560   -2.9430 C   0  0  0  0  0  0  0  0  0  0  0  0
    1.6750   12.8280   -2.7480 C   0  0  2  0  0  0  0  0  0  0  0  0
    1.4340   11.5440   -3.5600 C   0  0  0  0  0  0  0  0  0  0  0  0
    0.4490   10.5910   -2.9690 C   0  0  0  0  0  0  0  0  0  0  0  0
   -0.0030   10.6190   -1.7010 C   0  0  0  0  0  0  0  0  0  0  0  0
    0.5570   11.6260   -0.6880 C   0  0  1  0  0  0  0  0  0  0  0  0
    0.8780   10.8960    0.6430 C   0  0  0  0  0  0  0  0  0  0  0  0
   -0.3180   10.1230    1.1890 C   0  0  0  0  0  0  0  0  0  0  0  0
   -0.8100    9.0930    0.1760 C   0  0  2  0  0  0  0  0  0  0  0  0
    0.1950    8.0860    0.0180 O   0  0  0  0  0  0  0  0  0  0  0  0
   -1.1550    9.7100   -1.2080 C   0  0  0  0  0  0  0  0  0  0  0  0
   -2.4370   10.5710   -1.0890 C   0  0  0  0  0  0  0  0  0  0  0  0
   -1.5020    8.5470   -2.1760 C   0  0  0  0  0  0  0  0  0  0  0  0
    1.7660   12.5240   -1.1980 C   0  0  1  0  0  0  0  0  0  0  0  0
    3.1160   11.7790   -0.9690 C   0  0  0  0  0  0  0  0  0  0  0  0
    1.8310   13.8380   -0.3330 C   0  0  0  0  0  0  0  0  0  0  0  0
    0.9770   15.0270   -0.8110 C   0  0  0  0  0  0  0  0  0  0  0  0
    1.1970   15.2960   -2.3030 C   0  0  2  0  0  0  0  0  0  0  0  0
    2.7000   15.6940   -2.5000 C   0  0  0  0  0  0  0  0  0  0  0  0
    2.5647   18.0248   -1.5969 H   0  0  0  0  0  0  0  0  0  0  0  0
    2.6801   17.1336   -3.1523 H   0  0  0  0  0  0  0  0  0  0  0  0
    2.5100   18.9218   -3.1523 H   0  0  0  0  0  0  0  0  0  0  0  0
    0.3179   18.4913   -3.4784 H   0  0  0  0  0  0  0  0  0  0  0  0
   -0.0285   19.4165   -1.3791 H   0  0  0  0  0  0  0  0  0  0  0  0
   -0.9443   17.8357   -1.2976 H   0  0  0  0  0  0  0  0  0  0  0  0
    0.1471   17.3391    0.5589 H   0  0  0  0  0  0  0  0  0  0  0  0
    1.6770   17.3006   -0.4140 H   0  0  0  0  0  0  0  0  0  0  0  0
    0.3900   19.1923    1.2014 H   0  0  0  0  0  0  0  0  0  0  0  0
    4.2066   17.8036    1.6927 H   0  0  0  0  0  0  0  0  0  0  0  0
    3.3389   17.4068    0.1708 H   0  0  0  0  0  0  0  0  0  0  0  0
    4.6243   18.6615    0.1708 H   0  0  0  0  0  0  0  0  0  0  0  0
    2.9274   19.6821    3.1502 H   0  0  0  0  0  0  0  0  0  0  0  0
    4.1577   20.4985    2.1273 H   0  0  0  0  0  0  0  0  0  0  0  0
    2.4590   21.0824    2.1273 H   0  0  0  0  0  0  0  0  0  0  0  0
   -0.6889   16.3803   -2.5055 H   0  0  0  0  0  0  0  0  0  0  0  0
   -0.6218   16.1446   -4.9096 H   0  0  0  0  0  0  0  0  0  0  0  0
    1.0582   16.7169   -4.9957 H   0  0  0  0  0  0  0  0  0  0  0  0
    0.2152   13.9977   -5.2393 H   0  0  0  0  0  0  0  0  0  0  0  0
    1.8807   14.4931   -4.9497 H   0  0  0  0  0  0  0  0  0  0  0  0
   -1.0109   13.5955   -1.8723 H   0  0  0  0  0  0  0  0  0  0  0  0
   -1.3896   14.4272   -3.4188 H   0  0  0  0  0  0  0  0  0  0  0  0
   -0.9591   12.6832   -3.4188 H   0  0  0  0  0  0  0  0  0  0  0  0
    2.6638   13.1963   -3.0589 H   0  0  0  0  0  0  0  0  0  0  0  0
    1.0695   11.8353   -4.5561 H   0  0  0  0  0  0  0  0  0  0  0  0
    2.3967   11.0123   -3.5811 H   0  0  0  0  0  0  0  0  0  0  0  0
    0.0593    9.7986   -3.6249 H   0  0  0  0  0  0  0  0  0  0  0  0
   -0.2383   12.3683   -0.5253 H   0  0  0  0  0  0  0  0  0  0  0  0
    1.7037   10.1906    0.4681 H   0  0  0  0  0  0  0  0  0  0  0  0
    1.1492   11.6603    1.3862 H   0  0  0  0  0  0  0  0  0  0  0  0
   -0.0208    9.6056    2.1131 H   0  0  0  0  0  0  0  0  0  0  0  0
   -1.1329   10.8337    1.3912 H   0  0  0  0  0  0  0  0  0  0  0  0
   -1.7439    8.6642    0.5684 H   0  0  0  0  0  0  0  0  0  0  0  0
    0.2150    7.5590    0.8340 H   0  0  0  0  0  0  0  0  0  0  0  0
   -2.6743   10.7304   -0.0268 H   0  0  0  0  0  0  0  0  0  0  0  0
   -2.2728   11.5426   -1.5778 H   0  0  0  0  0  0  0  0  0  0  0  0
   -3.2743   10.0514   -1.5778 H   0  0  0  0  0  0  0  0  0  0  0  0
   -1.7688    7.6526   -1.5938 H   0  0  0  0  0  0  0  0  0  0  0  0
   -2.3522    8.8389   -2.8100 H   0  0  0  0  0  0  0  0  0  0  0  0
   -0.6309    8.3254   -2.8100 H   0  0  0  0  0  0  0  0  0  0  0  0
    3.3002   11.6774    0.1107 H   0  0  0  0  0  0  0  0  0  0  0  0
    3.0663   10.7806   -1.4281 H   0  0  0  0  0  0  0  0  0  0  0  0
    3.9342   12.3533   -1.4281 H   0  0  0  0  0  0  0  0  0  0  0  0
    1.5046   13.5822    0.6858 H   0  0  0  0  0  0  0  0  0  0  0  0
    2.8728   14.1824   -0.4106 H   0  0  0  0  0  0  0  0  0  0  0  0
   -0.0853   14.7989   -0.6394 H   0  0  0  0  0  0  0  0  0  0  0  0
    1.2750   15.9223   -0.2457 H   0  0  0  0  0  0  0  0  0  0  0  0
    3.1777   15.8205   -1.5172 H   0  0  0  0  0  0  0  0  0  0  0  0
    3.2185   14.9022   -3.0605 H   0  0  0  0  0  0  0  0  0  0  0  0
    2.7587   16.6387   -3.0605 H   0  0  0  0  0  0  0  0  0  0  0  0
  1  2  1  0
  2  3  1  0
  3  4  1  0
  4  5  1  0
  5  6  1  0
  6  7  1  0
  7  8  1  0
  7  9  1  0
  2 10  1  0
 10 11  1  0
 11 12  1  0
 12 13  1  0
 13 14  1  1
 13 15  1  0
 15 16  1  0
 16 17  1  0
 17 18  2  0
 18 19  1  0
 19 20  1  0
 20 21  1  0
 21 22  1  0
 22 23  1  0
 22 24  1  0
 24 25  1  0
 24 26  1  0
 19 27  1  0
 27 28  1  6
 27 29  1  0
 29 30  1  0
 30 31  1  0
 31 32  1  1
  7  5  1  0
 31 10  1  0
 31 13  1  0
 27 15  1  0
 24 18  1  0
  1 33  1  0
  1 34  1  0
  1 35  1  0
  2 36  1  6
  3 37  1  0
  3 38  1  0
  4 39  1  0
  4 40  1  0
  5 41  1  1
  8 42  1  0
  8 43  1  0
  8 44  1  0
  9 45  1  0
  9 46  1  0
  9 47  1  0
 10 48  1  1
 11 49  1  0
 11 50  1  0
 12 51  1  0
 12 52  1  0
 14 53  1  0
 14 54  1  0
 14 55  1  0
 15 56  1  6
 16 57  1  0
 16 58  1  0
 17 59  1  0
 19 60  1  1
 20 61  1  0
 20 62  1  0
 21 63  1  0
 21 64  1  0
 22 65  1  1
 23 66  1  0
 25 67  1  0
 25 68  1  0
 25 69  1  0
 26 70  1  0
 26 71  1  0
 26 72  1  0
 28 73  1  0
 28 74  1  0
 28 75  1  0
 29 76  1  0
 29 77  1  0
 30 78  1  0
 30 79  1  0
 32 80  1  0
 32 81  1  0
 32 82  1  0
M  END
>  <meeko>  (5) 
{"is_sidechain": [false], "intermolecular_energy": 2.731, "internal_energy": -0.839}

$$$$
EPH_relaxed_0001_pdb2pqr_Repair_279_r2_0001_out
     RDKit          3D

 82 86  0  0  0  0  0  0  0  0999 V2000
    3.8760   17.4590    0.3860 C   0  0  0  0  0  0  0  0  0  0  0  0
    2.8260   17.7810   -0.6810 C   0  0  2  0  0  0  0  0  0  0  0  0
    2.1950   19.1720   -0.4730 C   0  0  0  0  0  0  0  0  0  0  0  0
    1.2520   19.2470    0.7310 C   0  0  0  0  0  0  0  0  0  0  0  0
   -0.0070   19.9920    0.4030 C   0  0  2  0  0  0  0  0  0  0  0  0
   -0.8900   20.1930    1.5150 O   0  0  0  0  0  0  0  0  0  0  0  0
   -1.3880   19.3630    0.4530 C   0  0  0  0  0  0  0  0  0  0  0  0
   -1.5790   17.9300    0.8390 C   0  0  0  0  0  0  0  0  0  0  0  0
   -2.4900   19.9950   -0.3390 C   0  0  0  0  0  0  0  0  0  0  0  0
    1.7400   16.7110   -0.6810 C   0  0  1  0  0  0  0  0  0  0  0  0
    0.3900   17.2300   -1.2460 C   0  0  0  0  0  0  0  0  0  0  0  0
   -0.2630   16.0450   -2.0010 C   0  0  0  0  0  0  0  0  0  0  0  0
    0.5580   14.8070   -1.5700 C   0  0  1  0  0  0  0  0  0  0  0  0
   -0.0230   14.4050   -0.1780 C   0  0  0  0  0  0  0  0  0  0  0  0
    0.5620   13.6000   -2.5640 C   0  0  2  0  0  0  0  0  0  0  0  0
   -0.8130   12.9590   -2.8180 C   0  0  0  0  0  0  0  0  0  0  0  0
   -1.1740   11.8380   -1.9000 C   0  0  0  0  0  0  0  0  0  0  0  0
   -0.3170   11.1770   -1.0990 C   0  0  0  0  0  0  0  0  0  0  0  0
    1.1870   11.4760   -1.1370 C   0  0  1  0  0  0  0  0  0  0  0  0
    1.9780   10.1420   -1.1830 C   0  0  0  0  0  0  0  0  0  0  0  0
    1.5990    9.1980   -0.0470 C   0  0  0  0  0  0  0  0  0  0  0  0
    0.1070    8.8790   -0.0770 C   0  0  2  0  0  0  0  0  0  0  0  0
   -0.1780    8.1170   -1.2550 O   0  0  0  0  0  0  0  0  0  0  0  0
   -0.7910   10.1470   -0.0450 C   0  0  0  0  0  0  0  0  0  0  0  0
   -0.7090   10.8080    1.3530 C   0  0  0  0  0  0  0  0  0  0  0  0
   -2.2650    9.6920   -0.2230 C   0  0  0  0  0  0  0  0  0  0  0  0
    1.6610   12.5060   -2.2510 C   0  0  1  0  0  0  0  0  0  0  0  0
    1.9360   11.7540   -3.5890 C   0  0  0  0  0  0  0  0  0  0  0  0
    3.0320   13.1430   -1.8100 C   0  0  0  0  0  0  0  0  0  0  0  0
    2.9600   14.4040   -0.9270 C   0  0  0  0  0  0  0  0  0  0  0  0
    1.9980   15.4360   -1.5220 C   0  0  2  0  0  0  0  0  0  0  0  0
    2.5680   15.8760   -2.9130 C   0  0  0  0  0  0  0  0  0  0  0  0
    3.4365   17.5938    1.3853 H   0  0  0  0  0  0  0  0  0  0  0  0
    4.2096   16.4173    0.2696 H   0  0  0  0  0  0  0  0  0  0  0  0
    4.7362   18.1346    0.2696 H   0  0  0  0  0  0  0  0  0  0  0  0
    3.3366   17.7925   -1.6552 H   0  0  0  0  0  0  0  0  0  0  0  0
    3.0046   19.9020   -0.3259 H   0  0  0  0  0  0  0  0  0  0  0  0
    1.5920   19.3881   -1.3672 H   0  0  0  0  0  0  0  0  0  0  0  0
    0.9906   18.2252    1.0434 H   0  0  0  0  0  0  0  0  0  0  0  0
    1.7690   19.7858    1.5388 H   0  0  0  0  0  0  0  0  0  0  0  0
    0.5110   20.5746   -0.3731 H   0  0  0  0  0  0  0  0  0  0  0  0
   -1.5905   17.8440    1.9356 H   0  0  0  0  0  0  0  0  0  0  0  0
   -2.5337   17.5649    0.4326 H   0  0  0  0  0  0  0  0  0  0  0  0
   -0.7532   17.3276    0.4326 H   0  0  0  0  0  0  0  0  0  0  0  0
   -3.2359   20.4228    0.3471 H   0  0  0  0  0  0  0  0  0  0  0  0
   -2.0751   20.7924   -0.9730 H   0  0  0  0  0  0  0  0  0  0  0  0
   -2.9688   19.2342   -0.9730 H   0  0  0  0  0  0  0  0  0  0  0  0
    1.7288   16.4595    0.3898 H   0  0  0  0  0  0  0  0  0  0  0  0
   -0.2622   17.5614   -0.4245 H   0  0  0  0  0  0  0  0  0  0  0  0
    0.5459   18.0880   -1.9165 H   0  0  0  0  0  0  0  0  0  0  0  0
   -1.3175   15.9324   -1.7089 H   0  0  0  0  0  0  0  0  0  0  0  0
   -0.2562   16.1908   -3.0913 H   0  0  0  0  0  0  0  0  0  0  0  0
    0.6010   14.8368    0.6183 H   0  0  0  0  0  0  0  0  0  0  0  0
   -1.0508   14.7861   -0.0857 H   0  0  0  0  0  0  0  0  0  0  0  0
   -0.0287   13.3089   -0.0857 H   0  0  0  0  0  0  0  0  0  0  0  0
    0.8484   14.0774   -3.5127 H   0  0  0  0  0  0  0  0  0  0  0  0
   -1.5777   13.7429   -2.7142 H   0  0  0  0  0  0  0  0  0  0  0  0
   -0.7633   12.5223   -3.8264 H   0  0  0  0  0  0  0  0  0  0  0  0
   -2.2286   11.5260   -1.8761 H   0  0  0  0  0  0  0  0  0  0  0  0
    1.4149   12.0133   -0.2046 H   0  0  0  0  0  0  0  0  0  0  0  0
    1.7710    9.6422   -2.1408 H   0  0  0  0  0  0  0  0  0  0  0  0
    3.0458   10.3831   -1.0746 H   0  0  0  0  0  0  0  0  0  0  0  0
    2.1691    8.2630   -0.1507 H   0  0  0  0  0  0  0  0  0  0  0  0
    1.8339    9.6880    0.9094 H   0  0  0  0  0  0  0  0  0  0  0  0
   -0.1264    8.3063    0.8327 H   0  0  0  0  0  0  0  0  0  0  0  0
   -0.3900    7.2110   -0.9750 H   0  0  0  0  0  0  0  0  0  0  0  0
   -0.8048   10.0354    2.1301 H   0  0  0  0  0  0  0  0  0  0  0  0
    0.2594   11.3185    1.4610 H   0  0  0  0  0  0  0  0  0  0  0  0
   -1.5233   11.5397    1.4610 H   0  0  0  0  0  0  0  0  0  0  0  0
   -2.7266    9.5495    0.7652 H   0  0  0  0  0  0  0  0  0  0  0  0
   -2.8212   10.4603   -0.7802 H   0  0  0  0  0  0  0  0  0  0  0  0
   -2.2913    8.7439   -0.7802 H   0  0  0  0  0  0  0  0  0  0  0  0
    2.3063   10.7414   -3.3711 H   0  0  0  0  0  0  0  0  0  0  0  0
    1.0043   11.6866   -4.1699 H   0  0  0  0  0  0  0  0  0  0  0  0
    2.6914   12.3035   -4.1699 H   0  0  0  0  0  0  0  0  0  0  0  0
    3.5905   12.3772   -1.2517 H   0  0  0  0  0  0  0  0  0  0  0  0
    3.5101   13.4726   -2.7442 H   0  0  0  0  0  0  0  0  0  0  0  0
    2.6086   14.1211    0.0762 H   0  0  0  0  0  0  0  0  0  0  0  0
    3.9635   14.8511   -0.8719 H   0  0  0  0  0  0  0  0  0  0  0  0
    3.4305   16.5418   -2.7619 H   0  0  0  0  0  0  0  0  0  0  0  0
    2.8857   14.9866   -3.4770 H   0  0  0  0  0  0  0  0  0  0  0  0
    1.7881   16.4086   -3.4770 H   0  0  0  0  0  0  0  0  0  0  0  0
  1  2  1  0
  2  3  1  0
  3  4  1  0
  4  5  1  0
  5  6  1  0
  6  7  1  0
  7  8  1  0
  7  9  1  0
  2 10  1  0
 10 11  1  0
 11 12  1  0
 12 13  1  0
 13 14  1  1
 13 15  1  0
 15 16  1  0
 16 17  1  0
 17 18  2  0
 18 19  1  0
 19 20  1  0
 20 21  1  0
 21 22  1  0
 22 23  1  0
 22 24  1  0
 24 25  1  0
 24 26  1  0
 19 27  1  0
 27 28  1  6
 27 29  1  0
 29 30  1  0
 30 31  1  0
 31 32  1  6
  7  5  1  0
 31 10  1  0
 31 13  1  0
 27 15  1  0
 24 18  1  0
  1 33  1  0
  1 34  1  0
  1 35  1  0
  2 36  1  6
  3 37  1  0
  3 38  1  0
  4 39  1  0
  4 40  1  0
  5 41  1  6
  8 42  1  0
  8 43  1  0
  8 44  1  0
  9 45  1  0
  9 46  1  0
  9 47  1  0
 10 48  1  1
 11 49  1  0
 11 50  1  0
 12 51  1  0
 12 52  1  0
 14 53  1  0
 14 54  1  0
 14 55  1  0
 15 56  1  6
 16 57  1  0
 16 58  1  0
 17 59  1  0
 19 60  1  1
 20 61  1  0
 20 62  1  0
 21 63  1  0
 21 64  1  0
 22 65  1  1
 23 66  1  0
 25 67  1  0
 25 68  1  0
 25 69  1  0
 26 70  1  0
 26 71  1  0
 26 72  1  0
 28 73  1  0
 28 74  1  0
 28 75  1  0
 29 76  1  0
 29 77  1  0
 30 78  1  0
 30 79  1  0
 32 80  1  0
 32 81  1  0
 32 82  1  0
M  END
>  <meeko>  (6) 
{"is_sidechain": [false], "intermolecular_energy": 2.731, "internal_energy": -0.839}

$$$$
EPH_relaxed_0001_pdb2pqr_Repair_279_r2_0001_out
     RDKit          3D

 82 86  0  0  0  0  0  0  0  0999 V2000
   -5.1580    5.8730   -1.6230 C   0  0  0  0  0  0  0  0  0  0  0  0
   -5.4350    7.3740   -1.7410 C   0  0  2  0  0  0  0  0  0  0  0  0
   -5.2050    8.1140   -0.4080 C   0  0  0  0  0  0  0  0  0  0  0  0
   -4.1410    9.2120   -0.4890 C   0  0  0  0  0  0  0  0  0  0  0  0
   -2.7840    8.6490   -0.7870 C   0  0  2  0  0  0  0  0  0  0  0  0
   -1.7790    8.9640    0.1860 O   0  0  0  0  0  0  0  0  0  0  0  0
   -1.5800    9.5060   -1.1300 C   0  0  0  0  0  0  0  0  0  0  0  0
   -1.6760   10.9980   -1.1940 C   0  0  0  0  0  0  0  0  0  0  0  0
   -0.4440    8.8770   -1.8750 C   0  0  0  0  0  0  0  0  0  0  0  0
   -6.8620    7.6030   -2.2250 C   0  0  1  0  0  0  0  0  0  0  0  0
   -7.1520    6.9060   -3.5810 C   0  0  0  0  0  0  0  0  0  0  0  0
   -8.6290    6.4360   -3.5350 C   0  0  0  0  0  0  0  0  0  0  0  0
   -9.2310    7.1610   -2.3080 C   0  0  1  0  0  0  0  0  0  0  0  0
   -9.5720    8.5960   -2.8180 C   0  0  0  0  0  0  0  0  0  0  0  0
  -10.4680    6.4770   -1.6400 C   0  0  2  0  0  0  0  0  0  0  0  0
  -11.7100    6.3520   -2.5390 C   0  0  0  0  0  0  0  0  0  0  0  0
  -12.6630    7.5000   -2.4730 C   0  0  0  0  0  0  0  0  0  0  0  0
  -12.6770    8.4500   -1.5200 C   0  0  0  0  0  0  0  0  0  0  0  0
  -11.7290    8.3730   -0.3160 C   0  0  1  0  0  0  0  0  0  0  0  0
  -12.5220    8.6560    0.9870 C   0  0  0  0  0  0  0  0  0  0  0  0
  -13.2880    9.9740    0.9310 C   0  0  0  0  0  0  0  0  0  0  0  0
  -14.2620    9.9900   -0.2440 C   0  0  2  0  0  0  0  0  0  0  0  0
  -15.2850    9.0170   -0.0080 O   0  0  0  0  0  0  0  0  0  0  0  0
  -13.5780    9.7070   -1.6110 C   0  0  0  0  0  0  0  0  0  0  0  0
  -12.6910   10.9130   -2.0090 C   0  0  0  0  0  0  0  0  0  0  0  0
  -14.6900    9.6100   -2.6900 C   0  0  0  0  0  0  0  0  0  0  0  0
  -10.8400    7.0590   -0.2160 C   0  0  1  0  0  0  0  0  0  0  0  0
  -11.6280    5.9400    0.5310 C   0  0  0  0  0  0  0  0  0  0  0  0
   -9.5670    7.3650    0.6570 C   0  0  0  0  0  0  0  0  0  0  0  0
   -8.3370    7.9280   -0.0810 C   0  0  0  0  0  0  0  0  0  0  0  0
   -8.0100    7.0890   -1.3200 C   0  0  2  0  0  0  0  0  0  0  0  0
   -7.6410    5.6450   -0.8370 C   0  0  0  0  0  0  0  0  0  0  0  0
   -5.1062    5.5921   -0.5607 H   0  0  0  0  0  0  0  0  0  0  0  0
   -5.9676    5.3112   -2.1117 H   0  0  0  0  0  0  0  0  0  0  0  0
   -4.2012    5.6372   -2.1117 H   0  0  0  0  0  0  0  0  0  0  0  0
   -4.7240    7.7848   -2.4729 H   0  0  0  0  0  0  0  0  0  0  0  0
   -6.1550    8.5733   -0.0974 H   0  0  0  0  0  0  0  0  0  0  0  0
   -4.8430    7.3684    0.3152 H   0  0  0  0  0  0  0  0  0  0  0  0
   -4.4171    9.9176   -1.2864 H   0  0  0  0  0  0  0  0  0  0  0  0
   -4.0954    9.7176    0.4868 H   0  0  0  0  0  0  0  0  0  0  0  0
   -3.2295    7.7720   -1.2793 H   0  0  0  0  0  0  0  0  0  0  0  0
   -1.7024   11.4078   -0.1735 H   0  0  0  0  0  0  0  0  0  0  0  0
   -0.8018   11.3991   -1.7278 H   0  0  0  0  0  0  0  0  0  0  0  0
   -2.5944   11.2838   -1.7278 H   0  0  0  0  0  0  0  0  0  0  0  0
    0.2857    8.4729   -1.1579 H   0  0  0  0  0  0  0  0  0  0  0  0
   -0.8266    8.0622   -2.5072 H   0  0  0  0  0  0  0  0  0  0  0  0
    0.0435    9.6337   -2.5072 H   0  0  0  0  0  0  0  0  0  0  0  0
   -6.8721    8.7025   -2.2579 H   0  0  0  0  0  0  0  0  0  0  0  0
   -7.0054    7.6141   -4.4099 H   0  0  0  0  0  0  0  0  0  0  0  0
   -6.4719    6.0566   -3.7421 H   0  0  0  0  0  0  0  0  0  0  0  0
   -9.1576    6.7257   -4.4552 H   0  0  0  0  0  0  0  0  0  0  0  0
   -8.7166    5.3422   -3.4578 H   0  0  0  0  0  0  0  0  0  0  0  0
   -9.7305    9.2629   -1.9577 H   0  0  0  0  0  0  0  0  0  0  0  0
   -8.7391    8.9759   -3.4279 H   0  0  0  0  0  0  0  0  0  0  0  0
  -10.4868    8.5606   -3.4279 H   0  0  0  0  0  0  0  0  0  0  0  0
  -10.1112    5.4487   -1.4810 H   0  0  0  0  0  0  0  0  0  0  0  0
  -11.3678    6.2536   -3.5798 H   0  0  0  0  0  0  0  0  0  0  0  0
  -12.2639    5.4750   -2.1728 H   0  0  0  0  0  0  0  0  0  0  0  0
  -13.4169    7.5753   -3.2705 H   0  0  0  0  0  0  0  0  0  0  0  0
  -10.9753    9.1588   -0.4723 H   0  0  0  0  0  0  0  0  0  0  0  0
  -13.2394    7.8378    1.1479 H   0  0  0  0  0  0  0  0  0  0  0  0
  -11.7965    8.7262    1.8108 H   0  0  0  0  0  0  0  0  0  0  0  0
  -13.8512   10.1030    1.8671 H   0  0  0  0  0  0  0  0  0  0  0  0
  -12.5665   10.7938    0.7998 H   0  0  0  0  0  0  0  0  0  0  0  0
  -14.6844   11.0036   -0.3083 H   0  0  0  0  0  0  0  0  0  0  0  0
  -15.0110    8.4820    0.7560 H   0  0  0  0  0  0  0  0  0  0  0  0
  -12.3232   11.4131   -1.1009 H   0  0  0  0  0  0  0  0  0  0  0  0
  -11.8365   10.5590   -2.6043 H   0  0  0  0  0  0  0  0  0  0  0  0
  -13.2835   11.6233   -2.6043 H   0  0  0  0  0  0  0  0  0  0  0  0
  -15.6707    9.5245   -2.1992 H   0  0  0  0  0  0  0  0  0  0  0  0
  -14.6716   10.5132   -3.3177 H   0  0  0  0  0  0  0  0  0  0  0  0
  -14.5156    8.7237   -3.3177 H   0  0  0  0  0  0  0  0  0  0  0  0
  -11.5272    6.0831    1.6170 H   0  0  0  0  0  0  0  0  0  0  0  0
  -12.6907    5.9909    0.2515 H   0  0  0  0  0  0  0  0  0  0  0  0
  -11.2220    4.9566    0.2515 H   0  0  0  0  0  0  0  0  0  0  0  0
   -9.8582    8.0969    1.4248 H   0  0  0  0  0  0  0  0  0  0  0  0
   -9.2454    6.3888    1.0489 H   0  0  0  0  0  0  0  0  0  0  0  0
   -8.5459    8.9623   -0.3916 H   0  0  0  0  0  0  0  0  0  0  0  0
   -7.4744    7.8977    0.6009 H   0  0  0  0  0  0  0  0  0  0  0  0
   -7.6338    5.6168    0.2626 H   0  0  0  0  0  0  0  0  0  0  0  0
   -8.3852    4.9298   -1.2172 H   0  0  0  0  0  0  0  0  0  0  0  0
   -6.6449    5.3745   -1.2172 H   0  0  0  0  0  0  0  0  0  0  0  0
  1  2  1  0
  2  3  1  0
  3  4  1  0
  4  5  1  0
  5  6  1  0
  6  7  1  0
  7  8  1  0
  7  9  1  0
  2 10  1  0
 10 11  1  0
 11 12  1  0
 12 13  1  0
 13 14  1  6
 13 15  1  0
 15 16  1  0
 16 17  1  0
 17 18  2  0
 18 19  1  0
 19 20  1  0
 20 21  1  0
 21 22  1  0
 22 23  1  0
 22 24  1  0
 24 25  1  0
 24 26  1  0
 19 27  1  0
 27 28  1  1
 27 29  1  0
 29 30  1  0
 30 31  1  0
 31 32  1  1
  7  5  1  0
 31 10  1  0
 31 13  1  0
 27 15  1  0
 24 18  1  0
  1 33  1  0
  1 34  1  0
  1 35  1  0
  2 36  1  6
  3 37  1  0
  3 38  1  0
  4 39  1  0
  4 40  1  0
  5 41  1  6
  8 42  1  0
  8 43  1  0
  8 44  1  0
  9 45  1  0
  9 46  1  0
  9 47  1  0
 10 48  1  6
 11 49  1  0
 11 50  1  0
 12 51  1  0
 12 52  1  0
 14 53  1  0
 14 54  1  0
 14 55  1  0
 15 56  1  1
 16 57  1  0
 16 58  1  0
 17 59  1  0
 19 60  1  6
 20 61  1  0
 20 62  1  0
 21 63  1  0
 21 64  1  0
 22 65  1  6
 23 66  1  0
 25 67  1  0
 25 68  1  0
 25 69  1  0
 26 70  1  0
 26 71  1  0
 26 72  1  0
 28 73  1  0
 28 74  1  0
 28 75  1  0
 29 76  1  0
 29 77  1  0
 30 78  1  0
 30 79  1  0
 32 80  1  0
 32 81  1  0
 32 82  1  0
M  END
>  <meeko>  (7) 
{"is_sidechain": [false], "intermolecular_energy": 2.731, "internal_energy": -0.839}

$$$$
EPH_relaxed_0001_pdb2pqr_Repair_279_r2_0001_out
     RDKit          3D

 82 86  0  0  0  0  0  0  0  0999 V2000
   -0.0370   10.5120   -3.8900 C   0  0  0  0  0  0  0  0  0  0  0  0
    1.0210   10.2850   -2.8070 C   0  0  2  0  0  0  0  0  0  0  0  0
    0.7590    8.9970   -2.0000 C   0  0  0  0  0  0  0  0  0  0  0  0
    0.2100    9.2520   -0.5940 C   0  0  0  0  0  0  0  0  0  0  0  0
   -1.2090    8.7910   -0.4610 C   0  0  2  0  0  0  0  0  0  0  0  0
   -1.9700    8.8350   -1.6750 O   0  0  0  0  0  0  0  0  0  0  0  0
   -2.4060    9.7090   -0.6220 C   0  0  0  0  0  0  0  0  0  0  0  0
   -2.2380   11.1640   -0.9280 C   0  0  0  0  0  0  0  0  0  0  0  0
   -3.7080    9.3030   -0.0020 C   0  0  0  0  0  0  0  0  0  0  0  0
    1.0700   11.4860   -1.8690 C   0  0  1  0  0  0  0  0  0  0  0  0
    2.1180   11.3180   -0.7370 C   0  0  0  0  0  0  0  0  0  0  0  0
    2.7070   12.7250   -0.4600 C   0  0  0  0  0  0  0  0  0  0  0  0
    1.7560   13.6970   -1.1960 C   0  0  1  0  0  0  0  0  0  0  0  0
    0.5420   13.8770   -0.2310 C   0  0  0  0  0  0  0  0  0  0  0  0
    2.3660   15.0730   -1.6190 C   0  0  2  0  0  0  0  0  0  0  0  0
    2.8430   15.9610   -0.4560 C   0  0  0  0  0  0  0  0  0  0  0  0
    1.8190   16.9000    0.0900 C   0  0  0  0  0  0  0  0  0  0  0  0
    0.6620   17.2320   -0.5110 C   0  0  0  0  0  0  0  0  0  0  0  0
    0.3300   16.7180   -1.9180 C   0  0  1  0  0  0  0  0  0  0  0  0
   -0.1970   17.8900   -2.7870 C   0  0  0  0  0  0  0  0  0  0  0  0
   -1.3720   18.6160   -2.1390 C   0  0  0  0  0  0  0  0  0  0  0  0
   -0.9860   19.1630   -0.7670 C   0  0  2  0  0  0  0  0  0  0  0  0
   -0.0090   20.1950   -0.9410 O   0  0  0  0  0  0  0  0  0  0  0  0
   -0.4310   18.0740    0.1930 C   0  0  0  0  0  0  0  0  0  0  0  0
   -1.5770   17.1240    0.6200 C   0  0  0  0  0  0  0  0  0  0  0  0
    0.0530   18.7800    1.4880 C   0  0  0  0  0  0  0  0  0  0  0  0
    1.4770   15.8900   -2.6420 C   0  0  1  0  0  0  0  0  0  0  0  0
    2.4400   16.8590   -3.3940 C   0  0  0  0  0  0  0  0  0  0  0  0
    0.8290   14.9670   -3.7410 C   0  0  0  0  0  0  0  0  0  0  0  0
    0.3540   13.5730   -3.2860 C   0  0  0  0  0  0  0  0  0  0  0  0
    1.4470   12.8560   -2.4870 C   0  0  2  0  0  0  0  0  0  0  0  0
    2.6720   12.6410   -3.4390 C   0  0  0  0  0  0  0  0  0  0  0  0
   -1.0077   10.7203   -3.4164 H   0  0  0  0  0  0  0  0  0  0  0  0
    0.2567   11.3676   -4.5159 H   0  0  0  0  0  0  0  0  0  0  0  0
   -0.1202    9.6113   -4.5159 H   0  0  0  0  0  0  0  0  0  0  0  0
    1.9913   10.1669   -3.3116 H   0  0  0  0  0  0  0  0  0  0  0  0
    0.0306    8.3841   -2.5512 H   0  0  0  0  0  0  0  0  0  0  0  0
    1.7281    8.4908   -1.8795 H   0  0  0  0  0  0  0  0  0  0  0  0
    0.8306    8.7100    0.1347 H   0  0  0  0  0  0  0  0  0  0  0  0
    0.2374   10.3356   -0.4066 H   0  0  0  0  0  0  0  0  0  0  0  0
   -0.9271    8.0772    0.3271 H   0  0  0  0  0  0  0  0  0  0  0  0
   -2.1725   11.7312    0.0122 H   0  0  0  0  0  0  0  0  0  0  0  0
   -1.3168   11.3122   -1.5106 H   0  0  0  0  0  0  0  0  0  0  0  0
   -3.1012   11.5182   -1.5106 H   0  0  0  0  0  0  0  0  0  0  0  0
   -3.6169    9.3314    1.0939 H   0  0  0  0  0  0  0  0  0  0  0  0
   -4.4989    9.9972   -0.3223 H   0  0  0  0  0  0  0  0  0  0  0  0
   -3.9642    8.2823   -0.3223 H   0  0  0  0  0  0  0  0  0  0  0  0
    0.0227   11.5000   -1.5328 H   0  0  0  0  0  0  0  0  0  0  0  0
    1.6361   10.9239    0.1699 H   0  0  0  0  0  0  0  0  0  0  0  0
    2.9072   10.6105   -1.0314 H   0  0  0  0  0  0  0  0  0  0  0  0
    2.7184   12.9357    0.6196 H   0  0  0  0  0  0  0  0  0  0  0  0
    3.7473   12.8174   -0.8052 H   0  0  0  0  0  0  0  0  0  0  0  0
    0.8910   13.8253    0.8109 H   0  0  0  0  0  0  0  0  0  0  0  0
    0.0716   14.8547   -0.4120 H   0  0  0  0  0  0  0  0  0  0  0  0
   -0.1919   13.0779   -0.4120 H   0  0  0  0  0  0  0  0  0  0  0  0
    3.2763   14.7708   -2.1575 H   0  0  0  0  0  0  0  0  0  0  0  0
    3.1712   15.3028    0.3619 H   0  0  0  0  0  0  0  0  0  0  0  0
    3.6473   16.5910   -0.8638 H   0  0  0  0  0  0  0  0  0  0  0  0
    2.0283   17.3597    1.0672 H   0  0  0  0  0  0  0  0  0  0  0  0
   -0.4612   15.9651   -1.7874 H   0  0  0  0  0  0  0  0  0  0  0  0
    0.6204   18.6097   -2.9416 H   0  0  0  0  0  0  0  0  0  0  0  0
   -0.5496   17.4674   -3.7394 H   0  0  0  0  0  0  0  0  0  0  0  0
   -1.6802   19.4508   -2.7856 H   0  0  0  0  0  0  0  0  0  0  0  0
   -2.1991   17.9019   -2.0122 H   0  0  0  0  0  0  0  0  0  0  0  0
   -1.9005   19.5562   -0.2990 H   0  0  0  0  0  0  0  0  0  0  0  0
   -0.3250   20.9820   -0.4660 H   0  0  0  0  0  0  0  0  0  0  0  0
   -1.6282   17.0816    1.7180 H   0  0  0  0  0  0  0  0  0  0  0  0
   -2.5316   17.4993    0.2227 H   0  0  0  0  0  0  0  0  0  0  0  0
   -1.3852   16.1164    0.2227 H   0  0  0  0  0  0  0  0  0  0  0  0
   -0.3219   18.2332    2.3657 H   0  0  0  0  0  0  0  0  0  0  0  0
    1.1527   18.7957    1.5080 H   0  0  0  0  0  0  0  0  0  0  0  0
   -0.3289   19.8114    1.5080 H   0  0  0  0  0  0  0  0  0  0  0  0
    3.0190   17.4416   -2.6623 H   0  0  0  0  0  0  0  0  0  0  0  0
    3.1272   16.2764   -4.0251 H   0  0  0  0  0  0  0  0  0  0  0  0
    1.8531   17.5426   -4.0251 H   0  0  0  0  0  0  0  0  0  0  0  0
   -0.0429   15.4985   -4.1501 H   0  0  0  0  0  0  0  0  0  0  0  0
    1.6335   14.7745   -4.4661 H   0  0  0  0  0  0  0  0  0  0  0  0
   -0.5390   13.6856   -2.6536 H   0  0  0  0  0  0  0  0  0  0  0  0
    0.1204   12.9732   -4.1780 H   0  0  0  0  0  0  0  0  0  0  0  0
    3.5796   12.4817   -2.8383 H   0  0  0  0  0  0  0  0  0  0  0  0
    2.4931   11.7605   -4.0736 H   0  0  0  0  0  0  0  0  0  0  0  0
    2.8036   13.5298   -4.0736 H   0  0  0  0  0  0  0  0  0  0  0  0
  1  2  1  0
  2  3  1  0
  3  4  1  0
  4  5  1  0
  5  6  1  0
  6  7  1  0
  7  8  1  0
  7  9  1  0
  2 10  1  0
 10 11  1  0
 11 12  1  0
 12 13  1  0
 13 14  1  1
 13 15  1  0
 15 16  1  0
 16 17  1  0
 17 18  2  0
 18 19  1  0
 19 20  1  0
 20 21  1  0
 21 22  1  0
 22 23  1  0
 22 24  1  0
 24 25  1  0
 24 26  1  0
 19 27  1  0
 27 28  1  6
 27 29  1  0
 29 30  1  0
 30 31  1  0
 31 32  1  6
  7  5  1  0
 31 10  1  0
 31 13  1  0
 27 15  1  0
 24 18  1  0
  1 33  1  0
  1 34  1  0
  1 35  1  0
  2 36  1  6
  3 37  1  0
  3 38  1  0
  4 39  1  0
  4 40  1  0
  5 41  1  1
  8 42  1  0
  8 43  1  0
  8 44  1  0
  9 45  1  0
  9 46  1  0
  9 47  1  0
 10 48  1  1
 11 49  1  0
 11 50  1  0
 12 51  1  0
 12 52  1  0
 14 53  1  0
 14 54  1  0
 14 55  1  0
 15 56  1  6
 16 57  1  0
 16 58  1  0
 17 59  1  0
 19 60  1  1
 20 61  1  0
 20 62  1  0
 21 63  1  0
 21 64  1  0
 22 65  1  1
 23 66  1  0
 25 67  1  0
 25 68  1  0
 25 69  1  0
 26 70  1  0
 26 71  1  0
 26 72  1  0
 28 73  1  0
 28 74  1  0
 28 75  1  0
 29 76  1  0
 29 77  1  0
 30 78  1  0
 30 79  1  0
 32 80  1  0
 32 81  1  0
 32 82  1  0
M  END
>  <meeko>  (8) 
{"is_sidechain": [false], "intermolecular_energy": 2.731, "internal_energy": -0.839}

$$$$
EPH_relaxed_0001_pdb2pqr_Repair_279_r2_0001_out
     RDKit          3D

 82 86  0  0  0  0  0  0  0  0999 V2000
    0.4540    8.8010   -2.3690 C   0  0  0  0  0  0  0  0  0  0  0  0
    1.1930    9.9450   -3.0680 C   0  0  2  0  0  0  0  0  0  0  0  0
    2.6930    9.9710   -2.7130 C   0  0  0  0  0  0  0  0  0  0  0  0
    3.5760   10.5650   -3.8140 C   0  0  0  0  0  0  0  0  0  0  0  0
    4.9720   10.8170   -3.3290 C   0  0  2  0  0  0  0  0  0  0  0  0
    5.5620   12.0320   -3.8080 O   0  0  0  0  0  0  0  0  0  0  0  0
    6.1870   10.8120   -4.2380 C   0  0  0  0  0  0  0  0  0  0  0  0
    6.0620   10.5490   -5.7060 C   0  0  0  0  0  0  0  0  0  0  0  0
    7.5340   10.5780   -3.6310 C   0  0  0  0  0  0  0  0  0  0  0  0
    0.5490   11.2780   -2.7060 C   0  0  1  0  0  0  0  0  0  0  0  0
   -0.8310   11.1060   -2.0160 C   0  0  0  0  0  0  0  0  0  0  0  0
   -0.9540   12.2470   -0.9730 C   0  0  0  0  0  0  0  0  0  0  0  0
    0.1950   13.2220   -1.3240 C   0  0  1  0  0  0  0  0  0  0  0  0
   -0.3520   14.0760   -2.5100 C   0  0  0  0  0  0  0  0  0  0  0  0
    0.7180   14.1220   -0.1570 C   0  0  2  0  0  0  0  0  0  0  0  0
   -0.3180   15.0970    0.4300 C   0  0  0  0  0  0  0  0  0  0  0  0
   -0.3630   16.4430   -0.2140 C   0  0  0  0  0  0  0  0  0  0  0  0
    0.5810   16.9530   -1.0260 C   0  0  0  0  0  0  0  0  0  0  0  0
    1.8860   16.1910   -1.2940 C   0  0  1  0  0  0  0  0  0  0  0  0
    3.0890   17.1620   -1.1600 C   0  0  0  0  0  0  0  0  0  0  0  0
    2.9440   18.3980   -2.0420 C   0  0  0  0  0  0  0  0  0  0  0  0
    1.6640   19.1610   -1.7060 C   0  0  2  0  0  0  0  0  0  0  0  0
    1.7830   19.7020   -0.3870 O   0  0  0  0  0  0  0  0  0  0  0  0
    0.3860   18.2820   -1.7980 C   0  0  0  0  0  0  0  0  0  0  0  0
    0.0910   17.9440   -3.2800 C   0  0  0  0  0  0  0  0  0  0  0  0
   -0.8140   19.1310   -1.2990 C   0  0  0  0  0  0  0  0  0  0  0  0
    2.0880   14.8510   -0.4650 C   0  0  1  0  0  0  0  0  0  0  0  0
    2.7410   15.1710    0.9140 C   0  0  0  0  0  0  0  0  0  0  0  0
    3.1020   13.9210   -1.2310 C   0  0  0  0  0  0  0  0  0  0  0  0
    2.5090   12.9690   -2.2880 C   0  0  0  0  0  0  0  0  0  0  0  0
    1.3160   12.1940   -1.7200 C   0  0  2  0  0  0  0  0  0  0  0  0
    1.8400   11.3080   -0.5380 C   0  0  0  0  0  0  0  0  0  0  0  0
    0.5339    8.9248   -1.2789 H   0  0  0  0  0  0  0  0  0  0  0  0
   -0.6059    8.8154   -2.6629 H   0  0  0  0  0  0  0  0  0  0  0  0
    0.9029    7.8408   -2.6629 H   0  0  0  0  0  0  0  0  0  0  0  0
    1.1136    9.7759   -4.1520 H   0  0  0  0  0  0  0  0  0  0  0  0
    2.8236   10.5720   -1.8010 H   0  0  0  0  0  0  0  0  0  0  0  0
    3.0091    8.9263   -2.5761 H   0  0  0  0  0  0  0  0  0  0  0  0
    3.6136    9.8619   -4.6591 H   0  0  0  0  0  0  0  0  0  0  0  0
    3.1406   11.5273   -4.1212 H   0  0  0  0  0  0  0  0  0  0  0  0
    4.7593   10.3055   -2.3787 H   0  0  0  0  0  0  0  0  0  0  0  0
    5.5947    9.5658   -5.8639 H   0  0  0  0  0  0  0  0  0  0  0  0
    5.4385   11.3295   -6.1666 H   0  0  0  0  0  0  0  0  0  0  0  0
    7.0609   10.5584   -6.1666 H   0  0  0  0  0  0  0  0  0  0  0  0
    7.4495   10.5927   -2.5343 H   0  0  0  0  0  0  0  0  0  0  0  0
    7.9178    9.5997   -3.9561 H   0  0  0  0  0  0  0  0  0  0  0  0
    8.2252   11.3695   -3.9561 H   0  0  0  0  0  0  0  0  0  0  0  0
    0.5150   11.7434   -3.7021 H   0  0  0  0  0  0  0  0  0  0  0  0
   -1.6384   11.1831   -2.7590 H   0  0  0  0  0  0  0  0  0  0  0  0
   -0.9123   10.1201   -1.5349 H   0  0  0  0  0  0  0  0  0  0  0  0
   -1.9291   12.7487   -1.0594 H   0  0  0  0  0  0  0  0  0  0  0  0
   -0.8858   11.8766    0.0605 H   0  0  0  0  0  0  0  0  0  0  0  0
   -0.9057   14.9404   -2.1147 H   0  0  0  0  0  0  0  0  0  0  0  0
    0.4883   14.4292   -3.1257 H   0  0  0  0  0  0  0  0  0  0  0  0
   -1.0243   13.4604   -3.1257 H   0  0  0  0  0  0  0  0  0  0  0  0
    0.9189   13.3867    0.6361 H   0  0  0  0  0  0  0  0  0  0  0  0
   -1.3125   14.6381    0.3283 H   0  0  0  0  0  0  0  0  0  0  0  0
   -0.0169   15.2689    1.4739 H   0  0  0  0  0  0  0  0  0  0  0  0
   -1.2422   17.0710   -0.0073 H   0  0  0  0  0  0  0  0  0  0  0  0
    1.8172   15.8228   -2.3282 H   0  0  0  0  0  0  0  0  0  0  0  0
    3.1668   17.4844   -0.1112 H   0  0  0  0  0  0  0  0  0  0  0  0
    3.9909   16.6232   -1.4859 H   0  0  0  0  0  0  0  0  0  0  0  0
    3.8092   19.0581   -1.8818 H   0  0  0  0  0  0  0  0  0  0  0  0
    2.8954   18.0760   -3.0927 H   0  0  0  0  0  0  0  0  0  0  0  0
    1.5493   19.9598   -2.4535 H   0  0  0  0  0  0  0  0  0  0  0  0
    1.0460   20.3230   -0.2570 H   0  0  0  0  0  0  0  0  0  0  0  0
   -0.6316   17.1161   -3.3305 H   0  0  0  0  0  0  0  0  0  0  0  0
   -0.3292   18.8285   -3.7812 H   0  0  0  0  0  0  0  0  0  0  0  0
    1.0242   17.6473   -3.7812 H   0  0  0  0  0  0  0  0  0  0  0  0
   -0.8253   19.1390   -0.1991 H   0  0  0  0  0  0  0  0  0  0  0  0
   -0.7148   20.1610   -1.6722 H   0  0  0  0  0  0  0  0  0  0  0  0
   -1.7523   18.6946   -1.6722 H   0  0  0  0  0  0  0  0  0  0  0  0
    2.0708   14.8426    1.7221 H   0  0  0  0  0  0  0  0  0  0  0  0
    3.7017   14.6416    0.9965 H   0  0  0  0  0  0  0  0  0  0  0  0
    2.9112   16.2546    0.9965 H   0  0  0  0  0  0  0  0  0  0  0  0
    3.8305   14.5701   -1.7390 H   0  0  0  0  0  0  0  0  0  0  0  0
    3.5297   13.2640   -0.4593 H   0  0  0  0  0  0  0  0  0  0  0  0
    2.1758   13.5573   -3.1556 H   0  0  0  0  0  0  0  0  0  0  0  0
    3.2852   12.2489   -2.5863 H   0  0  0  0  0  0  0  0  0  0  0  0
    1.5645   11.7739    0.4196 H   0  0  0  0  0  0  0  0  0  0  0  0
    1.3886   10.3069   -0.6020 H   0  0  0  0  0  0  0  0  0  0  0  0
    2.9347   11.2214   -0.6020 H   0  0  0  0  0  0  0  0  0  0  0  0
  1  2  1  0
  2  3  1  0
  3  4  1  0
  4  5  1  0
  5  6  1  0
  6  7  1  0
  7  8  1  0
  7  9  1  0
  2 10  1  0
 10 11  1  0
 11 12  1  0
 12 13  1  0
 13 14  1  6
 13 15  1  0
 15 16  1  0
 16 17  1  0
 17 18  2  0
 18 19  1  0
 19 20  1  0
 20 21  1  0
 21 22  1  0
 22 23  1  0
 22 24  1  0
 24 25  1  0
 24 26  1  0
 19 27  1  0
 27 28  1  1
 27 29  1  0
 29 30  1  0
 30 31  1  0
 31 32  1  1
  7  5  1  0
 31 10  1  0
 31 13  1  0
 27 15  1  0
 24 18  1  0
  1 33  1  0
  1 34  1  0
  1 35  1  0
  2 36  1  6
  3 37  1  0
  3 38  1  0
  4 39  1  0
  4 40  1  0
  5 41  1  1
  8 42  1  0
  8 43  1  0
  8 44  1  0
  9 45  1  0
  9 46  1  0
  9 47  1  0
 10 48  1  6
 11 49  1  0
 11 50  1  0
 12 51  1  0
 12 52  1  0
 14 53  1  0
 14 54  1  0
 14 55  1  0
 15 56  1  1
 16 57  1  0
 16 58  1  0
 17 59  1  0
 19 60  1  6
 20 61  1  0
 20 62  1  0
 21 63  1  0
 21 64  1  0
 22 65  1  6
 23 66  1  0
 25 67  1  0
 25 68  1  0
 25 69  1  0
 26 70  1  0
 26 71  1  0
 26 72  1  0
 28 73  1  0
 28 74  1  0
 28 75  1  0
 29 76  1  0
 29 77  1  0
 30 78  1  0
 30 79  1  0
 32 80  1  0
 32 81  1  0
 32 82  1  0
M  END
>  <meeko>  (9) 
{"is_sidechain": [false], "intermolecular_energy": 2.731, "internal_energy": -0.839}

$$$$
EPH_relaxed_0001_pdb2pqr_Repair_279_r2_0001_out
     RDKit          3D

 82 86  0  0  0  0  0  0  0  0999 V2000
    0.1480   17.8070   -2.5290 C   0  0  0  0  0  0  0  0  0  0  0  0
   -0.0970   16.9050   -1.3160 C   0  0  2  0  0  0  0  0  0  0  0  0
   -0.1560   17.7040    0.0010 C   0  0  0  0  0  0  0  0  0  0  0  0
    0.4620   19.1020   -0.1000 C   0  0  0  0  0  0  0  0  0  0  0  0
    1.6190   19.2640    0.8380 C   0  0  2  0  0  0  0  0  0  0  0  0
    2.6190   20.1940    0.4000 O   0  0  0  0  0  0  0  0  0  0  0  0
    3.0330   18.8220    0.5080 C   0  0  0  0  0  0  0  0  0  0  0  0
    3.3630   18.1810   -0.8040 C   0  0  0  0  0  0  0  0  0  0  0  0
    3.9840   18.5660    1.6340 C   0  0  0  0  0  0  0  0  0  0  0  0
    0.9910   15.8410   -1.2320 C   0  0  1  0  0  0  0  0  0  0  0  0
    1.2150   15.3290    0.2160 C   0  0  0  0  0  0  0  0  0  0  0  0
    1.5700   13.8240    0.1080 C   0  0  0  0  0  0  0  0  0  0  0  0
    1.8630   13.5990   -1.3940 C   0  0  1  0  0  0  0  0  0  0  0  0
    3.3320   14.0880   -1.5940 C   0  0  0  0  0  0  0  0  0  0  0  0
    1.6620   12.1420   -1.9260 C   0  0  2  0  0  0  0  0  0  0  0  0
    2.5810   11.0830   -1.2920 C   0  0  0  0  0  0  0  0  0  0  0  0
    3.8790   10.8610   -1.9950 C   0  0  0  0  0  0  0  0  0  0  0  0
    4.1730   11.2730   -3.2420 C   0  0  0  0  0  0  0  0  0  0  0  0
    3.1140   11.9550   -4.1170 C   0  0  1  0  0  0  0  0  0  0  0  0
    3.1360   11.3330   -5.5380 C   0  0  0  0  0  0  0  0  0  0  0  0
    4.5240   11.3670   -6.1690 C   0  0  0  0  0  0  0  0  0  0  0  0
    5.5380   10.6280   -5.2990 C   0  0  2  0  0  0  0  0  0  0  0  0
    5.2090    9.2360   -5.2880 O   0  0  0  0  0  0  0  0  0  0  0  0
    5.5970   11.1620   -3.8400 C   0  0  0  0  0  0  0  0  0  0  0  0
    6.2400   12.5710   -3.8280 C   0  0  0  0  0  0  0  0  0  0  0  0
    6.5520   10.2420   -3.0330 C   0  0  0  0  0  0  0  0  0  0  0  0
    1.6490   12.0250   -3.5040 C   0  0  1  0  0  0  0  0  0  0  0  0
    0.8660   10.7210   -3.8470 C   0  0  0  0  0  0  0  0  0  0  0  0
    0.8620   13.2070   -4.1850 C   0  0  0  0  0  0  0  0  0  0  0  0
    1.0060   14.5990   -3.5420 C   0  0  0  0  0  0  0  0  0  0  0  0
    0.7690   14.5320   -2.0300 C   0  0  2  0  0  0  0  0  0  0  0  0
   -0.7080   14.0630   -1.7980 C   0  0  0  0  0  0  0  0  0  0  0  0
    0.4220   18.8157   -2.1864 H   0  0  0  0  0  0  0  0  0  0  0  0
    0.9657   17.3912   -3.1359 H   0  0  0  0  0  0  0  0  0  0  0  0
   -0.7677   17.8620   -3.1359 H   0  0  0  0  0  0  0  0  0  0  0  0
   -1.0771   16.4250   -1.4536 H   0  0  0  0  0  0  0  0  0  0  0  0
   -1.2104   17.8106    0.2958 H   0  0  0  0  0  0  0  0  0  0  0  0
    0.4323   17.1448    0.7435 H   0  0  0  0  0  0  0  0  0  0  0  0
    0.8125   19.2635   -1.1301 H   0  0  0  0  0  0  0  0  0  0  0  0
   -0.3078   19.8385    0.1737 H   0  0  0  0  0  0  0  0  0  0  0  0
    0.9712   19.0756    1.7068 H   0  0  0  0  0  0  0  0  0  0  0  0
    3.8599   17.2159   -0.6259 H   0  0  0  0  0  0  0  0  0  0  0  0
    2.4373   18.0169   -1.3751 H   0  0  0  0  0  0  0  0  0  0  0  0
    4.0343   18.8392   -1.3751 H   0  0  0  0  0  0  0  0  0  0  0  0
    3.4633   18.7062    2.5928 H   0  0  0  0  0  0  0  0  0  0  0  0
    4.3605   17.5345    1.5686 H   0  0  0  0  0  0  0  0  0  0  0  0
    4.8275   19.2691    1.5686 H   0  0  0  0  0  0  0  0  0  0  0  0
    1.8331   16.4043   -1.6604 H   0  0  0  0  0  0  0  0  0  0  0  0
    2.0411   15.8801    0.6891 H   0  0  0  0  0  0  0  0  0  0  0  0
    0.3161   15.4797    0.8318 H   0  0  0  0  0  0  0  0  0  0  0  0
    2.4563   13.5895    0.7159 H   0  0  0  0  0  0  0  0  0  0  0  0
    0.7604   13.1770    0.4766 H   0  0  0  0  0  0  0  0  0  0  0  0
    3.8031   14.2448   -0.6124 H   0  0  0  0  0  0  0  0  0  0  0  0
    3.8977   13.3297   -2.1552 H   0  0  0  0  0  0  0  0  0  0  0  0
    3.3303   15.0340   -2.1552 H   0  0  0  0  0  0  0  0  0  0  0  0
    0.6461   11.9021   -1.5790 H   0  0  0  0  0  0  0  0  0  0  0  0
    2.8022   11.3982   -0.2616 H   0  0  0  0  0  0  0  0  0  0  0  0
    2.0348   10.1302   -1.3540 H   0  0  0  0  0  0  0  0  0  0  0  0
    4.6612   10.3146   -1.4476 H   0  0  0  0  0  0  0  0  0  0  0  0
    3.4010   13.0156   -4.1701 H   0  0  0  0  0  0  0  0  0  0  0  0
    2.8049   10.2862   -5.4700 H   0  0  0  0  0  0  0  0  0  0  0  0
    2.4650   11.9289   -6.1741 H   0  0  0  0  0  0  0  0  0  0  0  0
    4.4815   10.8876   -7.1581 H   0  0  0  0  0  0  0  0  0  0  0  0
    4.8410   12.4161   -6.2629 H   0  0  0  0  0  0  0  0  0  0  0  0
    6.5330   10.7973   -5.7363 H   0  0  0  0  0  0  0  0  0  0  0  0
    4.2970    9.1470   -5.6140 H   0  0  0  0  0  0  0  0  0  0  0  0
    6.3889   12.8973   -2.7881 H   0  0  0  0  0  0  0  0  0  0  0  0
    7.2110   12.5353   -4.3437 H   0  0  0  0  0  0  0  0  0  0  0  0
    5.5768   13.2811   -4.3437 H   0  0  0  0  0  0  0  0  0  0  0  0
    6.3893   10.3987   -1.9565 H   0  0  0  0  0  0  0  0  0  0  0  0
    6.3486    9.1908   -3.2853 H   0  0  0  0  0  0  0  0  0  0  0  0
    7.5948   10.4845   -3.2853 H   0  0  0  0  0  0  0  0  0  0  0  0
    0.5644   10.2188   -2.9160 H   0  0  0  0  0  0  0  0  0  0  0  0
   -0.0294   10.9745   -4.4335 H   0  0  0  0  0  0  0  0  0  0  0  0
    1.5106   10.0498   -4.4335 H   0  0  0  0  0  0  0  0  0  0  0  0
    1.2111   13.2833   -5.2253 H   0  0  0  0  0  0  0  0  0  0  0  0
   -0.2010   12.9470   -4.0731 H   0  0  0  0  0  0  0  0  0  0  0  0
    2.0208   14.9792   -3.7306 H   0  0  0  0  0  0  0  0  0  0  0  0
    0.2549   15.2694   -3.9853 H   0  0  0  0  0  0  0  0  0  0  0  0
   -0.9073   13.9997   -0.7181 H   0  0  0  0  0  0  0  0  0  0  0  0
   -1.3986   14.7860   -2.2565 H   0  0  0  0  0  0  0  0  0  0  0  0
   -0.8550   13.0740   -2.2565 H   0  0  0  0  0  0  0  0  0  0  0  0
  1  2  1  0
  2  3  1  0
  3  4  1  0
  4  5  1  0
  5  6  1  0
  6  7  1  0
  7  8  1  0
  7  9  1  0
  2 10  1  0
 10 11  1  0
 11 12  1  0
 12 13  1  0
 13 14  1  1
 13 15  1  0
 15 16  1  0
 16 17  1  0
 17 18  2  0
 18 19  1  0
 19 20  1  0
 20 21  1  0
 21 22  1  0
 22 23  1  0
 22 24  1  0
 24 25  1  0
 24 26  1  0
 19 27  1  0
 27 28  1  1
 27 29  1  0
 29 30  1  0
 30 31  1  0
 31 32  1  6
  7  5  1  0
 31 10  1  0
 31 13  1  0
 27 15  1  0
 24 18  1  0
  1 33  1  0
  1 34  1  0
  1 35  1  0
  2 36  1  6
  3 37  1  0
  3 38  1  0
  4 39  1  0
  4 40  1  0
  5 41  1  1
  8 42  1  0
  8 43  1  0
  8 44  1  0
  9 45  1  0
  9 46  1  0
  9 47  1  0
 10 48  1  6
 11 49  1  0
 11 50  1  0
 12 51  1  0
 12 52  1  0
 14 53  1  0
 14 54  1  0
 14 55  1  0
 15 56  1  1
 16 57  1  0
 16 58  1  0
 17 59  1  0
 19 60  1  6
 20 61  1  0
 20 62  1  0
 21 63  1  0
 21 64  1  0
 22 65  1  6
 23 66  1  0
 25 67  1  0
 25 68  1  0
 25 69  1  0
 26 70  1  0
 26 71  1  0
 26 72  1  0
 28 73  1  0
 28 74  1  0
 28 75  1  0
 29 76  1  0
 29 77  1  0
 30 78  1  0
 30 79  1  0
 32 80  1  0
 32 81  1  0
 32 82  1  0
M  END
>  <meeko>  (10) 
{"is_sidechain": [false], "intermolecular_energy": 2.731, "internal_energy": -0.839}

$$$$
EPH_relaxed_0001_pdb2pqr_Repair_279_r2_0001_out
     RDKit          3D

 82 86  0  0  0  0  0  0  0  0999 V2000
    2.5810   19.2310   -1.1430 C   0  0  0  0  0  0  0  0  0  0  0  0
    2.3040   18.1900   -2.2320 C   0  0  2  0  0  0  0  0  0  0  0  0
    0.8560   18.2680   -2.7550 C   0  0  0  0  0  0  0  0  0  0  0  0
    0.0840   19.4900   -2.2490 C   0  0  0  0  0  0  0  0  0  0  0  0
   -1.1880   19.0950   -1.5610 C   0  0  2  0  0  0  0  0  0  0  0  0
   -2.0350   20.1920   -1.1950 O   0  0  0  0  0  0  0  0  0  0  0  0
   -1.4900   19.4240   -0.1110 C   0  0  0  0  0  0  0  0  0  0  0  0
   -0.5150   20.1760    0.7390 C   0  0  0  0  0  0  0  0  0  0  0  0
   -2.5070   18.5970    0.6130 C   0  0  0  0  0  0  0  0  0  0  0  0
    2.5910   16.7920   -1.6980 C   0  0  1  0  0  0  0  0  0  0  0  0
    3.3930   16.8120   -0.3690 C   0  0  0  0  0  0  0  0  0  0  0  0
    2.8850   15.6170    0.4780 C   0  0  0  0  0  0  0  0  0  0  0  0
    2.0590   14.7610   -0.5110 C   0  0  1  0  0  0  0  0  0  0  0  0
    3.1150   13.9200   -1.2940 C   0  0  0  0  0  0  0  0  0  0  0  0
    0.9510   13.8550    0.1180 C   0  0  2  0  0  0  0  0  0  0  0  0
    1.4640   12.7690    1.0790 C   0  0  0  0  0  0  0  0  0  0  0  0
    1.7840   11.4560    0.4450 C   0  0  0  0  0  0  0  0  0  0  0  0
    1.3990   11.0670   -0.7840 C   0  0  0  0  0  0  0  0  0  0  0  0
    0.4780   11.9490   -1.6370 C   0  0  1  0  0  0  0  0  0  0  0  0
   -0.6540   11.0790   -2.2460 C   0  0  0  0  0  0  0  0  0  0  0  0
   -0.1170    9.8780   -3.0180 C   0  0  0  0  0  0  0  0  0  0  0  0
    0.7470    8.9940   -2.1210 C   0  0  2  0  0  0  0  0  0  0  0  0
   -0.0850    8.4030   -1.1180 O   0  0  0  0  0  0  0  0  0  0  0  0
    1.9150    9.7640   -1.4450 C   0  0  0  0  0  0  0  0  0  0  0  0
    2.9730   10.1450   -2.5090 C   0  0  0  0  0  0  0  0  0  0  0  0
    2.6200    8.7930   -0.4600 C   0  0  0  0  0  0  0  0  0  0  0  0
   -0.0740   13.2610   -0.9310 C   0  0  1  0  0  0  0  0  0  0  0  0
   -1.3790   12.9320   -0.1420 C   0  0  0  0  0  0  0  0  0  0  0  0
   -0.4750   14.3090   -2.0350 C   0  0  0  0  0  0  0  0  0  0  0  0
    0.6350   15.2560   -2.5300 C   0  0  0  0  0  0  0  0  0  0  0  0
    1.3730   15.8990   -1.3520 C   0  0  2  0  0  0  0  0  0  0  0  0
    0.3400   16.7690   -0.5580 C   0  0  0  0  0  0  0  0  0  0  0  0
    2.4577   18.7677   -0.1530 H   0  0  0  0  0  0  0  0  0  0  0  0
    3.6100   19.6055   -1.2470 H   0  0  0  0  0  0  0  0  0  0  0  0
    1.8742   20.0674   -1.2470 H   0  0  0  0  0  0  0  0  0  0  0  0
    2.9720   18.4094   -3.0780 H   0  0  0  0  0  0  0  0  0  0  0  0
    0.8852   18.3062   -3.8539 H   0  0  0  0  0  0  0  0  0  0  0  0
    0.3302   17.3775   -2.3800 H   0  0  0  0  0  0  0  0  0  0  0  0
    0.7167   20.0428   -1.5390 H   0  0  0  0  0  0  0  0  0  0  0  0
   -0.1745   20.1160   -3.1158 H   0  0  0  0  0  0  0  0  0  0  0  0
   -1.2322   18.1541   -2.1291 H   0  0  0  0  0  0  0  0  0  0  0  0
   -0.7426   20.0005    1.8008 H   0  0  0  0  0  0  0  0  0  0  0  0
    0.5057   19.8290    0.5206 H   0  0  0  0  0  0  0  0  0  0  0  0
   -0.5913   21.2514    0.5206 H   0  0  0  0  0  0  0  0  0  0  0  0
   -2.3670   18.7109    1.6981 H   0  0  0  0  0  0  0  0  0  0  0  0
   -3.5172   18.9332    0.3364 H   0  0  0  0  0  0  0  0  0  0  0  0
   -2.3839   17.5395    0.3364 H   0  0  0  0  0  0  0  0  0  0  0  0
    3.1321   16.3736   -2.5595 H   0  0  0  0  0  0  0  0  0  0  0  0
    4.4681   16.7013   -0.5737 H   0  0  0  0  0  0  0  0  0  0  0  0
    3.2498   17.7633    0.1644 H   0  0  0  0  0  0  0  0  0  0  0  0
    3.7301   15.0389    0.8800 H   0  0  0  0  0  0  0  0  0  0  0  0
    2.2911   15.9426    1.3448 H   0  0  0  0  0  0  0  0  0  0  0  0
    3.7701   13.3983   -0.5809 H   0  0  0  0  0  0  0  0  0  0  0  0
    2.6001   13.1819   -1.9265 H   0  0  0  0  0  0  0  0  0  0  0  0
    3.7191   14.5870   -1.9265 H   0  0  0  0  0  0  0  0  0  0  0  0
    0.3915   14.5668    0.7428 H   0  0  0  0  0  0  0  0  0  0  0  0
    2.3784   13.1457    1.5606 H   0  0  0  0  0  0  0  0  0  0  0  0
    0.6427   12.5742    1.7844 H   0  0  0  0  0  0  0  0  0  0  0  0
    2.3854   10.7465    1.0323 H   0  0  0  0  0  0  0  0  0  0  0  0
    1.1078   12.3583   -2.4407 H   0  0  0  0  0  0  0  0  0  0  0  0
   -1.2968   10.7155   -1.4308 H   0  0  0  0  0  0  0  0  0  0  0  0
   -1.2145   11.7076   -2.9536 H   0  0  0  0  0  0  0  0  0  0  0  0
   -0.9632    9.2869   -3.3983 H   0  0  0  0  0  0  0  0  0  0  0  0
    0.5017   10.2441   -3.8506 H   0  0  0  0  0  0  0  0  0  0  0  0
    1.2068    8.2249   -2.7591 H   0  0  0  0  0  0  0  0  0  0  0  0
    0.4980    8.0140   -0.4450 H   0  0  0  0  0  0  0  0  0  0  0  0
    3.8942   10.4767   -2.0077 H   0  0  0  0  0  0  0  0  0  0  0  0
    3.1926    9.2695   -3.1377 H   0  0  0  0  0  0  0  0  0  0  0  0
    2.5840   10.9595   -3.1377 H   0  0  0  0  0  0  0  0  0  0  0  0
    2.3999    9.0961    0.5742 H   0  0  0  0  0  0  0  0  0  0  0  0
    2.2530    7.7697   -0.6282 H   0  0  0  0  0  0  0  0  0  0  0  0
    3.7066    8.8251   -0.6282 H   0  0  0  0  0  0  0  0  0  0  0  0
   -1.1771   12.9829    0.9381 H   0  0  0  0  0  0  0  0  0  0  0  0
   -2.1596   13.6615   -0.4039 H   0  0  0  0  0  0  0  0  0  0  0  0
   -1.7205   11.9197   -0.4039 H   0  0  0  0  0  0  0  0  0  0  0  0
   -0.8475   13.7492   -2.9056 H   0  0  0  0  0  0  0  0  0  0  0  0
   -1.2180   14.9627   -1.5548 H   0  0  0  0  0  0  0  0  0  0  0  0
    1.3532   14.6833   -3.1351 H   0  0  0  0  0  0  0  0  0  0  0  0
    0.1735   16.0528   -3.1317 H   0  0  0  0  0  0  0  0  0  0  0  0
    0.5003   16.6340    0.5219 H   0  0  0  0  0  0  0  0  0  0  0  0
    0.4758   17.8289   -0.8192 H   0  0  0  0  0  0  0  0  0  0  0  0
   -0.6813   16.4549   -0.8192 H   0  0  0  0  0  0  0  0  0  0  0  0
  1  2  1  0
  2  3  1  0
  3  4  1  0
  4  5  1  0
  5  6  1  0
  6  7  1  0
  7  8  1  0
  7  9  1  0
  2 10  1  0
 10 11  1  0
 11 12  1  0
 12 13  1  0
 13 14  1  6
 13 15  1  0
 15 16  1  0
 16 17  1  0
 17 18  2  0
 18 19  1  0
 19 20  1  0
 20 21  1  0
 21 22  1  0
 22 23  1  0
 22 24  1  0
 24 25  1  0
 24 26  1  0
 19 27  1  0
 27 28  1  1
 27 29  1  0
 29 30  1  0
 30 31  1  0
 31 32  1  1
  7  5  1  0
 31 10  1  0
 31 13  1  0
 27 15  1  0
 24 18  1  0
  1 33  1  0
  1 34  1  0
  1 35  1  0
  2 36  1  6
  3 37  1  0
  3 38  1  0
  4 39  1  0
  4 40  1  0
  5 41  1  6
  8 42  1  0
  8 43  1  0
  8 44  1  0
  9 45  1  0
  9 46  1  0
  9 47  1  0
 10 48  1  6
 11 49  1  0
 11 50  1  0
 12 51  1  0
 12 52  1  0
 14 53  1  0
 14 54  1  0
 14 55  1  0
 15 56  1  1
 16 57  1  0
 16 58  1  0
 17 59  1  0
 19 60  1  6
 20 61  1  0
 20 62  1  0
 21 63  1  0
 21 64  1  0
 22 65  1  6
 23 66  1  0
 25 67  1  0
 25 68  1  0
 25 69  1  0
 26 70  1  0
 26 71  1  0
 26 72  1  0
 28 73  1  0
 28 74  1  0
 28 75  1  0
 29 76  1  0
 29 77  1  0
 30 78  1  0
 30 79  1  0
 32 80  1  0
 32 81  1  0
 32 82  1  0
M  END
>  <meeko>  (11) 
{"is_sidechain": [false], "intermolecular_energy": 2.731, "internal_energy": -0.839}

$$$$
EPH_relaxed_0001_pdb2pqr_Repair_279_r2_0001_out
     RDKit          3D

 82 86  0  0  0  0  0  0  0  0999 V2000
    0.0880    9.3430   -2.3140 C   0  0  0  0  0  0  0  0  0  0  0  0
    1.1610   10.3420   -2.7580 C   0  0  2  0  0  0  0  0  0  0  0  0
    2.5610    9.6990   -2.8210 C   0  0  0  0  0  0  0  0  0  0  0  0
    3.4900   10.3500   -3.8490 C   0  0  0  0  0  0  0  0  0  0  0  0
    4.8750   10.5360   -3.3050 C   0  0  2  0  0  0  0  0  0  0  0  0
    5.4420   11.8310   -3.5420 O   0  0  0  0  0  0  0  0  0  0  0  0
    6.0990   10.7250   -4.1810 C   0  0  0  0  0  0  0  0  0  0  0  0
    5.9970   10.7360   -5.6740 C   0  0  0  0  0  0  0  0  0  0  0  0
    7.4450   10.4100   -3.6070 C   0  0  0  0  0  0  0  0  0  0  0  0
    1.1790   11.5390   -1.8150 C   0  0  1  0  0  0  0  0  0  0  0  0
    2.2520   11.4060   -0.7020 C   0  0  0  0  0  0  0  0  0  0  0  0
    2.7910   12.8340   -0.4270 C   0  0  0  0  0  0  0  0  0  0  0  0
    1.7900   13.7720   -1.1410 C   0  0  1  0  0  0  0  0  0  0  0  0
    0.5870   13.9000   -0.1540 C   0  0  0  0  0  0  0  0  0  0  0  0
    2.3390   15.1730   -1.5660 C   0  0  2  0  0  0  0  0  0  0  0  0
    2.8010   16.0720   -0.4070 C   0  0  0  0  0  0  0  0  0  0  0  0
    1.7510   16.9690    0.1620 C   0  0  0  0  0  0  0  0  0  0  0  0
    0.5720   17.2580   -0.4180 C   0  0  0  0  0  0  0  0  0  0  0  0
    0.2360   16.7380   -1.8220 C   0  0  1  0  0  0  0  0  0  0  0  0
   -0.3510   17.8930   -2.6750 C   0  0  0  0  0  0  0  0  0  0  0  0
   -1.5420   18.5700   -2.0040 C   0  0  0  0  0  0  0  0  0  0  0  0
   -1.1540   19.1250   -0.6360 C   0  0  2  0  0  0  0  0  0  0  0  0
   -0.2210   20.1940   -0.8200 O   0  0  0  0  0  0  0  0  0  0  0  0
   -0.5410   18.0530    0.3090 C   0  0  0  0  0  0  0  0  0  0  0  0
   -1.6410   17.0570    0.7500 C   0  0  0  0  0  0  0  0  0  0  0  0
   -0.0630   18.7720    1.6000 C   0  0  0  0  0  0  0  0  0  0  0  0
    1.4020   15.9590   -2.5700 C   0  0  1  0  0  0  0  0  0  0  0  0
    2.3130   16.9680   -3.3330 C   0  0  0  0  0  0  0  0  0  0  0  0
    0.7710   15.0170   -3.6630 C   0  0  0  0  0  0  0  0  0  0  0  0
    0.3590   13.6040   -3.2080 C   0  0  0  0  0  0  0  0  0  0  0  0
    1.4920   12.9250   -2.4310 C   0  0  2  0  0  0  0  0  0  0  0  0
    2.7090   12.7630   -3.4050 C   0  0  0  0  0  0  0  0  0  0  0  0
    0.0512    9.3087   -1.2152 H   0  0  0  0  0  0  0  0  0  0  0  0
   -0.8909    9.6588   -2.7040 H   0  0  0  0  0  0  0  0  0  0  0  0
    0.3332    8.3441   -2.7040 H   0  0  0  0  0  0  0  0  0  0  0  0
    0.9041   10.6744   -3.7746 H   0  0  0  0  0  0  0  0  0  0  0  0
    3.0273    9.7837   -1.8284 H   0  0  0  0  0  0  0  0  0  0  0  0
    2.4212    8.6527   -3.1303 H   0  0  0  0  0  0  0  0  0  0  0  0
    3.5405    9.7081   -4.7409 H   0  0  0  0  0  0  0  0  0  0  0  0
    3.0838   11.3411   -4.0994 H   0  0  0  0  0  0  0  0  0  0  0  0
    4.6642    9.8526   -2.4692 H   0  0  0  0  0  0  0  0  0  0  0  0
    4.9433   10.8496   -5.9687 H   0  0  0  0  0  0  0  0  0  0  0  0
    6.5827   11.5762   -6.0754 H   0  0  0  0  0  0  0  0  0  0  0  0
    6.3901    9.7903   -6.0754 H   0  0  0  0  0  0  0  0  0  0  0  0
    7.3875   10.4235   -2.5086 H   0  0  0  0  0  0  0  0  0  0  0  0
    7.7637    9.4130   -3.9453 H   0  0  0  0  0  0  0  0  0  0  0  0
    8.1730   11.1620   -3.9453 H   0  0  0  0  0  0  0  0  0  0  0  0
    0.1377   11.5109   -1.4616 H   0  0  0  0  0  0  0  0  0  0  0  0
    1.8014   10.9890    0.2107 H   0  0  0  0  0  0  0  0  0  0  0  0
    3.0628   10.7311   -1.0137 H   0  0  0  0  0  0  0  0  0  0  0  0
    2.8131   13.0395    0.6534 H   0  0  0  0  0  0  0  0  0  0  0  0
    3.8208   12.9686   -0.7896 H   0  0  0  0  0  0  0  0  0  0  0  0
    0.9564   13.8607    0.8814 H   0  0  0  0  0  0  0  0  0  0  0  0
    0.0736   14.8578   -0.3240 H   0  0  0  0  0  0  0  0  0  0  0  0
   -0.1165   13.0716   -0.3240 H   0  0  0  0  0  0  0  0  0  0  0  0
    3.2516   14.9099   -2.1210 H   0  0  0  0  0  0  0  0  0  0  0  0
    3.1679   15.4226    0.4015 H   0  0  0  0  0  0  0  0  0  0  0  0
    3.5735   16.7344   -0.8248 H   0  0  0  0  0  0  0  0  0  0  0  0
    1.9593   17.4324    1.1376 H   0  0  0  0  0  0  0  0  0  0  0  0
   -0.5228   15.9539   -1.6825 H   0  0  0  0  0  0  0  0  0  0  0  0
    0.4352   18.6446   -2.8392 H   0  0  0  0  0  0  0  0  0  0  0  0
   -0.7035   17.4614   -3.6234 H   0  0  0  0  0  0  0  0  0  0  0  0
   -1.8930   19.3952   -2.6410 H   0  0  0  0  0  0  0  0  0  0  0  0
   -2.3389   17.8241   -1.8673 H   0  0  0  0  0  0  0  0  0  0  0  0
   -2.0751   19.4806   -0.1510 H   0  0  0  0  0  0  0  0  0  0  0  0
    0.6720   19.8090   -0.8230 H   0  0  0  0  0  0  0  0  0  0  0  0
   -1.6825   17.0194    1.8486 H   0  0  0  0  0  0  0  0  0  0  0  0
   -2.6139   17.3877    0.3574 H   0  0  0  0  0  0  0  0  0  0  0  0
   -1.4082   16.0562    0.3574 H   0  0  0  0  0  0  0  0  0  0  0  0
   -0.4274   18.2238    2.4813 H   0  0  0  0  0  0  0  0  0  0  0  0
    1.0364   18.8035    1.6165 H   0  0  0  0  0  0  0  0  0  0  0  0
   -0.4595   19.7979    1.6165 H   0  0  0  0  0  0  0  0  0  0  0  0
    2.8674   17.5821   -2.6081 H   0  0  0  0  0  0  0  0  0  0  0  0
    3.0238   16.4151   -3.9647 H   0  0  0  0  0  0  0  0  0  0  0  0
    1.6906   17.6188   -3.9647 H   0  0  0  0  0  0  0  0  0  0  0  0
   -0.1280   15.5162   -4.0537 H   0  0  0  0  0  0  0  0  0  0  0  0
    1.5694   14.8597   -4.4032 H   0  0  0  0  0  0  0  0  0  0  0  0
   -0.5269   13.6787   -2.5603 H   0  0  0  0  0  0  0  0  0  0  0  0
    0.1347   13.0002   -4.0997 H   0  0  0  0  0  0  0  0  0  0  0  0
    3.6327   12.6400   -2.8204 H   0  0  0  0  0  0  0  0  0  0  0  0
    2.5558   11.8773   -4.0391 H   0  0  0  0  0  0  0  0  0  0  0  0
    2.7928   13.6579   -4.0391 H   0  0  0  0  0  0  0  0  0  0  0  0
  1  2  1  0
  2  3  1  0
  3  4  1  0
  4  5  1  0
  5  6  1  0
  6  7  1  0
  7  8  1  0
  7  9  1  0
  2 10  1  0
 10 11  1  0
 11 12  1  0
 12 13  1  0
 13 14  1  1
 13 15  1  0
 15 16  1  0
 16 17  1  0
 17 18  2  0
 18 19  1  0
 19 20  1  0
 20 21  1  0
 21 22  1  0
 22 23  1  0
 22 24  1  0
 24 25  1  0
 24 26  1  0
 19 27  1  0
 27 28  1  6
 27 29  1  0
 29 30  1  0
 30 31  1  0
 31 32  1  6
  7  5  1  0
 31 10  1  0
 31 13  1  0
 27 15  1  0
 24 18  1  0
  1 33  1  0
  1 34  1  0
  1 35  1  0
  2 36  1  6
  3 37  1  0
  3 38  1  0
  4 39  1  0
  4 40  1  0
  5 41  1  1
  8 42  1  0
  8 43  1  0
  8 44  1  0
  9 45  1  0
  9 46  1  0
  9 47  1  0
 10 48  1  1
 11 49  1  0
 11 50  1  0
 12 51  1  0
 12 52  1  0
 14 53  1  0
 14 54  1  0
 14 55  1  0
 15 56  1  6
 16 57  1  0
 16 58  1  0
 17 59  1  0
 19 60  1  1
 20 61  1  0
 20 62  1  0
 21 63  1  0
 21 64  1  0
 22 65  1  1
 23 66  1  0
 25 67  1  0
 25 68  1  0
 25 69  1  0
 26 70  1  0
 26 71  1  0
 26 72  1  0
 28 73  1  0
 28 74  1  0
 28 75  1  0
 29 76  1  0
 29 77  1  0
 30 78  1  0
 30 79  1  0
 32 80  1  0
 32 81  1  0
 32 82  1  0
M  END
>  <meeko>  (12) 
{"is_sidechain": [false], "intermolecular_energy": 2.731, "internal_energy": -0.839}

$$$$
EPH_relaxed_0001_pdb2pqr_Repair_279_r2_0001_out
     RDKit          3D

 82 86  0  0  0  0  0  0  0  0999 V2000
   -3.7490    7.2340   -3.4310 C   0  0  0  0  0  0  0  0  0  0  0  0
   -3.7370    7.2840   -1.9000 C   0  0  2  0  0  0  0  0  0  0  0  0
   -5.1350    7.0350   -1.3000 C   0  0  0  0  0  0  0  0  0  0  0  0
   -6.2630    7.0610   -2.3360 C   0  0  0  0  0  0  0  0  0  0  0  0
   -7.5830    7.3970   -1.7100 C   0  0  2  0  0  0  0  0  0  0  0  0
   -8.2620    6.2850   -1.1120 O   0  0  0  0  0  0  0  0  0  0  0  0
   -8.9120    6.8930   -2.2390 C   0  0  0  0  0  0  0  0  0  0  0  0
   -8.9880    6.0120   -3.4460 C   0  0  0  0  0  0  0  0  0  0  0  0
  -10.1560    7.6470   -1.8840 C   0  0  0  0  0  0  0  0  0  0  0  0
   -3.2000    8.6300   -1.4290 C   0  0  1  0  0  0  0  0  0  0  0  0
   -3.8230    9.0840   -0.0820 C   0  0  0  0  0  0  0  0  0  0  0  0
   -2.7130    9.8380    0.6940 C   0  0  0  0  0  0  0  0  0  0  0  0
   -1.6020   10.0830   -0.3550 C   0  0  1  0  0  0  0  0  0  0  0  0
   -2.0740   11.3390   -1.1520 C   0  0  0  0  0  0  0  0  0  0  0  0
   -0.1530   10.2640    0.2030 C   0  0  2  0  0  0  0  0  0  0  0  0
    0.0450   11.4820    1.1220 C   0  0  0  0  0  0  0  0  0  0  0  0
    0.4550   12.7410    0.4330 C   0  0  0  0  0  0  0  0  0  0  0  0
    0.9310   12.8260   -0.8240 C   0  0  0  0  0  0  0  0  0  0  0  0
    1.1900   11.5630   -1.6540 C   0  0  1  0  0  0  0  0  0  0  0  0
    2.5820   11.6660   -2.3320 C   0  0  0  0  0  0  0  0  0  0  0  0
    2.7420   12.9450   -3.1490 C   0  0  0  0  0  0  0  0  0  0  0  0
    2.5340   14.1790   -2.2750 C   0  0  2  0  0  0  0  0  0  0  0  0
    3.5990   14.2550   -1.3220 O   0  0  0  0  0  0  0  0  0  0  0  0
    1.1680   14.1820   -1.5340 C   0  0  0  0  0  0  0  0  0  0  0  0
    0.0230   14.4040   -2.5530 C   0  0  0  0  0  0  0  0  0  0  0  0
    1.1440   15.4070   -0.5810 C   0  0  0  0  0  0  0  0  0  0  0  0
    0.9800   10.1810   -0.8990 C   0  0  1  0  0  0  0  0  0  0  0  0
    2.2910    9.7740   -0.1590 C   0  0  0  0  0  0  0  0  0  0  0  0
    0.7010    9.0520   -1.9600 C   0  0  0  0  0  0  0  0  0  0  0  0
   -0.7660    8.8420   -2.3820 C   0  0  0  0  0  0  0  0  0  0  0  0
   -1.6780    8.7330   -1.1560 C   0  0  2  0  0  0  0  0  0  0  0  0
   -1.2420    7.4650   -0.3460 C   0  0  0  0  0  0  0  0  0  0  0  0
   -3.9938    6.2141   -3.7626 H   0  0  0  0  0  0  0  0  0  0  0  0
   -4.5043    7.9356   -3.8149 H   0  0  0  0  0  0  0  0  0  0  0  0
   -2.7576    7.5164   -3.8149 H   0  0  0  0  0  0  0  0  0  0  0  0
   -3.0783    6.4767   -1.5473 H   0  0  0  0  0  0  0  0  0  0  0  0
   -5.1333    6.0487   -0.8131 H   0  0  0  0  0  0  0  0  0  0  0  0
   -5.3308    7.8527   -0.5908 H   0  0  0  0  0  0  0  0  0  0  0  0
   -6.0281    7.8168   -3.0999 H   0  0  0  0  0  0  0  0  0  0  0  0
   -6.3408    6.0592   -2.7835 H   0  0  0  0  0  0  0  0  0  0  0  0
   -7.2281    8.4041   -1.4459 H   0  0  0  0  0  0  0  0  0  0  0  0
   -9.0785    4.9626   -3.1289 H   0  0  0  0  0  0  0  0  0  0  0  0
   -9.8655    6.2900   -4.0482 H   0  0  0  0  0  0  0  0  0  0  0  0
   -8.0759    6.1357   -4.0482 H   0  0  0  0  0  0  0  0  0  0  0  0
  -10.2504    7.7042   -0.7895 H   0  0  0  0  0  0  0  0  0  0  0  0
  -10.1002    8.6634   -2.3008 H   0  0  0  0  0  0  0  0  0  0  0  0
  -11.0313    7.1273   -2.3008 H   0  0  0  0  0  0  0  0  0  0  0  0
   -3.4696    9.2493   -2.2972 H   0  0  0  0  0  0  0  0  0  0  0  0
   -4.6770    9.7524   -0.2661 H   0  0  0  0  0  0  0  0  0  0  0  0
   -4.1901    8.2214    0.4934 H   0  0  0  0  0  0  0  0  0  0  0  0
   -3.0935   10.7924    1.0869 H   0  0  0  0  0  0  0  0  0  0  0  0
   -2.3495    9.2680    1.5617 H   0  0  0  0  0  0  0  0  0  0  0  0
   -2.3712   12.1299   -0.4476 H   0  0  0  0  0  0  0  0  0  0  0  0
   -1.2510   11.7022   -1.7851 H   0  0  0  0  0  0  0  0  0  0  0  0
   -2.9325   11.0703   -1.7851 H   0  0  0  0  0  0  0  0  0  0  0  0
   -0.0363    9.3811    0.8487 H   0  0  0  0  0  0  0  0  0  0  0  0
   -0.9052   11.6732    1.6422 H   0  0  0  0  0  0  0  0  0  0  0  0
    0.8729   11.2217    1.7979 H   0  0  0  0  0  0  0  0  0  0  0  0
    0.3604   13.6789    0.9999 H   0  0  0  0  0  0  0  0  0  0  0  0
    0.4017   11.5363   -2.4207 H   0  0  0  0  0  0  0  0  0  0  0  0
    3.3567   11.6471   -1.5513 H   0  0  0  0  0  0  0  0  0  0  0  0
    2.6812   10.8148   -3.0216 H   0  0  0  0  0  0  0  0  0  0  0  0
    3.7545   12.9740   -3.5781 H   0  0  0  0  0  0  0  0  0  0  0  0
    1.9860   12.9486   -3.9480 H   0  0  0  0  0  0  0  0  0  0  0  0
    2.5323   15.0562   -2.9388 H   0  0  0  0  0  0  0  0  0  0  0  0
    3.2160   14.5420   -0.4760 H   0  0  0  0  0  0  0  0  0  0  0  0
   -0.9179   14.5864   -2.0132 H   0  0  0  0  0  0  0  0  0  0  0  0
    0.2578   15.2733   -3.1847 H   0  0  0  0  0  0  0  0  0  0  0  0
   -0.0841   13.5099   -3.1847 H   0  0  0  0  0  0  0  0  0  0  0  0
    1.1508   15.0598    0.4627 H   0  0  0  0  0  0  0  0  0  0  0  0
    2.0301   16.0323   -0.7652 H   0  0  0  0  0  0  0  0  0  0  0  0
    0.2341   15.9971   -0.7652 H   0  0  0  0  0  0  0  0  0  0  0  0
    2.1293    9.8242    0.9279 H   0  0  0  0  0  0  0  0  0  0  0  0
    2.5679    8.7476   -0.4415 H   0  0  0  0  0  0  0  0  0  0  0  0
    3.1005   10.4631   -0.4415 H   0  0  0  0  0  0  0  0  0  0  0  0
    1.2759    9.2968   -2.8653 H   0  0  0  0  0  0  0  0  0  0  0  0
    0.9954    8.1141   -1.4663 H   0  0  0  0  0  0  0  0  0  0  0  0
   -1.0894    9.6950   -2.9966 H   0  0  0  0  0  0  0  0  0  0  0  0
   -0.8358    7.9061   -2.9559 H   0  0  0  0  0  0  0  0  0  0  0  0
   -1.3143    7.6753    0.7313 H   0  0  0  0  0  0  0  0  0  0  0  0
   -1.9021    6.6226   -0.6003 H   0  0  0  0  0  0  0  0  0  0  0  0
   -0.2034    7.2067   -0.6003 H   0  0  0  0  0  0  0  0  0  0  0  0
  1  2  1  0
  2  3  1  0
  3  4  1  0
  4  5  1  0
  5  6  1  0
  6  7  1  0
  7  8  1  0
  7  9  1  0
  2 10  1  0
 10 11  1  0
 11 12  1  0
 12 13  1  0
 13 14  1  6
 13 15  1  0
 15 16  1  0
 16 17  1  0
 17 18  2  0
 18 19  1  0
 19 20  1  0
 20 21  1  0
 21 22  1  0
 22 23  1  0
 22 24  1  0
 24 25  1  0
 24 26  1  0
 19 27  1  0
 27 28  1  1
 27 29  1  0
 29 30  1  0
 30 31  1  0
 31 32  1  1
  7  5  1  0
 31 10  1  0
 31 13  1  0
 27 15  1  0
 24 18  1  0
  1 33  1  0
  1 34  1  0
  1 35  1  0
  2 36  1  1
  3 37  1  0
  3 38  1  0
  4 39  1  0
  4 40  1  0
  5 41  1  1
  8 42  1  0
  8 43  1  0
  8 44  1  0
  9 45  1  0
  9 46  1  0
  9 47  1  0
 10 48  1  6
 11 49  1  0
 11 50  1  0
 12 51  1  0
 12 52  1  0
 14 53  1  0
 14 54  1  0
 14 55  1  0
 15 56  1  1
 16 57  1  0
 16 58  1  0
 17 59  1  0
 19 60  1  6
 20 61  1  0
 20 62  1  0
 21 63  1  0
 21 64  1  0
 22 65  1  6
 23 66  1  0
 25 67  1  0
 25 68  1  0
 25 69  1  0
 26 70  1  0
 26 71  1  0
 26 72  1  0
 28 73  1  0
 28 74  1  0
 28 75  1  0
 29 76  1  0
 29 77  1  0
 30 78  1  0
 30 79  1  0
 32 80  1  0
 32 81  1  0
 32 82  1  0
M  END
>  <meeko>  (13) 
{"is_sidechain": [false], "intermolecular_energy": 2.731, "internal_energy": -0.839}

$$$$
EPH_relaxed_0001_pdb2pqr_Repair_279_r2_0001_out
     RDKit          3D

 82 86  0  0  0  0  0  0  0  0999 V2000
   -0.8640   16.3240   -5.8470 C   0  0  0  0  0  0  0  0  0  0  0  0
    0.2270   15.6200   -6.6590 C   0  0  2  0  0  0  0  0  0  0  0  0
   -0.1760   15.4360   -8.1360 C   0  0  0  0  0  0  0  0  0  0  0  0
    0.4460   16.4710   -9.0780 C   0  0  0  0  0  0  0  0  0  0  0  0
    1.8500   16.1040   -9.4550 C   0  0  2  0  0  0  0  0  0  0  0  0
    2.3100   16.6820  -10.6830 O   0  0  0  0  0  0  0  0  0  0  0  0
    2.1960   15.2500  -10.6600 C   0  0  0  0  0  0  0  0  0  0  0  0
    1.1340   14.7090  -11.5650 C   0  0  0  0  0  0  0  0  0  0  0  0
    3.5140   14.5400  -10.6790 C   0  0  0  0  0  0  0  0  0  0  0  0
    0.5490   14.2680   -6.0350 C   0  0  1  0  0  0  0  0  0  0  0  0
    1.8140   13.6120   -6.6490 C   0  0  0  0  0  0  0  0  0  0  0  0
    2.5240   12.8490   -5.5020 C   0  0  0  0  0  0  0  0  0  0  0  0
    1.4850   12.8110   -4.3570 C   0  0  1  0  0  0  0  0  0  0  0  0
    0.5310   11.6310   -4.7210 C   0  0  0  0  0  0  0  0  0  0  0  0
    2.0570   12.6650   -2.9090 C   0  0  2  0  0  0  0  0  0  0  0  0
    2.8290   11.3610   -2.6410 C   0  0  0  0  0  0  0  0  0  0  0  0
    2.0060   10.2270   -2.1270 C   0  0  0  0  0  0  0  0  0  0  0  0
    0.7620   10.3290   -1.6220 C   0  0  0  0  0  0  0  0  0  0  0  0
    0.0960   11.6990   -1.4390 C   0  0  1  0  0  0  0  0  0  0  0  0
   -0.5490   11.7760   -0.0310 C   0  0  0  0  0  0  0  0  0  0  0  0
   -1.5080   10.6200    0.2370 C   0  0  0  0  0  0  0  0  0  0  0  0
   -0.7950    9.2770    0.1030 C   0  0  2  0  0  0  0  0  0  0  0  0
    0.1710    9.1610    1.1520 O   0  0  0  0  0  0  0  0  0  0  0  0
   -0.0980    9.0890   -1.2730 C   0  0  0  0  0  0  0  0  0  0  0  0
   -1.1680    8.9130   -2.3790 C   0  0  0  0  0  0  0  0  0  0  0  0
    0.7000    7.7590   -1.2260 C   0  0  0  0  0  0  0  0  0  0  0  0
    1.0060   12.9610   -1.7640 C   0  0  1  0  0  0  0  0  0  0  0  0
    1.8260   13.3650   -0.5010 C   0  0  0  0  0  0  0  0  0  0  0  0
    0.0800   14.1880   -2.1040 C   0  0  0  0  0  0  0  0  0  0  0  0
   -0.3540   14.3450   -3.5740 C   0  0  0  0  0  0  0  0  0  0  0  0
    0.8500   14.2400   -4.5150 C   0  0  2  0  0  0  0  0  0  0  0  0
    1.8180   15.4280   -4.1880 C   0  0  0  0  0  0  0  0  0  0  0  0
   -0.6632   16.1944   -4.7733 H   0  0  0  0  0  0  0  0  0  0  0  0
   -0.8693   17.3963   -6.0922 H   0  0  0  0  0  0  0  0  0  0  0  0
   -1.8432   15.8870   -6.0922 H   0  0  0  0  0  0  0  0  0  0  0  0
    1.1206   16.2612   -6.6379 H   0  0  0  0  0  0  0  0  0  0  0  0
    0.1433   14.4347   -8.4608 H   0  0  0  0  0  0  0  0  0  0  0  0
   -1.2668   15.5671   -8.1900 H   0  0  0  0  0  0  0  0  0  0  0  0
   -0.1637   16.5337   -9.9914 H   0  0  0  0  0  0  0  0  0  0  0  0
    0.4729   17.4384   -8.5551 H   0  0  0  0  0  0  0  0  0  0  0  0
    2.1428   16.0396   -8.3967 H   0  0  0  0  0  0  0  0  0  0  0  0
    0.3150   14.2918  -10.9608 H   0  0  0  0  0  0  0  0  0  0  0  0
    0.7455   15.5191  -12.1997 H   0  0  0  0  0  0  0  0  0  0  0  0
    1.5609   13.9185  -12.1997 H   0  0  0  0  0  0  0  0  0  0  0  0
    3.8484   14.3599   -9.6466 H   0  0  0  0  0  0  0  0  0  0  0  0
    3.4050   13.5785  -11.2022 H   0  0  0  0  0  0  0  0  0  0  0  0
    4.2569   15.1600  -11.2022 H   0  0  0  0  0  0  0  0  0  0  0  0
   -0.3937   13.7405   -6.2423 H   0  0  0  0  0  0  0  0  0  0  0  0
    1.5279   12.9129   -7.4486 H   0  0  0  0  0  0  0  0  0  0  0  0
    2.4781   14.3706   -7.0889 H   0  0  0  0  0  0  0  0  0  0  0  0
    2.7894   11.8298   -5.8195 H   0  0  0  0  0  0  0  0  0  0  0  0
    3.4632   13.3338   -5.1972 H   0  0  0  0  0  0  0  0  0  0  0  0
    0.1547   11.1656   -3.7980 H   0  0  0  0  0  0  0  0  0  0  0  0
   -0.3156   12.0125   -5.3108 H   0  0  0  0  0  0  0  0  0  0  0  0
    1.0813   10.8831   -5.3108 H   0  0  0  0  0  0  0  0  0  0  0  0
    2.8065   13.4691   -2.8691 H   0  0  0  0  0  0  0  0  0  0  0  0
    3.2954   11.0420   -3.5848 H   0  0  0  0  0  0  0  0  0  0  0  0
    3.5545   11.5944   -1.8478 H   0  0  0  0  0  0  0  0  0  0  0  0
    2.4536    9.2229   -2.1638 H   0  0  0  0  0  0  0  0  0  0  0  0
   -0.6846   11.7642   -2.2112 H   0  0  0  0  0  0  0  0  0  0  0  0
    0.2501   11.7537    0.7246 H   0  0  0  0  0  0  0  0  0  0  0  0
   -1.1286   12.7095    0.0202 H   0  0  0  0  0  0  0  0  0  0  0  0
   -1.9093   10.7143    1.2568 H   0  0  0  0  0  0  0  0  0  0  0  0
   -2.3218   10.6606   -0.5020 H   0  0  0  0  0  0  0  0  0  0  0  0
   -1.5586    8.4888    0.1781 H   0  0  0  0  0  0  0  0  0  0  0  0
   -0.3070    8.9340    1.9680 H   0  0  0  0  0  0  0  0  0  0  0  0
   -2.1520    8.7511   -1.9148 H   0  0  0  0  0  0  0  0  0  0  0  0
   -1.2017    9.8177   -3.0039 H   0  0  0  0  0  0  0  0  0  0  0  0
   -0.9102    8.0452   -3.0039 H   0  0  0  0  0  0  0  0  0  0  0  0
    0.8724    7.4717   -0.1783 H   0  0  0  0  0  0  0  0  0  0  0  0
    0.1265    6.9692   -1.7332 H   0  0  0  0  0  0  0  0  0  0  0  0
    1.6668    7.8934   -1.7332 H   0  0  0  0  0  0  0  0  0  0  0  0
    1.2652   13.0887    0.4041 H   0  0  0  0  0  0  0  0  0  0  0  0
    2.7926   12.8400   -0.5080 H   0  0  0  0  0  0  0  0  0  0  0  0
    1.9987   14.4513   -0.5080 H   0  0  0  0  0  0  0  0  0  0  0  0
   -0.8320   14.0951   -1.4960 H   0  0  0  0  0  0  0  0  0  0  0  0
    0.6900   15.0774   -1.8876 H   0  0  0  0  0  0  0  0  0  0  0  0
   -1.0754   13.5528   -3.8228 H   0  0  0  0  0  0  0  0  0  0  0  0
   -0.8127   15.3368   -3.7004 H   0  0  0  0  0  0  0  0  0  0  0  0
    1.9078   15.5382   -3.0972 H   0  0  0  0  0  0  0  0  0  0  0  0
    2.8091   15.2226   -4.6186 H   0  0  0  0  0  0  0  0  0  0  0  0
    1.4166   16.3572   -4.6186 H   0  0  0  0  0  0  0  0  0  0  0  0
  1  2  1  0
  2  3  1  0
  3  4  1  0
  4  5  1  0
  5  6  1  0
  6  7  1  0
  7  8  1  0
  7  9  1  0
  2 10  1  0
 10 11  1  0
 11 12  1  0
 12 13  1  0
 13 14  1  6
 13 15  1  0
 15 16  1  0
 16 17  1  0
 17 18  2  0
 18 19  1  0
 19 20  1  0
 20 21  1  0
 21 22  1  0
 22 23  1  0
 22 24  1  0
 24 25  1  0
 24 26  1  0
 19 27  1  0
 27 28  1  1
 27 29  1  0
 29 30  1  0
 30 31  1  0
 31 32  1  1
  7  5  1  0
 31 10  1  0
 31 13  1  0
 27 15  1  0
 24 18  1  0
  1 33  1  0
  1 34  1  0
  1 35  1  0
  2 36  1  6
  3 37  1  0
  3 38  1  0
  4 39  1  0
  4 40  1  0
  5 41  1  1
  8 42  1  0
  8 43  1  0
  8 44  1  0
  9 45  1  0
  9 46  1  0
  9 47  1  0
 10 48  1  1
 11 49  1  0
 11 50  1  0
 12 51  1  0
 12 52  1  0
 14 53  1  0
 14 54  1  0
 14 55  1  0
 15 56  1  6
 16 57  1  0
 16 58  1  0
 17 59  1  0
 19 60  1  6
 20 61  1  0
 20 62  1  0
 21 63  1  0
 21 64  1  0
 22 65  1  1
 23 66  1  0
 25 67  1  0
 25 68  1  0
 25 69  1  0
 26 70  1  0
 26 71  1  0
 26 72  1  0
 28 73  1  0
 28 74  1  0
 28 75  1  0
 29 76  1  0
 29 77  1  0
 30 78  1  0
 30 79  1  0
 32 80  1  0
 32 81  1  0
 32 82  1  0
M  END
>  <meeko>  (14) 
{"is_sidechain": [false], "intermolecular_energy": 2.731, "internal_energy": -0.839}

$$$$
EPH_relaxed_0001_pdb2pqr_Repair_279_r2_0001_out
     RDKit          3D

 82 86  0  0  0  0  0  0  0  0999 V2000
   -2.2040    7.8270   -2.1720 C   0  0  0  0  0  0  0  0  0  0  0  0
   -2.3510    8.5040   -0.8060 C   0  0  2  0  0  0  0  0  0  0  0  0
   -3.8170    8.5380   -0.3300 C   0  0  0  0  0  0  0  0  0  0  0  0
   -4.5740    7.2300   -0.5750 C   0  0  0  0  0  0  0  0  0  0  0  0
   -6.0100    7.4780   -0.9240 C   0  0  2  0  0  0  0  0  0  0  0  0
   -6.7980    6.2920   -1.0960 O   0  0  0  0  0  0  0  0  0  0  0  0
   -6.6210    7.1110   -2.2630 C   0  0  0  0  0  0  0  0  0  0  0  0
   -5.8080    6.4660   -3.3420 C   0  0  0  0  0  0  0  0  0  0  0  0
   -7.8680    7.8170   -2.6980 C   0  0  0  0  0  0  0  0  0  0  0  0
   -1.7900    9.9200   -0.8660 C   0  0  1  0  0  0  0  0  0  0  0  0
   -1.3420   10.4440    0.5250 C   0  0  0  0  0  0  0  0  0  0  0  0
   -0.0980   11.3390    0.2860 C   0  0  0  0  0  0  0  0  0  0  0  0
   -0.0700   11.5690   -1.2430 C   0  0  1  0  0  0  0  0  0  0  0  0
   -1.0990   12.7150   -1.4950 C   0  0  0  0  0  0  0  0  0  0  0  0
    1.3250   11.8980   -1.8670 C   0  0  2  0  0  0  0  0  0  0  0  0
    1.9720   13.2010   -1.3680 C   0  0  0  0  0  0  0  0  0  0  0  0
    1.6420   14.4220   -2.1630 C   0  0  0  0  0  0  0  0  0  0  0  0
    1.0930   14.4300   -3.3920 C   0  0  0  0  0  0  0  0  0  0  0  0
    0.8380   13.1210   -4.1490 C   0  0  1  0  0  0  0  0  0  0  0  0
    1.3390   13.2610   -5.6100 C   0  0  0  0  0  0  0  0  0  0  0  0
    0.7420   14.4720   -6.3200 C   0  0  0  0  0  0  0  0  0  0  0  0
    1.0670   15.7600   -5.5690 C   0  0  2  0  0  0  0  0  0  0  0  0
    2.4770   15.9920   -5.6400 O   0  0  0  0  0  0  0  0  0  0  0  0
    0.6170   15.7320   -4.0810 C   0  0  0  0  0  0  0  0  0  0  0  0
   -0.9290   15.7850   -4.0050 C   0  0  0  0  0  0  0  0  0  0  0  0
    1.1290   17.0310   -3.4030 C   0  0  0  0  0  0  0  0  0  0  0  0
    1.3680   11.7980   -3.4460 C   0  0  1  0  0  0  0  0  0  0  0  0
    2.8580   11.5490   -3.8350 C   0  0  0  0  0  0  0  0  0  0  0  0
    0.5550   10.5640   -3.9900 C   0  0  0  0  0  0  0  0  0  0  0  0
   -0.7540   10.2170   -3.2570 C   0  0  0  0  0  0  0  0  0  0  0  0
   -0.5340   10.1510   -1.7420 C   0  0  2  0  0  0  0  0  0  0  0  0
    0.4810    8.9920   -1.4560 C   0  0  0  0  0  0  0  0  0  0  0  0
   -1.9725    6.7611   -2.0299 H   0  0  0  0  0  0  0  0  0  0  0  0
   -3.1446    7.9263   -2.7336 H   0  0  0  0  0  0  0  0  0  0  0  0
   -1.3892    8.3074   -2.7336 H   0  0  0  0  0  0  0  0  0  0  0  0
   -1.7813    7.9083   -0.0776 H   0  0  0  0  0  0  0  0  0  0  0  0
   -3.8268    8.7479    0.7497 H   0  0  0  0  0  0  0  0  0  0  0  0
   -4.3266    9.3186   -0.9139 H   0  0  0  0  0  0  0  0  0  0  0  0
   -4.0937    6.6900   -1.4043 H   0  0  0  0  0  0  0  0  0  0  0  0
   -4.5435    6.6374    0.3512 H   0  0  0  0  0  0  0  0  0  0  0  0
   -6.0146    8.4114   -0.3419 H   0  0  0  0  0  0  0  0  0  0  0  0
   -5.0233    5.8435   -2.8873 H   0  0  0  0  0  0  0  0  0  0  0  0
   -6.4599    5.8367   -3.9657 H   0  0  0  0  0  0  0  0  0  0  0  0
   -5.3434    7.2439   -3.9657 H   0  0  0  0  0  0  0  0  0  0  0  0
   -8.4355    8.1383   -1.8121 H   0  0  0  0  0  0  0  0  0  0  0  0
   -7.5998    8.6972   -3.3007 H   0  0  0  0  0  0  0  0  0  0  0  0
   -8.4847    7.1341   -3.3007 H   0  0  0  0  0  0  0  0  0  0  0  0
   -2.6540   10.4424   -1.3026 H   0  0  0  0  0  0  0  0  0  0  0  0
   -2.1490   11.0322    0.9862 H   0  0  0  0  0  0  0  0  0  0  0  0
   -1.1052    9.6112    1.2035 H   0  0  0  0  0  0  0  0  0  0  0  0
   -0.1991   12.2950    0.8206 H   0  0  0  0  0  0  0  0  0  0  0  0
    0.8278   10.8731    0.6545 H   0  0  0  0  0  0  0  0  0  0  0  0
   -1.4526   13.1088   -0.5307 H   0  0  0  0  0  0  0  0  0  0  0  0
   -0.6165   13.5220   -2.0659 H   0  0  0  0  0  0  0  0  0  0  0  0
   -1.9531   12.3219   -2.0659 H   0  0  0  0  0  0  0  0  0  0  0  0
    1.9554   11.0846   -1.4784 H   0  0  0  0  0  0  0  0  0  0  0  0
    1.6414   13.3699   -0.3325 H   0  0  0  0  0  0  0  0  0  0  0  0
    3.0583   13.0584   -1.4657 H   0  0  0  0  0  0  0  0  0  0  0  0
    1.8666   15.3968   -1.7054 H   0  0  0  0  0  0  0  0  0  0  0  0
   -0.2520   12.9735   -4.1410 H   0  0  0  0  0  0  0  0  0  0  0  0
    2.4342   13.3633   -5.5989 H   0  0  0  0  0  0  0  0  0  0  0  0
    1.0217   12.3622   -6.1592 H   0  0  0  0  0  0  0  0  0  0  0  0
    1.1570   14.5338   -7.3369 H   0  0  0  0  0  0  0  0  0  0  0  0
   -0.3510   14.3536   -6.3569 H   0  0  0  0  0  0  0  0  0  0  0  0
    0.5055   16.5735   -6.0516 H   0  0  0  0  0  0  0  0  0  0  0  0
    2.8110   15.5360   -6.4310 H   0  0  0  0  0  0  0  0  0  0  0  0
   -1.2441   15.7958   -2.9512 H   0  0  0  0  0  0  0  0  0  0  0  0
   -1.2897   16.6960   -4.5049 H   0  0  0  0  0  0  0  0  0  0  0  0
   -1.3512   14.9008   -4.5049 H   0  0  0  0  0  0  0  0  0  0  0  0
    1.0838   16.9164   -2.3099 H   0  0  0  0  0  0  0  0  0  0  0  0
    2.1686   17.2192   -3.7093 H   0  0  0  0  0  0  0  0  0  0  0  0
    0.4974   17.8779   -3.7093 H   0  0  0  0  0  0  0  0  0  0  0  0
    3.4633   11.4478   -2.9221 H   0  0  0  0  0  0  0  0  0  0  0  0
    2.9326   10.6259   -4.4286 H   0  0  0  0  0  0  0  0  0  0  0  0
    3.2287   12.3976   -4.4286 H   0  0  0  0  0  0  0  0  0  0  0  0
    0.3036   10.7685   -5.0412 H   0  0  0  0  0  0  0  0  0  0  0  0
    1.2114    9.6953   -3.8334 H   0  0  0  0  0  0  0  0  0  0  0  0
   -1.5056   10.9891   -3.4781 H   0  0  0  0  0  0  0  0  0  0  0  0
   -1.0997    9.2321   -3.6042 H   0  0  0  0  0  0  0  0  0  0  0  0
    0.5938    8.8632   -0.3694 H   0  0  0  0  0  0  0  0  0  0  0  0
    0.1052    8.0579   -1.8989 H   0  0  0  0  0  0  0  0  0  0  0  0
    1.4565    9.2413   -1.8989 H   0  0  0  0  0  0  0  0  0  0  0  0
  1  2  1  0
  2  3  1  0
  3  4  1  0
  4  5  1  0
  5  6  1  0
  6  7  1  0
  7  8  1  0
  7  9  1  0
  2 10  1  0
 10 11  1  0
 11 12  1  0
 12 13  1  0
 13 14  1  1
 13 15  1  0
 15 16  1  0
 16 17  1  0
 17 18  2  0
 18 19  1  0
 19 20  1  0
 20 21  1  0
 21 22  1  0
 22 23  1  0
 22 24  1  0
 24 25  1  0
 24 26  1  0
 19 27  1  0
 27 28  1  1
 27 29  1  0
 29 30  1  0
 30 31  1  0
 31 32  1  6
  7  5  1  0
 31 10  1  0
 31 13  1  0
 27 15  1  0
 24 18  1  0
  1 33  1  0
  1 34  1  0
  1 35  1  0
  2 36  1  1
  3 37  1  0
  3 38  1  0
  4 39  1  0
  4 40  1  0
  5 41  1  1
  8 42  1  0
  8 43  1  0
  8 44  1  0
  9 45  1  0
  9 46  1  0
  9 47  1  0
 10 48  1  6
 11 49  1  0
 11 50  1  0
 12 51  1  0
 12 52  1  0
 14 53  1  0
 14 54  1  0
 14 55  1  0
 15 56  1  1
 16 57  1  0
 16 58  1  0
 17 59  1  0
 19 60  1  6
 20 61  1  0
 20 62  1  0
 21 63  1  0
 21 64  1  0
 22 65  1  6
 23 66  1  0
 25 67  1  0
 25 68  1  0
 25 69  1  0
 26 70  1  0
 26 71  1  0
 26 72  1  0
 28 73  1  0
 28 74  1  0
 28 75  1  0
 29 76  1  0
 29 77  1  0
 30 78  1  0
 30 79  1  0
 32 80  1  0
 32 81  1  0
 32 82  1  0
M  END
>  <meeko>  (15) 
{"is_sidechain": [false], "intermolecular_energy": 2.731, "internal_energy": -0.839}

$$$$
EPH_relaxed_0001_pdb2pqr_Repair_279_r2_0001_out
     RDKit          3D

 82 86  0  0  0  0  0  0  0  0999 V2000
    2.8850   11.3600   -5.3380 C   0  0  0  0  0  0  0  0  0  0  0  0
    1.8730   11.0540   -4.2300 C   0  0  2  0  0  0  0  0  0  0  0  0
    0.7600   10.0990   -4.7070 C   0  0  0  0  0  0  0  0  0  0  0  0
   -0.3240    9.8440   -3.6570 C   0  0  0  0  0  0  0  0  0  0  0  0
    0.1970    9.0380   -2.5060 C   0  0  2  0  0  0  0  0  0  0  0  0
   -0.6620    7.9710   -2.0840 O   0  0  0  0  0  0  0  0  0  0  0  0
   -0.4480    9.0260   -1.1330 C   0  0  0  0  0  0  0  0  0  0  0  0
   -1.6710    9.8370   -0.8380 C   0  0  0  0  0  0  0  0  0  0  0  0
    0.3820    8.6160    0.0440 C   0  0  0  0  0  0  0  0  0  0  0  0
    1.2600   12.3510   -3.7140 C   0  0  1  0  0  0  0  0  0  0  0  0
   -0.2810   12.2610   -3.5510 C   0  0  0  0  0  0  0  0  0  0  0  0
   -0.6510   13.1180   -2.3140 C   0  0  0  0  0  0  0  0  0  0  0  0
    0.6270   13.9330   -2.0080 C   0  0  1  0  0  0  0  0  0  0  0  0
    0.5880   15.1320   -3.0070 C   0  0  0  0  0  0  0  0  0  0  0  0
    0.8000   14.4180   -0.5310 C   0  0  2  0  0  0  0  0  0  0  0  0
   -0.2860   15.3870   -0.0320 C   0  0  0  0  0  0  0  0  0  0  0  0
    0.0050   16.8360   -0.2450 C   0  0  0  0  0  0  0  0  0  0  0  0
    1.2070   17.3550   -0.5540 C   0  0  0  0  0  0  0  0  0  0  0  0
    2.4560   16.4660   -0.6210 C   0  0  1  0  0  0  0  0  0  0  0  0
    3.6210   17.1500    0.1410 C   0  0  0  0  0  0  0  0  0  0  0  0
    3.8880   18.5690   -0.3510 C   0  0  0  0  0  0  0  0  0  0  0  0
    2.6410   19.4380   -0.2140 C   0  0  2  0  0  0  0  0  0  0  0  0
    2.3530   19.6150    1.1760 O   0  0  0  0  0  0  0  0  0  0  0  0
    1.3980   18.8440   -0.9340 C   0  0  0  0  0  0  0  0  0  0  0  0
    1.5940   18.9330   -2.4680 C   0  0  0  0  0  0  0  0  0  0  0  0
    0.1780   19.7430   -0.6000 C   0  0  0  0  0  0  0  0  0  0  0  0
    2.2510   14.9500   -0.1890 C   0  0  1  0  0  0  0  0  0  0  0  0
    2.4250   14.8080    1.3540 C   0  0  0  0  0  0  0  0  0  0  0  0
    3.3800   14.0710   -0.8460 C   0  0  0  0  0  0  0  0  0  0  0  0
    3.1000   13.5220   -2.2580 C   0  0  0  0  0  0  0  0  0  0  0  0
    1.7240   12.8520   -2.3230 C   0  0  2  0  0  0  0  0  0  0  0  0
    1.7410   11.6290   -1.3440 C   0  0  0  0  0  0  0  0  0  0  0  0
    3.8455   11.6504   -4.8873 H   0  0  0  0  0  0  0  0  0  0  0  0
    3.0281   10.4650   -5.9613 H   0  0  0  0  0  0  0  0  0  0  0  0
    2.5082   12.1844   -5.9613 H   0  0  0  0  0  0  0  0  0  0  0  0
    2.4152   10.5490   -3.4170 H   0  0  0  0  0  0  0  0  0  0  0  0
    0.2849   10.5367   -5.5973 H   0  0  0  0  0  0  0  0  0  0  0  0
    1.2365    9.1304   -4.9187 H   0  0  0  0  0  0  0  0  0  0  0  0
   -0.6885   10.8106   -3.2791 H   0  0  0  0  0  0  0  0  0  0  0  0
   -1.1359    9.2753   -4.1339 H   0  0  0  0  0  0  0  0  0  0  0  0
    1.2349    9.2002   -2.8323 H   0  0  0  0  0  0  0  0  0  0  0  0
   -1.8002    9.9227    0.2510 H   0  0  0  0  0  0  0  0  0  0  0  0
   -1.5594   10.8407   -1.2741 H   0  0  0  0  0  0  0  0  0  0  0  0
   -2.5521    9.3436   -1.2741 H   0  0  0  0  0  0  0  0  0  0  0  0
   -0.1456    8.8766    0.9733 H   0  0  0  0  0  0  0  0  0  0  0  0
    0.5529    7.5298    0.0116 H   0  0  0  0  0  0  0  0  0  0  0  0
    1.3484    9.1404    0.0116 H   0  0  0  0  0  0  0  0  0  0  0  0
    1.6037   13.0419   -4.4979 H   0  0  0  0  0  0  0  0  0  0  0  0
   -0.7804   12.6555   -4.4482 H   0  0  0  0  0  0  0  0  0  0  0  0
   -0.6038   11.2177   -3.4193 H   0  0  0  0  0  0  0  0  0  0  0  0
   -1.4930   13.7876   -2.5433 H   0  0  0  0  0  0  0  0  0  0  0  0
   -0.9677   12.5021   -1.4594 H   0  0  0  0  0  0  0  0  0  0  0  0
    0.5573   16.0769   -2.4447 H   0  0  0  0  0  0  0  0  0  0  0  0
    1.4873   15.1112   -3.6401 H   0  0  0  0  0  0  0  0  0  0  0  0
   -0.3080   15.0528   -3.6401 H   0  0  0  0  0  0  0  0  0  0  0  0
    0.6580   13.4892    0.0410 H   0  0  0  0  0  0  0  0  0  0  0  0
   -1.2224   15.1476   -0.5572 H   0  0  0  0  0  0  0  0  0  0  0  0
   -0.3430   15.2451    1.0573 H   0  0  0  0  0  0  0  0  0  0  0  0
   -0.8348   17.5387   -0.1404 H   0  0  0  0  0  0  0  0  0  0  0  0
    2.7096   16.3779   -1.6877 H   0  0  0  0  0  0  0  0  0  0  0  0
    3.3677   17.1894    1.2107 H   0  0  0  0  0  0  0  0  0  0  0  0
    4.5305   16.5577   -0.0380 H   0  0  0  0  0  0  0  0  0  0  0  0
    4.7009   19.0095    0.2449 H   0  0  0  0  0  0  0  0  0  0  0  0
    4.1699   18.5248   -1.4133 H   0  0  0  0  0  0  0  0  0  0  0  0
    2.8548   20.4009   -0.7010 H   0  0  0  0  0  0  0  0  0  0  0  0
    1.3930   19.5130    1.2930 H   0  0  0  0  0  0  0  0  0  0  0  0
    2.5755   19.3787   -2.6870 H   0  0  0  0  0  0  0  0  0  0  0  0
    1.5442   17.9240   -2.9032 H   0  0  0  0  0  0  0  0  0  0  0  0
    0.8015   19.5595   -2.9032 H   0  0  0  0  0  0  0  0  0  0  0  0
    0.0694   19.8230    0.4917 H   0  0  0  0  0  0  0  0  0  0  0  0
    0.3327   20.7447   -1.0275 H   0  0  0  0  0  0  0  0  0  0  0  0
   -0.7329   19.2986   -1.0275 H   0  0  0  0  0  0  0  0  0  0  0  0
    1.6708   15.4235    1.8662 H   0  0  0  0  0  0  0  0  0  0  0  0
    2.2956   13.7543    1.6422 H   0  0  0  0  0  0  0  0  0  0  0  0
    3.4313   15.1460    1.6422 H   0  0  0  0  0  0  0  0  0  0  0  0
    4.2901   14.6863   -0.9027 H   0  0  0  0  0  0  0  0  0  0  0  0
    3.4634   13.1823   -0.2031 H   0  0  0  0  0  0  0  0  0  0  0  0
    3.1305   14.3519   -2.9793 H   0  0  0  0  0  0  0  0  0  0  0  0
    3.8671   12.7720   -2.5011 H   0  0  0  0  0  0  0  0  0  0  0  0
    1.7360   11.9908   -0.3052 H   0  0  0  0  0  0  0  0  0  0  0  0
    0.8514   11.0063   -1.5197 H   0  0  0  0  0  0  0  0  0  0  0  0
    2.6475   11.0312   -1.5197 H   0  0  0  0  0  0  0  0  0  0  0  0
  1  2  1  0
  2  3  1  0
  3  4  1  0
  4  5  1  0
  5  6  1  0
  6  7  1  0
  7  8  1  0
  7  9  1  0
  2 10  1  0
 10 11  1  0
 11 12  1  0
 12 13  1  0
 13 14  1  6
 13 15  1  0
 15 16  1  0
 16 17  1  0
 17 18  2  0
 18 19  1  0
 19 20  1  0
 20 21  1  0
 21 22  1  0
 22 23  1  0
 22 24  1  0
 24 25  1  0
 24 26  1  0
 19 27  1  0
 27 28  1  1
 27 29  1  0
 29 30  1  0
 30 31  1  0
 31 32  1  1
  7  5  1  0
 31 10  1  0
 31 13  1  0
 27 15  1  0
 24 18  1  0
  1 33  1  0
  1 34  1  0
  1 35  1  0
  2 36  1  1
  3 37  1  0
  3 38  1  0
  4 39  1  0
  4 40  1  0
  5 41  1  1
  8 42  1  0
  8 43  1  0
  8 44  1  0
  9 45  1  0
  9 46  1  0
  9 47  1  0
 10 48  1  6
 11 49  1  0
 11 50  1  0
 12 51  1  0
 12 52  1  0
 14 53  1  0
 14 54  1  0
 14 55  1  0
 15 56  1  1
 16 57  1  0
 16 58  1  0
 17 59  1  0
 19 60  1  6
 20 61  1  0
 20 62  1  0
 21 63  1  0
 21 64  1  0
 22 65  1  6
 23 66  1  0
 25 67  1  0
 25 68  1  0
 25 69  1  0
 26 70  1  0
 26 71  1  0
 26 72  1  0
 28 73  1  0
 28 74  1  0
 28 75  1  0
 29 76  1  0
 29 77  1  0
 30 78  1  0
 30 79  1  0
 32 80  1  0
 32 81  1  0
 32 82  1  0
M  END
>  <meeko>  (16) 
{"is_sidechain": [false], "intermolecular_energy": 2.731, "internal_energy": -0.839}

$$$$
EPH_relaxed_0001_pdb2pqr_Repair_279_r2_0001_out
     RDKit          3D

 82 86  0  0  0  0  0  0  0  0999 V2000
    2.8330   19.4010   -0.6770 C   0  0  0  0  0  0  0  0  0  0  0  0
    1.3510   19.2130   -0.3390 C   0  0  2  0  0  0  0  0  0  0  0  0
    0.9360   20.0090    0.9140 C   0  0  0  0  0  0  0  0  0  0  0  0
    2.0680   20.1940    1.9290 C   0  0  0  0  0  0  0  0  0  0  0  0
    3.3300   19.5230    1.4800 C   0  0  2  0  0  0  0  0  0  0  0  0
    3.6400   18.3060    2.1710 O   0  0  0  0  0  0  0  0  0  0  0  0
    4.5640   19.3910    2.3530 C   0  0  0  0  0  0  0  0  0  0  0  0
    4.5950   19.9360    3.7470 C   0  0  0  0  0  0  0  0  0  0  0  0
    5.8890   19.1720    1.6920 C   0  0  0  0  0  0  0  0  0  0  0  0
    1.0470   17.7320   -0.1410 C   0  0  1  0  0  0  0  0  0  0  0  0
   -0.2860   17.4930    0.6180 C   0  0  0  0  0  0  0  0  0  0  0  0
   -0.9130   16.2060    0.0230 C   0  0  0  0  0  0  0  0  0  0  0  0
    0.2220   15.5690   -0.8130 C   0  0  1  0  0  0  0  0  0  0  0  0
    1.1060   14.8090    0.2250 C   0  0  0  0  0  0  0  0  0  0  0  0
   -0.2240   14.6350   -1.9840 C   0  0  2  0  0  0  0  0  0  0  0  0
   -1.0070   13.3800   -1.5580 C   0  0  0  0  0  0  0  0  0  0  0  0
   -0.1740   12.1720   -1.2840 C   0  0  0  0  0  0  0  0  0  0  0  0
    1.1120   12.0090   -1.6480 C   0  0  0  0  0  0  0  0  0  0  0  0
    1.8300   13.0670   -2.4960 C   0  0  1  0  0  0  0  0  0  0  0  0
    2.6000   12.3710   -3.6490 C   0  0  0  0  0  0  0  0  0  0  0  0
    3.5460   11.2840   -3.1490 C   0  0  0  0  0  0  0  0  0  0  0  0
    2.7850   10.2200   -2.3600 C   0  0  2  0  0  0  0  0  0  0  0  0
    1.9130    9.5210   -3.2530 O   0  0  0  0  0  0  0  0  0  0  0  0
    1.9640   10.8050   -1.1770 C   0  0  0  0  0  0  0  0  0  0  0  0
    2.9260   11.2950   -0.0670 C   0  0  0  0  0  0  0  0  0  0  0  0
    1.1350    9.6490   -0.5540 C   0  0  0  0  0  0  0  0  0  0  0  0
    0.9320   14.2760   -3.0030 C   0  0  1  0  0  0  0  0  0  0  0  0
    0.2390   13.8960   -4.3480 C   0  0  0  0  0  0  0  0  0  0  0  0
    1.8590   15.5100   -3.3150 C   0  0  0  0  0  0  0  0  0  0  0  0
    2.1660   16.4620   -2.1430 C   0  0  0  0  0  0  0  0  0  0  0  0
    0.8810   16.8640   -1.4120 C   0  0  2  0  0  0  0  0  0  0  0  0
   -0.0200   17.6490   -2.4250 C   0  0  0  0  0  0  0  0  0  0  0  0
    3.4148   19.4748    0.2536 H   0  0  0  0  0  0  0  0  0  0  0  0
    3.1873   18.5406   -1.2637 H   0  0  0  0  0  0  0  0  0  0  0  0
    2.9612   20.3226   -1.2637 H   0  0  0  0  0  0  0  0  0  0  0  0
    0.7661   19.6023   -1.1854 H   0  0  0  0  0  0  0  0  0  0  0  0
    0.5898   21.0032    0.5949 H   0  0  0  0  0  0  0  0  0  0  0  0
    0.1462   19.4304    1.4154 H   0  0  0  0  0  0  0  0  0  0  0  0
    2.2615   21.2695    2.0551 H   0  0  0  0  0  0  0  0  0  0  0  0
    1.7552   19.7357    2.8788 H   0  0  0  0  0  0  0  0  0  0  0  0
    3.1884   19.8922    0.4535 H   0  0  0  0  0  0  0  0  0  0  0  0
    4.5478   19.1054    4.4666 H   0  0  0  0  0  0  0  0  0  0  0  0
    5.5267   20.5005    3.8993 H   0  0  0  0  0  0  0  0  0  0  0  0
    3.7333   20.6026    3.8993 H   0  0  0  0  0  0  0  0  0  0  0  0
    6.6654   19.0437    2.4606 H   0  0  0  0  0  0  0  0  0  0  0  0
    5.8412   18.2696    1.0648 H   0  0  0  0  0  0  0  0  0  0  0  0
    6.1341   20.0418    1.0648 H   0  0  0  0  0  0  0  0  0  0  0  0
    1.9526   17.4288    0.4048 H   0  0  0  0  0  0  0  0  0  0  0  0
   -0.0916   17.3583    1.6923 H   0  0  0  0  0  0  0  0  0  0  0  0
   -0.9643   18.3517    0.5063 H   0  0  0  0  0  0  0  0  0  0  0  0
   -1.2344   15.5244    0.8243 H   0  0  0  0  0  0  0  0  0  0  0  0
   -1.8071   16.4187   -0.5814 H   0  0  0  0  0  0  0  0  0  0  0  0
    0.7907   15.0801    1.2434 H   0  0  0  0  0  0  0  0  0  0  0  0
    0.9896   13.7246    0.0816 H   0  0  0  0  0  0  0  0  0  0  0  0
    2.1607   15.0867    0.0816 H   0  0  0  0  0  0  0  0  0  0  0  0
   -0.9439   15.2658   -2.5261 H   0  0  0  0  0  0  0  0  0  0  0  0
   -1.5659   13.6225   -0.6421 H   0  0  0  0  0  0  0  0  0  0  0  0
   -1.6511   13.1188   -2.4106 H   0  0  0  0  0  0  0  0  0  0  0  0
   -0.6513   11.3447   -0.7384 H   0  0  0  0  0  0  0  0  0  0  0  0
    2.5407   13.5667   -1.8213 H   0  0  0  0  0  0  0  0  0  0  0  0
    1.8709   11.9154   -4.3352 H   0  0  0  0  0  0  0  0  0  0  0  0
    3.2081   13.1362   -4.1536 H   0  0  0  0  0  0  0  0  0  0  0  0
    4.0378   10.8100   -4.0112 H   0  0  0  0  0  0  0  0  0  0  0  0
    4.2931   11.7456   -2.4866 H   0  0  0  0  0  0  0  0  0  0  0  0
    3.5289    9.5405   -1.9185 H   0  0  0  0  0  0  0  0  0  0  0  0
    1.5540    8.7550   -2.7730 H   0  0  0  0  0  0  0  0  0  0  0  0
    2.4913   11.0736    0.9189 H   0  0  0  0  0  0  0  0  0  0  0  0
    3.8927   10.7794   -0.1657 H   0  0  0  0  0  0  0  0  0  0  0  0
    3.0774   12.3801   -0.1657 H   0  0  0  0  0  0  0  0  0  0  0  0
    1.1817    9.7142    0.5431 H   0  0  0  0  0  0  0  0  0  0  0  0
    0.0882    9.7304   -0.8819 H   0  0  0  0  0  0  0  0  0  0  0  0
    1.5479    8.6836   -0.8819 H   0  0  0  0  0  0  0  0  0  0  0  0
   -0.7079   13.3768   -4.1387 H   0  0  0  0  0  0  0  0  0  0  0  0
    0.0363   14.8092   -4.9268 H   0  0  0  0  0  0  0  0  0  0  0  0
    0.9000   13.2341   -4.9268 H   0  0  0  0  0  0  0  0  0  0  0  0
    2.8180   15.1202   -3.6871 H   0  0  0  0  0  0  0  0  0  0  0  0
    1.2961   16.1171   -4.0392 H   0  0  0  0  0  0  0  0  0  0  0  0
    2.8393   15.9561   -1.4354 H   0  0  0  0  0  0  0  0  0  0  0  0
    2.6403   17.3700   -2.5437 H   0  0  0  0  0  0  0  0  0  0  0  0
   -0.7365   18.2733   -1.8710 H   0  0  0  0  0  0  0  0  0  0  0  0
    0.6119   18.2896   -3.0576 H   0  0  0  0  0  0  0  0  0  0  0  0
   -0.5681   16.9353   -3.0576 H   0  0  0  0  0  0  0  0  0  0  0  0
  1  2  1  0
  2  3  1  0
  3  4  1  0
  4  5  1  0
  5  6  1  0
  6  7  1  0
  7  8  1  0
  7  9  1  0
  2 10  1  0
 10 11  1  0
 11 12  1  0
 12 13  1  0
 13 14  1  1
 13 15  1  0
 15 16  1  0
 16 17  1  0
 17 18  2  0
 18 19  1  0
 19 20  1  0
 20 21  1  0
 21 22  1  0
 22 23  1  0
 22 24  1  0
 24 25  1  0
 24 26  1  0
 19 27  1  0
 27 28  1  6
 27 29  1  0
 29 30  1  0
 30 31  1  0
 31 32  1  6
  7  5  1  0
 31 10  1  0
 31 13  1  0
 27 15  1  0
 24 18  1  0
  1 33  1  0
  1 34  1  0
  1 35  1  0
  2 36  1  6
  3 37  1  0
  3 38  1  0
  4 39  1  0
  4 40  1  0
  5 41  1  6
  8 42  1  0
  8 43  1  0
  8 44  1  0
  9 45  1  0
  9 46  1  0
  9 47  1  0
 10 48  1  1
 11 49  1  0
 11 50  1  0
 12 51  1  0
 12 52  1  0
 14 53  1  0
 14 54  1  0
 14 55  1  0
 15 56  1  6
 16 57  1  0
 16 58  1  0
 17 59  1  0
 19 60  1  1
 20 61  1  0
 20 62  1  0
 21 63  1  0
 21 64  1  0
 22 65  1  1
 23 66  1  0
 25 67  1  0
 25 68  1  0
 25 69  1  0
 26 70  1  0
 26 71  1  0
 26 72  1  0
 28 73  1  0
 28 74  1  0
 28 75  1  0
 29 76  1  0
 29 77  1  0
 30 78  1  0
 30 79  1  0
 32 80  1  0
 32 81  1  0
 32 82  1  0
M  END
>  <meeko>  (17) 
{"is_sidechain": [false], "intermolecular_energy": 2.731, "internal_energy": -0.839}

$$$$
EPH_relaxed_0001_pdb2pqr_Repair_279_r2_0001_out
     RDKit          3D

 82 86  0  0  0  0  0  0  0  0999 V2000
    0.9610   14.8580   -2.6720 C   0  0  0  0  0  0  0  0  0  0  0  0
    1.2050   14.1720   -4.0190 C   0  0  2  0  0  0  0  0  0  0  0  0
    0.4920   14.8970   -5.1770 C   0  0  0  0  0  0  0  0  0  0  0  0
    1.0900   14.5950   -6.5540 C   0  0  0  0  0  0  0  0  0  0  0  0
    0.8710   15.7250   -7.5140 C   0  0  2  0  0  0  0  0  0  0  0  0
    0.3840   15.3290   -8.8030 O   0  0  0  0  0  0  0  0  0  0  0  0
    1.6920   15.9230   -8.7740 C   0  0  0  0  0  0  0  0  0  0  0  0
    2.7960   14.9830   -9.1420 C   0  0  0  0  0  0  0  0  0  0  0  0
    1.7460   17.2890   -9.3850 C   0  0  0  0  0  0  0  0  0  0  0  0
    0.7470   12.7200   -3.9520 C   0  0  1  0  0  0  0  0  0  0  0  0
    1.8760   11.7200   -4.3200 C   0  0  0  0  0  0  0  0  0  0  0  0
    1.6670   10.4640   -3.4350 C   0  0  0  0  0  0  0  0  0  0  0  0
    0.2520   10.6410   -2.8360 C   0  0  1  0  0  0  0  0  0  0  0  0
   -0.7220   10.1650   -3.9600 C   0  0  0  0  0  0  0  0  0  0  0  0
   -0.0240    9.9040   -1.4850 C   0  0  2  0  0  0  0  0  0  0  0  0
    0.0740    8.3690   -1.5460 C   0  0  0  0  0  0  0  0  0  0  0  0
   -1.2010    7.6620   -1.8680 C   0  0  0  0  0  0  0  0  0  0  0  0
   -2.4310    8.2050   -1.8190 C   0  0  0  0  0  0  0  0  0  0  0  0
   -2.6390    9.6390   -1.3130 C   0  0  1  0  0  0  0  0  0  0  0  0
   -3.8230    9.6670   -0.3110 C   0  0  0  0  0  0  0  0  0  0  0  0
   -5.0970    9.0640   -0.8930 C   0  0  0  0  0  0  0  0  0  0  0  0
   -4.8660    7.6200   -1.3310 C   0  0  2  0  0  0  0  0  0  0  0  0
   -4.6170    6.8200   -0.1710 O   0  0  0  0  0  0  0  0  0  0  0  0
   -3.6890    7.4650   -2.3350 C   0  0  0  0  0  0  0  0  0  0  0  0
   -4.0870    8.0770   -3.7010 C   0  0  0  0  0  0  0  0  0  0  0  0
   -3.4720    5.9480   -2.5860 C   0  0  0  0  0  0  0  0  0  0  0  0
   -1.3450   10.3700   -0.7500 C   0  0  1  0  0  0  0  0  0  0  0  0
   -1.1580   10.0310    0.7610 C   0  0  0  0  0  0  0  0  0  0  0  0
   -1.5580   11.9280   -0.8320 C   0  0  0  0  0  0  0  0  0  0  0  0
   -1.1560   12.6150   -2.1510 C   0  0  0  0  0  0  0  0  0  0  0  0
    0.2520   12.1920   -2.5820 C   0  0  2  0  0  0  0  0  0  0  0  0
    1.2560   12.6760   -1.4810 C   0  0  0  0  0  0  0  0  0  0  0  0
    1.2083   14.1627   -1.8563 H   0  0  0  0  0  0  0  0  0  0  0  0
    1.5959   15.7530   -2.5960 H   0  0  0  0  0  0  0  0  0  0  0  0
   -0.0965   15.1511   -2.5960 H   0  0  0  0  0  0  0  0  0  0  0  0
    2.2856   14.2122   -4.2208 H   0  0  0  0  0  0  0  0  0  0  0  0
   -0.5639   14.5888   -5.1819 H   0  0  0  0  0  0  0  0  0  0  0  0
    0.6136   15.9764   -5.0036 H   0  0  0  0  0  0  0  0  0  0  0  0
    2.1713   14.4256   -6.4436 H   0  0  0  0  0  0  0  0  0  0  0  0
    0.5899   13.7017   -6.9564 H   0  0  0  0  0  0  0  0  0  0  0  0
    0.6081   16.4052   -6.6904 H   0  0  0  0  0  0  0  0  0  0  0  0
    3.2608   14.5872   -8.2270 H   0  0  0  0  0  0  0  0  0  0  0  0
    2.3872   14.1515   -9.7348 H   0  0  0  0  0  0  0  0  0  0  0  0
    3.5517   15.5191   -9.7348 H   0  0  0  0  0  0  0  0  0  0  0  0
    1.7759   18.0463   -8.5878 H   0  0  0  0  0  0  0  0  0  0  0  0
    2.6483   17.3766  -10.0080 H   0  0  0  0  0  0  0  0  0  0  0  0
    0.8534   17.4475  -10.0080 H   0  0  0  0  0  0  0  0  0  0  0  0
   -0.0900   12.7580   -4.6648 H   0  0  0  0  0  0  0  0  0  0  0  0
    1.8100   11.4489   -5.3840 H   0  0  0  0  0  0  0  0  0  0  0  0
    2.8679   12.1635   -4.1484 H   0  0  0  0  0  0  0  0  0  0  0  0
    1.7202    9.5480   -4.0417 H   0  0  0  0  0  0  0  0  0  0  0  0
    2.4400   10.3671   -2.6584 H   0  0  0  0  0  0  0  0  0  0  0  0
   -1.6214    9.7255   -3.5040 H   0  0  0  0  0  0  0  0  0  0  0  0
   -1.0097   11.0241   -4.5839 H   0  0  0  0  0  0  0  0  0  0  0  0
   -0.2210    9.4102   -4.5839 H   0  0  0  0  0  0  0  0  0  0  0  0
    0.8207   10.2323   -0.8615 H   0  0  0  0  0  0  0  0  0  0  0  0
    0.8130    8.1057   -2.3171 H   0  0  0  0  0  0  0  0  0  0  0  0
    0.3574    8.0412   -0.5349 H   0  0  0  0  0  0  0  0  0  0  0  0
   -1.1285    6.6071   -2.1712 H   0  0  0  0  0  0  0  0  0  0  0  0
   -2.8855   10.2422   -2.1992 H   0  0  0  0  0  0  0  0  0  0  0  0
   -3.5399    9.0954    0.5852 H   0  0  0  0  0  0  0  0  0  0  0  0
   -4.0319   10.7199   -0.0708 H   0  0  0  0  0  0  0  0  0  0  0  0
   -5.8877    9.0863   -0.1286 H   0  0  0  0  0  0  0  0  0  0  0  0
   -5.3953    9.6542   -1.7720 H   0  0  0  0  0  0  0  0  0  0  0  0
   -5.7728    7.2860   -1.8565 H   0  0  0  0  0  0  0  0  0  0  0  0
   -3.7600    6.3790   -0.2960 H   0  0  0  0  0  0  0  0  0  0  0  0
   -4.6799    8.9887   -3.5356 H   0  0  0  0  0  0  0  0  0  0  0  0
   -3.1790    8.3281   -4.2688 H   0  0  0  0  0  0  0  0  0  0  0  0
   -4.6848    7.3488   -4.2688 H   0  0  0  0  0  0  0  0  0  0  0  0
   -3.3970    5.4239   -1.6218 H   0  0  0  0  0  0  0  0  0  0  0  0
   -4.3217    5.5456   -3.1570 H   0  0  0  0  0  0  0  0  0  0  0  0
   -2.5435    5.8000   -3.1570 H   0  0  0  0  0  0  0  0  0  0  0  0
   -1.5993   10.8310    1.3736 H   0  0  0  0  0  0  0  0  0  0  0  0
   -1.6578    9.0777    0.9875 H   0  0  0  0  0  0  0  0  0  0  0  0
   -0.0850    9.9453    0.9875 H   0  0  0  0  0  0  0  0  0  0  0  0
   -2.6269   12.1271   -0.6653 H   0  0  0  0  0  0  0  0  0  0  0  0
   -0.8864   12.3511   -0.0705 H   0  0  0  0  0  0  0  0  0  0  0  0
   -1.8727   12.3334   -2.9365 H   0  0  0  0  0  0  0  0  0  0  0  0
   -1.1633   13.7040   -1.9960 H   0  0  0  0  0  0  0  0  0  0  0  0
    0.8345   12.4728   -0.4855 H   0  0  0  0  0  0  0  0  0  0  0  0
    2.2093   12.1385   -1.5922 H   0  0  0  0  0  0  0  0  0  0  0  0
    1.4292   13.7566   -1.5922 H   0  0  0  0  0  0  0  0  0  0  0  0
  1  2  1  0
  2  3  1  0
  3  4  1  0
  4  5  1  0
  5  6  1  0
  6  7  1  0
  7  8  1  0
  7  9  1  0
  2 10  1  0
 10 11  1  0
 11 12  1  0
 12 13  1  0
 13 14  1  6
 13 15  1  0
 15 16  1  0
 16 17  1  0
 17 18  2  0
 18 19  1  0
 19 20  1  0
 20 21  1  0
 21 22  1  0
 22 23  1  0
 22 24  1  0
 24 25  1  0
 24 26  1  0
 19 27  1  0
 27 28  1  1
 27 29  1  0
 29 30  1  0
 30 31  1  0
 31 32  1  1
  7  5  1  0
 31 10  1  0
 31 13  1  0
 27 15  1  0
 24 18  1  0
  1 33  1  0
  1 34  1  0
  1 35  1  0
  2 36  1  6
  3 37  1  0
  3 38  1  0
  4 39  1  0
  4 40  1  0
  5 41  1  1
  8 42  1  0
  8 43  1  0
  8 44  1  0
  9 45  1  0
  9 46  1  0
  9 47  1  0
 10 48  1  6
 11 49  1  0
 11 50  1  0
 12 51  1  0
 12 52  1  0
 14 53  1  0
 14 54  1  0
 14 55  1  0
 15 56  1  1
 16 57  1  0
 16 58  1  0
 17 59  1  0
 19 60  1  6
 20 61  1  0
 20 62  1  0
 21 63  1  0
 21 64  1  0
 22 65  1  6
 23 66  1  0
 25 67  1  0
 25 68  1  0
 25 69  1  0
 26 70  1  0
 26 71  1  0
 26 72  1  0
 28 73  1  0
 28 74  1  0
 28 75  1  0
 29 76  1  0
 29 77  1  0
 30 78  1  0
 30 79  1  0
 32 80  1  0
 32 81  1  0
 32 82  1  0
M  END
>  <meeko>  (18) 
{"is_sidechain": [false], "intermolecular_energy": 2.731, "internal_energy": -0.839}

$$$$
EPH_relaxed_0001_pdb2pqr_Repair_279_r2_0001_out
     RDKit          3D

 82 86  0  0  0  0  0  0  0  0999 V2000
   -2.8490   10.9310   -0.6500 C   0  0  0  0  0  0  0  0  0  0  0  0
   -1.3390   10.6820   -0.5880 C   0  0  2  0  0  0  0  0  0  0  0  0
   -0.9850    9.4860    0.3190 C   0  0  0  0  0  0  0  0  0  0  0  0
   -0.7880    8.1730   -0.4440 C   0  0  0  0  0  0  0  0  0  0  0  0
   -0.8130    8.3840   -1.9270 C   0  0  2  0  0  0  0  0  0  0  0  0
    0.0730    7.5350   -2.6680 O   0  0  0  0  0  0  0  0  0  0  0  0
    0.3590    8.9420   -2.7120 C   0  0  0  0  0  0  0  0  0  0  0  0
    1.6390    9.3240   -2.0380 C   0  0  0  0  0  0  0  0  0  0  0  0
    0.0940    9.5690   -4.0460 C   0  0  0  0  0  0  0  0  0  0  0  0
   -0.6250   11.9360   -0.0980 C   0  0  1  0  0  0  0  0  0  0  0  0
    0.5110   11.6210    0.9120 C   0  0  0  0  0  0  0  0  0  0  0  0
    1.6360   12.6560    0.6570 C   0  0  0  0  0  0  0  0  0  0  0  0
    0.9840   13.7260   -0.2490 C   0  0  1  0  0  0  0  0  0  0  0  0
    0.1850   14.6460    0.7270 C   0  0  0  0  0  0  0  0  0  0  0  0
    1.9550   14.5510   -1.1550 C   0  0  2  0  0  0  0  0  0  0  0  0
    2.9860   15.4060   -0.3970 C   0  0  0  0  0  0  0  0  0  0  0  0
    2.5500   16.7980   -0.0790 C   0  0  0  0  0  0  0  0  0  0  0  0
    1.5000   17.4340   -0.6310 C   0  0  0  0  0  0  0  0  0  0  0  0
    0.6850   16.7800   -1.7540 C   0  0  1  0  0  0  0  0  0  0  0  0
    0.4570   17.8070   -2.8940 C   0  0  0  0  0  0  0  0  0  0  0  0
   -0.1720   19.1050   -2.3960 C   0  0  0  0  0  0  0  0  0  0  0  0
    0.6970   19.7550   -1.3220 C   0  0  2  0  0  0  0  0  0  0  0  0
    1.9240   20.1850   -1.9200 O   0  0  0  0  0  0  0  0  0  0  0  0
    1.0020   18.8100   -0.1260 C   0  0  0  0  0  0  0  0  0  0  0  0
   -0.2880   18.5860    0.7020 C   0  0  0  0  0  0  0  0  0  0  0  0
    2.0000   19.5380    0.8150 C   0  0  0  0  0  0  0  0  0  0  0  0
    1.2330   15.3870   -2.2880 C   0  0  1  0  0  0  0  0  0  0  0  0
    2.2910   15.6260   -3.4080 C   0  0  0  0  0  0  0  0  0  0  0  0
    0.0500   14.5910   -2.9560 C   0  0  0  0  0  0  0  0  0  0  0  0
   -0.8000   13.7010   -2.0290 C   0  0  0  0  0  0  0  0  0  0  0  0
    0.0910   12.8070   -1.1600 C   0  0  2  0  0  0  0  0  0  0  0  0
    0.8900   11.8560   -2.1150 C   0  0  0  0  0  0  0  0  0  0  0  0
   -3.2519   10.9974    0.3714 H   0  0  0  0  0  0  0  0  0  0  0  0
   -3.0436   11.8734   -1.1830 H   0  0  0  0  0  0  0  0  0  0  0  0
   -3.3359   10.1010   -1.1830 H   0  0  0  0  0  0  0  0  0  0  0  0
   -1.0020   10.4362   -1.6058 H   0  0  0  0  0  0  0  0  0  0  0  0
   -0.0530    9.7199    0.8544 H   0  0  0  0  0  0  0  0  0  0  0  0
   -1.8346    9.3372    1.0016 H   0  0  0  0  0  0  0  0  0  0  0  0
    0.1828    7.7392   -0.1621 H   0  0  0  0  0  0  0  0  0  0  0  0
   -1.6141    7.4962   -0.1803 H   0  0  0  0  0  0  0  0  0  0  0  0
   -1.8772    8.6602   -1.8933 H   0  0  0  0  0  0  0  0  0  0  0  0
    1.5050    9.2840   -0.9469 H   0  0  0  0  0  0  0  0  0  0  0  0
    2.4334    8.6238   -2.3358 H   0  0  0  0  0  0  0  0  0  0  0  0
    1.9197   10.3451   -2.3358 H   0  0  0  0  0  0  0  0  0  0  0  0
   -0.3305   10.5734   -3.9012 H   0  0  0  0  0  0  0  0  0  0  0  0
    1.0362    9.6467   -4.6083 H   0  0  0  0  0  0  0  0  0  0  0  0
   -0.6184    8.9474   -4.6083 H   0  0  0  0  0  0  0  0  0  0  0  0
   -1.4815   12.4831    0.3229 H   0  0  0  0  0  0  0  0  0  0  0  0
    0.1379   11.7134    1.9426 H   0  0  0  0  0  0  0  0  0  0  0  0
    0.8823   10.5939    0.7810 H   0  0  0  0  0  0  0  0  0  0  0  0
    1.9745   13.1026    1.6035 H   0  0  0  0  0  0  0  0  0  0  0  0
    2.5236   12.2013    0.1929 H   0  0  0  0  0  0  0  0  0  0  0  0
    0.4225   14.3726    1.7657 H   0  0  0  0  0  0  0  0  0  0  0  0
    0.4629   15.6958    0.5515 H   0  0  0  0  0  0  0  0  0  0  0  0
   -0.8933   14.5179    0.5515 H   0  0  0  0  0  0  0  0  0  0  0  0
    2.5326   13.7625   -1.6597 H   0  0  0  0  0  0  0  0  0  0  0  0
    3.2182   14.8978    0.5505 H   0  0  0  0  0  0  0  0  0  0  0  0
    3.8520   15.5043   -1.0681 H   0  0  0  0  0  0  0  0  0  0  0  0
    3.1365   17.3506    0.6698 H   0  0  0  0  0  0  0  0  0  0  0  0
   -0.2796   16.4996   -1.3058 H   0  0  0  0  0  0  0  0  0  0  0  0
    1.4270   18.0404   -3.3573 H   0  0  0  0  0  0  0  0  0  0  0  0
   -0.2387   17.3548   -3.6162 H   0  0  0  0  0  0  0  0  0  0  0  0
   -0.2799   19.8004   -3.2415 H   0  0  0  0  0  0  0  0  0  0  0  0
   -1.1553   18.8743   -1.9602 H   0  0  0  0  0  0  0  0  0  0  0  0
    0.1341   20.6070   -0.9131 H   0  0  0  0  0  0  0  0  0  0  0  0
    2.1610   21.0400   -1.5220 H   0  0  0  0  0  0  0  0  0  0  0  0
   -0.0472   18.6278    1.7745 H   0  0  0  0  0  0  0  0  0  0  0  0
   -1.0201   19.3705    0.4597 H   0  0  0  0  0  0  0  0  0  0  0  0
   -0.7127   17.6007    0.4597 H   0  0  0  0  0  0  0  0  0  0  0  0
    1.7279   19.3395    1.8622 H   0  0  0  0  0  0  0  0  0  0  0  0
    3.0188   19.1695    0.6247 H   0  0  0  0  0  0  0  0  0  0  0  0
    1.9602   20.6207    0.6247 H   0  0  0  0  0  0  0  0  0  0  0  0
    3.2665   15.8464   -2.9499 H   0  0  0  0  0  0  0  0  0  0  0  0
    2.3744   14.7241   -4.0321 H   0  0  0  0  0  0  0  0  0  0  0  0
    1.9786   16.4762   -4.0321 H   0  0  0  0  0  0  0  0  0  0  0  0
   -0.6238   15.3252   -3.4218 H   0  0  0  0  0  0  0  0  0  0  0  0
    0.5320   13.8960   -3.6593 H   0  0  0  0  0  0  0  0  0  0  0  0
   -1.4122   14.3415   -1.3771 H   0  0  0  0  0  0  0  0  0  0  0  0
   -1.4419   13.0591   -2.6503 H   0  0  0  0  0  0  0  0  0  0  0  0
    1.4836   11.1495   -1.5163 H   0  0  0  0  0  0  0  0  0  0  0  0
    0.1860   11.2977   -2.7496 H   0  0  0  0  0  0  0  0  0  0  0  0
    1.5613   12.4532   -2.7496 H   0  0  0  0  0  0  0  0  0  0  0  0
  1  2  1  0
  2  3  1  0
  3  4  1  0
  4  5  1  0
  5  6  1  0
  6  7  1  0
  7  8  1  0
  7  9  1  0
  2 10  1  0
 10 11  1  0
 11 12  1  0
 12 13  1  0
 13 14  1  1
 13 15  1  0
 15 16  1  0
 16 17  1  0
 17 18  2  0
 18 19  1  0
 19 20  1  0
 20 21  1  0
 21 22  1  0
 22 23  1  0
 22 24  1  0
 24 25  1  0
 24 26  1  0
 19 27  1  0
 27 28  1  6
 27 29  1  0
 29 30  1  0
 30 31  1  0
 31 32  1  6
  7  5  1  0
 31 10  1  0
 31 13  1  0
 27 15  1  0
 24 18  1  0
  1 33  1  0
  1 34  1  0
  1 35  1  0
  2 36  1  6
  3 37  1  0
  3 38  1  0
  4 39  1  0
  4 40  1  0
  5 41  1  6
  8 42  1  0
  8 43  1  0
  8 44  1  0
  9 45  1  0
  9 46  1  0
  9 47  1  0
 10 48  1  1
 11 49  1  0
 11 50  1  0
 12 51  1  0
 12 52  1  0
 14 53  1  0
 14 54  1  0
 14 55  1  0
 15 56  1  6
 16 57  1  0
 16 58  1  0
 17 59  1  0
 19 60  1  1
 20 61  1  0
 20 62  1  0
 21 63  1  0
 21 64  1  0
 22 65  1  1
 23 66  1  0
 25 67  1  0
 25 68  1  0
 25 69  1  0
 26 70  1  0
 26 71  1  0
 26 72  1  0
 28 73  1  0
 28 74  1  0
 28 75  1  0
 29 76  1  0
 29 77  1  0
 30 78  1  0
 30 79  1  0
 32 80  1  0
 32 81  1  0
 32 82  1  0
M  END
>  <meeko>  (19) 
{"is_sidechain": [false], "intermolecular_energy": 2.731, "internal_energy": -0.839}

$$$$
EPH_relaxed_0001_pdb2pqr_Repair_279_r2_0001_out
     RDKit          3D

 82 86  0  0  0  0  0  0  0  0999 V2000
   -2.4670    7.7600   -0.0790 C   0  0  0  0  0  0  0  0  0  0  0  0
   -3.0940    9.1570   -0.0770 C   0  0  2  0  0  0  0  0  0  0  0  0
   -4.5830    9.1260   -0.4770 C   0  0  0  0  0  0  0  0  0  0  0  0
   -5.1800    7.7170   -0.5190 C   0  0  0  0  0  0  0  0  0  0  0  0
   -5.9020    7.4590   -1.8060 C   0  0  2  0  0  0  0  0  0  0  0  0
   -6.8740    8.4520   -2.1580 O   0  0  0  0  0  0  0  0  0  0  0  0
   -7.3830    7.1370   -1.8850 C   0  0  0  0  0  0  0  0  0  0  0  0
   -8.2300    7.0550   -0.6540 C   0  0  0  0  0  0  0  0  0  0  0  0
   -7.8970    6.4260   -3.0980 C   0  0  0  0  0  0  0  0  0  0  0  0
   -2.3210   10.0750   -1.0160 C   0  0  1  0  0  0  0  0  0  0  0  0
   -2.9600   11.4840   -1.1340 C   0  0  0  0  0  0  0  0  0  0  0  0
   -1.7930   12.4930   -1.2940 C   0  0  0  0  0  0  0  0  0  0  0  0
   -0.5570   11.6140   -1.5950 C   0  0  1  0  0  0  0  0  0  0  0  0
   -0.6540   11.2920   -3.1190 C   0  0  0  0  0  0  0  0  0  0  0  0
    0.8330   12.2260   -1.2210 C   0  0  2  0  0  0  0  0  0  0  0  0
    1.2040   13.5130   -1.9780 C   0  0  0  0  0  0  0  0  0  0  0  0
    1.9510   13.3090   -3.2540 C   0  0  0  0  0  0  0  0  0  0  0  0
    2.5580   12.1690   -3.6320 C   0  0  0  0  0  0  0  0  0  0  0  0
    2.6120   10.9570   -2.6930 C   0  0  1  0  0  0  0  0  0  0  0  0
    4.0530   10.3830   -2.6720 C   0  0  0  0  0  0  0  0  0  0  0  0
    4.5750   10.0620   -4.0690 C   0  0  0  0  0  0  0  0  0  0  0  0
    4.5600   11.3040   -4.9550 C   0  0  2  0  0  0  0  0  0  0  0  0
    5.5140   12.2440   -4.4490 O   0  0  0  0  0  0  0  0  0  0  0  0
    3.1620   11.9760   -5.0450 C   0  0  0  0  0  0  0  0  0  0  0  0
    2.2040   11.0760   -5.8640 C   0  0  0  0  0  0  0  0  0  0  0  0
    3.3160   13.2940   -5.8520 C   0  0  0  0  0  0  0  0  0  0  0  0
    2.0240   11.1840   -1.2340 C   0  0  1  0  0  0  0  0  0  0  0  0
    3.1300   11.7610   -0.2980 C   0  0  0  0  0  0  0  0  0  0  0  0
    1.6090    9.7930   -0.6250 C   0  0  0  0  0  0  0  0  0  0  0  0
    0.1820    9.2980   -0.9310 C   0  0  0  0  0  0  0  0  0  0  0  0
   -0.8500   10.3940   -0.6480 C   0  0  2  0  0  0  0  0  0  0  0  0
   -0.7910   10.7230    0.8830 C   0  0  0  0  0  0  0  0  0  0  0  0
   -2.3163    7.4242    0.9576 H   0  0  0  0  0  0  0  0  0  0  0  0
   -3.1365    7.0583   -0.5980 H   0  0  0  0  0  0  0  0  0  0  0  0
   -1.4977    7.7939   -0.5980 H   0  0  0  0  0  0  0  0  0  0  0  0
   -3.0368    9.5439    0.9511 H   0  0  0  0  0  0  0  0  0  0  0  0
   -5.1510    9.7222    0.2524 H   0  0  0  0  0  0  0  0  0  0  0  0
   -4.6505    9.5341   -1.4963 H   0  0  0  0  0  0  0  0  0  0  0  0
   -4.3681    6.9826   -0.4124 H   0  0  0  0  0  0  0  0  0  0  0  0
   -5.9040    7.6268    0.3042 H   0  0  0  0  0  0  0  0  0  0  0  0
   -5.0155    6.9652   -2.2307 H   0  0  0  0  0  0  0  0  0  0  0  0
   -7.5884    7.1171    0.2373 H   0  0  0  0  0  0  0  0  0  0  0  0
   -8.9486    7.8878   -0.6472 H   0  0  0  0  0  0  0  0  0  0  0  0
   -8.7755    6.0998   -0.6472 H   0  0  0  0  0  0  0  0  0  0  0  0
   -8.5152    5.5708   -2.7873 H   0  0  0  0  0  0  0  0  0  0  0  0
   -8.5046    7.1185   -3.6990 H   0  0  0  0  0  0  0  0  0  0  0  0
   -7.0489    6.0662   -3.6990 H   0  0  0  0  0  0  0  0  0  0  0  0
   -2.3567    9.4708   -1.9345 H   0  0  0  0  0  0  0  0  0  0  0  0
   -3.6214   11.5276   -2.0119 H   0  0  0  0  0  0  0  0  0  0  0  0
   -3.5657   11.7184   -0.2462 H   0  0  0  0  0  0  0  0  0  0  0  0
   -1.9893   13.1852   -2.1260 H   0  0  0  0  0  0  0  0  0  0  0  0
   -1.6540   13.1160   -0.3982 H   0  0  0  0  0  0  0  0  0  0  0  0
   -0.9689   10.2467   -3.2536 H   0  0  0  0  0  0  0  0  0  0  0  0
   -1.3907   11.9603   -3.5888 H   0  0  0  0  0  0  0  0  0  0  0  0
    0.3292   11.4421   -3.5888 H   0  0  0  0  0  0  0  0  0  0  0  0
    0.6842   12.5280   -0.1738 H   0  0  0  0  0  0  0  0  0  0  0  0
    0.2731   14.0505   -2.2113 H   0  0  0  0  0  0  0  0  0  0  0  0
    1.8809   14.0718   -1.3150 H   0  0  0  0  0  0  0  0  0  0  0  0
    2.0104   14.1634   -3.9443 H   0  0  0  0  0  0  0  0  0  0  0  0
    1.9200   10.2134   -3.1151 H   0  0  0  0  0  0  0  0  0  0  0  0
    4.7208   11.1235   -2.2075 H   0  0  0  0  0  0  0  0  0  0  0  0
    4.0300    9.4437   -2.1000 H   0  0  0  0  0  0  0  0  0  0  0  0
    5.6065    9.6879   -3.9908 H   0  0  0  0  0  0  0  0  0  0  0  0
    3.9230    9.3001   -4.5211 H   0  0  0  0  0  0  0  0  0  0  0  0
    4.8202   10.9839   -5.9747 H   0  0  0  0  0  0  0  0  0  0  0  0
    6.4000   11.9110   -4.6690 H   0  0  0  0  0  0  0  0  0  0  0  0
    1.5775   10.4874   -5.1777 H   0  0  0  0  0  0  0  0  0  0  0  0
    1.5621   11.7053   -6.4980 H   0  0  0  0  0  0  0  0  0  0  0  0
    2.7920   10.3961   -6.4980 H   0  0  0  0  0  0  0  0  0  0  0  0
    3.4149   14.1404   -5.1564 H   0  0  0  0  0  0  0  0  0  0  0  0
    4.2132   13.2333   -6.4856 H   0  0  0  0  0  0  0  0  0  0  0  0
    2.4290   13.4418   -6.4856 H   0  0  0  0  0  0  0  0  0  0  0  0
    2.8382   11.6088    0.7516 H   0  0  0  0  0  0  0  0  0  0  0  0
    4.0814   11.2443   -0.4927 H   0  0  0  0  0  0  0  0  0  0  0  0
    3.2505   12.8369   -0.4927 H   0  0  0  0  0  0  0  0  0  0  0  0
    2.3121    9.0389   -1.0084 H   0  0  0  0  0  0  0  0  0  0  0  0
    1.6360    9.9367    0.4652 H   0  0  0  0  0  0  0  0  0  0  0  0
    0.1203    9.0104   -1.9909 H   0  0  0  0  0  0  0  0  0  0  0  0
   -0.0363    8.4349   -0.2850 H   0  0  0  0  0  0  0  0  0  0  0  0
   -0.9560    9.8027    1.4624 H   0  0  0  0  0  0  0  0  0  0  0  0
    0.1963   11.1401    1.1306 H   0  0  0  0  0  0  0  0  0  0  0  0
   -1.5718   11.4572    1.1306 H   0  0  0  0  0  0  0  0  0  0  0  0
  1  2  1  0
  2  3  1  0
  3  4  1  0
  4  5  1  0
  5  6  1  0
  6  7  1  0
  7  8  1  0
  7  9  1  0
  2 10  1  0
 10 11  1  0
 11 12  1  0
 12 13  1  0
 13 14  1  6
 13 15  1  0
 15 16  1  0
 16 17  1  0
 17 18  2  0
 18 19  1  0
 19 20  1  0
 20 21  1  0
 21 22  1  0
 22 23  1  0
 22 24  1  0
 24 25  1  0
 24 26  1  0
 19 27  1  0
 27 28  1  1
 27 29  1  0
 29 30  1  0
 30 31  1  0
 31 32  1  1
  7  5  1  0
 31 10  1  0
 31 13  1  0
 27 15  1  0
 24 18  1  0
  1 33  1  0
  1 34  1  0
  1 35  1  0
  2 36  1  1
  3 37  1  0
  3 38  1  0
  4 39  1  0
  4 40  1  0
  5 41  1  6
  8 42  1  0
  8 43  1  0
  8 44  1  0
  9 45  1  0
  9 46  1  0
  9 47  1  0
 10 48  1  6
 11 49  1  0
 11 50  1  0
 12 51  1  0
 12 52  1  0
 14 53  1  0
 14 54  1  0
 14 55  1  0
 15 56  1  1
 16 57  1  0
 16 58  1  0
 17 59  1  0
 19 60  1  6
 20 61  1  0
 20 62  1  0
 21 63  1  0
 21 64  1  0
 22 65  1  6
 23 66  1  0
 25 67  1  0
 25 68  1  0
 25 69  1  0
 26 70  1  0
 26 71  1  0
 26 72  1  0
 28 73  1  0
 28 74  1  0
 28 75  1  0
 29 76  1  0
 29 77  1  0
 30 78  1  0
 30 79  1  0
 32 80  1  0
 32 81  1  0
 32 82  1  0
M  END
>  <meeko>  (20) 
{"is_sidechain": [false], "intermolecular_energy": 2.731, "internal_energy": -0.839}

$$$$
