EPH_relaxed_0001_pdb2pqr_Repair_107_r2_0001_out
     RDKit          3D

 82 86  0  0  0  0  0  0  0  0999 V2000
   -1.3260    8.4600   -1.3290 C   0  0  0  0  0  0  0  0  0  0  0  0
   -1.9410    9.2950   -0.2010 C   0  0  2  0  0  0  0  0  0  0  0  0
   -3.3740    9.7550   -0.5340 C   0  0  0  0  0  0  0  0  0  0  0  0
   -4.3680    8.6030   -0.6980 C   0  0  0  0  0  0  0  0  0  0  0  0
   -5.5970    9.0320   -1.4420 C   0  0  2  0  0  0  0  0  0  0  0  0
   -6.7540    8.2200   -1.2050 O   0  0  0  0  0  0  0  0  0  0  0  0
   -6.2360    8.2110   -2.5450 C   0  0  0  0  0  0  0  0  0  0  0  0
   -5.6660    6.8930   -2.9680 C   0  0  0  0  0  0  0  0  0  0  0  0
   -7.1170    8.9060   -3.5360 C   0  0  0  0  0  0  0  0  0  0  0  0
   -1.0590   10.5040    0.0900 C   0  0  1  0  0  0  0  0  0  0  0  0
    0.0410   10.2020    1.1430 C   0  0  0  0  0  0  0  0  0  0  0  0
    1.2890   11.0260    0.7350 C   0  0  0  0  0  0  0  0  0  0  0  0
    0.7690   12.0190   -0.3310 C   0  0  1  0  0  0  0  0  0  0  0  0
    0.1140   13.1770    0.4850 C   0  0  0  0  0  0  0  0  0  0  0  0
    1.8260   12.5570   -1.3490 C   0  0  2  0  0  0  0  0  0  0  0  0
    2.9730   13.3740   -0.7290 C   0  0  0  0  0  0  0  0  0  0  0  0
    2.7290   14.8440   -0.6350 C   0  0  0  0  0  0  0  0  0  0  0  0
    1.7640   15.5200   -1.2860 C   0  0  0  0  0  0  0  0  0  0  0  0
    0.8520   14.8130   -2.2970 C   0  0  1  0  0  0  0  0  0  0  0  0
    0.7440   15.6710   -3.5850 C   0  0  0  0  0  0  0  0  0  0  0  0
    0.3000   17.1020   -3.2990 C   0  0  0  0  0  0  0  0  0  0  0  0
    1.2630   17.7910   -2.3360 C   0  0  2  0  0  0  0  0  0  0  0  0
    2.5270   17.9560   -2.9870 O   0  0  0  0  0  0  0  0  0  0  0  0
    1.4590   17.0120   -1.0050 C   0  0  0  0  0  0  0  0  0  0  0  0
    0.1650   17.0930   -0.1590 C   0  0  0  0  0  0  0  0  0  0  0  0
    2.5600   17.7390   -0.1850 C   0  0  0  0  0  0  0  0  0  0  0  0
    1.2030   13.2940   -2.6030 C   0  0  1  0  0  0  0  0  0  0  0  0
    2.2660   13.2120   -3.7410 C   0  0  0  0  0  0  0  0  0  0  0  0
   -0.0850   12.5680   -3.1450 C   0  0  0  0  0  0  0  0  0  0  0  0
   -1.0300   11.9540   -2.0950 C   0  0  0  0  0  0  0  0  0  0  0  0
   -0.2520   11.0960   -1.0920 C   0  0  2  0  0  0  0  0  0  0  0  0
    0.4000    9.9100   -1.8810 C   0  0  0  0  0  0  0  0  0  0  0  0
   -0.7261    7.6455   -0.8970 H   0  0  0  0  0  0  0  0  0  0  0  0
   -2.1284    8.0349   -1.9499 H   0  0  0  0  0  0  0  0  0  0  0  0
   -0.6820    9.1002   -1.9499 H   0  0  0  0  0  0  0  0  0  0  0  0
   -1.9999    8.6545    0.6913 H   0  0  0  0  0  0  0  0  0  0  0  0
   -3.7276   10.4055    0.2795 H   0  0  0  0  0  0  0  0  0  0  0  0
   -3.3269   10.2786   -1.5002 H   0  0  0  0  0  0  0  0  0  0  0  0
   -3.8809    7.7884   -1.2541 H   0  0  0  0  0  0  0  0  0  0  0  0
   -4.6735    8.2687    0.3044 H   0  0  0  0  0  0  0  0  0  0  0  0
   -5.2877   10.0864   -1.3922 H   0  0  0  0  0  0  0  0  0  0  0  0
   -5.4101    6.3012   -2.0768 H   0  0  0  0  0  0  0  0  0  0  0  0
   -6.4089    6.3481   -3.5690 H   0  0  0  0  0  0  0  0  0  0  0  0
   -4.7602    7.0612   -3.5690 H   0  0  0  0  0  0  0  0  0  0  0  0
   -7.8718    9.5014   -3.0014 H   0  0  0  0  0  0  0  0  0  0  0  0
   -6.5070    9.5688   -4.1674 H   0  0  0  0  0  0  0  0  0  0  0  0
   -7.6196    8.1585   -4.1674 H   0  0  0  0  0  0  0  0  0  0  0  0
   -1.8285   11.2194    0.4159 H   0  0  0  0  0  0  0  0  0  0  0  0
   -0.3006   10.5026    2.1445 H   0  0  0  0  0  0  0  0  0  0  0  0
    0.2712    9.1269    1.1764 H   0  0  0  0  0  0  0  0  0  0  0  0
    1.6984   11.5657    1.6017 H   0  0  0  0  0  0  0  0  0  0  0  0
    2.1016   10.3909    0.3526 H   0  0  0  0  0  0  0  0  0  0  0  0
    0.2271   12.9771    1.5608 H   0  0  0  0  0  0  0  0  0  0  0  0
    0.6084   14.1272    0.2347 H   0  0  0  0  0  0  0  0  0  0  0  0
   -0.9551   13.2429    0.2347 H   0  0  0  0  0  0  0  0  0  0  0  0
    2.2870   11.6301   -1.7208 H   0  0  0  0  0  0  0  0  0  0  0  0
    3.1512   12.9931    0.2875 H   0  0  0  0  0  0  0  0  0  0  0  0
    3.8340   13.2503   -1.4023 H   0  0  0  0  0  0  0  0  0  0  0  0
    3.3942   15.4237    0.0219 H   0  0  0  0  0  0  0  0  0  0  0  0
   -0.1342   14.7366   -1.8158 H   0  0  0  0  0  0  0  0  0  0  0  0
    1.7289   15.6985   -4.0740 H   0  0  0  0  0  0  0  0  0  0  0  0
   -0.0162   15.2084   -4.2316 H   0  0  0  0  0  0  0  0  0  0  0  0
    0.2712   17.6653   -4.2434 H   0  0  0  0  0  0  0  0  0  0  0  0
   -0.6977   17.0737   -2.8367 H   0  0  0  0  0  0  0  0  0  0  0  0
    0.8237   18.7635   -2.0693 H   0  0  0  0  0  0  0  0  0  0  0  0
    2.3510   18.1740   -3.9180 H   0  0  0  0  0  0  0  0  0  0  0  0
    0.4242   17.0768    0.9099 H   0  0  0  0  0  0  0  0  0  0  0  0
   -0.3682   18.0263   -0.3929 H   0  0  0  0  0  0  0  0  0  0  0  0
   -0.4804   16.2335   -0.3929 H   0  0  0  0  0  0  0  0  0  0  0  0
    2.3630   17.6089    0.8894 H   0  0  0  0  0  0  0  0  0  0  0  0
    3.5432   17.3119   -0.4319 H   0  0  0  0  0  0  0  0  0  0  0  0
    2.5534   18.8109   -0.4319 H   0  0  0  0  0  0  0  0  0  0  0  0
    3.2705   13.1345   -3.2995 H   0  0  0  0  0  0  0  0  0  0  0  0
    2.0696   12.3263   -4.3631 H   0  0  0  0  0  0  0  0  0  0  0  0
    2.2077   14.1173   -4.3631 H   0  0  0  0  0  0  0  0  0  0  0  0
   -0.6632   13.3037   -3.7233 H   0  0  0  0  0  0  0  0  0  0  0  0
    0.2900   11.7144   -3.7288 H   0  0  0  0  0  0  0  0  0  0  0  0
   -1.5422   12.7637   -1.5547 H   0  0  0  0  0  0  0  0  0  0  0  0
   -1.7601   11.3139   -2.6119 H   0  0  0  0  0  0  0  0  0  0  0  0
    0.8042    9.1747   -1.1697 H   0  0  0  0  0  0  0  0  0  0  0  0
   -0.3603    9.4286   -2.5136 H   0  0  0  0  0  0  0  0  0  0  0  0
    1.2138   10.2939   -2.5136 H   0  0  0  0  0  0  0  0  0  0  0  0
  1  2  1  0
  2  3  1  0
  3  4  1  0
  4  5  1  0
  5  6  1  0
  6  7  1  0
  7  8  1  0
  7  9  1  0
  2 10  1  0
 10 11  1  0
 11 12  1  0
 12 13  1  0
 13 14  1  1
 13 15  1  0
 15 16  1  0
 16 17  1  0
 17 18  2  0
 18 19  1  0
 19 20  1  0
 20 21  1  0
 21 22  1  0
 22 23  1  0
 22 24  1  0
 24 25  1  0
 24 26  1  0
 19 27  1  0
 27 28  1  6
 27 29  1  0
 29 30  1  0
 30 31  1  0
 31 32  1  6
  7  5  1  0
 31 10  1  0
 31 13  1  0
 27 15  1  0
 24 18  1  0
  1 33  1  0
  1 34  1  0
  1 35  1  0
  2 36  1  1
  3 37  1  0
  3 38  1  0
  4 39  1  0
  4 40  1  0
  5 41  1  6
  8 42  1  0
  8 43  1  0
  8 44  1  0
  9 45  1  0
  9 46  1  0
  9 47  1  0
 10 48  1  1
 11 49  1  0
 11 50  1  0
 12 51  1  0
 12 52  1  0
 14 53  1  0
 14 54  1  0
 14 55  1  0
 15 56  1  6
 16 57  1  0
 16 58  1  0
 17 59  1  0
 19 60  1  1
 20 61  1  0
 20 62  1  0
 21 63  1  0
 21 64  1  0
 22 65  1  1
 23 66  1  0
 25 67  1  0
 25 68  1  0
 25 69  1  0
 26 70  1  0
 26 71  1  0
 26 72  1  0
 28 73  1  0
 28 74  1  0
 28 75  1  0
 29 76  1  0
 29 77  1  0
 30 78  1  0
 30 79  1  0
 32 80  1  0
 32 81  1  0
 32 82  1  0
M  END
>  <meeko>  (1) 
{"is_sidechain": [false], "intermolecular_energy": 2.731, "internal_energy": -0.839}

$$$$
EPH_relaxed_0001_pdb2pqr_Repair_107_r2_0001_out
     RDKit          3D

 82 86  0  0  0  0  0  0  0  0999 V2000
    4.1630   17.7570   -0.6350 C   0  0  0  0  0  0  0  0  0  0  0  0
    2.8070   18.2770   -0.1500 C   0  0  2  0  0  0  0  0  0  0  0  0
    2.8990   18.9250    1.2460 C   0  0  0  0  0  0  0  0  0  0  0  0
    4.2500   18.7150    1.9340 C   0  0  0  0  0  0  0  0  0  0  0  0
    4.2620   19.2890    3.3190 C   0  0  2  0  0  0  0  0  0  0  0  0
    5.3450   20.1900    3.5840 O   0  0  0  0  0  0  0  0  0  0  0  0
    5.3330   18.9720    4.3460 C   0  0  0  0  0  0  0  0  0  0  0  0
    6.4660   18.0460    4.0320 C   0  0  0  0  0  0  0  0  0  0  0  0
    5.0150   19.1720    5.7950 C   0  0  0  0  0  0  0  0  0  0  0  0
    1.7910   17.1410   -0.1310 C   0  0  1  0  0  0  0  0  0  0  0  0
    0.3480   17.6240   -0.4340 C   0  0  0  0  0  0  0  0  0  0  0  0
   -0.3460   16.4900   -1.2320 C   0  0  0  0  0  0  0  0  0  0  0  0
    0.5950   15.2720   -1.0750 C   0  0  1  0  0  0  0  0  0  0  0  0
    0.2460   14.6730    0.3240 C   0  0  0  0  0  0  0  0  0  0  0  0
    0.5180   14.1900   -2.2010 C   0  0  2  0  0  0  0  0  0  0  0  0
   -0.8440   13.4870   -2.3380 C   0  0  0  0  0  0  0  0  0  0  0  0
   -1.0050   12.2460   -1.5240 C   0  0  0  0  0  0  0  0  0  0  0  0
   -0.0070   11.5600   -0.9370 C   0  0  0  0  0  0  0  0  0  0  0  0
    1.4570   11.9660   -1.1470 C   0  0  1  0  0  0  0  0  0  0  0  0
    2.3030   10.7050   -1.4670 C   0  0  0  0  0  0  0  0  0  0  0  0
    2.1460    9.6130   -0.4140 C   0  0  0  0  0  0  0  0  0  0  0  0
    0.6840    9.1950   -0.2750 C   0  0  2  0  0  0  0  0  0  0  0  0
    0.2710    8.5550   -1.4870 O   0  0  0  0  0  0  0  0  0  0  0  0
   -0.2660   10.3840    0.0370 C   0  0  0  0  0  0  0  0  0  0  0  0
   -0.0140   10.8860    1.4810 C   0  0  0  0  0  0  0  0  0  0  0  0
   -1.7240    9.8510    0.0110 C   0  0  0  0  0  0  0  0  0  0  0  0
    1.7080   13.1470   -2.1800 C   0  0  1  0  0  0  0  0  0  0  0  0
    1.8230   12.5740   -3.6260 C   0  0  0  0  0  0  0  0  0  0  0  0
    3.0920   13.8250   -1.8600 C   0  0  0  0  0  0  0  0  0  0  0  0
    3.0840   14.9680   -0.8270 C   0  0  0  0  0  0  0  0  0  0  0  0
    1.9910   15.9910   -1.1500 C   0  0  2  0  0  0  0  0  0  0  0  0
    2.3270   16.6260   -2.5420 C   0  0  0  0  0  0  0  0  0  0  0  0
    4.7945   17.5149    0.2325 H   0  0  0  0  0  0  0  0  0  0  0  0
    4.0128   16.8527   -1.2430 H   0  0  0  0  0  0  0  0  0  0  0  0
    4.6560   18.5299   -1.2430 H   0  0  0  0  0  0  0  0  0  0  0  0
    2.4803   19.0560   -0.8546 H   0  0  0  0  0  0  0  0  0  0  0  0
    2.7282   20.0064    1.1388 H   0  0  0  0  0  0  0  0  0  0  0  0
    2.1386   18.4404    1.8761 H   0  0  0  0  0  0  0  0  0  0  0  0
    4.4559   17.6361    1.9934 H   0  0  0  0  0  0  0  0  0  0  0  0
    5.0202   19.2312    1.3421 H   0  0  0  0  0  0  0  0  0  0  0  0
    3.1634   19.2612    3.3659 H   0  0  0  0  0  0  0  0  0  0  0  0
    6.9121   17.6814    4.9691 H   0  0  0  0  0  0  0  0  0  0  0  0
    6.0910   17.1925    3.4481 H   0  0  0  0  0  0  0  0  0  0  0  0
    7.2277   18.5834    3.4481 H   0  0  0  0  0  0  0  0  0  0  0  0
    5.7869   18.6865    6.4102 H   0  0  0  0  0  0  0  0  0  0  0  0
    4.9904   20.2485    6.0198 H   0  0  0  0  0  0  0  0  0  0  0  0
    4.0340   18.7279    6.0198 H   0  0  0  0  0  0  0  0  0  0  0  0
    1.9498   16.7693    0.8920 H   0  0  0  0  0  0  0  0  0  0  0  0
   -0.1933   17.8123    0.5049 H   0  0  0  0  0  0  0  0  0  0  0  0
    0.3583   18.5618   -1.0089 H   0  0  0  0  0  0  0  0  0  0  0  0
   -1.3388   16.2707   -0.8121 H   0  0  0  0  0  0  0  0  0  0  0  0
   -0.5079   16.7597   -2.2861 H   0  0  0  0  0  0  0  0  0  0  0  0
    0.6319   15.3352    1.1130 H   0  0  0  0  0  0  0  0  0  0  0  0
   -0.8459   14.5830    0.4223 H   0  0  0  0  0  0  0  0  0  0  0  0
    0.7062   13.6787    0.4223 H   0  0  0  0  0  0  0  0  0  0  0  0
    0.6369   14.7909   -3.1146 H   0  0  0  0  0  0  0  0  0  0  0  0
   -1.6258   14.1979   -2.0324 H   0  0  0  0  0  0  0  0  0  0  0  0
   -0.9206   13.1736   -3.3896 H   0  0  0  0  0  0  0  0  0  0  0  0
   -2.0264   11.8593   -1.3928 H   0  0  0  0  0  0  0  0  0  0  0  0
    1.7894   12.4076   -0.1960 H   0  0  0  0  0  0  0  0  0  0  0  0
    1.9845   10.3044   -2.4407 H   0  0  0  0  0  0  0  0  0  0  0  0
    3.3607   11.0069   -1.4800 H   0  0  0  0  0  0  0  0  0  0  0  0
    2.7438    8.7385   -0.7104 H   0  0  0  0  0  0  0  0  0  0  0  0
    2.4923   10.0057    0.5534 H   0  0  0  0  0  0  0  0  0  0  0  0
    0.6172    8.5073    0.5810 H   0  0  0  0  0  0  0  0  0  0  0  0
    0.4810    7.6090   -1.4060 H   0  0  0  0  0  0  0  0  0  0  0  0
   -0.3880   10.1410    2.1987 H   0  0  0  0  0  0  0  0  0  0  0  0
    1.0651   11.0338    1.6347 H   0  0  0  0  0  0  0  0  0  0  0  0
   -0.5402   11.8396    1.6347 H   0  0  0  0  0  0  0  0  0  0  0  0
   -2.0846    9.7192    1.0418 H   0  0  0  0  0  0  0  0  0  0  0  0
   -2.3685   10.5717   -0.5136 H   0  0  0  0  0  0  0  0  0  0  0  0
   -1.7518    8.8846   -0.5136 H   0  0  0  0  0  0  0  0  0  0  0  0
    2.0392   11.4966   -3.5773 H   0  0  0  0  0  0  0  0  0  0  0  0
    0.8748   12.7339   -4.1603 H   0  0  0  0  0  0  0  0  0  0  0  0
    2.6360   13.0874   -4.1603 H   0  0  0  0  0  0  0  0  0  0  0  0
    3.7671   13.0419   -1.4844 H   0  0  0  0  0  0  0  0  0  0  0  0
    3.4081   14.2928   -2.8040 H   0  0  0  0  0  0  0  0  0  0  0  0
    2.8998   14.5481    0.1729 H   0  0  0  0  0  0  0  0  0  0  0  0
    4.0595   15.4754   -0.8577 H   0  0  0  0  0  0  0  0  0  0  0  0
    2.8367   17.5892   -2.3922 H   0  0  0  0  0  0  0  0  0  0  0  0
    2.9840   15.9473   -3.1057 H   0  0  0  0  0  0  0  0  0  0  0  0
    1.3963   16.7874   -3.1057 H   0  0  0  0  0  0  0  0  0  0  0  0
  1  2  1  0
  2  3  1  0
  3  4  1  0
  4  5  1  0
  5  6  1  0
  6  7  1  0
  7  8  1  0
  7  9  1  0
  2 10  1  0
 10 11  1  0
 11 12  1  0
 12 13  1  0
 13 14  1  1
 13 15  1  0
 15 16  1  0
 16 17  1  0
 17 18  2  0
 18 19  1  0
 19 20  1  0
 20 21  1  0
 21 22  1  0
 22 23  1  0
 22 24  1  0
 24 25  1  0
 24 26  1  0
 19 27  1  0
 27 28  1  6
 27 29  1  0
 29 30  1  0
 30 31  1  0
 31 32  1  6
  7  5  1  0
 31 10  1  0
 31 13  1  0
 27 15  1  0
 24 18  1  0
  1 33  1  0
  1 34  1  0
  1 35  1  0
  2 36  1  6
  3 37  1  0
  3 38  1  0
  4 39  1  0
  4 40  1  0
  5 41  1  1
  8 42  1  0
  8 43  1  0
  8 44  1  0
  9 45  1  0
  9 46  1  0
  9 47  1  0
 10 48  1  1
 11 49  1  0
 11 50  1  0
 12 51  1  0
 12 52  1  0
 14 53  1  0
 14 54  1  0
 14 55  1  0
 15 56  1  6
 16 57  1  0
 16 58  1  0
 17 59  1  0
 19 60  1  1
 20 61  1  0
 20 62  1  0
 21 63  1  0
 21 64  1  0
 22 65  1  1
 23 66  1  0
 25 67  1  0
 25 68  1  0
 25 69  1  0
 26 70  1  0
 26 71  1  0
 26 72  1  0
 28 73  1  0
 28 74  1  0
 28 75  1  0
 29 76  1  0
 29 77  1  0
 30 78  1  0
 30 79  1  0
 32 80  1  0
 32 81  1  0
 32 82  1  0
M  END
>  <meeko>  (2) 
{"is_sidechain": [false], "intermolecular_energy": 2.731, "internal_energy": -0.839}

$$$$
EPH_relaxed_0001_pdb2pqr_Repair_107_r2_0001_out
     RDKit          3D

 82 86  0  0  0  0  0  0  0  0999 V2000
   -4.9050    6.4450   -2.4550 C   0  0  0  0  0  0  0  0  0  0  0  0
   -5.3780    7.8920   -2.2920 C   0  0  2  0  0  0  0  0  0  0  0  0
   -5.1650    8.4150   -0.8570 C   0  0  0  0  0  0  0  0  0  0  0  0
   -4.1300    9.5390   -0.7590 C   0  0  0  0  0  0  0  0  0  0  0  0
   -2.7920    9.0250   -0.3210 C   0  0  2  0  0  0  0  0  0  0  0  0
   -2.1950    9.7530    0.7600 O   0  0  0  0  0  0  0  0  0  0  0  0
   -1.4990    9.8000   -0.4960 C   0  0  0  0  0  0  0  0  0  0  0  0
   -1.4820   11.1540   -1.1320 C   0  0  0  0  0  0  0  0  0  0  0  0
   -0.2070    9.0440   -0.4980 C   0  0  0  0  0  0  0  0  0  0  0  0
   -6.8490    8.0040   -2.6730 C   0  0  1  0  0  0  0  0  0  0  0  0
   -7.1680    7.3210   -4.0300 C   0  0  0  0  0  0  0  0  0  0  0  0
   -8.5910    6.7180   -3.9040 C   0  0  0  0  0  0  0  0  0  0  0  0
   -9.1700    7.3520   -2.6170 C   0  0  1  0  0  0  0  0  0  0  0  0
   -9.6700    8.7640   -3.0560 C   0  0  0  0  0  0  0  0  0  0  0  0
  -10.2930    6.5410   -1.8930 C   0  0  2  0  0  0  0  0  0  0  0  0
  -11.5780    6.3290   -2.7130 C   0  0  0  0  0  0  0  0  0  0  0  0
  -12.6220    7.3840   -2.5470 C   0  0  0  0  0  0  0  0  0  0  0  0
  -12.6550    8.3030   -1.5640 C   0  0  0  0  0  0  0  0  0  0  0  0
  -11.6250    8.2790   -0.4280 C   0  0  1  0  0  0  0  0  0  0  0  0
  -12.3500    8.4540    0.9320 C   0  0  0  0  0  0  0  0  0  0  0  0
  -13.2320    9.6980    0.9700 C   0  0  0  0  0  0  0  0  0  0  0  0
  -14.2800    9.6570   -0.1380 C   0  0  2  0  0  0  0  0  0  0  0  0
  -15.1950    8.5910    0.1320 O   0  0  0  0  0  0  0  0  0  0  0  0
  -13.6680    9.4740   -1.5550 C   0  0  0  0  0  0  0  0  0  0  0  0
  -12.9200   10.7660   -1.9700 C   0  0  0  0  0  0  0  0  0  0  0  0
  -14.8370    9.3070   -2.5630 C   0  0  0  0  0  0  0  0  0  0  0  0
  -10.6190    7.0490   -0.4300 C   0  0  1  0  0  0  0  0  0  0  0  0
  -11.2520    5.8430    0.3300 C   0  0  0  0  0  0  0  0  0  0  0  0
   -9.3210    7.4450    0.3690 C   0  0  0  0  0  0  0  0  0  0  0  0
   -8.1990    8.1360   -0.4290 C   0  0  0  0  0  0  0  0  0  0  0  0
   -7.8840    7.3640   -1.7140 C   0  0  2  0  0  0  0  0  0  0  0  0
   -7.3570    5.9470   -1.3040 C   0  0  0  0  0  0  0  0  0  0  0  0
   -4.7574    5.9935   -1.4628 H   0  0  0  0  0  0  0  0  0  0  0  0
   -5.6626    5.8719   -3.0096 H   0  0  0  0  0  0  0  0  0  0  0  0
   -3.9552    6.4300   -3.0096 H   0  0  0  0  0  0  0  0  0  0  0  0
   -4.7707    8.5157   -2.9644 H   0  0  0  0  0  0  0  0  0  0  0  0
   -6.1261    8.7940   -0.4792 H   0  0  0  0  0  0  0  0  0  0  0  0
   -4.7826    7.5730   -0.2614 H   0  0  0  0  0  0  0  0  0  0  0  0
   -4.0240   10.0128   -1.7460 H   0  0  0  0  0  0  0  0  0  0  0  0
   -4.4809   10.2633   -0.0092 H   0  0  0  0  0  0  0  0  0  0  0  0
   -3.0762    7.9952   -0.5831 H   0  0  0  0  0  0  0  0  0  0  0  0
   -1.4723   11.9267   -0.3492 H   0  0  0  0  0  0  0  0  0  0  0  0
   -0.5825   11.2542   -1.7572 H   0  0  0  0  0  0  0  0  0  0  0  0
   -2.3787   11.2767   -1.7572 H   0  0  0  0  0  0  0  0  0  0  0  0
    0.1107    8.8581    0.5386 H   0  0  0  0  0  0  0  0  0  0  0  0
   -0.3447    8.0840   -1.0170 H   0  0  0  0  0  0  0  0  0  0  0  0
    0.5625    9.6344   -1.0170 H   0  0  0  0  0  0  0  0  0  0  0  0
   -6.9576    9.0986   -2.6669 H   0  0  0  0  0  0  0  0  0  0  0  0
   -7.1412    8.0620   -4.8425 H   0  0  0  0  0  0  0  0  0  0  0  0
   -6.4280    6.5413   -4.2632 H   0  0  0  0  0  0  0  0  0  0  0  0
   -9.2042    6.9836   -4.7777 H   0  0  0  0  0  0  0  0  0  0  0  0
   -8.5762    5.6191   -3.8579 H   0  0  0  0  0  0  0  0  0  0  0  0
   -9.8848    9.3706   -2.1639 H   0  0  0  0  0  0  0  0  0  0  0  0
   -8.8921    9.2580   -3.6567 H   0  0  0  0  0  0  0  0  0  0  0  0
  -10.5854    8.6584   -3.6567 H   0  0  0  0  0  0  0  0  0  0  0  0
   -9.8359    5.5456   -1.7915 H   0  0  0  0  0  0  0  0  0  0  0  0
  -11.3000    6.2903   -3.7766 H   0  0  0  0  0  0  0  0  0  0  0  0
  -12.0262    5.3961   -2.3406 H   0  0  0  0  0  0  0  0  0  0  0  0
  -13.4321    7.4124   -3.2906 H   0  0  0  0  0  0  0  0  0  0  0  0
  -10.9555    9.1333   -0.6064 H   0  0  0  0  0  0  0  0  0  0  0  0
  -12.9795    7.5701    1.1121 H   0  0  0  0  0  0  0  0  0  0  0  0
  -11.5793    8.5679    1.7085 H   0  0  0  0  0  0  0  0  0  0  0  0
  -13.7400    9.7496    1.9443 H   0  0  0  0  0  0  0  0  0  0  0  0
  -12.5969   10.5836    0.8202 H   0  0  0  0  0  0  0  0  0  0  0  0
  -14.7933   10.6299   -0.1419 H   0  0  0  0  0  0  0  0  0  0  0  0
  -16.0850    8.9760    0.1980 H   0  0  0  0  0  0  0  0  0  0  0  0
  -12.6038   11.3121   -1.0690 H   0  0  0  0  0  0  0  0  0  0  0  0
  -12.0353   10.5015   -2.5678 H   0  0  0  0  0  0  0  0  0  0  0  0
  -13.5899   11.4015   -2.5678 H   0  0  0  0  0  0  0  0  0  0  0  0
  -15.7796    9.1723   -2.0123 H   0  0  0  0  0  0  0  0  0  0  0  0
  -14.9068   10.2043   -3.1955 H   0  0  0  0  0  0  0  0  0  0  0  0
  -14.6528    8.4261   -3.1955 H   0  0  0  0  0  0  0  0  0  0  0  0
  -11.1660    6.0069    1.4143 H   0  0  0  0  0  0  0  0  0  0  0  0
  -12.3135    5.7532    0.0558 H   0  0  0  0  0  0  0  0  0  0  0  0
  -10.7230    4.9184    0.0558 H   0  0  0  0  0  0  0  0  0  0  0  0
   -9.6229    8.1268    1.1777 H   0  0  0  0  0  0  0  0  0  0  0  0
   -8.8889    6.4918    0.7076 H   0  0  0  0  0  0  0  0  0  0  0  0
   -8.5191    9.1553   -0.6910 H   0  0  0  0  0  0  0  0  0  0  0  0
   -7.2927    8.1649    0.1937 H   0  0  0  0  0  0  0  0  0  0  0  0
   -7.3283    5.8697   -0.2071 H   0  0  0  0  0  0  0  0  0  0  0  0
   -8.0281    5.1750   -1.7085 H   0  0  0  0  0  0  0  0  0  0  0  0
   -6.3445    5.8012   -1.7085 H   0  0  0  0  0  0  0  0  0  0  0  0
  1  2  1  0
  2  3  1  0
  3  4  1  0
  4  5  1  0
  5  6  1  0
  6  7  1  0
  7  8  1  0
  7  9  1  0
  2 10  1  0
 10 11  1  0
 11 12  1  0
 12 13  1  0
 13 14  1  6
 13 15  1  0
 15 16  1  0
 16 17  1  0
 17 18  2  0
 18 19  1  0
 19 20  1  0
 20 21  1  0
 21 22  1  0
 22 23  1  0
 22 24  1  0
 24 25  1  0
 24 26  1  0
 19 27  1  0
 27 28  1  1
 27 29  1  0
 29 30  1  0
 30 31  1  0
 31 32  1  1
  7  5  1  0
 31 10  1  0
 31 13  1  0
 27 15  1  0
 24 18  1  0
  1 33  1  0
  1 34  1  0
  1 35  1  0
  2 36  1  6
  3 37  1  0
  3 38  1  0
  4 39  1  0
  4 40  1  0
  5 41  1  1
  8 42  1  0
  8 43  1  0
  8 44  1  0
  9 45  1  0
  9 46  1  0
  9 47  1  0
 10 48  1  6
 11 49  1  0
 11 50  1  0
 12 51  1  0
 12 52  1  0
 14 53  1  0
 14 54  1  0
 14 55  1  0
 15 56  1  1
 16 57  1  0
 16 58  1  0
 17 59  1  0
 19 60  1  6
 20 61  1  0
 20 62  1  0
 21 63  1  0
 21 64  1  0
 22 65  1  6
 23 66  1  0
 25 67  1  0
 25 68  1  0
 25 69  1  0
 26 70  1  0
 26 71  1  0
 26 72  1  0
 28 73  1  0
 28 74  1  0
 28 75  1  0
 29 76  1  0
 29 77  1  0
 30 78  1  0
 30 79  1  0
 32 80  1  0
 32 81  1  0
 32 82  1  0
M  END
>  <meeko>  (3) 
{"is_sidechain": [false], "intermolecular_energy": 2.731, "internal_energy": -0.839}

$$$$
EPH_relaxed_0001_pdb2pqr_Repair_107_r2_0001_out
     RDKit          3D

 82 86  0  0  0  0  0  0  0  0999 V2000
    1.9480   18.2950   -2.6710 C   0  0  0  0  0  0  0  0  0  0  0  0
    0.4350   18.0550   -2.6620 C   0  0  2  0  0  0  0  0  0  0  0  0
   -0.2180   18.5190   -1.3440 C   0  0  0  0  0  0  0  0  0  0  0  0
    0.5280   18.0530   -0.0910 C   0  0  0  0  0  0  0  0  0  0  0  0
    1.1180   19.2060    0.6640 C   0  0  2  0  0  0  0  0  0  0  0  0
    2.0270   20.0150   -0.0940 O   0  0  0  0  0  0  0  0  0  0  0  0
    2.5890   19.3060    1.0220 C   0  0  0  0  0  0  0  0  0  0  0  0
    3.5600   18.2360    0.6370 C   0  0  0  0  0  0  0  0  0  0  0  0
    2.9890   20.1940    2.1590 C   0  0  0  0  0  0  0  0  0  0  0  0
    0.1420   16.5780   -2.8970 C   0  0  1  0  0  0  0  0  0  0  0  0
    0.1470   16.2010   -4.4020 C   0  0  0  0  0  0  0  0  0  0  0  0
    0.7200   14.7630   -4.5010 C   0  0  0  0  0  0  0  0  0  0  0  0
    0.7140   14.2400   -3.0460 C   0  0  1  0  0  0  0  0  0  0  0  0
   -0.7540   13.7730   -2.7930 C   0  0  0  0  0  0  0  0  0  0  0  0
    1.7440   13.1120   -2.7130 C   0  0  2  0  0  0  0  0  0  0  0  0
    1.5480   11.7990   -3.4910 C   0  0  0  0  0  0  0  0  0  0  0  0
    0.6600   10.7950   -2.8350 C   0  0  0  0  0  0  0  0  0  0  0  0
    0.2730   10.8170   -1.5460 C   0  0  0  0  0  0  0  0  0  0  0  0
    0.8150   11.8770   -0.5790 C   0  0  1  0  0  0  0  0  0  0  0  0
    1.2510   11.1960    0.7450 C   0  0  0  0  0  0  0  0  0  0  0  0
    0.1380   10.3560    1.3650 C   0  0  0  0  0  0  0  0  0  0  0  0
   -0.3340    9.2760    0.3940 C   0  0  2  0  0  0  0  0  0  0  0  0
    0.7270    8.3360    0.1990 O   0  0  0  0  0  0  0  0  0  0  0  0
   -0.7890    9.8430   -0.9790 C   0  0  0  0  0  0  0  0  0  0  0  0
   -2.1180   10.6200   -0.8070 C   0  0  0  0  0  0  0  0  0  0  0  0
   -1.1060    8.6420   -1.9100 C   0  0  0  0  0  0  0  0  0  0  0  0
    1.9330   12.8440   -1.1650 C   0  0  1  0  0  0  0  0  0  0  0  0
    3.3400   12.1940   -0.9940 C   0  0  0  0  0  0  0  0  0  0  0  0
    1.9540   14.1750   -0.3240 C   0  0  0  0  0  0  0  0  0  0  0  0
    0.9980   15.2960   -0.7760 C   0  0  0  0  0  0  0  0  0  0  0  0
    1.1240   15.5510   -2.2810 C   0  0  2  0  0  0  0  0  0  0  0  0
    2.5850   16.0440   -2.5620 C   0  0  0  0  0  0  0  0  0  0  0  0
    2.3161   18.3534   -1.6361 H   0  0  0  0  0  0  0  0  0  0  0  0
    2.4478   17.4649   -3.1917 H   0  0  0  0  0  0  0  0  0  0  0  0
    2.1664   19.2390   -3.1917 H   0  0  0  0  0  0  0  0  0  0  0  0
   -0.0006   18.6541   -3.4752 H   0  0  0  0  0  0  0  0  0  0  0  0
   -0.2501   19.6185   -1.3404 H   0  0  0  0  0  0  0  0  0  0  0  0
   -1.2215   18.0701   -1.3066 H   0  0  0  0  0  0  0  0  0  0  0  0
   -0.1757   17.5199    0.5652 H   0  0  0  0  0  0  0  0  0  0  0  0
    1.3497   17.3933   -0.4066 H   0  0  0  0  0  0  0  0  0  0  0  0
    0.2033   19.3110    1.2660 H   0  0  0  0  0  0  0  0  0  0  0  0
    3.9775   17.7759    1.5447 H   0  0  0  0  0  0  0  0  0  0  0  0
    3.0433   17.4689    0.0415 H   0  0  0  0  0  0  0  0  0  0  0  0
    4.3735   18.6761    0.0415 H   0  0  0  0  0  0  0  0  0  0  0  0
    2.7635   19.6933    3.1121 H   0  0  0  0  0  0  0  0  0  0  0  0
    4.0676   20.4017    2.1001 H   0  0  0  0  0  0  0  0  0  0  0  0
    2.4298   21.1394    2.1001 H   0  0  0  0  0  0  0  0  0  0  0  0
   -0.8380   16.5035   -2.4031 H   0  0  0  0  0  0  0  0  0  0  0  0
   -0.8769   16.2292   -4.8030 H   0  0  0  0  0  0  0  0  0  0  0  0
    0.7544   16.9092   -4.9846 H   0  0  0  0  0  0  0  0  0  0  0  0
    0.0841   14.1348   -5.1421 H   0  0  0  0  0  0  0  0  0  0  0  0
    1.7254   14.7442   -4.9470 H   0  0  0  0  0  0  0  0  0  0  0  0
   -0.9386   13.7143   -1.7102 H   0  0  0  0  0  0  0  0  0  0  0  0
   -1.4512   14.4937   -3.2453 H   0  0  0  0  0  0  0  0  0  0  0  0
   -0.9066   12.7820   -3.2453 H   0  0  0  0  0  0  0  0  0  0  0  0
    2.6887   13.5387   -3.0809 H   0  0  0  0  0  0  0  0  0  0  0  0
    1.1149   12.0464   -4.4714 H   0  0  0  0  0  0  0  0  0  0  0  0
    2.5417   11.3313   -3.5532 H   0  0  0  0  0  0  0  0  0  0  0  0
    0.2904    9.9668   -3.4575 H   0  0  0  0  0  0  0  0  0  0  0  0
   -0.0194   12.5674   -0.3864 H   0  0  0  0  0  0  0  0  0  0  0  0
    2.1122   10.5434    0.5389 H   0  0  0  0  0  0  0  0  0  0  0  0
    1.5076   11.9910    1.4607 H   0  0  0  0  0  0  0  0  0  0  0  0
    0.5154    9.8773    2.2806 H   0  0  0  0  0  0  0  0  0  0  0  0
   -0.7114   11.0148    1.5984 H   0  0  0  0  0  0  0  0  0  0  0  0
   -1.2154    8.7930    0.8409 H   0  0  0  0  0  0  0  0  0  0  0  0
    1.2200    8.2710    1.0350 H   0  0  0  0  0  0  0  0  0  0  0  0
   -2.3332   10.7458    0.2644 H   0  0  0  0  0  0  0  0  0  0  0  0
   -2.0290   11.6083   -1.2816 H   0  0  0  0  0  0  0  0  0  0  0  0
   -2.9356   10.0576   -1.2816 H   0  0  0  0  0  0  0  0  0  0  0  0
   -1.3396    7.7569   -1.3000 H   0  0  0  0  0  0  0  0  0  0  0  0
   -1.9699    8.8882   -2.5448 H   0  0  0  0  0  0  0  0  0  0  0  0
   -0.2331    8.4298   -2.5448 H   0  0  0  0  0  0  0  0  0  0  0  0
    3.5676   12.0889    0.0770 H   0  0  0  0  0  0  0  0  0  0  0  0
    3.3458   11.2020   -1.4692 H   0  0  0  0  0  0  0  0  0  0  0  0
    4.0991   12.8326   -1.4692 H   0  0  0  0  0  0  0  0  0  0  0  0
    1.6976   13.9171    0.7141 H   0  0  0  0  0  0  0  0  0  0  0  0
    2.9652   14.5861   -0.4597 H   0  0  0  0  0  0  0  0  0  0  0  0
   -0.0365   15.0008   -0.5465 H   0  0  0  0  0  0  0  0  0  0  0  0
    1.2629   16.2197   -0.2406 H   0  0  0  0  0  0  0  0  0  0  0  0
    3.1030   16.2188   -1.6074 H   0  0  0  0  0  0  0  0  0  0  0  0
    3.1259   15.2786   -3.1379 H   0  0  0  0  0  0  0  0  0  0  0  0
    2.5515   16.9806   -3.1379 H   0  0  0  0  0  0  0  0  0  0  0  0
  1  2  1  0
  2  3  1  0
  3  4  1  0
  4  5  1  0
  5  6  1  0
  6  7  1  0
  7  8  1  0
  7  9  1  0
  2 10  1  0
 10 11  1  0
 11 12  1  0
 12 13  1  0
 13 14  1  1
 13 15  1  0
 15 16  1  0
 16 17  1  0
 17 18  2  0
 18 19  1  0
 19 20  1  0
 20 21  1  0
 21 22  1  0
 22 23  1  0
 22 24  1  0
 24 25  1  0
 24 26  1  0
 19 27  1  0
 27 28  1  6
 27 29  1  0
 29 30  1  0
 30 31  1  0
 31 32  1  1
  7  5  1  0
 31 10  1  0
 31 13  1  0
 27 15  1  0
 24 18  1  0
  1 33  1  0
  1 34  1  0
  1 35  1  0
  2 36  1  6
  3 37  1  0
  3 38  1  0
  4 39  1  0
  4 40  1  0
  5 41  1  1
  8 42  1  0
  8 43  1  0
  8 44  1  0
  9 45  1  0
  9 46  1  0
  9 47  1  0
 10 48  1  1
 11 49  1  0
 11 50  1  0
 12 51  1  0
 12 52  1  0
 14 53  1  0
 14 54  1  0
 14 55  1  0
 15 56  1  6
 16 57  1  0
 16 58  1  0
 17 59  1  0
 19 60  1  1
 20 61  1  0
 20 62  1  0
 21 63  1  0
 21 64  1  0
 22 65  1  1
 23 66  1  0
 25 67  1  0
 25 68  1  0
 25 69  1  0
 26 70  1  0
 26 71  1  0
 26 72  1  0
 28 73  1  0
 28 74  1  0
 28 75  1  0
 29 76  1  0
 29 77  1  0
 30 78  1  0
 30 79  1  0
 32 80  1  0
 32 81  1  0
 32 82  1  0
M  END
>  <meeko>  (4) 
{"is_sidechain": [false], "intermolecular_energy": 2.731, "internal_energy": -0.839}

$$$$
EPH_relaxed_0001_pdb2pqr_Repair_107_r2_0001_out
     RDKit          3D

 82 86  0  0  0  0  0  0  0  0999 V2000
    2.2870   18.0210   -2.8590 C   0  0  0  0  0  0  0  0  0  0  0  0
    1.0220   17.6560   -2.0770 C   0  0  2  0  0  0  0  0  0  0  0  0
    1.2280   17.7720   -0.5540 C   0  0  0  0  0  0  0  0  0  0  0  0
    0.8890   19.1550    0.0100 C   0  0  0  0  0  0  0  0  0  0  0  0
   -0.5400   19.2380    0.4530 C   0  0  2  0  0  0  0  0  0  0  0  0
   -1.4160   18.2900   -0.1700 O   0  0  0  0  0  0  0  0  0  0  0  0
   -1.6740   19.6740   -0.4560 C   0  0  0  0  0  0  0  0  0  0  0  0
   -1.4280   20.0570   -1.8820 C   0  0  0  0  0  0  0  0  0  0  0  0
   -2.9320   20.1940    0.1680 C   0  0  0  0  0  0  0  0  0  0  0  0
    0.5780   16.2430   -2.4370 C   0  0  1  0  0  0  0  0  0  0  0  0
    0.5480   15.9980   -3.9690 C   0  0  0  0  0  0  0  0  0  0  0  0
    0.9690   14.5230   -4.1940 C   0  0  0  0  0  0  0  0  0  0  0  0
    0.9040   13.8800   -2.7890 C   0  0  1  0  0  0  0  0  0  0  0  0
   -0.6050   13.5480   -2.5690 C   0  0  0  0  0  0  0  0  0  0  0  0
    1.8110   12.6270   -2.5600 C   0  0  2  0  0  0  0  0  0  0  0  0
    1.4830   11.4140   -3.4470 C   0  0  0  0  0  0  0  0  0  0  0  0
    0.4930   10.4540   -2.8740 C   0  0  0  0  0  0  0  0  0  0  0  0
    0.1060   10.4050   -1.5860 C   0  0  0  0  0  0  0  0  0  0  0  0
    0.7520   11.3160   -0.5340 C   0  0  1  0  0  0  0  0  0  0  0  0
    1.1100   10.4820    0.7240 C   0  0  0  0  0  0  0  0  0  0  0  0
   -0.0850    9.7120    1.2750 C   0  0  0  0  0  0  0  0  0  0  0  0
   -0.6640    8.7740    0.2180 C   0  0  2  0  0  0  0  0  0  0  0  0
    0.2940    7.7490   -0.0630 O   0  0  0  0  0  0  0  0  0  0  0  0
   -1.0530    9.5010   -1.0990 C   0  0  0  0  0  0  0  0  0  0  0  0
   -2.2950   10.3930   -0.8540 C   0  0  0  0  0  0  0  0  0  0  0  0
   -1.4900    8.4240   -2.1280 C   0  0  0  0  0  0  0  0  0  0  0  0
    1.9660   12.2080   -1.0420 C   0  0  1  0  0  0  0  0  0  0  0  0
    3.2980   11.4040   -0.9350 C   0  0  0  0  0  0  0  0  0  0  0  0
    2.1220   13.4530   -0.0900 C   0  0  0  0  0  0  0  0  0  0  0  0
    1.2900   14.7020   -0.4380 C   0  0  0  0  0  0  0  0  0  0  0  0
    1.4460   15.0710   -1.9170 C   0  0  2  0  0  0  0  0  0  0  0  0
    2.9510   15.4320   -2.1630 C   0  0  0  0  0  0  0  0  0  0  0  0
    3.0987   18.2552   -2.1546 H   0  0  0  0  0  0  0  0  0  0  0  0
    2.5845   17.1720   -3.4921 H   0  0  0  0  0  0  0  0  0  0  0  0
    2.0865   18.8979   -3.4921 H   0  0  0  0  0  0  0  0  0  0  0  0
    0.2388   18.3747   -2.3598 H   0  0  0  0  0  0  0  0  0  0  0  0
    0.5860   17.0284   -0.0592 H   0  0  0  0  0  0  0  0  0  0  0  0
    2.2969   17.5992   -0.3603 H   0  0  0  0  0  0  0  0  0  0  0  0
    1.5417   19.3583    0.8718 H   0  0  0  0  0  0  0  0  0  0  0  0
    1.0447   19.8976   -0.7864 H   0  0  0  0  0  0  0  0  0  0  0  0
   -0.2338   19.5628    1.4584 H   0  0  0  0  0  0  0  0  0  0  0  0
   -0.8338   20.9821   -1.9159 H   0  0  0  0  0  0  0  0  0  0  0  0
   -0.8790   19.2498   -2.3890 H   0  0  0  0  0  0  0  0  0  0  0  0
   -2.3904   20.2206   -2.3890 H   0  0  0  0  0  0  0  0  0  0  0  0
   -2.8406   20.1562    1.2635 H   0  0  0  0  0  0  0  0  0  0  0  0
   -3.0966   21.2339   -0.1506 H   0  0  0  0  0  0  0  0  0  0  0  0
   -3.7828   19.5738   -0.1506 H   0  0  0  0  0  0  0  0  0  0  0  0
   -0.4063   16.2286   -1.9461 H   0  0  0  0  0  0  0  0  0  0  0  0
   -0.4664   16.1663   -4.3598 H   0  0  0  0  0  0  0  0  0  0  0  0
    1.2270   16.6870   -4.4927 H   0  0  0  0  0  0  0  0  0  0  0  0
    0.2736   14.0215   -4.8831 H   0  0  0  0  0  0  0  0  0  0  0  0
    1.9685   14.4387   -4.6454 H   0  0  0  0  0  0  0  0  0  0  0  0
   -0.8167   13.5014   -1.4906 H   0  0  0  0  0  0  0  0  0  0  0  0
   -1.2239   14.3315   -3.0307 H   0  0  0  0  0  0  0  0  0  0  0  0
   -0.8379   12.5771   -3.0307 H   0  0  0  0  0  0  0  0  0  0  0  0
    2.7961   12.9842   -2.8946 H   0  0  0  0  0  0  0  0  0  0  0  0
    1.0810   11.7885   -4.3999 H   0  0  0  0  0  0  0  0  0  0  0  0
    2.4231   10.8532   -3.5555 H   0  0  0  0  0  0  0  0  0  0  0  0
    0.0418    9.7250   -3.5632 H   0  0  0  0  0  0  0  0  0  0  0  0
   -0.0063   12.0703   -0.2771 H   0  0  0  0  0  0  0  0  0  0  0  0
    1.8998    9.7640    0.4580 H   0  0  0  0  0  0  0  0  0  0  0  0
    1.4446   11.1816    1.5041 H   0  0  0  0  0  0  0  0  0  0  0  0
    0.2379    9.1198    2.1439 H   0  0  0  0  0  0  0  0  0  0  0  0
   -0.8623   10.4329    1.5685 H   0  0  0  0  0  0  0  0  0  0  0  0
   -1.5923    8.3487    0.6272 H   0  0  0  0  0  0  0  0  0  0  0  0
    0.3290    7.1590    0.7090 H   0  0  0  0  0  0  0  0  0  0  0  0
   -2.4558   10.5085    0.2280 H   0  0  0  0  0  0  0  0  0  0  0  0
   -2.1318   11.3816   -1.3080 H   0  0  0  0  0  0  0  0  0  0  0  0
   -3.1796    9.9226   -1.3080 H   0  0  0  0  0  0  0  0  0  0  0  0
   -1.8517    7.5326   -1.5945 H   0  0  0  0  0  0  0  0  0  0  0  0
   -2.2962    8.8258   -2.7593 H   0  0  0  0  0  0  0  0  0  0  0  0
   -0.6317    8.1504   -2.7593 H   0  0  0  0  0  0  0  0  0  0  0  0
    3.5503   11.2517    0.1248 H   0  0  0  0  0  0  0  0  0  0  0  0
    3.1775   10.4277   -1.4272 H   0  0  0  0  0  0  0  0  0  0  0  0
    4.1058   11.9655   -1.4272 H   0  0  0  0  0  0  0  0  0  0  0  0
    1.8365   13.1348    0.9235 H   0  0  0  0  0  0  0  0  0  0  0  0
    3.1709   13.7670   -0.1963 H   0  0  0  0  0  0  0  0  0  0  0  0
    0.2297   14.4979   -0.2281 H   0  0  0  0  0  0  0  0  0  0  0  0
    1.6487   15.5435    0.1729 H   0  0  0  0  0  0  0  0  0  0  0  0
    3.4614   15.5544   -1.1963 H   0  0  0  0  0  0  0  0  0  0  0  0
    3.4335   14.6241   -2.7327 H   0  0  0  0  0  0  0  0  0  0  0  0
    3.0145   16.3709   -2.7327 H   0  0  0  0  0  0  0  0  0  0  0  0
  1  2  1  0
  2  3  1  0
  3  4  1  0
  4  5  1  0
  5  6  1  0
  6  7  1  0
  7  8  1  0
  7  9  1  0
  2 10  1  0
 10 11  1  0
 11 12  1  0
 12 13  1  0
 13 14  1  1
 13 15  1  0
 15 16  1  0
 16 17  1  0
 17 18  2  0
 18 19  1  0
 19 20  1  0
 20 21  1  0
 21 22  1  0
 22 23  1  0
 22 24  1  0
 24 25  1  0
 24 26  1  0
 19 27  1  0
 27 28  1  6
 27 29  1  0
 29 30  1  0
 30 31  1  0
 31 32  1  6
  7  5  1  0
 31 10  1  0
 31 13  1  0
 27 15  1  0
 24 18  1  0
  1 33  1  0
  1 34  1  0
  1 35  1  0
  2 36  1  6
  3 37  1  0
  3 38  1  0
  4 39  1  0
  4 40  1  0
  5 41  1  1
  8 42  1  0
  8 43  1  0
  8 44  1  0
  9 45  1  0
  9 46  1  0
  9 47  1  0
 10 48  1  1
 11 49  1  0
 11 50  1  0
 12 51  1  0
 12 52  1  0
 14 53  1  0
 14 54  1  0
 14 55  1  0
 15 56  1  6
 16 57  1  0
 16 58  1  0
 17 59  1  0
 19 60  1  1
 20 61  1  0
 20 62  1  0
 21 63  1  0
 21 64  1  0
 22 65  1  1
 23 66  1  0
 25 67  1  0
 25 68  1  0
 25 69  1  0
 26 70  1  0
 26 71  1  0
 26 72  1  0
 28 73  1  0
 28 74  1  0
 28 75  1  0
 29 76  1  0
 29 77  1  0
 30 78  1  0
 30 79  1  0
 32 80  1  0
 32 81  1  0
 32 82  1  0
M  END
>  <meeko>  (5) 
{"is_sidechain": [false], "intermolecular_energy": 2.731, "internal_energy": -0.839}

$$$$
EPH_relaxed_0001_pdb2pqr_Repair_107_r2_0001_out
     RDKit          3D

 82 86  0  0  0  0  0  0  0  0999 V2000
    3.6530   17.9700    0.7690 C   0  0  0  0  0  0  0  0  0  0  0  0
    2.6740   18.3530   -0.3450 C   0  0  2  0  0  0  0  0  0  0  0  0
    1.9330   19.6700   -0.0400 C   0  0  0  0  0  0  0  0  0  0  0  0
    0.8080   19.5200    0.9880 C   0  0  0  0  0  0  0  0  0  0  0  0
   -0.4730   20.1260    0.4990 C   0  0  2  0  0  0  0  0  0  0  0  0
   -1.5160   20.1910    1.4810 O   0  0  0  0  0  0  0  0  0  0  0  0
   -1.7640   19.3430    0.3480 C   0  0  0  0  0  0  0  0  0  0  0  0
   -1.8370   17.8860    0.6830 C   0  0  0  0  0  0  0  0  0  0  0  0
   -2.8140   19.8680   -0.5800 C   0  0  0  0  0  0  0  0  0  0  0  0
    1.6690   17.2280   -0.5620 C   0  0  1  0  0  0  0  0  0  0  0  0
    0.4630   17.6650   -1.4350 C   0  0  0  0  0  0  0  0  0  0  0  0
    0.0560   16.4330   -2.2850 C   0  0  0  0  0  0  0  0  0  0  0  0
    0.8140   15.2480   -1.6410 C   0  0  1  0  0  0  0  0  0  0  0  0
   -0.0520   14.8410   -0.4080 C   0  0  0  0  0  0  0  0  0  0  0  0
    1.1030   14.0260   -2.5730 C   0  0  2  0  0  0  0  0  0  0  0  0
   -0.1450   13.3090   -3.1150 C   0  0  0  0  0  0  0  0  0  0  0  0
   -0.6540   12.1880   -2.2710 C   0  0  0  0  0  0  0  0  0  0  0  0
    0.0250   11.5870   -1.2770 C   0  0  0  0  0  0  0  0  0  0  0  0
    1.4820   11.9630   -0.9790 C   0  0  1  0  0  0  0  0  0  0  0  0
    2.3250   10.6720   -0.8030 C   0  0  0  0  0  0  0  0  0  0  0  0
    1.7400    9.7290    0.2440 C   0  0  0  0  0  0  0  0  0  0  0  0
    0.3110    9.3320   -0.1180 C   0  0  2  0  0  0  0  0  0  0  0  0
    0.3400    8.5360   -1.3070 O   0  0  0  0  0  0  0  0  0  0  0  0
   -0.6300   10.5520   -0.3290 C   0  0  0  0  0  0  0  0  0  0  0  0
   -0.9010   11.2410    1.0310 C   0  0  0  0  0  0  0  0  0  0  0  0
   -2.0000   10.0170   -0.8270 C   0  0  0  0  0  0  0  0  0  0  0  0
    2.1510   12.9970   -1.9840 C   0  0  1  0  0  0  0  0  0  0  0  0
    2.7610   12.2360   -3.2010 C   0  0  0  0  0  0  0  0  0  0  0  0
    3.3520   13.7130   -1.2610 C   0  0  0  0  0  0  0  0  0  0  0  0
    3.0200   14.9830   -0.4540 C   0  0  0  0  0  0  0  0  0  0  0  0
    2.1730   15.9530   -1.2840 C   0  0  2  0  0  0  0  0  0  0  0  0
    3.0260   16.3970   -2.5200 C   0  0  0  0  0  0  0  0  0  0  0  0
    3.1849   18.1531    1.7475 H   0  0  0  0  0  0  0  0  0  0  0  0
    3.9114   16.9045    0.6798 H   0  0  0  0  0  0  0  0  0  0  0  0
    4.5658   18.5773    0.6798 H   0  0  0  0  0  0  0  0  0  0  0  0
    3.2609   18.5099   -1.2620 H   0  0  0  0  0  0  0  0  0  0  0  0
    2.6622   20.3971    0.3469 H   0  0  0  0  0  0  0  0  0  0  0  0
    1.4674   20.0017   -0.9798 H   0  0  0  0  0  0  0  0  0  0  0  0
    0.6444   18.4501    1.1841 H   0  0  0  0  0  0  0  0  0  0  0  0
    1.1088   20.0469    1.9055 H   0  0  0  0  0  0  0  0  0  0  0  0
    0.0737   20.7870   -0.1896 H   0  0  0  0  0  0  0  0  0  0  0  0
   -1.8433   17.7609    1.7758 H   0  0  0  0  0  0  0  0  0  0  0  0
   -2.7577   17.4581    0.2597 H   0  0  0  0  0  0  0  0  0  0  0  0
   -0.9637   17.3682    0.2597 H   0  0  0  0  0  0  0  0  0  0  0  0
   -3.6465   20.2843    0.0062 H   0  0  0  0  0  0  0  0  0  0  0  0
   -2.3820   20.6562   -1.2142 H   0  0  0  0  0  0  0  0  0  0  0  0
   -3.1853   19.0495   -1.2142 H   0  0  0  0  0  0  0  0  0  0  0  0
    1.4240   16.9954    0.4848 H   0  0  0  0  0  0  0  0  0  0  0  0
   -0.3751   17.9768   -0.7944 H   0  0  0  0  0  0  0  0  0  0  0  0
    0.7288   18.5175   -2.0773 H   0  0  0  0  0  0  0  0  0  0  0  0
   -1.0309   16.2705   -2.2379 H   0  0  0  0  0  0  0  0  0  0  0  0
    0.3051   16.5592   -3.3490 H   0  0  0  0  0  0  0  0  0  0  0  0
    0.4861   15.0939    0.5175 H   0  0  0  0  0  0  0  0  0  0  0  0
   -1.0082   15.3840   -0.4362 H   0  0  0  0  0  0  0  0  0  0  0  0
   -0.2442   13.7583   -0.4362 H   0  0  0  0  0  0  0  0  0  0  0  0
    1.5761   14.5006   -3.4453 H   0  0  0  0  0  0  0  0  0  0  0  0
   -0.9491   14.0533   -3.2123 H   0  0  0  0  0  0  0  0  0  0  0  0
    0.1555   12.8570   -4.0718 H   0  0  0  0  0  0  0  0  0  0  0  0
   -1.6703   11.8223   -2.4793 H   0  0  0  0  0  0  0  0  0  0  0  0
    1.4631   12.5276   -0.0351 H   0  0  0  0  0  0  0  0  0  0  0  0
    2.3680   10.1448   -1.7675 H   0  0  0  0  0  0  0  0  0  0  0  0
    3.3264   10.9715   -0.4601 H   0  0  0  0  0  0  0  0  0  0  0  0
    2.3619    8.8235    0.3007 H   0  0  0  0  0  0  0  0  0  0  0  0
    1.7257   10.2468    1.2144 H   0  0  0  0  0  0  0  0  0  0  0  0
   -0.0976    8.7638    0.7306 H   0  0  0  0  0  0  0  0  0  0  0  0
    0.1930    7.6110   -1.0450 H   0  0  0  0  0  0  0  0  0  0  0  0
   -0.6318   10.5565    1.8489 H   0  0  0  0  0  0  0  0  0  0  0  0
   -0.2961   12.1567    1.1051 H   0  0  0  0  0  0  0  0  0  0  0  0
   -1.9677   11.4992    1.1051 H   0  0  0  0  0  0  0  0  0  0  0  0
   -2.6333    9.7697    0.0377 H   0  0  0  0  0  0  0  0  0  0  0  0
   -2.4953   10.7878   -1.4358 H   0  0  0  0  0  0  0  0  0  0  0  0
   -1.8419    9.1145   -1.4358 H   0  0  0  0  0  0  0  0  0  0  0  0
    3.4106   11.4256   -2.8386 H   0  0  0  0  0  0  0  0  0  0  0  0
    1.9505   11.8111   -3.8114 H   0  0  0  0  0  0  0  0  0  0  0  0
    3.3521   12.9346   -3.8114 H   0  0  0  0  0  0  0  0  0  0  0  0
    3.8038   12.9874   -0.5686 H   0  0  0  0  0  0  0  0  0  0  0  0
    4.0147   14.0518   -2.0710 H   0  0  0  0  0  0  0  0  0  0  0  0
    2.4608   14.6994    0.4498 H   0  0  0  0  0  0  0  0  0  0  0  0
    3.9616   15.4828   -0.1825 H   0  0  0  0  0  0  0  0  0  0  0  0
    3.9518   16.8789   -2.1726 H   0  0  0  0  0  0  0  0  0  0  0  0
    3.2774   15.5153   -3.1278 H   0  0  0  0  0  0  0  0  0  0  0  0
    2.4480   17.1087   -3.1278 H   0  0  0  0  0  0  0  0  0  0  0  0
  1  2  1  0
  2  3  1  0
  3  4  1  0
  4  5  1  0
  5  6  1  0
  6  7  1  0
  7  8  1  0
  7  9  1  0
  2 10  1  0
 10 11  1  0
 11 12  1  0
 12 13  1  0
 13 14  1  1
 13 15  1  0
 15 16  1  0
 16 17  1  0
 17 18  2  0
 18 19  1  0
 19 20  1  0
 20 21  1  0
 21 22  1  0
 22 23  1  0
 22 24  1  0
 24 25  1  0
 24 26  1  0
 19 27  1  0
 27 28  1  6
 27 29  1  0
 29 30  1  0
 30 31  1  0
 31 32  1  6
  7  5  1  0
 31 10  1  0
 31 13  1  0
 27 15  1  0
 24 18  1  0
  1 33  1  0
  1 34  1  0
  1 35  1  0
  2 36  1  6
  3 37  1  0
  3 38  1  0
  4 39  1  0
  4 40  1  0
  5 41  1  6
  8 42  1  0
  8 43  1  0
  8 44  1  0
  9 45  1  0
  9 46  1  0
  9 47  1  0
 10 48  1  1
 11 49  1  0
 11 50  1  0
 12 51  1  0
 12 52  1  0
 14 53  1  0
 14 54  1  0
 14 55  1  0
 15 56  1  6
 16 57  1  0
 16 58  1  0
 17 59  1  0
 19 60  1  1
 20 61  1  0
 20 62  1  0
 21 63  1  0
 21 64  1  0
 22 65  1  1
 23 66  1  0
 25 67  1  0
 25 68  1  0
 25 69  1  0
 26 70  1  0
 26 71  1  0
 26 72  1  0
 28 73  1  0
 28 74  1  0
 28 75  1  0
 29 76  1  0
 29 77  1  0
 30 78  1  0
 30 79  1  0
 32 80  1  0
 32 81  1  0
 32 82  1  0
M  END
>  <meeko>  (6) 
{"is_sidechain": [false], "intermolecular_energy": 2.731, "internal_energy": -0.839}

$$$$
EPH_relaxed_0001_pdb2pqr_Repair_107_r2_0001_out
     RDKit          3D

 82 86  0  0  0  0  0  0  0  0999 V2000
    0.4470    8.8670   -2.3930 C   0  0  0  0  0  0  0  0  0  0  0  0
    1.1940   10.0240   -3.0620 C   0  0  2  0  0  0  0  0  0  0  0  0
    2.6900   10.0410   -2.6920 C   0  0  0  0  0  0  0  0  0  0  0  0
    3.5940   10.5790   -3.8050 C   0  0  0  0  0  0  0  0  0  0  0  0
    4.9910   10.8190   -3.3170 C   0  0  2  0  0  0  0  0  0  0  0  0
    5.5860   12.0380   -3.7810 O   0  0  0  0  0  0  0  0  0  0  0  0
    6.2050   10.8200   -4.2270 C   0  0  0  0  0  0  0  0  0  0  0  0
    6.0790   10.5760   -5.6980 C   0  0  0  0  0  0  0  0  0  0  0  0
    7.5520   10.5730   -3.6220 C   0  0  0  0  0  0  0  0  0  0  0  0
    0.5480   11.3510   -2.6800 C   0  0  1  0  0  0  0  0  0  0  0  0
   -0.7970   11.1650   -1.9280 C   0  0  0  0  0  0  0  0  0  0  0  0
   -0.8900   12.3110   -0.8880 C   0  0  0  0  0  0  0  0  0  0  0  0
    0.2280   13.2990   -1.2960 C   0  0  1  0  0  0  0  0  0  0  0  0
   -0.3830   14.1380   -2.4620 C   0  0  0  0  0  0  0  0  0  0  0  0
    0.7900   14.2140   -0.1590 C   0  0  2  0  0  0  0  0  0  0  0  0
   -0.2320   15.1790    0.4670 C   0  0  0  0  0  0  0  0  0  0  0  0
   -0.3250   16.5200   -0.1830 C   0  0  0  0  0  0  0  0  0  0  0  0
    0.5750   17.0370   -1.0400 C   0  0  0  0  0  0  0  0  0  0  0  0
    1.8770   16.2920   -1.3600 C   0  0  1  0  0  0  0  0  0  0  0  0
    3.0710   17.2800   -1.2870 C   0  0  0  0  0  0  0  0  0  0  0  0
    2.8690   18.5080   -2.1690 C   0  0  0  0  0  0  0  0  0  0  0  0
    1.5950   19.2550   -1.7820 C   0  0  2  0  0  0  0  0  0  0  0  0
    1.7650   19.8070   -0.4720 O   0  0  0  0  0  0  0  0  0  0  0  0
    0.3260   18.3580   -1.8100 C   0  0  0  0  0  0  0  0  0  0  0  0
   -0.0300   18.0060   -3.2760 C   0  0  0  0  0  0  0  0  0  0  0  0
   -0.8620   19.1940   -1.2630 C   0  0  0  0  0  0  0  0  0  0  0  0
    2.1350   14.9600   -0.5330 C   0  0  1  0  0  0  0  0  0  0  0  0
    2.8450   15.2990    0.8140 C   0  0  0  0  0  0  0  0  0  0  0  0
    3.1260   14.0390   -1.3370 C   0  0  0  0  0  0  0  0  0  0  0  0
    2.5000   13.0710   -2.3600 C   0  0  0  0  0  0  0  0  0  0  0  0
    1.3450   12.2840   -1.7350 C   0  0  2  0  0  0  0  0  0  0  0  0
    1.9340   11.4130   -0.5730 C   0  0  0  0  0  0  0  0  0  0  0  0
    0.5139    8.9706   -1.2999 H   0  0  0  0  0  0  0  0  0  0  0  0
   -0.6093    8.8867   -2.6992 H   0  0  0  0  0  0  0  0  0  0  0  0
    0.8998    7.9124   -2.6992 H   0  0  0  0  0  0  0  0  0  0  0  0
    1.1247    9.8765   -4.1499 H   0  0  0  0  0  0  0  0  0  0  0  0
    2.8204   10.6745   -1.8022 H   0  0  0  0  0  0  0  0  0  0  0  0
    2.9883    8.9976   -2.5121 H   0  0  0  0  0  0  0  0  0  0  0  0
    3.6238    9.8468   -4.6253 H   0  0  0  0  0  0  0  0  0  0  0  0
    3.1810   11.5389   -4.1484 H   0  0  0  0  0  0  0  0  0  0  0  0
    4.7768   10.2968   -2.3729 H   0  0  0  0  0  0  0  0  0  0  0  0
    5.5804    9.6104   -5.8681 H   0  0  0  0  0  0  0  0  0  0  0  0
    5.4840   11.3812   -6.1536 H   0  0  0  0  0  0  0  0  0  0  0  0
    7.0800   10.5570   -6.1536 H   0  0  0  0  0  0  0  0  0  0  0  0
    7.4697   10.5881   -2.5252 H   0  0  0  0  0  0  0  0  0  0  0  0
    7.9260    9.5913   -3.9481 H   0  0  0  0  0  0  0  0  0  0  0  0
    8.2500   11.3581   -3.9481 H   0  0  0  0  0  0  0  0  0  0  0  0
    0.4632   11.8089   -3.6766 H   0  0  0  0  0  0  0  0  0  0  0  0
   -1.6377   11.2257   -2.6348 H   0  0  0  0  0  0  0  0  0  0  0  0
   -0.8425   10.1816   -1.4373 H   0  0  0  0  0  0  0  0  0  0  0  0
   -1.8750   12.7984   -0.9342 H   0  0  0  0  0  0  0  0  0  0  0  0
   -0.7709   11.9489    0.1439 H   0  0  0  0  0  0  0  0  0  0  0  0
   -0.9825   14.9613   -2.0463 H   0  0  0  0  0  0  0  0  0  0  0  0
    0.4275   14.5507   -3.0807 H   0  0  0  0  0  0  0  0  0  0  0  0
   -1.0245   13.4932   -3.0807 H   0  0  0  0  0  0  0  0  0  0  0  0
    1.0361   13.4870    0.6290 H   0  0  0  0  0  0  0  0  0  0  0  0
   -1.2235   14.7057    0.4130 H   0  0  0  0  0  0  0  0  0  0  0  0
    0.1134   15.3627    1.4951 H   0  0  0  0  0  0  0  0  0  0  0  0
   -1.2028   17.1373    0.0588 H   0  0  0  0  0  0  0  0  0  0  0  0
    1.7670   15.9156   -2.3877 H   0  0  0  0  0  0  0  0  0  0  0  0
    3.1920   17.6105   -0.2448 H   0  0  0  0  0  0  0  0  0  0  0  0
    3.9645   16.7513   -1.6504 H   0  0  0  0  0  0  0  0  0  0  0  0
    3.7308   19.1813   -2.0513 H   0  0  0  0  0  0  0  0  0  0  0  0
    2.7783   18.1780   -3.2144 H   0  0  0  0  0  0  0  0  0  0  0  0
    1.4361   20.0460   -2.5297 H   0  0  0  0  0  0  0  0  0  0  0  0
    2.2370   19.1490    0.0660 H   0  0  0  0  0  0  0  0  0  0  0  0
   -0.8122   17.2326   -3.2878 H   0  0  0  0  0  0  0  0  0  0  0  0
   -0.3968   18.9064   -3.7906 H   0  0  0  0  0  0  0  0  0  0  0  0
    0.8662   17.6290   -3.7906 H   0  0  0  0  0  0  0  0  0  0  0  0
   -0.8437   19.1812   -0.1632 H   0  0  0  0  0  0  0  0  0  0  0  0
   -0.7752   20.2311   -1.6191 H   0  0  0  0  0  0  0  0  0  0  0  0
   -1.8089   18.7621   -1.6191 H   0  0  0  0  0  0  0  0  0  0  0  0
    2.2038   14.9928    1.6537 H   0  0  0  0  0  0  0  0  0  0  0  0
    3.8029   14.7611    0.8691 H   0  0  0  0  0  0  0  0  0  0  0  0
    3.0290   16.3821    0.8691 H   0  0  0  0  0  0  0  0  0  0  0  0
    3.8218   14.6943   -1.8815 H   0  0  0  0  0  0  0  0  0  0  0  0
    3.5968   13.3936   -0.5808 H   0  0  0  0  0  0  0  0  0  0  0  0
    2.1203   13.6483   -3.2159 H   0  0  0  0  0  0  0  0  0  0  0  0
    3.2723   12.3594   -2.6873 H   0  0  0  0  0  0  0  0  0  0  0  0
    1.6410   11.8462    0.3947 H   0  0  0  0  0  0  0  0  0  0  0  0
    1.5432   10.3876   -0.6490 H   0  0  0  0  0  0  0  0  0  0  0  0
    3.0312   11.3938   -0.6490 H   0  0  0  0  0  0  0  0  0  0  0  0
  1  2  1  0
  2  3  1  0
  3  4  1  0
  4  5  1  0
  5  6  1  0
  6  7  1  0
  7  8  1  0
  7  9  1  0
  2 10  1  0
 10 11  1  0
 11 12  1  0
 12 13  1  0
 13 14  1  6
 13 15  1  0
 15 16  1  0
 16 17  1  0
 17 18  2  0
 18 19  1  0
 19 20  1  0
 20 21  1  0
 21 22  1  0
 22 23  1  0
 22 24  1  0
 24 25  1  0
 24 26  1  0
 19 27  1  0
 27 28  1  1
 27 29  1  0
 29 30  1  0
 30 31  1  0
 31 32  1  1
  7  5  1  0
 31 10  1  0
 31 13  1  0
 27 15  1  0
 24 18  1  0
  1 33  1  0
  1 34  1  0
  1 35  1  0
  2 36  1  6
  3 37  1  0
  3 38  1  0
  4 39  1  0
  4 40  1  0
  5 41  1  1
  8 42  1  0
  8 43  1  0
  8 44  1  0
  9 45  1  0
  9 46  1  0
  9 47  1  0
 10 48  1  6
 11 49  1  0
 11 50  1  0
 12 51  1  0
 12 52  1  0
 14 53  1  0
 14 54  1  0
 14 55  1  0
 15 56  1  1
 16 57  1  0
 16 58  1  0
 17 59  1  0
 19 60  1  6
 20 61  1  0
 20 62  1  0
 21 63  1  0
 21 64  1  0
 22 65  1  6
 23 66  1  0
 25 67  1  0
 25 68  1  0
 25 69  1  0
 26 70  1  0
 26 71  1  0
 26 72  1  0
 28 73  1  0
 28 74  1  0
 28 75  1  0
 29 76  1  0
 29 77  1  0
 30 78  1  0
 30 79  1  0
 32 80  1  0
 32 81  1  0
 32 82  1  0
M  END
>  <meeko>  (7) 
{"is_sidechain": [false], "intermolecular_energy": 2.731, "internal_energy": -0.839}

$$$$
EPH_relaxed_0001_pdb2pqr_Repair_107_r2_0001_out
     RDKit          3D

 82 86  0  0  0  0  0  0  0  0999 V2000
  -14.3860    8.0160    0.6320 C   0  0  0  0  0  0  0  0  0  0  0  0
  -13.4220    9.2050    0.6680 C   0  0  2  0  0  0  0  0  0  0  0  0
  -13.6980   10.2100   -0.4680 C   0  0  0  0  0  0  0  0  0  0  0  0
  -15.0080    9.9490   -1.2160 C   0  0  0  0  0  0  0  0  0  0  0  0
  -14.8440   10.1160   -2.6960 C   0  0  2  0  0  0  0  0  0  0  0  0
  -13.6960   10.8800   -3.0890 O   0  0  0  0  0  0  0  0  0  0  0  0
  -14.9770   11.4500   -3.4080 C   0  0  0  0  0  0  0  0  0  0  0  0
  -15.2870   12.7070   -2.6580 C   0  0  0  0  0  0  0  0  0  0  0  0
  -15.2880   11.4520   -4.8720 C   0  0  0  0  0  0  0  0  0  0  0  0
  -11.9830    8.7090    0.5860 C   0  0  1  0  0  0  0  0  0  0  0  0
  -11.5920    7.8080    1.7880 C   0  0  0  0  0  0  0  0  0  0  0  0
  -10.6190    6.7320    1.2420 C   0  0  0  0  0  0  0  0  0  0  0  0
  -10.2240    7.2400   -0.1640 C   0  0  1  0  0  0  0  0  0  0  0  0
   -9.1070    8.3000    0.0920 C   0  0  0  0  0  0  0  0  0  0  0  0
   -9.7630    6.1520   -1.1880 C   0  0  2  0  0  0  0  0  0  0  0  0
   -8.4920    5.3800   -0.7930 C   0  0  0  0  0  0  0  0  0  0  0  0
   -7.2100    5.9750   -1.2750 C   0  0  0  0  0  0  0  0  0  0  0  0
   -7.0950    6.9170   -2.2290 C   0  0  0  0  0  0  0  0  0  0  0  0
   -8.3250    7.4120   -3.0000 C   0  0  1  0  0  0  0  0  0  0  0  0
   -8.0030    7.4510   -4.5180 C   0  0  0  0  0  0  0  0  0  0  0  0
   -6.7520    8.2670   -4.8290 C   0  0  0  0  0  0  0  0  0  0  0  0
   -5.5390    7.7090   -4.0900 C   0  0  2  0  0  0  0  0  0  0  0  0
   -5.2340    6.4140   -4.6160 O   0  0  0  0  0  0  0  0  0  0  0  0
   -5.7500    7.6130   -2.5530 C   0  0  0  0  0  0  0  0  0  0  0  0
   -5.7790    9.0360   -1.9410 C   0  0  0  0  0  0  0  0  0  0  0  0
   -4.5090    6.9050   -1.9440 C   0  0  0  0  0  0  0  0  0  0  0  0
   -9.6890    6.6600   -2.6850 C   0  0  1  0  0  0  0  0  0  0  0  0
   -9.8230    5.3980   -3.5910 C   0  0  0  0  0  0  0  0  0  0  0  0
  -10.8940    7.6040   -3.0570 C   0  0  0  0  0  0  0  0  0  0  0  0
  -11.3800    8.5730   -1.9630 C   0  0  0  0  0  0  0  0  0  0  0  0
  -11.5990    7.8380   -0.6370 C   0  0  2  0  0  0  0  0  0  0  0  0
  -12.7330    6.7800   -0.8580 C   0  0  0  0  0  0  0  0  0  0  0  0
  -14.6322    7.7123    1.6602 H   0  0  0  0  0  0  0  0  0  0  0  0
  -15.3068    8.3064    0.1050 H   0  0  0  0  0  0  0  0  0  0  0  0
  -13.9115    7.1751    0.1050 H   0  0  0  0  0  0  0  0  0  0  0  0
  -13.5804    9.7316    1.6207 H   0  0  0  0  0  0  0  0  0  0  0  0
  -13.7407   11.2203   -0.0351 H   0  0  0  0  0  0  0  0  0  0  0  0
  -12.8833   10.1006   -1.1989 H   0  0  0  0  0  0  0  0  0  0  0  0
  -15.3386    8.9207   -1.0078 H   0  0  0  0  0  0  0  0  0  0  0  0
  -15.7526   10.6805   -0.8689 H   0  0  0  0  0  0  0  0  0  0  0  0
  -15.3006    9.1325   -2.8810 H   0  0  0  0  0  0  0  0  0  0  0  0
  -15.2385   12.5103   -1.5768 H   0  0  0  0  0  0  0  0  0  0  0  0
  -14.5532   13.4825   -2.9229 H   0  0  0  0  0  0  0  0  0  0  0  0
  -16.2972   13.0524   -2.9229 H   0  0  0  0  0  0  0  0  0  0  0  0
  -16.3786   11.4590   -5.0152 H   0  0  0  0  0  0  0  0  0  0  0  0
  -14.8512   12.3474   -5.3384 H   0  0  0  0  0  0  0  0  0  0  0  0
  -14.8628   10.5511   -5.3384 H   0  0  0  0  0  0  0  0  0  0  0  0
  -11.4579    9.6745    0.5399 H   0  0  0  0  0  0  0  0  0  0  0  0
  -11.0961    8.4077    2.5655 H   0  0  0  0  0  0  0  0  0  0  0  0
  -12.4812    7.3439    2.2396 H   0  0  0  0  0  0  0  0  0  0  0  0
   -9.7323    6.6471    1.8874 H   0  0  0  0  0  0  0  0  0  0  0  0
  -11.0776    5.7326    1.2106 H   0  0  0  0  0  0  0  0  0  0  0  0
   -8.9680    8.4319    1.1752 H   0  0  0  0  0  0  0  0  0  0  0  0
   -8.1647    7.9560   -0.3594 H   0  0  0  0  0  0  0  0  0  0  0  0
   -9.4012    9.2590   -0.3594 H   0  0  0  0  0  0  0  0  0  0  0  0
  -10.5834    5.4209   -1.1393 H   0  0  0  0  0  0  0  0  0  0  0  0
   -8.4520    5.3298    0.3051 H   0  0  0  0  0  0  0  0  0  0  0  0
   -8.5713    4.3948   -1.2758 H   0  0  0  0  0  0  0  0  0  0  0  0
   -6.2809    5.6125   -0.8109 H   0  0  0  0  0  0  0  0  0  0  0  0
   -8.5245    8.4300   -2.6342 H   0  0  0  0  0  0  0  0  0  0  0  0
   -7.8496    6.4211   -4.8727 H   0  0  0  0  0  0  0  0  0  0  0  0
   -8.8510    7.9320   -5.0273 H   0  0  0  0  0  0  0  0  0  0  0  0
   -6.5605    8.2338   -5.9117 H   0  0  0  0  0  0  0  0  0  0  0  0
   -6.9178    9.3032   -4.4992 H   0  0  0  0  0  0  0  0  0  0  0  0
   -4.7048    8.4082   -4.2492 H   0  0  0  0  0  0  0  0  0  0  0  0
   -5.8530    5.7800   -4.2140 H   0  0  0  0  0  0  0  0  0  0  0  0
   -5.7775    8.9632   -0.8434 H   0  0  0  0  0  0  0  0  0  0  0  0
   -4.8921    9.5959   -2.2725 H   0  0  0  0  0  0  0  0  0  0  0  0
   -6.6880    9.5593   -2.2725 H   0  0  0  0  0  0  0  0  0  0  0  0
   -4.5692    6.9394   -0.8462 H   0  0  0  0  0  0  0  0  0  0  0  0
   -4.4845    5.8570   -2.2772 H   0  0  0  0  0  0  0  0  0  0  0  0
   -3.5944    7.4172   -2.2772 H   0  0  0  0  0  0  0  0  0  0  0  0
   -9.9181    4.5020   -2.9600 H   0  0  0  0  0  0  0  0  0  0  0  0
  -10.7158    5.4957   -4.2261 H   0  0  0  0  0  0  0  0  0  0  0  0
   -8.9296    5.3060   -4.2261 H   0  0  0  0  0  0  0  0  0  0  0  0
  -10.5885    8.2075   -3.9244 H   0  0  0  0  0  0  0  0  0  0  0  0
  -11.7426    6.9287   -3.2413 H   0  0  0  0  0  0  0  0  0  0  0  0
  -10.6250    9.3597   -1.8179 H   0  0  0  0  0  0  0  0  0  0  0  0
  -12.3367    9.0116   -2.2829 H   0  0  0  0  0  0  0  0  0  0  0  0
  -13.1054    6.4326    0.1170 H   0  0  0  0  0  0  0  0  0  0  0  0
  -13.5576    7.2390   -1.4231 H   0  0  0  0  0  0  0  0  0  0  0  0
  -12.3322    5.9256   -1.4231 H   0  0  0  0  0  0  0  0  0  0  0  0
  1  2  1  0
  2  3  1  0
  3  4  1  0
  4  5  1  0
  5  6  1  0
  6  7  1  0
  7  8  1  0
  7  9  1  0
  2 10  1  0
 10 11  1  0
 11 12  1  0
 12 13  1  0
 13 14  1  1
 13 15  1  0
 15 16  1  0
 16 17  1  0
 17 18  2  0
 18 19  1  0
 19 20  1  0
 20 21  1  0
 21 22  1  0
 22 23  1  0
 22 24  1  0
 24 25  1  0
 24 26  1  0
 19 27  1  0
 27 28  1  6
 27 29  1  0
 29 30  1  0
 30 31  1  0
 31 32  1  6
  7  5  1  0
 31 10  1  0
 31 13  1  0
 27 15  1  0
 24 18  1  0
  1 33  1  0
  1 34  1  0
  1 35  1  0
  2 36  1  1
  3 37  1  0
  3 38  1  0
  4 39  1  0
  4 40  1  0
  5 41  1  6
  8 42  1  0
  8 43  1  0
  8 44  1  0
  9 45  1  0
  9 46  1  0
  9 47  1  0
 10 48  1  1
 11 49  1  0
 11 50  1  0
 12 51  1  0
 12 52  1  0
 14 53  1  0
 14 54  1  0
 14 55  1  0
 15 56  1  6
 16 57  1  0
 16 58  1  0
 17 59  1  0
 19 60  1  1
 20 61  1  0
 20 62  1  0
 21 63  1  0
 21 64  1  0
 22 65  1  1
 23 66  1  0
 25 67  1  0
 25 68  1  0
 25 69  1  0
 26 70  1  0
 26 71  1  0
 26 72  1  0
 28 73  1  0
 28 74  1  0
 28 75  1  0
 29 76  1  0
 29 77  1  0
 30 78  1  0
 30 79  1  0
 32 80  1  0
 32 81  1  0
 32 82  1  0
M  END
>  <meeko>  (8) 
{"is_sidechain": [false], "intermolecular_energy": 2.731, "internal_energy": -0.839}

$$$$
EPH_relaxed_0001_pdb2pqr_Repair_107_r2_0001_out
     RDKit          3D

 82 86  0  0  0  0  0  0  0  0999 V2000
  -15.2840    7.0340    0.0860 C   0  0  0  0  0  0  0  0  0  0  0  0
  -14.9100    8.1510   -0.8920 C   0  0  2  0  0  0  0  0  0  0  0  0
  -15.2670    7.7930   -2.3480 C   0  0  0  0  0  0  0  0  0  0  0  0
  -14.6880    8.7640   -3.3810 C   0  0  0  0  0  0  0  0  0  0  0  0
  -15.2870   10.1320   -3.2520 C   0  0  2  0  0  0  0  0  0  0  0  0
  -14.8840   11.0600   -4.2680 O   0  0  0  0  0  0  0  0  0  0  0  0
  -14.4780   11.3720   -2.9250 C   0  0  0  0  0  0  0  0  0  0  0  0
  -12.9990   11.3030   -2.7060 C   0  0  0  0  0  0  0  0  0  0  0  0
  -15.1850   12.5550   -2.3410 C   0  0  0  0  0  0  0  0  0  0  0  0
  -13.4220    8.4610   -0.7810 C   0  0  1  0  0  0  0  0  0  0  0  0
  -12.9970    8.8490    0.6600 C   0  0  0  0  0  0  0  0  0  0  0  0
  -11.5670    8.2880    0.8710 C   0  0  0  0  0  0  0  0  0  0  0  0
  -11.0900    7.8930   -0.5460 C   0  0  1  0  0  0  0  0  0  0  0  0
  -10.6070    9.2280   -1.1930 C   0  0  0  0  0  0  0  0  0  0  0  0
   -9.9900    6.7840   -0.6200 C   0  0  2  0  0  0  0  0  0  0  0  0
   -8.6500    7.1480    0.0440 C   0  0  0  0  0  0  0  0  0  0  0  0
   -7.6520    7.8040   -0.8520 C   0  0  0  0  0  0  0  0  0  0  0  0
   -7.7090    7.8340   -2.1960 C   0  0  0  0  0  0  0  0  0  0  0  0
   -8.8070    7.0790   -2.9550 C   0  0  1  0  0  0  0  0  0  0  0  0
   -8.1750    6.2890   -4.1310 C   0  0  0  0  0  0  0  0  0  0  0  0
   -7.3360    7.1750   -5.0470 C   0  0  0  0  0  0  0  0  0  0  0  0
   -6.2190    7.8630   -4.2670 C   0  0  2  0  0  0  0  0  0  0  0  0
   -5.2910    6.8700   -3.8200 O   0  0  0  0  0  0  0  0  0  0  0  0
   -6.7350    8.6820   -3.0510 C   0  0  0  0  0  0  0  0  0  0  0  0
   -7.4940    9.9350   -3.5530 C   0  0  0  0  0  0  0  0  0  0  0  0
   -5.5000    9.2060   -2.2700 C   0  0  0  0  0  0  0  0  0  0  0  0
   -9.7730    6.1820   -2.0670 C   0  0  1  0  0  0  0  0  0  0  0  0
   -9.1530    4.7650   -1.8710 C   0  0  0  0  0  0  0  0  0  0  0  0
  -11.1300    5.9700   -2.8370 C   0  0  0  0  0  0  0  0  0  0  0  0
  -12.2210    7.0380   -2.6280 C   0  0  0  0  0  0  0  0  0  0  0  0
  -12.4300    7.3250   -1.1380 C   0  0  2  0  0  0  0  0  0  0  0  0
  -12.9380    6.0050   -0.4640 C   0  0  0  0  0  0  0  0  0  0  0  0
  -15.1632    7.3947    1.1181 H   0  0  0  0  0  0  0  0  0  0  0  0
  -16.3304    6.7375   -0.0787 H   0  0  0  0  0  0  0  0  0  0  0  0
  -14.6271    6.1672   -0.0787 H   0  0  0  0  0  0  0  0  0  0  0  0
  -15.4969    9.0403   -0.6187 H   0  0  0  0  0  0  0  0  0  0  0  0
  -14.8798    6.7861   -2.5628 H   0  0  0  0  0  0  0  0  0  0  0  0
  -16.3623    7.8489   -2.4332 H   0  0  0  0  0  0  0  0  0  0  0  0
  -13.6004    8.8355   -3.2328 H   0  0  0  0  0  0  0  0  0  0  0  0
  -14.9244    8.3791   -4.3840 H   0  0  0  0  0  0  0  0  0  0  0  0
  -16.2055    9.7142   -2.8140 H   0  0  0  0  0  0  0  0  0  0  0  0
  -12.7883   11.2932   -1.6264 H   0  0  0  0  0  0  0  0  0  0  0  0
  -12.6027   10.3854   -3.1653 H   0  0  0  0  0  0  0  0  0  0  0  0
  -12.5190   12.1797   -3.1653 H   0  0  0  0  0  0  0  0  0  0  0  0
  -15.1506   12.4975   -1.2430 H   0  0  0  0  0  0  0  0  0  0  0  0
  -14.6910   13.4792   -2.6754 H   0  0  0  0  0  0  0  0  0  0  0  0
  -16.2329   12.5577   -2.6754 H   0  0  0  0  0  0  0  0  0  0  0  0
  -13.3482    9.2722   -1.5203 H   0  0  0  0  0  0  0  0  0  0  0  0
  -12.9951    9.9432    0.7727 H   0  0  0  0  0  0  0  0  0  0  0  0
  -13.6964    8.4371    1.4024 H   0  0  0  0  0  0  0  0  0  0  0  0
  -10.9083    9.0561    1.3025 H   0  0  0  0  0  0  0  0  0  0  0  0
  -11.5512    7.4377    1.5686 H   0  0  0  0  0  0  0  0  0  0  0  0
  -10.3472    9.9462   -0.4013 H   0  0  0  0  0  0  0  0  0  0  0  0
   -9.7221    9.0340   -1.8169 H   0  0  0  0  0  0  0  0  0  0  0  0
  -11.4112    9.6451   -1.8169 H   0  0  0  0  0  0  0  0  0  0  0  0
  -10.4215    5.9827   -0.0021 H   0  0  0  0  0  0  0  0  0  0  0  0
   -8.8593    7.8330    0.8789 H   0  0  0  0  0  0  0  0  0  0  0  0
   -8.1975    6.1959    0.3583 H   0  0  0  0  0  0  0  0  0  0  0  0
   -6.7980    8.3051   -0.3729 H   0  0  0  0  0  0  0  0  0  0  0  0
   -9.4893    7.8481   -3.3461 H   0  0  0  0  0  0  0  0  0  0  0  0
   -7.5311    5.4981   -3.7188 H   0  0  0  0  0  0  0  0  0  0  0  0
   -8.9961    5.8705   -4.7316 H   0  0  0  0  0  0  0  0  0  0  0  0
   -6.8923    6.5550   -5.8399 H   0  0  0  0  0  0  0  0  0  0  0  0
   -7.9877    7.9472   -5.4818 H   0  0  0  0  0  0  0  0  0  0  0  0
   -5.7362    8.5814   -4.9458 H   0  0  0  0  0  0  0  0  0  0  0  0
   -5.6730    5.9990   -4.0190 H   0  0  0  0  0  0  0  0  0  0  0  0
   -7.8479   10.5192   -2.6908 H   0  0  0  0  0  0  0  0  0  0  0  0
   -6.8184   10.5532   -4.1624 H   0  0  0  0  0  0  0  0  0  0  0  0
   -8.3548    9.6226   -4.1624 H   0  0  0  0  0  0  0  0  0  0  0  0
   -5.6886    9.1260   -1.1893 H   0  0  0  0  0  0  0  0  0  0  0  0
   -4.6173    8.6049   -2.5337 H   0  0  0  0  0  0  0  0  0  0  0  0
   -5.3189   10.2585   -2.5337 H   0  0  0  0  0  0  0  0  0  0  0  0
   -9.0595    4.5512   -0.7960 H   0  0  0  0  0  0  0  0  0  0  0  0
   -9.8039    4.0120   -2.3393 H   0  0  0  0  0  0  0  0  0  0  0  0
   -8.1582    4.7320   -2.3393 H   0  0  0  0  0  0  0  0  0  0  0  0
  -10.9006    5.9345   -3.9122 H   0  0  0  0  0  0  0  0  0  0  0  0
  -11.5529    5.0418   -2.4252 H   0  0  0  0  0  0  0  0  0  0  0  0
  -11.9173    7.9663   -3.1340 H   0  0  0  0  0  0  0  0  0  0  0  0
  -13.1652    6.6613   -3.0481 H   0  0  0  0  0  0  0  0  0  0  0  0
  -12.8966    6.1125    0.6300 H   0  0  0  0  0  0  0  0  0  0  0  0
  -13.9752    5.8105   -0.7744 H   0  0  0  0  0  0  0  0  0  0  0  0
  -12.2988    5.1653   -0.7744 H   0  0  0  0  0  0  0  0  0  0  0  0
  1  2  1  0
  2  3  1  0
  3  4  1  0
  4  5  1  0
  5  6  1  0
  6  7  1  0
  7  8  1  0
  7  9  1  0
  2 10  1  0
 10 11  1  0
 11 12  1  0
 12 13  1  0
 13 14  1  6
 13 15  1  0
 15 16  1  0
 16 17  1  0
 17 18  2  0
 18 19  1  0
 19 20  1  0
 20 21  1  0
 21 22  1  0
 22 23  1  0
 22 24  1  0
 24 25  1  0
 24 26  1  0
 19 27  1  0
 27 28  1  1
 27 29  1  0
 29 30  1  0
 30 31  1  0
 31 32  1  1
  7  5  1  0
 31 10  1  0
 31 13  1  0
 27 15  1  0
 24 18  1  0
  1 33  1  0
  1 34  1  0
  1 35  1  0
  2 36  1  1
  3 37  1  0
  3 38  1  0
  4 39  1  0
  4 40  1  0
  5 41  1  1
  8 42  1  0
  8 43  1  0
  8 44  1  0
  9 45  1  0
  9 46  1  0
  9 47  1  0
 10 48  1  6
 11 49  1  0
 11 50  1  0
 12 51  1  0
 12 52  1  0
 14 53  1  0
 14 54  1  0
 14 55  1  0
 15 56  1  1
 16 57  1  0
 16 58  1  0
 17 59  1  0
 19 60  1  6
 20 61  1  0
 20 62  1  0
 21 63  1  0
 21 64  1  0
 22 65  1  6
 23 66  1  0
 25 67  1  0
 25 68  1  0
 25 69  1  0
 26 70  1  0
 26 71  1  0
 26 72  1  0
 28 73  1  0
 28 74  1  0
 28 75  1  0
 29 76  1  0
 29 77  1  0
 30 78  1  0
 30 79  1  0
 32 80  1  0
 32 81  1  0
 32 82  1  0
M  END
>  <meeko>  (9) 
{"is_sidechain": [false], "intermolecular_energy": 2.731, "internal_energy": -0.839}

$$$$
EPH_relaxed_0001_pdb2pqr_Repair_107_r2_0001_out
     RDKit          3D

 82 86  0  0  0  0  0  0  0  0999 V2000
    0.2150   17.7620   -2.5800 C   0  0  0  0  0  0  0  0  0  0  0  0
   -0.0490   16.8990   -1.3430 C   0  0  2  0  0  0  0  0  0  0  0  0
   -0.0770   17.7350   -0.0470 C   0  0  0  0  0  0  0  0  0  0  0  0
    0.5590   19.1190   -0.1940 C   0  0  0  0  0  0  0  0  0  0  0  0
    1.6920   19.3130    0.7690 C   0  0  2  0  0  0  0  0  0  0  0  0
    2.7250   20.1940    0.3080 O   0  0  0  0  0  0  0  0  0  0  0  0
    3.1040   18.8230    0.5080 C   0  0  0  0  0  0  0  0  0  0  0  0
    3.4590   18.0990   -0.7520 C   0  0  0  0  0  0  0  0  0  0  0  0
    4.0160   18.6150    1.6770 C   0  0  0  0  0  0  0  0  0  0  0  0
    1.0090   15.8070   -1.2360 C   0  0  1  0  0  0  0  0  0  0  0  0
    1.1360   15.2380    0.2030 C   0  0  0  0  0  0  0  0  0  0  0  0
    1.4630   13.7290    0.0590 C   0  0  0  0  0  0  0  0  0  0  0  0
    1.8390   13.5520   -1.4310 C   0  0  1  0  0  0  0  0  0  0  0  0
    3.3270   14.0120   -1.5270 C   0  0  0  0  0  0  0  0  0  0  0  0
    1.6380   12.1210   -2.0280 C   0  0  2  0  0  0  0  0  0  0  0  0
    2.4940   11.0180   -1.3820 C   0  0  0  0  0  0  0  0  0  0  0  0
    3.8260   10.7900   -2.0160 C   0  0  0  0  0  0  0  0  0  0  0  0
    4.2020   11.2390   -3.2280 C   0  0  0  0  0  0  0  0  0  0  0  0
    3.2110   11.9790   -4.1370 C   0  0  1  0  0  0  0  0  0  0  0  0
    3.3040   11.4080   -5.5760 C   0  0  0  0  0  0  0  0  0  0  0  0
    4.7280   11.4310   -6.1240 C   0  0  0  0  0  0  0  0  0  0  0  0
    5.6710   10.6370   -5.2250 C   0  0  2  0  0  0  0  0  0  0  0  0
    5.3110    9.2540   -5.2860 O   0  0  0  0  0  0  0  0  0  0  0  0
    5.6560   11.1160   -3.7460 C   0  0  0  0  0  0  0  0  0  0  0  0
    6.3290   12.5080   -3.6430 C   0  0  0  0  0  0  0  0  0  0  0  0
    6.5410   10.1440   -2.9200 C   0  0  0  0  0  0  0  0  0  0  0  0
    1.7150   12.0620   -3.6080 C   0  0  1  0  0  0  0  0  0  0  0  0
    0.9250   10.7900   -4.0450 C   0  0  0  0  0  0  0  0  0  0  0  0
    0.9960   13.2860   -4.2880 C   0  0  0  0  0  0  0  0  0  0  0  0
    1.1330   14.6500   -3.5860 C   0  0  0  0  0  0  0  0  0  0  0  0
    0.8060   14.5340   -2.0940 C   0  0  2  0  0  0  0  0  0  0  0  0
   -0.6930   14.0930   -1.9660 C   0  0  0  0  0  0  0  0  0  0  0  0
    0.5233   18.7698   -2.2650 H   0  0  0  0  0  0  0  0  0  0  0  0
    1.0145   17.3053   -3.1818 H   0  0  0  0  0  0  0  0  0  0  0  0
   -0.7032   17.8308   -3.1818 H   0  0  0  0  0  0  0  0  0  0  0  0
   -1.0429   16.4431   -1.4631 H   0  0  0  0  0  0  0  0  0  0  0  0
   -1.1253   17.8653    0.2596 H   0  0  0  0  0  0  0  0  0  0  0  0
    0.5142   17.1874    0.7017 H   0  0  0  0  0  0  0  0  0  0  0  0
    0.9401   19.2292   -1.2200 H   0  0  0  0  0  0  0  0  0  0  0  0
   -0.2098   19.8749    0.0238 H   0  0  0  0  0  0  0  0  0  0  0  0
    1.0151   19.1905    1.6274 H   0  0  0  0  0  0  0  0  0  0  0  0
    3.9306   17.1372   -0.5018 H   0  0  0  0  0  0  0  0  0  0  0  0
    2.5473   17.9183   -1.3404 H   0  0  0  0  0  0  0  0  0  0  0  0
    4.1601   18.7091   -1.3404 H   0  0  0  0  0  0  0  0  0  0  0  0
    3.4499   18.7441    2.6112 H   0  0  0  0  0  0  0  0  0  0  0  0
    4.4344   17.5984    1.6393 H   0  0  0  0  0  0  0  0  0  0  0  0
    4.8338   19.3497    1.6393 H   0  0  0  0  0  0  0  0  0  0  0  0
    1.8872   16.3647   -1.5934 H   0  0  0  0  0  0  0  0  0  0  0  0
    1.9450   15.7512    0.7434 H   0  0  0  0  0  0  0  0  0  0  0  0
    0.2062   15.3886    0.7712 H   0  0  0  0  0  0  0  0  0  0  0  0
    2.3064   13.4507    0.7081 H   0  0  0  0  0  0  0  0  0  0  0  0
    0.6188   13.0890    0.3552 H   0  0  0  0  0  0  0  0  0  0  0  0
    3.7376   14.1389   -0.5144 H   0  0  0  0  0  0  0  0  0  0  0  0
    3.9114   13.2526   -2.0671 H   0  0  0  0  0  0  0  0  0  0  0  0
    3.3809   14.9687   -2.0671 H   0  0  0  0  0  0  0  0  0  0  0  0
    0.5985   11.8929   -1.7498 H   0  0  0  0  0  0  0  0  0  0  0  0
    2.6609   11.2902   -0.3294 H   0  0  0  0  0  0  0  0  0  0  0  0
    1.9315   10.0816   -1.5115 H   0  0  0  0  0  0  0  0  0  0  0  0
    4.5624   10.2058   -1.4446 H   0  0  0  0  0  0  0  0  0  0  0  0
    3.5228   13.0339   -4.1335 H   0  0  0  0  0  0  0  0  0  0  0  0
    2.9467   10.3677   -5.5663 H   0  0  0  0  0  0  0  0  0  0  0  0
    2.6853   12.0426   -6.2276 H   0  0  0  0  0  0  0  0  0  0  0  0
    4.7333   10.9888   -7.1312 H   0  0  0  0  0  0  0  0  0  0  0  0
    5.0734   12.4747   -6.1604 H   0  0  0  0  0  0  0  0  0  0  0  0
    6.6938   10.7979   -5.5965 H   0  0  0  0  0  0  0  0  0  0  0  0
    4.7290    9.0670   -4.5300 H   0  0  0  0  0  0  0  0  0  0  0  0
    6.4582   12.7753   -2.5838 H   0  0  0  0  0  0  0  0  0  0  0  0
    7.3118   12.4775   -4.1360 H   0  0  0  0  0  0  0  0  0  0  0  0
    5.6947   13.2594   -4.1360 H   0  0  0  0  0  0  0  0  0  0  0  0
    6.3785   10.3224   -1.8468 H   0  0  0  0  0  0  0  0  0  0  0  0
    6.2716    9.1058   -3.1640 H   0  0  0  0  0  0  0  0  0  0  0  0
    7.5999   10.3151   -3.1640 H   0  0  0  0  0  0  0  0  0  0  0  0
    0.5860   10.2442   -3.1522 H   0  0  0  0  0  0  0  0  0  0  0  0
    0.0530   11.0883   -4.6455 H   0  0  0  0  0  0  0  0  0  0  0  0
    1.5789   10.1405   -4.6455 H   0  0  0  0  0  0  0  0  0  0  0  0
    1.4069   13.3914   -5.3029 H   0  0  0  0  0  0  0  0  0  0  0  0
   -0.0772   13.0481   -4.2474 H   0  0  0  0  0  0  0  0  0  0  0  0
    2.1654   15.0118   -3.7011 H   0  0  0  0  0  0  0  0  0  0  0  0
    0.4246   15.3543   -4.0466 H   0  0  0  0  0  0  0  0  0  0  0  0
   -0.9624   14.0138   -0.9024 H   0  0  0  0  0  0  0  0  0  0  0  0
   -1.3377   14.8395   -2.4529 H   0  0  0  0  0  0  0  0  0  0  0  0
   -0.8307   13.1163   -2.4529 H   0  0  0  0  0  0  0  0  0  0  0  0
  1  2  1  0
  2  3  1  0
  3  4  1  0
  4  5  1  0
  5  6  1  0
  6  7  1  0
  7  8  1  0
  7  9  1  0
  2 10  1  0
 10 11  1  0
 11 12  1  0
 12 13  1  0
 13 14  1  1
 13 15  1  0
 15 16  1  0
 16 17  1  0
 17 18  2  0
 18 19  1  0
 19 20  1  0
 20 21  1  0
 21 22  1  0
 22 23  1  0
 22 24  1  0
 24 25  1  0
 24 26  1  0
 19 27  1  0
 27 28  1  6
 27 29  1  0
 29 30  1  0
 30 31  1  0
 31 32  1  6
  7  5  1  0
 31 10  1  0
 31 13  1  0
 27 15  1  0
 24 18  1  0
  1 33  1  0
  1 34  1  0
  1 35  1  0
  2 36  1  6
  3 37  1  0
  3 38  1  0
  4 39  1  0
  4 40  1  0
  5 41  1  1
  8 42  1  0
  8 43  1  0
  8 44  1  0
  9 45  1  0
  9 46  1  0
  9 47  1  0
 10 48  1  6
 11 49  1  0
 11 50  1  0
 12 51  1  0
 12 52  1  0
 14 53  1  0
 14 54  1  0
 14 55  1  0
 15 56  1  6
 16 57  1  0
 16 58  1  0
 17 59  1  0
 19 60  1  6
 20 61  1  0
 20 62  1  0
 21 63  1  0
 21 64  1  0
 22 65  1  6
 23 66  1  0
 25 67  1  0
 25 68  1  0
 25 69  1  0
 26 70  1  0
 26 71  1  0
 26 72  1  0
 28 73  1  0
 28 74  1  0
 28 75  1  0
 29 76  1  0
 29 77  1  0
 30 78  1  0
 30 79  1  0
 32 80  1  0
 32 81  1  0
 32 82  1  0
M  END
>  <meeko>  (10) 
{"is_sidechain": [false], "intermolecular_energy": 2.731, "internal_energy": -0.839}

$$$$
EPH_relaxed_0001_pdb2pqr_Repair_107_r2_0001_out
     RDKit          3D

 82 86  0  0  0  0  0  0  0  0999 V2000
   -1.4370    7.8730   -1.5770 C   0  0  0  0  0  0  0  0  0  0  0  0
   -1.6730    8.6680   -0.2900 C   0  0  2  0  0  0  0  0  0  0  0  0
   -3.1520    8.6410    0.1460 C   0  0  0  0  0  0  0  0  0  0  0  0
   -4.1290    9.0240   -0.9680 C   0  0  0  0  0  0  0  0  0  0  0  0
   -5.1860    7.9790   -1.1620 C   0  0  2  0  0  0  0  0  0  0  0  0
   -5.1860    7.3590   -2.4540 O   0  0  0  0  0  0  0  0  0  0  0  0
   -6.3490    8.1340   -2.1240 C   0  0  0  0  0  0  0  0  0  0  0  0
   -6.5160    9.3670   -2.9550 C   0  0  0  0  0  0  0  0  0  0  0  0
   -7.5790    7.3100   -1.8990 C   0  0  0  0  0  0  0  0  0  0  0  0
   -1.2110   10.1080   -0.4760 C   0  0  1  0  0  0  0  0  0  0  0  0
   -0.7190   10.7540    0.8470 C   0  0  0  0  0  0  0  0  0  0  0  0
    0.4470   11.7050    0.4740 C   0  0  0  0  0  0  0  0  0  0  0  0
    0.3720   11.8300   -1.0650 C   0  0  1  0  0  0  0  0  0  0  0  0
   -0.7430   12.8900   -1.3280 C   0  0  0  0  0  0  0  0  0  0  0  0
    1.7040   12.2010   -1.7950 C   0  0  2  0  0  0  0  0  0  0  0  0
    2.2910   13.5730   -1.4230 C   0  0  0  0  0  0  0  0  0  0  0  0
    1.8370   14.7130   -2.2730 C   0  0  0  0  0  0  0  0  0  0  0  0
    1.2190   14.6020   -3.4640 C   0  0  0  0  0  0  0  0  0  0  0  0
    1.0070   13.2310   -4.1170 C   0  0  1  0  0  0  0  0  0  0  0  0
    1.4130   13.3000   -5.6130 C   0  0  0  0  0  0  0  0  0  0  0  0
    0.6980   14.4200   -6.3620 C   0  0  0  0  0  0  0  0  0  0  0  0
    0.9800   15.7750   -5.7170 C   0  0  2  0  0  0  0  0  0  0  0  0
    2.3650   16.0880   -5.8910 O   0  0  0  0  0  0  0  0  0  0  0  0
    0.6190   15.8220   -4.2060 C   0  0  0  0  0  0  0  0  0  0  0  0
   -0.9200   15.7840   -4.0380 C   0  0  0  0  0  0  0  0  0  0  0  0
    1.0830   17.1940   -3.6470 C   0  0  0  0  0  0  0  0  0  0  0  0
    1.6630   11.9950   -3.3630 C   0  0  1  0  0  0  0  0  0  0  0  0
    3.1410   11.8130   -3.8270 C   0  0  0  0  0  0  0  0  0  0  0  0
    0.9030   10.6790   -3.7750 C   0  0  0  0  0  0  0  0  0  0  0  0
   -0.3360   10.3030   -2.9400 C   0  0  0  0  0  0  0  0  0  0  0  0
   -0.0250   10.3560   -1.4420 C   0  0  2  0  0  0  0  0  0  0  0  0
    1.0780    9.2840   -1.1440 C   0  0  0  0  0  0  0  0  0  0  0  0
   -1.1324    6.8469   -1.3235 H   0  0  0  0  0  0  0  0  0  0  0  0
   -2.3655    7.8449   -2.1661 H   0  0  0  0  0  0  0  0  0  0  0  0
   -0.6435    8.3561   -2.1661 H   0  0  0  0  0  0  0  0  0  0  0  0
   -1.0850    8.1894    0.5070 H   0  0  0  0  0  0  0  0  0  0  0  0
   -3.3951    7.6237    0.4865 H   0  0  0  0  0  0  0  0  0  0  0  0
   -3.2655    9.3892    0.9443 H   0  0  0  0  0  0  0  0  0  0  0  0
   -4.6131    9.9763   -0.7058 H   0  0  0  0  0  0  0  0  0  0  0  0
   -3.5611    9.1155   -1.9056 H   0  0  0  0  0  0  0  0  0  0  0  0
   -5.1396    7.7017   -0.0985 H   0  0  0  0  0  0  0  0  0  0  0  0
   -6.6342   10.2399   -2.2962 H   0  0  0  0  0  0  0  0  0  0  0  0
   -5.6283    9.5043   -3.5899 H   0  0  0  0  0  0  0  0  0  0  0  0
   -7.4083    9.2632   -3.5899 H   0  0  0  0  0  0  0  0  0  0  0  0
   -7.7507    7.1950   -0.8186 H   0  0  0  0  0  0  0  0  0  0  0  0
   -8.4448    7.8111   -2.3566 H   0  0  0  0  0  0  0  0  0  0  0  0
   -7.4450    6.3187   -2.3566 H   0  0  0  0  0  0  0  0  0  0  0  0
   -2.1318   10.5440   -0.8908 H   0  0  0  0  0  0  0  0  0  0  0  0
   -1.5351   11.3218    1.3177 H   0  0  0  0  0  0  0  0  0  0  0  0
   -0.3890    9.9864    1.5624 H   0  0  0  0  0  0  0  0  0  0  0  0
    0.3141   12.6876    0.9502 H   0  0  0  0  0  0  0  0  0  0  0  0
    1.4211   11.3238    0.8143 H   0  0  0  0  0  0  0  0  0  0  0  0
   -1.1316   13.2594   -0.3675 H   0  0  0  0  0  0  0  0  0  0  0  0
   -0.3228   13.7298   -1.9009 H   0  0  0  0  0  0  0  0  0  0  0  0
   -1.5604   12.4279   -1.9009 H   0  0  0  0  0  0  0  0  0  0  0  0
    2.4079   11.4567   -1.3943 H   0  0  0  0  0  0  0  0  0  0  0  0
    2.0098   13.7920   -0.3823 H   0  0  0  0  0  0  0  0  0  0  0  0
    3.3769   13.4914   -1.5784 H   0  0  0  0  0  0  0  0  0  0  0  0
    2.0230   15.7290   -1.8946 H   0  0  0  0  0  0  0  0  0  0  0  0
   -0.0688   13.0178   -4.0324 H   0  0  0  0  0  0  0  0  0  0  0  0
    2.4979   13.4699   -5.6765 H   0  0  0  0  0  0  0  0  0  0  0  0
    1.1243   12.3476   -6.0816 H   0  0  0  0  0  0  0  0  0  0  0  0
    1.0493   14.4374   -7.4043 H   0  0  0  0  0  0  0  0  0  0  0  0
   -0.3851   14.2319   -6.3241 H   0  0  0  0  0  0  0  0  0  0  0  0
    0.3390   16.5174   -6.2149 H   0  0  0  0  0  0  0  0  0  0  0  0
    2.5800   15.9610   -6.8300 H   0  0  0  0  0  0  0  0  0  0  0  0
   -1.1719   15.7778   -2.9673 H   0  0  0  0  0  0  0  0  0  0  0  0
   -1.3628   16.6715   -4.5137 H   0  0  0  0  0  0  0  0  0  0  0  0
   -1.3185   14.8757   -4.5137 H   0  0  0  0  0  0  0  0  0  0  0  0
    1.0730   17.1643   -2.5474 H   0  0  0  0  0  0  0  0  0  0  0  0
    2.1032   17.4072   -3.9987 H   0  0  0  0  0  0  0  0  0  0  0  0
    0.4016   17.9827   -3.9987 H   0  0  0  0  0  0  0  0  0  0  0  0
    3.7946   11.7325   -2.9459 H   0  0  0  0  0  0  0  0  0  0  0  0
    3.2256   10.8977   -4.4311 H   0  0  0  0  0  0  0  0  0  0  0  0
    3.4451   12.6805   -4.4311 H   0  0  0  0  0  0  0  0  0  0  0  0
    0.5779   10.7954   -4.8194 H   0  0  0  0  0  0  0  0  0  0  0  0
    1.6231    9.8650   -3.6049 H   0  0  0  0  0  0  0  0  0  0  0  0
   -1.1486   11.0098   -3.1639 H   0  0  0  0  0  0  0  0  0  0  0  0
   -0.6352    9.2768   -3.1996 H   0  0  0  0  0  0  0  0  0  0  0  0
    1.1947    9.1706   -0.0561 H   0  0  0  0  0  0  0  0  0  0  0  0
    0.7809    8.3203   -1.5833 H   0  0  0  0  0  0  0  0  0  0  0  0
    2.0328    9.6084   -1.5833 H   0  0  0  0  0  0  0  0  0  0  0  0
  1  2  1  0
  2  3  1  0
  3  4  1  0
  4  5  1  0
  5  6  1  0
  6  7  1  0
  7  8  1  0
  7  9  1  0
  2 10  1  0
 10 11  1  0
 11 12  1  0
 12 13  1  0
 13 14  1  1
 13 15  1  0
 15 16  1  0
 16 17  1  0
 17 18  2  0
 18 19  1  0
 19 20  1  0
 20 21  1  0
 21 22  1  0
 22 23  1  0
 22 24  1  0
 24 25  1  0
 24 26  1  0
 19 27  1  0
 27 28  1  6
 27 29  1  0
 29 30  1  0
 30 31  1  0
 31 32  1  6
  7  5  1  0
 31 10  1  0
 31 13  1  0
 27 15  1  0
 24 18  1  0
  1 33  1  0
  1 34  1  0
  1 35  1  0
  2 36  1  1
  3 37  1  0
  3 38  1  0
  4 39  1  0
  4 40  1  0
  5 41  1  1
  8 42  1  0
  8 43  1  0
  8 44  1  0
  9 45  1  0
  9 46  1  0
  9 47  1  0
 10 48  1  6
 11 49  1  0
 11 50  1  0
 12 51  1  0
 12 52  1  0
 14 53  1  0
 14 54  1  0
 14 55  1  0
 15 56  1  1
 16 57  1  0
 16 58  1  0
 17 59  1  0
 19 60  1  6
 20 61  1  0
 20 62  1  0
 21 63  1  0
 21 64  1  0
 22 65  1  6
 23 66  1  0
 25 67  1  0
 25 68  1  0
 25 69  1  0
 26 70  1  0
 26 71  1  0
 26 72  1  0
 28 73  1  0
 28 74  1  0
 28 75  1  0
 29 76  1  0
 29 77  1  0
 30 78  1  0
 30 79  1  0
 32 80  1  0
 32 81  1  0
 32 82  1  0
M  END
>  <meeko>  (11) 
{"is_sidechain": [false], "intermolecular_energy": 2.731, "internal_energy": -0.839}

$$$$
EPH_relaxed_0001_pdb2pqr_Repair_107_r2_0001_out
     RDKit          3D

 82 86  0  0  0  0  0  0  0  0999 V2000
   -1.1790   16.4170   -5.8710 C   0  0  0  0  0  0  0  0  0  0  0  0
    0.0130   15.6890   -6.4970 C   0  0  2  0  0  0  0  0  0  0  0  0
   -0.2420   15.3160   -7.9710 C   0  0  0  0  0  0  0  0  0  0  0  0
    0.3220   16.3300   -8.9700 C   0  0  0  0  0  0  0  0  0  0  0  0
    1.7490   16.0300   -9.3170 C   0  0  2  0  0  0  0  0  0  0  0  0
    2.2350   16.7070  -10.4840 O   0  0  0  0  0  0  0  0  0  0  0  0
    2.1650   15.2740  -10.5650 C   0  0  0  0  0  0  0  0  0  0  0  0
    1.1530   14.7690  -11.5450 C   0  0  0  0  0  0  0  0  0  0  0  0
    3.5040   14.6050  -10.5830 C   0  0  0  0  0  0  0  0  0  0  0  0
    0.3390   14.4370   -5.6910 C   0  0  1  0  0  0  0  0  0  0  0  0
    1.3670   13.5180   -6.4040 C   0  0  0  0  0  0  0  0  0  0  0  0
    2.2410   12.8790   -5.2950 C   0  0  0  0  0  0  0  0  0  0  0  0
    1.4870   13.1850   -3.9800 C   0  0  1  0  0  0  0  0  0  0  0  0
    0.3680   12.0990   -3.8980 C   0  0  0  0  0  0  0  0  0  0  0  0
    2.3530   13.2200   -2.6780 C   0  0  2  0  0  0  0  0  0  0  0  0
    3.0390   11.8920   -2.3150 C   0  0  0  0  0  0  0  0  0  0  0  0
    2.2490   10.9870   -1.4280 C   0  0  0  0  0  0  0  0  0  0  0  0
    1.1660   11.3430   -0.7130 C   0  0  0  0  0  0  0  0  0  0  0  0
    0.6900   12.8010   -0.6790 C   0  0  1  0  0  0  0  0  0  0  0  0
    0.3870   13.2120    0.7860 C   0  0  0  0  0  0  0  0  0  0  0  0
   -0.5920   12.2620    1.4700 C   0  0  0  0  0  0  0  0  0  0  0  0
   -0.0570   10.8330    1.4670 C   0  0  2  0  0  0  0  0  0  0  0  0
    1.1050   10.7730    2.3000 O   0  0  0  0  0  0  0  0  0  0  0  0
    0.2930   10.3130    0.0440 C   0  0  0  0  0  0  0  0  0  0  0  0
   -1.0090   10.0910   -0.7640 C   0  0  0  0  0  0  0  0  0  0  0  0
    0.9530    8.9160    0.1960 C   0  0  0  0  0  0  0  0  0  0  0  0
    1.6180   13.8520   -1.4280 C   0  0  1  0  0  0  0  0  0  0  0  0
    2.7340   14.3580   -0.4640 C   0  0  0  0  0  0  0  0  0  0  0  0
    0.7580   15.1140   -1.8130 C   0  0  0  0  0  0  0  0  0  0  0  0
    0.0220   15.0660   -3.1660 C   0  0  0  0  0  0  0  0  0  0  0  0
    0.9690   14.6360   -4.2900 C   0  0  2  0  0  0  0  0  0  0  0  0
    2.0930   15.7210   -4.4110 C   0  0  0  0  0  0  0  0  0  0  0  0
   -1.1026   16.3703   -4.7747 H   0  0  0  0  0  0  0  0  0  0  0  0
   -1.1774   17.4684   -6.1942 H   0  0  0  0  0  0  0  0  0  0  0  0
   -2.1137   15.9354   -6.1942 H   0  0  0  0  0  0  0  0  0  0  0  0
    0.8698   16.3785   -6.4755 H   0  0  0  0  0  0  0  0  0  0  0  0
    0.2240   14.3392   -8.1675 H   0  0  0  0  0  0  0  0  0  0  0  0
   -1.3326   15.2976   -8.1134 H   0  0  0  0  0  0  0  0  0  0  0  0
   -0.2824   16.2997   -9.8886 H   0  0  0  0  0  0  0  0  0  0  0  0
    0.2837   17.3267   -8.5062 H   0  0  0  0  0  0  0  0  0  0  0  0
    2.0051   15.8985   -8.2553 H   0  0  0  0  0  0  0  0  0  0  0  0
    0.2974   14.3420  -11.0013 H   0  0  0  0  0  0  0  0  0  0  0  0
    0.8079   15.6005  -12.1770 H   0  0  0  0  0  0  0  0  0  0  0  0
    1.6099   13.9932  -12.1770 H   0  0  0  0  0  0  0  0  0  0  0  0
    3.8431   14.4356   -9.5504 H   0  0  0  0  0  0  0  0  0  0  0  0
    3.4250   13.6405  -11.1059 H   0  0  0  0  0  0  0  0  0  0  0  0
    4.2278   15.2474  -11.1059 H   0  0  0  0  0  0  0  0  0  0  0  0
   -0.6716   14.0141   -5.5922 H   0  0  0  0  0  0  0  0  0  0  0  0
    0.8443   12.7348   -6.9726 H   0  0  0  0  0  0  0  0  0  0  0  0
    1.9841   14.0908   -7.1119 H   0  0  0  0  0  0  0  0  0  0  0  0
    2.3302   11.7933   -5.4480 H   0  0  0  0  0  0  0  0  0  0  0  0
    3.2664   13.2771   -5.2905 H   0  0  0  0  0  0  0  0  0  0  0  0
    0.1443   11.8819   -2.8431 H   0  0  0  0  0  0  0  0  0  0  0  0
   -0.5398   12.4695   -4.3966 H   0  0  0  0  0  0  0  0  0  0  0  0
    0.7112   11.1805   -4.3966 H   0  0  0  0  0  0  0  0  0  0  0  0
    3.1647   13.9096   -2.9529 H   0  0  0  0  0  0  0  0  0  0  0  0
    3.2503   11.3521   -3.2498 H   0  0  0  0  0  0  0  0  0  0  0  0
    3.9421   12.1614   -1.7477 H   0  0  0  0  0  0  0  0  0  0  0  0
    2.5804    9.9408   -1.3527 H   0  0  0  0  0  0  0  0  0  0  0  0
   -0.2339   12.8331   -1.2752 H   0  0  0  0  0  0  0  0  0  0  0  0
    1.3294   13.2156    1.3533 H   0  0  0  0  0  0  0  0  0  0  0  0
   -0.0761   14.2095    0.7638 H   0  0  0  0  0  0  0  0  0  0  0  0
   -0.7429   12.5878    2.5098 H   0  0  0  0  0  0  0  0  0  0  0  0
   -1.5438   12.2819    0.9189 H   0  0  0  0  0  0  0  0  0  0  0  0
   -0.8554   10.1816    1.8520 H   0  0  0  0  0  0  0  0  0  0  0  0
    1.0830   11.5460    2.8900 H   0  0  0  0  0  0  0  0  0  0  0  0
   -1.8508    9.9475   -0.0707 H   0  0  0  0  0  0  0  0  0  0  0  0
   -1.2015   10.9693   -1.3977 H   0  0  0  0  0  0  0  0  0  0  0  0
   -0.8996    9.1985   -1.3977 H   0  0  0  0  0  0  0  0  0  0  0  0
    1.0655    8.6779    1.2640 H   0  0  0  0  0  0  0  0  0  0  0  0
    0.3185    8.1565   -0.2842 H   0  0  0  0  0  0  0  0  0  0  0  0
    1.9426    8.9238   -0.2842 H   0  0  0  0  0  0  0  0  0  0  0  0
    2.4124   14.2122    0.5778 H   0  0  0  0  0  0  0  0  0  0  0  0
    3.6593   13.7914   -0.6448 H   0  0  0  0  0  0  0  0  0  0  0  0
    2.9176   15.4274   -0.6448 H   0  0  0  0  0  0  0  0  0  0  0  0
    0.0011   15.2534   -1.0271 H   0  0  0  0  0  0  0  0  0  0  0  0
    1.4811   15.9375   -1.9074 H   0  0  0  0  0  0  0  0  0  0  0  0
   -0.8073   14.3465   -3.0992 H   0  0  0  0  0  0  0  0  0  0  0  0
   -0.3589   16.0724   -3.3940 H   0  0  0  0  0  0  0  0  0  0  0  0
    2.4136   16.0305   -3.4053 H   0  0  0  0  0  0  0  0  0  0  0  0
    2.9510   15.3009   -4.9563 H   0  0  0  0  0  0  0  0  0  0  0  0
    1.7034   16.5933   -4.9563 H   0  0  0  0  0  0  0  0  0  0  0  0
  1  2  1  0
  2  3  1  0
  3  4  1  0
  4  5  1  0
  5  6  1  0
  6  7  1  0
  7  8  1  0
  7  9  1  0
  2 10  1  0
 10 11  1  0
 11 12  1  0
 12 13  1  0
 13 14  1  1
 13 15  1  0
 15 16  1  0
 16 17  1  0
 17 18  2  0
 18 19  1  0
 19 20  1  0
 20 21  1  0
 21 22  1  0
 22 23  1  0
 22 24  1  0
 24 25  1  0
 24 26  1  0
 19 27  1  0
 27 28  1  1
 27 29  1  0
 29 30  1  0
 30 31  1  0
 31 32  1  6
  7  5  1  0
 31 10  1  0
 31 13  1  0
 27 15  1  0
 24 18  1  0
  1 33  1  0
  1 34  1  0
  1 35  1  0
  2 36  1  6
  3 37  1  0
  3 38  1  0
  4 39  1  0
  4 40  1  0
  5 41  1  1
  8 42  1  0
  8 43  1  0
  8 44  1  0
  9 45  1  0
  9 46  1  0
  9 47  1  0
 10 48  1  1
 11 49  1  0
 11 50  1  0
 12 51  1  0
 12 52  1  0
 14 53  1  0
 14 54  1  0
 14 55  1  0
 15 56  1  6
 16 57  1  0
 16 58  1  0
 17 59  1  0
 19 60  1  6
 20 61  1  0
 20 62  1  0
 21 63  1  0
 21 64  1  0
 22 65  1  1
 23 66  1  0
 25 67  1  0
 25 68  1  0
 25 69  1  0
 26 70  1  0
 26 71  1  0
 26 72  1  0
 28 73  1  0
 28 74  1  0
 28 75  1  0
 29 76  1  0
 29 77  1  0
 30 78  1  0
 30 79  1  0
 32 80  1  0
 32 81  1  0
 32 82  1  0
M  END
>  <meeko>  (12) 
{"is_sidechain": [false], "intermolecular_energy": 2.731, "internal_energy": -0.839}

$$$$
EPH_relaxed_0001_pdb2pqr_Repair_107_r2_0001_out
     RDKit          3D

 82 86  0  0  0  0  0  0  0  0999 V2000
   -4.1780    6.9690   -3.0710 C   0  0  0  0  0  0  0  0  0  0  0  0
   -4.2550    7.2420   -1.5660 C   0  0  2  0  0  0  0  0  0  0  0  0
   -5.7060    7.2170   -1.0450 C   0  0  0  0  0  0  0  0  0  0  0  0
   -6.7290    6.7730   -2.0940 C   0  0  0  0  0  0  0  0  0  0  0  0
   -7.6600    7.8870   -2.4670 C   0  0  2  0  0  0  0  0  0  0  0  0
   -8.7800    7.4880   -3.2670 O   0  0  0  0  0  0  0  0  0  0  0  0
   -7.8440    8.3820   -3.8900 C   0  0  0  0  0  0  0  0  0  0  0  0
   -7.0900    7.7740   -5.0310 C   0  0  0  0  0  0  0  0  0  0  0  0
   -8.3790    9.7630   -4.1030 C   0  0  0  0  0  0  0  0  0  0  0  0
   -3.6100    8.5860   -1.2480 C   0  0  1  0  0  0  0  0  0  0  0  0
   -4.2000    9.2450    0.0270 C   0  0  0  0  0  0  0  0  0  0  0  0
   -3.0350    9.9930    0.7240 C   0  0  0  0  0  0  0  0  0  0  0  0
   -1.9030   10.0210   -0.3290 C   0  0  1  0  0  0  0  0  0  0  0  0
   -2.2660   11.2080   -1.2760 C   0  0  0  0  0  0  0  0  0  0  0  0
   -0.4470   10.1480    0.2240 C   0  0  2  0  0  0  0  0  0  0  0  0
   -0.1530   11.4460    0.9970 C   0  0  0  0  0  0  0  0  0  0  0  0
    0.3630   12.5770    0.1700 C   0  0  0  0  0  0  0  0  0  0  0  0
    0.8500   12.4730   -1.0800 C   0  0  0  0  0  0  0  0  0  0  0  0
    1.0090   11.1030   -1.7530 C   0  0  1  0  0  0  0  0  0  0  0  0
    2.4080   11.0120   -2.4170 C   0  0  0  0  0  0  0  0  0  0  0  0
    2.6770   12.1670   -3.3760 C   0  0  0  0  0  0  0  0  0  0  0  0
    2.5670   13.5090   -2.6570 C   0  0  2  0  0  0  0  0  0  0  0  0
    3.6300   13.6100   -1.7040 O   0  0  0  0  0  0  0  0  0  0  0  0
    1.2020   13.7110   -1.9410 C   0  0  0  0  0  0  0  0  0  0  0  0
    0.0850   13.9040   -2.9960 C   0  0  0  0  0  0  0  0  0  0  0  0
    1.2760   15.0390   -1.1390 C   0  0  0  0  0  0  0  0  0  0  0  0
    0.6810    9.8420   -0.8430 C   0  0  1  0  0  0  0  0  0  0  0  0
    1.9500    9.4210   -0.0410 C   0  0  0  0  0  0  0  0  0  0  0  0
    0.3150    8.6220   -1.7680 C   0  0  0  0  0  0  0  0  0  0  0  0
   -1.1620    8.4840   -2.1840 C   0  0  0  0  0  0  0  0  0  0  0  0
   -2.0870    8.5960   -0.9670 C   0  0  2  0  0  0  0  0  0  0  0  0
   -1.7610    7.4010   -0.0070 C   0  0  0  0  0  0  0  0  0  0  0  0
   -3.8829    5.9228   -3.2392 H   0  0  0  0  0  0  0  0  0  0  0  0
   -5.1623    7.1503   -3.5274 H   0  0  0  0  0  0  0  0  0  0  0  0
   -3.4335    7.6379   -3.5274 H   0  0  0  0  0  0  0  0  0  0  0  0
   -3.7070    6.4367   -1.0549 H   0  0  0  0  0  0  0  0  0  0  0  0
   -5.7574    6.5221   -0.1938 H   0  0  0  0  0  0  0  0  0  0  0  0
   -5.9635    8.2481   -0.7612 H   0  0  0  0  0  0  0  0  0  0  0  0
   -6.1936    6.4391   -2.9950 H   0  0  0  0  0  0  0  0  0  0  0  0
   -7.3271    5.9555   -1.6651 H   0  0  0  0  0  0  0  0  0  0  0  0
   -7.4471    8.4127   -1.5245 H   0  0  0  0  0  0  0  0  0  0  0  0
   -6.2898    7.1288   -4.6394 H   0  0  0  0  0  0  0  0  0  0  0  0
   -7.7768    7.1740   -5.6461 H   0  0  0  0  0  0  0  0  0  0  0  0
   -6.6492    8.5723   -5.6461 H   0  0  0  0  0  0  0  0  0  0  0  0
   -8.5634   10.2391   -3.1287 H   0  0  0  0  0  0  0  0  0  0  0  0
   -7.6459   10.3570   -4.6685 H   0  0  0  0  0  0  0  0  0  0  0  0
   -9.3209    9.7081   -4.6685 H   0  0  0  0  0  0  0  0  0  0  0  0
   -3.8227    9.1184   -2.1868 H   0  0  0  0  0  0  0  0  0  0  0  0
   -4.9954    9.9539   -0.2465 H   0  0  0  0  0  0  0  0  0  0  0  0
   -4.6397    8.4894    0.6947 H   0  0  0  0  0  0  0  0  0  0  0  0
   -3.3375   11.0150    0.9961 H   0  0  0  0  0  0  0  0  0  0  0  0
   -2.7237    9.5019    1.6577 H   0  0  0  0  0  0  0  0  0  0  0  0
   -2.5352   12.0883   -0.6739 H   0  0  0  0  0  0  0  0  0  0  0  0
   -1.4004   11.4486   -1.9107 H   0  0  0  0  0  0  0  0  0  0  0  0
   -3.1182   10.9233   -1.9107 H   0  0  0  0  0  0  0  0  0  0  0  0
   -0.4073    9.3409    0.9703 H   0  0  0  0  0  0  0  0  0  0  0  0
   -1.0864   11.7744    1.4776 H   0  0  0  0  0  0  0  0  0  0  0  0
    0.6471   11.2008    1.7109 H   0  0  0  0  0  0  0  0  0  0  0  0
    0.3434   13.5802    0.6208 H   0  0  0  0  0  0  0  0  0  0  0  0
    0.2263   11.0493   -2.5241 H   0  0  0  0  0  0  0  0  0  0  0  0
    3.1742   11.0233   -1.6278 H   0  0  0  0  0  0  0  0  0  0  0  0
    2.4407   10.0798   -3.0000 H   0  0  0  0  0  0  0  0  0  0  0  0
    3.6906   12.0624   -3.7903 H   0  0  0  0  0  0  0  0  0  0  0  0
    1.9279   12.1372   -4.1809 H   0  0  0  0  0  0  0  0  0  0  0  0
    2.6406   14.2985   -3.4194 H   0  0  0  0  0  0  0  0  0  0  0  0
    4.1960   14.3530   -1.9730 H   0  0  0  0  0  0  0  0  0  0  0  0
   -0.8757   14.0700   -2.4866 H   0  0  0  0  0  0  0  0  0  0  0  0
    0.3216   14.7746   -3.6254 H   0  0  0  0  0  0  0  0  0  0  0  0
    0.0157   13.0045   -3.6254 H   0  0  0  0  0  0  0  0  0  0  0  0
    1.2637   14.8178   -0.0615 H   0  0  0  0  0  0  0  0  0  0  0  0
    2.2051   15.5699   -1.3937 H   0  0  0  0  0  0  0  0  0  0  0  0
    0.4116   15.6698   -1.3937 H   0  0  0  0  0  0  0  0  0  0  0  0
    1.7421    9.4900    1.0370 H   0  0  0  0  0  0  0  0  0  0  0  0
    2.2188    8.3855   -0.2971 H   0  0  0  0  0  0  0  0  0  0  0  0
    2.7844   10.0905   -0.2971 H   0  0  0  0  0  0  0  0  0  0  0  0
    0.9127    8.7103   -2.6872 H   0  0  0  0  0  0  0  0  0  0  0  0
    0.5284    7.7282   -1.1633 H   0  0  0  0  0  0  0  0  0  0  0  0
   -1.4104    9.2817   -2.8995 H   0  0  0  0  0  0  0  0  0  0  0  0
   -1.3060    7.4954   -2.6445 H   0  0  0  0  0  0  0  0  0  0  0  0
   -1.8519    7.7343    1.0373 H   0  0  0  0  0  0  0  0  0  0  0  0
   -2.4676    6.5786   -0.1922 H   0  0  0  0  0  0  0  0  0  0  0  0
   -0.7346    7.0513   -0.1922 H   0  0  0  0  0  0  0  0  0  0  0  0
  1  2  1  0
  2  3  1  0
  3  4  1  0
  4  5  1  0
  5  6  1  0
  6  7  1  0
  7  8  1  0
  7  9  1  0
  2 10  1  0
 10 11  1  0
 11 12  1  0
 12 13  1  0
 13 14  1  6
 13 15  1  0
 15 16  1  0
 16 17  1  0
 17 18  2  0
 18 19  1  0
 19 20  1  0
 20 21  1  0
 21 22  1  0
 22 23  1  0
 22 24  1  0
 24 25  1  0
 24 26  1  0
 19 27  1  0
 27 28  1  1
 27 29  1  0
 29 30  1  0
 30 31  1  0
 31 32  1  1
  7  5  1  0
 31 10  1  0
 31 13  1  0
 27 15  1  0
 24 18  1  0
  1 33  1  0
  1 34  1  0
  1 35  1  0
  2 36  1  1
  3 37  1  0
  3 38  1  0
  4 39  1  0
  4 40  1  0
  5 41  1  1
  8 42  1  0
  8 43  1  0
  8 44  1  0
  9 45  1  0
  9 46  1  0
  9 47  1  0
 10 48  1  6
 11 49  1  0
 11 50  1  0
 12 51  1  0
 12 52  1  0
 14 53  1  0
 14 54  1  0
 14 55  1  0
 15 56  1  1
 16 57  1  0
 16 58  1  0
 17 59  1  0
 19 60  1  6
 20 61  1  0
 20 62  1  0
 21 63  1  0
 21 64  1  0
 22 65  1  6
 23 66  1  0
 25 67  1  0
 25 68  1  0
 25 69  1  0
 26 70  1  0
 26 71  1  0
 26 72  1  0
 28 73  1  0
 28 74  1  0
 28 75  1  0
 29 76  1  0
 29 77  1  0
 30 78  1  0
 30 79  1  0
 32 80  1  0
 32 81  1  0
 32 82  1  0
M  END
>  <meeko>  (13) 
{"is_sidechain": [false], "intermolecular_energy": 2.731, "internal_energy": -0.839}

$$$$
EPH_relaxed_0001_pdb2pqr_Repair_107_r2_0001_out
     RDKit          3D

 82 86  0  0  0  0  0  0  0  0999 V2000
    2.1740   10.6570   -4.2370 C   0  0  0  0  0  0  0  0  0  0  0  0
    1.1340   10.4370   -3.1350 C   0  0  2  0  0  0  0  0  0  0  0  0
    0.0430    9.4330   -3.5570 C   0  0  0  0  0  0  0  0  0  0  0  0
   -0.2890    8.3960   -2.4820 C   0  0  0  0  0  0  0  0  0  0  0  0
    0.1140    8.8650   -1.1160 C   0  0  2  0  0  0  0  0  0  0  0  0
   -0.2570    7.9850   -0.0470 O   0  0  0  0  0  0  0  0  0  0  0  0
   -0.8800    9.2790   -0.0470 C   0  0  0  0  0  0  0  0  0  0  0  0
   -2.3550    9.2450   -0.2980 C   0  0  0  0  0  0  0  0  0  0  0  0
   -0.4110   10.1740    1.0580 C   0  0  0  0  0  0  0  0  0  0  0  0
    0.4970   11.7670   -2.7490 C   0  0  1  0  0  0  0  0  0  0  0  0
   -0.8600   11.5900   -2.0180 C   0  0  0  0  0  0  0  0  0  0  0  0
   -0.9550   12.7280   -0.9690 C   0  0  0  0  0  0  0  0  0  0  0  0
    0.1790   13.7070   -1.3520 C   0  0  1  0  0  0  0  0  0  0  0  0
   -0.4060   14.5630   -2.5190 C   0  0  0  0  0  0  0  0  0  0  0  0
    0.7350   14.6060   -0.2000 C   0  0  2  0  0  0  0  0  0  0  0  0
   -0.2860   15.5760    0.4200 C   0  0  0  0  0  0  0  0  0  0  0  0
   -0.3540   16.9240   -0.2180 C   0  0  0  0  0  0  0  0  0  0  0  0
    0.5630   17.4390   -1.0580 C   0  0  0  0  0  0  0  0  0  0  0  0
    1.8610   16.6820   -1.3670 C   0  0  1  0  0  0  0  0  0  0  0  0
    3.0650   17.6560   -1.2670 C   0  0  0  0  0  0  0  0  0  0  0  0
    2.8890   18.8940   -2.1410 C   0  0  0  0  0  0  0  0  0  0  0  0
    1.6180   19.6510   -1.7650 C   0  0  2  0  0  0  0  0  0  0  0  0
    1.7750   20.1900   -0.4490 O   0  0  0  0  0  0  0  0  0  0  0  0
    0.3400   18.7690   -1.8190 C   0  0  0  0  0  0  0  0  0  0  0  0
    0.0010   18.4340   -3.2930 C   0  0  0  0  0  0  0  0  0  0  0  0
   -0.8470   19.6130   -1.2820 C   0  0  0  0  0  0  0  0  0  0  0  0
    2.0930   15.3400   -0.5480 C   0  0  1  0  0  0  0  0  0  0  0  0
    2.7870   15.6590    0.8120 C   0  0  0  0  0  0  0  0  0  0  0  0
    3.0850   14.4150   -1.3460 C   0  0  0  0  0  0  0  0  0  0  0  0
    2.4640   13.4640   -2.3870 C   0  0  0  0  0  0  0  0  0  0  0  0
    1.2910   12.6830   -1.7850 C   0  0  2  0  0  0  0  0  0  0  0  0
    1.8540   11.7960   -0.6220 C   0  0  0  0  0  0  0  0  0  0  0  0
    3.1533   10.8642   -3.7809 H   0  0  0  0  0  0  0  0  0  0  0  0
    2.2438    9.7537   -4.8609 H   0  0  0  0  0  0  0  0  0  0  0  0
    1.8720   11.5111   -4.8609 H   0  0  0  0  0  0  0  0  0  0  0  0
    1.6573   10.0092   -2.2672 H   0  0  0  0  0  0  0  0  0  0  0  0
   -0.8732    9.9945   -3.7923 H   0  0  0  0  0  0  0  0  0  0  0  0
    0.4327    8.8817   -4.4254 H   0  0  0  0  0  0  0  0  0  0  0  0
   -1.3730    8.2093   -2.4894 H   0  0  0  0  0  0  0  0  0  0  0  0
    0.2708    7.4765   -2.7079 H   0  0  0  0  0  0  0  0  0  0  0  0
    1.0081    9.3593   -1.5237 H   0  0  0  0  0  0  0  0  0  0  0  0
   -2.8903    9.2327    0.6629 H   0  0  0  0  0  0  0  0  0  0  0  0
   -2.6501   10.1366   -0.8707 H   0  0  0  0  0  0  0  0  0  0  0  0
   -2.6087    8.3408   -0.8707 H   0  0  0  0  0  0  0  0  0  0  0  0
   -0.6514    9.7153    2.0284 H   0  0  0  0  0  0  0  0  0  0  0  0
    0.6770   10.3152    0.9787 H   0  0  0  0  0  0  0  0  0  0  0  0
   -0.9141   11.1490    0.9787 H   0  0  0  0  0  0  0  0  0  0  0  0
    0.4309   12.2342   -3.7426 H   0  0  0  0  0  0  0  0  0  0  0  0
   -1.6898   11.6665   -2.7360 H   0  0  0  0  0  0  0  0  0  0  0  0
   -0.9235   10.6029   -1.5367 H   0  0  0  0  0  0  0  0  0  0  0  0
   -1.9339   13.2267   -1.0246 H   0  0  0  0  0  0  0  0  0  0  0  0
   -0.8543   12.3554    0.0611 H   0  0  0  0  0  0  0  0  0  0  0  0
   -0.9809   15.4042   -2.1043 H   0  0  0  0  0  0  0  0  0  0  0  0
    0.4168   14.9508   -3.1375 H   0  0  0  0  0  0  0  0  0  0  0  0
   -1.0662   13.9372   -3.1375 H   0  0  0  0  0  0  0  0  0  0  0  0
    0.9632   13.8700    0.5850 H   0  0  0  0  0  0  0  0  0  0  0  0
   -1.2817   15.1144    0.3460 H   0  0  0  0  0  0  0  0  0  0  0  0
    0.0452   15.7457    1.4551 H   0  0  0  0  0  0  0  0  0  0  0  0
   -1.2275   17.5493    0.0184 H   0  0  0  0  0  0  0  0  0  0  0  0
    1.7609   16.3163   -2.3996 H   0  0  0  0  0  0  0  0  0  0  0  0
    3.1740   17.9758   -0.2202 H   0  0  0  0  0  0  0  0  0  0  0  0
    3.9583   17.1208   -1.6215 H   0  0  0  0  0  0  0  0  0  0  0  0
    3.7563   19.5568   -2.0052 H   0  0  0  0  0  0  0  0  0  0  0  0
    2.8098   18.5744   -3.1906 H   0  0  0  0  0  0  0  0  0  0  0  0
    1.4785   20.4500   -2.5080 H   0  0  0  0  0  0  0  0  0  0  0  0
    0.8990   20.1990   -0.0280 H   0  0  0  0  0  0  0  0  0  0  0  0
   -0.7811   17.6611   -3.3228 H   0  0  0  0  0  0  0  0  0  0  0  0
   -0.3596   19.3404   -3.8014 H   0  0  0  0  0  0  0  0  0  0  0  0
    0.9030   18.0627   -3.8014 H   0  0  0  0  0  0  0  0  0  0  0  0
   -0.8350   19.6045   -0.1821 H   0  0  0  0  0  0  0  0  0  0  0  0
   -0.7531   20.6483   -1.6417 H   0  0  0  0  0  0  0  0  0  0  0  0
   -1.7940   19.1843   -1.6417 H   0  0  0  0  0  0  0  0  0  0  0  0
    2.1285   15.3563    1.6395 H   0  0  0  0  0  0  0  0  0  0  0  0
    3.7360   15.1068    0.8778 H   0  0  0  0  0  0  0  0  0  0  0  0
    2.9858   16.7389    0.8778 H   0  0  0  0  0  0  0  0  0  0  0  0
    3.7963   15.0673   -1.8739 H   0  0  0  0  0  0  0  0  0  0  0  0
    3.5366   13.7571   -0.5889 H   0  0  0  0  0  0  0  0  0  0  0  0
    2.1026   14.0534   -3.2426 H   0  0  0  0  0  0  0  0  0  0  0  0
    3.2333   12.7475   -2.7107 H   0  0  0  0  0  0  0  0  0  0  0  0
    1.5733   12.2382    0.3453 H   0  0  0  0  0  0  0  0  0  0  0  0
    1.4336   10.7823   -0.6975 H   0  0  0  0  0  0  0  0  0  0  0  0
    2.9502   11.7449   -0.6975 H   0  0  0  0  0  0  0  0  0  0  0  0
  1  2  1  0
  2  3  1  0
  3  4  1  0
  4  5  1  0
  5  6  1  0
  6  7  1  0
  7  8  1  0
  7  9  1  0
  2 10  1  0
 10 11  1  0
 11 12  1  0
 12 13  1  0
 13 14  1  6
 13 15  1  0
 15 16  1  0
 16 17  1  0
 17 18  2  0
 18 19  1  0
 19 20  1  0
 20 21  1  0
 21 22  1  0
 22 23  1  0
 22 24  1  0
 24 25  1  0
 24 26  1  0
 19 27  1  0
 27 28  1  1
 27 29  1  0
 29 30  1  0
 30 31  1  0
 31 32  1  1
  7  5  1  0
 31 10  1  0
 31 13  1  0
 27 15  1  0
 24 18  1  0
  1 33  1  0
  1 34  1  0
  1 35  1  0
  2 36  1  1
  3 37  1  0
  3 38  1  0
  4 39  1  0
  4 40  1  0
  5 41  1  6
  8 42  1  0
  8 43  1  0
  8 44  1  0
  9 45  1  0
  9 46  1  0
  9 47  1  0
 10 48  1  6
 11 49  1  0
 11 50  1  0
 12 51  1  0
 12 52  1  0
 14 53  1  0
 14 54  1  0
 14 55  1  0
 15 56  1  1
 16 57  1  0
 16 58  1  0
 17 59  1  0
 19 60  1  6
 20 61  1  0
 20 62  1  0
 21 63  1  0
 21 64  1  0
 22 65  1  6
 23 66  1  0
 25 67  1  0
 25 68  1  0
 25 69  1  0
 26 70  1  0
 26 71  1  0
 26 72  1  0
 28 73  1  0
 28 74  1  0
 28 75  1  0
 29 76  1  0
 29 77  1  0
 30 78  1  0
 30 79  1  0
 32 80  1  0
 32 81  1  0
 32 82  1  0
M  END
>  <meeko>  (14) 
{"is_sidechain": [false], "intermolecular_energy": 2.731, "internal_energy": -0.839}

$$$$
EPH_relaxed_0001_pdb2pqr_Repair_107_r2_0001_out
     RDKit          3D

 82 86  0  0  0  0  0  0  0  0999 V2000
   -2.9000    7.8950   -0.4550 C   0  0  0  0  0  0  0  0  0  0  0  0
   -3.3590    9.3470   -0.3030 C   0  0  2  0  0  0  0  0  0  0  0  0
   -4.8260    9.5410   -0.7360 C   0  0  0  0  0  0  0  0  0  0  0  0
   -5.5440    8.2340   -1.0810 C   0  0  0  0  0  0  0  0  0  0  0  0
   -6.4100    8.3810   -2.2960 C   0  0  2  0  0  0  0  0  0  0  0  0
   -7.3260    7.3000   -2.5120 O   0  0  0  0  0  0  0  0  0  0  0  0
   -6.3080    7.4770   -3.5100 C   0  0  0  0  0  0  0  0  0  0  0  0
   -5.3140    6.3600   -3.5700 C   0  0  0  0  0  0  0  0  0  0  0  0
   -6.8300    7.9790   -4.8210 C   0  0  0  0  0  0  0  0  0  0  0  0
   -2.4510   10.2670   -1.1110 C   0  0  1  0  0  0  0  0  0  0  0  0
   -2.9190   11.7460   -1.0790 C   0  0  0  0  0  0  0  0  0  0  0  0
   -1.6390   12.6210   -1.0940 C   0  0  0  0  0  0  0  0  0  0  0  0
   -0.5020   11.6410   -1.4650 C   0  0  1  0  0  0  0  0  0  0  0  0
   -0.5790   11.5070   -3.0190 C   0  0  0  0  0  0  0  0  0  0  0  0
    0.9340   12.0380   -0.9910 C   0  0  2  0  0  0  0  0  0  0  0  0
    1.4790   13.3490   -1.5850 C   0  0  0  0  0  0  0  0  0  0  0  0
    2.2440   13.2030   -2.8580 C   0  0  0  0  0  0  0  0  0  0  0  0
    2.7290   12.0490   -3.3520 C   0  0  0  0  0  0  0  0  0  0  0  0
    2.6090   10.7410   -2.5590 C   0  0  1  0  0  0  0  0  0  0  0  0
    3.9720   10.0010   -2.5710 C   0  0  0  0  0  0  0  0  0  0  0  0
    4.5050    9.7800   -3.9830 C   0  0  0  0  0  0  0  0  0  0  0  0
    4.6660   11.1070   -4.7190 C   0  0  2  0  0  0  0  0  0  0  0  0
    5.7010   11.8630   -4.0850 O   0  0  0  0  0  0  0  0  0  0  0  0
    3.3580   11.9460   -4.7630 C   0  0  0  0  0  0  0  0  0  0  0  0
    2.3330   11.2640   -5.7030 C   0  0  0  0  0  0  0  0  0  0  0  0
    3.6920   13.3180   -5.4070 C   0  0  0  0  0  0  0  0  0  0  0  0
    1.9970   10.8700   -1.0970 C   0  0  1  0  0  0  0  0  0  0  0  0
    3.1270   11.2030   -0.0750 C   0  0  0  0  0  0  0  0  0  0  0  0
    1.4030    9.4780   -0.6640 C   0  0  0  0  0  0  0  0  0  0  0  0
   -0.0590    9.1940   -1.0580 C   0  0  0  0  0  0  0  0  0  0  0  0
   -0.9680   10.3650   -0.6740 C   0  0  2  0  0  0  0  0  0  0  0  0
   -0.9280   10.5100    0.8860 C   0  0  0  0  0  0  0  0  0  0  0  0
   -2.7590    7.4489    0.5405 H   0  0  0  0  0  0  0  0  0  0  0  0
   -3.6619    7.3255   -1.0074 H   0  0  0  0  0  0  0  0  0  0  0  0
   -1.9492    7.8669   -1.0074 H   0  0  0  0  0  0  0  0  0  0  0  0
   -3.2934    9.6043    0.7645 H   0  0  0  0  0  0  0  0  0  0  0  0
   -5.3692   10.0289    0.0867 H   0  0  0  0  0  0  0  0  0  0  0  0
   -4.8129   10.1516   -1.6509 H   0  0  0  0  0  0  0  0  0  0  0  0
   -4.7923    7.4538   -1.2713 H   0  0  0  0  0  0  0  0  0  0  0  0
   -6.1881    7.9621   -0.2317 H   0  0  0  0  0  0  0  0  0  0  0  0
   -6.4144    9.4758   -2.1897 H   0  0  0  0  0  0  0  0  0  0  0  0
   -5.0428    6.0552   -2.5484 H   0  0  0  0  0  0  0  0  0  0  0  0
   -5.7552    5.5048   -4.1028 H   0  0  0  0  0  0  0  0  0  0  0  0
   -4.4133    6.6989   -4.1028 H   0  0  0  0  0  0  0  0  0  0  0  0
   -7.6121    8.7311   -4.6405 H   0  0  0  0  0  0  0  0  0  0  0  0
   -6.0081    8.4346   -5.3927 H   0  0  0  0  0  0  0  0  0  0  0  0
   -7.2532    7.1399   -5.3927 H   0  0  0  0  0  0  0  0  0  0  0  0
   -2.5219    9.7793   -2.0944 H   0  0  0  0  0  0  0  0  0  0  0  0
   -3.5387   11.9663   -1.9607 H   0  0  0  0  0  0  0  0  0  0  0  0
   -3.5255   11.9489   -0.1840 H   0  0  0  0  0  0  0  0  0  0  0  0
   -1.7235   13.4202   -1.8451 H   0  0  0  0  0  0  0  0  0  0  0  0
   -1.4625   13.1192   -0.1293 H   0  0  0  0  0  0  0  0  0  0  0  0
   -1.1113   10.5807   -3.2812 H   0  0  0  0  0  0  0  0  0  0  0  0
   -1.1187   12.3704   -3.4352 H   0  0  0  0  0  0  0  0  0  0  0  0
    0.4387   11.4755   -3.4352 H   0  0  0  0  0  0  0  0  0  0  0  0
    0.7821   12.2363    0.0803 H   0  0  0  0  0  0  0  0  0  0  0  0
    0.6255   14.0162   -1.7760 H   0  0  0  0  0  0  0  0  0  0  0  0
    2.1911   13.7448   -0.8459 H   0  0  0  0  0  0  0  0  0  0  0  0
    2.4271   14.1167   -3.4425 H   0  0  0  0  0  0  0  0  0  0  0  0
    1.8522   10.1372   -3.0812 H   0  0  0  0  0  0  0  0  0  0  0  0
    4.7031   10.5995   -2.0077 H   0  0  0  0  0  0  0  0  0  0  0  0
    3.8194    9.0125   -2.1131 H   0  0  0  0  0  0  0  0  0  0  0  0
    5.4830    9.2798   -3.9245 H   0  0  0  0  0  0  0  0  0  0  0  0
    3.7868    9.1567   -4.5359 H   0  0  0  0  0  0  0  0  0  0  0  0
    4.9254   10.8758   -5.7627 H   0  0  0  0  0  0  0  0  0  0  0  0
    6.5430   11.6240   -4.5090 H   0  0  0  0  0  0  0  0  0  0  0  0
    1.5664   10.7539   -5.1012 H   0  0  0  0  0  0  0  0  0  0  0  0
    1.8548   12.0246   -6.3377 H   0  0  0  0  0  0  0  0  0  0  0  0
    2.8499   10.5291   -6.3377 H   0  0  0  0  0  0  0  0  0  0  0  0
    3.8727   14.0603   -4.6156 H   0  0  0  0  0  0  0  0  0  0  0  0
    4.5927   13.2206   -6.0309 H   0  0  0  0  0  0  0  0  0  0  0  0
    2.8474   13.6455   -6.0309 H   0  0  0  0  0  0  0  0  0  0  0  0
    2.7408   11.0892    0.9487 H   0  0  0  0  0  0  0  0  0  0  0  0
    3.9725   10.5158   -0.2264 H   0  0  0  0  0  0  0  0  0  0  0  0
    3.4647   12.2389   -0.2264 H   0  0  0  0  0  0  0  0  0  0  0  0
    2.0280    8.6941   -1.1167 H   0  0  0  0  0  0  0  0  0  0  0  0
    1.4071    9.4928    0.4359 H   0  0  0  0  0  0  0  0  0  0  0  0
   -0.1146    9.0370   -2.1453 H   0  0  0  0  0  0  0  0  0  0  0  0
   -0.3986    8.2959   -0.5212 H   0  0  0  0  0  0  0  0  0  0  0  0
   -1.1932    9.5488    1.3505 H   0  0  0  0  0  0  0  0  0  0  0  0
    0.0844   10.8026    1.2012 H   0  0  0  0  0  0  0  0  0  0  0  0
   -1.6472   11.2803    1.2012 H   0  0  0  0  0  0  0  0  0  0  0  0
  1  2  1  0
  2  3  1  0
  3  4  1  0
  4  5  1  0
  5  6  1  0
  6  7  1  0
  7  8  1  0
  7  9  1  0
  2 10  1  0
 10 11  1  0
 11 12  1  0
 12 13  1  0
 13 14  1  6
 13 15  1  0
 15 16  1  0
 16 17  1  0
 17 18  2  0
 18 19  1  0
 19 20  1  0
 20 21  1  0
 21 22  1  0
 22 23  1  0
 22 24  1  0
 24 25  1  0
 24 26  1  0
 19 27  1  0
 27 28  1  1
 27 29  1  0
 29 30  1  0
 30 31  1  0
 31 32  1  1
  7  5  1  0
 31 10  1  0
 31 13  1  0
 27 15  1  0
 24 18  1  0
  1 33  1  0
  1 34  1  0
  1 35  1  0
  2 36  1  1
  3 37  1  0
  3 38  1  0
  4 39  1  0
  4 40  1  0
  5 41  1  6
  8 42  1  0
  8 43  1  0
  8 44  1  0
  9 45  1  0
  9 46  1  0
  9 47  1  0
 10 48  1  6
 11 49  1  0
 11 50  1  0
 12 51  1  0
 12 52  1  0
 14 53  1  0
 14 54  1  0
 14 55  1  0
 15 56  1  1
 16 57  1  0
 16 58  1  0
 17 59  1  0
 19 60  1  6
 20 61  1  0
 20 62  1  0
 21 63  1  0
 21 64  1  0
 22 65  1  6
 23 66  1  0
 25 67  1  0
 25 68  1  0
 25 69  1  0
 26 70  1  0
 26 71  1  0
 26 72  1  0
 28 73  1  0
 28 74  1  0
 28 75  1  0
 29 76  1  0
 29 77  1  0
 30 78  1  0
 30 79  1  0
 32 80  1  0
 32 81  1  0
 32 82  1  0
M  END
>  <meeko>  (15) 
{"is_sidechain": [false], "intermolecular_energy": 2.731, "internal_energy": -0.839}

$$$$
EPH_relaxed_0001_pdb2pqr_Repair_107_r2_0001_out
     RDKit          3D

 82 86  0  0  0  0  0  0  0  0999 V2000
   -2.5500   10.5670   -0.1260 C   0  0  0  0  0  0  0  0  0  0  0  0
   -1.0420   10.4940   -0.3790 C   0  0  2  0  0  0  0  0  0  0  0  0
   -0.3890    9.2980    0.3430 C   0  0  0  0  0  0  0  0  0  0  0  0
   -0.4150    8.0000   -0.4680 C   0  0  0  0  0  0  0  0  0  0  0  0
   -0.6480    8.2610   -1.9260 C   0  0  2  0  0  0  0  0  0  0  0  0
    0.1550    7.4710   -2.8120 O   0  0  0  0  0  0  0  0  0  0  0  0
    0.3890    8.8880   -2.8390 C   0  0  0  0  0  0  0  0  0  0  0  0
    1.7360    9.2930   -2.3290 C   0  0  0  0  0  0  0  0  0  0  0  0
   -0.0750    9.5510   -4.0990 C   0  0  0  0  0  0  0  0  0  0  0  0
   -0.3770   11.7930    0.0590 C   0  0  1  0  0  0  0  0  0  0  0  0
    0.8520   11.5560    0.9770 C   0  0  0  0  0  0  0  0  0  0  0  0
    1.8820   12.6640    0.6400 C   0  0  0  0  0  0  0  0  0  0  0  0
    1.0920   13.6870   -0.2090 C   0  0  1  0  0  0  0  0  0  0  0  0
    0.3120   14.5520    0.8300 C   0  0  0  0  0  0  0  0  0  0  0  0
    1.9340   14.5740   -1.1830 C   0  0  2  0  0  0  0  0  0  0  0  0
    2.9610   15.4960   -0.5030 C   0  0  0  0  0  0  0  0  0  0  0  0
    2.4590   16.8570   -0.1470 C   0  0  0  0  0  0  0  0  0  0  0  0
    1.3290   17.4210   -0.6140 C   0  0  0  0  0  0  0  0  0  0  0  0
    0.4750   16.7120   -1.6740 C   0  0  1  0  0  0  0  0  0  0  0  0
    0.0930   17.7200   -2.7890 C   0  0  0  0  0  0  0  0  0  0  0  0
   -0.5810   18.9740   -2.2390 C   0  0  0  0  0  0  0  0  0  0  0  0
    0.3220   19.6810   -1.2320 C   0  0  2  0  0  0  0  0  0  0  0  0
    1.4680   20.1920   -1.9210 O   0  0  0  0  0  0  0  0  0  0  0  0
    0.7810   18.7610   -0.0670 C   0  0  0  0  0  0  0  0  0  0  0  0
   -0.4240   18.4520    0.8570 C   0  0  0  0  0  0  0  0  0  0  0  0
    1.7970   19.5550    0.7970 C   0  0  0  0  0  0  0  0  0  0  0  0
    1.0720   15.3580   -2.2540 C   0  0  1  0  0  0  0  0  0  0  0  0
    2.0230   15.6650   -3.4510 C   0  0  0  0  0  0  0  0  0  0  0  0
   -0.1030   14.4850   -2.8320 C   0  0  0  0  0  0  0  0  0  0  0  0
   -0.8170   13.5400   -1.8460 C   0  0  0  0  0  0  0  0  0  0  0  0
    0.1950   12.7090   -1.0520 C   0  0  2  0  0  0  0  0  0  0  0  0
    0.9800   11.8120   -2.0680 C   0  0  0  0  0  0  0  0  0  0  0  0
   -2.7400   10.5762    0.9574 H   0  0  0  0  0  0  0  0  0  0  0  0
   -2.9534   11.4857   -0.5768 H   0  0  0  0  0  0  0  0  0  0  0  0
   -3.0402    9.6915   -0.5768 H   0  0  0  0  0  0  0  0  0  0  0  0
   -0.8951   10.3477   -1.4593 H   0  0  0  0  0  0  0  0  0  0  0  0
    0.6595    9.5523    0.5576 H   0  0  0  0  0  0  0  0  0  0  0  0
   -0.9729    9.1171    1.2575 H   0  0  0  0  0  0  0  0  0  0  0  0
    0.5497    7.4853   -0.3478 H   0  0  0  0  0  0  0  0  0  0  0  0
   -1.2426    7.3791   -0.0945 H   0  0  0  0  0  0  0  0  0  0  0  0
   -1.7060    8.4970   -1.7388 H   0  0  0  0  0  0  0  0  0  0  0  0
    1.7276    9.2905   -1.2290 H   0  0  0  0  0  0  0  0  0  0  0  0
    2.4940    8.5830   -2.6915 H   0  0  0  0  0  0  0  0  0  0  0  0
    1.9768   10.3033   -2.6915 H   0  0  0  0  0  0  0  0  0  0  0  0
   -0.6890   10.4283   -3.8471 H   0  0  0  0  0  0  0  0  0  0  0  0
    0.7974    9.8709   -4.6877 H   0  0  0  0  0  0  0  0  0  0  0  0
   -0.6743    8.8409   -4.6877 H   0  0  0  0  0  0  0  0  0  0  0  0
   -1.2329   12.2821    0.5470 H   0  0  0  0  0  0  0  0  0  0  0  0
    0.5543   11.6243    2.0337 H   0  0  0  0  0  0  0  0  0  0  0  0
    1.2800   10.5559    0.8137 H   0  0  0  0  0  0  0  0  0  0  0  0
    2.2618   13.1335    1.5594 H   0  0  0  0  0  0  0  0  0  0  0  0
    2.7595   12.2692    0.1070 H   0  0  0  0  0  0  0  0  0  0  0  0
    0.5911   14.2425    1.8480 H   0  0  0  0  0  0  0  0  0  0  0  0
    0.5646   15.6130    0.6871 H   0  0  0  0  0  0  0  0  0  0  0  0
   -0.7694   14.4101    0.6871 H   0  0  0  0  0  0  0  0  0  0  0  0
    2.5236   13.8262   -1.7336 H   0  0  0  0  0  0  0  0  0  0  0  0
    3.2983   15.0054    0.4220 H   0  0  0  0  0  0  0  0  0  0  0  0
    3.7648   15.6506   -1.2379 H   0  0  0  0  0  0  0  0  0  0  0  0
    3.0636   17.4486    0.5562 H   0  0  0  0  0  0  0  0  0  0  0  0
   -0.4315   16.3683   -1.1542 H   0  0  0  0  0  0  0  0  0  0  0  0
    1.0071   18.0169   -3.3241 H   0  0  0  0  0  0  0  0  0  0  0  0
   -0.6242   17.2218   -3.4579 H   0  0  0  0  0  0  0  0  0  0  0  0
   -0.7990   19.6599   -3.0709 H   0  0  0  0  0  0  0  0  0  0  0  0
   -1.5107   18.6788   -1.7305 H   0  0  0  0  0  0  0  0  0  0  0  0
   -0.2643   20.4929   -0.7770 H   0  0  0  0  0  0  0  0  0  0  0  0
    1.9640   19.4330   -2.2710 H   0  0  0  0  0  0  0  0  0  0  0  0
   -0.1101   18.5325    1.9082 H   0  0  0  0  0  0  0  0  0  0  0  0
   -1.2317   19.1721    0.6594 H   0  0  0  0  0  0  0  0  0  0  0  0
   -0.7855   17.4321    0.6594 H   0  0  0  0  0  0  0  0  0  0  0  0
    1.5821   19.3871    1.8627 H   0  0  0  0  0  0  0  0  0  0  0  0
    2.8175   19.2126    0.5703 H   0  0  0  0  0  0  0  0  0  0  0  0
    1.7114   20.6280    0.5703 H   0  0  0  0  0  0  0  0  0  0  0  0
    3.0042   15.9818   -3.0678 H   0  0  0  0  0  0  0  0  0  0  0  0
    2.1437   14.7602   -4.0648 H   0  0  0  0  0  0  0  0  0  0  0  0
    1.5919   16.4696   -4.0648 H   0  0  0  0  0  0  0  0  0  0  0  0
   -0.8585   15.1724   -3.2403 H   0  0  0  0  0  0  0  0  0  0  0  0
    0.3680   13.8238   -3.5743 H   0  0  0  0  0  0  0  0  0  0  0  0
   -1.4191   14.1383   -1.1463 H   0  0  0  0  0  0  0  0  0  0  0  0
   -1.4595   12.8556   -2.4194 H   0  0  0  0  0  0  0  0  0  0  0  0
    1.6068   11.0957   -1.5166 H   0  0  0  0  0  0  0  0  0  0  0  0
    0.2664   11.2636   -2.7005 H   0  0  0  0  0  0  0  0  0  0  0  0
    1.6181   12.4466   -2.7005 H   0  0  0  0  0  0  0  0  0  0  0  0
  1  2  1  0
  2  3  1  0
  3  4  1  0
  4  5  1  0
  5  6  1  0
  6  7  1  0
  7  8  1  0
  7  9  1  0
  2 10  1  0
 10 11  1  0
 11 12  1  0
 12 13  1  0
 13 14  1  1
 13 15  1  0
 15 16  1  0
 16 17  1  0
 17 18  2  0
 18 19  1  0
 19 20  1  0
 20 21  1  0
 21 22  1  0
 22 23  1  0
 22 24  1  0
 24 25  1  0
 24 26  1  0
 19 27  1  0
 27 28  1  6
 27 29  1  0
 29 30  1  0
 30 31  1  0
 31 32  1  6
  7  5  1  0
 31 10  1  0
 31 13  1  0
 27 15  1  0
 24 18  1  0
  1 33  1  0
  1 34  1  0
  1 35  1  0
  2 36  1  6
  3 37  1  0
  3 38  1  0
  4 39  1  0
  4 40  1  0
  5 41  1  6
  8 42  1  0
  8 43  1  0
  8 44  1  0
  9 45  1  0
  9 46  1  0
  9 47  1  0
 10 48  1  1
 11 49  1  0
 11 50  1  0
 12 51  1  0
 12 52  1  0
 14 53  1  0
 14 54  1  0
 14 55  1  0
 15 56  1  6
 16 57  1  0
 16 58  1  0
 17 59  1  0
 19 60  1  1
 20 61  1  0
 20 62  1  0
 21 63  1  0
 21 64  1  0
 22 65  1  1
 23 66  1  0
 25 67  1  0
 25 68  1  0
 25 69  1  0
 26 70  1  0
 26 71  1  0
 26 72  1  0
 28 73  1  0
 28 74  1  0
 28 75  1  0
 29 76  1  0
 29 77  1  0
 30 78  1  0
 30 79  1  0
 32 80  1  0
 32 81  1  0
 32 82  1  0
M  END
>  <meeko>  (16) 
{"is_sidechain": [false], "intermolecular_energy": 2.731, "internal_energy": -0.839}

$$$$
EPH_relaxed_0001_pdb2pqr_Repair_107_r2_0001_out
     RDKit          3D

 82 86  0  0  0  0  0  0  0  0999 V2000
   -0.1630   18.7170   -2.7620 C   0  0  0  0  0  0  0  0  0  0  0  0
    0.6080   18.2270   -1.5330 C   0  0  2  0  0  0  0  0  0  0  0  0
    1.7860   19.1560   -1.1780 C   0  0  0  0  0  0  0  0  0  0  0  0
    1.9830   19.3530    0.3270 C   0  0  0  0  0  0  0  0  0  0  0  0
    3.4340   19.3490    0.7020 C   0  0  2  0  0  0  0  0  0  0  0  0
    3.7940   18.3770    1.6930 O   0  0  0  0  0  0  0  0  0  0  0  0
    3.9460   19.7550    2.0720 C   0  0  0  0  0  0  0  0  0  0  0  0
    3.0110   20.1950    3.1550 C   0  0  0  0  0  0  0  0  0  0  0  0
    5.3720   20.1910    2.2020 C   0  0  0  0  0  0  0  0  0  0  0  0
    1.1150   16.8100   -1.7700 C   0  0  1  0  0  0  0  0  0  0  0  0
    2.6570   16.7470   -1.9350 C   0  0  0  0  0  0  0  0  0  0  0  0
    3.1210   15.4110   -1.2980 C   0  0  0  0  0  0  0  0  0  0  0  0
    1.8180   14.6050   -1.0900 C   0  0  1  0  0  0  0  0  0  0  0  0
    1.5070   13.9780   -2.4850 C   0  0  0  0  0  0  0  0  0  0  0  0
    1.8490   13.5210    0.0370 C   0  0  2  0  0  0  0  0  0  0  0  0
    2.8600   12.3820   -0.1810 C   0  0  0  0  0  0  0  0  0  0  0  0
    2.3350   11.1960   -0.9200 C   0  0  0  0  0  0  0  0  0  0  0  0
    1.0360   10.9250   -1.1410 C   0  0  0  0  0  0  0  0  0  0  0  0
   -0.0670   11.8080   -0.5420 C   0  0  1  0  0  0  0  0  0  0  0  0
   -1.1590   10.9100    0.0970 C   0  0  0  0  0  0  0  0  0  0  0  0
   -1.7080    9.8730   -0.8790 C   0  0  0  0  0  0  0  0  0  0  0  0
   -0.5910    8.9780   -1.4080 C   0  0  2  0  0  0  0  0  0  0  0  0
   -0.0830    8.1870   -0.3290 O   0  0  0  0  0  0  0  0  0  0  0  0
    0.5720    9.7720   -2.0660 C   0  0  0  0  0  0  0  0  0  0  0  0
    0.0910   10.3860   -3.4040 C   0  0  0  0  0  0  0  0  0  0  0  0
    1.6940    8.7630   -2.4290 C   0  0  0  0  0  0  0  0  0  0  0  0
    0.4240   12.9610    0.4360 C   0  0  1  0  0  0  0  0  0  0  0  0
    0.5540   12.4080    1.8880 C   0  0  0  0  0  0  0  0  0  0  0  0
   -0.6710   14.0910    0.4880 C   0  0  0  0  0  0  0  0  0  0  0  0
   -0.5770   15.1990   -0.5790 C   0  0  0  0  0  0  0  0  0  0  0  0
    0.8450   15.7630   -0.6600 C   0  0  2  0  0  0  0  0  0  0  0  0
    1.1780   16.4200    0.7220 C   0  0  0  0  0  0  0  0  0  0  0  0
   -1.0501   19.2808   -2.4376 H   0  0  0  0  0  0  0  0  0  0  0  0
    0.4854   19.3691   -3.3656 H   0  0  0  0  0  0  0  0  0  0  0  0
   -0.4781   17.8531   -3.3656 H   0  0  0  0  0  0  0  0  0  0  0  0
   -0.0871   18.2358   -0.6805 H   0  0  0  0  0  0  0  0  0  0  0  0
    2.7073   18.7232   -1.5950 H   0  0  0  0  0  0  0  0  0  0  0  0
    1.5558   20.1437   -1.6038 H   0  0  0  0  0  0  0  0  0  0  0  0
    1.5416   20.3167    0.6210 H   0  0  0  0  0  0  0  0  0  0  0  0
    1.4919   18.5185    0.8489 H   0  0  0  0  0  0  0  0  0  0  0  0
    3.7213   19.6573   -0.3141 H   0  0  0  0  0  0  0  0  0  0  0  0
    3.4609   19.9833    4.1362 H   0  0  0  0  0  0  0  0  0  0  0  0
    2.8249   21.2752    3.0623 H   0  0  0  0  0  0  0  0  0  0  0  0
    2.0601   19.6499    3.0623 H   0  0  0  0  0  0  0  0  0  0  0  0
    5.6352   20.2715    3.2670 H   0  0  0  0  0  0  0  0  0  0  0  0
    6.0270   19.4521    1.7173 H   0  0  0  0  0  0  0  0  0  0  0  0
    5.5018   21.1699    1.7173 H   0  0  0  0  0  0  0  0  0  0  0  0
    0.5408   16.5576   -2.6736 H   0  0  0  0  0  0  0  0  0  0  0  0
    2.9251   16.7714   -3.0015 H   0  0  0  0  0  0  0  0  0  0  0  0
    3.1417   17.6061   -1.4481 H   0  0  0  0  0  0  0  0  0  0  0  0
    3.8051   14.8759   -1.9730 H   0  0  0  0  0  0  0  0  0  0  0  0
    3.6705   15.5658   -0.3577 H   0  0  0  0  0  0  0  0  0  0  0  0
    1.0220   13.0003   -2.3477 H   0  0  0  0  0  0  0  0  0  0  0  0
    0.8353   14.6450   -3.0453 H   0  0  0  0  0  0  0  0  0  0  0  0
    2.4445   13.8468   -3.0453 H   0  0  0  0  0  0  0  0  0  0  0  0
    2.2222   14.0895    0.9016 H   0  0  0  0  0  0  0  0  0  0  0  0
    3.7109   12.7868   -0.7486 H   0  0  0  0  0  0  0  0  0  0  0  0
    3.1314   12.0200    0.8217 H   0  0  0  0  0  0  0  0  0  0  0  0
    3.0727   10.4834   -1.3175 H   0  0  0  0  0  0  0  0  0  0  0  0
   -0.4945   12.3742   -1.3827 H   0  0  0  0  0  0  0  0  0  0  0  0
   -0.7238   10.3859    0.9606 H   0  0  0  0  0  0  0  0  0  0  0  0
   -1.9934   11.5609    0.3973 H   0  0  0  0  0  0  0  0  0  0  0  0
   -2.4535    9.2510   -0.3619 H   0  0  0  0  0  0  0  0  0  0  0  0
   -2.1688   10.3989   -1.7281 H   0  0  0  0  0  0  0  0  0  0  0  0
   -1.0231    8.3441   -2.1963 H   0  0  0  0  0  0  0  0  0  0  0  0
    0.6550    7.6570   -0.6740 H   0  0  0  0  0  0  0  0  0  0  0  0
   -0.5754   11.2367   -3.1985 H   0  0  0  0  0  0  0  0  0  0  0  0
    0.9604   10.7326   -3.9819 H   0  0  0  0  0  0  0  0  0  0  0  0
   -0.4536    9.6248   -3.9819 H   0  0  0  0  0  0  0  0  0  0  0  0
    2.1394    8.3624   -1.5064 H   0  0  0  0  0  0  0  0  0  0  0  0
    1.2683    7.9379   -3.0189 H   0  0  0  0  0  0  0  0  0  0  0  0
    2.4695    9.2735   -3.0189 H   0  0  0  0  0  0  0  0  0  0  0  0
    0.3636   13.2181    2.6073 H   0  0  0  0  0  0  0  0  0  0  0  0
   -0.1792   11.6023    2.0405 H   0  0  0  0  0  0  0  0  0  0  0  0
    1.5694   12.0134    2.0405 H   0  0  0  0  0  0  0  0  0  0  0  0
   -1.6533   13.6078    0.3804 H   0  0  0  0  0  0  0  0  0  0  0  0
   -0.5117   14.6023    1.4488 H   0  0  0  0  0  0  0  0  0  0  0  0
   -0.8544   14.7805   -1.5577 H   0  0  0  0  0  0  0  0  0  0  0  0
   -1.2620   16.0133   -0.3003 H   0  0  0  0  0  0  0  0  0  0  0  0
    0.8422   15.7575    1.5334 H   0  0  0  0  0  0  0  0  0  0  0  0
    2.2640   16.5760    0.8017 H   0  0  0  0  0  0  0  0  0  0  0  0
    0.6617   17.3880    0.8017 H   0  0  0  0  0  0  0  0  0  0  0  0
  1  2  1  0
  2  3  1  0
  3  4  1  0
  4  5  1  0
  5  6  1  0
  6  7  1  0
  7  8  1  0
  7  9  1  0
  2 10  1  0
 10 11  1  0
 11 12  1  0
 12 13  1  0
 13 14  1  6
 13 15  1  0
 15 16  1  0
 16 17  1  0
 17 18  2  0
 18 19  1  0
 19 20  1  0
 20 21  1  0
 21 22  1  0
 22 23  1  0
 22 24  1  0
 24 25  1  0
 24 26  1  0
 19 27  1  0
 27 28  1  1
 27 29  1  0
 29 30  1  0
 30 31  1  0
 31 32  1  1
  7  5  1  0
 31 10  1  0
 31 13  1  0
 27 15  1  0
 24 18  1  0
  1 33  1  0
  1 34  1  0
  1 35  1  0
  2 36  1  1
  3 37  1  0
  3 38  1  0
  4 39  1  0
  4 40  1  0
  5 41  1  6
  8 42  1  0
  8 43  1  0
  8 44  1  0
  9 45  1  0
  9 46  1  0
  9 47  1  0
 10 48  1  6
 11 49  1  0
 11 50  1  0
 12 51  1  0
 12 52  1  0
 14 53  1  0
 14 54  1  0
 14 55  1  0
 15 56  1  1
 16 57  1  0
 16 58  1  0
 17 59  1  0
 19 60  1  6
 20 61  1  0
 20 62  1  0
 21 63  1  0
 21 64  1  0
 22 65  1  6
 23 66  1  0
 25 67  1  0
 25 68  1  0
 25 69  1  0
 26 70  1  0
 26 71  1  0
 26 72  1  0
 28 73  1  0
 28 74  1  0
 28 75  1  0
 29 76  1  0
 29 77  1  0
 30 78  1  0
 30 79  1  0
 32 80  1  0
 32 81  1  0
 32 82  1  0
M  END
>  <meeko>  (17) 
{"is_sidechain": [false], "intermolecular_energy": 2.731, "internal_energy": -0.839}

$$$$
