EPH_relaxed_0001_pdb2pqr_Repair_163_r2_0001_out
     RDKit          3D

 82 86  0  0  0  0  0  0  0  0999 V2000
   -1.6500    8.6000   -1.8670 C   0  0  0  0  0  0  0  0  0  0  0  0
   -2.0370    9.1080   -0.4750 C   0  0  2  0  0  0  0  0  0  0  0  0
   -3.5370    9.4520   -0.3790 C   0  0  0  0  0  0  0  0  0  0  0  0
   -4.4440    8.2230   -0.2790 C   0  0  0  0  0  0  0  0  0  0  0  0
   -5.1370    7.9380   -1.5770 C   0  0  2  0  0  0  0  0  0  0  0  0
   -6.3360    8.6940   -1.7940 O   0  0  0  0  0  0  0  0  0  0  0  0
   -6.4970    7.2710   -1.6710 C   0  0  0  0  0  0  0  0  0  0  0  0
   -7.2440    6.8470   -0.4460 C   0  0  0  0  0  0  0  0  0  0  0  0
   -6.8740    6.5940   -2.9520 C   0  0  0  0  0  0  0  0  0  0  0  0
   -1.1990   10.3300   -0.1170 C   0  0  1  0  0  0  0  0  0  0  0  0
   -0.1580   10.0350    0.9960 C   0  0  0  0  0  0  0  0  0  0  0  0
    1.0950   10.8890    0.6740 C   0  0  0  0  0  0  0  0  0  0  0  0
    0.6210   11.8860   -0.4090 C   0  0  1  0  0  0  0  0  0  0  0  0
   -0.1040   13.0200    0.3800 C   0  0  0  0  0  0  0  0  0  0  0  0
    1.7270   12.4560   -1.3550 C   0  0  2  0  0  0  0  0  0  0  0  0
    2.8180   13.2870   -0.6570 C   0  0  0  0  0  0  0  0  0  0  0  0
    2.5400   14.7510   -0.5610 C   0  0  0  0  0  0  0  0  0  0  0  0
    1.6030   15.4170   -1.2600 C   0  0  0  0  0  0  0  0  0  0  0  0
    0.7670   14.7060   -2.3330 C   0  0  1  0  0  0  0  0  0  0  0  0
    0.7200   15.5780   -3.6150 C   0  0  0  0  0  0  0  0  0  0  0  0
    0.2310   16.9970   -3.3400 C   0  0  0  0  0  0  0  0  0  0  0  0
    1.1210   17.6910   -2.3120 C   0  0  2  0  0  0  0  0  0  0  0  0
    2.4180   17.8890   -2.8840 O   0  0  0  0  0  0  0  0  0  0  0  0
    1.2520   16.8990   -0.9810 C   0  0  0  0  0  0  0  0  0  0  0  0
   -0.0930   16.9450   -0.2140 C   0  0  0  0  0  0  0  0  0  0  0  0
    2.2860   17.6360   -0.0870 C   0  0  0  0  0  0  0  0  0  0  0  0
    1.1660   13.1980   -2.6350 C   0  0  1  0  0  0  0  0  0  0  0  0
    2.2970   13.1510   -3.7080 C   0  0  0  0  0  0  0  0  0  0  0  0
   -0.0720   12.4550   -3.2630 C   0  0  0  0  0  0  0  0  0  0  0  0
   -1.0660   11.8090   -2.2790 C   0  0  0  0  0  0  0  0  0  0  0  0
   -0.3330   10.9530   -1.2410 C   0  0  2  0  0  0  0  0  0  0  0  0
    0.3880    9.7900   -2.0030 C   0  0  0  0  0  0  0  0  0  0  0  0
   -0.9861    7.7286   -1.7678 H   0  0  0  0  0  0  0  0  0  0  0  0
   -2.5574    8.3090   -2.4165 H   0  0  0  0  0  0  0  0  0  0  0  0
   -1.1285    9.3976   -2.4165 H   0  0  0  0  0  0  0  0  0  0  0  0
   -1.8376    8.2970    0.2409 H   0  0  0  0  0  0  0  0  0  0  0  0
   -3.6944   10.0736    0.5147 H   0  0  0  0  0  0  0  0  0  0  0  0
   -3.8070    9.9766   -1.3074 H   0  0  0  0  0  0  0  0  0  0  0  0
   -3.8334    7.3510   -0.0020 H   0  0  0  0  0  0  0  0  0  0  0  0
   -5.2118    8.4247    0.4824 H   0  0  0  0  0  0  0  0  0  0  0  0
   -4.1767    7.7279   -2.0706 H   0  0  0  0  0  0  0  0  0  0  0  0
   -6.6886    7.1623    0.4496 H   0  0  0  0  0  0  0  0  0  0  0  0
   -8.2397    7.3146   -0.4435 H   0  0  0  0  0  0  0  0  0  0  0  0
   -7.3530    5.7524   -0.4435 H   0  0  0  0  0  0  0  0  0  0  0  0
   -7.3981    5.6529   -2.7289 H   0  0  0  0  0  0  0  0  0  0  0  0
   -7.5352    7.2528   -3.5341 H   0  0  0  0  0  0  0  0  0  0  0  0
   -5.9658    6.3789   -3.5341 H   0  0  0  0  0  0  0  0  0  0  0  0
   -2.0011   11.0259    0.1699 H   0  0  0  0  0  0  0  0  0  0  0  0
   -0.5648   10.3149    1.9790 H   0  0  0  0  0  0  0  0  0  0  0  0
    0.0917    8.9642    1.0295 H   0  0  0  0  0  0  0  0  0  0  0  0
    1.4404   11.4249    1.5704 H   0  0  0  0  0  0  0  0  0  0  0  0
    1.9416   10.2749    0.3332 H   0  0  0  0  0  0  0  0  0  0  0  0
    0.0081   12.8446    1.4601 H   0  0  0  0  0  0  0  0  0  0  0  0
    0.3411   13.9912    0.1181 H   0  0  0  0  0  0  0  0  0  0  0  0
   -1.1724   13.0237    0.1181 H   0  0  0  0  0  0  0  0  0  0  0  0
    2.2276   11.5428   -1.7092 H   0  0  0  0  0  0  0  0  0  0  0  0
    2.9417   12.8967    0.3640 H   0  0  0  0  0  0  0  0  0  0  0  0
    3.7204   13.1883   -1.2783 H   0  0  0  0  0  0  0  0  0  0  0  0
    3.1536   15.3347    0.1410 H   0  0  0  0  0  0  0  0  0  0  0  0
   -0.2448   14.6052   -1.9134 H   0  0  0  0  0  0  0  0  0  0  0  0
    1.7320   15.6305   -4.0430 H   0  0  0  0  0  0  0  0  0  0  0  0
    0.0095   15.1092   -4.3117 H   0  0  0  0  0  0  0  0  0  0  0  0
    0.2483   17.5718   -4.2777 H   0  0  0  0  0  0  0  0  0  0  0  0
   -0.7923   16.9444   -2.9400 H   0  0  0  0  0  0  0  0  0  0  0  0
    0.6472   18.6512   -2.0600 H   0  0  0  0  0  0  0  0  0  0  0  0
    3.0280   17.2660   -2.4530 H   0  0  0  0  0  0  0  0  0  0  0  0
    0.1018   16.9383    0.8686 H   0  0  0  0  0  0  0  0  0  0  0  0
   -0.6373   17.8623   -0.4830 H   0  0  0  0  0  0  0  0  0  0  0  0
   -0.6987   16.0670   -0.4830 H   0  0  0  0  0  0  0  0  0  0  0  0
    2.0440   17.4635    0.9721 H   0  0  0  0  0  0  0  0  0  0  0  0
    3.2945   17.2519   -0.2999 H   0  0  0  0  0  0  0  0  0  0  0  0
    2.2519   18.7147   -0.2999 H   0  0  0  0  0  0  0  0  0  0  0  0
    3.2757   13.1103   -3.2076 H   0  0  0  0  0  0  0  0  0  0  0  0
    2.1692   12.2574   -4.3366 H   0  0  0  0  0  0  0  0  0  0  0  0
    2.2438   14.0521   -4.3366 H   0  0  0  0  0  0  0  0  0  0  0  0
   -0.6289   13.1872   -3.8661 H   0  0  0  0  0  0  0  0  0  0  0  0
    0.3541   11.6169   -3.8339 H   0  0  0  0  0  0  0  0  0  0  0  0
   -1.6259   12.6016   -1.7610 H   0  0  0  0  0  0  0  0  0  0  0  0
   -1.7506   11.1617   -2.8467 H   0  0  0  0  0  0  0  0  0  0  0  0
    0.8227    9.0889   -1.2753 H   0  0  0  0  0  0  0  0  0  0  0  0
   -0.3395    9.2589   -2.6344 H   0  0  0  0  0  0  0  0  0  0  0  0
    1.1872   10.2054   -2.6344 H   0  0  0  0  0  0  0  0  0  0  0  0
  1  2  1  0
  2  3  1  0
  3  4  1  0
  4  5  1  0
  5  6  1  0
  6  7  1  0
  7  8  1  0
  7  9  1  0
  2 10  1  0
 10 11  1  0
 11 12  1  0
 12 13  1  0
 13 14  1  1
 13 15  1  0
 15 16  1  0
 16 17  1  0
 17 18  2  0
 18 19  1  0
 19 20  1  0
 20 21  1  0
 21 22  1  0
 22 23  1  0
 22 24  1  0
 24 25  1  0
 24 26  1  0
 19 27  1  0
 27 28  1  6
 27 29  1  0
 29 30  1  0
 30 31  1  0
 31 32  1  6
  7  5  1  0
 31 10  1  0
 31 13  1  0
 27 15  1  0
 24 18  1  0
  1 33  1  0
  1 34  1  0
  1 35  1  0
  2 36  1  1
  3 37  1  0
  3 38  1  0
  4 39  1  0
  4 40  1  0
  5 41  1  6
  8 42  1  0
  8 43  1  0
  8 44  1  0
  9 45  1  0
  9 46  1  0
  9 47  1  0
 10 48  1  1
 11 49  1  0
 11 50  1  0
 12 51  1  0
 12 52  1  0
 14 53  1  0
 14 54  1  0
 14 55  1  0
 15 56  1  6
 16 57  1  0
 16 58  1  0
 17 59  1  0
 19 60  1  1
 20 61  1  0
 20 62  1  0
 21 63  1  0
 21 64  1  0
 22 65  1  1
 23 66  1  0
 25 67  1  0
 25 68  1  0
 25 69  1  0
 26 70  1  0
 26 71  1  0
 26 72  1  0
 28 73  1  0
 28 74  1  0
 28 75  1  0
 29 76  1  0
 29 77  1  0
 30 78  1  0
 30 79  1  0
 32 80  1  0
 32 81  1  0
 32 82  1  0
M  END
>  <meeko>  (1) 
{"is_sidechain": [false], "intermolecular_energy": 2.731, "internal_energy": -0.839}

$$$$
EPH_relaxed_0001_pdb2pqr_Repair_163_r2_0001_out
     RDKit          3D

 82 86  0  0  0  0  0  0  0  0999 V2000
    0.3950   18.3750    0.0590 C   0  0  0  0  0  0  0  0  0  0  0  0
    1.4880   17.3320   -0.1940 C   0  0  2  0  0  0  0  0  0  0  0  0
    2.6810   17.9180   -0.9750 C   0  0  0  0  0  0  0  0  0  0  0  0
    3.9150   18.1800   -0.1090 C   0  0  0  0  0  0  0  0  0  0  0  0
    3.5410   18.6920    1.2500 C   0  0  2  0  0  0  0  0  0  0  0  0
    3.8270   20.0790    1.4660 O   0  0  0  0  0  0  0  0  0  0  0  0
    4.5560   19.1470    2.2810 C   0  0  0  0  0  0  0  0  0  0  0  0
    6.0250   19.1110    1.9990 C   0  0  0  0  0  0  0  0  0  0  0  0
    4.1530   19.1630    3.7230 C   0  0  0  0  0  0  0  0  0  0  0  0
    0.9050   16.1420   -0.9470 C   0  0  1  0  0  0  0  0  0  0  0  0
    0.7630   16.4100   -2.4690 C   0  0  0  0  0  0  0  0  0  0  0  0
    1.0450   15.0660   -3.1890 C   0  0  0  0  0  0  0  0  0  0  0  0
    1.0110   14.0060   -2.0620 C   0  0  1  0  0  0  0  0  0  0  0  0
   -0.5050   13.7110   -1.8340 C   0  0  0  0  0  0  0  0  0  0  0  0
    1.8210   12.6950   -2.3230 C   0  0  2  0  0  0  0  0  0  0  0  0
    1.3400   11.8570   -3.5200 C   0  0  0  0  0  0  0  0  0  0  0  0
    0.3090   10.8240   -3.2030 C   0  0  0  0  0  0  0  0  0  0  0  0
   -0.0020   10.3830   -1.9700 C   0  0  0  0  0  0  0  0  0  0  0  0
    0.7800   10.8630   -0.7410 C   0  0  1  0  0  0  0  0  0  0  0  0
    1.1430    9.6450    0.1500 C   0  0  0  0  0  0  0  0  0  0  0  0
   -0.0780    8.8110    0.5240 C   0  0  0  0  0  0  0  0  0  0  0  0
   -0.7960    8.3040   -0.7240 C   0  0  2  0  0  0  0  0  0  0  0  0
    0.0540    7.3700   -1.3970 O   0  0  0  0  0  0  0  0  0  0  0  0
   -1.2020    9.4410   -1.7020 C   0  0  0  0  0  0  0  0  0  0  0  0
   -2.3480   10.2780   -1.0810 C   0  0  0  0  0  0  0  0  0  0  0  0
   -1.7880    8.7850   -2.9810 C   0  0  0  0  0  0  0  0  0  0  0  0
    2.0320   11.7970   -1.0370 C   0  0  1  0  0  0  0  0  0  0  0  0
    3.2950   10.9230   -1.3060 C   0  0  0  0  0  0  0  0  0  0  0  0
    2.3490   12.6530    0.2460 C   0  0  0  0  0  0  0  0  0  0  0  0
    1.6050   13.9950    0.3860 C   0  0  0  0  0  0  0  0  0  0  0  0
    1.7020   14.8140   -0.9040 C   0  0  2  0  0  0  0  0  0  0  0  0
    3.2140   15.1450   -1.1480 C   0  0  0  0  0  0  0  0  0  0  0  0
    0.2573   18.5064    1.1424 H   0  0  0  0  0  0  0  0  0  0  0  0
    0.6915   19.3336   -0.3919 H   0  0  0  0  0  0  0  0  0  0  0  0
   -0.5486   18.0340   -0.3919 H   0  0  0  0  0  0  0  0  0  0  0  0
    1.8657   17.0035    0.7855 H   0  0  0  0  0  0  0  0  0  0  0  0
    2.9582   17.2088   -1.7689 H   0  0  0  0  0  0  0  0  0  0  0  0
    2.3568   18.8902   -1.3746 H   0  0  0  0  0  0  0  0  0  0  0  0
    4.4757   17.2406    0.0059 H   0  0  0  0  0  0  0  0  0  0  0  0
    4.5270   18.9462   -0.6074 H   0  0  0  0  0  0  0  0  0  0  0  0
    2.6952   17.9910    1.3072 H   0  0  0  0  0  0  0  0  0  0  0  0
    6.5804   19.0974    2.9484 H   0  0  0  0  0  0  0  0  0  0  0  0
    6.2653   18.2067    1.4206 H   0  0  0  0  0  0  0  0  0  0  0  0
    6.3093   20.0024    1.4206 H   0  0  0  0  0  0  0  0  0  0  0  0
    5.0523   19.1273    4.3555 H   0  0  0  0  0  0  0  0  0  0  0  0
    3.5910   20.0842    3.9364 H   0  0  0  0  0  0  0  0  0  0  0  0
    3.5197   18.2893    3.9364 H   0  0  0  0  0  0  0  0  0  0  0  0
   -0.0456   16.0283   -0.4053 H   0  0  0  0  0  0  0  0  0  0  0  0
   -0.2554   16.7564   -2.6991 H   0  0  0  0  0  0  0  0  0  0  0  0
    1.4650   17.1897   -2.7996 H   0  0  0  0  0  0  0  0  0  0  0  0
    0.2699   14.8582   -3.9413 H   0  0  0  0  0  0  0  0  0  0  0  0
    2.0048   15.0735   -3.7264 H   0  0  0  0  0  0  0  0  0  0  0  0
   -0.7124   13.6706   -0.7545 H   0  0  0  0  0  0  0  0  0  0  0  0
   -1.1069   14.5089   -2.2934 H   0  0  0  0  0  0  0  0  0  0  0  0
   -0.7638   12.7456   -2.2934 H   0  0  0  0  0  0  0  0  0  0  0  0
    2.8100   13.0826   -2.6086 H   0  0  0  0  0  0  0  0  0  0  0  0
    0.9146   12.5438   -4.2665 H   0  0  0  0  0  0  0  0  0  0  0  0
    2.2217   11.3063   -3.8795 H   0  0  0  0  0  0  0  0  0  0  0  0
   -0.2426   10.3868   -4.0484 H   0  0  0  0  0  0  0  0  0  0  0  0
    0.1040   11.5372   -0.1946 H   0  0  0  0  0  0  0  0  0  0  0  0
    1.8523    9.0065   -0.3971 H   0  0  0  0  0  0  0  0  0  0  0  0
    1.5823   10.0312    1.0816 H   0  0  0  0  0  0  0  0  0  0  0  0
    0.2453    7.9503    1.1279 H   0  0  0  0  0  0  0  0  0  0  0  0
   -0.7729    9.4432    1.0961 H   0  0  0  0  0  0  0  0  0  0  0  0
   -1.7305    7.8255   -0.3957 H   0  0  0  0  0  0  0  0  0  0  0  0
    0.4510    7.8290   -2.1570 H   0  0  0  0  0  0  0  0  0  0  0  0
   -2.2835   10.2309    0.0161 H   0  0  0  0  0  0  0  0  0  0  0  0
   -2.2574   11.3240   -1.4091 H   0  0  0  0  0  0  0  0  0  0  0  0
   -3.3169    9.8734   -1.4091 H   0  0  0  0  0  0  0  0  0  0  0  0
   -2.4957    7.9928   -2.6954 H   0  0  0  0  0  0  0  0  0  0  0  0
   -2.3116    9.5470   -3.5770 H   0  0  0  0  0  0  0  0  0  0  0  0
   -0.9720    8.3503   -3.5770 H   0  0  0  0  0  0  0  0  0  0  0  0
    3.7391   10.6157   -0.3477 H   0  0  0  0  0  0  0  0  0  0  0  0
    3.0074   10.0298   -1.8800 H   0  0  0  0  0  0  0  0  0  0  0  0
    4.0295   11.5069   -1.8800 H   0  0  0  0  0  0  0  0  0  0  0  0
    2.0992   12.0406    1.1249 H   0  0  0  0  0  0  0  0  0  0  0  0
    3.4123   12.9207    0.1584 H   0  0  0  0  0  0  0  0  0  0  0  0
    0.5458   13.7976    0.6078 H   0  0  0  0  0  0  0  0  0  0  0  0
    2.0692   14.5694    1.2012 H   0  0  0  0  0  0  0  0  0  0  0  0
    3.7256   15.2570   -0.1807 H   0  0  0  0  0  0  0  0  0  0  0  0
    3.6810   14.3278   -1.7173 H   0  0  0  0  0  0  0  0  0  0  0  0
    3.2969   16.0826   -1.7173 H   0  0  0  0  0  0  0  0  0  0  0  0
  1  2  1  0
  2  3  1  0
  3  4  1  0
  4  5  1  0
  5  6  1  0
  6  7  1  0
  7  8  1  0
  7  9  1  0
  2 10  1  0
 10 11  1  0
 11 12  1  0
 12 13  1  0
 13 14  1  1
 13 15  1  0
 15 16  1  0
 16 17  1  0
 17 18  2  0
 18 19  1  0
 19 20  1  0
 20 21  1  0
 21 22  1  0
 22 23  1  0
 22 24  1  0
 24 25  1  0
 24 26  1  0
 19 27  1  0
 27 28  1  6
 27 29  1  0
 29 30  1  0
 30 31  1  0
 31 32  1  6
  7  5  1  0
 31 10  1  0
 31 13  1  0
 27 15  1  0
 24 18  1  0
  1 33  1  0
  1 34  1  0
  1 35  1  0
  2 36  1  1
  3 37  1  0
  3 38  1  0
  4 39  1  0
  4 40  1  0
  5 41  1  1
  8 42  1  0
  8 43  1  0
  8 44  1  0
  9 45  1  0
  9 46  1  0
  9 47  1  0
 10 48  1  1
 11 49  1  0
 11 50  1  0
 12 51  1  0
 12 52  1  0
 14 53  1  0
 14 54  1  0
 14 55  1  0
 15 56  1  6
 16 57  1  0
 16 58  1  0
 17 59  1  0
 19 60  1  1
 20 61  1  0
 20 62  1  0
 21 63  1  0
 21 64  1  0
 22 65  1  1
 23 66  1  0
 25 67  1  0
 25 68  1  0
 25 69  1  0
 26 70  1  0
 26 71  1  0
 26 72  1  0
 28 73  1  0
 28 74  1  0
 28 75  1  0
 29 76  1  0
 29 77  1  0
 30 78  1  0
 30 79  1  0
 32 80  1  0
 32 81  1  0
 32 82  1  0
M  END
>  <meeko>  (2) 
{"is_sidechain": [false], "intermolecular_energy": 2.731, "internal_energy": -0.839}

$$$$
EPH_relaxed_0001_pdb2pqr_Repair_163_r2_0001_out
     RDKit          3D

 82 86  0  0  0  0  0  0  0  0999 V2000
    1.9960   18.3280   -2.8080 C   0  0  0  0  0  0  0  0  0  0  0  0
    0.9650   17.7430   -1.8380 C   0  0  2  0  0  0  0  0  0  0  0  0
    1.4920   17.6950   -0.3900 C   0  0  0  0  0  0  0  0  0  0  0  0
    1.2200   18.9740    0.4060 C   0  0  0  0  0  0  0  0  0  0  0  0
    0.0050   19.6920   -0.0970 C   0  0  2  0  0  0  0  0  0  0  0  0
   -0.8620   20.1930    0.9290 O   0  0  0  0  0  0  0  0  0  0  0  0
   -1.4090   19.1710    0.0800 C   0  0  0  0  0  0  0  0  0  0  0  0
   -1.6810   17.8780    0.7830 C   0  0  0  0  0  0  0  0  0  0  0  0
   -2.4750   19.6640   -0.8480 C   0  0  0  0  0  0  0  0  0  0  0  0
    0.5590   16.3450   -2.2920 C   0  0  1  0  0  0  0  0  0  0  0  0
    0.7210   16.1430   -3.8220 C   0  0  0  0  0  0  0  0  0  0  0  0
    1.1560   14.6710   -4.0350 C   0  0  0  0  0  0  0  0  0  0  0  0
    0.9110   13.9890   -2.6680 C   0  0  1  0  0  0  0  0  0  0  0  0
   -0.6160   13.6670   -2.6500 C   0  0  0  0  0  0  0  0  0  0  0  0
    1.7720   12.7210   -2.3640 C   0  0  2  0  0  0  0  0  0  0  0  0
    1.5500   11.5360   -3.3200 C   0  0  0  0  0  0  0  0  0  0  0  0
    0.4890   10.5710   -2.9040 C   0  0  0  0  0  0  0  0  0  0  0  0
   -0.0570   10.4910   -1.6770 C   0  0  0  0  0  0  0  0  0  0  0  0
    0.4580   11.3650   -0.5260 C   0  0  1  0  0  0  0  0  0  0  0  0
    0.6490   10.4930    0.7420 C   0  0  0  0  0  0  0  0  0  0  0  0
   -0.6120    9.7200    1.1160 C   0  0  0  0  0  0  0  0  0  0  0  0
   -1.0600    8.8190   -0.0310 C   0  0  2  0  0  0  0  0  0  0  0  0
   -0.0810    7.7920   -0.2200 O   0  0  0  0  0  0  0  0  0  0  0  0
   -1.2750    9.5860   -1.3650 C   0  0  0  0  0  0  0  0  0  0  0  0
   -2.5320   10.4850   -1.2520 C   0  0  0  0  0  0  0  0  0  0  0  0
   -1.5860    8.5430   -2.4720 C   0  0  0  0  0  0  0  0  0  0  0  0
    1.7320   12.2580   -0.8510 C   0  0  1  0  0  0  0  0  0  0  0  0
    3.0340   11.4370   -0.6020 C   0  0  0  0  0  0  0  0  0  0  0  0
    1.7760   13.4740    0.1480 C   0  0  0  0  0  0  0  0  0  0  0  0
    1.0030   14.7410   -0.2650 C   0  0  0  0  0  0  0  0  0  0  0  0
    1.3470   15.1490   -1.7010 C   0  0  2  0  0  0  0  0  0  0  0  0
    2.8730   15.5010   -1.7460 C   0  0  0  0  0  0  0  0  0  0  0  0
    2.8140   18.7922   -2.2376 H   0  0  0  0  0  0  0  0  0  0  0  0
    2.4004   17.5248   -3.4415 H   0  0  0  0  0  0  0  0  0  0  0  0
    1.5140   19.0871   -3.4415 H   0  0  0  0  0  0  0  0  0  0  0  0
    0.0875   18.4063   -1.8477 H   0  0  0  0  0  0  0  0  0  0  0  0
    1.0081   16.8539    0.1281 H   0  0  0  0  0  0  0  0  0  0  0  0
    2.5843   17.5789   -0.4489 H   0  0  0  0  0  0  0  0  0  0  0  0
    1.0662   18.7103    1.4628 H   0  0  0  0  0  0  0  0  0  0  0  0
    2.0861   19.6418    0.2884 H   0  0  0  0  0  0  0  0  0  0  0  0
    0.5539   20.0499   -0.9805 H   0  0  0  0  0  0  0  0  0  0  0  0
   -1.6474   18.0379    1.8708 H   0  0  0  0  0  0  0  0  0  0  0  0
   -2.6767   17.5078    0.4974 H   0  0  0  0  0  0  0  0  0  0  0  0
   -0.9189   17.1380    0.4974 H   0  0  0  0  0  0  0  0  0  0  0  0
   -3.3197   20.0547   -0.2616 H   0  0  0  0  0  0  0  0  0  0  0  0
   -2.0673   20.4650   -1.4822 H   0  0  0  0  0  0  0  0  0  0  0  0
   -2.8213   18.8346   -1.4822 H   0  0  0  0  0  0  0  0  0  0  0  0
   -0.4794   16.3277   -1.9296 H   0  0  0  0  0  0  0  0  0  0  0  0
   -0.2346   16.3332   -4.3325 H   0  0  0  0  0  0  0  0  0  0  0  0
    1.4659   16.8388   -4.2356 H   0  0  0  0  0  0  0  0  0  0  0  0
    0.5488   14.1965   -4.8199 H   0  0  0  0  0  0  0  0  0  0  0  0
    2.2037   14.5888   -4.3600 H   0  0  0  0  0  0  0  0  0  0  0  0
   -0.9630   13.5938   -1.6087 H   0  0  0  0  0  0  0  0  0  0  0  0
   -1.1659   14.4689   -3.1643 H   0  0  0  0  0  0  0  0  0  0  0  0
   -0.7953   12.7113   -3.1643 H   0  0  0  0  0  0  0  0  0  0  0  0
    2.7936   13.0771   -2.5626 H   0  0  0  0  0  0  0  0  0  0  0  0
    1.2740   11.9409   -4.3048 H   0  0  0  0  0  0  0  0  0  0  0  0
    2.4923   10.9686   -3.3253 H   0  0  0  0  0  0  0  0  0  0  0  0
    0.1230    9.8661   -3.6650 H   0  0  0  0  0  0  0  0  0  0  0  0
   -0.3216   12.1195   -0.3447 H   0  0  0  0  0  0  0  0  0  0  0  0
    1.4611    9.7745    0.5568 H   0  0  0  0  0  0  0  0  0  0  0  0
    0.8876   11.1671    1.5779 H   0  0  0  0  0  0  0  0  0  0  0  0
   -0.4051    9.1002    2.0009 H   0  0  0  0  0  0  0  0  0  0  0  0
   -1.4149   10.4407    1.3303 H   0  0  0  0  0  0  0  0  0  0  0  0
   -2.0353    8.3928    0.2467 H   0  0  0  0  0  0  0  0  0  0  0  0
    0.0450    7.3450    0.6350 H   0  0  0  0  0  0  0  0  0  0  0  0
   -2.7679   10.6537   -0.1909 H   0  0  0  0  0  0  0  0  0  0  0  0
   -2.3377   11.4503   -1.7424 H   0  0  0  0  0  0  0  0  0  0  0  0
   -3.3827    9.9892   -1.7424 H   0  0  0  0  0  0  0  0  0  0  0  0
   -1.8708    7.5880   -2.0064 H   0  0  0  0  0  0  0  0  0  0  0  0
   -2.4145    8.9076   -3.0970 H   0  0  0  0  0  0  0  0  0  0  0  0
   -0.6931    8.3944   -3.0970 H   0  0  0  0  0  0  0  0  0  0  0  0
    3.2001   11.3323    0.4803 H   0  0  0  0  0  0  0  0  0  0  0  0
    2.9312   10.4400   -1.0553 H   0  0  0  0  0  0  0  0  0  0  0  0
    3.8893   11.9595   -1.0553 H   0  0  0  0  0  0  0  0  0  0  0  0
    1.3635   13.1308    1.1082 H   0  0  0  0  0  0  0  0  0  0  0  0
    2.8321   13.7798    0.1826 H   0  0  0  0  0  0  0  0  0  0  0  0
   -0.0767   14.5423   -0.1961 H   0  0  0  0  0  0  0  0  0  0  0  0
    1.2872   15.5613    0.4105 H   0  0  0  0  0  0  0  0  0  0  0  0
    3.2592   15.5901   -0.7199 H   0  0  0  0  0  0  0  0  0  0  0  0
    3.4175   14.7049   -2.2749 H   0  0  0  0  0  0  0  0  0  0  0  0
    3.0138   16.4552   -2.2749 H   0  0  0  0  0  0  0  0  0  0  0  0
  1  2  1  0
  2  3  1  0
  3  4  1  0
  4  5  1  0
  5  6  1  0
  6  7  1  0
  7  8  1  0
  7  9  1  0
  2 10  1  0
 10 11  1  0
 11 12  1  0
 12 13  1  0
 13 14  1  1
 13 15  1  0
 15 16  1  0
 16 17  1  0
 17 18  2  0
 18 19  1  0
 19 20  1  0
 20 21  1  0
 21 22  1  0
 22 23  1  0
 22 24  1  0
 24 25  1  0
 24 26  1  0
 19 27  1  0
 27 28  1  1
 27 29  1  0
 29 30  1  0
 30 31  1  0
 31 32  1  1
  7  5  1  0
 31 10  1  0
 31 13  1  0
 27 15  1  0
 24 18  1  0
  1 33  1  0
  1 34  1  0
  1 35  1  0
  2 36  1  1
  3 37  1  0
  3 38  1  0
  4 39  1  0
  4 40  1  0
  5 41  1  6
  8 42  1  0
  8 43  1  0
  8 44  1  0
  9 45  1  0
  9 46  1  0
  9 47  1  0
 10 48  1  6
 11 49  1  0
 11 50  1  0
 12 51  1  0
 12 52  1  0
 14 53  1  0
 14 54  1  0
 14 55  1  0
 15 56  1  6
 16 57  1  0
 16 58  1  0
 17 59  1  0
 19 60  1  1
 20 61  1  0
 20 62  1  0
 21 63  1  0
 21 64  1  0
 22 65  1  1
 23 66  1  0
 25 67  1  0
 25 68  1  0
 25 69  1  0
 26 70  1  0
 26 71  1  0
 26 72  1  0
 28 73  1  0
 28 74  1  0
 28 75  1  0
 29 76  1  0
 29 77  1  0
 30 78  1  0
 30 79  1  0
 32 80  1  0
 32 81  1  0
 32 82  1  0
M  END
>  <meeko>  (3) 
{"is_sidechain": [false], "intermolecular_energy": 2.731, "internal_energy": -0.839}

$$$$
EPH_relaxed_0001_pdb2pqr_Repair_163_r2_0001_out
     RDKit          3D

 82 86  0  0  0  0  0  0  0  0999 V2000
    4.1010   17.6000    0.0480 C   0  0  0  0  0  0  0  0  0  0  0  0
    2.6890   18.1740   -0.1060 C   0  0  2  0  0  0  0  0  0  0  0  0
    2.3440   19.1750    1.0150 C   0  0  0  0  0  0  0  0  0  0  0  0
    3.5640   19.8980    1.5920 C   0  0  0  0  0  0  0  0  0  0  0  0
    4.0350   19.2600    2.8650 C   0  0  2  0  0  0  0  0  0  0  0  0
    4.3630   20.1840    3.9110 O   0  0  0  0  0  0  0  0  0  0  0  0
    5.4490   19.3980    3.3960 C   0  0  0  0  0  0  0  0  0  0  0  0
    6.4840   20.1940    2.6640 C   0  0  0  0  0  0  0  0  0  0  0  0
    5.9560   18.3670    4.3560 C   0  0  0  0  0  0  0  0  0  0  0  0
    1.6680   17.0430   -0.1270 C   0  0  1  0  0  0  0  0  0  0  0  0
    0.2370   17.5360   -0.4710 C   0  0  0  0  0  0  0  0  0  0  0  0
   -0.4360   16.4110   -1.2980 C   0  0  0  0  0  0  0  0  0  0  0  0
    0.4930   15.1870   -1.1210 C   0  0  1  0  0  0  0  0  0  0  0  0
    0.0980   14.5800    0.2620 C   0  0  0  0  0  0  0  0  0  0  0  0
    0.4460   14.1130   -2.2570 C   0  0  2  0  0  0  0  0  0  0  0  0
   -0.9140   13.4180   -2.4420 C   0  0  0  0  0  0  0  0  0  0  0  0
   -1.1080   12.1730   -1.6420 C   0  0  0  0  0  0  0  0  0  0  0  0
   -0.1320   11.4770   -1.0290 C   0  0  0  0  0  0  0  0  0  0  0  0
    1.3410   11.8770   -1.1900 C   0  0  1  0  0  0  0  0  0  0  0  0
    2.1900   10.6140   -1.4920 C   0  0  0  0  0  0  0  0  0  0  0  0
    1.9950    9.5150   -0.4530 C   0  0  0  0  0  0  0  0  0  0  0  0
    0.5270    9.1040   -0.3630 C   0  0  2  0  0  0  0  0  0  0  0  0
    0.1490    8.4750   -1.5910 O   0  0  0  0  0  0  0  0  0  0  0  0
   -0.4260   10.2960   -0.0720 C   0  0  0  0  0  0  0  0  0  0  0  0
   -0.2180   10.7860    1.3830 C   0  0  0  0  0  0  0  0  0  0  0  0
   -1.8850    9.7700   -0.1470 C   0  0  0  0  0  0  0  0  0  0  0  0
    1.6290   13.0640   -2.2070 C   0  0  1  0  0  0  0  0  0  0  0  0
    1.7870   12.5010   -3.6520 C   0  0  0  0  0  0  0  0  0  0  0  0
    3.0060   13.7330   -1.8380 C   0  0  0  0  0  0  0  0  0  0  0  0
    2.9710   14.8680   -0.7970 C   0  0  0  0  0  0  0  0  0  0  0  0
    1.8940   15.8990   -1.1470 C   0  0  2  0  0  0  0  0  0  0  0  0
    2.2760   16.5430   -2.5240 C   0  0  0  0  0  0  0  0  0  0  0  0
    4.3424   17.5019    1.1167 H   0  0  0  0  0  0  0  0  0  0  0  0
    4.1490   16.6110   -0.4311 H   0  0  0  0  0  0  0  0  0  0  0  0
    4.8255   18.2750   -0.4311 H   0  0  0  0  0  0  0  0  0  0  0  0
    2.6563   18.7219   -1.0593 H   0  0  0  0  0  0  0  0  0  0  0  0
    1.6544   19.9288    0.6072 H   0  0  0  0  0  0  0  0  0  0  0  0
    1.8956   18.5961    1.8359 H   0  0  0  0  0  0  0  0  0  0  0  0
    4.3793   19.8663    0.8542 H   0  0  0  0  0  0  0  0  0  0  0  0
    3.2746   20.9356    1.8146 H   0  0  0  0  0  0  0  0  0  0  0  0
    3.3948   18.3826    2.6905 H   0  0  0  0  0  0  0  0  0  0  0  0
    7.1395   20.6982    3.3893 H   0  0  0  0  0  0  0  0  0  0  0  0
    7.0841   19.5225    2.0324 H   0  0  0  0  0  0  0  0  0  0  0  0
    5.9890   20.9463    2.0324 H   0  0  0  0  0  0  0  0  0  0  0  0
    5.7867   18.7112    5.3869 H   0  0  0  0  0  0  0  0  0  0  0  0
    5.4209   17.4198    4.1932 H   0  0  0  0  0  0  0  0  0  0  0  0
    7.0329   18.2125    4.1932 H   0  0  0  0  0  0  0  0  0  0  0  0
    1.7934   16.6628    0.8976 H   0  0  0  0  0  0  0  0  0  0  0  0
   -0.3324   17.7202    0.4520 H   0  0  0  0  0  0  0  0  0  0  0  0
    0.2691   18.4781   -1.0379 H   0  0  0  0  0  0  0  0  0  0  0  0
   -1.4425   16.1937   -0.9110 H   0  0  0  0  0  0  0  0  0  0  0  0
   -0.5626   16.6890   -2.3547 H   0  0  0  0  0  0  0  0  0  0  0  0
    0.5063   15.2075    1.0679 H   0  0  0  0  0  0  0  0  0  0  0  0
   -0.9981   14.5423    0.3463 H   0  0  0  0  0  0  0  0  0  0  0  0
    0.5075   13.5625    0.3463 H   0  0  0  0  0  0  0  0  0  0  0  0
    0.5965   14.7204   -3.1616 H   0  0  0  0  0  0  0  0  0  0  0  0
   -1.7016   14.1311   -2.1572 H   0  0  0  0  0  0  0  0  0  0  0  0
   -0.9578   13.1113   -3.4975 H   0  0  0  0  0  0  0  0  0  0  0  0
   -2.1353   11.7918   -1.5450 H   0  0  0  0  0  0  0  0  0  0  0  0
    1.6466   12.3101   -0.2261 H   0  0  0  0  0  0  0  0  0  0  0  0
    1.9003   10.2221   -2.4781 H   0  0  0  0  0  0  0  0  0  0  0  0
    3.2490   10.9107   -1.4689 H   0  0  0  0  0  0  0  0  0  0  0  0
    2.5972    8.6396   -0.7375 H   0  0  0  0  0  0  0  0  0  0  0  0
    2.3133    9.8982    0.5277 H   0  0  0  0  0  0  0  0  0  0  0  0
    0.4298    8.4106    0.4854 H   0  0  0  0  0  0  0  0  0  0  0  0
   -0.1830    9.1680   -2.1870 H   0  0  0  0  0  0  0  0  0  0  0  0
   -0.5493   10.0054    2.0837 H   0  0  0  0  0  0  0  0  0  0  0  0
    0.8483   10.9993    1.5492 H   0  0  0  0  0  0  0  0  0  0  0  0
   -0.8052   11.7012    1.5492 H   0  0  0  0  0  0  0  0  0  0  0  0
   -2.2767    9.6288    0.8712 H   0  0  0  0  0  0  0  0  0  0  0  0
   -2.5106   10.4992   -0.6827 H   0  0  0  0  0  0  0  0  0  0  0  0
   -1.9014    8.8094   -0.6827 H   0  0  0  0  0  0  0  0  0  0  0  0
    2.0839   11.4430   -3.6029 H   0  0  0  0  0  0  0  0  0  0  0  0
    0.8295   12.5887   -4.1864 H   0  0  0  0  0  0  0  0  0  0  0  0
    2.5590   13.0741   -4.1864 H   0  0  0  0  0  0  0  0  0  0  0  0
    3.6652   12.9437   -1.4475 H   0  0  0  0  0  0  0  0  0  0  0  0
    3.3538   14.2065   -2.7679 H   0  0  0  0  0  0  0  0  0  0  0  0
    2.7528   14.4416    0.1932 H   0  0  0  0  0  0  0  0  0  0  0  0
    3.9496   15.3704   -0.7925 H   0  0  0  0  0  0  0  0  0  0  0  0
    2.8302   17.4773   -2.3507 H   0  0  0  0  0  0  0  0  0  0  0  0
    2.9054   15.8436   -3.0938 H   0  0  0  0  0  0  0  0  0  0  0  0
    1.3605   16.7600   -3.0938 H   0  0  0  0  0  0  0  0  0  0  0  0
  1  2  1  0
  2  3  1  0
  3  4  1  0
  4  5  1  0
  5  6  1  0
  6  7  1  0
  7  8  1  0
  7  9  1  0
  2 10  1  0
 10 11  1  0
 11 12  1  0
 12 13  1  0
 13 14  1  1
 13 15  1  0
 15 16  1  0
 16 17  1  0
 17 18  2  0
 18 19  1  0
 19 20  1  0
 20 21  1  0
 21 22  1  0
 22 23  1  0
 22 24  1  0
 24 25  1  0
 24 26  1  0
 19 27  1  0
 27 28  1  6
 27 29  1  0
 29 30  1  0
 30 31  1  0
 31 32  1  6
  7  5  1  0
 31 10  1  0
 31 13  1  0
 27 15  1  0
 24 18  1  0
  1 33  1  0
  1 34  1  0
  1 35  1  0
  2 36  1  6
  3 37  1  0
  3 38  1  0
  4 39  1  0
  4 40  1  0
  5 41  1  1
  8 42  1  0
  8 43  1  0
  8 44  1  0
  9 45  1  0
  9 46  1  0
  9 47  1  0
 10 48  1  1
 11 49  1  0
 11 50  1  0
 12 51  1  0
 12 52  1  0
 14 53  1  0
 14 54  1  0
 14 55  1  0
 15 56  1  6
 16 57  1  0
 16 58  1  0
 17 59  1  0
 19 60  1  1
 20 61  1  0
 20 62  1  0
 21 63  1  0
 21 64  1  0
 22 65  1  1
 23 66  1  0
 25 67  1  0
 25 68  1  0
 25 69  1  0
 26 70  1  0
 26 71  1  0
 26 72  1  0
 28 73  1  0
 28 74  1  0
 28 75  1  0
 29 76  1  0
 29 77  1  0
 30 78  1  0
 30 79  1  0
 32 80  1  0
 32 81  1  0
 32 82  1  0
M  END
>  <meeko>  (4) 
{"is_sidechain": [false], "intermolecular_energy": 2.731, "internal_energy": -0.839}

$$$$
EPH_relaxed_0001_pdb2pqr_Repair_163_r2_0001_out
     RDKit          3D

 82 86  0  0  0  0  0  0  0  0999 V2000
   -3.4260    9.3000    0.5340 C   0  0  0  0  0  0  0  0  0  0  0  0
   -2.5960    9.6840   -0.6940 C   0  0  2  0  0  0  0  0  0  0  0  0
   -1.9030    8.4640   -1.3330 C   0  0  0  0  0  0  0  0  0  0  0  0
   -2.8050    7.6700   -2.2810 C   0  0  0  0  0  0  0  0  0  0  0  0
   -4.2470    7.7620   -1.8820 C   0  0  2  0  0  0  0  0  0  0  0  0
   -4.7920    6.5590   -1.3230 O   0  0  0  0  0  0  0  0  0  0  0  0
   -5.3570    6.9910   -2.5710 C   0  0  0  0  0  0  0  0  0  0  0  0
   -5.0730    6.0730   -3.7180 C   0  0  0  0  0  0  0  0  0  0  0  0
   -6.7600    7.4990   -2.4540 C   0  0  0  0  0  0  0  0  0  0  0  0
   -1.5580   10.7320   -0.3120 C   0  0  1  0  0  0  0  0  0  0  0  0
   -0.4650   10.1720    0.6370 C   0  0  0  0  0  0  0  0  0  0  0  0
    0.8610   10.8830    0.2620 C   0  0  0  0  0  0  0  0  0  0  0  0
    0.4310   12.0540   -0.6520 C   0  0  1  0  0  0  0  0  0  0  0  0
   -0.0390   13.1750    0.3280 C   0  0  0  0  0  0  0  0  0  0  0  0
    1.5080   12.5790   -1.6550 C   0  0  2  0  0  0  0  0  0  0  0  0
    2.7720   13.1700   -1.0060 C   0  0  0  0  0  0  0  0  0  0  0  0
    2.7220   14.6360   -0.7290 C   0  0  0  0  0  0  0  0  0  0  0  0
    1.8260   15.4990   -1.2440 C   0  0  0  0  0  0  0  0  0  0  0  0
    0.7930   15.0370   -2.2800 C   0  0  1  0  0  0  0  0  0  0  0  0
    0.7450   16.0520   -3.4520 C   0  0  0  0  0  0  0  0  0  0  0  0
    0.4980   17.4810   -2.9780 C   0  0  0  0  0  0  0  0  0  0  0  0
    1.5780   17.9240   -1.9940 C   0  0  2  0  0  0  0  0  0  0  0  0
    2.8260   18.0130   -2.6890 O   0  0  0  0  0  0  0  0  0  0  0  0
    1.7250   16.9710   -0.7750 C   0  0  0  0  0  0  0  0  0  0  0  0
    0.4840   17.1050    0.1420 C   0  0  0  0  0  0  0  0  0  0  0  0
    2.9390   17.4520    0.0640 C   0  0  0  0  0  0  0  0  0  0  0  0
    0.9360   13.5350   -2.7800 C   0  0  1  0  0  0  0  0  0  0  0  0
    1.9340   13.4640   -3.9750 C   0  0  0  0  0  0  0  0  0  0  0  0
   -0.4540   13.0430   -3.3320 C   0  0  0  0  0  0  0  0  0  0  0  0
   -1.4280   12.4240   -2.3120 C   0  0  0  0  0  0  0  0  0  0  0  0
   -0.7280   11.3620   -1.4590 C   0  0  2  0  0  0  0  0  0  0  0  0
   -0.2630   10.2110   -2.4140 C   0  0  0  0  0  0  0  0  0  0  0  0
   -2.8699    9.5573    1.4475 H   0  0  0  0  0  0  0  0  0  0  0  0
   -4.3793    9.8485    0.5184 H   0  0  0  0  0  0  0  0  0  0  0  0
   -3.6251    8.2183    0.5184 H   0  0  0  0  0  0  0  0  0  0  0  0
   -3.2865   10.0996   -1.4427 H   0  0  0  0  0  0  0  0  0  0  0  0
   -1.0297    8.8184   -1.9002 H   0  0  0  0  0  0  0  0  0  0  0  0
   -1.6241    7.7866   -0.5124 H   0  0  0  0  0  0  0  0  0  0  0  0
   -2.6909    8.0694   -3.2995 H   0  0  0  0  0  0  0  0  0  0  0  0
   -2.5037    6.6130   -2.2357 H   0  0  0  0  0  0  0  0  0  0  0  0
   -4.1337    8.8272   -1.6320 H   0  0  0  0  0  0  0  0  0  0  0  0
   -4.7685    5.0886   -3.3331 H   0  0  0  0  0  0  0  0  0  0  0  0
   -5.9789    5.9623   -4.3321 H   0  0  0  0  0  0  0  0  0  0  0  0
   -4.2629    6.4932   -4.3321 H   0  0  0  0  0  0  0  0  0  0  0  0
   -7.0275    7.5958   -1.3914 H   0  0  0  0  0  0  0  0  0  0  0  0
   -6.8360    8.4817   -2.9423 H   0  0  0  0  0  0  0  0  0  0  0  0
   -7.4476    6.7928   -2.9423 H   0  0  0  0  0  0  0  0  0  0  0  0
   -2.2174   11.4900    0.1359 H   0  0  0  0  0  0  0  0  0  0  0  0
   -0.7265   10.3860    1.6838 H   0  0  0  0  0  0  0  0  0  0  0  0
   -0.3716    9.0811    0.5312 H   0  0  0  0  0  0  0  0  0  0  0  0
    1.3680   11.2594    1.1627 H   0  0  0  0  0  0  0  0  0  0  0  0
    1.5715   10.2057   -0.2344 H   0  0  0  0  0  0  0  0  0  0  0  0
    0.1023   12.8379    1.3655 H   0  0  0  0  0  0  0  0  0  0  0  0
    0.5531   14.0857    0.1545 H   0  0  0  0  0  0  0  0  0  0  0  0
   -1.1035   13.3911    0.1545 H   0  0  0  0  0  0  0  0  0  0  0  0
    1.8329   11.6549   -2.1555 H   0  0  0  0  0  0  0  0  0  0  0  0
    2.9388   12.6495   -0.0514 H   0  0  0  0  0  0  0  0  0  0  0  0
    3.5833   13.0260   -1.7347 H   0  0  0  0  0  0  0  0  0  0  0  0
    3.4812   15.0458   -0.0466 H   0  0  0  0  0  0  0  0  0  0  0  0
   -0.1751   15.0231   -1.7580 H   0  0  0  0  0  0  0  0  0  0  0  0
    1.7057   16.0189   -3.9868 H   0  0  0  0  0  0  0  0  0  0  0  0
   -0.0923   15.7676   -4.1062 H   0  0  0  0  0  0  0  0  0  0  0  0
    0.5048   18.1549   -3.8474 H   0  0  0  0  0  0  0  0  0  0  0  0
   -0.4768   17.5187   -2.4697 H   0  0  0  0  0  0  0  0  0  0  0  0
    1.2765   18.9024   -1.5917 H   0  0  0  0  0  0  0  0  0  0  0  0
    2.7050   18.6270   -3.4330 H   0  0  0  0  0  0  0  0  0  0  0  0
    0.8007   17.0708    1.1949 H   0  0  0  0  0  0  0  0  0  0  0  0
   -0.0186   18.0626   -0.0588 H   0  0  0  0  0  0  0  0  0  0  0  0
   -0.2114   16.2767   -0.0588 H   0  0  0  0  0  0  0  0  0  0  0  0
    2.7046   17.3591    1.1347 H   0  0  0  0  0  0  0  0  0  0  0  0
    3.8172   16.8339   -0.1741 H   0  0  0  0  0  0  0  0  0  0  0  0
    3.1556   18.5039   -0.1741 H   0  0  0  0  0  0  0  0  0  0  0  0
    2.9620   13.3909   -3.5904 H   0  0  0  0  0  0  0  0  0  0  0  0
    1.7085   12.5796   -4.5890 H   0  0  0  0  0  0  0  0  0  0  0  0
    1.8359   14.3714   -4.5890 H   0  0  0  0  0  0  0  0  0  0  0  0
   -0.9561   13.9090   -3.7880 H   0  0  0  0  0  0  0  0  0  0  0  0
   -0.2135   12.2281   -4.0306 H   0  0  0  0  0  0  0  0  0  0  0  0
   -1.8124   13.2176   -1.6543 H   0  0  0  0  0  0  0  0  0  0  0  0
   -2.2524   11.9451   -2.8607 H   0  0  0  0  0  0  0  0  0  0  0  0
    0.0827    9.3552   -1.8156 H   0  0  0  0  0  0  0  0  0  0  0  0
   -1.1053    9.8983   -3.0486 H   0  0  0  0  0  0  0  0  0  0  0  0
    0.5602   10.5711   -3.0486 H   0  0  0  0  0  0  0  0  0  0  0  0
  1  2  1  0
  2  3  1  0
  3  4  1  0
  4  5  1  0
  5  6  1  0
  6  7  1  0
  7  8  1  0
  7  9  1  0
  2 10  1  0
 10 11  1  0
 11 12  1  0
 12 13  1  0
 13 14  1  1
 13 15  1  0
 15 16  1  0
 16 17  1  0
 17 18  2  0
 18 19  1  0
 19 20  1  0
 20 21  1  0
 21 22  1  0
 22 23  1  0
 22 24  1  0
 24 25  1  0
 24 26  1  0
 19 27  1  0
 27 28  1  6
 27 29  1  0
 29 30  1  0
 30 31  1  0
 31 32  1  6
  7  5  1  0
 31 10  1  0
 31 13  1  0
 27 15  1  0
 24 18  1  0
  1 33  1  0
  1 34  1  0
  1 35  1  0
  2 36  1  6
  3 37  1  0
  3 38  1  0
  4 39  1  0
  4 40  1  0
  5 41  1  1
  8 42  1  0
  8 43  1  0
  8 44  1  0
  9 45  1  0
  9 46  1  0
  9 47  1  0
 10 48  1  1
 11 49  1  0
 11 50  1  0
 12 51  1  0
 12 52  1  0
 14 53  1  0
 14 54  1  0
 14 55  1  0
 15 56  1  6
 16 57  1  0
 16 58  1  0
 17 59  1  0
 19 60  1  1
 20 61  1  0
 20 62  1  0
 21 63  1  0
 21 64  1  0
 22 65  1  1
 23 66  1  0
 25 67  1  0
 25 68  1  0
 25 69  1  0
 26 70  1  0
 26 71  1  0
 26 72  1  0
 28 73  1  0
 28 74  1  0
 28 75  1  0
 29 76  1  0
 29 77  1  0
 30 78  1  0
 30 79  1  0
 32 80  1  0
 32 81  1  0
 32 82  1  0
M  END
>  <meeko>  (5) 
{"is_sidechain": [false], "intermolecular_energy": 2.731, "internal_energy": -0.839}

$$$$
EPH_relaxed_0001_pdb2pqr_Repair_163_r2_0001_out
     RDKit          3D

 82 86  0  0  0  0  0  0  0  0999 V2000
    3.8380   17.2390    0.7370 C   0  0  0  0  0  0  0  0  0  0  0  0
    3.4330   16.5830   -0.5860 C   0  0  2  0  0  0  0  0  0  0  0  0
    3.0980   17.6250   -1.6720 C   0  0  0  0  0  0  0  0  0  0  0  0
    2.4430   18.8960   -1.1240 C   0  0  0  0  0  0  0  0  0  0  0  0
    0.9610   18.8980   -1.3500 C   0  0  2  0  0  0  0  0  0  0  0  0
    0.3930   20.1920   -1.5890 O   0  0  0  0  0  0  0  0  0  0  0  0
   -0.0310   19.5250   -0.3890 C   0  0  0  0  0  0  0  0  0  0  0  0
    0.4200   20.1940    0.8720 C   0  0  0  0  0  0  0  0  0  0  0  0
   -1.4550   19.0630   -0.4270 C   0  0  0  0  0  0  0  0  0  0  0  0
    2.2410   15.6600   -0.3650 C   0  0  1  0  0  0  0  0  0  0  0  0
    0.9300   16.4360   -0.0700 C   0  0  0  0  0  0  0  0  0  0  0  0
   -0.2240   15.6290   -0.7180 C   0  0  0  0  0  0  0  0  0  0  0  0
    0.4070   14.2620   -1.0720 C   0  0  1  0  0  0  0  0  0  0  0  0
    0.3910   13.4540    0.2640 C   0  0  0  0  0  0  0  0  0  0  0  0
   -0.2720   13.4680   -2.2350 C   0  0  2  0  0  0  0  0  0  0  0  0
   -1.7310   13.0530   -1.9770 C   0  0  0  0  0  0  0  0  0  0  0  0
   -1.9100   11.7170   -1.3360 C   0  0  0  0  0  0  0  0  0  0  0  0
   -0.9660   10.7620   -1.2390 C   0  0  0  0  0  0  0  0  0  0  0  0
    0.4090   10.9450   -1.8960 C   0  0  1  0  0  0  0  0  0  0  0  0
    0.7920    9.6530   -2.6630 C   0  0  0  0  0  0  0  0  0  0  0  0
    0.7270    8.4080   -1.7820 C   0  0  0  0  0  0  0  0  0  0  0  0
   -0.6710    8.2290   -1.1950 C   0  0  2  0  0  0  0  0  0  0  0  0
   -1.5830    7.9350   -2.2570 O   0  0  0  0  0  0  0  0  0  0  0  0
   -1.1690    9.4720   -0.4070 C   0  0  0  0  0  0  0  0  0  0  0  0
   -0.3640    9.6120    0.9090 C   0  0  0  0  0  0  0  0  0  0  0  0
   -2.6420    9.2150    0.0110 C   0  0  0  0  0  0  0  0  0  0  0  0
    0.5860   12.2550   -2.7790 C   0  0  1  0  0  0  0  0  0  0  0  0
    0.1010   11.9840   -4.2360 C   0  0  0  0  0  0  0  0  0  0  0  0
    2.1190   12.6030   -2.8790 C   0  0  0  0  0  0  0  0  0  0  0  0
    2.7040   13.4900   -1.7630 C   0  0  0  0  0  0  0  0  0  0  0  0
    1.8340   14.7300   -1.5360 C   0  0  2  0  0  0  0  0  0  0  0  0
    1.8500   15.5740   -2.8560 C   0  0  0  0  0  0  0  0  0  0  0  0
    3.4643   16.6336    1.5760 H   0  0  0  0  0  0  0  0  0  0  0  0
    4.9346   17.3055    0.7927 H   0  0  0  0  0  0  0  0  0  0  0  0
    3.4061   18.2491    0.7927 H   0  0  0  0  0  0  0  0  0  0  0  0
    4.2942   15.9991   -0.9430 H   0  0  0  0  0  0  0  0  0  0  0  0
    4.0308   17.9072   -2.1821 H   0  0  0  0  0  0  0  0  0  0  0  0
    2.3721   17.1573   -2.3534 H   0  0  0  0  0  0  0  0  0  0  0  0
    2.6389   18.9605   -0.0435 H   0  0  0  0  0  0  0  0  0  0  0  0
    2.8719   19.7588   -1.6547 H   0  0  0  0  0  0  0  0  0  0  0  0
    1.0077   17.9032   -1.8172 H   0  0  0  0  0  0  0  0  0  0  0  0
    0.0421   19.6335    1.7398 H   0  0  0  0  0  0  0  0  0  0  0  0
    1.5193   20.2180    0.9014 H   0  0  0  0  0  0  0  0  0  0  0  0
    0.0299   21.2221    0.9014 H   0  0  0  0  0  0  0  0  0  0  0  0
   -1.8287   18.9418    0.6005 H   0  0  0  0  0  0  0  0  0  0  0  0
   -2.0683   19.8082   -0.9547 H   0  0  0  0  0  0  0  0  0  0  0  0
   -1.5140   18.0996   -0.9547 H   0  0  0  0  0  0  0  0  0  0  0  0
    2.6253   15.0623    0.4747 H   0  0  0  0  0  0  0  0  0  0  0  0
    0.7732   16.5155    1.0159 H   0  0  0  0  0  0  0  0  0  0  0  0
    0.9753   17.4566   -0.4779 H   0  0  0  0  0  0  0  0  0  0  0  0
   -1.0547   15.5012   -0.0084 H   0  0  0  0  0  0  0  0  0  0  0  0
   -0.6437   16.1356   -1.5996 H   0  0  0  0  0  0  0  0  0  0  0  0
    0.4048   14.1515    1.1145 H   0  0  0  0  0  0  0  0  0  0  0  0
   -0.5195   12.8384    0.3093 H   0  0  0  0  0  0  0  0  0  0  0  0
    1.2764   12.8029    0.3093 H   0  0  0  0  0  0  0  0  0  0  0  0
   -0.3122   14.2169   -3.0397 H   0  0  0  0  0  0  0  0  0  0  0  0
   -2.1884   13.8086   -1.3214 H   0  0  0  0  0  0  0  0  0  0  0  0
   -2.2067   12.9821   -2.9663 H   0  0  0  0  0  0  0  0  0  0  0  0
   -2.8976   11.4936   -0.9061 H   0  0  0  0  0  0  0  0  0  0  0  0
    1.1196   11.1148   -1.0736 H   0  0  0  0  0  0  0  0  0  0  0  0
    0.0976    9.5247   -3.5064 H   0  0  0  0  0  0  0  0  0  0  0  0
    1.8308    9.7646   -3.0071 H   0  0  0  0  0  0  0  0  0  0  0  0
    0.9794    7.5248   -2.3872 H   0  0  0  0  0  0  0  0  0  0  0  0
    1.4433    8.5244   -0.9553 H   0  0  0  0  0  0  0  0  0  0  0  0
   -0.6216    7.4003   -0.4734 H   0  0  0  0  0  0  0  0  0  0  0  0
   -1.0790    7.9440   -3.0890 H   0  0  0  0  0  0  0  0  0  0  0  0
   -1.0415    9.4942    1.7676 H   0  0  0  0  0  0  0  0  0  0  0  0
    0.4145    8.8358    0.9470 H   0  0  0  0  0  0  0  0  0  0  0  0
    0.1067   10.6055    0.9470 H   0  0  0  0  0  0  0  0  0  0  0  0
   -2.7148    9.2023    1.1085 H   0  0  0  0  0  0  0  0  0  0  0  0
   -3.2818   10.0151   -0.3897 H   0  0  0  0  0  0  0  0  0  0  0  0
   -2.9730    8.2455   -0.3897 H   0  0  0  0  0  0  0  0  0  0  0  0
   -0.8590   11.4476   -4.2091 H   0  0  0  0  0  0  0  0  0  0  0  0
   -0.0282   12.9407   -4.7634 H   0  0  0  0  0  0  0  0  0  0  0  0
    0.8480   11.3726   -4.7634 H   0  0  0  0  0  0  0  0  0  0  0  0
    2.6764   11.6547   -2.8770 H   0  0  0  0  0  0  0  0  0  0  0  0
    2.2204   13.1952   -3.8004 H   0  0  0  0  0  0  0  0  0  0  0  0
    2.7531   12.9091   -0.8302 H   0  0  0  0  0  0  0  0  0  0  0  0
    3.7095   13.8175   -2.0659 H   0  0  0  0  0  0  0  0  0  0  0  0
    1.8703   16.6451   -2.6062 H   0  0  0  0  0  0  0  0  0  0  0  0
    2.7434   15.3177   -3.4443 H   0  0  0  0  0  0  0  0  0  0  0  0
    0.9475   15.3518   -3.4443 H   0  0  0  0  0  0  0  0  0  0  0  0
  1  2  1  0
  2  3  1  0
  3  4  1  0
  4  5  1  0
  5  6  1  0
  6  7  1  0
  7  8  1  0
  7  9  1  0
  2 10  1  0
 10 11  1  0
 11 12  1  0
 12 13  1  0
 13 14  1  1
 13 15  1  0
 15 16  1  0
 16 17  1  0
 17 18  2  0
 18 19  1  0
 19 20  1  0
 20 21  1  0
 21 22  1  0
 22 23  1  0
 22 24  1  0
 24 25  1  0
 24 26  1  0
 19 27  1  0
 27 28  1  6
 27 29  1  0
 29 30  1  0
 30 31  1  0
 31 32  1  6
  7  5  1  0
 31 10  1  0
 31 13  1  0
 27 15  1  0
 24 18  1  0
  1 33  1  0
  1 34  1  0
  1 35  1  0
  2 36  1  6
  3 37  1  0
  3 38  1  0
  4 39  1  0
  4 40  1  0
  5 41  1  6
  8 42  1  0
  8 43  1  0
  8 44  1  0
  9 45  1  0
  9 46  1  0
  9 47  1  0
 10 48  1  1
 11 49  1  0
 11 50  1  0
 12 51  1  0
 12 52  1  0
 14 53  1  0
 14 54  1  0
 14 55  1  0
 15 56  1  6
 16 57  1  0
 16 58  1  0
 17 59  1  0
 19 60  1  1
 20 61  1  0
 20 62  1  0
 21 63  1  0
 21 64  1  0
 22 65  1  1
 23 66  1  0
 25 67  1  0
 25 68  1  0
 25 69  1  0
 26 70  1  0
 26 71  1  0
 26 72  1  0
 28 73  1  0
 28 74  1  0
 28 75  1  0
 29 76  1  0
 29 77  1  0
 30 78  1  0
 30 79  1  0
 32 80  1  0
 32 81  1  0
 32 82  1  0
M  END
>  <meeko>  (6) 
{"is_sidechain": [false], "intermolecular_energy": 2.731, "internal_energy": -0.839}

$$$$
EPH_relaxed_0001_pdb2pqr_Repair_163_r2_0001_out
     RDKit          3D

 82 86  0  0  0  0  0  0  0  0999 V2000
    0.4450    8.9130   -2.6540 C   0  0  0  0  0  0  0  0  0  0  0  0
    1.2080   10.0900   -3.2680 C   0  0  2  0  0  0  0  0  0  0  0  0
    2.6970   10.0880   -2.8680 C   0  0  0  0  0  0  0  0  0  0  0  0
    3.6200   10.7000   -3.9260 C   0  0  0  0  0  0  0  0  0  0  0  0
    5.0110   10.8930   -3.4030 C   0  0  2  0  0  0  0  0  0  0  0  0
    5.6570   12.0930   -3.8480 O   0  0  0  0  0  0  0  0  0  0  0  0
    6.2470   10.8570   -4.2830 C   0  0  0  0  0  0  0  0  0  0  0  0
    6.1500   10.6210   -5.7570 C   0  0  0  0  0  0  0  0  0  0  0  0
    7.5700   10.5640   -3.6460 C   0  0  0  0  0  0  0  0  0  0  0  0
    0.5590   11.4040   -2.8540 C   0  0  1  0  0  0  0  0  0  0  0  0
   -0.8370   11.2030   -2.2040 C   0  0  0  0  0  0  0  0  0  0  0  0
   -0.9810   12.2900   -1.1090 C   0  0  0  0  0  0  0  0  0  0  0  0
    0.1770   13.2770   -1.3840 C   0  0  1  0  0  0  0  0  0  0  0  0
   -0.3420   14.1920   -2.5370 C   0  0  0  0  0  0  0  0  0  0  0  0
    0.6750   14.1160   -0.1610 C   0  0  2  0  0  0  0  0  0  0  0  0
   -0.3730   15.0630    0.4500 C   0  0  0  0  0  0  0  0  0  0  0  0
   -0.4000   16.4400   -0.1250 C   0  0  0  0  0  0  0  0  0  0  0  0
    0.5630   16.9880   -0.8900 C   0  0  0  0  0  0  0  0  0  0  0  0
    1.8720   16.2370   -1.1660 C   0  0  1  0  0  0  0  0  0  0  0  0
    3.0730   17.1960   -0.9560 C   0  0  0  0  0  0  0  0  0  0  0  0
    2.9500   18.4760   -1.7780 C   0  0  0  0  0  0  0  0  0  0  0  0
    1.6650   19.2240   -1.4330 C   0  0  2  0  0  0  0  0  0  0  0  0
    1.7550   19.6970   -0.0860 O   0  0  0  0  0  0  0  0  0  0  0  0
    0.3870   18.3540   -1.5970 C   0  0  0  0  0  0  0  0  0  0  0  0
    0.1250   18.0930   -3.1010 C   0  0  0  0  0  0  0  0  0  0  0  0
   -0.8220   19.1810   -1.0830 C   0  0  0  0  0  0  0  0  0  0  0  0
    2.0530   14.8550   -0.4010 C   0  0  1  0  0  0  0  0  0  0  0  0
    2.6750   15.1040    1.0070 C   0  0  0  0  0  0  0  0  0  0  0  0
    3.0820   13.9620   -1.1900 C   0  0  0  0  0  0  0  0  0  0  0  0
    2.5120   13.0670   -2.3060 C   0  0  0  0  0  0  0  0  0  0  0  0
    1.3050   12.2670   -1.8050 C   0  0  2  0  0  0  0  0  0  0  0  0
    1.8000   11.3210   -0.6590 C   0  0  0  0  0  0  0  0  0  0  0  0
    0.4885    8.9801   -1.5569 H   0  0  0  0  0  0  0  0  0  0  0  0
   -0.6045    8.9452   -2.9820 H   0  0  0  0  0  0  0  0  0  0  0  0
    0.9028    7.9681   -2.9820 H   0  0  0  0  0  0  0  0  0  0  0  0
    1.1596    9.9811   -4.3615 H   0  0  0  0  0  0  0  0  0  0  0  0
    2.8071   10.6630   -1.9367 H   0  0  0  0  0  0  0  0  0  0  0  0
    2.9966    9.0362   -2.7500 H   0  0  0  0  0  0  0  0  0  0  0  0
    3.6566   10.0301   -4.7977 H   0  0  0  0  0  0  0  0  0  0  0  0
    3.2179   11.6857   -4.2031 H   0  0  0  0  0  0  0  0  0  0  0  0
    4.7564   10.3756   -2.4663 H   0  0  0  0  0  0  0  0  0  0  0  0
    5.7377    9.6180   -5.9414 H   0  0  0  0  0  0  0  0  0  0  0  0
    5.4898   11.3772   -6.2067 H   0  0  0  0  0  0  0  0  0  0  0  0
    7.1512   10.6943   -6.2067 H   0  0  0  0  0  0  0  0  0  0  0  0
    7.4632   10.5877   -2.5515 H   0  0  0  0  0  0  0  0  0  0  0  0
    7.9152    9.5677   -3.9593 H   0  0  0  0  0  0  0  0  0  0  0  0
    8.3036   11.3214   -3.9593 H   0  0  0  0  0  0  0  0  0  0  0  0
    0.5488   11.9181   -3.8264 H   0  0  0  0  0  0  0  0  0  0  0  0
   -1.6273   11.3200   -2.9601 H   0  0  0  0  0  0  0  0  0  0  0  0
   -0.9312   10.1947   -1.7744 H   0  0  0  0  0  0  0  0  0  0  0  0
   -1.9528   12.7987   -1.1923 H   0  0  0  0  0  0  0  0  0  0  0  0
   -0.9371   11.8680   -0.0941 H   0  0  0  0  0  0  0  0  0  0  0  0
   -0.8419   15.0734   -2.1089 H   0  0  0  0  0  0  0  0  0  0  0  0
    0.5063   14.5169   -3.1574 H   0  0  0  0  0  0  0  0  0  0  0  0
   -1.0562   13.6306   -3.1574 H   0  0  0  0  0  0  0  0  0  0  0  0
    0.8567   13.3420    0.5992 H   0  0  0  0  0  0  0  0  0  0  0  0
   -1.3656   14.6130    0.3011 H   0  0  0  0  0  0  0  0  0  0  0  0
   -0.0968   15.1805    1.5083 H   0  0  0  0  0  0  0  0  0  0  0  0
   -1.2817   17.0599    0.0949 H   0  0  0  0  0  0  0  0  0  0  0  0
    1.8259   15.9217   -2.2188 H   0  0  0  0  0  0  0  0  0  0  0  0
    3.1276   17.4648    0.1092 H   0  0  0  0  0  0  0  0  0  0  0  0
    3.9812   16.6717   -1.2881 H   0  0  0  0  0  0  0  0  0  0  0  0
    3.8125   19.1248   -1.5653 H   0  0  0  0  0  0  0  0  0  0  0  0
    2.9246   18.2075   -2.8444 H   0  0  0  0  0  0  0  0  0  0  0  0
    1.5688   20.0595   -2.1420 H   0  0  0  0  0  0  0  0  0  0  0  0
    2.1530   18.9900    0.4490 H   0  0  0  0  0  0  0  0  0  0  0  0
   -0.6505   17.3205   -3.2094 H   0  0  0  0  0  0  0  0  0  0  0  0
   -0.2142   19.0229   -3.5809 H   0  0  0  0  0  0  0  0  0  0  0  0
    1.0536   17.7503   -3.5809 H   0  0  0  0  0  0  0  0  0  0  0  0
   -0.8241   19.1825    0.0170 H   0  0  0  0  0  0  0  0  0  0  0  0
   -0.7422   20.2146   -1.4509 H   0  0  0  0  0  0  0  0  0  0  0  0
   -1.7564   18.7320   -1.4509 H   0  0  0  0  0  0  0  0  0  0  0  0
    1.9519   14.8145    1.7837 H   0  0  0  0  0  0  0  0  0  0  0  0
    3.5898   14.5028    1.1153 H   0  0  0  0  0  0  0  0  0  0  0  0
    2.9222   16.1704    1.1153 H   0  0  0  0  0  0  0  0  0  0  0  0
    3.8229   14.6337   -1.6480 H   0  0  0  0  0  0  0  0  0  0  0  0
    3.4907   13.2655   -0.4431 H   0  0  0  0  0  0  0  0  0  0  0  0
    2.1993   13.6994   -3.1499 H   0  0  0  0  0  0  0  0  0  0  0  0
    3.2937   12.3609   -2.6228 H   0  0  0  0  0  0  0  0  0  0  0  0
    1.5641   11.7719    0.3162 H   0  0  0  0  0  0  0  0  0  0  0  0
    1.2960   10.3470   -0.7442 H   0  0  0  0  0  0  0  0  0  0  0  0
    2.8876   11.1798   -0.7442 H   0  0  0  0  0  0  0  0  0  0  0  0
  1  2  1  0
  2  3  1  0
  3  4  1  0
  4  5  1  0
  5  6  1  0
  6  7  1  0
  7  8  1  0
  7  9  1  0
  2 10  1  0
 10 11  1  0
 11 12  1  0
 12 13  1  0
 13 14  1  6
 13 15  1  0
 15 16  1  0
 16 17  1  0
 17 18  2  0
 18 19  1  0
 19 20  1  0
 20 21  1  0
 21 22  1  0
 22 23  1  0
 22 24  1  0
 24 25  1  0
 24 26  1  0
 19 27  1  0
 27 28  1  1
 27 29  1  0
 29 30  1  0
 30 31  1  0
 31 32  1  1
  7  5  1  0
 31 10  1  0
 31 13  1  0
 27 15  1  0
 24 18  1  0
  1 33  1  0
  1 34  1  0
  1 35  1  0
  2 36  1  6
  3 37  1  0
  3 38  1  0
  4 39  1  0
  4 40  1  0
  5 41  1  1
  8 42  1  0
  8 43  1  0
  8 44  1  0
  9 45  1  0
  9 46  1  0
  9 47  1  0
 10 48  1  6
 11 49  1  0
 11 50  1  0
 12 51  1  0
 12 52  1  0
 14 53  1  0
 14 54  1  0
 14 55  1  0
 15 56  1  1
 16 57  1  0
 16 58  1  0
 17 59  1  0
 19 60  1  6
 20 61  1  0
 20 62  1  0
 21 63  1  0
 21 64  1  0
 22 65  1  6
 23 66  1  0
 25 67  1  0
 25 68  1  0
 25 69  1  0
 26 70  1  0
 26 71  1  0
 26 72  1  0
 28 73  1  0
 28 74  1  0
 28 75  1  0
 29 76  1  0
 29 77  1  0
 30 78  1  0
 30 79  1  0
 32 80  1  0
 32 81  1  0
 32 82  1  0
M  END
>  <meeko>  (7) 
{"is_sidechain": [false], "intermolecular_energy": 2.731, "internal_energy": -0.839}

$$$$
EPH_relaxed_0001_pdb2pqr_Repair_163_r2_0001_out
     RDKit          3D

 82 86  0  0  0  0  0  0  0  0999 V2000
    2.3870   19.4890   -0.6210 C   0  0  0  0  0  0  0  0  0  0  0  0
    2.4330   18.5760   -1.8500 C   0  0  2  0  0  0  0  0  0  0  0  0
    1.1190   18.6220   -2.6560 C   0  0  0  0  0  0  0  0  0  0  0  0
    0.1700   19.7420   -2.2230 C   0  0  0  0  0  0  0  0  0  0  0  0
   -1.0890   19.1990   -1.6170 C   0  0  2  0  0  0  0  0  0  0  0  0
   -2.0450   20.1940   -1.2300 O   0  0  0  0  0  0  0  0  0  0  0  0
   -1.4780   19.4120   -0.1660 C   0  0  0  0  0  0  0  0  0  0  0  0
   -0.6100   20.1940    0.7690 C   0  0  0  0  0  0  0  0  0  0  0  0
   -2.4460   18.4580    0.4630 C   0  0  0  0  0  0  0  0  0  0  0  0
    2.7320   17.1440   -1.4230 C   0  0  1  0  0  0  0  0  0  0  0  0
    3.4890   17.0700   -0.0700 C   0  0  0  0  0  0  0  0  0  0  0  0
    2.9810   15.8000    0.6580 C   0  0  0  0  0  0  0  0  0  0  0  0
    2.2060   15.0130   -0.4250 C   0  0  1  0  0  0  0  0  0  0  0  0
    3.3050   14.2600   -1.2370 C   0  0  0  0  0  0  0  0  0  0  0  0
    1.0980   14.0370    0.0900 C   0  0  2  0  0  0  0  0  0  0  0  0
    1.6040   12.8850    0.9760 C   0  0  0  0  0  0  0  0  0  0  0  0
    1.9720   11.6350    0.2480 C   0  0  0  0  0  0  0  0  0  0  0  0
    1.6370   11.3420   -1.0230 C   0  0  0  0  0  0  0  0  0  0  0  0
    0.7250   12.2730   -1.8310 C   0  0  1  0  0  0  0  0  0  0  0  0
   -0.3670   11.4350   -2.5480 C   0  0  0  0  0  0  0  0  0  0  0  0
    0.2210   10.3120   -3.3970 C   0  0  0  0  0  0  0  0  0  0  0  0
    1.0740    9.3750   -2.5460 C   0  0  2  0  0  0  0  0  0  0  0  0
    0.2230    8.6870   -1.6240 O   0  0  0  0  0  0  0  0  0  0  0  0
    2.2020   10.1080   -1.7690 C   0  0  0  0  0  0  0  0  0  0  0  0
    3.2860   10.5960   -2.7620 C   0  0  0  0  0  0  0  0  0  0  0  0
    2.8960    9.0720   -0.8430 C   0  0  0  0  0  0  0  0  0  0  0  0
    0.1210   13.5120   -1.0390 C   0  0  1  0  0  0  0  0  0  0  0  0
   -1.2010   13.0950   -0.3260 C   0  0  0  0  0  0  0  0  0  0  0  0
   -0.2660   14.6400   -2.0670 C   0  0  0  0  0  0  0  0  0  0  0  0
    0.8390   15.6450   -2.4450 C   0  0  0  0  0  0  0  0  0  0  0  0
    1.5230   16.2030   -1.1930 C   0  0  2  0  0  0  0  0  0  0  0  0
    0.4460   16.9850   -0.3670 C   0  0  0  0  0  0  0  0  0  0  0  0
    2.4179   18.8765    0.2922 H   0  0  0  0  0  0  0  0  0  0  0  0
    3.2521   20.1683   -0.6363 H   0  0  0  0  0  0  0  0  0  0  0  0
    1.4580   20.0779   -0.6363 H   0  0  0  0  0  0  0  0  0  0  0  0
    3.2362   18.9434   -2.5057 H   0  0  0  0  0  0  0  0  0  0  0  0
    1.3677   18.7687   -3.7174 H   0  0  0  0  0  0  0  0  0  0  0  0
    0.5973   17.6708   -2.4745 H   0  0  0  0  0  0  0  0  0  0  0  0
    0.6794   20.3736   -1.4803 H   0  0  0  0  0  0  0  0  0  0  0  0
   -0.1026   20.3244   -3.1154 H   0  0  0  0  0  0  0  0  0  0  0  0
   -1.0258   18.2938   -2.2388 H   0  0  0  0  0  0  0  0  0  0  0  0
   -0.8788   19.9519    1.8078 H   0  0  0  0  0  0  0  0  0  0  0  0
    0.4446   19.9352    0.5933 H   0  0  0  0  0  0  0  0  0  0  0  0
   -0.7578   21.2698    0.5933 H   0  0  0  0  0  0  0  0  0  0  0  0
   -2.3728   18.5302    1.5582 H   0  0  0  0  0  0  0  0  0  0  0  0
   -3.4686   18.7112    0.1464 H   0  0  0  0  0  0  0  0  0  0  0  0
   -2.2077   17.4319    0.1464 H   0  0  0  0  0  0  0  0  0  0  0  0
    3.3094   16.8079   -2.2969 H   0  0  0  0  0  0  0  0  0  0  0  0
    4.5725   16.9980   -0.2457 H   0  0  0  0  0  0  0  0  0  0  0  0
    3.3067   17.9710    0.5342 H   0  0  0  0  0  0  0  0  0  0  0  0
    3.8254   15.2070    1.0393 H   0  0  0  0  0  0  0  0  0  0  0  0
    2.3527   16.0412    1.5281 H   0  0  0  0  0  0  0  0  0  0  0  0
    4.0085   13.7780   -0.5423 H   0  0  0  0  0  0  0  0  0  0  0  0
    2.8330   13.4947   -1.8706 H   0  0  0  0  0  0  0  0  0  0  0  0
    3.8483   14.9765   -1.8706 H   0  0  0  0  0  0  0  0  0  0  0  0
    0.5028   14.6835    0.7517 H   0  0  0  0  0  0  0  0  0  0  0  0
    2.4944   13.2380    1.5168 H   0  0  0  0  0  0  0  0  0  0  0  0
    0.7653   12.6173    1.6355 H   0  0  0  0  0  0  0  0  0  0  0  0
    2.5673   10.8900    0.7962 H   0  0  0  0  0  0  0  0  0  0  0  0
    1.3717   12.7595   -2.5761 H   0  0  0  0  0  0  0  0  0  0  0  0
   -1.0283   10.9933   -1.7880 H   0  0  0  0  0  0  0  0  0  0  0  0
   -0.9173   12.1092   -3.2208 H   0  0  0  0  0  0  0  0  0  0  0  0
   -0.5992    9.7380   -3.8528 H   0  0  0  0  0  0  0  0  0  0  0  0
    0.8579   10.7569   -4.1757 H   0  0  0  0  0  0  0  0  0  0  0  0
    1.5715    8.6709   -3.2292 H   0  0  0  0  0  0  0  0  0  0  0  0
    0.7890    8.1470   -1.0480 H   0  0  0  0  0  0  0  0  0  0  0  0
    4.1489   10.9844   -2.2011 H   0  0  0  0  0  0  0  0  0  0  0  0
    3.6082    9.7561   -3.3950 H   0  0  0  0  0  0  0  0  0  0  0  0
    2.8708   11.3940   -3.3950 H   0  0  0  0  0  0  0  0  0  0  0  0
    2.7157    9.3411    0.2082 H   0  0  0  0  0  0  0  0  0  0  0  0
    2.4857    8.0707   -1.0407 H   0  0  0  0  0  0  0  0  0  0  0  0
    3.9781    9.0704   -1.0407 H   0  0  0  0  0  0  0  0  0  0  0  0
   -1.0596   13.1396    0.7640 H   0  0  0  0  0  0  0  0  0  0  0  0
   -2.0083   13.7821   -0.6194 H   0  0  0  0  0  0  0  0  0  0  0  0
   -1.4680   12.0690   -0.6194 H   0  0  0  0  0  0  0  0  0  0  0  0
   -0.5980   14.1469   -2.9925 H   0  0  0  0  0  0  0  0  0  0  0  0
   -1.0378   15.2382   -1.5606 H   0  0  0  0  0  0  0  0  0  0  0  0
    1.5892   15.1374   -3.0691 H   0  0  0  0  0  0  0  0  0  0  0  0
    0.3811   16.4794   -2.9964 H   0  0  0  0  0  0  0  0  0  0  0  0
    0.6364   16.8467    0.7075 H   0  0  0  0  0  0  0  0  0  0  0  0
    0.5003   18.0555   -0.6142 H   0  0  0  0  0  0  0  0  0  0  0  0
   -0.5551   16.6019   -0.6142 H   0  0  0  0  0  0  0  0  0  0  0  0
  1  2  1  0
  2  3  1  0
  3  4  1  0
  4  5  1  0
  5  6  1  0
  6  7  1  0
  7  8  1  0
  7  9  1  0
  2 10  1  0
 10 11  1  0
 11 12  1  0
 12 13  1  0
 13 14  1  6
 13 15  1  0
 15 16  1  0
 16 17  1  0
 17 18  2  0
 18 19  1  0
 19 20  1  0
 20 21  1  0
 21 22  1  0
 22 23  1  0
 22 24  1  0
 24 25  1  0
 24 26  1  0
 19 27  1  0
 27 28  1  1
 27 29  1  0
 29 30  1  0
 30 31  1  0
 31 32  1  1
  7  5  1  0
 31 10  1  0
 31 13  1  0
 27 15  1  0
 24 18  1  0
  1 33  1  0
  1 34  1  0
  1 35  1  0
  2 36  1  6
  3 37  1  0
  3 38  1  0
  4 39  1  0
  4 40  1  0
  5 41  1  6
  8 42  1  0
  8 43  1  0
  8 44  1  0
  9 45  1  0
  9 46  1  0
  9 47  1  0
 10 48  1  6
 11 49  1  0
 11 50  1  0
 12 51  1  0
 12 52  1  0
 14 53  1  0
 14 54  1  0
 14 55  1  0
 15 56  1  1
 16 57  1  0
 16 58  1  0
 17 59  1  0
 19 60  1  6
 20 61  1  0
 20 62  1  0
 21 63  1  0
 21 64  1  0
 22 65  1  6
 23 66  1  0
 25 67  1  0
 25 68  1  0
 25 69  1  0
 26 70  1  0
 26 71  1  0
 26 72  1  0
 28 73  1  0
 28 74  1  0
 28 75  1  0
 29 76  1  0
 29 77  1  0
 30 78  1  0
 30 79  1  0
 32 80  1  0
 32 81  1  0
 32 82  1  0
M  END
>  <meeko>  (8) 
{"is_sidechain": [false], "intermolecular_energy": 2.731, "internal_energy": -0.839}

$$$$
EPH_relaxed_0001_pdb2pqr_Repair_163_r2_0001_out
     RDKit          3D

 82 86  0  0  0  0  0  0  0  0999 V2000
   -3.7630    7.2100   -3.4200 C   0  0  0  0  0  0  0  0  0  0  0  0
   -3.7780    7.2800   -1.8900 C   0  0  2  0  0  0  0  0  0  0  0  0
   -5.1900    7.0590   -1.3120 C   0  0  0  0  0  0  0  0  0  0  0  0
   -6.3100    7.2320   -2.3420 C   0  0  0  0  0  0  0  0  0  0  0  0
   -7.6370    7.4630   -1.6840 C   0  0  2  0  0  0  0  0  0  0  0  0
   -8.2440    6.2880   -1.1310 O   0  0  0  0  0  0  0  0  0  0  0  0
   -8.9440    6.9100   -2.2200 C   0  0  0  0  0  0  0  0  0  0  0  0
   -8.9890    6.0830   -3.4670 C   0  0  0  0  0  0  0  0  0  0  0  0
  -10.2230    7.5740   -1.8140 C   0  0  0  0  0  0  0  0  0  0  0  0
   -3.2300    8.6250   -1.4260 C   0  0  1  0  0  0  0  0  0  0  0  0
   -3.8580    9.0950   -0.0870 C   0  0  0  0  0  0  0  0  0  0  0  0
   -2.7450    9.8450    0.6890 C   0  0  0  0  0  0  0  0  0  0  0  0
   -1.6260   10.0710   -0.3540 C   0  0  1  0  0  0  0  0  0  0  0  0
   -2.0800   11.3250   -1.1650 C   0  0  0  0  0  0  0  0  0  0  0  0
   -0.1780   10.2430    0.2110 C   0  0  2  0  0  0  0  0  0  0  0  0
    0.0260   11.4660    1.1210 C   0  0  0  0  0  0  0  0  0  0  0  0
    0.4520   12.7160    0.4240 C   0  0  0  0  0  0  0  0  0  0  0  0
    0.9370   12.7850   -0.8290 C   0  0  0  0  0  0  0  0  0  0  0  0
    1.1900   11.5130   -1.6480 C   0  0  1  0  0  0  0  0  0  0  0  0
    2.5860   11.5960   -2.3180 C   0  0  0  0  0  0  0  0  0  0  0  0
    2.7640   12.8670   -3.1440 C   0  0  0  0  0  0  0  0  0  0  0  0
    2.5620   14.1100   -2.2820 C   0  0  2  0  0  0  0  0  0  0  0  0
    3.6220   14.1840   -1.3230 O   0  0  0  0  0  0  0  0  0  0  0  0
    1.1920   14.1330   -1.5490 C   0  0  0  0  0  0  0  0  0  0  0  0
    0.0560   14.3570   -2.5770 C   0  0  0  0  0  0  0  0  0  0  0  0
    1.1740   15.3660   -0.6070 C   0  0  0  0  0  0  0  0  0  0  0  0
    0.9610   10.1390   -0.8820 C   0  0  1  0  0  0  0  0  0  0  0  0
    2.2630    9.7260   -0.1310 C   0  0  0  0  0  0  0  0  0  0  0  0
    0.6780    9.0040   -1.9360 C   0  0  0  0  0  0  0  0  0  0  0  0
   -0.7890    8.8050   -2.3650 C   0  0  0  0  0  0  0  0  0  0  0  0
   -1.7100    8.7150   -1.1450 C   0  0  2  0  0  0  0  0  0  0  0  0
   -1.2910    7.4490   -0.3210 C   0  0  0  0  0  0  0  0  0  0  0  0
   -3.5423    6.1803   -3.7378 H   0  0  0  0  0  0  0  0  0  0  0  0
   -4.7461    7.5115   -3.8105 H   0  0  0  0  0  0  0  0  0  0  0  0
   -2.9897    7.8879   -3.8105 H   0  0  0  0  0  0  0  0  0  0  0  0
   -3.1375    6.4679   -1.5155 H   0  0  0  0  0  0  0  0  0  0  0  0
   -5.2441    6.0372   -0.9082 H   0  0  0  0  0  0  0  0  0  0  0  0
   -5.3441    7.8247   -0.5374 H   0  0  0  0  0  0  0  0  0  0  0  0
   -6.0749    8.0945   -2.9829 H   0  0  0  0  0  0  0  0  0  0  0  0
   -6.3771    6.3076   -2.9344 H   0  0  0  0  0  0  0  0  0  0  0  0
   -7.3347    8.4750   -1.3766 H   0  0  0  0  0  0  0  0  0  0  0  0
   -9.0470    5.0178   -3.1987 H   0  0  0  0  0  0  0  0  0  0  0  0
   -9.8734    6.3606   -4.0593 H   0  0  0  0  0  0  0  0  0  0  0  0
   -8.0797    6.2630   -4.0593 H   0  0  0  0  0  0  0  0  0  0  0  0
  -10.2866    7.6070   -0.7163 H   0  0  0  0  0  0  0  0  0  0  0  0
  -10.2472    8.5985   -2.2137 H   0  0  0  0  0  0  0  0  0  0  0  0
  -11.0749    7.0043   -2.2137 H   0  0  0  0  0  0  0  0  0  0  0  0
   -3.4871    9.2408   -2.3004 H   0  0  0  0  0  0  0  0  0  0  0  0
   -4.7047    9.7697   -0.2817 H   0  0  0  0  0  0  0  0  0  0  0  0
   -4.2375    8.2408    0.4930 H   0  0  0  0  0  0  0  0  0  0  0  0
   -3.1188   10.8061    1.0718 H   0  0  0  0  0  0  0  0  0  0  0  0
   -2.3919    9.2783    1.5632 H   0  0  0  0  0  0  0  0  0  0  0  0
   -2.3701   12.1262   -0.4694 H   0  0  0  0  0  0  0  0  0  0  0  0
   -1.2504   11.6720   -1.7986 H   0  0  0  0  0  0  0  0  0  0  0  0
   -2.9394   11.0605   -1.7986 H   0  0  0  0  0  0  0  0  0  0  0  0
   -0.0740    9.3642    0.8643 H   0  0  0  0  0  0  0  0  0  0  0  0
   -0.9253   11.6703    1.6340 H   0  0  0  0  0  0  0  0  0  0  0  0
    0.8474   11.2034    1.8039 H   0  0  0  0  0  0  0  0  0  0  0  0
    0.3617   13.6597    0.9819 H   0  0  0  0  0  0  0  0  0  0  0  0
    0.4074   11.4885   -2.4206 H   0  0  0  0  0  0  0  0  0  0  0  0
    3.3559   11.5751   -1.5326 H   0  0  0  0  0  0  0  0  0  0  0  0
    2.6804   10.7384   -3.0003 H   0  0  0  0  0  0  0  0  0  0  0  0
    3.7796   12.8828   -3.5662 H   0  0  0  0  0  0  0  0  0  0  0  0
    2.0133   12.8714   -3.9480 H   0  0  0  0  0  0  0  0  0  0  0  0
    2.5721   14.9810   -2.9537 H   0  0  0  0  0  0  0  0  0  0  0  0
    4.4540   13.9950   -1.7890 H   0  0  0  0  0  0  0  0  0  0  0  0
   -0.8886   14.5433   -2.0449 H   0  0  0  0  0  0  0  0  0  0  0  0
    0.2985   15.2246   -3.2082 H   0  0  0  0  0  0  0  0  0  0  0  0
   -0.0490   13.4623   -3.2082 H   0  0  0  0  0  0  0  0  0  0  0  0
    1.1789   15.0278    0.4397 H   0  0  0  0  0  0  0  0  0  0  0  0
    2.0632   15.9852   -0.7965 H   0  0  0  0  0  0  0  0  0  0  0  0
    0.2671   15.9590   -0.7965 H   0  0  0  0  0  0  0  0  0  0  0  0
    2.0930    9.7799    0.9544 H   0  0  0  0  0  0  0  0  0  0  0  0
    2.5358    8.6972   -0.4087 H   0  0  0  0  0  0  0  0  0  0  0  0
    3.0790   10.4094   -0.4087 H   0  0  0  0  0  0  0  0  0  0  0  0
    1.2606    9.2361   -2.8397 H   0  0  0  0  0  0  0  0  0  0  0  0
    0.9609    8.0672   -1.4336 H   0  0  0  0  0  0  0  0  0  0  0  0
   -1.1001    9.6561   -2.9886 H   0  0  0  0  0  0  0  0  0  0  0  0
   -0.8642    7.8648   -2.9310 H   0  0  0  0  0  0  0  0  0  0  0  0
   -1.3643    7.6704    0.7540 H   0  0  0  0  0  0  0  0  0  0  0  0
   -1.9600    6.6119   -0.5694 H   0  0  0  0  0  0  0  0  0  0  0  0
   -0.2547    7.1763   -0.5694 H   0  0  0  0  0  0  0  0  0  0  0  0
  1  2  1  0
  2  3  1  0
  3  4  1  0
  4  5  1  0
  5  6  1  0
  6  7  1  0
  7  8  1  0
  7  9  1  0
  2 10  1  0
 10 11  1  0
 11 12  1  0
 12 13  1  0
 13 14  1  6
 13 15  1  0
 15 16  1  0
 16 17  1  0
 17 18  2  0
 18 19  1  0
 19 20  1  0
 20 21  1  0
 21 22  1  0
 22 23  1  0
 22 24  1  0
 24 25  1  0
 24 26  1  0
 19 27  1  0
 27 28  1  1
 27 29  1  0
 29 30  1  0
 30 31  1  0
 31 32  1  1
  7  5  1  0
 31 10  1  0
 31 13  1  0
 27 15  1  0
 24 18  1  0
  1 33  1  0
  1 34  1  0
  1 35  1  0
  2 36  1  1
  3 37  1  0
  3 38  1  0
  4 39  1  0
  4 40  1  0
  5 41  1  1
  8 42  1  0
  8 43  1  0
  8 44  1  0
  9 45  1  0
  9 46  1  0
  9 47  1  0
 10 48  1  6
 11 49  1  0
 11 50  1  0
 12 51  1  0
 12 52  1  0
 14 53  1  0
 14 54  1  0
 14 55  1  0
 15 56  1  1
 16 57  1  0
 16 58  1  0
 17 59  1  0
 19 60  1  6
 20 61  1  0
 20 62  1  0
 21 63  1  0
 21 64  1  0
 22 65  1  6
 23 66  1  0
 25 67  1  0
 25 68  1  0
 25 69  1  0
 26 70  1  0
 26 71  1  0
 26 72  1  0
 28 73  1  0
 28 74  1  0
 28 75  1  0
 29 76  1  0
 29 77  1  0
 30 78  1  0
 30 79  1  0
 32 80  1  0
 32 81  1  0
 32 82  1  0
M  END
>  <meeko>  (9) 
{"is_sidechain": [false], "intermolecular_energy": 2.731, "internal_energy": -0.839}

$$$$
EPH_relaxed_0001_pdb2pqr_Repair_163_r2_0001_out
     RDKit          3D

 82 86  0  0  0  0  0  0  0  0999 V2000
   -0.8920   16.3430   -5.8310 C   0  0  0  0  0  0  0  0  0  0  0  0
    0.1980   15.6430   -6.6480 C   0  0  2  0  0  0  0  0  0  0  0  0
   -0.2080   15.4640   -8.1250 C   0  0  0  0  0  0  0  0  0  0  0  0
    0.4230   16.4950   -9.0650 C   0  0  0  0  0  0  0  0  0  0  0  0
    1.8260   16.1210   -9.4370 C   0  0  2  0  0  0  0  0  0  0  0  0
    2.2930   16.6930  -10.6650 O   0  0  0  0  0  0  0  0  0  0  0  0
    2.1720   15.2620  -10.6390 C   0  0  0  0  0  0  0  0  0  0  0  0
    1.1100   14.7240  -11.5450 C   0  0  0  0  0  0  0  0  0  0  0  0
    3.4860   14.5460  -10.6520 C   0  0  0  0  0  0  0  0  0  0  0  0
    0.5210   14.2880   -6.0290 C   0  0  1  0  0  0  0  0  0  0  0  0
    1.7830   13.6330   -6.6510 C   0  0  0  0  0  0  0  0  0  0  0  0
    2.4970   12.8650   -5.5090 C   0  0  0  0  0  0  0  0  0  0  0  0
    1.4630   12.8240   -4.3600 C   0  0  1  0  0  0  0  0  0  0  0  0
    0.5050   11.6470   -4.7230 C   0  0  0  0  0  0  0  0  0  0  0  0
    2.0410   12.6730   -2.9150 C   0  0  2  0  0  0  0  0  0  0  0  0
    2.8130   11.3680   -2.6540 C   0  0  0  0  0  0  0  0  0  0  0  0
    1.9900   10.2330   -2.1410 C   0  0  0  0  0  0  0  0  0  0  0  0
    0.7490   10.3350   -1.6300 C   0  0  0  0  0  0  0  0  0  0  0  0
    0.0860   11.7050   -1.4390 C   0  0  1  0  0  0  0  0  0  0  0  0
   -0.5540   11.7780   -0.0280 C   0  0  0  0  0  0  0  0  0  0  0  0
   -1.5130   10.6230    0.2410 C   0  0  0  0  0  0  0  0  0  0  0  0
   -0.8020    9.2800    0.0990 C   0  0  2  0  0  0  0  0  0  0  0  0
    0.1680    9.1590    1.1430 O   0  0  0  0  0  0  0  0  0  0  0  0
   -0.1110    9.0950   -1.2810 C   0  0  0  0  0  0  0  0  0  0  0  0
   -1.1860    8.9240   -2.3830 C   0  0  0  0  0  0  0  0  0  0  0  0
    0.6860    7.7630   -1.2420 C   0  0  0  0  0  0  0  0  0  0  0  0
    0.9950   12.9670   -1.7640 C   0  0  1  0  0  0  0  0  0  0  0  0
    1.8210   13.3660   -0.5030 C   0  0  0  0  0  0  0  0  0  0  0  0
    0.0690   14.1960   -2.0960 C   0  0  0  0  0  0  0  0  0  0  0  0
   -0.3710   14.3580   -3.5640 C   0  0  0  0  0  0  0  0  0  0  0  0
    0.8280   14.2550   -4.5110 C   0  0  2  0  0  0  0  0  0  0  0  0
    1.7990   15.4400   -4.1840 C   0  0  0  0  0  0  0  0  0  0  0  0
   -0.6874   16.2116   -4.7582 H   0  0  0  0  0  0  0  0  0  0  0  0
   -0.9004   17.4158   -6.0740 H   0  0  0  0  0  0  0  0  0  0  0  0
   -1.8710   15.9043   -6.0740 H   0  0  0  0  0  0  0  0  0  0  0  0
    1.0913   16.2845   -6.6267 H   0  0  0  0  0  0  0  0  0  0  0  0
    0.1022   14.4604   -8.4515 H   0  0  0  0  0  0  0  0  0  0  0  0
   -1.2977   15.6040   -8.1786 H   0  0  0  0  0  0  0  0  0  0  0  0
   -0.1831   16.5605   -9.9806 H   0  0  0  0  0  0  0  0  0  0  0  0
    0.4533   17.4623   -8.5421 H   0  0  0  0  0  0  0  0  0  0  0  0
    2.1150   16.0585   -8.3775 H   0  0  0  0  0  0  0  0  0  0  0  0
    0.2894   14.3083  -10.9418 H   0  0  0  0  0  0  0  0  0  0  0  0
    0.7240   15.5353  -12.1797 H   0  0  0  0  0  0  0  0  0  0  0  0
    1.5357   13.9329  -12.1797 H   0  0  0  0  0  0  0  0  0  0  0  0
    3.8159   14.3663   -9.6181 H   0  0  0  0  0  0  0  0  0  0  0  0
    3.3743   13.5841  -11.1737 H   0  0  0  0  0  0  0  0  0  0  0  0
    4.2337   15.1614  -11.1737 H   0  0  0  0  0  0  0  0  0  0  0  0
   -0.4231   13.7618   -6.2334 H   0  0  0  0  0  0  0  0  0  0  0  0
    1.4929   12.9371   -7.4520 H   0  0  0  0  0  0  0  0  0  0  0  0
    2.4460   14.3924   -7.0912 H   0  0  0  0  0  0  0  0  0  0  0  0
    2.7600   11.8466   -5.8312 H   0  0  0  0  0  0  0  0  0  0  0  0
    3.4378   13.3480   -5.2063 H   0  0  0  0  0  0  0  0  0  0  0  0
    0.1276   11.1833   -3.7997 H   0  0  0  0  0  0  0  0  0  0  0  0
   -0.3405   12.0309   -5.3126 H   0  0  0  0  0  0  0  0  0  0  0  0
    1.0526   10.8970   -5.3126 H   0  0  0  0  0  0  0  0  0  0  0  0
    2.7915   13.4763   -2.8762 H   0  0  0  0  0  0  0  0  0  0  0  0
    3.2761   11.0518   -3.6003 H   0  0  0  0  0  0  0  0  0  0  0  0
    3.5417   11.5981   -1.8627 H   0  0  0  0  0  0  0  0  0  0  0  0
    2.4356    9.2282   -2.1843 H   0  0  0  0  0  0  0  0  0  0  0  0
   -0.6976   11.7736   -2.2079 H   0  0  0  0  0  0  0  0  0  0  0  0
    0.2480   11.7527    0.7244 H   0  0  0  0  0  0  0  0  0  0  0  0
   -1.1328   12.7117    0.0276 H   0  0  0  0  0  0  0  0  0  0  0  0
   -1.9091   10.7144    1.2631 H   0  0  0  0  0  0  0  0  0  0  0  0
   -2.3307   10.6670   -0.4935 H   0  0  0  0  0  0  0  0  0  0  0  0
   -1.5666    8.4928    0.1744 H   0  0  0  0  0  0  0  0  0  0  0  0
   -0.3080    8.9540    1.9650 H   0  0  0  0  0  0  0  0  0  0  0  0
   -2.1691    8.7676   -1.9151 H   0  0  0  0  0  0  0  0  0  0  0  0
   -1.2172    9.8285   -3.0083 H   0  0  0  0  0  0  0  0  0  0  0  0
   -0.9350    8.0545   -3.0083 H   0  0  0  0  0  0  0  0  0  0  0  0
    0.8608    7.4708   -0.1960 H   0  0  0  0  0  0  0  0  0  0  0  0
    0.1102    6.9761   -1.7512 H   0  0  0  0  0  0  0  0  0  0  0  0
    1.6516    7.8984   -1.7512 H   0  0  0  0  0  0  0  0  0  0  0  0
    1.2601   13.0950    0.4036 H   0  0  0  0  0  0  0  0  0  0  0  0
    2.7835   12.8335   -0.5115 H   0  0  0  0  0  0  0  0  0  0  0  0
    2.0022   14.4509   -0.5115 H   0  0  0  0  0  0  0  0  0  0  0  0
   -0.8405   14.1022   -1.4844 H   0  0  0  0  0  0  0  0  0  0  0  0
    0.6807   15.0841   -1.8792 H   0  0  0  0  0  0  0  0  0  0  0  0
   -1.0943   13.5672   -3.8121 H   0  0  0  0  0  0  0  0  0  0  0  0
   -0.8288   15.3509   -3.6850 H   0  0  0  0  0  0  0  0  0  0  0  0
    1.8891   15.5499   -3.0932 H   0  0  0  0  0  0  0  0  0  0  0  0
    2.7896   15.2318   -4.6146 H   0  0  0  0  0  0  0  0  0  0  0  0
    1.4002   16.3703   -4.6146 H   0  0  0  0  0  0  0  0  0  0  0  0
  1  2  1  0
  2  3  1  0
  3  4  1  0
  4  5  1  0
  5  6  1  0
  6  7  1  0
  7  8  1  0
  7  9  1  0
  2 10  1  0
 10 11  1  0
 11 12  1  0
 12 13  1  0
 13 14  1  6
 13 15  1  0
 15 16  1  0
 16 17  1  0
 17 18  2  0
 18 19  1  0
 19 20  1  0
 20 21  1  0
 21 22  1  0
 22 23  1  0
 22 24  1  0
 24 25  1  0
 24 26  1  0
 19 27  1  0
 27 28  1  1
 27 29  1  0
 29 30  1  0
 30 31  1  0
 31 32  1  1
  7  5  1  0
 31 10  1  0
 31 13  1  0
 27 15  1  0
 24 18  1  0
  1 33  1  0
  1 34  1  0
  1 35  1  0
  2 36  1  6
  3 37  1  0
  3 38  1  0
  4 39  1  0
  4 40  1  0
  5 41  1  1
  8 42  1  0
  8 43  1  0
  8 44  1  0
  9 45  1  0
  9 46  1  0
  9 47  1  0
 10 48  1  1
 11 49  1  0
 11 50  1  0
 12 51  1  0
 12 52  1  0
 14 53  1  0
 14 54  1  0
 14 55  1  0
 15 56  1  6
 16 57  1  0
 16 58  1  0
 17 59  1  0
 19 60  1  6
 20 61  1  0
 20 62  1  0
 21 63  1  0
 21 64  1  0
 22 65  1  1
 23 66  1  0
 25 67  1  0
 25 68  1  0
 25 69  1  0
 26 70  1  0
 26 71  1  0
 26 72  1  0
 28 73  1  0
 28 74  1  0
 28 75  1  0
 29 76  1  0
 29 77  1  0
 30 78  1  0
 30 79  1  0
 32 80  1  0
 32 81  1  0
 32 82  1  0
M  END
>  <meeko>  (10) 
{"is_sidechain": [false], "intermolecular_energy": 2.731, "internal_energy": -0.839}

$$$$
EPH_relaxed_0001_pdb2pqr_Repair_163_r2_0001_out
     RDKit          3D

 82 86  0  0  0  0  0  0  0  0999 V2000
   -2.1530    7.8440   -2.0380 C   0  0  0  0  0  0  0  0  0  0  0  0
   -2.1700    8.5020   -0.6550 C   0  0  2  0  0  0  0  0  0  0  0  0
   -3.5810    8.5100   -0.0330 C   0  0  0  0  0  0  0  0  0  0  0  0
   -4.7060    8.3440   -1.0580 C   0  0  0  0  0  0  0  0  0  0  0  0
   -5.8100    7.4760   -0.5340 C   0  0  2  0  0  0  0  0  0  0  0  0
   -6.0260    6.2690   -1.2770 O   0  0  0  0  0  0  0  0  0  0  0  0
   -7.1020    7.2210   -1.2870 C   0  0  0  0  0  0  0  0  0  0  0  0
   -7.3590    7.8350   -2.6270 C   0  0  0  0  0  0  0  0  0  0  0  0
   -8.3050    6.7790   -0.5140 C   0  0  0  0  0  0  0  0  0  0  0  0
   -1.6340    9.9250   -0.7500 C   0  0  1  0  0  0  0  0  0  0  0  0
   -1.1460   10.4720    0.6180 C   0  0  0  0  0  0  0  0  0  0  0  0
    0.0740   11.3830    0.3260 C   0  0  0  0  0  0  0  0  0  0  0  0
    0.0450   11.5950   -1.2060 C   0  0  1  0  0  0  0  0  0  0  0  0
   -1.0100   12.7230   -1.4340 C   0  0  0  0  0  0  0  0  0  0  0  0
    1.4120   11.9380   -1.8820 C   0  0  2  0  0  0  0  0  0  0  0  0
    2.0550   13.2580   -1.4210 C   0  0  0  0  0  0  0  0  0  0  0  0
    1.6790   14.4630   -2.2170 C   0  0  0  0  0  0  0  0  0  0  0  0
    1.0870   14.4490   -3.4260 C   0  0  0  0  0  0  0  0  0  0  0  0
    0.8260   13.1270   -4.1590 C   0  0  1  0  0  0  0  0  0  0  0  0
    1.2740   13.2580   -5.6380 C   0  0  0  0  0  0  0  0  0  0  0  0
    0.6330   14.4510   -6.3400 C   0  0  0  0  0  0  0  0  0  0  0  0
    0.9640   15.7530   -5.6150 C   0  0  2  0  0  0  0  0  0  0  0  0
    2.3670   16.0060   -5.7390 O   0  0  0  0  0  0  0  0  0  0  0  0
    0.5660   15.7350   -4.1130 C   0  0  0  0  0  0  0  0  0  0  0  0
   -0.9770   15.7650   -3.9820 C   0  0  0  0  0  0  0  0  0  0  0  0
    1.0820   17.0500   -3.4670 C   0  0  0  0  0  0  0  0  0  0  0  0
    1.4020   11.8210   -3.4600 C   0  0  1  0  0  0  0  0  0  0  0  0
    2.8800   11.5910   -3.8990 C   0  0  0  0  0  0  0  0  0  0  0  0
    0.5900   10.5690   -3.9620 C   0  0  0  0  0  0  0  0  0  0  0  0
   -0.6880   10.2100   -3.1790 C   0  0  0  0  0  0  0  0  0  0  0  0
   -0.4130   10.1660   -1.6720 C   0  0  2  0  0  0  0  0  0  0  0  0
    0.6290    9.0250   -1.4090 C   0  0  0  0  0  0  0  0  0  0  0  0
   -2.1247    6.7504   -1.9234 H   0  0  0  0  0  0  0  0  0  0  0  0
   -3.0589    8.1313   -2.5919 H   0  0  0  0  0  0  0  0  0  0  0  0
   -1.2632    8.1777   -2.5919 H   0  0  0  0  0  0  0  0  0  0  0  0
   -1.5227    7.9046    0.0038 H   0  0  0  0  0  0  0  0  0  0  0  0
   -3.6461    7.6844    0.6910 H   0  0  0  0  0  0  0  0  0  0  0  0
   -3.7187    9.4939    0.4392 H   0  0  0  0  0  0  0  0  0  0  0  0
   -5.1165    9.3353   -1.3004 H   0  0  0  0  0  0  0  0  0  0  0  0
   -4.2860    7.8616   -1.9529 H   0  0  0  0  0  0  0  0  0  0  0  0
   -5.6091    7.8017    0.4973 H   0  0  0  0  0  0  0  0  0  0  0  0
   -7.7806    8.8423   -2.4940 H   0  0  0  0  0  0  0  0  0  0  0  0
   -6.4142    7.9039   -3.1861 H   0  0  0  0  0  0  0  0  0  0  0  0
   -8.0712    7.2103   -3.1861 H   0  0  0  0  0  0  0  0  0  0  0  0
   -8.0969    6.8554    0.5634 H   0  0  0  0  0  0  0  0  0  0  0  0
   -9.1608    7.4214   -0.7687 H   0  0  0  0  0  0  0  0  0  0  0  0
   -8.5414    5.7353   -0.7687 H   0  0  0  0  0  0  0  0  0  0  0  0
   -2.5212   10.4283   -1.1618 H   0  0  0  0  0  0  0  0  0  0  0  0
   -1.9457   11.0530    1.1007 H   0  0  0  0  0  0  0  0  0  0  0  0
   -0.8722    9.6508    1.2968 H   0  0  0  0  0  0  0  0  0  0  0  0
   -0.0238   12.3437    0.8529 H   0  0  0  0  0  0  0  0  0  0  0  0
    1.0194   10.9362    0.6674 H   0  0  0  0  0  0  0  0  0  0  0  0
   -1.3612   13.0985   -0.4616 H   0  0  0  0  0  0  0  0  0  0  0  0
   -0.5501   13.5461   -2.0005 H   0  0  0  0  0  0  0  0  0  0  0  0
   -1.8620   12.3191   -2.0005 H   0  0  0  0  0  0  0  0  0  0  0  0
    2.0678   11.1387   -1.5064 H   0  0  0  0  0  0  0  0  0  0  0  0
    1.7577   13.4343   -0.3767 H   0  0  0  0  0  0  0  0  0  0  0  0
    3.1394   13.1311   -1.5553 H   0  0  0  0  0  0  0  0  0  0  0  0
    1.9048   15.4463   -1.7786 H   0  0  0  0  0  0  0  0  0  0  0  0
   -0.2605   12.9622   -4.1114 H   0  0  0  0  0  0  0  0  0  0  0  0
    2.3671   13.3780   -5.6660 H   0  0  0  0  0  0  0  0  0  0  0  0
    0.9529   12.3480   -6.1659 H   0  0  0  0  0  0  0  0  0  0  0  0
    1.0108   14.5073   -7.3716 H   0  0  0  0  0  0  0  0  0  0  0  0
   -0.4586   14.3152   -6.3370 H   0  0  0  0  0  0  0  0  0  0  0  0
    0.3738   16.5528   -6.0860 H   0  0  0  0  0  0  0  0  0  0  0  0
    2.8230   15.1470   -5.7270 H   0  0  0  0  0  0  0  0  0  0  0  0
   -1.2546   15.7704   -2.9176 H   0  0  0  0  0  0  0  0  0  0  0  0
   -1.3687   16.6709   -4.4677 H   0  0  0  0  0  0  0  0  0  0  0  0
   -1.4036   14.8750   -4.4677 H   0  0  0  0  0  0  0  0  0  0  0  0
    1.0463   16.9589   -2.3714 H   0  0  0  0  0  0  0  0  0  0  0  0
    2.1187   17.2331   -3.7861 H   0  0  0  0  0  0  0  0  0  0  0  0
    0.4465   17.8892   -3.7861 H   0  0  0  0  0  0  0  0  0  0  0  0
    3.5162   11.4920   -3.0071 H   0  0  0  0  0  0  0  0  0  0  0  0
    2.9452   10.6719   -4.4998 H   0  0  0  0  0  0  0  0  0  0  0  0
    3.2215   12.4468   -4.4998 H   0  0  0  0  0  0  0  0  0  0  0  0
    0.2987   10.7580   -5.0058 H   0  0  0  0  0  0  0  0  0  0  0  0
    1.2650    9.7122   -3.8196 H   0  0  0  0  0  0  0  0  0  0  0  0
   -1.4594   10.9674   -3.3822 H   0  0  0  0  0  0  0  0  0  0  0  0
   -1.0303    9.2159   -3.5025 H   0  0  0  0  0  0  0  0  0  0  0  0
    0.7554    8.8866   -0.3251 H   0  0  0  0  0  0  0  0  0  0  0  0
    0.2682    8.0882   -1.8587 H   0  0  0  0  0  0  0  0  0  0  0  0
    1.5946    9.2995   -1.8587 H   0  0  0  0  0  0  0  0  0  0  0  0
  1  2  1  0
  2  3  1  0
  3  4  1  0
  4  5  1  0
  5  6  1  0
  6  7  1  0
  7  8  1  0
  7  9  1  0
  2 10  1  0
 10 11  1  0
 11 12  1  0
 12 13  1  0
 13 14  1  1
 13 15  1  0
 15 16  1  0
 16 17  1  0
 17 18  2  0
 18 19  1  0
 19 20  1  0
 20 21  1  0
 21 22  1  0
 22 23  1  0
 22 24  1  0
 24 25  1  0
 24 26  1  0
 19 27  1  0
 27 28  1  6
 27 29  1  0
 29 30  1  0
 30 31  1  0
 31 32  1  6
  7  5  1  0
 31 10  1  0
 31 13  1  0
 27 15  1  0
 24 18  1  0
  1 33  1  0
  1 34  1  0
  1 35  1  0
  2 36  1  1
  3 37  1  0
  3 38  1  0
  4 39  1  0
  4 40  1  0
  5 41  1  1
  8 42  1  0
  8 43  1  0
  8 44  1  0
  9 45  1  0
  9 46  1  0
  9 47  1  0
 10 48  1  6
 11 49  1  0
 11 50  1  0
 12 51  1  0
 12 52  1  0
 14 53  1  0
 14 54  1  0
 14 55  1  0
 15 56  1  1
 16 57  1  0
 16 58  1  0
 17 59  1  0
 19 60  1  6
 20 61  1  0
 20 62  1  0
 21 63  1  0
 21 64  1  0
 22 65  1  6
 23 66  1  0
 25 67  1  0
 25 68  1  0
 25 69  1  0
 26 70  1  0
 26 71  1  0
 26 72  1  0
 28 73  1  0
 28 74  1  0
 28 75  1  0
 29 76  1  0
 29 77  1  0
 30 78  1  0
 30 79  1  0
 32 80  1  0
 32 81  1  0
 32 82  1  0
M  END
>  <meeko>  (11) 
{"is_sidechain": [false], "intermolecular_energy": 2.731, "internal_energy": -0.839}

$$$$
EPH_relaxed_0001_pdb2pqr_Repair_163_r2_0001_out
     RDKit          3D

 82 86  0  0  0  0  0  0  0  0999 V2000
    2.8860   11.3180   -5.3010 C   0  0  0  0  0  0  0  0  0  0  0  0
    1.8570   11.0260   -4.2050 C   0  0  2  0  0  0  0  0  0  0  0  0
    0.7400   10.0820   -4.6940 C   0  0  0  0  0  0  0  0  0  0  0  0
   -0.3480    9.8230   -3.6490 C   0  0  0  0  0  0  0  0  0  0  0  0
    0.1670    9.0050   -2.5040 C   0  0  2  0  0  0  0  0  0  0  0  0
   -0.7040    7.9450   -2.0860 O   0  0  0  0  0  0  0  0  0  0  0  0
   -0.4750    8.9920   -1.1290 C   0  0  0  0  0  0  0  0  0  0  0  0
   -1.6880    9.8150   -0.8270 C   0  0  0  0  0  0  0  0  0  0  0  0
    0.3520    8.5660    0.0430 C   0  0  0  0  0  0  0  0  0  0  0  0
    1.2520   12.3310   -3.7000 C   0  0  1  0  0  0  0  0  0  0  0  0
   -0.2900   12.2550   -3.5480 C   0  0  0  0  0  0  0  0  0  0  0  0
   -0.6620   13.1220   -2.3170 C   0  0  0  0  0  0  0  0  0  0  0  0
    0.6220   13.9270   -2.0060 C   0  0  1  0  0  0  0  0  0  0  0  0
    0.6000   15.1210   -3.0120 C   0  0  0  0  0  0  0  0  0  0  0  0
    0.7880   14.4180   -0.5310 C   0  0  2  0  0  0  0  0  0  0  0  0
   -0.2920   15.3990   -0.0440 C   0  0  0  0  0  0  0  0  0  0  0  0
    0.0120   16.8440   -0.2630 C   0  0  0  0  0  0  0  0  0  0  0  0
    1.2220   17.3510   -0.5650 C   0  0  0  0  0  0  0  0  0  0  0  0
    2.4630   16.4510   -0.6190 C   0  0  1  0  0  0  0  0  0  0  0  0
    3.6280   17.1280    0.1480 C   0  0  0  0  0  0  0  0  0  0  0  0
    3.9120   18.5430   -0.3500 C   0  0  0  0  0  0  0  0  0  0  0  0
    2.6710   19.4230   -0.2260 C   0  0  2  0  0  0  0  0  0  0  0  0
    2.3750   19.6090    1.1620 O   0  0  0  0  0  0  0  0  0  0  0  0
    1.4280   18.8370   -0.9520 C   0  0  0  0  0  0  0  0  0  0  0  0
    1.6350   18.9160   -2.4850 C   0  0  0  0  0  0  0  0  0  0  0  0
    0.2130   19.7480   -0.6300 C   0  0  0  0  0  0  0  0  0  0  0  0
    2.2410   14.9390   -0.1820 C   0  0  1  0  0  0  0  0  0  0  0  0
    2.4030   14.8030    1.3630 C   0  0  0  0  0  0  0  0  0  0  0  0
    3.3680   14.0470   -0.8260 C   0  0  0  0  0  0  0  0  0  0  0  0
    3.0930   13.4930   -2.2370 C   0  0  0  0  0  0  0  0  0  0  0  0
    1.7110   12.8350   -2.3090 C   0  0  2  0  0  0  0  0  0  0  0  0
    1.7100   11.6170   -1.3230 C   0  0  0  0  0  0  0  0  0  0  0  0
    3.8464   11.5905   -4.8391 H   0  0  0  0  0  0  0  0  0  0  0  0
    3.0205   10.4226   -5.9256 H   0  0  0  0  0  0  0  0  0  0  0  0
    2.5302   12.1506   -5.9256 H   0  0  0  0  0  0  0  0  0  0  0  0
    2.3830   10.5173   -3.3837 H   0  0  0  0  0  0  0  0  0  0  0  0
    0.2696   10.5309   -5.5812 H   0  0  0  0  0  0  0  0  0  0  0  0
    1.2116    9.1129   -4.9141 H   0  0  0  0  0  0  0  0  0  0  0  0
   -0.7092   10.7879   -3.2637 H   0  0  0  0  0  0  0  0  0  0  0  0
   -1.1615    9.2623   -4.1326 H   0  0  0  0  0  0  0  0  0  0  0  0
    1.2059    9.1575   -2.8317 H   0  0  0  0  0  0  0  0  0  0  0  0
   -1.8120    9.8991    0.2627 H   0  0  0  0  0  0  0  0  0  0  0  0
   -1.5675   10.8186   -1.2609 H   0  0  0  0  0  0  0  0  0  0  0  0
   -2.5760    9.3322   -1.2609 H   0  0  0  0  0  0  0  0  0  0  0  0
   -0.1675    8.8336    0.9750 H   0  0  0  0  0  0  0  0  0  0  0  0
    0.5044    7.4772    0.0078 H   0  0  0  0  0  0  0  0  0  0  0  0
    1.3270    9.0741    0.0078 H   0  0  0  0  0  0  0  0  0  0  0  0
    1.6071   13.0153   -4.4846 H   0  0  0  0  0  0  0  0  0  0  0  0
   -0.7794   12.6493   -4.4508 H   0  0  0  0  0  0  0  0  0  0  0  0
   -0.6227   11.2152   -3.4135 H   0  0  0  0  0  0  0  0  0  0  0  0
   -1.4962   13.7981   -2.5557 H   0  0  0  0  0  0  0  0  0  0  0  0
   -0.9910   12.5136   -1.4617 H   0  0  0  0  0  0  0  0  0  0  0  0
    0.5825   16.0694   -2.4551 H   0  0  0  0  0  0  0  0  0  0  0  0
    1.4990   15.0839   -3.6448 H   0  0  0  0  0  0  0  0  0  0  0  0
   -0.2970   15.0508   -3.6448 H   0  0  0  0  0  0  0  0  0  0  0  0
    0.6325   13.4934    0.0443 H   0  0  0  0  0  0  0  0  0  0  0  0
   -1.2273   15.1647   -0.5734 H   0  0  0  0  0  0  0  0  0  0  0  0
   -0.3560   15.2638    1.0458 H   0  0  0  0  0  0  0  0  0  0  0  0
   -0.8228   17.5542   -0.1698 H   0  0  0  0  0  0  0  0  0  0  0  0
    2.7239   16.3556   -1.6833 H   0  0  0  0  0  0  0  0  0  0  0  0
    3.3670   17.1755    1.2155 H   0  0  0  0  0  0  0  0  0  0  0  0
    4.5333   16.5264   -0.0207 H   0  0  0  0  0  0  0  0  0  0  0  0
    4.7245   18.9795    0.2494 H   0  0  0  0  0  0  0  0  0  0  0  0
    4.2018   18.4912   -1.4099 H   0  0  0  0  0  0  0  0  0  0  0  0
    2.8962   20.3815   -0.7164 H   0  0  0  0  0  0  0  0  0  0  0  0
    2.8990   20.3650    1.4760 H   0  0  0  0  0  0  0  0  0  0  0  0
    2.6430   19.3007   -2.6995 H   0  0  0  0  0  0  0  0  0  0  0  0
    1.5248   17.9126   -2.9221 H   0  0  0  0  0  0  0  0  0  0  0  0
    0.8843   19.5908   -2.9221 H   0  0  0  0  0  0  0  0  0  0  0  0
    0.0981   19.8341    0.4606 H   0  0  0  0  0  0  0  0  0  0  0  0
    0.3788   20.7463   -1.0612 H   0  0  0  0  0  0  0  0  0  0  0  0
   -0.6988   19.3091   -1.0612 H   0  0  0  0  0  0  0  0  0  0  0  0
    1.6541   15.4317    1.8669 H   0  0  0  0  0  0  0  0  0  0  0  0
    2.2571   13.7528    1.6559 H   0  0  0  0  0  0  0  0  0  0  0  0
    3.4121   15.1286    1.6559 H   0  0  0  0  0  0  0  0  0  0  0  0
    4.2835   14.6545   -0.8794 H   0  0  0  0  0  0  0  0  0  0  0  0
    3.4401   13.1613   -0.1777 H   0  0  0  0  0  0  0  0  0  0  0  0
    3.1365   14.3188   -2.9624 H   0  0  0  0  0  0  0  0  0  0  0  0
    3.8548   12.7345   -2.4703 H   0  0  0  0  0  0  0  0  0  0  0  0
    1.7103   11.9845   -0.2862 H   0  0  0  0  0  0  0  0  0  0  0  0
    0.8114   11.0065   -1.4953 H   0  0  0  0  0  0  0  0  0  0  0  0
    2.6076   11.0050   -1.4953 H   0  0  0  0  0  0  0  0  0  0  0  0
  1  2  1  0
  2  3  1  0
  3  4  1  0
  4  5  1  0
  5  6  1  0
  6  7  1  0
  7  8  1  0
  7  9  1  0
  2 10  1  0
 10 11  1  0
 11 12  1  0
 12 13  1  0
 13 14  1  6
 13 15  1  0
 15 16  1  0
 16 17  1  0
 17 18  2  0
 18 19  1  0
 19 20  1  0
 20 21  1  0
 21 22  1  0
 22 23  1  0
 22 24  1  0
 24 25  1  0
 24 26  1  0
 19 27  1  0
 27 28  1  1
 27 29  1  0
 29 30  1  0
 30 31  1  0
 31 32  1  1
  7  5  1  0
 31 10  1  0
 31 13  1  0
 27 15  1  0
 24 18  1  0
  1 33  1  0
  1 34  1  0
  1 35  1  0
  2 36  1  1
  3 37  1  0
  3 38  1  0
  4 39  1  0
  4 40  1  0
  5 41  1  1
  8 42  1  0
  8 43  1  0
  8 44  1  0
  9 45  1  0
  9 46  1  0
  9 47  1  0
 10 48  1  6
 11 49  1  0
 11 50  1  0
 12 51  1  0
 12 52  1  0
 14 53  1  0
 14 54  1  0
 14 55  1  0
 15 56  1  1
 16 57  1  0
 16 58  1  0
 17 59  1  0
 19 60  1  6
 20 61  1  0
 20 62  1  0
 21 63  1  0
 21 64  1  0
 22 65  1  6
 23 66  1  0
 25 67  1  0
 25 68  1  0
 25 69  1  0
 26 70  1  0
 26 71  1  0
 26 72  1  0
 28 73  1  0
 28 74  1  0
 28 75  1  0
 29 76  1  0
 29 77  1  0
 30 78  1  0
 30 79  1  0
 32 80  1  0
 32 81  1  0
 32 82  1  0
M  END
>  <meeko>  (12) 
{"is_sidechain": [false], "intermolecular_energy": 2.731, "internal_energy": -0.839}

$$$$
EPH_relaxed_0001_pdb2pqr_Repair_163_r2_0001_out
     RDKit          3D

 82 86  0  0  0  0  0  0  0  0999 V2000
   -0.0010    9.2860   -1.9640 C   0  0  0  0  0  0  0  0  0  0  0  0
    1.0450   10.2670   -2.4990 C   0  0  2  0  0  0  0  0  0  0  0  0
    2.4430    9.6240   -2.6070 C   0  0  0  0  0  0  0  0  0  0  0  0
    3.3360   10.2670   -3.6700 C   0  0  0  0  0  0  0  0  0  0  0  0
    4.7440   10.4360   -3.1840 C   0  0  2  0  0  0  0  0  0  0  0  0
    5.2370   11.7810   -3.2320 O   0  0  0  0  0  0  0  0  0  0  0  0
    5.8980   10.8330   -4.0850 C   0  0  0  0  0  0  0  0  0  0  0  0
    5.6970   11.0840   -5.5460 C   0  0  0  0  0  0  0  0  0  0  0  0
    7.2920   10.5010   -3.6500 C   0  0  0  0  0  0  0  0  0  0  0  0
    1.1070   11.5000   -1.6050 C   0  0  1  0  0  0  0  0  0  0  0  0
    2.2260   11.4060   -0.5340 C   0  0  0  0  0  0  0  0  0  0  0  0
    2.7790   12.8410   -0.3390 C   0  0  0  0  0  0  0  0  0  0  0  0
    1.7520   13.7550   -1.0460 C   0  0  1  0  0  0  0  0  0  0  0  0
    0.5920   13.9270   -0.0160 C   0  0  0  0  0  0  0  0  0  0  0  0
    2.2860   15.1360   -1.5490 C   0  0  2  0  0  0  0  0  0  0  0  0
    2.7990   16.0780   -0.4460 C   0  0  0  0  0  0  0  0  0  0  0  0
    1.7760   17.0010    0.1300 C   0  0  0  0  0  0  0  0  0  0  0  0
    0.5740   17.2720   -0.4110 C   0  0  0  0  0  0  0  0  0  0  0  0
    0.1780   16.6990   -1.7780 C   0  0  1  0  0  0  0  0  0  0  0  0
   -0.4410   17.8220   -2.6510 C   0  0  0  0  0  0  0  0  0  0  0  0
   -1.6010   18.5300   -1.9570 C   0  0  0  0  0  0  0  0  0  0  0  0
   -1.1540   19.1360   -0.6290 C   0  0  2  0  0  0  0  0  0  0  0  0
   -0.2270   20.1940   -0.8950 O   0  0  0  0  0  0  0  0  0  0  0  0
   -0.5040   18.1000    0.3300 C   0  0  0  0  0  0  0  0  0  0  0  0
   -1.5880   17.1270    0.8560 C   0  0  0  0  0  0  0  0  0  0  0  0
    0.0290   18.8670    1.5700 C   0  0  0  0  0  0  0  0  0  0  0  0
    1.3090   15.8860   -2.5430 C   0  0  1  0  0  0  0  0  0  0  0  0
    2.1910   16.8610   -3.3820 C   0  0  0  0  0  0  0  0  0  0  0  0
    0.6310   14.9040   -3.5700 C   0  0  0  0  0  0  0  0  0  0  0  0
    0.2340   13.5120   -3.0430 C   0  0  0  0  0  0  0  0  0  0  0  0
    1.3970   12.8600   -2.2890 C   0  0  2  0  0  0  0  0  0  0  0  0
    2.5710   12.6540   -3.3050 C   0  0  0  0  0  0  0  0  0  0  0  0
    0.0128    9.2990   -0.8642 H   0  0  0  0  0  0  0  0  0  0  0  0
   -0.9982    9.5821   -2.3217 H   0  0  0  0  0  0  0  0  0  0  0  0
    0.2306    8.2719   -2.3217 H   0  0  0  0  0  0  0  0  0  0  0  0
    0.7362   10.5586   -3.5137 H   0  0  0  0  0  0  0  0  0  0  0  0
    2.9434    9.7154   -1.6317 H   0  0  0  0  0  0  0  0  0  0  0  0
    2.2923    8.5760   -2.9053 H   0  0  0  0  0  0  0  0  0  0  0  0
    3.3422    9.6271   -4.5647 H   0  0  0  0  0  0  0  0  0  0  0  0
    2.9312   11.2635   -3.9004 H   0  0  0  0  0  0  0  0  0  0  0  0
    4.6189    9.6136   -2.4643 H   0  0  0  0  0  0  0  0  0  0  0  0
    5.0146   11.9361   -5.6812 H   0  0  0  0  0  0  0  0  0  0  0  0
    6.6653   11.3116   -6.0156 H   0  0  0  0  0  0  0  0  0  0  0  0
    5.2632   10.1888   -6.0156 H   0  0  0  0  0  0  0  0  0  0  0  0
    7.3403   10.4895   -2.5511 H   0  0  0  0  0  0  0  0  0  0  0  0
    7.5718    9.5111   -4.0397 H   0  0  0  0  0  0  0  0  0  0  0  0
    7.9879   11.2585   -4.0397 H   0  0  0  0  0  0  0  0  0  0  0  0
    0.0820   11.4904   -1.2060 H   0  0  0  0  0  0  0  0  0  0  0  0
    1.8136   11.0269    0.4127 H   0  0  0  0  0  0  0  0  0  0  0  0
    3.0211   10.7159   -0.8526 H   0  0  0  0  0  0  0  0  0  0  0  0
    2.8474   13.0886    0.7306 H   0  0  0  0  0  0  0  0  0  0  0  0
    3.7926   12.9566   -0.7504 H   0  0  0  0  0  0  0  0  0  0  0  0
    0.9965   13.8670    1.0052 H   0  0  0  0  0  0  0  0  0  0  0  0
    0.1127   14.9060   -0.1636 H   0  0  0  0  0  0  0  0  0  0  0  0
   -0.1507   13.1292   -0.1636 H   0  0  0  0  0  0  0  0  0  0  0  0
    3.1734   14.8479   -2.1316 H   0  0  0  0  0  0  0  0  0  0  0  0
    3.1975   15.4592    0.3715 H   0  0  0  0  0  0  0  0  0  0  0  0
    3.5556   16.7199   -0.9210 H   0  0  0  0  0  0  0  0  0  0  0  0
    2.0263   17.5018    1.0768 H   0  0  0  0  0  0  0  0  0  0  0  0
   -0.5765   15.9246   -1.5755 H   0  0  0  0  0  0  0  0  0  0  0  0
    0.3396   18.5631   -2.8778 H   0  0  0  0  0  0  0  0  0  0  0  0
   -0.8341   17.3553   -3.5662 H   0  0  0  0  0  0  0  0  0  0  0  0
   -1.9763   19.3315   -2.6103 H   0  0  0  0  0  0  0  0  0  0  0  0
   -2.3934   17.7935   -1.7579 H   0  0  0  0  0  0  0  0  0  0  0  0
   -2.0527   19.5133   -0.1190 H   0  0  0  0  0  0  0  0  0  0  0  0
   -0.1610   20.7360   -0.0910 H   0  0  0  0  0  0  0  0  0  0  0  0
   -1.5825   17.1319    1.9560 H   0  0  0  0  0  0  0  0  0  0  0  0
   -2.5757   17.4474    0.4928 H   0  0  0  0  0  0  0  0  0  0  0  0
   -1.3758   16.1106    0.4928 H   0  0  0  0  0  0  0  0  0  0  0  0
   -0.3178   18.3679    2.4868 H   0  0  0  0  0  0  0  0  0  0  0  0
    1.1288   18.8758    1.5509 H   0  0  0  0  0  0  0  0  0  0  0  0
   -0.3463   19.9008    1.5509 H   0  0  0  0  0  0  0  0  0  0  0  0
    2.7726   17.5039   -2.7050 H   0  0  0  0  0  0  0  0  0  0  0  0
    2.8773   16.2808   -4.0164 H   0  0  0  0  0  0  0  0  0  0  0  0
    1.5452   17.4859   -4.0164 H   0  0  0  0  0  0  0  0  0  0  0  0
   -0.2819   15.3912   -3.9431 H   0  0  0  0  0  0  0  0  0  0  0  0
    1.3981   14.7137   -4.3351 H   0  0  0  0  0  0  0  0  0  0  0  0
   -0.6234   13.6160   -2.3618 H   0  0  0  0  0  0  0  0  0  0  0  0
   -0.0304   12.8746   -3.8996 H   0  0  0  0  0  0  0  0  0  0  0  0
    3.5085   12.4895   -2.7536 H   0  0  0  0  0  0  0  0  0  0  0  0
    2.3593   11.7793   -3.9375 H   0  0  0  0  0  0  0  0  0  0  0  0
    2.6698   13.5485   -3.9375 H   0  0  0  0  0  0  0  0  0  0  0  0
  1  2  1  0
  2  3  1  0
  3  4  1  0
  4  5  1  0
  5  6  1  0
  6  7  1  0
  7  8  1  0
  7  9  1  0
  2 10  1  0
 10 11  1  0
 11 12  1  0
 12 13  1  0
 13 14  1  1
 13 15  1  0
 15 16  1  0
 16 17  1  0
 17 18  2  0
 18 19  1  0
 19 20  1  0
 20 21  1  0
 21 22  1  0
 22 23  1  0
 22 24  1  0
 24 25  1  0
 24 26  1  0
 19 27  1  0
 27 28  1  6
 27 29  1  0
 29 30  1  0
 30 31  1  0
 31 32  1  6
  7  5  1  0
 31 10  1  0
 31 13  1  0
 27 15  1  0
 24 18  1  0
  1 33  1  0
  1 34  1  0
  1 35  1  0
  2 36  1  6
  3 37  1  0
  3 38  1  0
  4 39  1  0
  4 40  1  0
  5 41  1  1
  8 42  1  0
  8 43  1  0
  8 44  1  0
  9 45  1  0
  9 46  1  0
  9 47  1  0
 10 48  1  1
 11 49  1  0
 11 50  1  0
 12 51  1  0
 12 52  1  0
 14 53  1  0
 14 54  1  0
 14 55  1  0
 15 56  1  6
 16 57  1  0
 16 58  1  0
 17 59  1  0
 19 60  1  1
 20 61  1  0
 20 62  1  0
 21 63  1  0
 21 64  1  0
 22 65  1  1
 23 66  1  0
 25 67  1  0
 25 68  1  0
 25 69  1  0
 26 70  1  0
 26 71  1  0
 26 72  1  0
 28 73  1  0
 28 74  1  0
 28 75  1  0
 29 76  1  0
 29 77  1  0
 30 78  1  0
 30 79  1  0
 32 80  1  0
 32 81  1  0
 32 82  1  0
M  END
>  <meeko>  (13) 
{"is_sidechain": [false], "intermolecular_energy": 2.731, "internal_energy": -0.839}

$$$$
EPH_relaxed_0001_pdb2pqr_Repair_163_r2_0001_out
     RDKit          3D

 82 86  0  0  0  0  0  0  0  0999 V2000
   -5.2350    5.8600   -1.3350 C   0  0  0  0  0  0  0  0  0  0  0  0
   -5.4280    7.3380   -1.6860 C   0  0  2  0  0  0  0  0  0  0  0  0
   -5.1210    8.2640   -0.4920 C   0  0  0  0  0  0  0  0  0  0  0  0
   -4.0780    9.3410   -0.8010 C   0  0  0  0  0  0  0  0  0  0  0  0
   -2.7030    8.9160   -0.3840 C   0  0  2  0  0  0  0  0  0  0  0  0
   -2.1460    9.6710    0.7000 O   0  0  0  0  0  0  0  0  0  0  0  0
   -1.4690    9.7820   -0.5630 C   0  0  0  0  0  0  0  0  0  0  0  0
   -1.5540   11.1420   -1.1810 C   0  0  0  0  0  0  0  0  0  0  0  0
   -0.1270    9.1190   -0.5870 C   0  0  0  0  0  0  0  0  0  0  0  0
   -6.8520    7.5730   -2.1760 C   0  0  1  0  0  0  0  0  0  0  0  0
   -7.1350    6.8920   -3.5410 C   0  0  0  0  0  0  0  0  0  0  0  0
   -8.6130    6.4240   -3.5100 C   0  0  0  0  0  0  0  0  0  0  0  0
   -9.2220    7.1350   -2.2790 C   0  0  1  0  0  0  0  0  0  0  0  0
   -9.5580    8.5770   -2.7740 C   0  0  0  0  0  0  0  0  0  0  0  0
  -10.4630    6.4450   -1.6260 C   0  0  2  0  0  0  0  0  0  0  0  0
  -11.7000    6.3320   -2.5340 C   0  0  0  0  0  0  0  0  0  0  0  0
  -12.6520    7.4800   -2.4600 C   0  0  0  0  0  0  0  0  0  0  0  0
  -12.6710    8.4200   -1.4960 C   0  0  0  0  0  0  0  0  0  0  0  0
  -11.7300    8.3280   -0.2880 C   0  0  1  0  0  0  0  0  0  0  0  0
  -12.5310    8.5970    1.0130 C   0  0  0  0  0  0  0  0  0  0  0  0
  -13.2950    9.9170    0.9680 C   0  0  0  0  0  0  0  0  0  0  0  0
  -14.2620    9.9460   -0.2130 C   0  0  2  0  0  0  0  0  0  0  0  0
  -15.2880    8.9730    0.0060 O   0  0  0  0  0  0  0  0  0  0  0  0
  -13.5700    9.6780   -1.5790 C   0  0  0  0  0  0  0  0  0  0  0  0
  -12.6790   10.8870   -1.9580 C   0  0  0  0  0  0  0  0  0  0  0  0
  -14.6750    9.5950   -2.6660 C   0  0  0  0  0  0  0  0  0  0  0  0
  -10.8440    7.0120   -0.1980 C   0  0  1  0  0  0  0  0  0  0  0  0
  -11.6370    5.8850    0.5320 C   0  0  0  0  0  0  0  0  0  0  0  0
   -9.5750    7.3060    0.6870 C   0  0  0  0  0  0  0  0  0  0  0  0
   -8.3400    7.8760   -0.0370 C   0  0  0  0  0  0  0  0  0  0  0  0
   -8.0070    7.0510   -1.2840 C   0  0  2  0  0  0  0  0  0  0  0  0
   -7.6430    5.6010   -0.8150 C   0  0  0  0  0  0  0  0  0  0  0  0
   -5.2196    5.7418   -0.2415 H   0  0  0  0  0  0  0  0  0  0  0  0
   -6.0640    5.2719   -1.7557 H   0  0  0  0  0  0  0  0  0  0  0  0
   -4.2828    5.5045   -1.7557 H   0  0  0  0  0  0  0  0  0  0  0  0
   -4.7140    7.5847   -2.4856 H   0  0  0  0  0  0  0  0  0  0  0  0
   -6.0543    8.7611   -0.1891 H   0  0  0  0  0  0  0  0  0  0  0  0
   -4.7040    7.6321    0.3060 H   0  0  0  0  0  0  0  0  0  0  0  0
   -4.0777    9.5370   -1.8834 H   0  0  0  0  0  0  0  0  0  0  0  0
   -4.3430   10.2472   -0.2366 H   0  0  0  0  0  0  0  0  0  0  0  0
   -2.9175    7.8720   -0.6561 H   0  0  0  0  0  0  0  0  0  0  0  0
   -1.6015   11.9028   -0.3879 H   0  0  0  0  0  0  0  0  0  0  0  0
   -0.6651   11.3175   -1.8047 H   0  0  0  0  0  0  0  0  0  0  0  0
   -2.4579   11.2055   -1.8047 H   0  0  0  0  0  0  0  0  0  0  0  0
    0.2166    8.9493    0.4441 H   0  0  0  0  0  0  0  0  0  0  0  0
   -0.2036    8.1551   -1.1114 H   0  0  0  0  0  0  0  0  0  0  0  0
    0.5921    9.7655   -1.1114 H   0  0  0  0  0  0  0  0  0  0  0  0
   -6.8599    8.6728   -2.1963 H   0  0  0  0  0  0  0  0  0  0  0  0
   -6.9819    7.6091   -4.3610 H   0  0  0  0  0  0  0  0  0  0  0  0
   -6.4555    6.0431   -3.7071 H   0  0  0  0  0  0  0  0  0  0  0  0
   -9.1351    6.7254   -4.4301 H   0  0  0  0  0  0  0  0  0  0  0  0
   -8.7026    5.3295   -3.4461 H   0  0  0  0  0  0  0  0  0  0  0  0
   -9.7115    9.2359   -1.9067 H   0  0  0  0  0  0  0  0  0  0  0  0
   -8.7249    8.9594   -3.3820 H   0  0  0  0  0  0  0  0  0  0  0  0
  -10.4743    8.5517   -3.3820 H   0  0  0  0  0  0  0  0  0  0  0  0
  -10.1076    5.4149   -1.4759 H   0  0  0  0  0  0  0  0  0  0  0  0
  -11.3517    6.2456   -3.5738 H   0  0  0  0  0  0  0  0  0  0  0  0
  -12.2570    5.4513   -2.1816 H   0  0  0  0  0  0  0  0  0  0  0  0
  -13.4013    7.5650   -3.2608 H   0  0  0  0  0  0  0  0  0  0  0  0
  -10.9738    9.1141   -0.4305 H   0  0  0  0  0  0  0  0  0  0  0  0
  -13.2506    7.7780    1.1596 H   0  0  0  0  0  0  0  0  0  0  0  0
  -11.8105    8.6566    1.8421 H   0  0  0  0  0  0  0  0  0  0  0  0
  -13.8635   10.0362    1.9021 H   0  0  0  0  0  0  0  0  0  0  0  0
  -12.5722   10.7379    0.8510 H   0  0  0  0  0  0  0  0  0  0  0  0
  -14.6830   10.9607   -0.2688 H   0  0  0  0  0  0  0  0  0  0  0  0
  -15.5230    8.5940   -0.8580 H   0  0  0  0  0  0  0  0  0  0  0  0
  -12.3175   11.3775   -1.0421 H   0  0  0  0  0  0  0  0  0  0  0  0
  -11.8203   10.5382   -2.5505 H   0  0  0  0  0  0  0  0  0  0  0  0
  -13.2664   11.6039   -2.5505 H   0  0  0  0  0  0  0  0  0  0  0  0
  -15.6602    9.5210   -2.1824 H   0  0  0  0  0  0  0  0  0  0  0  0
  -14.6412   10.4982   -3.2929 H   0  0  0  0  0  0  0  0  0  0  0  0
  -14.5066    8.7070   -3.2929 H   0  0  0  0  0  0  0  0  0  0  0  0
  -11.5441    6.0171    1.6201 H   0  0  0  0  0  0  0  0  0  0  0  0
  -12.6977    5.9383    0.2454 H   0  0  0  0  0  0  0  0  0  0  0  0
  -11.2286    4.9046    0.2454 H   0  0  0  0  0  0  0  0  0  0  0  0
   -9.8698    8.0292    1.4617 H   0  0  0  0  0  0  0  0  0  0  0  0
   -9.2571    6.3248    1.0694 H   0  0  0  0  0  0  0  0  0  0  0  0
   -8.5457    8.9142   -0.3366 H   0  0  0  0  0  0  0  0  0  0  0  0
   -7.4814    7.8366    0.6495 H   0  0  0  0  0  0  0  0  0  0  0  0
   -7.6334    5.5628    0.2843 H   0  0  0  0  0  0  0  0  0  0  0  0
   -8.3911    4.8924   -1.2000 H   0  0  0  0  0  0  0  0  0  0  0  0
   -6.6489    5.3298   -1.2000 H   0  0  0  0  0  0  0  0  0  0  0  0
  1  2  1  0
  2  3  1  0
  3  4  1  0
  4  5  1  0
  5  6  1  0
  6  7  1  0
  7  8  1  0
  7  9  1  0
  2 10  1  0
 10 11  1  0
 11 12  1  0
 12 13  1  0
 13 14  1  6
 13 15  1  0
 15 16  1  0
 16 17  1  0
 17 18  2  0
 18 19  1  0
 19 20  1  0
 20 21  1  0
 21 22  1  0
 22 23  1  0
 22 24  1  0
 24 25  1  0
 24 26  1  0
 19 27  1  0
 27 28  1  1
 27 29  1  0
 29 30  1  0
 30 31  1  0
 31 32  1  1
  7  5  1  0
 31 10  1  0
 31 13  1  0
 27 15  1  0
 24 18  1  0
  1 33  1  0
  1 34  1  0
  1 35  1  0
  2 36  1  6
  3 37  1  0
  3 38  1  0
  4 39  1  0
  4 40  1  0
  5 41  1  1
  8 42  1  0
  8 43  1  0
  8 44  1  0
  9 45  1  0
  9 46  1  0
  9 47  1  0
 10 48  1  6
 11 49  1  0
 11 50  1  0
 12 51  1  0
 12 52  1  0
 14 53  1  0
 14 54  1  0
 14 55  1  0
 15 56  1  1
 16 57  1  0
 16 58  1  0
 17 59  1  0
 19 60  1  6
 20 61  1  0
 20 62  1  0
 21 63  1  0
 21 64  1  0
 22 65  1  6
 23 66  1  0
 25 67  1  0
 25 68  1  0
 25 69  1  0
 26 70  1  0
 26 71  1  0
 26 72  1  0
 28 73  1  0
 28 74  1  0
 28 75  1  0
 29 76  1  0
 29 77  1  0
 30 78  1  0
 30 79  1  0
 32 80  1  0
 32 81  1  0
 32 82  1  0
M  END
>  <meeko>  (14) 
{"is_sidechain": [false], "intermolecular_energy": 2.731, "internal_energy": -0.839}

$$$$
EPH_relaxed_0001_pdb2pqr_Repair_163_r2_0001_out
     RDKit          3D

 82 86  0  0  0  0  0  0  0  0999 V2000
    0.8530   14.8230   -2.6250 C   0  0  0  0  0  0  0  0  0  0  0  0
    1.1460   14.1340   -3.9600 C   0  0  2  0  0  0  0  0  0  0  0  0
    0.4770   14.8570   -5.1460 C   0  0  0  0  0  0  0  0  0  0  0  0
    1.1620   14.5980   -6.4910 C   0  0  0  0  0  0  0  0  0  0  0  0
    0.8970   15.7010   -7.4700 C   0  0  2  0  0  0  0  0  0  0  0  0
    0.3880   15.2670   -8.7380 O   0  0  0  0  0  0  0  0  0  0  0  0
    1.6840   15.8870   -8.7540 C   0  0  0  0  0  0  0  0  0  0  0  0
    2.7970   14.9590   -9.1280 C   0  0  0  0  0  0  0  0  0  0  0  0
    1.6970   17.2390   -9.3960 C   0  0  0  0  0  0  0  0  0  0  0  0
    0.6830   12.6820   -3.9080 C   0  0  1  0  0  0  0  0  0  0  0  0
    1.8100   11.6820   -4.2800 C   0  0  0  0  0  0  0  0  0  0  0  0
    1.5930   10.4200   -3.4060 C   0  0  0  0  0  0  0  0  0  0  0  0
    0.1770   10.5950   -2.8110 C   0  0  1  0  0  0  0  0  0  0  0  0
   -0.7940   10.1330   -3.9430 C   0  0  0  0  0  0  0  0  0  0  0  0
   -0.1060    9.8480   -1.4670 C   0  0  2  0  0  0  0  0  0  0  0  0
   -0.0130    8.3140   -1.5420 C   0  0  0  0  0  0  0  0  0  0  0  0
   -1.2880    7.6130   -1.8740 C   0  0  0  0  0  0  0  0  0  0  0  0
   -2.5170    8.1600   -1.8250 C   0  0  0  0  0  0  0  0  0  0  0  0
   -2.7230    9.5900   -1.3070 C   0  0  1  0  0  0  0  0  0  0  0  0
   -3.9110    9.6140   -0.3100 C   0  0  0  0  0  0  0  0  0  0  0  0
   -5.1840    9.0190   -0.9020 C   0  0  0  0  0  0  0  0  0  0  0  0
   -4.9560    7.5780   -1.3520 C   0  0  2  0  0  0  0  0  0  0  0  0
   -4.7130    6.7680   -0.1970 O   0  0  0  0  0  0  0  0  0  0  0  0
   -3.7760    7.4280   -2.3520 C   0  0  0  0  0  0  0  0  0  0  0  0
   -4.1660    8.0530   -3.7150 C   0  0  0  0  0  0  0  0  0  0  0  0
   -3.5620    5.9130   -2.6150 C   0  0  0  0  0  0  0  0  0  0  0  0
   -1.4290   10.3120   -0.7330 C   0  0  1  0  0  0  0  0  0  0  0  0
   -1.2480    9.9600    0.7750 C   0  0  0  0  0  0  0  0  0  0  0  0
   -1.6360   11.8710   -0.8030 C   0  0  0  0  0  0  0  0  0  0  0  0
   -1.2270   12.5680   -2.1150 C   0  0  0  0  0  0  0  0  0  0  0  0
    0.1810   12.1450   -2.5450 C   0  0  2  0  0  0  0  0  0  0  0  0
    1.1820   12.6160   -1.4360 C   0  0  0  0  0  0  0  0  0  0  0  0
    1.1368   14.1556   -1.7979 H   0  0  0  0  0  0  0  0  0  0  0  0
    1.4323   15.7557   -2.5588 H   0  0  0  0  0  0  0  0  0  0  0  0
   -0.2207   15.0528   -2.5588 H   0  0  0  0  0  0  0  0  0  0  0  0
    2.2336   14.1727   -4.1204 H   0  0  0  0  0  0  0  0  0  0  0  0
   -0.5665   14.5162   -5.2165 H   0  0  0  0  0  0  0  0  0  0  0  0
    0.5538   15.9365   -4.9489 H   0  0  0  0  0  0  0  0  0  0  0  0
    2.2471   14.5185   -6.3288 H   0  0  0  0  0  0  0  0  0  0  0  0
    0.7560   13.6647   -6.9082 H   0  0  0  0  0  0  0  0  0  0  0  0
    0.6396   16.3939   -6.6554 H   0  0  0  0  0  0  0  0  0  0  0  0
    3.2687   14.5657   -8.2154 H   0  0  0  0  0  0  0  0  0  0  0  0
    2.3950   14.1248   -9.7217 H   0  0  0  0  0  0  0  0  0  0  0  0
    3.5453   15.5044   -9.7217 H   0  0  0  0  0  0  0  0  0  0  0  0
    1.7045   18.0150   -8.6164 H   0  0  0  0  0  0  0  0  0  0  0  0
    2.5961   17.3392  -10.0217 H   0  0  0  0  0  0  0  0  0  0  0  0
    0.7999   17.3564  -10.0217 H   0  0  0  0  0  0  0  0  0  0  0  0
   -0.1506   12.7280   -4.6243 H   0  0  0  0  0  0  0  0  0  0  0  0
    1.7472   11.4198   -5.3465 H   0  0  0  0  0  0  0  0  0  0  0  0
    2.8028   12.1207   -4.1014 H   0  0  0  0  0  0  0  0  0  0  0  0
    1.6461    9.5088   -4.0200 H   0  0  0  0  0  0  0  0  0  0  0  0
    2.3624   10.3155   -2.6268 H   0  0  0  0  0  0  0  0  0  0  0  0
   -1.7010    9.7014   -3.4946 H   0  0  0  0  0  0  0  0  0  0  0  0
   -1.0684   10.9971   -4.5660 H   0  0  0  0  0  0  0  0  0  0  0  0
   -0.2967    9.3750   -4.5660 H   0  0  0  0  0  0  0  0  0  0  0  0
    0.7368   10.1683   -0.8368 H   0  0  0  0  0  0  0  0  0  0  0  0
    0.7275    8.0558   -2.3133 H   0  0  0  0  0  0  0  0  0  0  0  0
    0.2656    7.9766   -0.5328 H   0  0  0  0  0  0  0  0  0  0  0  0
   -1.2175    6.5603   -2.1851 H   0  0  0  0  0  0  0  0  0  0  0  0
   -2.9647   10.2013   -2.1890 H   0  0  0  0  0  0  0  0  0  0  0  0
   -3.6334    9.0349    0.5831 H   0  0  0  0  0  0  0  0  0  0  0  0
   -4.1179   10.6657   -0.0628 H   0  0  0  0  0  0  0  0  0  0  0  0
   -5.9775    9.0368   -0.1404 H   0  0  0  0  0  0  0  0  0  0  0  0
   -5.4767    9.6175   -1.7773 H   0  0  0  0  0  0  0  0  0  0  0  0
   -5.8616    7.2511   -1.8840 H   0  0  0  0  0  0  0  0  0  0  0  0
   -5.4900    6.1970   -0.0690 H   0  0  0  0  0  0  0  0  0  0  0  0
   -4.7413    8.9749   -3.5444 H   0  0  0  0  0  0  0  0  0  0  0  0
   -3.2548    8.2894   -4.2841 H   0  0  0  0  0  0  0  0  0  0  0  0
   -4.7788    7.3384   -4.2841 H   0  0  0  0  0  0  0  0  0  0  0  0
   -3.4869    5.3812   -1.6550 H   0  0  0  0  0  0  0  0  0  0  0  0
   -4.4131    5.5165   -3.1882 H   0  0  0  0  0  0  0  0  0  0  0  0
   -2.6344    5.7678   -3.1882 H   0  0  0  0  0  0  0  0  0  0  0  0
   -1.6641   10.7693    1.3929 H   0  0  0  0  0  0  0  0  0  0  0  0
   -1.7748    9.0205    0.9980 H   0  0  0  0  0  0  0  0  0  0  0  0
   -0.1773    9.8419    0.9980 H   0  0  0  0  0  0  0  0  0  0  0  0
   -2.7048   12.0725   -0.6383 H   0  0  0  0  0  0  0  0  0  0  0  0
   -0.9652   12.2851   -0.0358 H   0  0  0  0  0  0  0  0  0  0  0  0
   -1.9418   12.2951   -2.9054 H   0  0  0  0  0  0  0  0  0  0  0  0
   -1.2314   13.6556   -1.9504 H   0  0  0  0  0  0  0  0  0  0  0  0
    0.7519   12.4136   -0.4440 H   0  0  0  0  0  0  0  0  0  0  0  0
    2.1309   12.0699   -1.5426 H   0  0  0  0  0  0  0  0  0  0  0  0
    1.3661   13.6952   -1.5426 H   0  0  0  0  0  0  0  0  0  0  0  0
  1  2  1  0
  2  3  1  0
  3  4  1  0
  4  5  1  0
  5  6  1  0
  6  7  1  0
  7  8  1  0
  7  9  1  0
  2 10  1  0
 10 11  1  0
 11 12  1  0
 12 13  1  0
 13 14  1  6
 13 15  1  0
 15 16  1  0
 16 17  1  0
 17 18  2  0
 18 19  1  0
 19 20  1  0
 20 21  1  0
 21 22  1  0
 22 23  1  0
 22 24  1  0
 24 25  1  0
 24 26  1  0
 19 27  1  0
 27 28  1  1
 27 29  1  0
 29 30  1  0
 30 31  1  0
 31 32  1  1
  7  5  1  0
 31 10  1  0
 31 13  1  0
 27 15  1  0
 24 18  1  0
  1 33  1  0
  1 34  1  0
  1 35  1  0
  2 36  1  6
  3 37  1  0
  3 38  1  0
  4 39  1  0
  4 40  1  0
  5 41  1  1
  8 42  1  0
  8 43  1  0
  8 44  1  0
  9 45  1  0
  9 46  1  0
  9 47  1  0
 10 48  1  6
 11 49  1  0
 11 50  1  0
 12 51  1  0
 12 52  1  0
 14 53  1  0
 14 54  1  0
 14 55  1  0
 15 56  1  1
 16 57  1  0
 16 58  1  0
 17 59  1  0
 19 60  1  6
 20 61  1  0
 20 62  1  0
 21 63  1  0
 21 64  1  0
 22 65  1  6
 23 66  1  0
 25 67  1  0
 25 68  1  0
 25 69  1  0
 26 70  1  0
 26 71  1  0
 26 72  1  0
 28 73  1  0
 28 74  1  0
 28 75  1  0
 29 76  1  0
 29 77  1  0
 30 78  1  0
 30 79  1  0
 32 80  1  0
 32 81  1  0
 32 82  1  0
M  END
>  <meeko>  (15) 
{"is_sidechain": [false], "intermolecular_energy": 2.731, "internal_energy": -0.839}

$$$$
EPH_relaxed_0001_pdb2pqr_Repair_163_r2_0001_out
     RDKit          3D

 82 86  0  0  0  0  0  0  0  0999 V2000
   -1.7420   14.8080    0.4320 C   0  0  0  0  0  0  0  0  0  0  0  0
   -0.3920   15.5130    0.2740 C   0  0  2  0  0  0  0  0  0  0  0  0
   -0.4150   16.5660   -0.8520 C   0  0  0  0  0  0  0  0  0  0  0  0
   -0.1300   17.9910   -0.3690 C   0  0  0  0  0  0  0  0  0  0  0  0
    1.3030   18.1640    0.0330 C   0  0  2  0  0  0  0  0  0  0  0  0
    1.8930   19.4060   -0.3740 O   0  0  0  0  0  0  0  0  0  0  0  0
    2.4490   18.2180   -0.9590 C   0  0  0  0  0  0  0  0  0  0  0  0
    2.2130   18.0970   -2.4320 C   0  0  0  0  0  0  0  0  0  0  0  0
    3.8300   17.8970   -0.4760 C   0  0  0  0  0  0  0  0  0  0  0  0
    0.7020   14.4860    0.0050 C   0  0  1  0  0  0  0  0  0  0  0  0
    0.8510   13.4570    1.1560 C   0  0  0  0  0  0  0  0  0  0  0  0
    1.2280   12.1030    0.5000 C   0  0  0  0  0  0  0  0  0  0  0  0
    1.6070   12.4670   -0.9540 C   0  0  1  0  0  0  0  0  0  0  0  0
    3.0790   12.9800   -0.8700 C   0  0  0  0  0  0  0  0  0  0  0  0
    1.4520   11.3280   -2.0140 C   0  0  2  0  0  0  0  0  0  0  0  0
    2.3460   10.0970   -1.7830 C   0  0  0  0  0  0  0  0  0  0  0  0
    3.6830   10.1460   -2.4450 C   0  0  0  0  0  0  0  0  0  0  0  0
    4.0420   11.0010   -3.4200 C   0  0  0  0  0  0  0  0  0  0  0  0
    3.0250   11.9780   -4.0250 C   0  0  1  0  0  0  0  0  0  0  0  0
    3.1340   11.9470   -5.5720 C   0  0  0  0  0  0  0  0  0  0  0  0
    4.5540   12.2050   -6.0640 C   0  0  0  0  0  0  0  0  0  0  0  0
    5.5260   11.1780   -5.4880 C   0  0  2  0  0  0  0  0  0  0  0  0
    5.2120    9.8910   -6.0300 O   0  0  0  0  0  0  0  0  0  0  0  0
    5.4980   11.1120   -3.9350 C   0  0  0  0  0  0  0  0  0  0  0  0
    6.1240   12.4020   -3.3480 C   0  0  0  0  0  0  0  0  0  0  0  0
    6.4170    9.9430   -3.4900 C   0  0  0  0  0  0  0  0  0  0  0  0
    1.5280   11.8240   -3.5150 C   0  0  1  0  0  0  0  0  0  0  0  0
    0.7800   10.7590   -4.3740 C   0  0  0  0  0  0  0  0  0  0  0  0
    0.7670   13.1850   -3.7340 C   0  0  0  0  0  0  0  0  0  0  0  0
    0.8600   14.2230   -2.6000 C   0  0  0  0  0  0  0  0  0  0  0  0
    0.5400   13.5850   -1.2450 C   0  0  2  0  0  0  0  0  0  0  0  0
   -0.9420   13.0800   -1.2920 C   0  0  0  0  0  0  0  0  0  0  0  0
   -1.9704   14.6887    1.5014 H   0  0  0  0  0  0  0  0  0  0  0  0
   -2.5285   15.4105   -0.0459 H   0  0  0  0  0  0  0  0  0  0  0  0
   -1.6970   13.8183   -0.0459 H   0  0  0  0  0  0  0  0  0  0  0  0
   -0.1823   16.0416    1.2156 H   0  0  0  0  0  0  0  0  0  0  0  0
    0.3463   16.2935   -1.5978 H   0  0  0  0  0  0  0  0  0  0  0  0
   -1.4322   16.5662   -1.2708 H   0  0  0  0  0  0  0  0  0  0  0  0
   -0.3597   18.6955   -1.1820 H   0  0  0  0  0  0  0  0  0  0  0  0
   -0.7591   18.1866    0.5119 H   0  0  0  0  0  0  0  0  0  0  0  0
    1.1438   17.5696    0.9448 H   0  0  0  0  0  0  0  0  0  0  0  0
    1.2469   17.6017   -2.6091 H   0  0  0  0  0  0  0  0  0  0  0  0
    2.1995   19.0994   -2.8848 H   0  0  0  0  0  0  0  0  0  0  0  0
    3.0191   17.5010   -2.8848 H   0  0  0  0  0  0  0  0  0  0  0  0
    3.8423   17.8941    0.6239 H   0  0  0  0  0  0  0  0  0  0  0  0
    4.1276   16.9057   -0.8486 H   0  0  0  0  0  0  0  0  0  0  0  0
    4.5343   18.6554   -0.8486 H   0  0  0  0  0  0  0  0  0  0  0  0
    1.5603   15.1612   -0.1271 H   0  0  0  0  0  0  0  0  0  0  0  0
    1.6436   13.7759    1.8489 H   0  0  0  0  0  0  0  0  0  0  0  0
   -0.0823   13.3706    1.7317 H   0  0  0  0  0  0  0  0  0  0  0  0
    2.0812   11.6435    1.0204 H   0  0  0  0  0  0  0  0  0  0  0  0
    0.4062   11.3733    0.5470 H   0  0  0  0  0  0  0  0  0  0  0  0
    3.3720   13.0821    0.1853 H   0  0  0  0  0  0  0  0  0  0  0  0
    3.7467   12.2616   -1.3681 H   0  0  0  0  0  0  0  0  0  0  0  0
    3.1555   13.9578   -1.3681 H   0  0  0  0  0  0  0  0  0  0  0  0
    0.4207   10.9854   -1.8435 H   0  0  0  0  0  0  0  0  0  0  0  0
    2.5068    9.9923   -0.6999 H   0  0  0  0  0  0  0  0  0  0  0  0
    1.8144    9.2462   -2.2341 H   0  0  0  0  0  0  0  0  0  0  0  0
    4.4388    9.4217   -2.1071 H   0  0  0  0  0  0  0  0  0  0  0  0
    3.3017   12.9751   -3.6517 H   0  0  0  0  0  0  0  0  0  0  0  0
    2.8118   10.9574   -5.9283 H   0  0  0  0  0  0  0  0  0  0  0  0
    2.4930   12.7486   -5.9677 H   0  0  0  0  0  0  0  0  0  0  0  0
    4.5717   12.1412   -7.1620 H   0  0  0  0  0  0  0  0  0  0  0  0
    4.8641   13.2068   -5.7319 H   0  0  0  0  0  0  0  0  0  0  0  0
    6.5421   11.4907   -5.7705 H   0  0  0  0  0  0  0  0  0  0  0  0
    4.3020    9.6750   -5.7660 H   0  0  0  0  0  0  0  0  0  0  0  0
    6.1006   12.3538   -2.2493 H   0  0  0  0  0  0  0  0  0  0  0  0
    7.1659   12.4919   -3.6890 H   0  0  0  0  0  0  0  0  0  0  0  0
    5.5499   13.2761   -3.6890 H   0  0  0  0  0  0  0  0  0  0  0  0
    6.4503    9.9006   -2.3913 H   0  0  0  0  0  0  0  0  0  0  0  0
    6.0199    8.9949   -3.8817 H   0  0  0  0  0  0  0  0  0  0  0  0
    7.4321   10.1050   -3.8817 H   0  0  0  0  0  0  0  0  0  0  0  0
    0.2758   10.0411   -3.7104 H   0  0  0  0  0  0  0  0  0  0  0  0
    0.0333   11.2585   -5.0088 H   0  0  0  0  0  0  0  0  0  0  0  0
    1.5033   10.2261   -5.0088 H   0  0  0  0  0  0  0  0  0  0  0  0
    1.1722   13.6500   -4.6448 H   0  0  0  0  0  0  0  0  0  0  0  0
   -0.2976   12.9138   -3.7893 H   0  0  0  0  0  0  0  0  0  0  0  0
    1.8796   14.6349   -2.5720 H   0  0  0  0  0  0  0  0  0  0  0  0
    0.1276   15.0206   -2.7937 H   0  0  0  0  0  0  0  0  0  0  0  0
   -1.3184   12.9518   -0.2664 H   0  0  0  0  0  0  0  0  0  0  0  0
   -1.5639   13.8169   -1.8213 H   0  0  0  0  0  0  0  0  0  0  0  0
   -0.9845   12.1167   -1.8213 H   0  0  0  0  0  0  0  0  0  0  0  0
  1  2  1  0
  2  3  1  0
  3  4  1  0
  4  5  1  0
  5  6  1  0
  6  7  1  0
  7  8  1  0
  7  9  1  0
  2 10  1  0
 10 11  1  0
 11 12  1  0
 12 13  1  0
 13 14  1  1
 13 15  1  0
 15 16  1  0
 16 17  1  0
 17 18  2  0
 18 19  1  0
 19 20  1  0
 20 21  1  0
 21 22  1  0
 22 23  1  0
 22 24  1  0
 24 25  1  0
 24 26  1  0
 19 27  1  0
 27 28  1  6
 27 29  1  0
 29 30  1  0
 30 31  1  0
 31 32  1  6
  7  5  1  0
 31 10  1  0
 31 13  1  0
 27 15  1  0
 24 18  1  0
  1 33  1  0
  1 34  1  0
  1 35  1  0
  2 36  1  1
  3 37  1  0
  3 38  1  0
  4 39  1  0
  4 40  1  0
  5 41  1  1
  8 42  1  0
  8 43  1  0
  8 44  1  0
  9 45  1  0
  9 46  1  0
  9 47  1  0
 10 48  1  6
 11 49  1  0
 11 50  1  0
 12 51  1  0
 12 52  1  0
 14 53  1  0
 14 54  1  0
 14 55  1  0
 15 56  1  6
 16 57  1  0
 16 58  1  0
 17 59  1  0
 19 60  1  1
 20 61  1  0
 20 62  1  0
 21 63  1  0
 21 64  1  0
 22 65  1  1
 23 66  1  0
 25 67  1  0
 25 68  1  0
 25 69  1  0
 26 70  1  0
 26 71  1  0
 26 72  1  0
 28 73  1  0
 28 74  1  0
 28 75  1  0
 29 76  1  0
 29 77  1  0
 30 78  1  0
 30 79  1  0
 32 80  1  0
 32 81  1  0
 32 82  1  0
M  END
>  <meeko>  (16) 
{"is_sidechain": [false], "intermolecular_energy": 2.731, "internal_energy": -0.839}

$$$$
EPH_relaxed_0001_pdb2pqr_Repair_163_r2_0001_out
     RDKit          3D

 82 86  0  0  0  0  0  0  0  0999 V2000
  -14.3710    5.4880    0.4680 C   0  0  0  0  0  0  0  0  0  0  0  0
  -13.8330    6.9120    0.3040 C   0  0  2  0  0  0  0  0  0  0  0  0
  -14.9530    7.9210   -0.0200 C   0  0  0  0  0  0  0  0  0  0  0  0
  -14.5370    9.3830    0.1660 C   0  0  0  0  0  0  0  0  0  0  0  0
  -15.2590   10.2910   -0.7820 C   0  0  2  0  0  0  0  0  0  0  0  0
  -15.1370    9.9310   -2.1650 O   0  0  0  0  0  0  0  0  0  0  0  0
  -14.5540   11.1880   -1.7830 C   0  0  0  0  0  0  0  0  0  0  0  0
  -13.0610   11.2220   -1.8830 C   0  0  0  0  0  0  0  0  0  0  0  0
  -15.2870   12.3790   -2.3160 C   0  0  0  0  0  0  0  0  0  0  0  0
  -12.7710    6.9440   -0.7880 C   0  0  1  0  0  0  0  0  0  0  0  0
  -13.1340    7.9110   -1.9470 C   0  0  0  0  0  0  0  0  0  0  0  0
  -11.8030    8.5300   -2.4450 C   0  0  0  0  0  0  0  0  0  0  0  0
  -10.7000    7.6630   -1.7930 C   0  0  1  0  0  0  0  0  0  0  0  0
  -10.5970    6.3970   -2.7010 C   0  0  0  0  0  0  0  0  0  0  0  0
   -9.3090    8.3480   -1.5960 C   0  0  2  0  0  0  0  0  0  0  0  0
   -8.6050    8.7800   -2.8950 C   0  0  0  0  0  0  0  0  0  0  0  0
   -7.7020    7.7580   -3.5020 C   0  0  0  0  0  0  0  0  0  0  0  0
   -7.2430    6.6540   -2.8830 C   0  0  0  0  0  0  0  0  0  0  0  0
   -7.5510    6.3950   -1.4030 C   0  0  1  0  0  0  0  0  0  0  0  0
   -6.2520    5.9660   -0.6710 C   0  0  0  0  0  0  0  0  0  0  0  0
   -5.5680    4.7790   -1.3410 C   0  0  0  0  0  0  0  0  0  0  0  0
   -5.2250    5.0960   -2.7940 C   0  0  2  0  0  0  0  0  0  0  0  0
   -4.2230    6.1180   -2.8190 O   0  0  0  0  0  0  0  0  0  0  0  0
   -6.4550    5.5490   -3.6290 C   0  0  0  0  0  0  0  0  0  0  0  0
   -7.4020    4.3450   -3.8560 C   0  0  0  0  0  0  0  0  0  0  0  0
   -5.9480    5.9730   -5.0340 C   0  0  0  0  0  0  0  0  0  0  0  0
   -8.3260    7.5560   -0.6420 C   0  0  1  0  0  0  0  0  0  0  0  0
   -7.3080    8.5990   -0.0860 C   0  0  0  0  0  0  0  0  0  0  0  0
   -9.0660    6.9470    0.6070 C   0  0  0  0  0  0  0  0  0  0  0  0
  -10.4850    6.3950    0.3730 C   0  0  0  0  0  0  0  0  0  0  0  0
  -11.3490    7.4080   -0.3840 C   0  0  2  0  0  0  0  0  0  0  0  0
  -11.4900    8.6840    0.5140 C   0  0  0  0  0  0  0  0  0  0  0  0
  -14.4606    5.2509    1.5384 H   0  0  0  0  0  0  0  0  0  0  0  0
  -15.3597    5.4124   -0.0083 H   0  0  0  0  0  0  0  0  0  0  0  0
  -13.6793    4.7776   -0.0083 H   0  0  0  0  0  0  0  0  0  0  0  0
  -13.3870    7.2103    1.2643 H   0  0  0  0  0  0  0  0  0  0  0  0
  -15.2578    7.7772   -1.0671 H   0  0  0  0  0  0  0  0  0  0  0  0
  -15.7739    7.7279    0.6863 H   0  0  0  0  0  0  0  0  0  0  0  0
  -14.7658    9.6900    1.1972 H   0  0  0  0  0  0  0  0  0  0  0  0
  -13.4592    9.4609   -0.0394 H   0  0  0  0  0  0  0  0  0  0  0  0
  -16.0389   10.4922   -0.0328 H   0  0  0  0  0  0  0  0  0  0  0  0
  -12.6260   11.2319   -0.8727 H   0  0  0  0  0  0  0  0  0  0  0  0
  -12.7094   10.3316   -2.4249 H   0  0  0  0  0  0  0  0  0  0  0  0
  -12.7503   12.1275   -2.4249 H   0  0  0  0  0  0  0  0  0  0  0  0
  -15.6602   12.9853   -1.4775 H   0  0  0  0  0  0  0  0  0  0  0  0
  -14.6049   12.9843   -2.9311 H   0  0  0  0  0  0  0  0  0  0  0  0
  -16.1347   12.0428   -2.9311 H   0  0  0  0  0  0  0  0  0  0  0  0
  -12.7555    5.8785   -1.0610 H   0  0  0  0  0  0  0  0  0  0  0  0
  -13.6234    7.3583   -2.7625 H   0  0  0  0  0  0  0  0  0  0  0  0
  -13.8304    8.6917   -1.6071 H   0  0  0  0  0  0  0  0  0  0  0  0
  -11.7382    8.4801   -3.5420 H   0  0  0  0  0  0  0  0  0  0  0  0
  -11.7112    9.5926   -2.1759 H   0  0  0  0  0  0  0  0  0  0  0  0
  -10.5239    5.4986   -2.0705 H   0  0  0  0  0  0  0  0  0  0  0  0
  -11.4925    6.3274   -3.3361 H   0  0  0  0  0  0  0  0  0  0  0  0
   -9.7021    6.4731   -3.3361 H   0  0  0  0  0  0  0  0  0  0  0  0
   -9.5761    9.2800   -1.0763 H   0  0  0  0  0  0  0  0  0  0  0  0
   -9.3800    9.0306   -3.6343 H   0  0  0  0  0  0  0  0  0  0  0  0
   -7.9625    9.6307   -2.6241 H   0  0  0  0  0  0  0  0  0  0  0  0
   -7.3849    7.9206   -4.5427 H   0  0  0  0  0  0  0  0  0  0  0  0
   -8.2796    5.5711   -1.3838 H   0  0  0  0  0  0  0  0  0  0  0  0
   -5.5544    6.8165   -0.6630 H   0  0  0  0  0  0  0  0  0  0  0  0
   -6.5289    5.6599    0.3486 H   0  0  0  0  0  0  0  0  0  0  0  0
   -4.6423    4.5423   -0.7960 H   0  0  0  0  0  0  0  0  0  0  0  0
   -6.2558    3.9208   -1.3218 H   0  0  0  0  0  0  0  0  0  0  0  0
   -4.8572    4.1680   -3.2561 H   0  0  0  0  0  0  0  0  0  0  0  0
   -4.0360    6.3230   -3.7510 H   0  0  0  0  0  0  0  0  0  0  0  0
   -7.7202    3.9404   -2.8839 H   0  0  0  0  0  0  0  0  0  0  0  0
   -8.2852    4.6749   -4.4227 H   0  0  0  0  0  0  0  0  0  0  0  0
   -6.8733    3.5644   -4.4227 H   0  0  0  0  0  0  0  0  0  0  0  0
   -5.1084    6.6752   -4.9243 H   0  0  0  0  0  0  0  0  0  0  0  0
   -5.6120    5.0831   -5.5865 H   0  0  0  0  0  0  0  0  0  0  0  0
   -6.7644    6.4611   -5.5865 H   0  0  0  0  0  0  0  0  0  0  0  0
   -7.3269    8.5796    1.0137 H   0  0  0  0  0  0  0  0  0  0  0  0
   -6.2969    8.3491   -0.4398 H   0  0  0  0  0  0  0  0  0  0  0  0
   -7.5824    9.6038   -0.4398 H   0  0  0  0  0  0  0  0  0  0  0  0
   -8.4473    6.1224    0.9909 H   0  0  0  0  0  0  0  0  0  0  0  0
   -9.1959    7.7888    1.3031 H   0  0  0  0  0  0  0  0  0  0  0  0
  -10.4181    5.4681   -0.2156 H   0  0  0  0  0  0  0  0  0  0  0  0
  -10.9503    6.1978    1.3500 H   0  0  0  0  0  0  0  0  0  0  0  0
  -11.4577    8.3918    1.5740 H   0  0  0  0  0  0  0  0  0  0  0  0
  -10.6629    9.3767    0.2993 H   0  0  0  0  0  0  0  0  0  0  0  0
  -12.4484    9.1794    0.2993 H   0  0  0  0  0  0  0  0  0  0  0  0
  1  2  1  0
  2  3  1  0
  3  4  1  0
  4  5  1  0
  5  6  1  0
  6  7  1  0
  7  8  1  0
  7  9  1  0
  2 10  1  0
 10 11  1  0
 11 12  1  0
 12 13  1  0
 13 14  1  6
 13 15  1  0
 15 16  1  0
 16 17  1  0
 17 18  2  0
 18 19  1  0
 19 20  1  0
 20 21  1  0
 21 22  1  0
 22 23  1  0
 22 24  1  0
 24 25  1  0
 24 26  1  0
 19 27  1  0
 27 28  1  1
 27 29  1  0
 29 30  1  0
 30 31  1  0
 31 32  1  1
  7  5  1  0
 31 10  1  0
 31 13  1  0
 27 15  1  0
 24 18  1  0
  1 33  1  0
  1 34  1  0
  1 35  1  0
  2 36  1  1
  3 37  1  0
  3 38  1  0
  4 39  1  0
  4 40  1  0
  5 41  1  1
  8 42  1  0
  8 43  1  0
  8 44  1  0
  9 45  1  0
  9 46  1  0
  9 47  1  0
 10 48  1  6
 11 49  1  0
 11 50  1  0
 12 51  1  0
 12 52  1  0
 14 53  1  0
 14 54  1  0
 14 55  1  0
 15 56  1  1
 16 57  1  0
 16 58  1  0
 17 59  1  0
 19 60  1  6
 20 61  1  0
 20 62  1  0
 21 63  1  0
 21 64  1  0
 22 65  1  6
 23 66  1  0
 25 67  1  0
 25 68  1  0
 25 69  1  0
 26 70  1  0
 26 71  1  0
 26 72  1  0
 28 73  1  0
 28 74  1  0
 28 75  1  0
 29 76  1  0
 29 77  1  0
 30 78  1  0
 30 79  1  0
 32 80  1  0
 32 81  1  0
 32 82  1  0
M  END
>  <meeko>  (17) 
{"is_sidechain": [false], "intermolecular_energy": 2.731, "internal_energy": -0.839}

$$$$
EPH_relaxed_0001_pdb2pqr_Repair_163_r2_0001_out
     RDKit          3D

 82 86  0  0  0  0  0  0  0  0999 V2000
   -2.6120    7.8470   -0.1260 C   0  0  0  0  0  0  0  0  0  0  0  0
   -3.1920    9.2640   -0.0960 C   0  0  2  0  0  0  0  0  0  0  0  0
   -4.6820    9.2910   -0.4910 C   0  0  0  0  0  0  0  0  0  0  0  0
   -5.2100    7.9440   -0.9930 C   0  0  0  0  0  0  0  0  0  0  0  0
   -6.6930    7.9740   -1.2060 C   0  0  2  0  0  0  0  0  0  0  0  0
   -7.3680    6.7490   -0.8920 O   0  0  0  0  0  0  0  0  0  0  0  0
   -7.4020    7.1570   -2.2690 C   0  0  0  0  0  0  0  0  0  0  0  0
   -6.6470    6.2520   -3.1910 C   0  0  0  0  0  0  0  0  0  0  0  0
   -8.7540    7.6040   -2.7320 C   0  0  0  0  0  0  0  0  0  0  0  0
   -2.3910   10.1730   -1.0220 C   0  0  1  0  0  0  0  0  0  0  0  0
   -2.9890   11.6020   -1.1190 C   0  0  0  0  0  0  0  0  0  0  0  0
   -1.7930   12.5780   -1.2640 C   0  0  0  0  0  0  0  0  0  0  0  0
   -0.5820   11.6680   -1.5770 C   0  0  1  0  0  0  0  0  0  0  0  0
   -0.6880   11.3720   -3.1060 C   0  0  0  0  0  0  0  0  0  0  0  0
    0.8240   12.2330   -1.1950 C   0  0  2  0  0  0  0  0  0  0  0  0
    1.2330   13.5200   -1.9330 C   0  0  0  0  0  0  0  0  0  0  0  0
    1.9750   13.3140   -3.2120 C   0  0  0  0  0  0  0  0  0  0  0  0
    2.5480   12.1620   -3.6070 C   0  0  0  0  0  0  0  0  0  0  0  0
    2.5660   10.9350   -2.6850 C   0  0  1  0  0  0  0  0  0  0  0  0
    3.9900   10.3180   -2.6730 C   0  0  0  0  0  0  0  0  0  0  0  0
    4.5030   10.0030   -4.0750 C   0  0  0  0  0  0  0  0  0  0  0  0
    4.5250   11.2580   -4.9430 C   0  0  2  0  0  0  0  0  0  0  0  0
    5.5050   12.1610   -4.4220 O   0  0  0  0  0  0  0  0  0  0  0  0
    3.1460   11.9720   -5.0220 C   0  0  0  0  0  0  0  0  0  0  0  0
    2.1630   11.1130   -5.8550 C   0  0  0  0  0  0  0  0  0  0  0  0
    3.3400   13.2960   -5.8090 C   0  0  0  0  0  0  0  0  0  0  0  0
    1.9850   11.1570   -1.2230 C   0  0  1  0  0  0  0  0  0  0  0  0
    3.1070   11.6880   -0.2790 C   0  0  0  0  0  0  0  0  0  0  0  0
    1.5280    9.7700   -0.6350 C   0  0  0  0  0  0  0  0  0  0  0  0
    0.0880    9.3220   -0.9480 C   0  0  0  0  0  0  0  0  0  0  0  0
   -0.9120   10.4430   -0.6490 C   0  0  2  0  0  0  0  0  0  0  0  0
   -0.8440   10.7470    0.8870 C   0  0  0  0  0  0  0  0  0  0  0  0
   -2.4654    7.4889    0.9037 H   0  0  0  0  0  0  0  0  0  0  0  0
   -3.3082    7.1769   -0.6516 H   0  0  0  0  0  0  0  0  0  0  0  0
   -1.6458    7.8574   -0.6516 H   0  0  0  0  0  0  0  0  0  0  0  0
   -3.1188    9.6293    0.9390 H   0  0  0  0  0  0  0  0  0  0  0  0
   -5.2696    9.5878    0.3903 H   0  0  0  0  0  0  0  0  0  0  0  0
   -4.7816   10.0052   -1.3216 H   0  0  0  0  0  0  0  0  0  0  0  0
   -4.7179    7.7012   -1.9463 H   0  0  0  0  0  0  0  0  0  0  0  0
   -4.9887    7.1833   -0.2299 H   0  0  0  0  0  0  0  0  0  0  0  0
   -6.7318    9.0429   -0.9491 H   0  0  0  0  0  0  0  0  0  0  0  0
   -6.0526    5.5396   -2.6001 H   0  0  0  0  0  0  0  0  0  0  0  0
   -7.3563    5.7002   -3.8253 H   0  0  0  0  0  0  0  0  0  0  0  0
   -5.9770    6.8509   -3.8253 H   0  0  0  0  0  0  0  0  0  0  0  0
   -9.3895    7.8141   -1.8591 H   0  0  0  0  0  0  0  0  0  0  0  0
   -8.6509    8.5159   -3.3385 H   0  0  0  0  0  0  0  0  0  0  0  0
   -9.2148    6.8104   -3.3385 H   0  0  0  0  0  0  0  0  0  0  0  0
   -2.4432    9.5840   -1.9495 H   0  0  0  0  0  0  0  0  0  0  0  0
   -3.6485   11.6780   -1.9961 H   0  0  0  0  0  0  0  0  0  0  0  0
   -3.5882   11.8409   -0.2280 H   0  0  0  0  0  0  0  0  0  0  0  0
   -1.9683   13.2875   -2.0862 H   0  0  0  0  0  0  0  0  0  0  0  0
   -1.6368   13.1834   -0.3590 H   0  0  0  0  0  0  0  0  0  0  0  0
   -1.0554   10.3461   -3.2563 H   0  0  0  0  0  0  0  0  0  0  0  0
   -1.3872   12.0835   -3.5696 H   0  0  0  0  0  0  0  0  0  0  0  0
    0.3039   11.4779   -3.5696 H   0  0  0  0  0  0  0  0  0  0  0  0
    0.6831   12.5235   -0.1434 H   0  0  0  0  0  0  0  0  0  0  0  0
    0.3182   14.0877   -2.1585 H   0  0  0  0  0  0  0  0  0  0  0  0
    1.9256   14.0485   -1.2614 H   0  0  0  0  0  0  0  0  0  0  0  0
    2.0607   14.1768   -3.8889 H   0  0  0  0  0  0  0  0  0  0  0  0
    1.8518   10.2189   -3.1177 H   0  0  0  0  0  0  0  0  0  0  0  0
    4.6793   11.0311   -2.1973 H   0  0  0  0  0  0  0  0  0  0  0  0
    3.9389    9.3711   -2.1156 H   0  0  0  0  0  0  0  0  0  0  0  0
    5.5230    9.5977   -4.0024 H   0  0  0  0  0  0  0  0  0  0  0  0
    3.8288    9.2677   -4.5384 H   0  0  0  0  0  0  0  0  0  0  0  0
    4.7763   10.9468   -5.9677 H   0  0  0  0  0  0  0  0  0  0  0  0
    5.4300   12.9940   -4.9180 H   0  0  0  0  0  0  0  0  0  0  0  0
    1.5102   10.5425   -5.1780 H   0  0  0  0  0  0  0  0  0  0  0  0
    1.5493   11.7695   -6.4894 H   0  0  0  0  0  0  0  0  0  0  0  0
    2.7313   10.4168   -6.4894 H   0  0  0  0  0  0  0  0  0  0  0  0
    3.4620   14.1289   -5.1009 H   0  0  0  0  0  0  0  0  0  0  0  0
    4.2364   13.2184   -6.4419 H   0  0  0  0  0  0  0  0  0  0  0  0
    2.4591   13.4788   -6.4419 H   0  0  0  0  0  0  0  0  0  0  0  0
    2.8034   11.5443    0.7685 H   0  0  0  0  0  0  0  0  0  0  0  0
    4.0387   11.1353   -0.4698 H   0  0  0  0  0  0  0  0  0  0  0  0
    3.2703   12.7589   -0.4698 H   0  0  0  0  0  0  0  0  0  0  0  0
    2.2086    9.0011   -1.0295 H   0  0  0  0  0  0  0  0  0  0  0  0
    1.5583    9.8971    0.4572 H   0  0  0  0  0  0  0  0  0  0  0  0
    0.0184    9.0520   -2.0121 H   0  0  0  0  0  0  0  0  0  0  0  0
   -0.1556    8.4564   -0.3145 H   0  0  0  0  0  0  0  0  0  0  0  0
   -1.0500    9.8262    1.4525 H   0  0  0  0  0  0  0  0  0  0  0  0
    0.1593   11.1180    1.1433 H   0  0  0  0  0  0  0  0  0  0  0  0
   -1.5936   11.5101    1.1433 H   0  0  0  0  0  0  0  0  0  0  0  0
  1  2  1  0
  2  3  1  0
  3  4  1  0
  4  5  1  0
  5  6  1  0
  6  7  1  0
  7  8  1  0
  7  9  1  0
  2 10  1  0
 10 11  1  0
 11 12  1  0
 12 13  1  0
 13 14  1  6
 13 15  1  0
 15 16  1  0
 16 17  1  0
 17 18  2  0
 18 19  1  0
 19 20  1  0
 20 21  1  0
 21 22  1  0
 22 23  1  0
 22 24  1  0
 24 25  1  0
 24 26  1  0
 19 27  1  0
 27 28  1  1
 27 29  1  0
 29 30  1  0
 30 31  1  0
 31 32  1  1
  7  5  1  0
 31 10  1  0
 31 13  1  0
 27 15  1  0
 24 18  1  0
  1 33  1  0
  1 34  1  0
  1 35  1  0
  2 36  1  1
  3 37  1  0
  3 38  1  0
  4 39  1  0
  4 40  1  0
  5 41  1  1
  8 42  1  0
  8 43  1  0
  8 44  1  0
  9 45  1  0
  9 46  1  0
  9 47  1  0
 10 48  1  6
 11 49  1  0
 11 50  1  0
 12 51  1  0
 12 52  1  0
 14 53  1  0
 14 54  1  0
 14 55  1  0
 15 56  1  1
 16 57  1  0
 16 58  1  0
 17 59  1  0
 19 60  1  6
 20 61  1  0
 20 62  1  0
 21 63  1  0
 21 64  1  0
 22 65  1  6
 23 66  1  0
 25 67  1  0
 25 68  1  0
 25 69  1  0
 26 70  1  0
 26 71  1  0
 26 72  1  0
 28 73  1  0
 28 74  1  0
 28 75  1  0
 29 76  1  0
 29 77  1  0
 30 78  1  0
 30 79  1  0
 32 80  1  0
 32 81  1  0
 32 82  1  0
M  END
>  <meeko>  (18) 
{"is_sidechain": [false], "intermolecular_energy": 2.731, "internal_energy": -0.839}

$$$$
EPH_relaxed_0001_pdb2pqr_Repair_163_r2_0001_out
     RDKit          3D

 82 86  0  0  0  0  0  0  0  0999 V2000
   -2.8400   10.2760   -0.7340 C   0  0  0  0  0  0  0  0  0  0  0  0
   -1.4370   10.4500   -1.3220 C   0  0  2  0  0  0  0  0  0  0  0  0
   -0.5510    9.2110   -1.0870 C   0  0  0  0  0  0  0  0  0  0  0  0
    0.9380    9.5380   -0.9390 C   0  0  0  0  0  0  0  0  0  0  0  0
    1.5790    9.8140   -2.2660 C   0  0  2  0  0  0  0  0  0  0  0  0
    2.7090    8.9850   -2.5680 O   0  0  0  0  0  0  0  0  0  0  0  0
    2.9750   10.3890   -2.4170 C   0  0  0  0  0  0  0  0  0  0  0  0
    3.8140   10.7250   -1.2240 C   0  0  0  0  0  0  0  0  0  0  0  0
    3.3300   11.0770   -3.6980 C   0  0  0  0  0  0  0  0  0  0  0  0
   -0.7740   11.6860   -0.7260 C   0  0  1  0  0  0  0  0  0  0  0  0
    0.4000   11.3340    0.2250 C   0  0  0  0  0  0  0  0  0  0  0  0
    1.4660   12.4460    0.0510 C   0  0  0  0  0  0  0  0  0  0  0  0
    0.7390   13.5640   -0.7330 C   0  0  1  0  0  0  0  0  0  0  0  0
   -0.0800   14.3420    0.3440 C   0  0  0  0  0  0  0  0  0  0  0  0
    1.6460   14.5220   -1.5720 C   0  0  2  0  0  0  0  0  0  0  0  0
    2.6510   15.3510   -0.7540 C   0  0  0  0  0  0  0  0  0  0  0  0
    2.1550   16.6820   -0.2940 C   0  0  0  0  0  0  0  0  0  0  0  0
    1.0620   17.3130   -0.7600 C   0  0  0  0  0  0  0  0  0  0  0  0
    0.2520   16.7290   -1.9260 C   0  0  1  0  0  0  0  0  0  0  0  0
   -0.0540   17.8490   -2.9550 C   0  0  0  0  0  0  0  0  0  0  0  0
   -0.7340   19.0580   -2.3200 C   0  0  0  0  0  0  0  0  0  0  0  0
    0.1270   19.6450   -1.2050 C   0  0  2  0  0  0  0  0  0  0  0  0
    1.3160   20.1940   -1.7820 O   0  0  0  0  0  0  0  0  0  0  0  0
    0.5080   18.6060   -0.1130 C   0  0  0  0  0  0  0  0  0  0  0  0
   -0.7480   18.2370    0.7140 C   0  0  0  0  0  0  0  0  0  0  0  0
    1.4920   19.2900    0.8740 C   0  0  0  0  0  0  0  0  0  0  0  0
    0.8550   15.4250   -2.6040 C   0  0  1  0  0  0  0  0  0  0  0  0
    1.8730   15.8250   -3.7160 C   0  0  0  0  0  0  0  0  0  0  0  0
   -0.3030   14.6370   -3.3240 C   0  0  0  0  0  0  0  0  0  0  0  0
   -1.0840   13.6190   -2.4720 C   0  0  0  0  0  0  0  0  0  0  0  0
   -0.1290   12.6930   -1.7120 C   0  0  2  0  0  0  0  0  0  0  0  0
    0.6920   11.8800   -2.7700 C   0  0  0  0  0  0  0  0  0  0  0  0
   -2.7807   10.2834    0.3644 H   0  0  0  0  0  0  0  0  0  0  0  0
   -3.4841   11.1011   -1.0720 H   0  0  0  0  0  0  0  0  0  0  0  0
   -3.2631    9.3185   -1.0720 H   0  0  0  0  0  0  0  0  0  0  0  0
   -1.5467   10.5749   -2.4094 H   0  0  0  0  0  0  0  0  0  0  0  0
   -0.8898    8.7111   -0.1676 H   0  0  0  0  0  0  0  0  0  0  0  0
   -0.6526    8.5700   -1.9751 H   0  0  0  0  0  0  0  0  0  0  0  0
    1.0462   10.4262   -0.2991 H   0  0  0  0  0  0  0  0  0  0  0  0
    1.4379    8.6666   -0.4910 H   0  0  0  0  0  0  0  0  0  0  0  0
    0.6109   10.1038   -2.7006 H   0  0  0  0  0  0  0  0  0  0  0  0
    3.2521   10.5000   -0.3055 H   0  0  0  0  0  0  0  0  0  0  0  0
    4.7372   10.1272   -1.2449 H   0  0  0  0  0  0  0  0  0  0  0  0
    4.0693   11.7948   -1.2449 H   0  0  0  0  0  0  0  0  0  0  0  0
    3.8240   12.0343   -3.4754 H   0  0  0  0  0  0  0  0  0  0  0  0
    4.0116   10.4393   -4.2800 H   0  0  0  0  0  0  0  0  0  0  0  0
    2.4153   11.2630   -4.2800 H   0  0  0  0  0  0  0  0  0  0  0  0
   -1.6458   12.1447   -0.2366 H   0  0  0  0  0  0  0  0  0  0  0  0
    0.0482   11.3063    1.2669 H   0  0  0  0  0  0  0  0  0  0  0  0
    0.8185   10.3451   -0.0137 H   0  0  0  0  0  0  0  0  0  0  0  0
    1.8050   12.8156    1.0300 H   0  0  0  0  0  0  0  0  0  0  0  0
    2.3636   12.0852   -0.4726 H   0  0  0  0  0  0  0  0  0  0  0  0
    0.2465   14.0319    1.3476 H   0  0  0  0  0  0  0  0  0  0  0  0
    0.0867   15.4224    0.2217 H   0  0  0  0  0  0  0  0  0  0  0  0
   -1.1504   14.1200    0.2217 H   0  0  0  0  0  0  0  0  0  0  0  0
    2.2507   13.8180   -2.1625 H   0  0  0  0  0  0  0  0  0  0  0  0
    2.9298   14.7664    0.1351 H   0  0  0  0  0  0  0  0  0  0  0  0
    3.4953   15.5573   -1.4282 H   0  0  0  0  0  0  0  0  0  0  0  0
    2.7323   17.1898    0.4927 H   0  0  0  0  0  0  0  0  0  0  0  0
   -0.6864   16.3569   -1.4891 H   0  0  0  0  0  0  0  0  0  0  0  0
    0.8918   18.1761   -3.4117 H   0  0  0  0  0  0  0  0  0  0  0  0
   -0.7437   17.4339   -3.7046 H   0  0  0  0  0  0  0  0  0  0  0  0
   -0.8969   19.8255   -3.0910 H   0  0  0  0  0  0  0  0  0  0  0  0
   -1.6935   18.7353   -1.8897 H   0  0  0  0  0  0  0  0  0  0  0  0
   -0.4677   20.4228   -0.7036 H   0  0  0  0  0  0  0  0  0  0  0  0
    1.7620   19.4820   -2.2720 H   0  0  0  0  0  0  0  0  0  0  0  0
   -0.5140   18.3058    1.7866 H   0  0  0  0  0  0  0  0  0  0  0  0
   -1.5643   18.9333    0.4714 H   0  0  0  0  0  0  0  0  0  0  0  0
   -1.0580   17.2098    0.4714 H   0  0  0  0  0  0  0  0  0  0  0  0
    1.1830   19.0752    1.9076 H   0  0  0  0  0  0  0  0  0  0  0  0
    2.5077   18.9022    0.7068 H   0  0  0  0  0  0  0  0  0  0  0  0
    1.4825   20.3772    0.7068 H   0  0  0  0  0  0  0  0  0  0  0  0
    2.8005   16.1894   -3.2502 H   0  0  0  0  0  0  0  0  0  0  0  0
    2.0967   14.9479   -4.3410 H   0  0  0  0  0  0  0  0  0  0  0  0
    1.4398   16.6198   -4.3410 H   0  0  0  0  0  0  0  0  0  0  0  0
   -1.0238   15.3768   -3.7025 H   0  0  0  0  0  0  0  0  0  0  0  0
    0.1954   14.0396   -4.1016 H   0  0  0  0  0  0  0  0  0  0  0  0
   -1.7113   14.1609   -1.7489 H   0  0  0  0  0  0  0  0  0  0  0  0
   -1.7078   13.0074   -3.1404 H   0  0  0  0  0  0  0  0  0  0  0  0
    1.3818   11.1969   -2.2527 H   0  0  0  0  0  0  0  0  0  0  0  0
    0.0034   11.2979   -3.4001 H   0  0  0  0  0  0  0  0  0  0  0  0
    1.2673   12.5743   -3.4001 H   0  0  0  0  0  0  0  0  0  0  0  0
  1  2  1  0
  2  3  1  0
  3  4  1  0
  4  5  1  0
  5  6  1  0
  6  7  1  0
  7  8  1  0
  7  9  1  0
  2 10  1  0
 10 11  1  0
 11 12  1  0
 12 13  1  0
 13 14  1  1
 13 15  1  0
 15 16  1  0
 16 17  1  0
 17 18  2  0
 18 19  1  0
 19 20  1  0
 20 21  1  0
 21 22  1  0
 22 23  1  0
 22 24  1  0
 24 25  1  0
 24 26  1  0
 19 27  1  0
 27 28  1  6
 27 29  1  0
 29 30  1  0
 30 31  1  0
 31 32  1  6
  7  5  1  0
 31 10  1  0
 31 13  1  0
 27 15  1  0
 24 18  1  0
  1 33  1  0
  1 34  1  0
  1 35  1  0
  2 36  1  6
  3 37  1  0
  3 38  1  0
  4 39  1  0
  4 40  1  0
  5 41  1  6
  8 42  1  0
  8 43  1  0
  8 44  1  0
  9 45  1  0
  9 46  1  0
  9 47  1  0
 10 48  1  1
 11 49  1  0
 11 50  1  0
 12 51  1  0
 12 52  1  0
 14 53  1  0
 14 54  1  0
 14 55  1  0
 15 56  1  6
 16 57  1  0
 16 58  1  0
 17 59  1  0
 19 60  1  1
 20 61  1  0
 20 62  1  0
 21 63  1  0
 21 64  1  0
 22 65  1  1
 23 66  1  0
 25 67  1  0
 25 68  1  0
 25 69  1  0
 26 70  1  0
 26 71  1  0
 26 72  1  0
 28 73  1  0
 28 74  1  0
 28 75  1  0
 29 76  1  0
 29 77  1  0
 30 78  1  0
 30 79  1  0
 32 80  1  0
 32 81  1  0
 32 82  1  0
M  END
>  <meeko>  (19) 
{"is_sidechain": [false], "intermolecular_energy": 2.731, "internal_energy": -0.839}

$$$$
EPH_relaxed_0001_pdb2pqr_Repair_163_r2_0001_out
     RDKit          3D

 82 86  0  0  0  0  0  0  0  0999 V2000
   -3.9010    8.8970    0.2360 C   0  0  0  0  0  0  0  0  0  0  0  0
   -3.8930    7.9580   -0.9740 C   0  0  2  0  0  0  0  0  0  0  0  0
   -2.8090    8.3420   -2.0010 C   0  0  0  0  0  0  0  0  0  0  0  0
   -1.9120    9.4970   -1.5450 C   0  0  0  0  0  0  0  0  0  0  0  0
   -0.6200    9.5280   -2.3040 C   0  0  2  0  0  0  0  0  0  0  0  0
    0.5270    9.1140   -1.5500 O   0  0  0  0  0  0  0  0  0  0  0  0
    0.5150   10.4830   -1.9850 C   0  0  0  0  0  0  0  0  0  0  0  0
    0.4090   11.4760   -0.8700 C   0  0  0  0  0  0  0  0  0  0  0  0
    1.5180   10.7840   -3.0550 C   0  0  0  0  0  0  0  0  0  0  0  0
   -5.2640    7.9590   -1.6400 C   0  0  1  0  0  0  0  0  0  0  0  0
   -5.2210    7.4260   -3.0980 C   0  0  0  0  0  0  0  0  0  0  0  0
   -6.5490    6.6620   -3.3350 C   0  0  0  0  0  0  0  0  0  0  0  0
   -7.4450    7.0570   -2.1380 C   0  0  1  0  0  0  0  0  0  0  0  0
   -8.0330    8.4520   -2.5200 C   0  0  0  0  0  0  0  0  0  0  0  0
   -8.5700    6.0430   -1.7520 C   0  0  2  0  0  0  0  0  0  0  0  0
   -9.6320    5.8010   -2.8400 C   0  0  0  0  0  0  0  0  0  0  0  0
  -10.8180    6.7060   -2.7850 C   0  0  0  0  0  0  0  0  0  0  0  0
  -11.1630    7.4810   -1.7400 C   0  0  0  0  0  0  0  0  0  0  0  0
  -10.3790    7.4220   -0.4230 C   0  0  1  0  0  0  0  0  0  0  0  0
  -11.3700    7.3400    0.7670 C   0  0  0  0  0  0  0  0  0  0  0  0
  -12.3990    8.4660    0.7500 C   0  0  0  0  0  0  0  0  0  0  0  0
  -13.1980    8.4560   -0.5500 C   0  0  2  0  0  0  0  0  0  0  0  0
  -13.9990    7.2710   -0.5900 O   0  0  0  0  0  0  0  0  0  0  0  0
  -12.3040    8.5250   -1.8200 C   0  0  0  0  0  0  0  0  0  0  0  0
  -11.6670    9.9330   -1.9310 C   0  0  0  0  0  0  0  0  0  0  0  0
  -13.2230    8.3650   -3.0610 C   0  0  0  0  0  0  0  0  0  0  0  0
   -9.2380    6.3190   -0.3440 C   0  0  1  0  0  0  0  0  0  0  0  0
   -9.8410    4.9630    0.1360 C   0  0  0  0  0  0  0  0  0  0  0  0
   -8.1830    6.7460    0.7440 C   0  0  0  0  0  0  0  0  0  0  0  0
   -7.0290    7.6520    0.2750 C   0  0  0  0  0  0  0  0  0  0  0  0
   -6.3710    7.0920   -0.9900 C   0  0  2  0  0  0  0  0  0  0  0  0
   -5.7510    5.6990   -0.6300 C   0  0  0  0  0  0  0  0  0  0  0  0
   -3.8959    8.3025    1.1615 H   0  0  0  0  0  0  0  0  0  0  0  0
   -3.0083    9.5391    0.2078 H   0  0  0  0  0  0  0  0  0  0  0  0
   -4.8045    9.5238    0.2078 H   0  0  0  0  0  0  0  0  0  0  0  0
   -3.6570    6.9480   -0.6076 H   0  0  0  0  0  0  0  0  0  0  0  0
   -2.1757    7.4613   -2.1835 H   0  0  0  0  0  0  0  0  0  0  0  0
   -3.3306    8.6786   -2.9091 H   0  0  0  0  0  0  0  0  0  0  0  0
   -2.4434   10.4464   -1.7067 H   0  0  0  0  0  0  0  0  0  0  0  0
   -1.6805    9.3516   -0.4795 H   0  0  0  0  0  0  0  0  0  0  0  0
   -1.1387    9.2861   -3.2434 H   0  0  0  0  0  0  0  0  0  0  0  0
    0.4650   10.9511    0.0950 H   0  0  0  0  0  0  0  0  0  0  0  0
    1.2351   12.1987   -0.9428 H   0  0  0  0  0  0  0  0  0  0  0  0
   -0.5510   12.0080   -0.9428 H   0  0  0  0  0  0  0  0  0  0  0  0
    2.4736   11.0708   -2.5917 H   0  0  0  0  0  0  0  0  0  0  0  0
    1.6668    9.8910   -3.6797 H   0  0  0  0  0  0  0  0  0  0  0  0
    1.1505   11.6114   -3.6797 H   0  0  0  0  0  0  0  0  0  0  0  0
   -5.5149    9.0256   -1.5429 H   0  0  0  0  0  0  0  0  0  0  0  0
   -5.1349    8.2641   -3.8052 H   0  0  0  0  0  0  0  0  0  0  0  0
   -4.3537    6.7671   -3.2519 H   0  0  0  0  0  0  0  0  0  0  0  0
   -7.0107    6.9710   -4.2844 H   0  0  0  0  0  0  0  0  0  0  0  0
   -6.3984    5.5744   -3.4024 H   0  0  0  0  0  0  0  0  0  0  0  0
   -8.2696    9.0134   -1.6041 H   0  0  0  0  0  0  0  0  0  0  0  0
   -7.2942    9.0116   -3.1125 H   0  0  0  0  0  0  0  0  0  0  0  0
   -8.9494    8.3139   -3.1125 H   0  0  0  0  0  0  0  0  0  0  0  0
   -8.0138    5.0983   -1.6612 H   0  0  0  0  0  0  0  0  0  0  0  0
   -9.1502    5.9310   -3.8203 H   0  0  0  0  0  0  0  0  0  0  0  0
  -10.0163    4.7845   -2.6698 H   0  0  0  0  0  0  0  0  0  0  0  0
  -11.4649    6.7426   -3.6740 H   0  0  0  0  0  0  0  0  0  0  0  0
   -9.8070    8.3600   -0.3680 H   0  0  0  0  0  0  0  0  0  0  0  0
  -11.9000    6.3773    0.7188 H   0  0  0  0  0  0  0  0  0  0  0  0
  -10.7865    7.4350    1.6946 H   0  0  0  0  0  0  0  0  0  0  0  0
  -13.0885    8.3362    1.5972 H   0  0  0  0  0  0  0  0  0  0  0  0
  -11.8690    9.4267    0.8286 H   0  0  0  0  0  0  0  0  0  0  0  0
  -13.8247    9.3600   -0.5582 H   0  0  0  0  0  0  0  0  0  0  0  0
  -14.8320    7.4930   -1.0390 H   0  0  0  0  0  0  0  0  0  0  0  0
  -11.4856   10.3339   -0.9228 H   0  0  0  0  0  0  0  0  0  0  0  0
  -10.7133    9.8622   -2.4745 H   0  0  0  0  0  0  0  0  0  0  0  0
  -12.3499   10.6026   -2.4745 H   0  0  0  0  0  0  0  0  0  0  0  0
  -14.2568    8.1850   -2.7310 H   0  0  0  0  0  0  0  0  0  0  0  0
  -13.1857    9.2831   -3.6657 H   0  0  0  0  0  0  0  0  0  0  0  0
  -12.8776    7.5135   -3.6657 H   0  0  0  0  0  0  0  0  0  0  0  0
   -9.8531    4.9359    1.2356 H   0  0  0  0  0  0  0  0  0  0  0  0
  -10.8683    4.8634   -0.2445 H   0  0  0  0  0  0  0  0  0  0  0  0
   -9.2269    4.1335   -0.2445 H   0  0  0  0  0  0  0  0  0  0  0  0
   -8.7231    7.2802    1.5396 H   0  0  0  0  0  0  0  0  0  0  0  0
   -7.7022    5.8091    1.0618 H   0  0  0  0  0  0  0  0  0  0  0  0
   -7.4241    8.6560    0.0607 H   0  0  0  0  0  0  0  0  0  0  0  0
   -6.2729    7.6977    1.0726 H   0  0  0  0  0  0  0  0  0  0  0  0
   -5.7028    5.5907    0.4636 H   0  0  0  0  0  0  0  0  0  0  0  0
   -6.3780    4.8989   -1.0504 H   0  0  0  0  0  0  0  0  0  0  0  0
   -4.7369    5.6293   -1.0504 H   0  0  0  0  0  0  0  0  0  0  0  0
  1  2  1  0
  2  3  1  0
  3  4  1  0
  4  5  1  0
  5  6  1  0
  6  7  1  0
  7  8  1  0
  7  9  1  0
  2 10  1  0
 10 11  1  0
 11 12  1  0
 12 13  1  0
 13 14  1  6
 13 15  1  0
 15 16  1  0
 16 17  1  0
 17 18  2  0
 18 19  1  0
 19 20  1  0
 20 21  1  0
 21 22  1  0
 22 23  1  0
 22 24  1  0
 24 25  1  0
 24 26  1  0
 19 27  1  0
 27 28  1  1
 27 29  1  0
 29 30  1  0
 30 31  1  0
 31 32  1  1
  7  5  1  0
 31 10  1  0
 31 13  1  0
 27 15  1  0
 24 18  1  0
  1 33  1  0
  1 34  1  0
  1 35  1  0
  2 36  1  1
  3 37  1  0
  3 38  1  0
  4 39  1  0
  4 40  1  0
  5 41  1  6
  8 42  1  0
  8 43  1  0
  8 44  1  0
  9 45  1  0
  9 46  1  0
  9 47  1  0
 10 48  1  6
 11 49  1  0
 11 50  1  0
 12 51  1  0
 12 52  1  0
 14 53  1  0
 14 54  1  0
 14 55  1  0
 15 56  1  1
 16 57  1  0
 16 58  1  0
 17 59  1  0
 19 60  1  1
 20 61  1  0
 20 62  1  0
 21 63  1  0
 21 64  1  0
 22 65  1  1
 23 66  1  0
 25 67  1  0
 25 68  1  0
 25 69  1  0
 26 70  1  0
 26 71  1  0
 26 72  1  0
 28 73  1  0
 28 74  1  0
 28 75  1  0
 29 76  1  0
 29 77  1  0
 30 78  1  0
 30 79  1  0
 32 80  1  0
 32 81  1  0
 32 82  1  0
M  END
>  <meeko>  (20) 
{"is_sidechain": [false], "intermolecular_energy": 2.731, "internal_energy": -0.839}

$$$$
