EPH_relaxed_0001_pdb2pqr_Repair_63_r2_0001_out
     RDKit          3D

 82 86  0  0  0  0  0  0  0  0999 V2000
   -1.7280    8.5760   -1.8640 C   0  0  0  0  0  0  0  0  0  0  0  0
   -2.1080    9.1010   -0.4770 C   0  0  2  0  0  0  0  0  0  0  0  0
   -3.6020    9.4720   -0.3850 C   0  0  0  0  0  0  0  0  0  0  0  0
   -4.5260    8.2640   -0.2090 C   0  0  0  0  0  0  0  0  0  0  0  0
   -5.2250    7.9100   -1.4870 C   0  0  2  0  0  0  0  0  0  0  0  0
   -6.3310    8.7590   -1.8190 O   0  0  0  0  0  0  0  0  0  0  0  0
   -6.6470    7.3840   -1.5450 C   0  0  0  0  0  0  0  0  0  0  0  0
   -7.4550    7.1820   -0.3010 C   0  0  0  0  0  0  0  0  0  0  0  0
   -7.0760    6.6120   -2.7530 C   0  0  0  0  0  0  0  0  0  0  0  0
   -1.2490   10.3100   -0.1260 C   0  0  1  0  0  0  0  0  0  0  0  0
   -0.2240   10.0080    1.0000 C   0  0  0  0  0  0  0  0  0  0  0  0
    1.0490   10.8330    0.6800 C   0  0  0  0  0  0  0  0  0  0  0  0
    0.6040   11.8260   -0.4200 C   0  0  1  0  0  0  0  0  0  0  0  0
   -0.1050   12.9840    0.3500 C   0  0  0  0  0  0  0  0  0  0  0  0
    1.7290   12.3630   -1.3620 C   0  0  2  0  0  0  0  0  0  0  0  0
    2.8300   13.1810   -0.6640 C   0  0  0  0  0  0  0  0  0  0  0  0
    2.5810   14.6510   -0.5880 C   0  0  0  0  0  0  0  0  0  0  0  0
    1.6630   15.3270   -1.3030 C   0  0  0  0  0  0  0  0  0  0  0  0
    0.8230   14.6200   -2.3750 C   0  0  1  0  0  0  0  0  0  0  0  0
    0.8040   15.4780   -3.6670 C   0  0  0  0  0  0  0  0  0  0  0  0
    0.3410   16.9090   -3.4130 C   0  0  0  0  0  0  0  0  0  0  0  0
    1.2360   17.5970   -2.3850 C   0  0  2  0  0  0  0  0  0  0  0  0
    2.5410   17.7630   -2.9480 O   0  0  0  0  0  0  0  0  0  0  0  0
    1.3400   16.8190   -1.0440 C   0  0  0  0  0  0  0  0  0  0  0  0
   -0.0100   16.9000   -0.2900 C   0  0  0  0  0  0  0  0  0  0  0  0
    2.3810   17.5450   -0.1500 C   0  0  0  0  0  0  0  0  0  0  0  0
    1.1940   13.1010   -2.6560 C   0  0  1  0  0  0  0  0  0  0  0  0
    2.3330   13.0190   -3.7180 C   0  0  0  0  0  0  0  0  0  0  0  0
   -0.0530   12.3750   -3.2860 C   0  0  0  0  0  0  0  0  0  0  0  0
   -1.0690   11.7600   -2.3030 C   0  0  0  0  0  0  0  0  0  0  0  0
   -0.3620   10.9030   -1.2490 C   0  0  2  0  0  0  0  0  0  0  0  0
    0.3430    9.7160   -1.9910 C   0  0  0  0  0  0  0  0  0  0  0  0
   -1.0861    7.6891   -1.7572 H   0  0  0  0  0  0  0  0  0  0  0  0
   -2.6400    8.3042   -2.4157 H   0  0  0  0  0  0  0  0  0  0  0  0
   -1.1849    9.3574   -2.4157 H   0  0  0  0  0  0  0  0  0  0  0  0
   -1.9241    8.2915    0.2447 H   0  0  0  0  0  0  0  0  0  0  0  0
   -3.7408   10.1437    0.4750 H   0  0  0  0  0  0  0  0  0  0  0  0
   -3.8742    9.9490   -1.3381 H   0  0  0  0  0  0  0  0  0  0  0  0
   -3.9272    7.4021    0.1204 H   0  0  0  0  0  0  0  0  0  0  0  0
   -5.2896    8.5224    0.5394 H   0  0  0  0  0  0  0  0  0  0  0  0
   -4.2853    7.5456   -1.9276 H   0  0  0  0  0  0  0  0  0  0  0  0
   -6.8168    7.3415    0.5807 H   0  0  0  0  0  0  0  0  0  0  0  0
   -8.2888    7.8993   -0.2848 H   0  0  0  0  0  0  0  0  0  0  0  0
   -7.8531    6.1567   -0.2848 H   0  0  0  0  0  0  0  0  0  0  0  0
   -7.5878    5.6910   -2.4369 H   0  0  0  0  0  0  0  0  0  0  0  0
   -7.7629    7.2250   -3.3550 H   0  0  0  0  0  0  0  0  0  0  0  0
   -6.1927    6.3525   -3.3550 H   0  0  0  0  0  0  0  0  0  0  0  0
   -2.0397   11.0248    0.1456 H   0  0  0  0  0  0  0  0  0  0  0  0
   -0.6341   10.3076    1.9757 H   0  0  0  0  0  0  0  0  0  0  0  0
    0.0041    8.9330    1.0481 H   0  0  0  0  0  0  0  0  0  0  0  0
    1.3965   11.3730    1.5731 H   0  0  0  0  0  0  0  0  0  0  0  0
    1.8867   10.1984    0.3552 H   0  0  0  0  0  0  0  0  0  0  0  0
   -0.0044   12.8197    1.4330 H   0  0  0  0  0  0  0  0  0  0  0  0
    0.3609   13.9431    0.0798 H   0  0  0  0  0  0  0  0  0  0  0  0
   -1.1711   13.0052    0.0798 H   0  0  0  0  0  0  0  0  0  0  0  0
    2.2146   11.4359   -1.7006 H   0  0  0  0  0  0  0  0  0  0  0  0
    2.9367   12.8008    0.3627 H   0  0  0  0  0  0  0  0  0  0  0  0
    3.7355   13.0570   -1.2761 H   0  0  0  0  0  0  0  0  0  0  0  0
    3.2006   15.2309    0.1119 H   0  0  0  0  0  0  0  0  0  0  0  0
   -0.1941   14.5435   -1.9632 H   0  0  0  0  0  0  0  0  0  0  0  0
    1.8204   15.5057   -4.0867 H   0  0  0  0  0  0  0  0  0  0  0  0
    0.0901   15.0152   -4.3643 H   0  0  0  0  0  0  0  0  0  0  0  0
    0.3779   17.4724   -4.3571 H   0  0  0  0  0  0  0  0  0  0  0  0
   -0.6867   16.8816   -3.0218 H   0  0  0  0  0  0  0  0  0  0  0  0
    0.7790   18.5691   -2.1479 H   0  0  0  0  0  0  0  0  0  0  0  0
    2.5010   18.5070   -3.5720 H   0  0  0  0  0  0  0  0  0  0  0  0
    0.1744   16.8889    0.7944 H   0  0  0  0  0  0  0  0  0  0  0  0
   -0.5279   17.8308   -0.5644 H   0  0  0  0  0  0  0  0  0  0  0  0
   -0.6355   16.0378   -0.5644 H   0  0  0  0  0  0  0  0  0  0  0  0
    2.1370   17.3748    0.9090 H   0  0  0  0  0  0  0  0  0  0  0  0
    3.3856   17.1506   -0.3628 H   0  0  0  0  0  0  0  0  0  0  0  0
    2.3580   18.6240   -0.3628 H   0  0  0  0  0  0  0  0  0  0  0  0
    3.3052   12.9490   -3.2083 H   0  0  0  0  0  0  0  0  0  0  0  0
    2.1841   12.1293   -4.3474 H   0  0  0  0  0  0  0  0  0  0  0  0
    2.3131   13.9209   -4.3474 H   0  0  0  0  0  0  0  0  0  0  0  0
   -0.5900   13.1107   -3.9027 H   0  0  0  0  0  0  0  0  0  0  0  0
    0.3616   11.5218   -3.8429 H   0  0  0  0  0  0  0  0  0  0  0  0
   -1.6179   12.5695   -1.7995 H   0  0  0  0  0  0  0  0  0  0  0  0
   -1.7613   11.1195   -2.8691 H   0  0  0  0  0  0  0  0  0  0  0  0
    0.7586    9.0162   -1.2511 H   0  0  0  0  0  0  0  0  0  0  0  0
   -0.3896    9.1907   -2.6213 H   0  0  0  0  0  0  0  0  0  0  0  0
    1.1548   10.1080   -2.6213 H   0  0  0  0  0  0  0  0  0  0  0  0
  1  2  1  0
  2  3  1  0
  3  4  1  0
  4  5  1  0
  5  6  1  0
  6  7  1  0
  7  8  1  0
  7  9  1  0
  2 10  1  0
 10 11  1  0
 11 12  1  0
 12 13  1  0
 13 14  1  1
 13 15  1  0
 15 16  1  0
 16 17  1  0
 17 18  2  0
 18 19  1  0
 19 20  1  0
 20 21  1  0
 21 22  1  0
 22 23  1  0
 22 24  1  0
 24 25  1  0
 24 26  1  0
 19 27  1  0
 27 28  1  6
 27 29  1  0
 29 30  1  0
 30 31  1  0
 31 32  1  6
  7  5  1  0
 31 10  1  0
 31 13  1  0
 27 15  1  0
 24 18  1  0
  1 33  1  0
  1 34  1  0
  1 35  1  0
  2 36  1  1
  3 37  1  0
  3 38  1  0
  4 39  1  0
  4 40  1  0
  5 41  1  6
  8 42  1  0
  8 43  1  0
  8 44  1  0
  9 45  1  0
  9 46  1  0
  9 47  1  0
 10 48  1  1
 11 49  1  0
 11 50  1  0
 12 51  1  0
 12 52  1  0
 14 53  1  0
 14 54  1  0
 14 55  1  0
 15 56  1  6
 16 57  1  0
 16 58  1  0
 17 59  1  0
 19 60  1  1
 20 61  1  0
 20 62  1  0
 21 63  1  0
 21 64  1  0
 22 65  1  1
 23 66  1  0
 25 67  1  0
 25 68  1  0
 25 69  1  0
 26 70  1  0
 26 71  1  0
 26 72  1  0
 28 73  1  0
 28 74  1  0
 28 75  1  0
 29 76  1  0
 29 77  1  0
 30 78  1  0
 30 79  1  0
 32 80  1  0
 32 81  1  0
 32 82  1  0
M  END
>  <meeko>  (1) 
{"is_sidechain": [false], "intermolecular_energy": 2.731, "internal_energy": -0.839}

$$$$
EPH_relaxed_0001_pdb2pqr_Repair_63_r2_0001_out
     RDKit          3D

 82 86  0  0  0  0  0  0  0  0999 V2000
    1.9260   19.7230   -0.5770 C   0  0  0  0  0  0  0  0  0  0  0  0
    2.3180   18.4930    0.2480 C   0  0  2  0  0  0  0  0  0  0  0  0
    3.7810   18.0730    0.0030 C   0  0  0  0  0  0  0  0  0  0  0  0
    4.6670   18.1700    1.2480 C   0  0  0  0  0  0  0  0  0  0  0  0
    4.0450   19.0330    2.3040 C   0  0  2  0  0  0  0  0  0  0  0  0
    4.8130   20.1890    2.6610 O   0  0  0  0  0  0  0  0  0  0  0  0
    4.6290   19.2070    3.6940 C   0  0  0  0  0  0  0  0  0  0  0  0
    5.8890   18.5110    4.1030 C   0  0  0  0  0  0  0  0  0  0  0  0
    3.7250   19.6560    4.7990 C   0  0  0  0  0  0  0  0  0  0  0  0
    1.3820   17.3340   -0.0710 C   0  0  1  0  0  0  0  0  0  0  0  0
    0.1460   17.7740   -0.9000 C   0  0  0  0  0  0  0  0  0  0  0  0
   -0.1890   16.6040   -1.8590 C   0  0  0  0  0  0  0  0  0  0  0  0
    0.6430   15.4130   -1.3290 C   0  0  1  0  0  0  0  0  0  0  0  0
   -0.1880   14.8410   -0.1380 C   0  0  0  0  0  0  0  0  0  0  0  0
    1.0010   14.3020   -2.3690 C   0  0  2  0  0  0  0  0  0  0  0  0
   -0.2050   13.5630   -2.9750 C   0  0  0  0  0  0  0  0  0  0  0  0
   -0.6390   12.3390   -2.2380 C   0  0  0  0  0  0  0  0  0  0  0  0
    0.0820   11.6920   -1.3030 C   0  0  0  0  0  0  0  0  0  0  0  0
    1.5150   12.1280   -0.9720 C   0  0  1  0  0  0  0  0  0  0  0  0
    2.4360   10.8810   -0.9170 C   0  0  0  0  0  0  0  0  0  0  0  0
    1.9160    9.8110    0.0390 C   0  0  0  0  0  0  0  0  0  0  0  0
    0.5120    9.3620   -0.3570 C   0  0  2  0  0  0  0  0  0  0  0  0
    0.5830    8.6820   -1.6140 O   0  0  0  0  0  0  0  0  0  0  0  0
   -0.5020   10.5360   -0.4540 C   0  0  0  0  0  0  0  0  0  0  0  0
   -0.8070   11.0790    0.9630 C   0  0  0  0  0  0  0  0  0  0  0  0
   -1.8400    9.9670   -0.9980 C   0  0  0  0  0  0  0  0  0  0  0  0
    2.1130   13.2890   -1.8780 C   0  0  1  0  0  0  0  0  0  0  0  0
    2.7610   12.6830   -3.1610 C   0  0  0  0  0  0  0  0  0  0  0  0
    3.2730   14.0080   -1.0930 C   0  0  0  0  0  0  0  0  0  0  0  0
    2.8690   15.1760   -0.1720 C   0  0  0  0  0  0  0  0  0  0  0  0
    1.9590   16.1640   -0.9080 C   0  0  2  0  0  0  0  0  0  0  0  0
    2.7760   16.7720   -2.0980 C   0  0  0  0  0  0  0  0  0  0  0  0
    1.6626   20.5495    0.0994 H   0  0  0  0  0  0  0  0  0  0  0  0
    2.7727   20.0241   -1.2114 H   0  0  0  0  0  0  0  0  0  0  0  0
    1.0612   19.4786   -1.2114 H   0  0  0  0  0  0  0  0  0  0  0  0
    2.2258   18.7628    1.3104 H   0  0  0  0  0  0  0  0  0  0  0  0
    3.7887   17.0306   -0.3481 H   0  0  0  0  0  0  0  0  0  0  0  0
    4.1948   18.7700   -0.7406 H   0  0  0  0  0  0  0  0  0  0  0  0
    4.8195   17.1602    1.6568 H   0  0  0  0  0  0  0  0  0  0  0  0
    5.6245   18.6242    0.9534 H   0  0  0  0  0  0  0  0  0  0  0  0
    3.0348   18.7716    1.9557 H   0  0  0  0  0  0  0  0  0  0  0  0
    5.9496   18.4775    5.2008 H   0  0  0  0  0  0  0  0  0  0  0  0
    5.8875   17.4858    3.7044 H   0  0  0  0  0  0  0  0  0  0  0  0
    6.7561   19.0581    3.7044 H   0  0  0  0  0  0  0  0  0  0  0  0
    4.1893   19.4254    5.7692 H   0  0  0  0  0  0  0  0  0  0  0  0
    3.5602   20.7407    4.7200 H   0  0  0  0  0  0  0  0  0  0  0  0
    2.7611   19.1319    4.7200 H   0  0  0  0  0  0  0  0  0  0  0  0
    1.1574   16.9923    0.9502 H   0  0  0  0  0  0  0  0  0  0  0  0
   -0.7059   17.9730   -0.2332 H   0  0  0  0  0  0  0  0  0  0  0  0
    0.3550   18.6968   -1.4610 H   0  0  0  0  0  0  0  0  0  0  0  0
   -1.2637   16.3715   -1.8270 H   0  0  0  0  0  0  0  0  0  0  0  0
    0.0465   16.8434   -2.9065 H   0  0  0  0  0  0  0  0  0  0  0  0
    0.2686   15.1553    0.8121 H   0  0  0  0  0  0  0  0  0  0  0  0
   -1.2184   15.2221   -0.1934 H   0  0  0  0  0  0  0  0  0  0  0  0
   -0.1999   13.7425   -0.1934 H   0  0  0  0  0  0  0  0  0  0  0  0
    1.4403   14.8828   -3.1934 H   0  0  0  0  0  0  0  0  0  0  0  0
   -1.0537   14.2623   -3.0020 H   0  0  0  0  0  0  0  0  0  0  0  0
    0.1161   13.2213   -3.9701 H   0  0  0  0  0  0  0  0  0  0  0  0
   -1.6318   11.9315   -2.4794 H   0  0  0  0  0  0  0  0  0  0  0  0
    1.4677   12.6009    0.0200 H   0  0  0  0  0  0  0  0  0  0  0  0
    2.5049   10.4488   -1.9262 H   0  0  0  0  0  0  0  0  0  0  0  0
    3.4195   11.2083   -0.5487 H   0  0  0  0  0  0  0  0  0  0  0  0
    2.5925    8.9440    0.0114 H   0  0  0  0  0  0  0  0  0  0  0  0
    1.8761   10.2354    1.0531 H   0  0  0  0  0  0  0  0  0  0  0  0
    0.1432    8.6942    0.4355 H   0  0  0  0  0  0  0  0  0  0  0  0
    0.5140    7.7290   -1.4370 H   0  0  0  0  0  0  0  0  0  0  0  0
   -0.4143   10.3798    1.7160 H   0  0  0  0  0  0  0  0  0  0  0  0
   -0.3287   12.0614    1.0900 H   0  0  0  0  0  0  0  0  0  0  0  0
   -1.8948   11.1817    1.0900 H   0  0  0  0  0  0  0  0  0  0  0  0
   -2.4905    9.6904   -0.1552 H   0  0  0  0  0  0  0  0  0  0  0  0
   -2.3403   10.7302   -1.6122 H   0  0  0  0  0  0  0  0  0  0  0  0
   -1.6373    9.0772   -1.6122 H   0  0  0  0  0  0  0  0  0  0  0  0
    3.5363   11.9579   -2.8727 H   0  0  0  0  0  0  0  0  0  0  0  0
    1.9883   12.1759   -3.7575 H   0  0  0  0  0  0  0  0  0  0  0  0
    3.2153   13.4879   -3.7575 H   0  0  0  0  0  0  0  0  0  0  0  0
    3.7727   13.2510   -0.4707 H   0  0  0  0  0  0  0  0  0  0  0  0
    3.9086   14.4598   -1.8688 H   0  0  0  0  0  0  0  0  0  0  0  0
    2.3341   14.7766    0.7023 H   0  0  0  0  0  0  0  0  0  0  0  0
    3.7800   15.7057    0.1433 H   0  0  0  0  0  0  0  0  0  0  0  0
    3.5994   17.3847   -1.7023 H   0  0  0  0  0  0  0  0  0  0  0  0
    3.1874   15.9586   -2.7137 H   0  0  0  0  0  0  0  0  0  0  0  0
    2.1150   17.3997   -2.7137 H   0  0  0  0  0  0  0  0  0  0  0  0
  1  2  1  0
  2  3  1  0
  3  4  1  0
  4  5  1  0
  5  6  1  0
  6  7  1  0
  7  8  1  0
  7  9  1  0
  2 10  1  0
 10 11  1  0
 11 12  1  0
 12 13  1  0
 13 14  1  1
 13 15  1  0
 15 16  1  0
 16 17  1  0
 17 18  2  0
 18 19  1  0
 19 20  1  0
 20 21  1  0
 21 22  1  0
 22 23  1  0
 22 24  1  0
 24 25  1  0
 24 26  1  0
 19 27  1  0
 27 28  1  6
 27 29  1  0
 29 30  1  0
 30 31  1  0
 31 32  1  6
  7  5  1  0
 31 10  1  0
 31 13  1  0
 27 15  1  0
 24 18  1  0
  1 33  1  0
  1 34  1  0
  1 35  1  0
  2 36  1  1
  3 37  1  0
  3 38  1  0
  4 39  1  0
  4 40  1  0
  5 41  1  1
  8 42  1  0
  8 43  1  0
  8 44  1  0
  9 45  1  0
  9 46  1  0
  9 47  1  0
 10 48  1  1
 11 49  1  0
 11 50  1  0
 12 51  1  0
 12 52  1  0
 14 53  1  0
 14 54  1  0
 14 55  1  0
 15 56  1  6
 16 57  1  0
 16 58  1  0
 17 59  1  0
 19 60  1  1
 20 61  1  0
 20 62  1  0
 21 63  1  0
 21 64  1  0
 22 65  1  1
 23 66  1  0
 25 67  1  0
 25 68  1  0
 25 69  1  0
 26 70  1  0
 26 71  1  0
 26 72  1  0
 28 73  1  0
 28 74  1  0
 28 75  1  0
 29 76  1  0
 29 77  1  0
 30 78  1  0
 30 79  1  0
 32 80  1  0
 32 81  1  0
 32 82  1  0
M  END
>  <meeko>  (2) 
{"is_sidechain": [false], "intermolecular_energy": 2.731, "internal_energy": -0.839}

$$$$
EPH_relaxed_0001_pdb2pqr_Repair_63_r2_0001_out
     RDKit          3D

 82 86  0  0  0  0  0  0  0  0999 V2000
    2.3300   17.9410   -2.6850 C   0  0  0  0  0  0  0  0  0  0  0  0
    1.0250   17.5730   -1.9740 C   0  0  2  0  0  0  0  0  0  0  0  0
    1.1650   17.6260   -0.4400 C   0  0  0  0  0  0  0  0  0  0  0  0
    0.8740   19.0050    0.1580 C   0  0  0  0  0  0  0  0  0  0  0  0
   -0.5580   19.1350    0.5820 C   0  0  2  0  0  0  0  0  0  0  0  0
   -1.4620   18.2390   -0.0790 O   0  0  0  0  0  0  0  0  0  0  0  0
   -1.6590   19.6390   -0.3320 C   0  0  0  0  0  0  0  0  0  0  0  0
   -1.3750   20.0480   -1.7440 C   0  0  0  0  0  0  0  0  0  0  0  0
   -2.9040   20.1940    0.2860 C   0  0  0  0  0  0  0  0  0  0  0  0
    0.5700   16.1850   -2.4090 C   0  0  1  0  0  0  0  0  0  0  0  0
    0.6440   15.9860   -3.9460 C   0  0  0  0  0  0  0  0  0  0  0  0
    1.0410   14.5070   -4.1870 C   0  0  0  0  0  0  0  0  0  0  0  0
    0.8580   13.8250   -2.8110 C   0  0  1  0  0  0  0  0  0  0  0  0
   -0.6720   13.5290   -2.7090 C   0  0  0  0  0  0  0  0  0  0  0  0
    1.7120   12.5400   -2.5570 C   0  0  2  0  0  0  0  0  0  0  0  0
    1.4160   11.3630   -3.5040 C   0  0  0  0  0  0  0  0  0  0  0  0
    0.3630   10.4150   -3.0330 C   0  0  0  0  0  0  0  0  0  0  0  0
   -0.1170   10.3400   -1.7780 C   0  0  0  0  0  0  0  0  0  0  0  0
    0.4760   11.2010   -0.6550 C   0  0  1  0  0  0  0  0  0  0  0  0
    0.7200   10.3200    0.5990 C   0  0  0  0  0  0  0  0  0  0  0  0
   -0.5320    9.5680    1.0390 C   0  0  0  0  0  0  0  0  0  0  0  0
   -1.0580    8.6790   -0.0850 C   0  0  2  0  0  0  0  0  0  0  0  0
   -0.1100    7.6360   -0.3290 O   0  0  0  0  0  0  0  0  0  0  0  0
   -1.3320    9.4560   -1.4030 C   0  0  0  0  0  0  0  0  0  0  0  0
   -2.5640   10.3760   -1.2180 C   0  0  0  0  0  0  0  0  0  0  0  0
   -1.7220    8.4220   -2.4940 C   0  0  0  0  0  0  0  0  0  0  0  0
    1.7460   12.0720   -1.0460 C   0  0  1  0  0  0  0  0  0  0  0  0
    3.0450   11.2270   -0.8710 C   0  0  0  0  0  0  0  0  0  0  0  0
    1.8660   13.2830   -0.0470 C   0  0  0  0  0  0  0  0  0  0  0  0
    1.0950   14.5650   -0.4140 C   0  0  0  0  0  0  0  0  0  0  0  0
    1.3670   14.9730   -1.8650 C   0  0  2  0  0  0  0  0  0  0  0  0
    2.8950   15.2970   -1.9930 C   0  0  0  0  0  0  0  0  0  0  0  0
    3.1061   18.1599   -1.9368 H   0  0  0  0  0  0  0  0  0  0  0  0
    2.6545   17.0993   -3.3145 H   0  0  0  0  0  0  0  0  0  0  0  0
    2.1670   18.8282   -3.3145 H   0  0  0  0  0  0  0  0  0  0  0  0
    0.2692   18.3186   -2.2618 H   0  0  0  0  0  0  0  0  0  0  0  0
    0.4618   16.9023   -0.0020 H   0  0  0  0  0  0  0  0  0  0  0  0
    2.2130   17.3886   -0.2048 H   0  0  0  0  0  0  0  0  0  0  0  0
    1.5205   19.1568    1.0349 H   0  0  0  0  0  0  0  0  0  0  0  0
    1.0728   19.7624   -0.6145 H   0  0  0  0  0  0  0  0  0  0  0  0
   -0.2550   19.4217    1.5998 H   0  0  0  0  0  0  0  0  0  0  0  0
   -0.7476   20.9515   -1.7449 H   0  0  0  0  0  0  0  0  0  0  0  0
   -0.8466   19.2342   -2.2623 H   0  0  0  0  0  0  0  0  0  0  0  0
   -2.3221   20.2587   -2.2623 H   0  0  0  0  0  0  0  0  0  0  0  0
   -2.8179   20.1556    1.3820 H   0  0  0  0  0  0  0  0  0  0  0  0
   -3.0389   21.2375   -0.0349 H   0  0  0  0  0  0  0  0  0  0  0  0
   -3.7703   19.5968   -0.0349 H   0  0  0  0  0  0  0  0  0  0  0  0
   -0.4473   16.1848   -1.9905 H   0  0  0  0  0  0  0  0  0  0  0  0
   -0.3348   16.1947   -4.4025 H   0  0  0  0  0  0  0  0  0  0  0  0
    1.3771   16.6703   -4.3980 H   0  0  0  0  0  0  0  0  0  0  0  0
    0.3840   14.0462   -4.9393 H   0  0  0  0  0  0  0  0  0  0  0  0
    2.0678   14.4075   -4.5687 H   0  0  0  0  0  0  0  0  0  0  0  0
   -0.9647   13.4724   -1.6502 H   0  0  0  0  0  0  0  0  0  0  0  0
   -1.2351   14.3349   -3.2025 H   0  0  0  0  0  0  0  0  0  0  0  0
   -0.8939   12.5713   -3.2025 H   0  0  0  0  0  0  0  0  0  0  0  0
    2.7281   12.8781   -2.8084 H   0  0  0  0  0  0  0  0  0  0  0  0
    1.0928   11.7772   -4.4704 H   0  0  0  0  0  0  0  0  0  0  0  0
    2.3464   10.7792   -3.5640 H   0  0  0  0  0  0  0  0  0  0  0  0
   -0.0559    9.7189   -3.7746 H   0  0  0  0  0  0  0  0  0  0  0  0
   -0.2783   11.9694   -0.4301 H   0  0  0  0  0  0  0  0  0  0  0  0
    1.5078    9.5880    0.3676 H   0  0  0  0  0  0  0  0  0  0  0  0
    1.0155   10.9866    1.4226 H   0  0  0  0  0  0  0  0  0  0  0  0
   -0.2882    8.9412    1.9095 H   0  0  0  0  0  0  0  0  0  0  0  0
   -1.3091   10.3019    1.2989 H   0  0  0  0  0  0  0  0  0  0  0  0
   -2.0243    8.2684    0.2432 H   0  0  0  0  0  0  0  0  0  0  0  0
   -0.5490    6.9610   -0.8740 H   0  0  0  0  0  0  0  0  0  0  0  0
   -2.7564   10.5197   -0.1445 H   0  0  0  0  0  0  0  0  0  0  0  0
   -2.3679   11.3505   -1.6890 H   0  0  0  0  0  0  0  0  0  0  0  0
   -3.4427    9.9112   -1.6890 H   0  0  0  0  0  0  0  0  0  0  0  0
   -2.0712    7.4961   -2.0136 H   0  0  0  0  0  0  0  0  0  0  0  0
   -2.5259    8.8357   -3.1206 H   0  0  0  0  0  0  0  0  0  0  0  0
   -0.8452    8.2018   -3.1206 H   0  0  0  0  0  0  0  0  0  0  0  0
    3.2529   11.0918    0.2007 H   0  0  0  0  0  0  0  0  0  0  0  0
    2.9095   10.2437   -1.3451 H   0  0  0  0  0  0  0  0  0  0  0  0
    3.8889   11.7495   -1.3451 H   0  0  0  0  0  0  0  0  0  0  0  0
    1.4998   12.9435    0.9331 H   0  0  0  0  0  0  0  0  0  0  0  0
    2.9278   13.5696   -0.0683 H   0  0  0  0  0  0  0  0  0  0  0  0
    0.0172   14.3854   -0.2869 H   0  0  0  0  0  0  0  0  0  0  0  0
    1.4310   15.3773    0.2472 H   0  0  0  0  0  0  0  0  0  0  0  0
    3.3354   15.3904   -0.9893 H   0  0  0  0  0  0  0  0  0  0  0  0
    3.3974   14.4854   -2.5398 H   0  0  0  0  0  0  0  0  0  0  0  0
    3.0248   16.2426   -2.5398 H   0  0  0  0  0  0  0  0  0  0  0  0
  1  2  1  0
  2  3  1  0
  3  4  1  0
  4  5  1  0
  5  6  1  0
  6  7  1  0
  7  8  1  0
  7  9  1  0
  2 10  1  0
 10 11  1  0
 11 12  1  0
 12 13  1  0
 13 14  1  1
 13 15  1  0
 15 16  1  0
 16 17  1  0
 17 18  2  0
 18 19  1  0
 19 20  1  0
 20 21  1  0
 21 22  1  0
 22 23  1  0
 22 24  1  0
 24 25  1  0
 24 26  1  0
 19 27  1  0
 27 28  1  6
 27 29  1  0
 29 30  1  0
 30 31  1  0
 31 32  1  1
  7  5  1  0
 31 10  1  0
 31 13  1  0
 27 15  1  0
 24 18  1  0
  1 33  1  0
  1 34  1  0
  1 35  1  0
  2 36  1  6
  3 37  1  0
  3 38  1  0
  4 39  1  0
  4 40  1  0
  5 41  1  1
  8 42  1  0
  8 43  1  0
  8 44  1  0
  9 45  1  0
  9 46  1  0
  9 47  1  0
 10 48  1  1
 11 49  1  0
 11 50  1  0
 12 51  1  0
 12 52  1  0
 14 53  1  0
 14 54  1  0
 14 55  1  0
 15 56  1  6
 16 57  1  0
 16 58  1  0
 17 59  1  0
 19 60  1  1
 20 61  1  0
 20 62  1  0
 21 63  1  0
 21 64  1  0
 22 65  1  1
 23 66  1  0
 25 67  1  0
 25 68  1  0
 25 69  1  0
 26 70  1  0
 26 71  1  0
 26 72  1  0
 28 73  1  0
 28 74  1  0
 28 75  1  0
 29 76  1  0
 29 77  1  0
 30 78  1  0
 30 79  1  0
 32 80  1  0
 32 81  1  0
 32 82  1  0
M  END
>  <meeko>  (3) 
{"is_sidechain": [false], "intermolecular_energy": 2.731, "internal_energy": -0.839}

$$$$
EPH_relaxed_0001_pdb2pqr_Repair_63_r2_0001_out
     RDKit          3D

 82 86  0  0  0  0  0  0  0  0999 V2000
    0.4870   18.4170   -0.0740 C   0  0  0  0  0  0  0  0  0  0  0  0
    1.5640   17.3470   -0.2730 C   0  0  2  0  0  0  0  0  0  0  0  0
    2.7930   17.8930   -1.0280 C   0  0  0  0  0  0  0  0  0  0  0  0
    4.0140   18.1230   -0.1340 C   0  0  0  0  0  0  0  0  0  0  0  0
    3.6200   18.6200    1.2240 C   0  0  2  0  0  0  0  0  0  0  0  0
    3.8860   20.0100    1.4530 O   0  0  0  0  0  0  0  0  0  0  0  0
    4.6200   19.0820    2.2680 C   0  0  0  0  0  0  0  0  0  0  0  0
    6.0920   19.0680    1.9990 C   0  0  0  0  0  0  0  0  0  0  0  0
    4.2040   19.0830    3.7060 C   0  0  0  0  0  0  0  0  0  0  0  0
    0.9800   16.1550   -1.0220 C   0  0  1  0  0  0  0  0  0  0  0  0
    0.8680   16.4050   -2.5490 C   0  0  0  0  0  0  0  0  0  0  0  0
    1.1440   15.0490   -3.2460 C   0  0  0  0  0  0  0  0  0  0  0  0
    1.0780   14.0040   -2.1070 C   0  0  1  0  0  0  0  0  0  0  0  0
   -0.4460   13.7310   -1.9020 C   0  0  0  0  0  0  0  0  0  0  0  0
    1.8750   12.6790   -2.3370 C   0  0  2  0  0  0  0  0  0  0  0  0
    1.4040   11.8330   -3.5330 C   0  0  0  0  0  0  0  0  0  0  0  0
    0.3550   10.8170   -3.2200 C   0  0  0  0  0  0  0  0  0  0  0  0
    0.0170   10.3960   -1.9870 C   0  0  0  0  0  0  0  0  0  0  0  0
    0.7840   10.8810   -0.7510 C   0  0  1  0  0  0  0  0  0  0  0  0
    1.1160    9.6710    0.1610 C   0  0  0  0  0  0  0  0  0  0  0  0
   -0.1220    8.8560    0.5250 C   0  0  0  0  0  0  0  0  0  0  0  0
   -0.8250    8.3420   -0.7290 C   0  0  2  0  0  0  0  0  0  0  0  0
    0.0250    7.3900   -1.3760 O   0  0  0  0  0  0  0  0  0  0  0  0
   -1.1990    9.4720   -1.7280 C   0  0  0  0  0  0  0  0  0  0  0  0
   -2.3440   10.3310   -1.1370 C   0  0  0  0  0  0  0  0  0  0  0  0
   -1.7720    8.8070   -3.0090 C   0  0  0  0  0  0  0  0  0  0  0  0
    2.0530   11.7950   -1.0370 C   0  0  1  0  0  0  0  0  0  0  0  0
    3.3090   10.9030   -1.2730 C   0  0  0  0  0  0  0  0  0  0  0  0
    2.3580   12.6640    0.2400 C   0  0  0  0  0  0  0  0  0  0  0  0
    1.6290   14.0170    0.3510 C   0  0  0  0  0  0  0  0  0  0  0  0
    1.7590   14.8180   -0.9480 C   0  0  2  0  0  0  0  0  0  0  0  0
    3.2790   15.1270   -1.1700 C   0  0  0  0  0  0  0  0  0  0  0  0
    0.3247   18.5782    1.0019 H   0  0  0  0  0  0  0  0  0  0  0  0
    0.8143   19.3579   -0.5405 H   0  0  0  0  0  0  0  0  0  0  0  0
   -0.4517   18.0836   -0.5405 H   0  0  0  0  0  0  0  0  0  0  0  0
    1.9034   17.0298    0.7241 H   0  0  0  0  0  0  0  0  0  0  0  0
    3.0676   17.1715   -1.8116 H   0  0  0  0  0  0  0  0  0  0  0  0
    2.5077   18.8724   -1.4396 H   0  0  0  0  0  0  0  0  0  0  0  0
    4.5581   17.1736   -0.0223 H   0  0  0  0  0  0  0  0  0  0  0  0
    4.6478   18.8866   -0.6084 H   0  0  0  0  0  0  0  0  0  0  0  0
    2.7830   17.9077    1.2682 H   0  0  0  0  0  0  0  0  0  0  0  0
    6.6391   19.0628    2.9533 H   0  0  0  0  0  0  0  0  0  0  0  0
    6.3509   18.1674    1.4230 H   0  0  0  0  0  0  0  0  0  0  0  0
    6.3680   19.9636    1.4230 H   0  0  0  0  0  0  0  0  0  0  0  0
    5.0983   19.0809    4.3464 H   0  0  0  0  0  0  0  0  0  0  0  0
    3.6061   19.9826    3.9141 H   0  0  0  0  0  0  0  0  0  0  0  0
    3.6018   18.1863    3.9141 H   0  0  0  0  0  0  0  0  0  0  0  0
    0.0185   16.0603   -0.4961 H   0  0  0  0  0  0  0  0  0  0  0  0
   -0.1414   16.7619   -2.8013 H   0  0  0  0  0  0  0  0  0  0  0  0
    1.5860   17.1709   -2.8773 H   0  0  0  0  0  0  0  0  0  0  0  0
    0.3786   14.8414   -4.0083 H   0  0  0  0  0  0  0  0  0  0  0  0
    2.1127   15.0374   -3.7671 H   0  0  0  0  0  0  0  0  0  0  0  0
   -0.6698   13.6909   -0.8258 H   0  0  0  0  0  0  0  0  0  0  0  0
   -1.0292   14.5390   -2.3679 H   0  0  0  0  0  0  0  0  0  0  0  0
   -0.7124   12.7708   -2.3679 H   0  0  0  0  0  0  0  0  0  0  0  0
    2.8743   13.0497   -2.6092 H   0  0  0  0  0  0  0  0  0  0  0  0
    0.9996   12.5160   -4.2946 H   0  0  0  0  0  0  0  0  0  0  0  0
    2.2845   11.2677   -3.8724 H   0  0  0  0  0  0  0  0  0  0  0  0
   -0.1873   10.3753   -4.0690 H   0  0  0  0  0  0  0  0  0  0  0  0
    0.1072   11.5703   -0.2249 H   0  0  0  0  0  0  0  0  0  0  0  0
    1.8266    9.0169   -0.3656 H   0  0  0  0  0  0  0  0  0  0  0  0
    1.5437   10.0641    1.0951 H   0  0  0  0  0  0  0  0  0  0  0  0
    0.1805    7.9991    1.1449 H   0  0  0  0  0  0  0  0  0  0  0  0
   -0.8187    9.5036    1.0776 H   0  0  0  0  0  0  0  0  0  0  0  0
   -1.7707    7.8789   -0.4110 H   0  0  0  0  0  0  0  0  0  0  0  0
    0.5870    6.9850   -0.6930 H   0  0  0  0  0  0  0  0  0  0  0  0
   -2.2985   10.2969   -0.0385 H   0  0  0  0  0  0  0  0  0  0  0  0
   -2.2344   11.3716   -1.4764 H   0  0  0  0  0  0  0  0  0  0  0  0
   -3.3124    9.9347   -1.4764 H   0  0  0  0  0  0  0  0  0  0  0  0
   -2.4657    8.0019   -2.7252 H   0  0  0  0  0  0  0  0  0  0  0  0
   -2.3085    9.5603   -3.6046 H   0  0  0  0  0  0  0  0  0  0  0  0
   -0.9477    8.3878   -3.6046 H   0  0  0  0  0  0  0  0  0  0  0  0
    3.7325   10.6022   -0.3034 H   0  0  0  0  0  0  0  0  0  0  0  0
    3.0204   10.0063   -1.8411 H   0  0  0  0  0  0  0  0  0  0  0  0
    4.0605   11.4709   -1.8411 H   0  0  0  0  0  0  0  0  0  0  0  0
    2.0855   12.0660    1.1221 H   0  0  0  0  0  0  0  0  0  0  0  0
    3.4258   12.9180    0.1666 H   0  0  0  0  0  0  0  0  0  0  0  0
    0.5637   13.8359    0.5570 H   0  0  0  0  0  0  0  0  0  0  0  0
    2.0861   14.5958    1.1672 H   0  0  0  0  0  0  0  0  0  0  0  0
    3.7787   15.2286   -0.1953 H   0  0  0  0  0  0  0  0  0  0  0  0
    3.7416   14.3045   -1.7353 H   0  0  0  0  0  0  0  0  0  0  0  0
    3.3838   16.0648   -1.7353 H   0  0  0  0  0  0  0  0  0  0  0  0
  1  2  1  0
  2  3  1  0
  3  4  1  0
  4  5  1  0
  5  6  1  0
  6  7  1  0
  7  8  1  0
  7  9  1  0
  2 10  1  0
 10 11  1  0
 11 12  1  0
 12 13  1  0
 13 14  1  1
 13 15  1  0
 15 16  1  0
 16 17  1  0
 17 18  2  0
 18 19  1  0
 19 20  1  0
 20 21  1  0
 21 22  1  0
 22 23  1  0
 22 24  1  0
 24 25  1  0
 24 26  1  0
 19 27  1  0
 27 28  1  6
 27 29  1  0
 29 30  1  0
 30 31  1  0
 31 32  1  6
  7  5  1  0
 31 10  1  0
 31 13  1  0
 27 15  1  0
 24 18  1  0
  1 33  1  0
  1 34  1  0
  1 35  1  0
  2 36  1  1
  3 37  1  0
  3 38  1  0
  4 39  1  0
  4 40  1  0
  5 41  1  1
  8 42  1  0
  8 43  1  0
  8 44  1  0
  9 45  1  0
  9 46  1  0
  9 47  1  0
 10 48  1  1
 11 49  1  0
 11 50  1  0
 12 51  1  0
 12 52  1  0
 14 53  1  0
 14 54  1  0
 14 55  1  0
 15 56  1  6
 16 57  1  0
 16 58  1  0
 17 59  1  0
 19 60  1  1
 20 61  1  0
 20 62  1  0
 21 63  1  0
 21 64  1  0
 22 65  1  1
 23 66  1  0
 25 67  1  0
 25 68  1  0
 25 69  1  0
 26 70  1  0
 26 71  1  0
 26 72  1  0
 28 73  1  0
 28 74  1  0
 28 75  1  0
 29 76  1  0
 29 77  1  0
 30 78  1  0
 30 79  1  0
 32 80  1  0
 32 81  1  0
 32 82  1  0
M  END
>  <meeko>  (4) 
{"is_sidechain": [false], "intermolecular_energy": 2.731, "internal_energy": -0.839}

$$$$
EPH_relaxed_0001_pdb2pqr_Repair_63_r2_0001_out
     RDKit          3D

 82 86  0  0  0  0  0  0  0  0999 V2000
    2.2500   17.8870   -2.6810 C   0  0  0  0  0  0  0  0  0  0  0  0
    0.7270   17.7390   -2.7340 C   0  0  2  0  0  0  0  0  0  0  0  0
    0.0520   18.2160   -1.4320 C   0  0  0  0  0  0  0  0  0  0  0  0
    0.8250   17.8410   -0.1650 C   0  0  0  0  0  0  0  0  0  0  0  0
    1.3110   19.0550    0.5670 C   0  0  2  0  0  0  0  0  0  0  0  0
    2.2460   19.8600   -0.1630 O   0  0  0  0  0  0  0  0  0  0  0  0
    2.7450   19.2340    1.0300 C   0  0  0  0  0  0  0  0  0  0  0  0
    3.7830   18.1860    0.7790 C   0  0  0  0  0  0  0  0  0  0  0  0
    3.0230   20.1940    2.1450 C   0  0  0  0  0  0  0  0  0  0  0  0
    0.3540   16.2880   -3.0130 C   0  0  1  0  0  0  0  0  0  0  0  0
    0.4480   15.9260   -4.5190 C   0  0  0  0  0  0  0  0  0  0  0  0
    0.9290   14.4540   -4.5960 C   0  0  0  0  0  0  0  0  0  0  0  0
    0.7790   13.9180   -3.1530 C   0  0  1  0  0  0  0  0  0  0  0  0
   -0.7310   13.5490   -3.0180 C   0  0  0  0  0  0  0  0  0  0  0  0
    1.7040   12.7200   -2.7610 C   0  0  2  0  0  0  0  0  0  0  0  0
    1.4810   11.4310   -3.5720 C   0  0  0  0  0  0  0  0  0  0  0  0
    0.4810   10.4820   -2.9980 C   0  0  0  0  0  0  0  0  0  0  0  0
    0.0000   10.5180   -1.7420 C   0  0  0  0  0  0  0  0  0  0  0  0
    0.5370   11.5300   -0.7210 C   0  0  1  0  0  0  0  0  0  0  0  0
    0.8260   10.8070    0.6210 C   0  0  0  0  0  0  0  0  0  0  0  0
   -0.3840   10.0380    1.1430 C   0  0  0  0  0  0  0  0  0  0  0  0
   -0.8520    9.0020    0.1250 C   0  0  2  0  0  0  0  0  0  0  0  0
    0.1550    7.9940   -0.0050 O   0  0  0  0  0  0  0  0  0  0  0  0
   -1.1640    9.6120   -1.2700 C   0  0  0  0  0  0  0  0  0  0  0  0
   -2.4480   10.4740   -1.1860 C   0  0  0  0  0  0  0  0  0  0  0  0
   -1.4890    8.4440   -2.2400 C   0  0  0  0  0  0  0  0  0  0  0  0
    1.7580   12.4240   -1.2070 C   0  0  1  0  0  0  0  0  0  0  0  0
    3.1020   11.6800   -0.9420 C   0  0  0  0  0  0  0  0  0  0  0  0
    1.8030   13.7430   -0.3480 C   0  0  0  0  0  0  0  0  0  0  0  0
    0.9610   14.9300   -0.8530 C   0  0  0  0  0  0  0  0  0  0  0  0
    1.2170   15.1910   -2.3400 C   0  0  2  0  0  0  0  0  0  0  0  0
    2.7240   15.5870   -2.5040 C   0  0  0  0  0  0  0  0  0  0  0  0
    2.5790   17.9190   -1.6318 H   0  0  0  0  0  0  0  0  0  0  0  0
    2.7195   17.0302   -3.1865 H   0  0  0  0  0  0  0  0  0  0  0  0
    2.5457   18.8181   -3.1865 H   0  0  0  0  0  0  0  0  0  0  0  0
    0.3608   18.3795   -3.5499 H   0  0  0  0  0  0  0  0  0  0  0  0
   -0.0414   19.3114   -1.4704 H   0  0  0  0  0  0  0  0  0  0  0  0
   -0.9246   17.7133   -1.3734 H   0  0  0  0  0  0  0  0  0  0  0  0
    0.1635   17.2653    0.4990 H   0  0  0  0  0  0  0  0  0  0  0  0
    1.7011   17.2454   -0.4612 H   0  0  0  0  0  0  0  0  0  0  0  0
    0.3487   19.1537    1.0906 H   0  0  0  0  0  0  0  0  0  0  0  0
    4.1598   17.8056    1.7399 H   0  0  0  0  0  0  0  0  0  0  0  0
    3.3380   17.3589    0.2063 H   0  0  0  0  0  0  0  0  0  0  0  0
    4.6143   18.6230    0.2063 H   0  0  0  0  0  0  0  0  0  0  0  0
    2.8763   19.6873    3.1103 H   0  0  0  0  0  0  0  0  0  0  0  0
    4.0612   20.5501    2.0719 H   0  0  0  0  0  0  0  0  0  0  0  0
    2.3358   21.0498    2.0719 H   0  0  0  0  0  0  0  0  0  0  0  0
   -0.6639   16.2751   -2.5962 H   0  0  0  0  0  0  0  0  0  0  0  0
   -0.5383   16.0276   -4.9953 H   0  0  0  0  0  0  0  0  0  0  0  0
    1.1440   16.5969   -5.0438 H   0  0  0  0  0  0  0  0  0  0  0  0
    0.3023   13.8767   -5.2917 H   0  0  0  0  0  0  0  0  0  0  0  0
    1.9616   14.3716   -4.9662 H   0  0  0  0  0  0  0  0  0  0  0  0
   -0.9987   13.4836   -1.9531 H   0  0  0  0  0  0  0  0  0  0  0  0
   -1.3426   14.3241   -3.5029 H   0  0  0  0  0  0  0  0  0  0  0  0
   -0.9162   12.5792   -3.5029 H   0  0  0  0  0  0  0  0  0  0  0  0
    2.7000   13.0862   -3.0505 H   0  0  0  0  0  0  0  0  0  0  0  0
    1.1400   11.7169   -4.5780 H   0  0  0  0  0  0  0  0  0  0  0  0
    2.4435   10.8984   -3.5683 H   0  0  0  0  0  0  0  0  0  0  0  0
    0.1058    9.6860   -3.6581 H   0  0  0  0  0  0  0  0  0  0  0  0
   -0.2614   12.2735   -0.5808 H   0  0  0  0  0  0  0  0  0  0  0  0
    1.6548   10.0998    0.4693 H   0  0  0  0  0  0  0  0  0  0  0  0
    1.0808   11.5750    1.3662 H   0  0  0  0  0  0  0  0  0  0  0  0
   -0.1098    9.5264    2.0773 H   0  0  0  0  0  0  0  0  0  0  0  0
   -1.2030   10.7505    1.3209 H   0  0  0  0  0  0  0  0  0  0  0  0
   -1.7943    8.5751    0.4989 H   0  0  0  0  0  0  0  0  0  0  0  0
    0.8200    8.3230   -0.6330 H   0  0  0  0  0  0  0  0  0  0  0  0
   -2.7053   10.6467   -0.1305 H   0  0  0  0  0  0  0  0  0  0  0  0
   -2.2747   11.4394   -1.6839 H   0  0  0  0  0  0  0  0  0  0  0  0
   -3.2759    9.9481   -1.6839 H   0  0  0  0  0  0  0  0  0  0  0  0
   -1.7394    7.5440   -1.6593 H   0  0  0  0  0  0  0  0  0  0  0  0
   -2.3442    8.7210   -2.8740 H   0  0  0  0  0  0  0  0  0  0  0  0
   -0.6136    8.2395   -2.8740 H   0  0  0  0  0  0  0  0  0  0  0  0
    3.2639   11.5904    0.1423 H   0  0  0  0  0  0  0  0  0  0  0  0
    3.0603   10.6765   -1.3907 H   0  0  0  0  0  0  0  0  0  0  0  0
    3.9302   12.2481   -1.3907 H   0  0  0  0  0  0  0  0  0  0  0  0
    1.4523   13.4930    0.6642 H   0  0  0  0  0  0  0  0  0  0  0  0
    2.8465   14.0865   -0.4027 H   0  0  0  0  0  0  0  0  0  0  0  0
   -0.1052   14.7031   -0.7059 H   0  0  0  0  0  0  0  0  0  0  0  0
    1.2456   15.8282   -0.2854 H   0  0  0  0  0  0  0  0  0  0  0  0
    3.1817   15.7073   -1.5110 H   0  0  0  0  0  0  0  0  0  0  0  0
    3.2524   14.7972   -3.0581 H   0  0  0  0  0  0  0  0  0  0  0  0
    2.7959   16.5345   -3.0581 H   0  0  0  0  0  0  0  0  0  0  0  0
  1  2  1  0
  2  3  1  0
  3  4  1  0
  4  5  1  0
  5  6  1  0
  6  7  1  0
  7  8  1  0
  7  9  1  0
  2 10  1  0
 10 11  1  0
 11 12  1  0
 12 13  1  0
 13 14  1  1
 13 15  1  0
 15 16  1  0
 16 17  1  0
 17 18  2  0
 18 19  1  0
 19 20  1  0
 20 21  1  0
 21 22  1  0
 22 23  1  0
 22 24  1  0
 24 25  1  0
 24 26  1  0
 19 27  1  0
 27 28  1  6
 27 29  1  0
 29 30  1  0
 30 31  1  0
 31 32  1  1
  7  5  1  0
 31 10  1  0
 31 13  1  0
 27 15  1  0
 24 18  1  0
  1 33  1  0
  1 34  1  0
  1 35  1  0
  2 36  1  6
  3 37  1  0
  3 38  1  0
  4 39  1  0
  4 40  1  0
  5 41  1  1
  8 42  1  0
  8 43  1  0
  8 44  1  0
  9 45  1  0
  9 46  1  0
  9 47  1  0
 10 48  1  1
 11 49  1  0
 11 50  1  0
 12 51  1  0
 12 52  1  0
 14 53  1  0
 14 54  1  0
 14 55  1  0
 15 56  1  6
 16 57  1  0
 16 58  1  0
 17 59  1  0
 19 60  1  1
 20 61  1  0
 20 62  1  0
 21 63  1  0
 21 64  1  0
 22 65  1  1
 23 66  1  0
 25 67  1  0
 25 68  1  0
 25 69  1  0
 26 70  1  0
 26 71  1  0
 26 72  1  0
 28 73  1  0
 28 74  1  0
 28 75  1  0
 29 76  1  0
 29 77  1  0
 30 78  1  0
 30 79  1  0
 32 80  1  0
 32 81  1  0
 32 82  1  0
M  END
>  <meeko>  (5) 
{"is_sidechain": [false], "intermolecular_energy": 2.731, "internal_energy": -0.839}

$$$$
EPH_relaxed_0001_pdb2pqr_Repair_63_r2_0001_out
     RDKit          3D

 82 86  0  0  0  0  0  0  0  0999 V2000
    3.8680   17.7430    0.7620 C   0  0  0  0  0  0  0  0  0  0  0  0
    2.8430   18.2180   -0.2720 C   0  0  2  0  0  0  0  0  0  0  0  0
    2.1580   19.5330    0.1510 C   0  0  0  0  0  0  0  0  0  0  0  0
    0.9330   19.3290    1.0460 C   0  0  0  0  0  0  0  0  0  0  0  0
   -0.2530   20.0960    0.5460 C   0  0  2  0  0  0  0  0  0  0  0  0
   -1.3390   20.1940    1.4770 O   0  0  0  0  0  0  0  0  0  0  0  0
   -1.6040   19.4620    0.2690 C   0  0  0  0  0  0  0  0  0  0  0  0
   -1.8370   18.0000    0.4820 C   0  0  0  0  0  0  0  0  0  0  0  0
   -2.5430   20.1600   -0.6650 C   0  0  0  0  0  0  0  0  0  0  0  0
    1.7950   17.1350   -0.5000 C   0  0  1  0  0  0  0  0  0  0  0  0
    0.5820   17.6420   -1.3240 C   0  0  0  0  0  0  0  0  0  0  0  0
    0.1120   16.4550   -2.2040 C   0  0  0  0  0  0  0  0  0  0  0  0
    0.8460   15.2240   -1.6240 C   0  0  1  0  0  0  0  0  0  0  0  0
   -0.0000   14.8010   -0.3820 C   0  0  0  0  0  0  0  0  0  0  0  0
    1.0700   14.0270   -2.6040 C   0  0  2  0  0  0  0  0  0  0  0  0
   -0.2160   13.3710   -3.1370 C   0  0  0  0  0  0  0  0  0  0  0  0
   -0.7400   12.2380   -2.3190 C   0  0  0  0  0  0  0  0  0  0  0  0
   -0.0550   11.5800   -1.3650 C   0  0  0  0  0  0  0  0  0  0  0  0
    1.4210   11.8970   -1.0940 C   0  0  1  0  0  0  0  0  0  0  0  0
    2.2240   10.5740   -0.9870 C   0  0  0  0  0  0  0  0  0  0  0  0
    1.6350    9.6140    0.0420 C   0  0  0  0  0  0  0  0  0  0  0  0
    0.1850    9.2770   -0.2930 C   0  0  2  0  0  0  0  0  0  0  0  0
    0.1570    8.5230   -1.5090 O   0  0  0  0  0  0  0  0  0  0  0  0
   -0.7190   10.5330   -0.4360 C   0  0  0  0  0  0  0  0  0  0  0  0
   -0.9320   11.1820    0.9540 C   0  0  0  0  0  0  0  0  0  0  0  0
   -2.1190   10.0620   -0.9140 C   0  0  0  0  0  0  0  0  0  0  0  0
    2.0970   12.9440   -2.0810 C   0  0  1  0  0  0  0  0  0  0  0  0
    2.6490   12.2080   -3.3400 C   0  0  0  0  0  0  0  0  0  0  0  0
    3.3410   13.5940   -1.3670 C   0  0  0  0  0  0  0  0  0  0  0  0
    3.0730   14.8450   -0.5080 C   0  0  0  0  0  0  0  0  0  0  0  0
    2.2370   15.8710   -1.2790 C   0  0  2  0  0  0  0  0  0  0  0  0
    3.0720   16.3310   -2.5220 C   0  0  0  0  0  0  0  0  0  0  0  0
    3.4781   17.9237    1.7746 H   0  0  0  0  0  0  0  0  0  0  0  0
    4.0534   16.6672    0.6271 H   0  0  0  0  0  0  0  0  0  0  0  0
    4.8087   18.2970    0.6271 H   0  0  0  0  0  0  0  0  0  0  0  0
    3.3848   18.4146   -1.2089 H   0  0  0  0  0  0  0  0  0  0  0  0
    2.8898   20.1452    0.6984 H   0  0  0  0  0  0  0  0  0  0  0  0
    1.8058   20.0222   -0.7691 H   0  0  0  0  0  0  0  0  0  0  0  0
    0.6817   18.2583    1.0676 H   0  0  0  0  0  0  0  0  0  0  0  0
    1.1792   19.6967    2.0530 H   0  0  0  0  0  0  0  0  0  0  0  0
    0.3944   20.7474   -0.0595 H   0  0  0  0  0  0  0  0  0  0  0  0
   -1.8709   17.7874    1.5607 H   0  0  0  0  0  0  0  0  0  0  0  0
   -2.7927   17.7100    0.0210 H   0  0  0  0  0  0  0  0  0  0  0  0
   -1.0188   17.4273    0.0210 H   0  0  0  0  0  0  0  0  0  0  0  0
   -3.2922   20.7169   -0.0832 H   0  0  0  0  0  0  0  0  0  0  0  0
   -1.9775   20.8588   -1.2990 H   0  0  0  0  0  0  0  0  0  0  0  0
   -3.0492   19.4171   -1.2990 H   0  0  0  0  0  0  0  0  0  0  0  0
    1.5693   16.8736    0.5444 H   0  0  0  0  0  0  0  0  0  0  0  0
   -0.2281   17.9582   -0.6504 H   0  0  0  0  0  0  0  0  0  0  0  0
    0.8592   18.5077   -1.9435 H   0  0  0  0  0  0  0  0  0  0  0  0
   -0.9781   16.3264   -2.1323 H   0  0  0  0  0  0  0  0  0  0  0  0
    0.3373   16.6110   -3.2693 H   0  0  0  0  0  0  0  0  0  0  0  0
    0.5393   15.0706    0.5380 H   0  0  0  0  0  0  0  0  0  0  0  0
   -0.9693   15.3205   -0.4045 H   0  0  0  0  0  0  0  0  0  0  0  0
   -0.1660   13.7138   -0.4045 H   0  0  0  0  0  0  0  0  0  0  0  0
    1.5374   14.5167   -3.4710 H   0  0  0  0  0  0  0  0  0  0  0  0
   -0.9968   14.1443   -3.1862 H   0  0  0  0  0  0  0  0  0  0  0  0
    0.0438   12.9442   -4.1170 H   0  0  0  0  0  0  0  0  0  0  0  0
   -1.7731   11.9132   -2.5119 H   0  0  0  0  0  0  0  0  0  0  0  0
    1.4468   12.4272   -0.1305 H   0  0  0  0  0  0  0  0  0  0  0  0
    2.2236   10.0808   -1.9702 H   0  0  0  0  0  0  0  0  0  0  0  0
    3.2438   10.8276   -0.6618 H   0  0  0  0  0  0  0  0  0  0  0  0
    2.2273    8.6871    0.0499 H   0  0  0  0  0  0  0  0  0  0  0  0
    1.6636   10.0975    1.0296 H   0  0  0  0  0  0  0  0  0  0  0  0
   -0.2207    8.6933    0.5465 H   0  0  0  0  0  0  0  0  0  0  0  0
    0.9940    8.0330   -1.5710 H   0  0  0  0  0  0  0  0  0  0  0  0
   -0.6922   10.4513    1.7405 H   0  0  0  0  0  0  0  0  0  0  0  0
   -0.2742   12.0579    1.0544 H   0  0  0  0  0  0  0  0  0  0  0  0
   -1.9809   11.4978    1.0544 H   0  0  0  0  0  0  0  0  0  0  0  0
   -2.7523    9.8489   -0.0402 H   0  0  0  0  0  0  0  0  0  0  0  0
   -2.5847   10.8529   -1.5202 H   0  0  0  0  0  0  0  0  0  0  0  0
   -2.0119    9.1504   -1.5202 H   0  0  0  0  0  0  0  0  0  0  0  0
    3.2812   11.3651   -3.0242 H   0  0  0  0  0  0  0  0  0  0  0  0
    1.8091   11.8310   -3.9420 H   0  0  0  0  0  0  0  0  0  0  0  0
    3.2461   12.9088   -3.9420 H   0  0  0  0  0  0  0  0  0  0  0  0
    3.7861   12.8300   -0.7127 H   0  0  0  0  0  0  0  0  0  0  0  0
    3.9936   13.9389   -2.1826 H   0  0  0  0  0  0  0  0  0  0  0  0
    2.5292   14.5477    0.4008 H   0  0  0  0  0  0  0  0  0  0  0  0
    4.0378   15.3041   -0.2467 H   0  0  0  0  0  0  0  0  0  0  0  0
    3.9882   16.8358   -2.1818 H   0  0  0  0  0  0  0  0  0  0  0  0
    3.3404   15.4535   -3.1285 H   0  0  0  0  0  0  0  0  0  0  0  0
    2.4737   17.0268   -3.1285 H   0  0  0  0  0  0  0  0  0  0  0  0
  1  2  1  0
  2  3  1  0
  3  4  1  0
  4  5  1  0
  5  6  1  0
  6  7  1  0
  7  8  1  0
  7  9  1  0
  2 10  1  0
 10 11  1  0
 11 12  1  0
 12 13  1  0
 13 14  1  1
 13 15  1  0
 15 16  1  0
 16 17  1  0
 17 18  2  0
 18 19  1  0
 19 20  1  0
 20 21  1  0
 21 22  1  0
 22 23  1  0
 22 24  1  0
 24 25  1  0
 24 26  1  0
 19 27  1  0
 27 28  1  6
 27 29  1  0
 29 30  1  0
 30 31  1  0
 31 32  1  6
  7  5  1  0
 31 10  1  0
 31 13  1  0
 27 15  1  0
 24 18  1  0
  1 33  1  0
  1 34  1  0
  1 35  1  0
  2 36  1  6
  3 37  1  0
  3 38  1  0
  4 39  1  0
  4 40  1  0
  5 41  1  6
  8 42  1  0
  8 43  1  0
  8 44  1  0
  9 45  1  0
  9 46  1  0
  9 47  1  0
 10 48  1  1
 11 49  1  0
 11 50  1  0
 12 51  1  0
 12 52  1  0
 14 53  1  0
 14 54  1  0
 14 55  1  0
 15 56  1  6
 16 57  1  0
 16 58  1  0
 17 59  1  0
 19 60  1  1
 20 61  1  0
 20 62  1  0
 21 63  1  0
 21 64  1  0
 22 65  1  1
 23 66  1  0
 25 67  1  0
 25 68  1  0
 25 69  1  0
 26 70  1  0
 26 71  1  0
 26 72  1  0
 28 73  1  0
 28 74  1  0
 28 75  1  0
 29 76  1  0
 29 77  1  0
 30 78  1  0
 30 79  1  0
 32 80  1  0
 32 81  1  0
 32 82  1  0
M  END
>  <meeko>  (6) 
{"is_sidechain": [false], "intermolecular_energy": 2.731, "internal_energy": -0.839}

$$$$
EPH_relaxed_0001_pdb2pqr_Repair_63_r2_0001_out
     RDKit          3D

 82 86  0  0  0  0  0  0  0  0999 V2000
   -5.1010    5.9750   -1.6400 C   0  0  0  0  0  0  0  0  0  0  0  0
   -5.4110    7.4720   -1.7350 C   0  0  2  0  0  0  0  0  0  0  0  0
   -5.1980    8.1960   -0.3910 C   0  0  0  0  0  0  0  0  0  0  0  0
   -4.1020    9.2640   -0.4340 C   0  0  0  0  0  0  0  0  0  0  0  0
   -2.7730    8.6810   -0.8070 C   0  0  2  0  0  0  0  0  0  0  0  0
   -1.7200    8.9420    0.1300 O   0  0  0  0  0  0  0  0  0  0  0  0
   -1.5640    9.5210   -1.1750 C   0  0  0  0  0  0  0  0  0  0  0  0
   -1.6280   11.0160   -1.1900 C   0  0  0  0  0  0  0  0  0  0  0  0
   -0.4760    8.8910   -1.9880 C   0  0  0  0  0  0  0  0  0  0  0  0
   -6.8420    7.6770   -2.2160 C   0  0  1  0  0  0  0  0  0  0  0  0
   -7.1220    6.9790   -3.5740 C   0  0  0  0  0  0  0  0  0  0  0  0
   -8.5900    6.4840   -3.5280 C   0  0  0  0  0  0  0  0  0  0  0  0
   -9.2030    7.1940   -2.2980 C   0  0  1  0  0  0  0  0  0  0  0  0
   -9.5700    8.6250   -2.8030 C   0  0  0  0  0  0  0  0  0  0  0  0
  -10.4270    6.4860   -1.6310 C   0  0  2  0  0  0  0  0  0  0  0  0
  -11.6680    6.3430   -2.5290 C   0  0  0  0  0  0  0  0  0  0  0  0
  -12.6410    7.4730   -2.4580 C   0  0  0  0  0  0  0  0  0  0  0  0
  -12.6700    8.4200   -1.5020 C   0  0  0  0  0  0  0  0  0  0  0  0
  -11.7200    8.3560   -0.2990 C   0  0  1  0  0  0  0  0  0  0  0  0
  -12.5160    8.6210    1.0050 C   0  0  0  0  0  0  0  0  0  0  0  0
  -13.3050    9.9260    0.9540 C   0  0  0  0  0  0  0  0  0  0  0  0
  -14.2810    9.9280   -0.2200 C   0  0  2  0  0  0  0  0  0  0  0  0
  -15.2860    8.9370    0.0150 O   0  0  0  0  0  0  0  0  0  0  0  0
  -13.5930    9.6610   -1.5880 C   0  0  0  0  0  0  0  0  0  0  0  0
  -12.7280   10.8830   -1.9830 C   0  0  0  0  0  0  0  0  0  0  0  0
  -14.7040    9.5480   -2.6670 C   0  0  0  0  0  0  0  0  0  0  0  0
  -10.8080    7.0580   -0.2050 C   0  0  1  0  0  0  0  0  0  0  0  0
  -11.5750    5.9220    0.5400 C   0  0  0  0  0  0  0  0  0  0  0  0
   -9.5390    7.3830    0.6680 C   0  0  0  0  0  0  0  0  0  0  0  0
   -8.3200    7.9690   -0.0700 C   0  0  0  0  0  0  0  0  0  0  0  0
   -7.9800    7.1400   -1.3120 C   0  0  2  0  0  0  0  0  0  0  0  0
   -7.5850    5.7020   -0.8340 C   0  0  0  0  0  0  0  0  0  0  0  0
   -5.0398    5.6796   -0.5822 H   0  0  0  0  0  0  0  0  0  0  0  0
   -5.8998    5.4030   -2.1348 H   0  0  0  0  0  0  0  0  0  0  0  0
   -4.1408    5.7673   -2.1348 H   0  0  0  0  0  0  0  0  0  0  0  0
   -4.7089    7.9095   -2.4600 H   0  0  0  0  0  0  0  0  0  0  0  0
   -6.1432    8.6798   -0.1036 H   0  0  0  0  0  0  0  0  0  0  0  0
   -4.8774    7.4356    0.3364 H   0  0  0  0  0  0  0  0  0  0  0  0
   -4.3773   10.0273   -1.1767 H   0  0  0  0  0  0  0  0  0  0  0  0
   -4.0132    9.7042    0.5702 H   0  0  0  0  0  0  0  0  0  0  0  0
   -3.2603    7.8305   -1.3062 H   0  0  0  0  0  0  0  0  0  0  0  0
   -1.6441   11.3927   -0.1566 H   0  0  0  0  0  0  0  0  0  0  0  0
   -0.7461   11.4155   -1.7122 H   0  0  0  0  0  0  0  0  0  0  0  0
   -2.5408   11.3387   -1.7122 H   0  0  0  0  0  0  0  0  0  0  0  0
    0.2778    8.4545   -1.3162 H   0  0  0  0  0  0  0  0  0  0  0  0
   -0.9033    8.1006   -2.6225 H   0  0  0  0  0  0  0  0  0  0  0  0
   -0.0032    9.6551   -2.6225 H   0  0  0  0  0  0  0  0  0  0  0  0
   -6.8708    8.7762   -2.2448 H   0  0  0  0  0  0  0  0  0  0  0  0
   -6.9884    7.6919   -4.4010 H   0  0  0  0  0  0  0  0  0  0  0  0
   -6.4278    6.1417   -3.7382 H   0  0  0  0  0  0  0  0  0  0  0  0
   -9.1245    6.7679   -4.4466 H   0  0  0  0  0  0  0  0  0  0  0  0
   -8.6587    5.3886   -3.4545 H   0  0  0  0  0  0  0  0  0  0  0  0
   -9.7395    9.2860   -1.9403 H   0  0  0  0  0  0  0  0  0  0  0  0
   -8.7445    9.0217   -3.4123 H   0  0  0  0  0  0  0  0  0  0  0  0
  -10.4845    8.5755   -3.4123 H   0  0  0  0  0  0  0  0  0  0  0  0
  -10.0521    5.4636   -1.4758 H   0  0  0  0  0  0  0  0  0  0  0  0
  -11.3254    6.2546   -3.5705 H   0  0  0  0  0  0  0  0  0  0  0  0
  -12.2060    5.4553   -2.1649 H   0  0  0  0  0  0  0  0  0  0  0  0
  -13.3977    7.5370   -3.2538 H   0  0  0  0  0  0  0  0  0  0  0  0
  -10.9805    9.1557   -0.4526 H   0  0  0  0  0  0  0  0  0  0  0  0
  -13.2189    7.7900    1.1641 H   0  0  0  0  0  0  0  0  0  0  0  0
  -11.7909    8.7012    1.8283 H   0  0  0  0  0  0  0  0  0  0  0  0
  -13.8690   10.0426    1.8912 H   0  0  0  0  0  0  0  0  0  0  0  0
  -12.5981   10.7588    0.8243 H   0  0  0  0  0  0  0  0  0  0  0  0
  -14.7220   10.9338   -0.2817 H   0  0  0  0  0  0  0  0  0  0  0  0
  -15.1210    8.5520    0.8920 H   0  0  0  0  0  0  0  0  0  0  0  0
  -12.3703   11.3883   -1.0738 H   0  0  0  0  0  0  0  0  0  0  0  0
  -11.8665   10.5455   -2.5779 H   0  0  0  0  0  0  0  0  0  0  0  0
  -13.3327   11.5833   -2.5779 H   0  0  0  0  0  0  0  0  0  0  0  0
  -15.6833    9.4484   -2.1760 H   0  0  0  0  0  0  0  0  0  0  0  0
  -14.6988   10.4513   -3.2947 H   0  0  0  0  0  0  0  0  0  0  0  0
  -14.5170    8.6642   -3.2947 H   0  0  0  0  0  0  0  0  0  0  0  0
  -11.4781    6.0655    1.6263 H   0  0  0  0  0  0  0  0  0  0  0  0
  -12.6382    5.9523    0.2595 H   0  0  0  0  0  0  0  0  0  0  0  0
  -11.1495    4.9472    0.2595 H   0  0  0  0  0  0  0  0  0  0  0  0
   -9.8416    8.1076    1.4384 H   0  0  0  0  0  0  0  0  0  0  0  0
   -9.2004    6.4113    1.0569 H   0  0  0  0  0  0  0  0  0  0  0  0
   -8.5471    9.0006   -0.3771 H   0  0  0  0  0  0  0  0  0  0  0  0
   -7.4561    7.9510    0.6107 H   0  0  0  0  0  0  0  0  0  0  0  0
   -7.5764    5.6706    0.2655 H   0  0  0  0  0  0  0  0  0  0  0  0
   -8.3167    4.9748   -1.2159 H   0  0  0  0  0  0  0  0  0  0  0  0
   -6.5845    5.4506   -1.2159 H   0  0  0  0  0  0  0  0  0  0  0  0
  1  2  1  0
  2  3  1  0
  3  4  1  0
  4  5  1  0
  5  6  1  0
  6  7  1  0
  7  8  1  0
  7  9  1  0
  2 10  1  0
 10 11  1  0
 11 12  1  0
 12 13  1  0
 13 14  1  6
 13 15  1  0
 15 16  1  0
 16 17  1  0
 17 18  2  0
 18 19  1  0
 19 20  1  0
 20 21  1  0
 21 22  1  0
 22 23  1  0
 22 24  1  0
 24 25  1  0
 24 26  1  0
 19 27  1  0
 27 28  1  1
 27 29  1  0
 29 30  1  0
 30 31  1  0
 31 32  1  1
  7  5  1  0
 31 10  1  0
 31 13  1  0
 27 15  1  0
 24 18  1  0
  1 33  1  0
  1 34  1  0
  1 35  1  0
  2 36  1  6
  3 37  1  0
  3 38  1  0
  4 39  1  0
  4 40  1  0
  5 41  1  6
  8 42  1  0
  8 43  1  0
  8 44  1  0
  9 45  1  0
  9 46  1  0
  9 47  1  0
 10 48  1  6
 11 49  1  0
 11 50  1  0
 12 51  1  0
 12 52  1  0
 14 53  1  0
 14 54  1  0
 14 55  1  0
 15 56  1  1
 16 57  1  0
 16 58  1  0
 17 59  1  0
 19 60  1  6
 20 61  1  0
 20 62  1  0
 21 63  1  0
 21 64  1  0
 22 65  1  6
 23 66  1  0
 25 67  1  0
 25 68  1  0
 25 69  1  0
 26 70  1  0
 26 71  1  0
 26 72  1  0
 28 73  1  0
 28 74  1  0
 28 75  1  0
 29 76  1  0
 29 77  1  0
 30 78  1  0
 30 79  1  0
 32 80  1  0
 32 81  1  0
 32 82  1  0
M  END
>  <meeko>  (7) 
{"is_sidechain": [false], "intermolecular_energy": 2.731, "internal_energy": -0.839}

$$$$
EPH_relaxed_0001_pdb2pqr_Repair_63_r2_0001_out
     RDKit          3D

 82 86  0  0  0  0  0  0  0  0999 V2000
    0.4420    8.8260   -2.3950 C   0  0  0  0  0  0  0  0  0  0  0  0
    1.1880    9.9730   -3.0810 C   0  0  2  0  0  0  0  0  0  0  0  0
    2.6860    9.9910   -2.7170 C   0  0  0  0  0  0  0  0  0  0  0  0
    3.5770   10.5990   -3.8040 C   0  0  0  0  0  0  0  0  0  0  0  0
    4.9750   10.8240   -3.3140 C   0  0  2  0  0  0  0  0  0  0  0  0
    5.5780   12.0440   -3.7650 O   0  0  0  0  0  0  0  0  0  0  0  0
    6.1900   10.8270   -4.2230 C   0  0  0  0  0  0  0  0  0  0  0  0
    6.0620   10.5980   -5.6960 C   0  0  0  0  0  0  0  0  0  0  0  0
    7.5350   10.5640   -3.6200 C   0  0  0  0  0  0  0  0  0  0  0  0
    0.5460   11.3050   -2.7110 C   0  0  1  0  0  0  0  0  0  0  0  0
   -0.8290   11.1320   -2.0120 C   0  0  0  0  0  0  0  0  0  0  0  0
   -0.9450   12.2700   -0.9660 C   0  0  0  0  0  0  0  0  0  0  0  0
    0.2010   13.2460   -1.3220 C   0  0  1  0  0  0  0  0  0  0  0  0
   -0.3540   14.1030   -2.5020 C   0  0  0  0  0  0  0  0  0  0  0  0
    0.7310   14.1430   -0.1560 C   0  0  2  0  0  0  0  0  0  0  0  0
   -0.3010   15.1170    0.4400 C   0  0  0  0  0  0  0  0  0  0  0  0
   -0.3500   16.4640   -0.2000 C   0  0  0  0  0  0  0  0  0  0  0  0
    0.5890   16.9770   -1.0180 C   0  0  0  0  0  0  0  0  0  0  0  0
    1.8910   16.2160   -1.2960 C   0  0  1  0  0  0  0  0  0  0  0  0
    3.0950   17.1860   -1.1680 C   0  0  0  0  0  0  0  0  0  0  0  0
    2.9440   18.4250   -2.0460 C   0  0  0  0  0  0  0  0  0  0  0  0
    1.6670   19.1860   -1.7000 C   0  0  2  0  0  0  0  0  0  0  0  0
    1.7940   19.7240   -0.3810 O   0  0  0  0  0  0  0  0  0  0  0  0
    0.3880   18.3070   -1.7850 C   0  0  0  0  0  0  0  0  0  0  0  0
    0.0830   17.9730   -3.2660 C   0  0  0  0  0  0  0  0  0  0  0  0
   -0.8090   19.1550   -1.2760 C   0  0  0  0  0  0  0  0  0  0  0  0
    2.1000   14.8730   -0.4720 C   0  0  1  0  0  0  0  0  0  0  0  0
    2.7620   15.1910    0.9040 C   0  0  0  0  0  0  0  0  0  0  0  0
    3.1080   13.9450   -1.2470 C   0  0  0  0  0  0  0  0  0  0  0  0
    2.5090   12.9960   -2.3020 C   0  0  0  0  0  0  0  0  0  0  0  0
    1.3200   12.2190   -1.7270 C   0  0  2  0  0  0  0  0  0  0  0  0
    1.8520   11.3300   -0.5520 C   0  0  0  0  0  0  0  0  0  0  0  0
    0.5167    8.9409   -1.3036 H   0  0  0  0  0  0  0  0  0  0  0  0
   -0.6163    8.8461   -2.6942 H   0  0  0  0  0  0  0  0  0  0  0  0
    0.8895    7.8667   -2.6942 H   0  0  0  0  0  0  0  0  0  0  0  0
    1.1141    9.8135   -4.1669 H   0  0  0  0  0  0  0  0  0  0  0  0
    2.8124   10.5786   -1.7957 H   0  0  0  0  0  0  0  0  0  0  0  0
    2.9992    8.9438   -2.5936 H   0  0  0  0  0  0  0  0  0  0  0  0
    3.6069    9.9144   -4.6645 H   0  0  0  0  0  0  0  0  0  0  0  0
    3.1530   11.5731   -4.0893 H   0  0  0  0  0  0  0  0  0  0  0  0
    4.7570   10.2926   -2.3759 H   0  0  0  0  0  0  0  0  0  0  0  0
    5.5325    9.6506   -5.8751 H   0  0  0  0  0  0  0  0  0  0  0  0
    5.4957   11.4257   -6.1479 H   0  0  0  0  0  0  0  0  0  0  0  0
    7.0637   10.5493   -6.1479 H   0  0  0  0  0  0  0  0  0  0  0  0
    7.4545   10.5797   -2.5231 H   0  0  0  0  0  0  0  0  0  0  0  0
    7.8970    9.5781   -3.9470 H   0  0  0  0  0  0  0  0  0  0  0  0
    8.2417   11.3410   -3.9470 H   0  0  0  0  0  0  0  0  0  0  0  0
    0.5051   11.7723   -3.7059 H   0  0  0  0  0  0  0  0  0  0  0  0
   -1.6414   11.2110   -2.7494 H   0  0  0  0  0  0  0  0  0  0  0  0
   -0.9069   10.1451   -1.5324 H   0  0  0  0  0  0  0  0  0  0  0  0
   -1.9208   12.7717   -1.0447 H   0  0  0  0  0  0  0  0  0  0  0  0
   -0.8696   11.8970    0.0661 H   0  0  0  0  0  0  0  0  0  0  0  0
   -0.9107   14.9627   -2.1007 H   0  0  0  0  0  0  0  0  0  0  0  0
    0.4826   14.4635   -3.1186 H   0  0  0  0  0  0  0  0  0  0  0  0
   -1.0251   13.4870   -3.1186 H   0  0  0  0  0  0  0  0  0  0  0  0
    0.9361   13.4061    0.6345 H   0  0  0  0  0  0  0  0  0  0  0  0
   -1.2962   14.6585    0.3436 H   0  0  0  0  0  0  0  0  0  0  0  0
    0.0070   15.2864    1.4823 H   0  0  0  0  0  0  0  0  0  0  0  0
   -1.2277   17.0914    0.0145 H   0  0  0  0  0  0  0  0  0  0  0  0
    1.8136   15.8503   -2.3305 H   0  0  0  0  0  0  0  0  0  0  0  0
    3.1804   17.5055   -0.1189 H   0  0  0  0  0  0  0  0  0  0  0  0
    3.9944   16.6478   -1.5018 H   0  0  0  0  0  0  0  0  0  0  0  0
    3.8100   19.0849   -1.8895 H   0  0  0  0  0  0  0  0  0  0  0  0
    2.8888   18.1059   -3.0973 H   0  0  0  0  0  0  0  0  0  0  0  0
    1.5477   19.9861   -2.4454 H   0  0  0  0  0  0  0  0  0  0  0  0
    1.5680   20.6690   -0.4250 H   0  0  0  0  0  0  0  0  0  0  0  0
   -0.6581   17.1615   -3.3138 H   0  0  0  0  0  0  0  0  0  0  0  0
   -0.3180   18.8658   -3.7681 H   0  0  0  0  0  0  0  0  0  0  0  0
    1.0084   17.6545   -3.7681 H   0  0  0  0  0  0  0  0  0  0  0  0
   -0.8143   19.1587   -0.1760 H   0  0  0  0  0  0  0  0  0  0  0  0
   -0.7112   20.1864   -1.6457 H   0  0  0  0  0  0  0  0  0  0  0  0
   -1.7496   18.7206   -1.6457 H   0  0  0  0  0  0  0  0  0  0  0  0
    2.0929   14.8696    1.7158 H   0  0  0  0  0  0  0  0  0  0  0  0
    3.7189   14.6543    0.9833 H   0  0  0  0  0  0  0  0  0  0  0  0
    2.9411   16.2734    0.9833 H   0  0  0  0  0  0  0  0  0  0  0  0
    3.8332   14.5953   -1.7581 H   0  0  0  0  0  0  0  0  0  0  0  0
    3.5400   13.2858   -0.4796 H   0  0  0  0  0  0  0  0  0  0  0  0
    2.1695   13.5863   -3.1659 H   0  0  0  0  0  0  0  0  0  0  0  0
    3.2834   12.2772   -2.6079 H   0  0  0  0  0  0  0  0  0  0  0  0
    1.5771   11.7894    0.4089 H   0  0  0  0  0  0  0  0  0  0  0  0
    1.4056   10.3270   -0.6199 H   0  0  0  0  0  0  0  0  0  0  0  0
    2.9469   11.2494   -0.6199 H   0  0  0  0  0  0  0  0  0  0  0  0
  1  2  1  0
  2  3  1  0
  3  4  1  0
  4  5  1  0
  5  6  1  0
  6  7  1  0
  7  8  1  0
  7  9  1  0
  2 10  1  0
 10 11  1  0
 11 12  1  0
 12 13  1  0
 13 14  1  6
 13 15  1  0
 15 16  1  0
 16 17  1  0
 17 18  2  0
 18 19  1  0
 19 20  1  0
 20 21  1  0
 21 22  1  0
 22 23  1  0
 22 24  1  0
 24 25  1  0
 24 26  1  0
 19 27  1  0
 27 28  1  1
 27 29  1  0
 29 30  1  0
 30 31  1  0
 31 32  1  1
  7  5  1  0
 31 10  1  0
 31 13  1  0
 27 15  1  0
 24 18  1  0
  1 33  1  0
  1 34  1  0
  1 35  1  0
  2 36  1  6
  3 37  1  0
  3 38  1  0
  4 39  1  0
  4 40  1  0
  5 41  1  1
  8 42  1  0
  8 43  1  0
  8 44  1  0
  9 45  1  0
  9 46  1  0
  9 47  1  0
 10 48  1  6
 11 49  1  0
 11 50  1  0
 12 51  1  0
 12 52  1  0
 14 53  1  0
 14 54  1  0
 14 55  1  0
 15 56  1  1
 16 57  1  0
 16 58  1  0
 17 59  1  0
 19 60  1  6
 20 61  1  0
 20 62  1  0
 21 63  1  0
 21 64  1  0
 22 65  1  6
 23 66  1  0
 25 67  1  0
 25 68  1  0
 25 69  1  0
 26 70  1  0
 26 71  1  0
 26 72  1  0
 28 73  1  0
 28 74  1  0
 28 75  1  0
 29 76  1  0
 29 77  1  0
 30 78  1  0
 30 79  1  0
 32 80  1  0
 32 81  1  0
 32 82  1  0
M  END
>  <meeko>  (8) 
{"is_sidechain": [false], "intermolecular_energy": 2.731, "internal_energy": -0.839}

$$$$
EPH_relaxed_0001_pdb2pqr_Repair_63_r2_0001_out
     RDKit          3D

 82 86  0  0  0  0  0  0  0  0999 V2000
   -3.7080    7.2090   -3.4170 C   0  0  0  0  0  0  0  0  0  0  0  0
   -3.7490    7.2780   -1.8880 C   0  0  2  0  0  0  0  0  0  0  0  0
   -5.1710    7.0580   -1.3350 C   0  0  0  0  0  0  0  0  0  0  0  0
   -6.2770    7.3090   -2.3640 C   0  0  0  0  0  0  0  0  0  0  0  0
   -7.6070    7.5240   -1.7060 C   0  0  2  0  0  0  0  0  0  0  0  0
   -8.1830    6.3480   -1.1230 O   0  0  0  0  0  0  0  0  0  0  0  0
   -8.9020    6.9260   -2.2240 C   0  0  0  0  0  0  0  0  0  0  0  0
   -8.9310    6.0680   -3.4500 C   0  0  0  0  0  0  0  0  0  0  0  0
  -10.1950    7.5690   -1.8290 C   0  0  0  0  0  0  0  0  0  0  0  0
   -3.2070    8.6210   -1.4130 C   0  0  1  0  0  0  0  0  0  0  0  0
   -3.8080    9.0590   -0.0510 C   0  0  0  0  0  0  0  0  0  0  0  0
   -2.6870    9.8100    0.7110 C   0  0  0  0  0  0  0  0  0  0  0  0
   -1.5960   10.0690   -0.3540 C   0  0  1  0  0  0  0  0  0  0  0  0
   -2.0850   11.3310   -1.1310 C   0  0  0  0  0  0  0  0  0  0  0  0
   -0.1370   10.2490    0.1790 C   0  0  2  0  0  0  0  0  0  0  0  0
    0.0730   11.4590    1.1070 C   0  0  0  0  0  0  0  0  0  0  0  0
    0.4670   12.7260    0.4220 C   0  0  0  0  0  0  0  0  0  0  0  0
    0.9200   12.8240   -0.8410 C   0  0  0  0  0  0  0  0  0  0  0  0
    1.1690   11.5690   -1.6890 C   0  0  1  0  0  0  0  0  0  0  0  0
    2.5490   11.6830   -2.3890 C   0  0  0  0  0  0  0  0  0  0  0  0
    2.6910   12.9700   -3.1970 C   0  0  0  0  0  0  0  0  0  0  0  0
    2.4940   14.1950   -2.3080 C   0  0  2  0  0  0  0  0  0  0  0  0
    3.5750   14.2650   -1.3740 O   0  0  0  0  0  0  0  0  0  0  0  0
    1.1410   14.1870   -1.5430 C   0  0  0  0  0  0  0  0  0  0  0  0
   -0.0220   14.4150   -2.5390 C   0  0  0  0  0  0  0  0  0  0  0  0
    1.1310   15.4030   -0.5780 C   0  0  0  0  0  0  0  0  0  0  0  0
    0.9770   10.1790   -0.9420 C   0  0  1  0  0  0  0  0  0  0  0  0
    2.3020    9.7700   -0.2290 C   0  0  0  0  0  0  0  0  0  0  0  0
    0.6820    9.0590   -2.0090 C   0  0  0  0  0  0  0  0  0  0  0  0
   -0.7910    8.8490   -2.4070 C   0  0  0  0  0  0  0  0  0  0  0  0
   -1.6810    8.7250   -1.1670 C   0  0  2  0  0  0  0  0  0  0  0  0
   -1.2270    7.4510   -0.3760 C   0  0  0  0  0  0  0  0  0  0  0  0
   -3.1691    6.3021   -3.7288 H   0  0  0  0  0  0  0  0  0  0  0  0
   -4.7348    7.1788   -3.8103 H   0  0  0  0  0  0  0  0  0  0  0  0
   -3.1906    8.0964   -3.8103 H   0  0  0  0  0  0  0  0  0  0  0  0
   -3.1158    6.4650   -1.5031 H   0  0  0  0  0  0  0  0  0  0  0  0
   -5.2509    6.0179   -0.9860 H   0  0  0  0  0  0  0  0  0  0  0  0
   -5.3163    7.7854   -0.5228 H   0  0  0  0  0  0  0  0  0  0  0  0
   -6.0212    8.2030   -2.9517 H   0  0  0  0  0  0  0  0  0  0  0  0
   -6.3529    6.4217   -3.0097 H   0  0  0  0  0  0  0  0  0  0  0  0
   -7.3288    8.5501   -1.4238 H   0  0  0  0  0  0  0  0  0  0  0  0
   -8.9668    5.0088   -3.1555 H   0  0  0  0  0  0  0  0  0  0  0  0
   -9.8214    6.3127   -4.0478 H   0  0  0  0  0  0  0  0  0  0  0  0
   -8.0261    6.2520   -4.0478 H   0  0  0  0  0  0  0  0  0  0  0  0
  -10.2667    7.6046   -0.7319 H   0  0  0  0  0  0  0  0  0  0  0  0
  -10.2343    8.5916   -2.2324 H   0  0  0  0  0  0  0  0  0  0  0  0
  -11.0341    6.9832   -2.2324 H   0  0  0  0  0  0  0  0  0  0  0  0
   -3.4931    9.2493   -2.2694 H   0  0  0  0  0  0  0  0  0  0  0  0
   -4.6680    9.7254   -0.2131 H   0  0  0  0  0  0  0  0  0  0  0  0
   -4.1618    8.1897    0.5227 H   0  0  0  0  0  0  0  0  0  0  0  0
   -3.0640   10.7593    1.1193 H   0  0  0  0  0  0  0  0  0  0  0  0
   -2.3058    9.2330    1.5664 H   0  0  0  0  0  0  0  0  0  0  0  0
   -2.3864   12.1090   -0.4141 H   0  0  0  0  0  0  0  0  0  0  0  0
   -1.2691   11.7113   -1.7633 H   0  0  0  0  0  0  0  0  0  0  0  0
   -2.9441   11.0623   -1.7633 H   0  0  0  0  0  0  0  0  0  0  0  0
   -0.0058    9.3596    0.8128 H   0  0  0  0  0  0  0  0  0  0  0  0
   -0.8686   11.6421    1.6455 H   0  0  0  0  0  0  0  0  0  0  0  0
    0.9129   11.1952    1.7665 H   0  0  0  0  0  0  0  0  0  0  0  0
    0.3794   13.6584    0.9991 H   0  0  0  0  0  0  0  0  0  0  0  0
    0.3685   11.5470   -2.4431 H   0  0  0  0  0  0  0  0  0  0  0  0
    3.3367   11.6598   -1.6215 H   0  0  0  0  0  0  0  0  0  0  0  0
    2.6396   10.8384   -3.0878 H   0  0  0  0  0  0  0  0  0  0  0  0
    3.6959   13.0064   -3.6430 H   0  0  0  0  0  0  0  0  0  0  0  0
    1.9216   12.9785   -3.9831 H   0  0  0  0  0  0  0  0  0  0  0  0
    2.4773   15.0784   -2.9632 H   0  0  0  0  0  0  0  0  0  0  0  0
    3.9730   13.3800   -1.3160 H   0  0  0  0  0  0  0  0  0  0  0  0
   -0.9522   14.5974   -1.9810 H   0  0  0  0  0  0  0  0  0  0  0  0
    0.2027   15.2862   -3.1719 H   0  0  0  0  0  0  0  0  0  0  0  0
   -0.1429   13.5235   -3.1719 H   0  0  0  0  0  0  0  0  0  0  0  0
    1.1339   15.0456    0.4623 H   0  0  0  0  0  0  0  0  0  0  0  0
    2.0241   16.0199   -0.7563 H   0  0  0  0  0  0  0  0  0  0  0  0
    0.2279   16.0051   -0.7563 H   0  0  0  0  0  0  0  0  0  0  0  0
    2.1604    9.8137    0.8610 H   0  0  0  0  0  0  0  0  0  0  0  0
    2.5752    8.7457   -0.5225 H   0  0  0  0  0  0  0  0  0  0  0  0
    3.1051   10.4621   -0.5225 H   0  0  0  0  0  0  0  0  0  0  0  0
    1.2402    9.3139   -2.9219 H   0  0  0  0  0  0  0  0  0  0  0  0
    0.9874    8.1173   -1.5294 H   0  0  0  0  0  0  0  0  0  0  0  0
   -1.1275    9.7072   -3.0072 H   0  0  0  0  0  0  0  0  0  0  0  0
   -0.8681    7.9186   -2.9888 H   0  0  0  0  0  0  0  0  0  0  0  0
   -1.2965    7.6461    0.7043 H   0  0  0  0  0  0  0  0  0  0  0  0
   -1.8789    6.6048   -0.6385 H   0  0  0  0  0  0  0  0  0  0  0  0
   -0.1868    7.2077   -0.6385 H   0  0  0  0  0  0  0  0  0  0  0  0
  1  2  1  0
  2  3  1  0
  3  4  1  0
  4  5  1  0
  5  6  1  0
  6  7  1  0
  7  8  1  0
  7  9  1  0
  2 10  1  0
 10 11  1  0
 11 12  1  0
 12 13  1  0
 13 14  1  6
 13 15  1  0
 15 16  1  0
 16 17  1  0
 17 18  2  0
 18 19  1  0
 19 20  1  0
 20 21  1  0
 21 22  1  0
 22 23  1  0
 22 24  1  0
 24 25  1  0
 24 26  1  0
 19 27  1  0
 27 28  1  1
 27 29  1  0
 29 30  1  0
 30 31  1  0
 31 32  1  1
  7  5  1  0
 31 10  1  0
 31 13  1  0
 27 15  1  0
 24 18  1  0
  1 33  1  0
  1 34  1  0
  1 35  1  0
  2 36  1  1
  3 37  1  0
  3 38  1  0
  4 39  1  0
  4 40  1  0
  5 41  1  1
  8 42  1  0
  8 43  1  0
  8 44  1  0
  9 45  1  0
  9 46  1  0
  9 47  1  0
 10 48  1  6
 11 49  1  0
 11 50  1  0
 12 51  1  0
 12 52  1  0
 14 53  1  0
 14 54  1  0
 14 55  1  0
 15 56  1  1
 16 57  1  0
 16 58  1  0
 17 59  1  0
 19 60  1  6
 20 61  1  0
 20 62  1  0
 21 63  1  0
 21 64  1  0
 22 65  1  6
 23 66  1  0
 25 67  1  0
 25 68  1  0
 25 69  1  0
 26 70  1  0
 26 71  1  0
 26 72  1  0
 28 73  1  0
 28 74  1  0
 28 75  1  0
 29 76  1  0
 29 77  1  0
 30 78  1  0
 30 79  1  0
 32 80  1  0
 32 81  1  0
 32 82  1  0
M  END
>  <meeko>  (9) 
{"is_sidechain": [false], "intermolecular_energy": 2.731, "internal_energy": -0.839}

$$$$
EPH_relaxed_0001_pdb2pqr_Repair_63_r2_0001_out
     RDKit          3D

 82 86  0  0  0  0  0  0  0  0999 V2000
    2.9550   18.7930   -1.2600 C   0  0  0  0  0  0  0  0  0  0  0  0
    2.5560   17.7340   -2.2910 C   0  0  2  0  0  0  0  0  0  0  0  0
    1.1280   17.9570   -2.8290 C   0  0  0  0  0  0  0  0  0  0  0  0
    0.4850   19.2590   -2.3460 C   0  0  0  0  0  0  0  0  0  0  0  0
   -0.8120   19.0070   -1.6380 C   0  0  2  0  0  0  0  0  0  0  0  0
   -1.5270   20.1900   -1.2580 O   0  0  0  0  0  0  0  0  0  0  0  0
   -1.0540   19.3630   -0.1830 C   0  0  0  0  0  0  0  0  0  0  0  0
    0.0120   20.0010    0.6520 C   0  0  0  0  0  0  0  0  0  0  0  0
   -2.1450   18.6520    0.5560 C   0  0  0  0  0  0  0  0  0  0  0  0
    2.6710   16.3430   -1.6780 C   0  0  1  0  0  0  0  0  0  0  0  0
    3.2970   16.3650   -0.2590 C   0  0  0  0  0  0  0  0  0  0  0  0
    2.6010   15.2440    0.5550 C   0  0  0  0  0  0  0  0  0  0  0  0
    1.8460   14.4050   -0.5040 C   0  0  1  0  0  0  0  0  0  0  0  0
    2.9300   13.4630   -1.1150 C   0  0  0  0  0  0  0  0  0  0  0  0
    0.6050   13.6030    0.0070 C   0  0  2  0  0  0  0  0  0  0  0  0
    0.9130   12.5260    1.0620 C   0  0  0  0  0  0  0  0  0  0  0  0
    1.2140   11.1690    0.5180 C   0  0  0  0  0  0  0  0  0  0  0  0
    0.9610   10.7550   -0.7370 C   0  0  0  0  0  0  0  0  0  0  0  0
    0.2220   11.6610   -1.7310 C   0  0  1  0  0  0  0  0  0  0  0  0
   -0.8830   10.8450   -2.4520 C   0  0  0  0  0  0  0  0  0  0  0  0
   -0.3410    9.5780   -3.1080 C   0  0  0  0  0  0  0  0  0  0  0  0
    0.3350    8.6770   -2.0780 C   0  0  2  0  0  0  0  0  0  0  0  0
   -0.6580    8.1860   -1.1720 O   0  0  0  0  0  0  0  0  0  0  0  0
    1.4610    9.3940   -1.2820 C   0  0  0  0  0  0  0  0  0  0  0  0
    2.6700    9.6570   -2.2120 C   0  0  0  0  0  0  0  0  0  0  0  0
    1.9630    8.4200   -0.1820 C   0  0  0  0  0  0  0  0  0  0  0  0
   -0.3190   13.0360   -1.1460 C   0  0  1  0  0  0  0  0  0  0  0  0
   -1.7330   12.8300   -0.5230 C   0  0  0  0  0  0  0  0  0  0  0  0
   -0.4990   14.0610   -2.3270 C   0  0  0  0  0  0  0  0  0  0  0  0
    0.7300   14.9090   -2.7060 C   0  0  0  0  0  0  0  0  0  0  0  0
    1.3570   15.5500   -1.4640 C   0  0  2  0  0  0  0  0  0  0  0  0
    0.2980   16.5210   -0.8400 C   0  0  0  0  0  0  0  0  0  0  0  0
    2.8043   18.3930   -0.2464 H   0  0  0  0  0  0  0  0  0  0  0  0
    4.0142   19.0568   -1.3964 H   0  0  0  0  0  0  0  0  0  0  0  0
    2.3332   19.6901   -1.3964 H   0  0  0  0  0  0  0  0  0  0  0  0
    3.2470   17.8232   -3.1422 H   0  0  0  0  0  0  0  0  0  0  0  0
    1.1702   17.9773   -3.9280 H   0  0  0  0  0  0  0  0  0  0  0  0
    0.5084   17.1318   -2.4480 H   0  0  0  0  0  0  0  0  0  0  0  0
    1.1764   19.7632   -1.6548 H   0  0  0  0  0  0  0  0  0  0  0  0
    0.2794   19.8870   -3.2254 H   0  0  0  0  0  0  0  0  0  0  0  0
   -0.9685   18.0784   -2.2064 H   0  0  0  0  0  0  0  0  0  0  0  0
   -0.2233   19.8602    1.7173 H   0  0  0  0  0  0  0  0  0  0  0  0
    0.9826   19.5352    0.4262 H   0  0  0  0  0  0  0  0  0  0  0  0
    0.0601   21.0765    0.4262 H   0  0  0  0  0  0  0  0  0  0  0  0
   -1.9833   18.7574    1.6389 H   0  0  0  0  0  0  0  0  0  0  0  0
   -3.1170   19.0906    0.2860 H   0  0  0  0  0  0  0  0  0  0  0  0
   -2.1362   17.5857    0.2860 H   0  0  0  0  0  0  0  0  0  0  0  0
    3.2855   15.8525   -2.4473 H   0  0  0  0  0  0  0  0  0  0  0  0
    4.3785   16.1735   -0.3192 H   0  0  0  0  0  0  0  0  0  0  0  0
    3.1564   17.3455    0.2193 H   0  0  0  0  0  0  0  0  0  0  0  0
    3.3444   14.6273    1.0813 H   0  0  0  0  0  0  0  0  0  0  0  0
    1.9280   15.6451    1.3271 H   0  0  0  0  0  0  0  0  0  0  0  0
    3.4911   12.9754   -0.3042 H   0  0  0  0  0  0  0  0  0  0  0  0
    2.4423   12.6969   -1.7357 H   0  0  0  0  0  0  0  0  0  0  0  0
    3.6206   14.0528   -1.7357 H   0  0  0  0  0  0  0  0  0  0  0  0
    0.0237   14.3759    0.5312 H   0  0  0  0  0  0  0  0  0  0  0  0
    1.7845   12.8599    1.6443 H   0  0  0  0  0  0  0  0  0  0  0  0
   -0.0023   12.4173    1.6624 H   0  0  0  0  0  0  0  0  0  0  0  0
    1.6827   10.4457    1.2015 H   0  0  0  0  0  0  0  0  0  0  0  0
    0.9767   11.9929   -2.4592 H   0  0  0  0  0  0  0  0  0  0  0  0
   -1.6488   10.5607   -1.7153 H   0  0  0  0  0  0  0  0  0  0  0  0
   -1.3017   11.4796   -3.2469 H   0  0  0  0  0  0  0  0  0  0  0  0
   -1.1728    9.0302   -3.5748 H   0  0  0  0  0  0  0  0  0  0  0  0
    0.4032    9.8655   -3.8653 H   0  0  0  0  0  0  0  0  0  0  0  0
    0.8148    7.8524   -2.6255 H   0  0  0  0  0  0  0  0  0  0  0  0
   -1.4690    8.7010   -1.3180 H   0  0  0  0  0  0  0  0  0  0  0  0
    3.5653    9.8518   -1.6033 H   0  0  0  0  0  0  0  0  0  0  0  0
    2.8429    8.7755   -2.8468 H   0  0  0  0  0  0  0  0  0  0  0  0
    2.4610   10.5307   -2.8468 H   0  0  0  0  0  0  0  0  0  0  0  0
    1.7449    8.8431    0.8097 H   0  0  0  0  0  0  0  0  0  0  0  0
    1.4515    7.4520   -0.2882 H   0  0  0  0  0  0  0  0  0  0  0  0
    3.0482    8.2749   -0.2882 H   0  0  0  0  0  0  0  0  0  0  0  0
   -1.6554   12.8413    0.5742 H   0  0  0  0  0  0  0  0  0  0  0  0
   -2.4002   13.6404   -0.8518 H   0  0  0  0  0  0  0  0  0  0  0  0
   -2.1412   11.8629   -0.8518 H   0  0  0  0  0  0  0  0  0  0  0  0
   -0.7977   13.4912   -3.2192 H   0  0  0  0  0  0  0  0  0  0  0  0
   -1.2470   14.7835   -1.9687 H   0  0  0  0  0  0  0  0  0  0  0  0
    1.4758   14.2641   -3.1937 H   0  0  0  0  0  0  0  0  0  0  0  0
    0.4076   15.7087   -3.3890 H   0  0  0  0  0  0  0  0  0  0  0  0
    0.3546   16.4691    0.2573 H   0  0  0  0  0  0  0  0  0  0  0  0
    0.5048   17.5499   -1.1696 H   0  0  0  0  0  0  0  0  0  0  0  0
   -0.7091   16.2259   -1.1696 H   0  0  0  0  0  0  0  0  0  0  0  0
  1  2  1  0
  2  3  1  0
  3  4  1  0
  4  5  1  0
  5  6  1  0
  6  7  1  0
  7  8  1  0
  7  9  1  0
  2 10  1  0
 10 11  1  0
 11 12  1  0
 12 13  1  0
 13 14  1  6
 13 15  1  0
 15 16  1  0
 16 17  1  0
 17 18  2  0
 18 19  1  0
 19 20  1  0
 20 21  1  0
 21 22  1  0
 22 23  1  0
 22 24  1  0
 24 25  1  0
 24 26  1  0
 19 27  1  0
 27 28  1  1
 27 29  1  0
 29 30  1  0
 30 31  1  0
 31 32  1  1
  7  5  1  0
 31 10  1  0
 31 13  1  0
 27 15  1  0
 24 18  1  0
  1 33  1  0
  1 34  1  0
  1 35  1  0
  2 36  1  6
  3 37  1  0
  3 38  1  0
  4 39  1  0
  4 40  1  0
  5 41  1  6
  8 42  1  0
  8 43  1  0
  8 44  1  0
  9 45  1  0
  9 46  1  0
  9 47  1  0
 10 48  1  6
 11 49  1  0
 11 50  1  0
 12 51  1  0
 12 52  1  0
 14 53  1  0
 14 54  1  0
 14 55  1  0
 15 56  1  1
 16 57  1  0
 16 58  1  0
 17 59  1  0
 19 60  1  6
 20 61  1  0
 20 62  1  0
 21 63  1  0
 21 64  1  0
 22 65  1  6
 23 66  1  0
 25 67  1  0
 25 68  1  0
 25 69  1  0
 26 70  1  0
 26 71  1  0
 26 72  1  0
 28 73  1  0
 28 74  1  0
 28 75  1  0
 29 76  1  0
 29 77  1  0
 30 78  1  0
 30 79  1  0
 32 80  1  0
 32 81  1  0
 32 82  1  0
M  END
>  <meeko>  (10) 
{"is_sidechain": [false], "intermolecular_energy": 2.731, "internal_energy": -0.839}

$$$$
EPH_relaxed_0001_pdb2pqr_Repair_63_r2_0001_out
     RDKit          3D

 82 86  0  0  0  0  0  0  0  0999 V2000
    1.0230   11.0210   -4.7960 C   0  0  0  0  0  0  0  0  0  0  0  0
    0.7110   10.4540   -3.4080 C   0  0  2  0  0  0  0  0  0  0  0  0
   -0.6740    9.7790   -3.3550 C   0  0  0  0  0  0  0  0  0  0  0  0
   -0.8170    8.7560   -2.2250 C   0  0  0  0  0  0  0  0  0  0  0  0
   -0.2850    9.2850   -0.9280 C   0  0  2  0  0  0  0  0  0  0  0  0
   -0.4430    8.4010    0.1900 O   0  0  0  0  0  0  0  0  0  0  0  0
   -1.1660    9.6410    0.2550 C   0  0  0  0  0  0  0  0  0  0  0  0
   -2.6530    9.4820    0.1960 C   0  0  0  0  0  0  0  0  0  0  0  0
   -0.6360   10.5940    1.2810 C   0  0  0  0  0  0  0  0  0  0  0  0
    0.7900   11.5620   -2.3640 C   0  0  1  0  0  0  0  0  0  0  0  0
    1.7970   11.2420   -1.2280 C   0  0  0  0  0  0  0  0  0  0  0  0
    2.4440   12.5880   -0.8110 C   0  0  0  0  0  0  0  0  0  0  0  0
    1.5590   13.6680   -1.4760 C   0  0  1  0  0  0  0  0  0  0  0  0
    0.3290   13.8200   -0.5270 C   0  0  0  0  0  0  0  0  0  0  0  0
    2.2450   15.0450   -1.7580 C   0  0  2  0  0  0  0  0  0  0  0  0
    2.7300   15.8000   -0.5080 C   0  0  0  0  0  0  0  0  0  0  0  0
    1.7370   16.7360    0.0970 C   0  0  0  0  0  0  0  0  0  0  0  0
    0.6130   17.1760   -0.4980 C   0  0  0  0  0  0  0  0  0  0  0  0
    0.2970   16.8080   -1.9540 C   0  0  1  0  0  0  0  0  0  0  0  0
   -0.1510   18.0770   -2.7240 C   0  0  0  0  0  0  0  0  0  0  0  0
   -1.3080   18.7990   -2.0400 C   0  0  0  0  0  0  0  0  0  0  0  0
   -0.9350   19.2010   -0.6160 C   0  0  2  0  0  0  0  0  0  0  0  0
    0.0930   20.1940   -0.6720 O   0  0  0  0  0  0  0  0  0  0  0  0
   -0.4580   18.0040    0.2540 C   0  0  0  0  0  0  0  0  0  0  0  0
   -1.6580   17.0760    0.5650 C   0  0  0  0  0  0  0  0  0  0  0  0
    0.0220   18.5670    1.6190 C   0  0  0  0  0  0  0  0  0  0  0  0
    1.4230   15.9920   -2.7230 C   0  0  1  0  0  0  0  0  0  0  0  0
    2.4510   16.9770   -3.3610 C   0  0  0  0  0  0  0  0  0  0  0  0
    0.7640   15.2050   -3.9160 C   0  0  0  0  0  0  0  0  0  0  0  0
    0.2120   13.8010   -3.6010 C   0  0  0  0  0  0  0  0  0  0  0  0
    1.2470   12.9620   -2.8460 C   0  0  2  0  0  0  0  0  0  0  0  0
    2.4870   12.7730   -3.7840 C   0  0  0  0  0  0  0  0  0  0  0  0
    1.5508   11.9802   -4.6901 H   0  0  0  0  0  0  0  0  0  0  0  0
    1.6580   10.3120   -5.3474 H   0  0  0  0  0  0  0  0  0  0  0  0
    0.0842   11.1780   -5.3474 H   0  0  0  0  0  0  0  0  0  0  0  0
    1.4636    9.6822   -3.1890 H   0  0  0  0  0  0  0  0  0  0  0  0
   -1.4359   10.5600   -3.2149 H   0  0  0  0  0  0  0  0  0  0  0  0
   -0.8020    9.2329   -4.3012 H   0  0  0  0  0  0  0  0  0  0  0  0
   -1.8817    8.5098   -2.0997 H   0  0  0  0  0  0  0  0  0  0  0  0
   -0.2350    7.8626   -2.4955 H   0  0  0  0  0  0  0  0  0  0  0  0
    0.5060    9.8409   -1.4527 H   0  0  0  0  0  0  0  0  0  0  0  0
   -3.0580    9.4387    1.2178 H   0  0  0  0  0  0  0  0  0  0  0  0
   -3.0925   10.3383   -0.3366 H   0  0  0  0  0  0  0  0  0  0  0  0
   -2.9015    8.5522   -0.3366 H   0  0  0  0  0  0  0  0  0  0  0  0
   -0.8516   10.2063    2.2876 H   0  0  0  0  0  0  0  0  0  0  0  0
    0.4514   10.7014    1.1546 H   0  0  0  0  0  0  0  0  0  0  0  0
   -1.1184   11.5745    1.1546 H   0  0  0  0  0  0  0  0  0  0  0  0
   -0.2644   11.5970   -2.0524 H   0  0  0  0  0  0  0  0  0  0  0  0
    1.2721   10.7928   -0.3720 H   0  0  0  0  0  0  0  0  0  0  0  0
    2.5598   10.5255   -1.5668 H   0  0  0  0  0  0  0  0  0  0  0  0
    2.4370   12.6998    0.2833 H   0  0  0  0  0  0  0  0  0  0  0  0
    3.4962   12.6600   -1.1236 H   0  0  0  0  0  0  0  0  0  0  0  0
    0.6658   13.7784    0.5193 H   0  0  0  0  0  0  0  0  0  0  0  0
   -0.1626   14.7857   -0.7158 H   0  0  0  0  0  0  0  0  0  0  0  0
   -0.3830   13.0030   -0.7158 H   0  0  0  0  0  0  0  0  0  0  0  0
    3.1554   14.7494   -2.3000 H   0  0  0  0  0  0  0  0  0  0  0  0
    3.0033   15.0553    0.2541 H   0  0  0  0  0  0  0  0  0  0  0  0
    3.5742   16.4235   -0.8376 H   0  0  0  0  0  0  0  0  0  0  0  0
    1.9414   17.0968    1.1159 H   0  0  0  0  0  0  0  0  0  0  0  0
   -0.5319   16.0862   -1.9118 H   0  0  0  0  0  0  0  0  0  0  0  0
    0.7030   18.7668   -2.7939 H   0  0  0  0  0  0  0  0  0  0  0  0
   -0.4973   17.7590   -3.7184 H   0  0  0  0  0  0  0  0  0  0  0  0
   -1.5587   19.7026   -2.6151 H   0  0  0  0  0  0  0  0  0  0  0  0
   -2.1708   18.1179   -1.9978 H   0  0  0  0  0  0  0  0  0  0  0  0
   -1.8429   19.5952   -0.1362 H   0  0  0  0  0  0  0  0  0  0  0  0
    0.4280   20.3230    0.2320 H   0  0  0  0  0  0  0  0  0  0  0  0
   -1.7774   16.9837    1.6546 H   0  0  0  0  0  0  0  0  0  0  0  0
   -2.5740   17.5030    0.1307 H   0  0  0  0  0  0  0  0  0  0  0  0
   -1.4751   16.0821    0.1307 H   0  0  0  0  0  0  0  0  0  0  0  0
   -0.4562   18.0061    2.4355 H   0  0  0  0  0  0  0  0  0  0  0  0
    1.1146   18.4642    1.6943 H   0  0  0  0  0  0  0  0  0  0  0  0
   -0.2523   19.6296    1.6943 H   0  0  0  0  0  0  0  0  0  0  0  0
    2.9988   17.5019   -2.5645 H   0  0  0  0  0  0  0  0  0  0  0  0
    3.1609   16.4133   -3.9841 H   0  0  0  0  0  0  0  0  0  0  0  0
    1.9181   17.7103   -3.9841 H   0  0  0  0  0  0  0  0  0  0  0  0
   -0.0703   15.8132   -4.2955 H   0  0  0  0  0  0  0  0  0  0  0  0
    1.5785   15.0393   -4.6366 H   0  0  0  0  0  0  0  0  0  0  0  0
   -0.6917   13.9002   -2.9818 H   0  0  0  0  0  0  0  0  0  0  0  0
   -0.0246   13.2962   -4.5493 H   0  0  0  0  0  0  0  0  0  0  0  0
    3.3913   12.6352   -3.1730 H   0  0  0  0  0  0  0  0  0  0  0  0
    2.3350   11.8877   -4.4189 H   0  0  0  0  0  0  0  0  0  0  0  0
    2.6056   13.6634   -4.4189 H   0  0  0  0  0  0  0  0  0  0  0  0
  1  2  1  0
  2  3  1  0
  3  4  1  0
  4  5  1  0
  5  6  1  0
  6  7  1  0
  7  8  1  0
  7  9  1  0
  2 10  1  0
 10 11  1  0
 11 12  1  0
 12 13  1  0
 13 14  1  1
 13 15  1  0
 15 16  1  0
 16 17  1  0
 17 18  2  0
 18 19  1  0
 19 20  1  0
 20 21  1  0
 21 22  1  0
 22 23  1  0
 22 24  1  0
 24 25  1  0
 24 26  1  0
 19 27  1  0
 27 28  1  6
 27 29  1  0
 29 30  1  0
 30 31  1  0
 31 32  1  6
  7  5  1  0
 31 10  1  0
 31 13  1  0
 27 15  1  0
 24 18  1  0
  1 33  1  0
  1 34  1  0
  1 35  1  0
  2 36  1  1
  3 37  1  0
  3 38  1  0
  4 39  1  0
  4 40  1  0
  5 41  1  6
  8 42  1  0
  8 43  1  0
  8 44  1  0
  9 45  1  0
  9 46  1  0
  9 47  1  0
 10 48  1  1
 11 49  1  0
 11 50  1  0
 12 51  1  0
 12 52  1  0
 14 53  1  0
 14 54  1  0
 14 55  1  0
 15 56  1  6
 16 57  1  0
 16 58  1  0
 17 59  1  0
 19 60  1  1
 20 61  1  0
 20 62  1  0
 21 63  1  0
 21 64  1  0
 22 65  1  1
 23 66  1  0
 25 67  1  0
 25 68  1  0
 25 69  1  0
 26 70  1  0
 26 71  1  0
 26 72  1  0
 28 73  1  0
 28 74  1  0
 28 75  1  0
 29 76  1  0
 29 77  1  0
 30 78  1  0
 30 79  1  0
 32 80  1  0
 32 81  1  0
 32 82  1  0
M  END
>  <meeko>  (11) 
{"is_sidechain": [false], "intermolecular_energy": 2.731, "internal_energy": -0.839}

$$$$
EPH_relaxed_0001_pdb2pqr_Repair_63_r2_0001_out
     RDKit          3D

 82 86  0  0  0  0  0  0  0  0999 V2000
   -0.2820   15.0980   -7.5800 C   0  0  0  0  0  0  0  0  0  0  0  0
    1.0960   15.0620   -6.9120 C   0  0  2  0  0  0  0  0  0  0  0  0
    2.2410   15.1410   -7.9410 C   0  0  0  0  0  0  0  0  0  0  0  0
    2.2880   16.4640   -8.7100 C   0  0  0  0  0  0  0  0  0  0  0  0
    1.8840   16.2870  -10.1430 C   0  0  2  0  0  0  0  0  0  0  0  0
    1.1960   15.0620  -10.4240 O   0  0  0  0  0  0  0  0  0  0  0  0
    2.4760   15.2290  -11.0540 C   0  0  0  0  0  0  0  0  0  0  0  0
    3.5230   14.2770  -10.5680 C   0  0  0  0  0  0  0  0  0  0  0  0
    2.3960   15.4340  -12.5350 C   0  0  0  0  0  0  0  0  0  0  0  0
    1.2340   13.7960   -6.0750 C   0  0  1  0  0  0  0  0  0  0  0  0
    2.6670   13.2030   -6.1210 C   0  0  0  0  0  0  0  0  0  0  0  0
    2.9460   12.5970   -4.7210 C   0  0  0  0  0  0  0  0  0  0  0  0
    1.5630   12.5630   -4.0290 C   0  0  1  0  0  0  0  0  0  0  0  0
    0.8680   11.2810   -4.5840 C   0  0  0  0  0  0  0  0  0  0  0  0
    1.5730   12.5830   -2.4650 C   0  0  2  0  0  0  0  0  0  0  0  0
    2.2570   11.3750   -1.8020 C   0  0  0  0  0  0  0  0  0  0  0  0
    1.3610   10.2200   -1.5010 C   0  0  0  0  0  0  0  0  0  0  0  0
    0.0150   10.2560   -1.4900 C   0  0  0  0  0  0  0  0  0  0  0  0
   -0.7390   11.5750   -1.7040 C   0  0  1  0  0  0  0  0  0  0  0  0
   -1.8580   11.7100   -0.6390 C   0  0  0  0  0  0  0  0  0  0  0  0
   -2.7900   10.5030   -0.6120 C   0  0  0  0  0  0  0  0  0  0  0  0
   -2.0110    9.2180   -0.3390 C   0  0  2  0  0  0  0  0  0  0  0  0
   -1.4910    9.2690    0.9930 O   0  0  0  0  0  0  0  0  0  0  0  0
   -0.8500    8.9800   -1.3450 C   0  0  0  0  0  0  0  0  0  0  0  0
   -1.4320    8.6260   -2.7360 C   0  0  0  0  0  0  0  0  0  0  0  0
   -0.0590    7.7300   -0.8740 C   0  0  0  0  0  0  0  0  0  0  0  0
    0.1620   12.8790   -1.8120 C   0  0  1  0  0  0  0  0  0  0  0  0
    0.4420   13.4520   -0.3890 C   0  0  0  0  0  0  0  0  0  0  0  0
   -0.6350   13.9920   -2.5900 C   0  0  0  0  0  0  0  0  0  0  0  0
   -0.5090   13.9930   -4.1250 C   0  0  0  0  0  0  0  0  0  0  0  0
    0.9590   13.9160   -4.5550 C   0  0  2  0  0  0  0  0  0  0  0  0
    1.6800   15.2040   -4.0290 C   0  0  0  0  0  0  0  0  0  0  0  0
   -1.0640   15.1184   -6.8066 H   0  0  0  0  0  0  0  0  0  0  0  0
   -0.3623   15.9985   -8.2065 H   0  0  0  0  0  0  0  0  0  0  0  0
   -0.4093   14.2029   -8.2065 H   0  0  0  0  0  0  0  0  0  0  0  0
    1.1735   15.9468   -6.2631 H   0  0  0  0  0  0  0  0  0  0  0  0
    3.1954   15.0147   -7.4088 H   0  0  0  0  0  0  0  0  0  0  0  0
    2.0639   14.3459   -8.6802 H   0  0  0  0  0  0  0  0  0  0  0  0
    1.6021   17.1788   -8.2319 H   0  0  0  0  0  0  0  0  0  0  0  0
    3.3228   16.8364   -8.6889 H   0  0  0  0  0  0  0  0  0  0  0  0
    1.7481   17.3719  -10.2632 H   0  0  0  0  0  0  0  0  0  0  0  0
    3.5303   14.2703   -9.4680 H   0  0  0  0  0  0  0  0  0  0  0  0
    3.3000   13.2659  -10.9393 H   0  0  0  0  0  0  0  0  0  0  0  0
    4.5084   14.5949  -10.9393 H   0  0  0  0  0  0  0  0  0  0  0  0
    2.0035   16.4398  -12.7453 H   0  0  0  0  0  0  0  0  0  0  0  0
    3.3996   15.3329  -12.9739 H   0  0  0  0  0  0  0  0  0  0  0  0
    1.7262   14.6799  -12.9739 H   0  0  0  0  0  0  0  0  0  0  0  0
    0.4601   13.1750   -6.5498 H   0  0  0  0  0  0  0  0  0  0  0  0
    2.7285   12.4204   -6.8915 H   0  0  0  0  0  0  0  0  0  0  0  0
    3.4070   13.9777   -6.3705 H   0  0  0  0  0  0  0  0  0  0  0  0
    3.3597   11.5819   -4.8125 H   0  0  0  0  0  0  0  0  0  0  0  0
    3.6833   13.1824   -4.1520 H   0  0  0  0  0  0  0  0  0  0  0  0
    0.5289   10.6554   -3.7452 H   0  0  0  0  0  0  0  0  0  0  0  0
    0.0030   11.5699   -5.1991 H   0  0  0  0  0  0  0  0  0  0  0  0
    1.5822   10.7138   -5.1991 H   0  0  0  0  0  0  0  0  0  0  0  0
    2.2150   13.4483   -2.2436 H   0  0  0  0  0  0  0  0  0  0  0  0
    3.0513   11.0221   -2.4762 H   0  0  0  0  0  0  0  0  0  0  0  0
    2.6294   11.7320   -0.8305 H   0  0  0  0  0  0  0  0  0  0  0  0
    1.8408    9.2579   -1.2685 H   0  0  0  0  0  0  0  0  0  0  0  0
   -1.1849   11.5112   -2.7075 H   0  0  0  0  0  0  0  0  0  0  0  0
   -1.3910   11.8169    0.3512 H   0  0  0  0  0  0  0  0  0  0  0  0
   -2.4618   12.5917   -0.8998 H   0  0  0  0  0  0  0  0  0  0  0  0
   -3.5397   10.6447    0.1804 H   0  0  0  0  0  0  0  0  0  0  0  0
   -3.2794   10.4152   -1.5932 H   0  0  0  0  0  0  0  0  0  0  0  0
   -2.7088    8.3764   -0.4611 H   0  0  0  0  0  0  0  0  0  0  0  0
   -1.9750    9.9630    1.4720 H   0  0  0  0  0  0  0  0  0  0  0  0
   -2.3655    8.0582   -2.6092 H   0  0  0  0  0  0  0  0  0  0  0  0
   -1.6386    9.5516   -3.2934 H   0  0  0  0  0  0  0  0  0  0  0  0
   -0.7052    8.0169   -3.2934 H   0  0  0  0  0  0  0  0  0  0  0  0
   -0.0404    7.7007    0.2255 H   0  0  0  0  0  0  0  0  0  0  0  0
   -0.5470    6.8216   -1.2569 H   0  0  0  0  0  0  0  0  0  0  0  0
    0.9709    7.7821   -1.2569 H   0  0  0  0  0  0  0  0  0  0  0  0
    0.0923   12.7364    0.3697 H   0  0  0  0  0  0  0  0  0  0  0  0
    1.5225   13.6176   -0.2665 H   0  0  0  0  0  0  0  0  0  0  0  0
   -0.0914   14.4062   -0.2665 H   0  0  0  0  0  0  0  0  0  0  0  0
   -1.7003   13.8717   -2.3438 H   0  0  0  0  0  0  0  0  0  0  0  0
   -0.1907   14.9442   -2.2645 H   0  0  0  0  0  0  0  0  0  0  0  0
   -1.0488   13.1247   -4.5309 H   0  0  0  0  0  0  0  0  0  0  0  0
   -0.9389   14.9289   -4.5114 H   0  0  0  0  0  0  0  0  0  0  0  0
    1.6787   15.2016   -2.9290 H   0  0  0  0  0  0  0  0  0  0  0  0
    2.7174   15.2186   -4.3944 H   0  0  0  0  0  0  0  0  0  0  0  0
    1.1500   16.0960   -4.3944 H   0  0  0  0  0  0  0  0  0  0  0  0
  1  2  1  0
  2  3  1  0
  3  4  1  0
  4  5  1  0
  5  6  1  0
  6  7  1  0
  7  8  1  0
  7  9  1  0
  2 10  1  0
 10 11  1  0
 11 12  1  0
 12 13  1  0
 13 14  1  1
 13 15  1  0
 15 16  1  0
 16 17  1  0
 17 18  2  0
 18 19  1  0
 19 20  1  0
 20 21  1  0
 21 22  1  0
 22 23  1  0
 22 24  1  0
 24 25  1  0
 24 26  1  0
 19 27  1  0
 27 28  1  1
 27 29  1  0
 29 30  1  0
 30 31  1  0
 31 32  1  1
  7  5  1  0
 31 10  1  0
 31 13  1  0
 27 15  1  0
 24 18  1  0
  1 33  1  0
  1 34  1  0
  1 35  1  0
  2 36  1  1
  3 37  1  0
  3 38  1  0
  4 39  1  0
  4 40  1  0
  5 41  1  6
  8 42  1  0
  8 43  1  0
  8 44  1  0
  9 45  1  0
  9 46  1  0
  9 47  1  0
 10 48  1  6
 11 49  1  0
 11 50  1  0
 12 51  1  0
 12 52  1  0
 14 53  1  0
 14 54  1  0
 14 55  1  0
 15 56  1  6
 16 57  1  0
 16 58  1  0
 17 59  1  0
 19 60  1  6
 20 61  1  0
 20 62  1  0
 21 63  1  0
 21 64  1  0
 22 65  1  1
 23 66  1  0
 25 67  1  0
 25 68  1  0
 25 69  1  0
 26 70  1  0
 26 71  1  0
 26 72  1  0
 28 73  1  0
 28 74  1  0
 28 75  1  0
 29 76  1  0
 29 77  1  0
 30 78  1  0
 30 79  1  0
 32 80  1  0
 32 81  1  0
 32 82  1  0
M  END
>  <meeko>  (12) 
{"is_sidechain": [false], "intermolecular_energy": 2.731, "internal_energy": -0.839}

$$$$
EPH_relaxed_0001_pdb2pqr_Repair_63_r2_0001_out
     RDKit          3D

 82 86  0  0  0  0  0  0  0  0999 V2000
   -0.5840   19.4170   -2.4470 C   0  0  0  0  0  0  0  0  0  0  0  0
    0.0750   18.7800   -1.2210 C   0  0  2  0  0  0  0  0  0  0  0  0
    1.0560   19.7430   -0.5220 C   0  0  0  0  0  0  0  0  0  0  0  0
    1.4490   19.3020    0.8910 C   0  0  0  0  0  0  0  0  0  0  0  0
    2.6140   20.0880    1.4120 C   0  0  2  0  0  0  0  0  0  0  0  0
    3.7240   20.1830    0.5090 O   0  0  0  0  0  0  0  0  0  0  0  0
    3.9630   19.4710    1.7340 C   0  0  0  0  0  0  0  0  0  0  0  0
    4.2160   18.0080    1.5470 C   0  0  0  0  0  0  0  0  0  0  0  0
    4.8710   20.1900    2.6820 C   0  0  0  0  0  0  0  0  0  0  0  0
    0.8010   17.5020   -1.6260 C   0  0  1  0  0  0  0  0  0  0  0  0
    2.3410   17.6820   -1.6860 C   0  0  0  0  0  0  0  0  0  0  0  0
    2.9670   16.3420   -1.2210 C   0  0  0  0  0  0  0  0  0  0  0  0
    1.7900   15.3390   -1.2290 C   0  0  1  0  0  0  0  0  0  0  0  0
    1.6470   14.9000   -2.7210 C   0  0  0  0  0  0  0  0  0  0  0  0
    1.9250   14.1070   -0.2760 C   0  0  2  0  0  0  0  0  0  0  0  0
    3.1050   13.1690   -0.5850 C   0  0  0  0  0  0  0  0  0  0  0  0
    2.8020   12.0510   -1.5280 C   0  0  0  0  0  0  0  0  0  0  0  0
    1.5700   11.6390   -1.8810 C   0  0  0  0  0  0  0  0  0  0  0  0
    0.3190   12.2530   -1.2390 C   0  0  1  0  0  0  0  0  0  0  0  0
   -0.6570   11.1230   -0.8220 C   0  0  0  0  0  0  0  0  0  0  0  0
   -0.9950   10.1850   -1.9770 C   0  0  0  0  0  0  0  0  0  0  0  0
    0.2690    9.5490   -2.5500 C   0  0  2  0  0  0  0  0  0  0  0  0
    0.8340    8.6780   -1.5650 O   0  0  0  0  0  0  0  0  0  0  0  0
    1.3310   10.5920   -2.9960 C   0  0  0  0  0  0  0  0  0  0  0  0
    0.8330   11.3340   -4.2610 C   0  0  0  0  0  0  0  0  0  0  0  0
    2.6090    9.8190   -3.4220 C   0  0  0  0  0  0  0  0  0  0  0  0
    0.5820   13.2960   -0.0690 C   0  0  1  0  0  0  0  0  0  0  0  0
    0.7190   12.5460    1.2910 C   0  0  0  0  0  0  0  0  0  0  0  0
   -0.6710   14.2400    0.0690 C   0  0  0  0  0  0  0  0  0  0  0  0
   -0.6900   15.5030   -0.8130 C   0  0  0  0  0  0  0  0  0  0  0  0
    0.6340   16.2670   -0.7060 C   0  0  2  0  0  0  0  0  0  0  0  0
    0.7940   16.7400    0.7790 C   0  0  0  0  0  0  0  0  0  0  0  0
   -1.3391   20.1469   -2.1197 H   0  0  0  0  0  0  0  0  0  0  0  0
    0.1810   19.9267   -3.0512 H   0  0  0  0  0  0  0  0  0  0  0  0
   -1.0675   18.6352   -3.0512 H   0  0  0  0  0  0  0  0  0  0  0  0
   -0.7236   18.5430   -0.5026 H   0  0  0  0  0  0  0  0  0  0  0  0
    1.9693   19.8112   -1.1313 H   0  0  0  0  0  0  0  0  0  0  0  0
    0.5428   20.7112   -0.4258 H   0  0  0  0  0  0  0  0  0  0  0  0
    0.5903   19.4495    1.5625 H   0  0  0  0  0  0  0  0  0  0  0  0
    1.7402   18.2420    0.8513 H   0  0  0  0  0  0  0  0  0  0  0  0
    1.9446   20.7417    1.9905 H   0  0  0  0  0  0  0  0  0  0  0  0
    4.3001   17.5218    2.5301 H   0  0  0  0  0  0  0  0  0  0  0  0
    3.3819   17.5603    0.9867 H   0  0  0  0  0  0  0  0  0  0  0  0
    5.1520   17.8664    0.9867 H   0  0  0  0  0  0  0  0  0  0  0  0
    4.5785   19.9584    3.7168 H   0  0  0  0  0  0  0  0  0  0  0  0
    5.9085   19.8659    2.5130 H   0  0  0  0  0  0  0  0  0  0  0  0
    4.7934   21.2742    2.5130 H   0  0  0  0  0  0  0  0  0  0  0  0
    0.3180   17.3164   -2.5967 H   0  0  0  0  0  0  0  0  0  0  0  0
    2.6558   17.9101   -2.7150 H   0  0  0  0  0  0  0  0  0  0  0  0
    2.6665   18.5136   -1.0438 H   0  0  0  0  0  0  0  0  0  0  0  0
    3.7564   16.0201   -1.9161 H   0  0  0  0  0  0  0  0  0  0  0  0
    3.4395   16.4233   -0.2310 H   0  0  0  0  0  0  0  0  0  0  0  0
    1.3066   13.8549   -2.7647 H   0  0  0  0  0  0  0  0  0  0  0  0
    0.9129   15.5461   -3.2246 H   0  0  0  0  0  0  0  0  0  0  0  0
    2.6208   14.9898   -3.2246 H   0  0  0  0  0  0  0  0  0  0  0  0
    2.1635   14.5807    0.6877 H   0  0  0  0  0  0  0  0  0  0  0  0
    3.9136   13.7729   -1.0226 H   0  0  0  0  0  0  0  0  0  0  0  0
    3.3757   12.6959    0.3705 H   0  0  0  0  0  0  0  0  0  0  0  0
    3.6572   11.5198   -1.9712 H   0  0  0  0  0  0  0  0  0  0  0  0
   -0.1458   12.8786   -2.0153 H   0  0  0  0  0  0  0  0  0  0  0  0
   -0.1929   10.5362   -0.0156 H   0  0  0  0  0  0  0  0  0  0  0  0
   -1.5934   11.5961   -0.4915 H   0  0  0  0  0  0  0  0  0  0  0  0
   -1.6640    9.3915   -1.6126 H   0  0  0  0  0  0  0  0  0  0  0  0
   -1.4862   10.7673   -2.7705 H   0  0  0  0  0  0  0  0  0  0  0  0
   -0.0219    8.9919   -3.4528 H   0  0  0  0  0  0  0  0  0  0  0  0
    1.7860    8.6080   -1.7460 H   0  0  0  0  0  0  0  0  0  0  0  0
    0.2431   12.2130   -3.9621 H   0  0  0  0  0  0  0  0  0  0  0  0
    1.6969   11.6585   -4.8597 H   0  0  0  0  0  0  0  0  0  0  0  0
    0.2054   10.6575   -4.8597 H   0  0  0  0  0  0  0  0  0  0  0  0
    3.1541    9.4893   -2.5252 H   0  0  0  0  0  0  0  0  0  0  0  0
    2.3242    8.9416   -4.0212 H   0  0  0  0  0  0  0  0  0  0  0  0
    3.2538   10.4786   -4.0212 H   0  0  0  0  0  0  0  0  0  0  0  0
    0.5887   13.2595    2.1180 H   0  0  0  0  0  0  0  0  0  0  0  0
   -0.0510   11.7633    1.3573 H   0  0  0  0  0  0  0  0  0  0  0  0
    1.7160   12.0861    1.3573 H   0  0  0  0  0  0  0  0  0  0  0  0
   -1.5634   13.6469   -0.1798 H   0  0  0  0  0  0  0  0  0  0  0  0
   -0.6383   14.6121    1.1036 H   0  0  0  0  0  0  0  0  0  0  0  0
   -0.8516   15.2081   -1.8603 H   0  0  0  0  0  0  0  0  0  0  0  0
   -1.5025   16.1594   -0.4680 H   0  0  0  0  0  0  0  0  0  0  0  0
    0.5165   15.9195    1.4571 H   0  0  0  0  0  0  0  0  0  0  0  0
    1.8397   17.0285    0.9613 H   0  0  0  0  0  0  0  0  0  0  0  0
    0.1382   17.6041    0.9613 H   0  0  0  0  0  0  0  0  0  0  0  0
  1  2  1  0
  2  3  1  0
  3  4  1  0
  4  5  1  0
  5  6  1  0
  6  7  1  0
  7  8  1  0
  7  9  1  0
  2 10  1  0
 10 11  1  0
 11 12  1  0
 12 13  1  0
 13 14  1  6
 13 15  1  0
 15 16  1  0
 16 17  1  0
 17 18  2  0
 18 19  1  0
 19 20  1  0
 20 21  1  0
 21 22  1  0
 22 23  1  0
 22 24  1  0
 24 25  1  0
 24 26  1  0
 19 27  1  0
 27 28  1  1
 27 29  1  0
 29 30  1  0
 30 31  1  0
 31 32  1  1
  7  5  1  0
 31 10  1  0
 31 13  1  0
 27 15  1  0
 24 18  1  0
  1 33  1  0
  1 34  1  0
  1 35  1  0
  2 36  1  1
  3 37  1  0
  3 38  1  0
  4 39  1  0
  4 40  1  0
  5 41  1  1
  8 42  1  0
  8 43  1  0
  8 44  1  0
  9 45  1  0
  9 46  1  0
  9 47  1  0
 10 48  1  6
 11 49  1  0
 11 50  1  0
 12 51  1  0
 12 52  1  0
 14 53  1  0
 14 54  1  0
 14 55  1  0
 15 56  1  1
 16 57  1  0
 16 58  1  0
 17 59  1  0
 19 60  1  6
 20 61  1  0
 20 62  1  0
 21 63  1  0
 21 64  1  0
 22 65  1  6
 23 66  1  0
 25 67  1  0
 25 68  1  0
 25 69  1  0
 26 70  1  0
 26 71  1  0
 26 72  1  0
 28 73  1  0
 28 74  1  0
 28 75  1  0
 29 76  1  0
 29 77  1  0
 30 78  1  0
 30 79  1  0
 32 80  1  0
 32 81  1  0
 32 82  1  0
M  END
>  <meeko>  (13) 
{"is_sidechain": [false], "intermolecular_energy": 2.731, "internal_energy": -0.839}

$$$$
EPH_relaxed_0001_pdb2pqr_Repair_63_r2_0001_out
     RDKit          3D

 82 86  0  0  0  0  0  0  0  0999 V2000
   -2.2170    7.8350   -2.0580 C   0  0  0  0  0  0  0  0  0  0  0  0
   -2.2240    8.4830   -0.6710 C   0  0  2  0  0  0  0  0  0  0  0  0
   -3.6300    8.4870   -0.0390 C   0  0  0  0  0  0  0  0  0  0  0  0
   -4.7660    8.5320   -1.0660 C   0  0  0  0  0  0  0  0  0  0  0  0
   -5.6690    7.3420   -0.9440 C   0  0  2  0  0  0  0  0  0  0  0  0
   -5.7570    6.5340   -2.1250 O   0  0  0  0  0  0  0  0  0  0  0  0
   -6.9660    7.1940   -1.7180 C   0  0  0  0  0  0  0  0  0  0  0  0
   -7.4320    8.2510   -2.6690 C   0  0  0  0  0  0  0  0  0  0  0  0
   -8.0120    6.2630   -1.1900 C   0  0  0  0  0  0  0  0  0  0  0  0
   -1.6890    9.9080   -0.7610 C   0  0  1  0  0  0  0  0  0  0  0  0
   -1.2300   10.4610    0.6150 C   0  0  0  0  0  0  0  0  0  0  0  0
   -0.0060   11.3730    0.3450 C   0  0  0  0  0  0  0  0  0  0  0  0
   -0.0040   11.5790   -1.1880 C   0  0  1  0  0  0  0  0  0  0  0  0
   -1.0570   12.7040   -1.4430 C   0  0  0  0  0  0  0  0  0  0  0  0
    1.3760   11.9230   -1.8380 C   0  0  2  0  0  0  0  0  0  0  0  0
    2.0070   13.2450   -1.3680 C   0  0  0  0  0  0  0  0  0  0  0  0
    1.6440   14.4470   -2.1760 C   0  0  0  0  0  0  0  0  0  0  0  0
    1.0780   14.4260   -3.3980 C   0  0  0  0  0  0  0  0  0  0  0  0
    0.8350   13.1010   -4.1310 C   0  0  1  0  0  0  0  0  0  0  0  0
    1.3130   13.2270   -5.6010 C   0  0  0  0  0  0  0  0  0  0  0  0
    0.6840   14.4160   -6.3210 C   0  0  0  0  0  0  0  0  0  0  0  0
    0.9980   15.7220   -5.5940 C   0  0  2  0  0  0  0  0  0  0  0  0
    2.4020   15.9770   -5.6890 O   0  0  0  0  0  0  0  0  0  0  0  0
    0.5690   15.7090   -4.1000 C   0  0  0  0  0  0  0  0  0  0  0  0
   -0.9760   15.7360   -4.0020 C   0  0  0  0  0  0  0  0  0  0  0  0
    1.0680   17.0270   -3.4490 C   0  0  0  0  0  0  0  0  0  0  0  0
    1.3990   11.7990   -3.4150 C   0  0  1  0  0  0  0  0  0  0  0  0
    2.8860   11.5700   -3.8220 C   0  0  0  0  0  0  0  0  0  0  0  0
    0.6000   10.5430   -3.9280 C   0  0  0  0  0  0  0  0  0  0  0  0
   -0.6930   10.1850   -3.1710 C   0  0  0  0  0  0  0  0  0  0  0  0
   -0.4490   10.1470   -1.6590 C   0  0  2  0  0  0  0  0  0  0  0  0
    0.5890    9.0090   -1.3700 C   0  0  0  0  0  0  0  0  0  0  0  0
   -2.2052    6.7403   -1.9512 H   0  0  0  0  0  0  0  0  0  0  0  0
   -3.1185    8.1399   -2.6097 H   0  0  0  0  0  0  0  0  0  0  0  0
   -1.3223    8.1593   -2.6097 H   0  0  0  0  0  0  0  0  0  0  0  0
   -1.5720    7.8811   -0.0209 H   0  0  0  0  0  0  0  0  0  0  0  0
   -3.7426    7.5737    0.5637 H   0  0  0  0  0  0  0  0  0  0  0  0
   -3.7077    9.4017    0.5671 H   0  0  0  0  0  0  0  0  0  0  0  0
   -5.3565    9.4460   -0.9050 H   0  0  0  0  0  0  0  0  0  0  0  0
   -4.3205    8.5236   -2.0717 H   0  0  0  0  0  0  0  0  0  0  0  0
   -5.4321    7.2416    0.1255 H   0  0  0  0  0  0  0  0  0  0  0  0
   -7.8121    9.1132   -2.1014 H   0  0  0  0  0  0  0  0  0  0  0  0
   -6.5914    8.5708   -3.3024 H   0  0  0  0  0  0  0  0  0  0  0  0
   -8.2351    7.8461   -3.3024 H   0  0  0  0  0  0  0  0  0  0  0  0
   -7.9950    6.2782   -0.0902 H   0  0  0  0  0  0  0  0  0  0  0  0
   -9.0021    6.5842   -1.5458 H   0  0  0  0  0  0  0  0  0  0  0  0
   -7.8078    5.2424   -1.5458 H   0  0  0  0  0  0  0  0  0  0  0  0
   -2.5682   10.4085   -1.1928 H   0  0  0  0  0  0  0  0  0  0  0  0
   -2.0404   11.0423    1.0790 H   0  0  0  0  0  0  0  0  0  0  0  0
   -0.9688    9.6427    1.3022 H   0  0  0  0  0  0  0  0  0  0  0  0
   -0.1163   12.3355    0.8661 H   0  0  0  0  0  0  0  0  0  0  0  0
    0.9330   10.9294    0.7077 H   0  0  0  0  0  0  0  0  0  0  0  0
   -1.4199   13.0917   -0.4797 H   0  0  0  0  0  0  0  0  0  0  0  0
   -0.5906   13.5201   -2.0145 H   0  0  0  0  0  0  0  0  0  0  0  0
   -1.9021   12.2925   -2.0145 H   0  0  0  0  0  0  0  0  0  0  0  0
    2.0260   11.1265   -1.4466 H   0  0  0  0  0  0  0  0  0  0  0  0
    1.6884   13.4239   -0.3305 H   0  0  0  0  0  0  0  0  0  0  0  0
    3.0942   13.1201   -1.4794 H   0  0  0  0  0  0  0  0  0  0  0  0
    1.8567   15.4326   -1.7363 H   0  0  0  0  0  0  0  0  0  0  0  0
   -0.2520   12.9343   -4.1054 H   0  0  0  0  0  0  0  0  0  0  0  0
    2.4062   13.3492   -5.6070 H   0  0  0  0  0  0  0  0  0  0  0  0
    1.0047   12.3142   -6.1317 H   0  0  0  0  0  0  0  0  0  0  0  0
    1.0826   14.4690   -7.3449 H   0  0  0  0  0  0  0  0  0  0  0  0
   -0.4072   14.2781   -6.3401 H   0  0  0  0  0  0  0  0  0  0  0  0
    0.4164   16.5187   -6.0809 H   0  0  0  0  0  0  0  0  0  0  0  0
    2.8670   15.1950   -5.3460 H   0  0  0  0  0  0  0  0  0  0  0  0
   -1.2762   15.7412   -2.9438 H   0  0  0  0  0  0  0  0  0  0  0  0
   -1.3590   16.6410   -4.4963 H   0  0  0  0  0  0  0  0  0  0  0  0
   -1.3904   14.8450   -4.4963 H   0  0  0  0  0  0  0  0  0  0  0  0
    1.0319   16.9316   -2.3537 H   0  0  0  0  0  0  0  0  0  0  0  0
    2.1028   17.2237   -3.7660 H   0  0  0  0  0  0  0  0  0  0  0  0
    0.4229   17.8597   -3.7660 H   0  0  0  0  0  0  0  0  0  0  0  0
    3.5035   11.4749   -2.9166 H   0  0  0  0  0  0  0  0  0  0  0  0
    2.9653   10.6491   -4.4183 H   0  0  0  0  0  0  0  0  0  0  0  0
    3.2387   12.4244   -4.4183 H   0  0  0  0  0  0  0  0  0  0  0  0
    0.3305   10.7265   -4.9786 H   0  0  0  0  0  0  0  0  0  0  0  0
    1.2735    9.6883   -3.7671 H   0  0  0  0  0  0  0  0  0  0  0  0
   -1.4611   10.9405   -3.3929 H   0  0  0  0  0  0  0  0  0  0  0  0
   -1.0273    9.1894   -3.4980 H   0  0  0  0  0  0  0  0  0  0  0  0
    0.7030    8.8840   -0.2831 H   0  0  0  0  0  0  0  0  0  0  0  0
    0.2327    8.0668   -1.8120 H   0  0  0  0  0  0  0  0  0  0  0  0
    1.5599    9.2774   -1.8120 H   0  0  0  0  0  0  0  0  0  0  0  0
  1  2  1  0
  2  3  1  0
  3  4  1  0
  4  5  1  0
  5  6  1  0
  6  7  1  0
  7  8  1  0
  7  9  1  0
  2 10  1  0
 10 11  1  0
 11 12  1  0
 12 13  1  0
 13 14  1  1
 13 15  1  0
 15 16  1  0
 16 17  1  0
 17 18  2  0
 18 19  1  0
 19 20  1  0
 20 21  1  0
 21 22  1  0
 22 23  1  0
 22 24  1  0
 24 25  1  0
 24 26  1  0
 19 27  1  0
 27 28  1  6
 27 29  1  0
 29 30  1  0
 30 31  1  0
 31 32  1  6
  7  5  1  0
 31 10  1  0
 31 13  1  0
 27 15  1  0
 24 18  1  0
  1 33  1  0
  1 34  1  0
  1 35  1  0
  2 36  1  1
  3 37  1  0
  3 38  1  0
  4 39  1  0
  4 40  1  0
  5 41  1  1
  8 42  1  0
  8 43  1  0
  8 44  1  0
  9 45  1  0
  9 46  1  0
  9 47  1  0
 10 48  1  6
 11 49  1  0
 11 50  1  0
 12 51  1  0
 12 52  1  0
 14 53  1  0
 14 54  1  0
 14 55  1  0
 15 56  1  1
 16 57  1  0
 16 58  1  0
 17 59  1  0
 19 60  1  6
 20 61  1  0
 20 62  1  0
 21 63  1  0
 21 64  1  0
 22 65  1  6
 23 66  1  0
 25 67  1  0
 25 68  1  0
 25 69  1  0
 26 70  1  0
 26 71  1  0
 26 72  1  0
 28 73  1  0
 28 74  1  0
 28 75  1  0
 29 76  1  0
 29 77  1  0
 30 78  1  0
 30 79  1  0
 32 80  1  0
 32 81  1  0
 32 82  1  0
M  END
>  <meeko>  (14) 
{"is_sidechain": [false], "intermolecular_energy": 2.731, "internal_energy": -0.839}

$$$$
EPH_relaxed_0001_pdb2pqr_Repair_63_r2_0001_out
     RDKit          3D

 82 86  0  0  0  0  0  0  0  0999 V2000
   -0.2670    9.3070   -2.1510 C   0  0  0  0  0  0  0  0  0  0  0  0
    0.8390   10.2510   -2.6290 C   0  0  2  0  0  0  0  0  0  0  0  0
    2.2120    9.5510   -2.6940 C   0  0  0  0  0  0  0  0  0  0  0  0
    3.1350   10.1050   -3.7820 C   0  0  0  0  0  0  0  0  0  0  0  0
    4.5040   10.4030   -3.2500 C   0  0  2  0  0  0  0  0  0  0  0  0
    4.9530   11.7460   -3.4700 O   0  0  0  0  0  0  0  0  0  0  0  0
    5.6970   10.7120   -4.1350 C   0  0  0  0  0  0  0  0  0  0  0  0
    5.5760   10.7380   -5.6260 C   0  0  0  0  0  0  0  0  0  0  0  0
    7.0720   10.5070   -3.5800 C   0  0  0  0  0  0  0  0  0  0  0  0
    0.9170   11.4670   -1.7140 C   0  0  1  0  0  0  0  0  0  0  0  0
    1.9970   11.3150   -0.6090 C   0  0  0  0  0  0  0  0  0  0  0  0
    2.5960   12.7250   -0.3720 C   0  0  0  0  0  0  0  0  0  0  0  0
    1.6260   13.6870   -1.0970 C   0  0  1  0  0  0  0  0  0  0  0  0
    0.4400   13.8860   -0.1010 C   0  0  0  0  0  0  0  0  0  0  0  0
    2.2270   15.0550   -1.5590 C   0  0  2  0  0  0  0  0  0  0  0  0
    2.7370   15.9600   -0.4250 C   0  0  0  0  0  0  0  0  0  0  0  0
    1.7310   16.9110    0.1340 C   0  0  0  0  0  0  0  0  0  0  0  0
    0.5580   17.2360   -0.4410 C   0  0  0  0  0  0  0  0  0  0  0  0
    0.1860   16.6990   -1.8290 C   0  0  1  0  0  0  0  0  0  0  0  0
   -0.3640   17.8580   -2.7020 C   0  0  0  0  0  0  0  0  0  0  0  0
   -1.5190   18.5970   -2.0330 C   0  0  0  0  0  0  0  0  0  0  0  0
   -1.0930   19.1660   -0.6820 C   0  0  2  0  0  0  0  0  0  0  0  0
   -0.1190   20.1920   -0.9000 O   0  0  0  0  0  0  0  0  0  0  0  0
   -0.5130   18.0910    0.2800 C   0  0  0  0  0  0  0  0  0  0  0  0
   -1.6480   17.1510    0.7550 C   0  0  0  0  0  0  0  0  0  0  0  0
    0.0080   18.8180    1.5490 C   0  0  0  0  0  0  0  0  0  0  0  0
    1.3100   15.8560   -2.5710 C   0  0  1  0  0  0  0  0  0  0  0  0
    2.2530   16.8110   -3.3650 C   0  0  0  0  0  0  0  0  0  0  0  0
    0.6300   14.9160   -3.6350 C   0  0  0  0  0  0  0  0  0  0  0  0
    0.1660   13.5320   -3.1440 C   0  0  0  0  0  0  0  0  0  0  0  0
    1.2790   12.8250   -2.3650 C   0  0  2  0  0  0  0  0  0  0  0  0
    2.4770   12.5920   -3.3470 C   0  0  0  0  0  0  0  0  0  0  0  0
   -0.2856    9.2911   -1.0513 H   0  0  0  0  0  0  0  0  0  0  0  0
   -1.2382    9.6589   -2.5291 H   0  0  0  0  0  0  0  0  0  0  0  0
   -0.0720    8.2926   -2.5291 H   0  0  0  0  0  0  0  0  0  0  0  0
    0.5825   10.5706   -3.6498 H   0  0  0  0  0  0  0  0  0  0  0  0
    2.7102    9.6729   -1.7209 H   0  0  0  0  0  0  0  0  0  0  0  0
    2.0231    8.4956   -2.9399 H   0  0  0  0  0  0  0  0  0  0  0  0
    3.2202    9.3624   -4.5890 H   0  0  0  0  0  0  0  0  0  0  0  0
    2.7003   11.0444   -4.1543 H   0  0  0  0  0  0  0  0  0  0  0  0
    4.3632    9.6903   -2.4240 H   0  0  0  0  0  0  0  0  0  0  0  0
    4.5359   10.9615   -5.9056 H   0  0  0  0  0  0  0  0  0  0  0  0
    6.2403   11.5139   -6.0343 H   0  0  0  0  0  0  0  0  0  0  0  0
    5.8629    9.7577   -6.0343 H   0  0  0  0  0  0  0  0  0  0  0  0
    7.0285   10.5135   -2.4809 H   0  0  0  0  0  0  0  0  0  0  0  0
    7.4665    9.5401   -3.9256 H   0  0  0  0  0  0  0  0  0  0  0  0
    7.7314   11.3168   -3.9256 H   0  0  0  0  0  0  0  0  0  0  0  0
   -0.1204   11.4896   -1.3489 H   0  0  0  0  0  0  0  0  0  0  0  0
    1.5403   10.9368    0.3175 H   0  0  0  0  0  0  0  0  0  0  0  0
    2.7763   10.6010   -0.9139 H   0  0  0  0  0  0  0  0  0  0  0  0
    2.6383   12.9534    0.7032 H   0  0  0  0  0  0  0  0  0  0  0  0
    3.6263   12.8094   -0.7479 H   0  0  0  0  0  0  0  0  0  0  0  0
    0.8139   13.8233    0.9316 H   0  0  0  0  0  0  0  0  0  0  0  0
   -0.0161   14.8732   -0.2665 H   0  0  0  0  0  0  0  0  0  0  0  0
   -0.3133   13.1017   -0.2665 H   0  0  0  0  0  0  0  0  0  0  0  0
    3.1225   14.7436   -2.1168 H   0  0  0  0  0  0  0  0  0  0  0  0
    3.0860   15.3142    0.3942 H   0  0  0  0  0  0  0  0  0  0  0  0
    3.5308   16.5812   -0.8654 H   0  0  0  0  0  0  0  0  0  0  0  0
    1.9684   17.3863    1.0972 H   0  0  0  0  0  0  0  0  0  0  0  0
   -0.6020   15.9495   -1.6639 H   0  0  0  0  0  0  0  0  0  0  0  0
    0.4497   18.5735   -2.8916 H   0  0  0  0  0  0  0  0  0  0  0  0
   -0.7443   17.4204   -3.6368 H   0  0  0  0  0  0  0  0  0  0  0  0
   -1.8444   19.4215   -2.6844 H   0  0  0  0  0  0  0  0  0  0  0  0
   -2.3432   17.8868   -1.8708 H   0  0  0  0  0  0  0  0  0  0  0  0
   -1.9932   19.5697   -0.1955 H   0  0  0  0  0  0  0  0  0  0  0  0
    0.1900   20.4940   -0.0290 H   0  0  0  0  0  0  0  0  0  0  0  0
   -1.6717   17.1313    1.8546 H   0  0  0  0  0  0  0  0  0  0  0  0
   -2.6122   17.5187    0.3739 H   0  0  0  0  0  0  0  0  0  0  0  0
   -1.4664   16.1352    0.3739 H   0  0  0  0  0  0  0  0  0  0  0  0
   -0.3627   18.3007    2.4462 H   0  0  0  0  0  0  0  0  0  0  0  0
    1.1080   18.8110    1.5500 H   0  0  0  0  0  0  0  0  0  0  0  0
   -0.3521   19.8574    1.5500 H   0  0  0  0  0  0  0  0  0  0  0  0
    2.8458   17.4113   -2.6591 H   0  0  0  0  0  0  0  0  0  0  0  0
    2.9283   16.2166   -3.9980 H   0  0  0  0  0  0  0  0  0  0  0  0
    1.6501   17.4787   -3.9980 H   0  0  0  0  0  0  0  0  0  0  0  0
   -0.2521   15.4424   -4.0284 H   0  0  0  0  0  0  0  0  0  0  0  0
    1.4137   14.7094   -4.3788 H   0  0  0  0  0  0  0  0  0  0  0  0
   -0.7083   13.6573   -2.4884 H   0  0  0  0  0  0  0  0  0  0  0  0
   -0.0937   12.9184   -4.0192 H   0  0  0  0  0  0  0  0  0  0  0  0
    3.3956   12.4133   -2.7688 H   0  0  0  0  0  0  0  0  0  0  0  0
    2.2669   11.7179   -3.9809 H   0  0  0  0  0  0  0  0  0  0  0  0
    2.6098   13.4811   -3.9809 H   0  0  0  0  0  0  0  0  0  0  0  0
  1  2  1  0
  2  3  1  0
  3  4  1  0
  4  5  1  0
  5  6  1  0
  6  7  1  0
  7  8  1  0
  7  9  1  0
  2 10  1  0
 10 11  1  0
 11 12  1  0
 12 13  1  0
 13 14  1  1
 13 15  1  0
 15 16  1  0
 16 17  1  0
 17 18  2  0
 18 19  1  0
 19 20  1  0
 20 21  1  0
 21 22  1  0
 22 23  1  0
 22 24  1  0
 24 25  1  0
 24 26  1  0
 19 27  1  0
 27 28  1  6
 27 29  1  0
 29 30  1  0
 30 31  1  0
 31 32  1  6
  7  5  1  0
 31 10  1  0
 31 13  1  0
 27 15  1  0
 24 18  1  0
  1 33  1  0
  1 34  1  0
  1 35  1  0
  2 36  1  6
  3 37  1  0
  3 38  1  0
  4 39  1  0
  4 40  1  0
  5 41  1  1
  8 42  1  0
  8 43  1  0
  8 44  1  0
  9 45  1  0
  9 46  1  0
  9 47  1  0
 10 48  1  1
 11 49  1  0
 11 50  1  0
 12 51  1  0
 12 52  1  0
 14 53  1  0
 14 54  1  0
 14 55  1  0
 15 56  1  6
 16 57  1  0
 16 58  1  0
 17 59  1  0
 19 60  1  1
 20 61  1  0
 20 62  1  0
 21 63  1  0
 21 64  1  0
 22 65  1  1
 23 66  1  0
 25 67  1  0
 25 68  1  0
 25 69  1  0
 26 70  1  0
 26 71  1  0
 26 72  1  0
 28 73  1  0
 28 74  1  0
 28 75  1  0
 29 76  1  0
 29 77  1  0
 30 78  1  0
 30 79  1  0
 32 80  1  0
 32 81  1  0
 32 82  1  0
M  END
>  <meeko>  (15) 
{"is_sidechain": [false], "intermolecular_energy": 2.731, "internal_energy": -0.839}

$$$$
EPH_relaxed_0001_pdb2pqr_Repair_63_r2_0001_out
     RDKit          3D

 82 86  0  0  0  0  0  0  0  0999 V2000
    0.1310    9.8550   -4.6300 C   0  0  0  0  0  0  0  0  0  0  0  0
    1.1620   10.5560   -3.7410 C   0  0  2  0  0  0  0  0  0  0  0  0
    1.5790    9.6850   -2.5390 C   0  0  0  0  0  0  0  0  0  0  0  0
    0.5430    8.6240   -2.1580 C   0  0  0  0  0  0  0  0  0  0  0  0
   -0.2720    9.0450   -0.9730 C   0  0  2  0  0  0  0  0  0  0  0  0
   -0.8290    7.9640   -0.2150 O   0  0  0  0  0  0  0  0  0  0  0  0
   -1.7710    8.8300   -0.8700 C   0  0  0  0  0  0  0  0  0  0  0  0
   -2.5420    8.1690   -1.9690 C   0  0  0  0  0  0  0  0  0  0  0  0
   -2.5540    9.6900    0.0720 C   0  0  0  0  0  0  0  0  0  0  0  0
    0.6060   11.8880   -3.2510 C   0  0  1  0  0  0  0  0  0  0  0  0
   -0.8550   11.7740   -2.7410 C   0  0  0  0  0  0  0  0  0  0  0  0
   -0.9950   12.7660   -1.5570 C   0  0  0  0  0  0  0  0  0  0  0  0
    0.2730   13.6480   -1.6370 C   0  0  1  0  0  0  0  0  0  0  0  0
   -0.0480   14.7140   -2.7310 C   0  0  0  0  0  0  0  0  0  0  0  0
    0.7350   14.3150   -0.3000 C   0  0  2  0  0  0  0  0  0  0  0  0
   -0.2680   15.3060    0.3160 C   0  0  0  0  0  0  0  0  0  0  0  0
   -0.1110   16.7250   -0.1200 C   0  0  0  0  0  0  0  0  0  0  0  0
    0.9660   17.2370   -0.7440 C   0  0  0  0  0  0  0  0  0  0  0  0
    2.2170   16.3820   -0.9860 C   0  0  1  0  0  0  0  0  0  0  0  0
    3.4800   17.1880   -0.5840 C   0  0  0  0  0  0  0  0  0  0  0  0
    3.5570   18.5430   -1.2800 C   0  0  0  0  0  0  0  0  0  0  0  0
    2.3230   19.3860   -0.9690 C   0  0  2  0  0  0  0  0  0  0  0  0
    2.3340   19.7230    0.4220 O   0  0  0  0  0  0  0  0  0  0  0  0
    0.9880   18.6730   -1.3230 C   0  0  0  0  0  0  0  0  0  0  0  0
    0.8410   18.5790   -2.8620 C   0  0  0  0  0  0  0  0  0  0  0  0
   -0.1790   19.5720   -0.8300 C   0  0  0  0  0  0  0  0  0  0  0  0
    2.1940   14.9260   -0.3510 C   0  0  1  0  0  0  0  0  0  0  0  0
    2.7070   14.9780    1.1210 C   0  0  0  0  0  0  0  0  0  0  0  0
    3.2010   14.0060   -1.1390 C   0  0  0  0  0  0  0  0  0  0  0  0
    2.6510   13.2800   -2.3820 C   0  0  0  0  0  0  0  0  0  0  0  0
    1.3330   12.5690   -2.0640 C   0  0  2  0  0  0  0  0  0  0  0  0
    1.6290   11.4750   -0.9810 C   0  0  0  0  0  0  0  0  0  0  0  0
   -0.6138    9.3486   -3.9985 H   0  0  0  0  0  0  0  0  0  0  0  0
   -0.3719   10.5991   -5.2651 H   0  0  0  0  0  0  0  0  0  0  0  0
    0.6381    9.1137   -5.2651 H   0  0  0  0  0  0  0  0  0  0  0  0
    2.0610   10.7303   -4.3505 H   0  0  0  0  0  0  0  0  0  0  0  0
    2.5213    9.1758   -2.7896 H   0  0  0  0  0  0  0  0  0  0  0  0
    1.6820   10.3581   -1.6751 H   0  0  0  0  0  0  0  0  0  0  0  0
   -0.1295    8.4594   -3.0128 H   0  0  0  0  0  0  0  0  0  0  0  0
    1.0792    7.7004   -1.8945 H   0  0  0  0  0  0  0  0  0  0  0  0
    0.3575    9.9351   -0.8263 H   0  0  0  0  0  0  0  0  0  0  0  0
   -3.3092    7.5113   -1.5344 H   0  0  0  0  0  0  0  0  0  0  0  0
   -3.0264    8.9368   -2.5902 H   0  0  0  0  0  0  0  0  0  0  0  0
   -1.8572    7.5730   -2.5902 H   0  0  0  0  0  0  0  0  0  0  0  0
   -2.3064    9.4180    1.1087 H   0  0  0  0  0  0  0  0  0  0  0  0
   -2.3014   10.7467   -0.1002 H   0  0  0  0  0  0  0  0  0  0  0  0
   -3.6297    9.5374   -0.1002 H   0  0  0  0  0  0  0  0  0  0  0  0
    0.7332   12.4878   -4.1643 H   0  0  0  0  0  0  0  0  0  0  0  0
   -1.5582   12.0408   -3.5437 H   0  0  0  0  0  0  0  0  0  0  0  0
   -1.0831   10.7458   -2.4236 H   0  0  0  0  0  0  0  0  0  0  0  0
   -1.9020   13.3784   -1.6683 H   0  0  0  0  0  0  0  0  0  0  0  0
   -1.0854   12.2512   -0.5891 H   0  0  0  0  0  0  0  0  0  0  0  0
   -0.3330   15.6604   -2.2483 H   0  0  0  0  0  0  0  0  0  0  0  0
    0.8414   14.8754   -3.3579 H   0  0  0  0  0  0  0  0  0  0  0  0
   -0.8786   14.3574   -3.3579 H   0  0  0  0  0  0  0  0  0  0  0  0
    0.7710   13.4592    0.3901 H   0  0  0  0  0  0  0  0  0  0  0  0
   -1.2818   14.9769    0.0440 H   0  0  0  0  0  0  0  0  0  0  0  0
   -0.0782   15.2975    1.3995 H   0  0  0  0  0  0  0  0  0  0  0  0
   -0.9464   17.4103    0.0862 H   0  0  0  0  0  0  0  0  0  0  0  0
    2.2376   16.1702   -2.0652 H   0  0  0  0  0  0  0  0  0  0  0  0
    3.4625   17.3511    0.5037 H   0  0  0  0  0  0  0  0  0  0  0  0
    4.3599   16.6044   -0.8925 H   0  0  0  0  0  0  0  0  0  0  0  0
    4.4542   19.0760   -0.9323 H   0  0  0  0  0  0  0  0  0  0  0  0
    3.6051   18.3778   -2.3665 H   0  0  0  0  0  0  0  0  0  0  0  0
    2.3728   20.2876   -1.5972 H   0  0  0  0  0  0  0  0  0  0  0  0
    3.0700   19.2400    0.8360 H   0  0  0  0  0  0  0  0  0  0  0  0
   -0.0620   18.0016   -3.1095 H   0  0  0  0  0  0  0  0  0  0  0  0
    0.7564   19.5910   -3.2848 H   0  0  0  0  0  0  0  0  0  0  0  0
    1.7241   18.0777   -3.2848 H   0  0  0  0  0  0  0  0  0  0  0  0
   -0.1937   19.5833    0.2698 H   0  0  0  0  0  0  0  0  0  0  0  0
   -0.0367   20.5961   -1.2054 H   0  0  0  0  0  0  0  0  0  0  0  0
   -1.1329   19.1731   -1.2054 H   0  0  0  0  0  0  0  0  0  0  0  0
    1.8538   14.8915    1.8099 H   0  0  0  0  0  0  0  0  0  0  0  0
    3.4051   14.1460    1.2956 H   0  0  0  0  0  0  0  0  0  0  0  0
    3.2239   15.9331    1.2956 H   0  0  0  0  0  0  0  0  0  0  0  0
    4.0413   14.6360   -1.4661 H   0  0  0  0  0  0  0  0  0  0  0  0
    3.4720   13.2059   -0.4344 H   0  0  0  0  0  0  0  0  0  0  0  0
    2.4790   14.0157   -3.1815 H   0  0  0  0  0  0  0  0  0  0  0  0
    3.3866   12.5275   -2.7023 H   0  0  0  0  0  0  0  0  0  0  0  0
    1.5111   11.9107    0.0221 H   0  0  0  0  0  0  0  0  0  0  0  0
    0.9248   10.6387   -1.1026 H   0  0  0  0  0  0  0  0  0  0  0  0
    2.6588   11.1079   -1.1026 H   0  0  0  0  0  0  0  0  0  0  0  0
  1  2  1  0
  2  3  1  0
  3  4  1  0
  4  5  1  0
  5  6  1  0
  6  7  1  0
  7  8  1  0
  7  9  1  0
  2 10  1  0
 10 11  1  0
 11 12  1  0
 12 13  1  0
 13 14  1  6
 13 15  1  0
 15 16  1  0
 16 17  1  0
 17 18  2  0
 18 19  1  0
 19 20  1  0
 20 21  1  0
 21 22  1  0
 22 23  1  0
 22 24  1  0
 24 25  1  0
 24 26  1  0
 19 27  1  0
 27 28  1  1
 27 29  1  0
 29 30  1  0
 30 31  1  0
 31 32  1  1
  7  5  1  0
 31 10  1  0
 31 13  1  0
 27 15  1  0
 24 18  1  0
  1 33  1  0
  1 34  1  0
  1 35  1  0
  2 36  1  6
  3 37  1  0
  3 38  1  0
  4 39  1  0
  4 40  1  0
  5 41  1  1
  8 42  1  0
  8 43  1  0
  8 44  1  0
  9 45  1  0
  9 46  1  0
  9 47  1  0
 10 48  1  6
 11 49  1  0
 11 50  1  0
 12 51  1  0
 12 52  1  0
 14 53  1  0
 14 54  1  0
 14 55  1  0
 15 56  1  1
 16 57  1  0
 16 58  1  0
 17 59  1  0
 19 60  1  6
 20 61  1  0
 20 62  1  0
 21 63  1  0
 21 64  1  0
 22 65  1  6
 23 66  1  0
 25 67  1  0
 25 68  1  0
 25 69  1  0
 26 70  1  0
 26 71  1  0
 26 72  1  0
 28 73  1  0
 28 74  1  0
 28 75  1  0
 29 76  1  0
 29 77  1  0
 30 78  1  0
 30 79  1  0
 32 80  1  0
 32 81  1  0
 32 82  1  0
M  END
>  <meeko>  (16) 
{"is_sidechain": [false], "intermolecular_energy": 2.731, "internal_energy": -0.839}

$$$$
EPH_relaxed_0001_pdb2pqr_Repair_63_r2_0001_out
     RDKit          3D

 82 86  0  0  0  0  0  0  0  0999 V2000
   -1.7410   14.8120    0.3900 C   0  0  0  0  0  0  0  0  0  0  0  0
   -0.3900   15.5190    0.2490 C   0  0  2  0  0  0  0  0  0  0  0  0
   -0.4000   16.5730   -0.8770 C   0  0  0  0  0  0  0  0  0  0  0  0
   -0.0350   17.9820   -0.4040 C   0  0  0  0  0  0  0  0  0  0  0  0
    1.4120   18.0830   -0.0280 C   0  0  2  0  0  0  0  0  0  0  0  0
    2.0540   19.2980   -0.4360 O   0  0  0  0  0  0  0  0  0  0  0  0
    2.5420   18.0900   -1.0410 C   0  0  0  0  0  0  0  0  0  0  0  0
    2.2730   17.9940   -2.5100 C   0  0  0  0  0  0  0  0  0  0  0  0
    3.9130   17.6990   -0.5860 C   0  0  0  0  0  0  0  0  0  0  0  0
    0.7090   14.4940   -0.0070 C   0  0  1  0  0  0  0  0  0  0  0  0
    0.8550   13.4730    1.1520 C   0  0  0  0  0  0  0  0  0  0  0  0
    1.2400   12.1160    0.5070 C   0  0  0  0  0  0  0  0  0  0  0  0
    1.6250   12.4710   -0.9480 C   0  0  1  0  0  0  0  0  0  0  0  0
    3.0950   12.9890   -0.8590 C   0  0  0  0  0  0  0  0  0  0  0  0
    1.4800   11.3250   -2.0000 C   0  0  2  0  0  0  0  0  0  0  0  0
    2.3760   10.0980   -1.7570 C   0  0  0  0  0  0  0  0  0  0  0  0
    3.7170   10.1470   -2.4110 C   0  0  0  0  0  0  0  0  0  0  0  0
    4.0780   10.9970   -3.3910 C   0  0  0  0  0  0  0  0  0  0  0  0
    3.0610   11.9660   -4.0070 C   0  0  1  0  0  0  0  0  0  0  0  0
    3.1780   11.9250   -5.5540 C   0  0  0  0  0  0  0  0  0  0  0  0
    4.6010   12.1840   -6.0400 C   0  0  0  0  0  0  0  0  0  0  0  0
    5.5730   11.1640   -5.4510 C   0  0  2  0  0  0  0  0  0  0  0  0
    5.2660    9.8730   -5.9860 O   0  0  0  0  0  0  0  0  0  0  0  0
    5.5370   11.1090   -3.8980 C   0  0  0  0  0  0  0  0  0  0  0  0
    6.1550   12.4040   -3.3170 C   0  0  0  0  0  0  0  0  0  0  0  0
    6.4570    9.9450   -3.4410 C   0  0  0  0  0  0  0  0  0  0  0  0
    1.5620   11.8110   -3.5040 C   0  0  1  0  0  0  0  0  0  0  0  0
    0.8220   10.7380   -4.3600 C   0  0  0  0  0  0  0  0  0  0  0  0
    0.7980   13.1680   -3.7370 C   0  0  0  0  0  0  0  0  0  0  0  0
    0.8810   14.2140   -2.6090 C   0  0  0  0  0  0  0  0  0  0  0  0
    0.5560   13.5840   -1.2510 C   0  0  2  0  0  0  0  0  0  0  0  0
   -0.9240   13.0730   -1.3030 C   0  0  0  0  0  0  0  0  0  0  0  0
   -1.9799   14.6870    1.4564 H   0  0  0  0  0  0  0  0  0  0  0  0
   -2.5232   15.4163   -0.0926 H   0  0  0  0  0  0  0  0  0  0  0  0
   -1.6904   13.8248   -0.0926 H   0  0  0  0  0  0  0  0  0  0  0  0
   -0.1933   16.0473    1.1936 H   0  0  0  0  0  0  0  0  0  0  0  0
    0.3242   16.2664   -1.6461 H   0  0  0  0  0  0  0  0  0  0  0  0
   -1.4286   16.6202   -1.2640 H   0  0  0  0  0  0  0  0  0  0  0  0
   -0.2432   18.6954   -1.2150 H   0  0  0  0  0  0  0  0  0  0  0  0
   -0.6376   18.2114    0.4872 H   0  0  0  0  0  0  0  0  0  0  0  0
    1.2404   17.4894    0.8820 H   0  0  0  0  0  0  0  0  0  0  0  0
    1.2483   17.6283   -2.6720 H   0  0  0  0  0  0  0  0  0  0  0  0
    2.3846   18.9875   -2.9689 H   0  0  0  0  0  0  0  0  0  0  0  0
    2.9884   17.2957   -2.9689 H   0  0  0  0  0  0  0  0  0  0  0  0
    3.9457   17.6897    0.5135 H   0  0  0  0  0  0  0  0  0  0  0  0
    4.1542   16.6963   -0.9685 H   0  0  0  0  0  0  0  0  0  0  0  0
    4.6469   18.4237   -0.9685 H   0  0  0  0  0  0  0  0  0  0  0  0
    1.5659   15.1710   -0.1390 H   0  0  0  0  0  0  0  0  0  0  0  0
    1.6427   13.7991    1.8471 H   0  0  0  0  0  0  0  0  0  0  0  0
   -0.0812   13.3874    1.7232 H   0  0  0  0  0  0  0  0  0  0  0  0
    2.0923   11.6631    1.0347 H   0  0  0  0  0  0  0  0  0  0  0  0
    0.4204   11.3839    0.5549 H   0  0  0  0  0  0  0  0  0  0  0  0
    3.3845   13.0910    0.1973 H   0  0  0  0  0  0  0  0  0  0  0  0
    3.7666   12.2734   -1.3558 H   0  0  0  0  0  0  0  0  0  0  0  0
    3.1696   13.9676   -1.3558 H   0  0  0  0  0  0  0  0  0  0  0  0
    0.4491   10.9803   -1.8312 H   0  0  0  0  0  0  0  0  0  0  0  0
    2.5304    9.9996   -0.6723 H   0  0  0  0  0  0  0  0  0  0  0  0
    1.8495    9.2434   -2.2069 H   0  0  0  0  0  0  0  0  0  0  0  0
    4.4738    9.4284   -2.0632 H   0  0  0  0  0  0  0  0  0  0  0  0
    3.3324   12.9662   -3.6383 H   0  0  0  0  0  0  0  0  0  0  0  0
    2.8605   10.9322   -5.9055 H   0  0  0  0  0  0  0  0  0  0  0  0
    2.5366   12.7218   -5.9587 H   0  0  0  0  0  0  0  0  0  0  0  0
    4.6253   12.1124   -7.1374 H   0  0  0  0  0  0  0  0  0  0  0  0
    4.9061   13.1891   -5.7133 H   0  0  0  0  0  0  0  0  0  0  0  0
    6.5898   11.4778   -5.7296 H   0  0  0  0  0  0  0  0  0  0  0  0
    6.0580    9.5500   -6.4470 H   0  0  0  0  0  0  0  0  0  0  0  0
    6.1337   12.3594   -2.2181 H   0  0  0  0  0  0  0  0  0  0  0  0
    7.1958   12.4995   -3.6600 H   0  0  0  0  0  0  0  0  0  0  0  0
    5.5746   13.2732   -3.6600 H   0  0  0  0  0  0  0  0  0  0  0  0
    6.4850    9.9096   -2.3419 H   0  0  0  0  0  0  0  0  0  0  0  0
    6.0643    8.9934   -3.8286 H   0  0  0  0  0  0  0  0  0  0  0  0
    7.4736   10.1072   -3.8286 H   0  0  0  0  0  0  0  0  0  0  0  0
    0.3248   10.0170   -3.6944 H   0  0  0  0  0  0  0  0  0  0  0  0
    0.0702   11.2299   -4.9947 H   0  0  0  0  0  0  0  0  0  0  0  0
    1.5490   10.2101   -4.9947 H   0  0  0  0  0  0  0  0  0  0  0  0
    1.2073   13.6282   -4.6484 H   0  0  0  0  0  0  0  0  0  0  0  0
   -0.2654   12.8931   -3.7972 H   0  0  0  0  0  0  0  0  0  0  0  0
    1.8989   14.6298   -2.5782 H   0  0  0  0  0  0  0  0  0  0  0  0
    0.1465   15.0073   -2.8120 H   0  0  0  0  0  0  0  0  0  0  0  0
   -1.3029   12.9422   -0.2787 H   0  0  0  0  0  0  0  0  0  0  0  0
   -1.5473   13.8080   -1.8334 H   0  0  0  0  0  0  0  0  0  0  0  0
   -0.9610   12.1100   -1.8334 H   0  0  0  0  0  0  0  0  0  0  0  0
  1  2  1  0
  2  3  1  0
  3  4  1  0
  4  5  1  0
  5  6  1  0
  6  7  1  0
  7  8  1  0
  7  9  1  0
  2 10  1  0
 10 11  1  0
 11 12  1  0
 12 13  1  0
 13 14  1  1
 13 15  1  0
 15 16  1  0
 16 17  1  0
 17 18  2  0
 18 19  1  0
 19 20  1  0
 20 21  1  0
 21 22  1  0
 22 23  1  0
 22 24  1  0
 24 25  1  0
 24 26  1  0
 19 27  1  0
 27 28  1  6
 27 29  1  0
 29 30  1  0
 30 31  1  0
 31 32  1  6
  7  5  1  0
 31 10  1  0
 31 13  1  0
 27 15  1  0
 24 18  1  0
  1 33  1  0
  1 34  1  0
  1 35  1  0
  2 36  1  1
  3 37  1  0
  3 38  1  0
  4 39  1  0
  4 40  1  0
  5 41  1  1
  8 42  1  0
  8 43  1  0
  8 44  1  0
  9 45  1  0
  9 46  1  0
  9 47  1  0
 10 48  1  6
 11 49  1  0
 11 50  1  0
 12 51  1  0
 12 52  1  0
 14 53  1  0
 14 54  1  0
 14 55  1  0
 15 56  1  6
 16 57  1  0
 16 58  1  0
 17 59  1  0
 19 60  1  1
 20 61  1  0
 20 62  1  0
 21 63  1  0
 21 64  1  0
 22 65  1  1
 23 66  1  0
 25 67  1  0
 25 68  1  0
 25 69  1  0
 26 70  1  0
 26 71  1  0
 26 72  1  0
 28 73  1  0
 28 74  1  0
 28 75  1  0
 29 76  1  0
 29 77  1  0
 30 78  1  0
 30 79  1  0
 32 80  1  0
 32 81  1  0
 32 82  1  0
M  END
>  <meeko>  (17) 
{"is_sidechain": [false], "intermolecular_energy": 2.731, "internal_energy": -0.839}

$$$$
EPH_relaxed_0001_pdb2pqr_Repair_63_r2_0001_out
     RDKit          3D

 82 86  0  0  0  0  0  0  0  0999 V2000
   -2.4430    7.7630   -0.0350 C   0  0  0  0  0  0  0  0  0  0  0  0
   -3.0880    9.1510   -0.0530 C   0  0  2  0  0  0  0  0  0  0  0  0
   -4.5740    9.0960   -0.4630 C   0  0  0  0  0  0  0  0  0  0  0  0
   -5.1520    7.6790   -0.4900 C   0  0  0  0  0  0  0  0  0  0  0  0
   -5.8970    7.4090   -1.7620 C   0  0  2  0  0  0  0  0  0  0  0  0
   -6.8110    8.4430   -2.1520 O   0  0  0  0  0  0  0  0  0  0  0  0
   -7.3950    7.1720   -1.8210 C   0  0  0  0  0  0  0  0  0  0  0  0
   -8.2370    7.1940   -0.5840 C   0  0  0  0  0  0  0  0  0  0  0  0
   -7.9580    6.4420   -3.0000 C   0  0  0  0  0  0  0  0  0  0  0  0
   -2.3210   10.0690   -0.9970 C   0  0  1  0  0  0  0  0  0  0  0  0
   -2.9680   11.4740   -1.1220 C   0  0  0  0  0  0  0  0  0  0  0  0
   -1.8070   12.4880   -1.2880 C   0  0  0  0  0  0  0  0  0  0  0  0
   -0.5660   11.6150   -1.5850 C   0  0  1  0  0  0  0  0  0  0  0  0
   -0.6620   11.2850   -3.1080 C   0  0  0  0  0  0  0  0  0  0  0  0
    0.8210   12.2360   -1.2160 C   0  0  2  0  0  0  0  0  0  0  0  0
    1.1840   13.5220   -1.9800 C   0  0  0  0  0  0  0  0  0  0  0  0
    1.9310   13.3160   -3.2560 C   0  0  0  0  0  0  0  0  0  0  0  0
    2.5440   12.1770   -3.6280 C   0  0  0  0  0  0  0  0  0  0  0  0
    2.6060   10.9700   -2.6830 C   0  0  1  0  0  0  0  0  0  0  0  0
    4.0500   10.4040   -2.6600 C   0  0  0  0  0  0  0  0  0  0  0  0
    4.5730   10.0790   -4.0560 C   0  0  0  0  0  0  0  0  0  0  0  0
    4.5500   11.3170   -4.9490 C   0  0  2  0  0  0  0  0  0  0  0  0
    5.4990   12.2640   -4.4480 O   0  0  0  0  0  0  0  0  0  0  0  0
    3.1480   11.9800   -5.0410 C   0  0  0  0  0  0  0  0  0  0  0  0
    2.1940   11.0710   -5.8550 C   0  0  0  0  0  0  0  0  0  0  0  0
    3.2940   13.2950   -5.8540 C   0  0  0  0  0  0  0  0  0  0  0  0
    2.0180   11.2010   -1.2250 C   0  0  1  0  0  0  0  0  0  0  0  0
    3.1210   11.7890   -0.2930 C   0  0  0  0  0  0  0  0  0  0  0  0
    1.6110    9.8110   -0.6080 C   0  0  0  0  0  0  0  0  0  0  0  0
    0.1870    9.3070   -0.9100 C   0  0  0  0  0  0  0  0  0  0  0  0
   -0.8510   10.3980   -0.6320 C   0  0  2  0  0  0  0  0  0  0  0  0
   -0.7930   10.7350    0.8970 C   0  0  0  0  0  0  0  0  0  0  0  0
   -2.2936    7.4416    1.0063 H   0  0  0  0  0  0  0  0  0  0  0  0
   -3.1004    7.0465   -0.5492 H   0  0  0  0  0  0  0  0  0  0  0  0
   -1.4714    7.8035   -0.5492 H   0  0  0  0  0  0  0  0  0  0  0  0
   -3.0427    9.5497    0.9712 H   0  0  0  0  0  0  0  0  0  0  0  0
   -5.1547    9.6945    0.2544 H   0  0  0  0  0  0  0  0  0  0  0  0
   -4.6398    9.4900   -1.4879 H   0  0  0  0  0  0  0  0  0  0  0  0
   -4.3280    6.9560   -0.3990 H   0  0  0  0  0  0  0  0  0  0  0  0
   -5.8573    7.5800    0.3483 H   0  0  0  0  0  0  0  0  0  0  0  0
   -5.0444    6.8455   -2.1689 H   0  0  0  0  0  0  0  0  0  0  0  0
   -7.5864    7.1770    0.3028 H   0  0  0  0  0  0  0  0  0  0  0  0
   -8.8483    8.1084   -0.5728 H   0  0  0  0  0  0  0  0  0  0  0  0
   -8.8952    6.3127   -0.5728 H   0  0  0  0  0  0  0  0  0  0  0  0
   -8.5949    5.6162   -2.6500 H   0  0  0  0  0  0  0  0  0  0  0  0
   -8.5577    7.1351   -3.6083 H   0  0  0  0  0  0  0  0  0  0  0  0
   -7.1353    6.0381   -3.6083 H   0  0  0  0  0  0  0  0  0  0  0  0
   -2.3543    9.4600   -1.9124 H   0  0  0  0  0  0  0  0  0  0  0  0
   -3.6302   11.5094   -1.9996 H   0  0  0  0  0  0  0  0  0  0  0  0
   -3.5745   11.7098   -0.2351 H   0  0  0  0  0  0  0  0  0  0  0  0
   -2.0077   13.1747   -2.1236 H   0  0  0  0  0  0  0  0  0  0  0  0
   -1.6711   13.1162   -0.3953 H   0  0  0  0  0  0  0  0  0  0  0  0
   -0.9671   10.2361   -3.2374 H   0  0  0  0  0  0  0  0  0  0  0  0
   -1.4056   11.9441   -3.5798 H   0  0  0  0  0  0  0  0  0  0  0  0
    0.3191   11.4423   -3.5798 H   0  0  0  0  0  0  0  0  0  0  0  0
    0.6717   12.5417   -0.1699 H   0  0  0  0  0  0  0  0  0  0  0  0
    0.2498   14.0530   -2.2149 H   0  0  0  0  0  0  0  0  0  0  0  0
    1.8583   14.0879   -1.3204 H   0  0  0  0  0  0  0  0  0  0  0  0
    1.9850   14.1670   -3.9509 H   0  0  0  0  0  0  0  0  0  0  0  0
    1.9181   10.2204   -3.1012 H   0  0  0  0  0  0  0  0  0  0  0  0
    4.7140   11.1503   -2.1995 H   0  0  0  0  0  0  0  0  0  0  0  0
    4.0325    9.4674   -2.0834 H   0  0  0  0  0  0  0  0  0  0  0  0
    5.6068    9.7115   -3.9766 H   0  0  0  0  0  0  0  0  0  0  0  0
    3.9251    9.3110   -4.5037 H   0  0  0  0  0  0  0  0  0  0  0  0
    4.8109   10.9942   -5.9677 H   0  0  0  0  0  0  0  0  0  0  0  0
    6.2810   11.7680   -4.1510 H   0  0  0  0  0  0  0  0  0  0  0  0
    1.5736   10.4798   -5.1654 H   0  0  0  0  0  0  0  0  0  0  0  0
    1.5459   11.6940   -6.4889 H   0  0  0  0  0  0  0  0  0  0  0  0
    2.7850   10.3936   -6.4889 H   0  0  0  0  0  0  0  0  0  0  0  0
    3.3884   14.1451   -5.1624 H   0  0  0  0  0  0  0  0  0  0  0  0
    4.1912   13.2366   -6.4878 H   0  0  0  0  0  0  0  0  0  0  0  0
    2.4059   13.4348   -6.4878 H   0  0  0  0  0  0  0  0  0  0  0  0
    2.8333   11.6356    0.7576 H   0  0  0  0  0  0  0  0  0  0  0  0
    4.0764   11.2805   -0.4895 H   0  0  0  0  0  0  0  0  0  0  0  0
    3.2314   12.8657   -0.4895 H   0  0  0  0  0  0  0  0  0  0  0  0
    2.3178    9.0586   -0.9879 H   0  0  0  0  0  0  0  0  0  0  0  0
    1.6382    9.9607    0.4814 H   0  0  0  0  0  0  0  0  0  0  0  0
    0.1260    9.0136   -1.9684 H   0  0  0  0  0  0  0  0  0  0  0  0
   -0.0259    8.4463   -0.2590 H   0  0  0  0  0  0  0  0  0  0  0  0
   -0.9511    9.8164    1.4812 H   0  0  0  0  0  0  0  0  0  0  0  0
    0.1915   11.1602    1.1417 H   0  0  0  0  0  0  0  0  0  0  0  0
   -1.5787   11.4649    1.1417 H   0  0  0  0  0  0  0  0  0  0  0  0
  1  2  1  0
  2  3  1  0
  3  4  1  0
  4  5  1  0
  5  6  1  0
  6  7  1  0
  7  8  1  0
  7  9  1  0
  2 10  1  0
 10 11  1  0
 11 12  1  0
 12 13  1  0
 13 14  1  6
 13 15  1  0
 15 16  1  0
 16 17  1  0
 17 18  2  0
 18 19  1  0
 19 20  1  0
 20 21  1  0
 21 22  1  0
 22 23  1  0
 22 24  1  0
 24 25  1  0
 24 26  1  0
 19 27  1  0
 27 28  1  1
 27 29  1  0
 29 30  1  0
 30 31  1  0
 31 32  1  1
  7  5  1  0
 31 10  1  0
 31 13  1  0
 27 15  1  0
 24 18  1  0
  1 33  1  0
  1 34  1  0
  1 35  1  0
  2 36  1  1
  3 37  1  0
  3 38  1  0
  4 39  1  0
  4 40  1  0
  5 41  1  6
  8 42  1  0
  8 43  1  0
  8 44  1  0
  9 45  1  0
  9 46  1  0
  9 47  1  0
 10 48  1  6
 11 49  1  0
 11 50  1  0
 12 51  1  0
 12 52  1  0
 14 53  1  0
 14 54  1  0
 14 55  1  0
 15 56  1  1
 16 57  1  0
 16 58  1  0
 17 59  1  0
 19 60  1  6
 20 61  1  0
 20 62  1  0
 21 63  1  0
 21 64  1  0
 22 65  1  6
 23 66  1  0
 25 67  1  0
 25 68  1  0
 25 69  1  0
 26 70  1  0
 26 71  1  0
 26 72  1  0
 28 73  1  0
 28 74  1  0
 28 75  1  0
 29 76  1  0
 29 77  1  0
 30 78  1  0
 30 79  1  0
 32 80  1  0
 32 81  1  0
 32 82  1  0
M  END
>  <meeko>  (18) 
{"is_sidechain": [false], "intermolecular_energy": 2.731, "internal_energy": -0.839}

$$$$
