EPH_relaxed_0001_pdb2pqr_Repair_364_r2_0001_out
     RDKit          3D

 82 86  0  0  0  0  0  0  0  0999 V2000
   -1.5460    8.5750   -1.7830 C   0  0  0  0  0  0  0  0  0  0  0  0
   -1.9440    9.1610   -0.4250 C   0  0  2  0  0  0  0  0  0  0  0  0
   -3.4320    9.5610   -0.3790 C   0  0  0  0  0  0  0  0  0  0  0  0
   -4.3920    8.3690   -0.4260 C   0  0  0  0  0  0  0  0  0  0  0  0
   -4.7160    7.9740   -1.8350 C   0  0  2  0  0  0  0  0  0  0  0  0
   -6.1100    8.0280   -2.1660 O   0  0  0  0  0  0  0  0  0  0  0  0
   -5.5020    6.7270   -2.1940 C   0  0  0  0  0  0  0  0  0  0  0  0
   -6.0110    5.7940   -1.1400 C   0  0  0  0  0  0  0  0  0  0  0  0
   -5.3540    6.1600   -3.5720 C   0  0  0  0  0  0  0  0  0  0  0  0
   -1.0700   10.3670   -0.1040 C   0  0  1  0  0  0  0  0  0  0  0  0
    0.0270   10.0480    0.9470 C   0  0  0  0  0  0  0  0  0  0  0  0
    1.2730   10.8870    0.5630 C   0  0  0  0  0  0  0  0  0  0  0  0
    0.7530   11.9000   -0.4830 C   0  0  1  0  0  0  0  0  0  0  0  0
    0.0890   13.0380    0.3550 C   0  0  0  0  0  0  0  0  0  0  0  0
    1.8120   12.4650   -1.4850 C   0  0  2  0  0  0  0  0  0  0  0  0
    2.9520   13.2740   -0.8410 C   0  0  0  0  0  0  0  0  0  0  0  0
    2.7010   14.7410   -0.7170 C   0  0  0  0  0  0  0  0  0  0  0  0
    1.7350   15.4260   -1.3570 C   0  0  0  0  0  0  0  0  0  0  0  0
    0.8310   14.7370   -2.3880 C   0  0  1  0  0  0  0  0  0  0  0  0
    0.7250   15.6220   -3.6570 C   0  0  0  0  0  0  0  0  0  0  0  0
    0.2720   17.0450   -3.3420 C   0  0  0  0  0  0  0  0  0  0  0  0
    1.2280   17.7160   -2.3600 C   0  0  2  0  0  0  0  0  0  0  0  0
    2.4940   17.9020   -3.0020 O   0  0  0  0  0  0  0  0  0  0  0  0
    1.4220   16.9100   -1.0450 C   0  0  0  0  0  0  0  0  0  0  0  0
    0.1230   16.9670   -0.2040 C   0  0  0  0  0  0  0  0  0  0  0  0
    2.5150   17.6240   -0.2040 C   0  0  0  0  0  0  0  0  0  0  0  0
    1.1910   13.2260   -2.7250 C   0  0  1  0  0  0  0  0  0  0  0  0
    2.2590   13.1740   -3.8600 C   0  0  0  0  0  0  0  0  0  0  0  0
   -0.0910   12.5060   -3.2890 C   0  0  0  0  0  0  0  0  0  0  0  0
   -1.0380   11.8650   -2.2560 C   0  0  0  0  0  0  0  0  0  0  0  0
   -0.2600   10.9890   -1.2690 C   0  0  2  0  0  0  0  0  0  0  0  0
    0.4010    9.8230   -2.0800 C   0  0  0  0  0  0  0  0  0  0  0  0
   -0.9341    7.6741   -1.6284 H   0  0  0  0  0  0  0  0  0  0  0  0
   -2.4520    8.3104   -2.3479 H   0  0  0  0  0  0  0  0  0  0  0  0
   -0.9660    9.3197   -2.3479 H   0  0  0  0  0  0  0  0  0  0  0  0
   -1.7896    8.3779    0.3319 H   0  0  0  0  0  0  0  0  0  0  0  0
   -3.6135   10.1165    0.5529 H   0  0  0  0  0  0  0  0  0  0  0  0
   -3.6294   10.1680   -1.2749 H   0  0  0  0  0  0  0  0  0  0  0  0
   -3.9248    7.5145    0.0854 H   0  0  0  0  0  0  0  0  0  0  0  0
   -5.3279    8.6624    0.0719 H   0  0  0  0  0  0  0  0  0  0  0  0
   -3.7529    8.3676   -2.1922 H   0  0  0  0  0  0  0  0  0  0  0  0
   -5.7859    6.2065   -0.1454 H   0  0  0  0  0  0  0  0  0  0  0  0
   -7.0990    5.6750   -1.2500 H   0  0  0  0  0  0  0  0  0  0  0  0
   -5.5221    4.8148   -1.2500 H   0  0  0  0  0  0  0  0  0  0  0  0
   -5.0767    5.0977   -3.5036 H   0  0  0  0  0  0  0  0  0  0  0  0
   -6.3073    6.2560   -4.1124 H   0  0  0  0  0  0  0  0  0  0  0  0
   -4.5693    6.7097   -4.1124 H   0  0  0  0  0  0  0  0  0  0  0  0
   -1.8451   11.0708    0.2335 H   0  0  0  0  0  0  0  0  0  0  0  0
   -0.3206   10.3250    1.9532 H   0  0  0  0  0  0  0  0  0  0  0  0
    0.2627    8.9736    0.9578 H   0  0  0  0  0  0  0  0  0  0  0  0
    1.6757   11.4096    1.4432 H   0  0  0  0  0  0  0  0  0  0  0  0
    2.0907   10.2645    0.1707 H   0  0  0  0  0  0  0  0  0  0  0  0
    0.2136   12.8245    1.4269 H   0  0  0  0  0  0  0  0  0  0  0  0
    0.5686   13.9982    0.1142 H   0  0  0  0  0  0  0  0  0  0  0  0
   -0.9829   13.0930    0.1142 H   0  0  0  0  0  0  0  0  0  0  0  0
    2.2792   11.5491   -1.8759 H   0  0  0  0  0  0  0  0  0  0  0  0
    3.1261   12.8723    0.1681 H   0  0  0  0  0  0  0  0  0  0  0  0
    3.8172   13.1686   -1.5120 H   0  0  0  0  0  0  0  0  0  0  0  0
    3.3614   15.3098   -0.0459 H   0  0  0  0  0  0  0  0  0  0  0  0
   -0.1573   14.6457   -1.9138 H   0  0  0  0  0  0  0  0  0  0  0  0
    1.7122   15.6651   -4.1403 H   0  0  0  0  0  0  0  0  0  0  0  0
   -0.0297   15.1698   -4.3173 H   0  0  0  0  0  0  0  0  0  0  0  0
    0.2446   17.6288   -4.2739 H   0  0  0  0  0  0  0  0  0  0  0  0
   -0.7280   17.0026   -2.8856 H   0  0  0  0  0  0  0  0  0  0  0  0
    0.7826   18.6802   -2.0736 H   0  0  0  0  0  0  0  0  0  0  0  0
    2.4480   17.4710   -3.8720 H   0  0  0  0  0  0  0  0  0  0  0  0
    0.3781   16.9558    0.8659 H   0  0  0  0  0  0  0  0  0  0  0  0
   -0.4266   17.8901   -0.4403 H   0  0  0  0  0  0  0  0  0  0  0  0
   -0.5053   16.0956   -0.4403 H   0  0  0  0  0  0  0  0  0  0  0  0
    2.3029   17.4854    0.8664 H   0  0  0  0  0  0  0  0  0  0  0  0
    3.4994   17.1942   -0.4414 H   0  0  0  0  0  0  0  0  0  0  0  0
    2.5170   18.6981   -0.4414 H   0  0  0  0  0  0  0  0  0  0  0  0
    3.2641   13.1251   -3.4157 H   0  0  0  0  0  0  0  0  0  0  0  0
    2.0895   12.2830   -4.4825 H   0  0  0  0  0  0  0  0  0  0  0  0
    2.1768   14.0772   -4.4825 H   0  0  0  0  0  0  0  0  0  0  0  0
   -0.6700   13.2513   -3.8540 H   0  0  0  0  0  0  0  0  0  0  0  0
    0.2904   11.6672   -3.8898 H   0  0  0  0  0  0  0  0  0  0  0  0
   -1.5560   12.6605   -1.7003 H   0  0  0  0  0  0  0  0  0  0  0  0
   -1.7634   11.2333   -2.7895 H   0  0  0  0  0  0  0  0  0  0  0  0
    0.8205    9.0830   -1.3825 H   0  0  0  0  0  0  0  0  0  0  0  0
   -0.3580    9.3407   -2.7135 H   0  0  0  0  0  0  0  0  0  0  0  0
    1.2047   10.2266   -2.7135 H   0  0  0  0  0  0  0  0  0  0  0  0
  1  2  1  0
  2  3  1  0
  3  4  1  0
  4  5  1  0
  5  6  1  0
  6  7  1  0
  7  8  1  0
  7  9  1  0
  2 10  1  0
 10 11  1  0
 11 12  1  0
 12 13  1  0
 13 14  1  1
 13 15  1  0
 15 16  1  0
 16 17  1  0
 17 18  2  0
 18 19  1  0
 19 20  1  0
 20 21  1  0
 21 22  1  0
 22 23  1  0
 22 24  1  0
 24 25  1  0
 24 26  1  0
 19 27  1  0
 27 28  1  6
 27 29  1  0
 29 30  1  0
 30 31  1  0
 31 32  1  6
  7  5  1  0
 31 10  1  0
 31 13  1  0
 27 15  1  0
 24 18  1  0
  1 33  1  0
  1 34  1  0
  1 35  1  0
  2 36  1  1
  3 37  1  0
  3 38  1  0
  4 39  1  0
  4 40  1  0
  5 41  1  6
  8 42  1  0
  8 43  1  0
  8 44  1  0
  9 45  1  0
  9 46  1  0
  9 47  1  0
 10 48  1  1
 11 49  1  0
 11 50  1  0
 12 51  1  0
 12 52  1  0
 14 53  1  0
 14 54  1  0
 14 55  1  0
 15 56  1  6
 16 57  1  0
 16 58  1  0
 17 59  1  0
 19 60  1  1
 20 61  1  0
 20 62  1  0
 21 63  1  0
 21 64  1  0
 22 65  1  1
 23 66  1  0
 25 67  1  0
 25 68  1  0
 25 69  1  0
 26 70  1  0
 26 71  1  0
 26 72  1  0
 28 73  1  0
 28 74  1  0
 28 75  1  0
 29 76  1  0
 29 77  1  0
 30 78  1  0
 30 79  1  0
 32 80  1  0
 32 81  1  0
 32 82  1  0
M  END
>  <meeko>  (1) 
{"is_sidechain": [false], "intermolecular_energy": 2.731, "internal_energy": -0.839}

$$$$
EPH_relaxed_0001_pdb2pqr_Repair_364_r2_0001_out
     RDKit          3D

 82 86  0  0  0  0  0  0  0  0999 V2000
    4.2320   17.5720   -0.6770 C   0  0  0  0  0  0  0  0  0  0  0  0
    2.8720   18.1450   -0.2660 C   0  0  2  0  0  0  0  0  0  0  0  0
    2.9290   18.8500    1.1040 C   0  0  0  0  0  0  0  0  0  0  0  0
    4.2330   18.6060    1.8690 C   0  0  0  0  0  0  0  0  0  0  0  0
    4.2000   19.2260    3.2330 C   0  0  2  0  0  0  0  0  0  0  0  0
    5.2290   20.1940    3.4750 O   0  0  0  0  0  0  0  0  0  0  0  0
    5.2770   19.0040    4.2790 C   0  0  0  0  0  0  0  0  0  0  0  0
    6.4630   18.1330    4.0050 C   0  0  0  0  0  0  0  0  0  0  0  0
    4.9350   19.2340    5.7180 C   0  0  0  0  0  0  0  0  0  0  0  0
    1.8290   17.0340   -0.2370 C   0  0  1  0  0  0  0  0  0  0  0  0
    0.3960   17.5530   -0.5300 C   0  0  0  0  0  0  0  0  0  0  0  0
   -0.3320   16.4350   -1.3200 C   0  0  0  0  0  0  0  0  0  0  0  0
    0.5790   15.1940   -1.1680 C   0  0  1  0  0  0  0  0  0  0  0  0
    0.2260   14.6070    0.2350 C   0  0  0  0  0  0  0  0  0  0  0  0
    0.4660   14.1130   -2.2910 C   0  0  2  0  0  0  0  0  0  0  0  0
   -0.9140   13.4440   -2.4170 C   0  0  0  0  0  0  0  0  0  0  0  0
   -1.1010   12.2090   -1.5990 C   0  0  0  0  0  0  0  0  0  0  0  0
   -0.1160   11.4990   -1.0180 C   0  0  0  0  0  0  0  0  0  0  0  0
    1.3570   11.8670   -1.2400 C   0  0  1  0  0  0  0  0  0  0  0  0
    2.1690   10.5850   -1.5630 C   0  0  0  0  0  0  0  0  0  0  0  0
    1.9920    9.4990   -0.5070 C   0  0  0  0  0  0  0  0  0  0  0  0
    0.5210    9.1190   -0.3570 C   0  0  2  0  0  0  0  0  0  0  0  0
    0.0830    8.4870   -1.5640 O   0  0  0  0  0  0  0  0  0  0  0  0
   -0.3960   10.3320   -0.0390 C   0  0  0  0  0  0  0  0  0  0  0  0
   -0.1210   10.8300    1.4010 C   0  0  0  0  0  0  0  0  0  0  0  0
   -1.8670    9.8350   -0.0530 C   0  0  0  0  0  0  0  0  0  0  0  0
    1.6300   13.0400   -2.2770 C   0  0  1  0  0  0  0  0  0  0  0  0
    1.7190   12.4620   -3.7230 C   0  0  0  0  0  0  0  0  0  0  0  0
    3.0330   13.6840   -1.9690 C   0  0  0  0  0  0  0  0  0  0  0  0
    3.0610   14.8280   -0.9380 C   0  0  0  0  0  0  0  0  0  0  0  0
    1.9920   15.8780   -1.2550 C   0  0  2  0  0  0  0  0  0  0  0  0
    2.3330   16.5020   -2.6510 C   0  0  0  0  0  0  0  0  0  0  0  0
    4.8139   17.3268    0.2237 H   0  0  0  0  0  0  0  0  0  0  0  0
    4.0806   16.6612   -1.2749 H   0  0  0  0  0  0  0  0  0  0  0  0
    4.7780   18.3166   -1.2749 H   0  0  0  0  0  0  0  0  0  0  0  0
    2.5906   18.9007   -1.0142 H   0  0  0  0  0  0  0  0  0  0  0  0
    2.8188   19.9324    0.9422 H   0  0  0  0  0  0  0  0  0  0  0  0
    2.1154   18.4315    1.7146 H   0  0  0  0  0  0  0  0  0  0  0  0
    4.3872   17.5219    1.9739 H   0  0  0  0  0  0  0  0  0  0  0  0
    5.0546   19.0682    1.3021 H   0  0  0  0  0  0  0  0  0  0  0  0
    3.1042   19.1388    3.2724 H   0  0  0  0  0  0  0  0  0  0  0  0
    6.9066   17.8073    4.9574 H   0  0  0  0  0  0  0  0  0  0  0  0
    6.1454   17.2519    3.4281 H   0  0  0  0  0  0  0  0  0  0  0  0
    7.2087   18.6997    3.4281 H   0  0  0  0  0  0  0  0  0  0  0  0
    5.6785   18.7340    6.3560 H   0  0  0  0  0  0  0  0  0  0  0  0
    4.9388   20.3138    5.9277 H   0  0  0  0  0  0  0  0  0  0  0  0
    3.9364   18.8232    5.9277 H   0  0  0  0  0  0  0  0  0  0  0  0
    1.9871   16.6594    0.7851 H   0  0  0  0  0  0  0  0  0  0  0  0
   -0.1331   17.7568    0.4126 H   0  0  0  0  0  0  0  0  0  0  0  0
    0.4253   18.4892   -1.1068 H   0  0  0  0  0  0  0  0  0  0  0  0
   -1.3266   16.2415   -0.8919 H   0  0  0  0  0  0  0  0  0  0  0  0
   -0.4950   16.7066   -2.3734 H   0  0  0  0  0  0  0  0  0  0  0  0
    0.6234   15.2678    1.0195 H   0  0  0  0  0  0  0  0  0  0  0  0
   -0.8667   14.5327    0.3370 H   0  0  0  0  0  0  0  0  0  0  0  0
    0.6726   13.6069    0.3370 H   0  0  0  0  0  0  0  0  0  0  0  0
    0.5926   14.7097   -3.2064 H   0  0  0  0  0  0  0  0  0  0  0  0
   -1.6756   14.1750   -2.1079 H   0  0  0  0  0  0  0  0  0  0  0  0
   -1.0053   13.1301   -3.4673 H   0  0  0  0  0  0  0  0  0  0  0  0
   -2.1309   11.8488   -1.4593 H   0  0  0  0  0  0  0  0  0  0  0  0
    1.7076   12.3013   -0.2921 H   0  0  0  0  0  0  0  0  0  0  0  0
    1.8341   10.1908   -2.5338 H   0  0  0  0  0  0  0  0  0  0  0  0
    3.2337   10.8605   -1.5834 H   0  0  0  0  0  0  0  0  0  0  0  0
    2.5651    8.6090   -0.8062 H   0  0  0  0  0  0  0  0  0  0  0  0
    2.3554    9.8840    0.4572 H   0  0  0  0  0  0  0  0  0  0  0  0
    0.4428    8.4346    0.5006 H   0  0  0  0  0  0  0  0  0  0  0  0
   -0.8470    8.2300   -1.4400 H   0  0  0  0  0  0  0  0  0  0  0  0
   -0.5221   10.1036    2.1231 H   0  0  0  0  0  0  0  0  0  0  0  0
    0.9635   10.9360    1.5515 H   0  0  0  0  0  0  0  0  0  0  0  0
   -0.6090   11.8043    1.5515 H   0  0  0  0  0  0  0  0  0  0  0  0
   -2.2232    9.7146    0.9807 H   0  0  0  0  0  0  0  0  0  0  0  0
   -2.4974   10.5700   -0.5748 H   0  0  0  0  0  0  0  0  0  0  0  0
   -1.9224    8.8682   -0.5748 H   0  0  0  0  0  0  0  0  0  0  0  0
    1.8862   11.3759   -3.6741 H   0  0  0  0  0  0  0  0  0  0  0  0
    0.7791   12.6646   -4.2573 H   0  0  0  0  0  0  0  0  0  0  0  0
    2.5544   12.9379   -4.2573 H   0  0  0  0  0  0  0  0  0  0  0  0
    3.6915   12.8850   -1.5975 H   0  0  0  0  0  0  0  0  0  0  0  0
    3.3534   14.1424   -2.9162 H   0  0  0  0  0  0  0  0  0  0  0  0
    2.8731   14.4143    0.0638 H   0  0  0  0  0  0  0  0  0  0  0  0
    4.0488   15.3105   -0.9763 H   0  0  0  0  0  0  0  0  0  0  0  0
    2.8560   17.4590   -2.5070 H   0  0  0  0  0  0  0  0  0  0  0  0
    2.9794   15.8119   -3.2131 H   0  0  0  0  0  0  0  0  0  0  0  0
    1.4031   16.6733   -3.2131 H   0  0  0  0  0  0  0  0  0  0  0  0
  1  2  1  0
  2  3  1  0
  3  4  1  0
  4  5  1  0
  5  6  1  0
  6  7  1  0
  7  8  1  0
  7  9  1  0
  2 10  1  0
 10 11  1  0
 11 12  1  0
 12 13  1  0
 13 14  1  1
 13 15  1  0
 15 16  1  0
 16 17  1  0
 17 18  2  0
 18 19  1  0
 19 20  1  0
 20 21  1  0
 21 22  1  0
 22 23  1  0
 22 24  1  0
 24 25  1  0
 24 26  1  0
 19 27  1  0
 27 28  1  6
 27 29  1  0
 29 30  1  0
 30 31  1  0
 31 32  1  6
  7  5  1  0
 31 10  1  0
 31 13  1  0
 27 15  1  0
 24 18  1  0
  1 33  1  0
  1 34  1  0
  1 35  1  0
  2 36  1  6
  3 37  1  0
  3 38  1  0
  4 39  1  0
  4 40  1  0
  5 41  1  1
  8 42  1  0
  8 43  1  0
  8 44  1  0
  9 45  1  0
  9 46  1  0
  9 47  1  0
 10 48  1  1
 11 49  1  0
 11 50  1  0
 12 51  1  0
 12 52  1  0
 14 53  1  0
 14 54  1  0
 14 55  1  0
 15 56  1  6
 16 57  1  0
 16 58  1  0
 17 59  1  0
 19 60  1  1
 20 61  1  0
 20 62  1  0
 21 63  1  0
 21 64  1  0
 22 65  1  1
 23 66  1  0
 25 67  1  0
 25 68  1  0
 25 69  1  0
 26 70  1  0
 26 71  1  0
 26 72  1  0
 28 73  1  0
 28 74  1  0
 28 75  1  0
 29 76  1  0
 29 77  1  0
 30 78  1  0
 30 79  1  0
 32 80  1  0
 32 81  1  0
 32 82  1  0
M  END
>  <meeko>  (2) 
{"is_sidechain": [false], "intermolecular_energy": 2.731, "internal_energy": -0.839}

$$$$
EPH_relaxed_0001_pdb2pqr_Repair_364_r2_0001_out
     RDKit          3D

 82 86  0  0  0  0  0  0  0  0999 V2000
    0.4140   18.4340   -0.0210 C   0  0  0  0  0  0  0  0  0  0  0  0
    1.5000   17.3770   -0.2380 C   0  0  2  0  0  0  0  0  0  0  0  0
    2.7150   17.9410   -1.0010 C   0  0  0  0  0  0  0  0  0  0  0  0
    3.9520   18.1480   -0.1220 C   0  0  0  0  0  0  0  0  0  0  0  0
    3.5820   18.6170    1.2520 C   0  0  2  0  0  0  0  0  0  0  0  0
    3.8280   20.0080    1.4960 O   0  0  0  0  0  0  0  0  0  0  0  0
    4.5980   19.0820    2.2790 C   0  0  0  0  0  0  0  0  0  0  0  0
    6.0630   19.1000    1.9740 C   0  0  0  0  0  0  0  0  0  0  0  0
    4.2180   19.0530    3.7260 C   0  0  0  0  0  0  0  0  0  0  0  0
    0.9210   16.1840   -0.9900 C   0  0  1  0  0  0  0  0  0  0  0  0
    0.7720   16.4520   -2.5110 C   0  0  0  0  0  0  0  0  0  0  0  0
    1.0570   15.1090   -3.2320 C   0  0  0  0  0  0  0  0  0  0  0  0
    1.0320   14.0490   -2.1060 C   0  0  1  0  0  0  0  0  0  0  0  0
   -0.4820   13.7470   -1.8720 C   0  0  0  0  0  0  0  0  0  0  0  0
    1.8470   12.7410   -2.3690 C   0  0  2  0  0  0  0  0  0  0  0  0
    1.3650   11.9020   -3.5650 C   0  0  0  0  0  0  0  0  0  0  0  0
    0.3410   10.8640   -3.2450 C   0  0  0  0  0  0  0  0  0  0  0  0
    0.0360   10.4210   -2.0110 C   0  0  0  0  0  0  0  0  0  0  0  0
    0.8210   10.9040   -0.7840 C   0  0  1  0  0  0  0  0  0  0  0  0
    1.1920    9.6890    0.1050 C   0  0  0  0  0  0  0  0  0  0  0  0
   -0.0240    8.8480    0.4840 C   0  0  0  0  0  0  0  0  0  0  0  0
   -0.7440    8.3380   -0.7620 C   0  0  2  0  0  0  0  0  0  0  0  0
    0.1080    7.4090   -1.4390 O   0  0  0  0  0  0  0  0  0  0  0  0
   -1.1590    9.4740   -1.7380 C   0  0  0  0  0  0  0  0  0  0  0  0
   -2.3060   10.3050   -1.1130 C   0  0  0  0  0  0  0  0  0  0  0  0
   -1.7470    8.8150   -3.0150 C   0  0  0  0  0  0  0  0  0  0  0  0
    2.0670   11.8440   -1.0840 C   0  0  1  0  0  0  0  0  0  0  0  0
    3.3330   10.9770   -1.3580 C   0  0  0  0  0  0  0  0  0  0  0  0
    2.3840   12.7020    0.1970 C   0  0  0  0  0  0  0  0  0  0  0  0
    1.6350   14.0400    0.3410 C   0  0  0  0  0  0  0  0  0  0  0  0
    1.7240   14.8600   -0.9500 C   0  0  2  0  0  0  0  0  0  0  0  0
    3.2340   15.1970   -1.1990 C   0  0  0  0  0  0  0  0  0  0  0  0
    0.2592   18.5846    1.0576 H   0  0  0  0  0  0  0  0  0  0  0  0
    0.7277   19.3820   -0.4823 H   0  0  0  0  0  0  0  0  0  0  0  0
   -0.5252   18.0948   -0.4823 H   0  0  0  0  0  0  0  0  0  0  0  0
    1.8526   17.0564    0.7534 H   0  0  0  0  0  0  0  0  0  0  0  0
    2.9752   17.2392   -1.8070 H   0  0  0  0  0  0  0  0  0  0  0  0
    2.4234   18.9302   -1.3837 H   0  0  0  0  0  0  0  0  0  0  0  0
    4.4945   17.1946   -0.0394 H   0  0  0  0  0  0  0  0  0  0  0  0
    4.5808   18.9195   -0.5904 H   0  0  0  0  0  0  0  0  0  0  0  0
    2.7595   17.8885    1.3050 H   0  0  0  0  0  0  0  0  0  0  0  0
    6.6333   19.1070    2.9146 H   0  0  0  0  0  0  0  0  0  0  0  0
    6.3273   18.2050    1.3916 H   0  0  0  0  0  0  0  0  0  0  0  0
    6.3052   20.0012    1.3916 H   0  0  0  0  0  0  0  0  0  0  0  0
    5.1249   19.1222    4.3447 H   0  0  0  0  0  0  0  0  0  0  0  0
    3.5565   19.9033    3.9485 H   0  0  0  0  0  0  0  0  0  0  0  0
    3.6932   18.1122    3.9485 H   0  0  0  0  0  0  0  0  0  0  0  0
   -0.0271   16.0652   -0.4450 H   0  0  0  0  0  0  0  0  0  0  0  0
   -0.2487   16.7942   -2.7371 H   0  0  0  0  0  0  0  0  0  0  0  0
    1.4692   17.2349   -2.8442 H   0  0  0  0  0  0  0  0  0  0  0  0
    0.2799   14.8980   -3.9814 H   0  0  0  0  0  0  0  0  0  0  0  0
    2.0148   15.1208   -3.7728 H   0  0  0  0  0  0  0  0  0  0  0  0
   -0.6851   13.7065   -0.7917 H   0  0  0  0  0  0  0  0  0  0  0  0
   -1.0894   14.5417   -2.3297 H   0  0  0  0  0  0  0  0  0  0  0  0
   -0.7380   12.7801   -2.3297 H   0  0  0  0  0  0  0  0  0  0  0  0
    2.8340   13.1320   -2.6568 H   0  0  0  0  0  0  0  0  0  0  0  0
    0.9330   12.5876   -4.3089 H   0  0  0  0  0  0  0  0  0  0  0  0
    2.2479   11.3561   -3.9290 H   0  0  0  0  0  0  0  0  0  0  0  0
   -0.2109   10.4240   -4.0887 H   0  0  0  0  0  0  0  0  0  0  0  0
    0.1439   11.5748   -0.2349 H   0  0  0  0  0  0  0  0  0  0  0  0
    1.9025    9.0540   -0.4444 H   0  0  0  0  0  0  0  0  0  0  0  0
    1.6320   10.0779    1.0351 H   0  0  0  0  0  0  0  0  0  0  0  0
    0.3061    7.9887    1.0862 H   0  0  0  0  0  0  0  0  0  0  0  0
   -0.7199    9.4761    1.0595 H   0  0  0  0  0  0  0  0  0  0  0  0
   -1.6747    7.8544   -0.4304 H   0  0  0  0  0  0  0  0  0  0  0  0
   -0.2280    6.5150   -1.2550 H   0  0  0  0  0  0  0  0  0  0  0  0
   -2.2386   10.2562   -0.0162 H   0  0  0  0  0  0  0  0  0  0  0  0
   -2.2202   11.3520   -1.4394 H   0  0  0  0  0  0  0  0  0  0  0  0
   -3.2741    9.8973   -1.4394 H   0  0  0  0  0  0  0  0  0  0  0  0
   -2.4537    8.0229   -2.7266 H   0  0  0  0  0  0  0  0  0  0  0  0
   -2.2721    9.5756   -3.6115 H   0  0  0  0  0  0  0  0  0  0  0  0
   -0.9318    8.3796   -3.6115 H   0  0  0  0  0  0  0  0  0  0  0  0
    3.7812   10.6700   -0.4015 H   0  0  0  0  0  0  0  0  0  0  0  0
    3.0481   10.0835   -1.9329 H   0  0  0  0  0  0  0  0  0  0  0  0
    4.0631   11.5656   -1.9329 H   0  0  0  0  0  0  0  0  0  0  0  0
    2.1406   12.0883    1.0769 H   0  0  0  0  0  0  0  0  0  0  0  0
    3.4454   12.9755    0.1041 H   0  0  0  0  0  0  0  0  0  0  0  0
    0.5775   13.8379    0.5668 H   0  0  0  0  0  0  0  0  0  0  0  0
    2.0993   14.6160    1.1550 H   0  0  0  0  0  0  0  0  0  0  0  0
    3.7481   15.3117   -0.2333 H   0  0  0  0  0  0  0  0  0  0  0  0
    3.7025   14.3813   -1.7692 H   0  0  0  0  0  0  0  0  0  0  0  0
    3.3113   16.1345   -1.7692 H   0  0  0  0  0  0  0  0  0  0  0  0
  1  2  1  0
  2  3  1  0
  3  4  1  0
  4  5  1  0
  5  6  1  0
  6  7  1  0
  7  8  1  0
  7  9  1  0
  2 10  1  0
 10 11  1  0
 11 12  1  0
 12 13  1  0
 13 14  1  1
 13 15  1  0
 15 16  1  0
 16 17  1  0
 17 18  2  0
 18 19  1  0
 19 20  1  0
 20 21  1  0
 21 22  1  0
 22 23  1  0
 22 24  1  0
 24 25  1  0
 24 26  1  0
 19 27  1  0
 27 28  1  6
 27 29  1  0
 29 30  1  0
 30 31  1  0
 31 32  1  6
  7  5  1  0
 31 10  1  0
 31 13  1  0
 27 15  1  0
 24 18  1  0
  1 33  1  0
  1 34  1  0
  1 35  1  0
  2 36  1  1
  3 37  1  0
  3 38  1  0
  4 39  1  0
  4 40  1  0
  5 41  1  1
  8 42  1  0
  8 43  1  0
  8 44  1  0
  9 45  1  0
  9 46  1  0
  9 47  1  0
 10 48  1  1
 11 49  1  0
 11 50  1  0
 12 51  1  0
 12 52  1  0
 14 53  1  0
 14 54  1  0
 14 55  1  0
 15 56  1  6
 16 57  1  0
 16 58  1  0
 17 59  1  0
 19 60  1  1
 20 61  1  0
 20 62  1  0
 21 63  1  0
 21 64  1  0
 22 65  1  1
 23 66  1  0
 25 67  1  0
 25 68  1  0
 25 69  1  0
 26 70  1  0
 26 71  1  0
 26 72  1  0
 28 73  1  0
 28 74  1  0
 28 75  1  0
 29 76  1  0
 29 77  1  0
 30 78  1  0
 30 79  1  0
 32 80  1  0
 32 81  1  0
 32 82  1  0
M  END
>  <meeko>  (3) 
{"is_sidechain": [false], "intermolecular_energy": 2.731, "internal_energy": -0.839}

$$$$
EPH_relaxed_0001_pdb2pqr_Repair_364_r2_0001_out
     RDKit          3D

 82 86  0  0  0  0  0  0  0  0999 V2000
    2.1830   18.0340   -2.5250 C   0  0  0  0  0  0  0  0  0  0  0  0
    0.6640   17.8930   -2.6590 C   0  0  2  0  0  0  0  0  0  0  0  0
   -0.0780   18.3860   -1.4020 C   0  0  0  0  0  0  0  0  0  0  0  0
    0.5850   17.9620   -0.0890 C   0  0  0  0  0  0  0  0  0  0  0  0
    1.1340   19.1390    0.6600 C   0  0  2  0  0  0  0  0  0  0  0  0
    2.0260   19.9680   -0.0970 O   0  0  0  0  0  0  0  0  0  0  0  0
    2.5980   19.2860    1.0310 C   0  0  0  0  0  0  0  0  0  0  0  0
    3.6050   18.2410    0.6640 C   0  0  0  0  0  0  0  0  0  0  0  0
    2.9620   20.1940    2.1640 C   0  0  0  0  0  0  0  0  0  0  0  0
    0.3010   16.4400   -2.9420 C   0  0  1  0  0  0  0  0  0  0  0  0
    0.3510   16.0950   -4.4550 C   0  0  0  0  0  0  0  0  0  0  0  0
    0.8480   14.6310   -4.5630 C   0  0  0  0  0  0  0  0  0  0  0  0
    0.7490   14.0770   -3.1230 C   0  0  1  0  0  0  0  0  0  0  0  0
   -0.7510   13.6880   -2.9440 C   0  0  0  0  0  0  0  0  0  0  0  0
    1.7010   12.8870   -2.7730 C   0  0  2  0  0  0  0  0  0  0  0  0
    1.4680   11.6040   -3.5910 C   0  0  0  0  0  0  0  0  0  0  0  0
    0.4980   10.6370   -2.9970 C   0  0  0  0  0  0  0  0  0  0  0  0
    0.0560   10.6530   -1.7250 C   0  0  0  0  0  0  0  0  0  0  0  0
    0.6130   11.6600   -0.7110 C   0  0  1  0  0  0  0  0  0  0  0  0
    0.9520   10.9270    0.6140 C   0  0  0  0  0  0  0  0  0  0  0  0
   -0.2310   10.1370    1.1650 C   0  0  0  0  0  0  0  0  0  0  0  0
   -0.7190    9.1060    0.1500 C   0  0  2  0  0  0  0  0  0  0  0  0
    0.2960    8.1130   -0.0230 O   0  0  0  0  0  0  0  0  0  0  0  0
   -1.0820    9.7270   -1.2280 C   0  0  0  0  0  0  0  0  0  0  0  0
   -2.3720   10.5730   -1.0940 C   0  0  0  0  0  0  0  0  0  0  0  0
   -1.4220    8.5660   -2.2000 C   0  0  0  0  0  0  0  0  0  0  0  0
    1.8070   12.5740   -1.2250 C   0  0  1  0  0  0  0  0  0  0  0  0
    3.1670   11.8440   -1.0110 C   0  0  0  0  0  0  0  0  0  0  0  0
    1.8640   13.8840   -0.3530 C   0  0  0  0  0  0  0  0  0  0  0  0
    0.9920   15.0660   -0.8180 C   0  0  0  0  0  0  0  0  0  0  0  0
    1.1980   15.3460   -2.3100 C   0  0  2  0  0  0  0  0  0  0  0  0
    2.6940   15.7630   -2.5170 C   0  0  0  0  0  0  0  0  0  0  0  0
    2.4563   18.0594   -1.4598 H   0  0  0  0  0  0  0  0  0  0  0  0
    2.6749   17.1777   -3.0095 H   0  0  0  0  0  0  0  0  0  0  0  0
    2.5089   18.9663   -3.0095 H   0  0  0  0  0  0  0  0  0  0  0  0
    0.3453   18.5269   -3.4996 H   0  0  0  0  0  0  0  0  0  0  0  0
   -0.1184   19.4849   -1.4314 H   0  0  0  0  0  0  0  0  0  0  0  0
   -1.0780   17.9281   -1.4192 H   0  0  0  0  0  0  0  0  0  0  0  0
   -0.1618   17.4557    0.5403 H   0  0  0  0  0  0  0  0  0  0  0  0
    1.4205   17.2878   -0.3287 H   0  0  0  0  0  0  0  0  0  0  0  0
    0.2108   19.2222    1.2522 H   0  0  0  0  0  0  0  0  0  0  0  0
    4.0281   17.8019    1.5795 H   0  0  0  0  0  0  0  0  0  0  0  0
    3.1167   17.4534    0.0714 H   0  0  0  0  0  0  0  0  0  0  0  0
    4.4102   18.6998    0.0714 H   0  0  0  0  0  0  0  0  0  0  0  0
    2.7591   19.6878    3.1193 H   0  0  0  0  0  0  0  0  0  0  0  0
    4.0309   20.4465    2.1027 H   0  0  0  0  0  0  0  0  0  0  0  0
    2.3636   21.1149    2.1027 H   0  0  0  0  0  0  0  0  0  0  0  0
   -0.7023   16.4104   -2.4920 H   0  0  0  0  0  0  0  0  0  0  0  0
   -0.6514   16.1885   -4.8983 H   0  0  0  0  0  0  0  0  0  0  0  0
    1.0208   16.7806   -4.9947 H   0  0  0  0  0  0  0  0  0  0  0  0
    0.2079   14.0532   -5.2460 H   0  0  0  0  0  0  0  0  0  0  0  0
    1.8699   14.5665   -4.9649 H   0  0  0  0  0  0  0  0  0  0  0  0
   -0.9884   13.6264   -1.8717 H   0  0  0  0  0  0  0  0  0  0  0  0
   -1.3866   14.4510   -3.4170 H   0  0  0  0  0  0  0  0  0  0  0  0
   -0.9357   12.7122   -3.4170 H   0  0  0  0  0  0  0  0  0  0  0  0
    2.6829   13.2697   -3.0884 H   0  0  0  0  0  0  0  0  0  0  0  0
    1.0924   11.8965   -4.5826 H   0  0  0  0  0  0  0  0  0  0  0  0
    2.4364   11.0832   -3.6230 H   0  0  0  0  0  0  0  0  0  0  0  0
    0.1115    9.8441   -3.6542 H   0  0  0  0  0  0  0  0  0  0  0  0
   -0.1894   12.3924   -0.5382 H   0  0  0  0  0  0  0  0  0  0  0  0
    1.7847   10.2323    0.4295 H   0  0  0  0  0  0  0  0  0  0  0  0
    1.2194   11.6908    1.3590 H   0  0  0  0  0  0  0  0  0  0  0  0
    0.0792    9.6184    2.0841 H   0  0  0  0  0  0  0  0  0  0  0  0
   -1.0525   10.8371    1.3769 H   0  0  0  0  0  0  0  0  0  0  0  0
   -1.6440    8.6636    0.5484 H   0  0  0  0  0  0  0  0  0  0  0  0
    0.5690    7.8140    0.8610 H   0  0  0  0  0  0  0  0  0  0  0  0
   -2.6024   10.7241   -0.0291 H   0  0  0  0  0  0  0  0  0  0  0  0
   -2.2224   11.5490   -1.5789 H   0  0  0  0  0  0  0  0  0  0  0  0
   -3.2075   10.0469   -1.5789 H   0  0  0  0  0  0  0  0  0  0  0  0
   -1.6849    7.6683   -1.6212 H   0  0  0  0  0  0  0  0  0  0  0  0
   -2.2730    8.8558   -2.8339 H   0  0  0  0  0  0  0  0  0  0  0  0
   -0.5491    8.3510   -2.8339 H   0  0  0  0  0  0  0  0  0  0  0  0
    3.3615   11.7396    0.0666 H   0  0  0  0  0  0  0  0  0  0  0  0
    3.1250   10.8472   -1.4743 H   0  0  0  0  0  0  0  0  0  0  0  0
    3.9745   12.4299   -1.4743 H   0  0  0  0  0  0  0  0  0  0  0  0
    1.5488   13.6189    0.6670 H   0  0  0  0  0  0  0  0  0  0  0  0
    2.9012   14.2408   -0.4367 H   0  0  0  0  0  0  0  0  0  0  0  0
   -0.0663   14.8243   -0.6400 H   0  0  0  0  0  0  0  0  0  0  0  0
    1.2834   15.9616   -0.2497 H   0  0  0  0  0  0  0  0  0  0  0  0
    3.1761   15.8974   -1.5374 H   0  0  0  0  0  0  0  0  0  0  0  0
    3.2193   14.9770   -3.0794 H   0  0  0  0  0  0  0  0  0  0  0  0
    2.7370   16.7074   -3.0794 H   0  0  0  0  0  0  0  0  0  0  0  0
  1  2  1  0
  2  3  1  0
  3  4  1  0
  4  5  1  0
  5  6  1  0
  6  7  1  0
  7  8  1  0
  7  9  1  0
  2 10  1  0
 10 11  1  0
 11 12  1  0
 12 13  1  0
 13 14  1  1
 13 15  1  0
 15 16  1  0
 16 17  1  0
 17 18  2  0
 18 19  1  0
 19 20  1  0
 20 21  1  0
 21 22  1  0
 22 23  1  0
 22 24  1  0
 24 25  1  0
 24 26  1  0
 19 27  1  0
 27 28  1  6
 27 29  1  0
 29 30  1  0
 30 31  1  0
 31 32  1  1
  7  5  1  0
 31 10  1  0
 31 13  1  0
 27 15  1  0
 24 18  1  0
  1 33  1  0
  1 34  1  0
  1 35  1  0
  2 36  1  6
  3 37  1  0
  3 38  1  0
  4 39  1  0
  4 40  1  0
  5 41  1  1
  8 42  1  0
  8 43  1  0
  8 44  1  0
  9 45  1  0
  9 46  1  0
  9 47  1  0
 10 48  1  1
 11 49  1  0
 11 50  1  0
 12 51  1  0
 12 52  1  0
 14 53  1  0
 14 54  1  0
 14 55  1  0
 15 56  1  6
 16 57  1  0
 16 58  1  0
 17 59  1  0
 19 60  1  1
 20 61  1  0
 20 62  1  0
 21 63  1  0
 21 64  1  0
 22 65  1  1
 23 66  1  0
 25 67  1  0
 25 68  1  0
 25 69  1  0
 26 70  1  0
 26 71  1  0
 26 72  1  0
 28 73  1  0
 28 74  1  0
 28 75  1  0
 29 76  1  0
 29 77  1  0
 30 78  1  0
 30 79  1  0
 32 80  1  0
 32 81  1  0
 32 82  1  0
M  END
>  <meeko>  (4) 
{"is_sidechain": [false], "intermolecular_energy": 2.731, "internal_energy": -0.839}

$$$$
EPH_relaxed_0001_pdb2pqr_Repair_364_r2_0001_out
     RDKit          3D

 82 86  0  0  0  0  0  0  0  0999 V2000
    2.3870   18.0670   -2.5800 C   0  0  0  0  0  0  0  0  0  0  0  0
    1.0530   17.7130   -1.9160 C   0  0  2  0  0  0  0  0  0  0  0  0
    1.1340   17.7780   -0.3780 C   0  0  0  0  0  0  0  0  0  0  0  0
    0.7510   19.1430    0.2010 C   0  0  0  0  0  0  0  0  0  0  0  0
   -0.7100   19.2160    0.5260 C   0  0  2  0  0  0  0  0  0  0  0  0
   -1.5330   18.2960   -0.2030 O   0  0  0  0  0  0  0  0  0  0  0  0
   -1.7640   19.6910   -0.4580 C   0  0  0  0  0  0  0  0  0  0  0  0
   -1.3980   20.1250   -1.8420 C   0  0  0  0  0  0  0  0  0  0  0  0
   -3.0680   20.1940    0.0780 C   0  0  0  0  0  0  0  0  0  0  0  0
    0.6070   16.3230   -2.3560 C   0  0  1  0  0  0  0  0  0  0  0  0
    0.6730   16.1330   -3.8950 C   0  0  0  0  0  0  0  0  0  0  0  0
    1.0810   14.6590   -4.1460 C   0  0  0  0  0  0  0  0  0  0  0  0
    0.9120   13.9680   -2.7730 C   0  0  1  0  0  0  0  0  0  0  0  0
   -0.6140   13.6590   -2.6640 C   0  0  0  0  0  0  0  0  0  0  0  0
    1.7780   12.6890   -2.5320 C   0  0  2  0  0  0  0  0  0  0  0  0
    1.4860   11.5150   -3.4830 C   0  0  0  0  0  0  0  0  0  0  0  0
    0.4440   10.5560   -3.0110 C   0  0  0  0  0  0  0  0  0  0  0  0
   -0.0270   10.4700   -1.7530 C   0  0  0  0  0  0  0  0  0  0  0  0
    0.5650   11.3290   -0.6290 C   0  0  1  0  0  0  0  0  0  0  0  0
    0.8250   10.4430    0.6180 C   0  0  0  0  0  0  0  0  0  0  0  0
   -0.4180    9.6790    1.0620 C   0  0  0  0  0  0  0  0  0  0  0  0
   -0.9440    8.7920   -0.0640 C   0  0  2  0  0  0  0  0  0  0  0  0
    0.0120    7.7580   -0.3200 O   0  0  0  0  0  0  0  0  0  0  0  0
   -1.2330    9.5730   -1.3760 C   0  0  0  0  0  0  0  0  0  0  0  0
   -2.4710   10.4820   -1.1790 C   0  0  0  0  0  0  0  0  0  0  0  0
   -1.6210    8.5420   -2.4700 C   0  0  0  0  0  0  0  0  0  0  0  0
    1.8260   12.2130   -1.0240 C   0  0  1  0  0  0  0  0  0  0  0  0
    3.1330   11.3780   -0.8620 C   0  0  0  0  0  0  0  0  0  0  0  0
    1.9430   13.4190   -0.0190 C   0  0  0  0  0  0  0  0  0  0  0  0
    1.1580   14.6970   -0.3740 C   0  0  0  0  0  0  0  0  0  0  0  0
    1.4180   15.1150   -1.8240 C   0  0  2  0  0  0  0  0  0  0  0  0
    2.9420   15.4530   -1.9590 C   0  0  0  0  0  0  0  0  0  0  0  0
    3.1409   18.2671   -1.8044 H   0  0  0  0  0  0  0  0  0  0  0  0
    2.7194   17.2260   -3.2062 H   0  0  0  0  0  0  0  0  0  0  0  0
    2.2587   18.9622   -3.2062 H   0  0  0  0  0  0  0  0  0  0  0  0
    0.3138   18.4609   -2.2389 H   0  0  0  0  0  0  0  0  0  0  0  0
    0.4531   17.0208    0.0380 H   0  0  0  0  0  0  0  0  0  0  0  0
    2.1832   17.5949   -0.1031 H   0  0  0  0  0  0  0  0  0  0  0  0
    1.3299   19.3156    1.1203 H   0  0  0  0  0  0  0  0  0  0  0  0
    0.9734   19.9110   -0.5545 H   0  0  0  0  0  0  0  0  0  0  0  0
   -0.4881   19.5016    1.5649 H   0  0  0  0  0  0  0  0  0  0  0  0
   -0.6897   20.9649   -1.7876 H   0  0  0  0  0  0  0  0  0  0  0  0
   -0.9310   19.2856   -2.3780 H   0  0  0  0  0  0  0  0  0  0  0  0
   -2.3042   20.4436   -2.3780 H   0  0  0  0  0  0  0  0  0  0  0  0
   -3.0409   20.1836    1.1776 H   0  0  0  0  0  0  0  0  0  0  0  0
   -3.2374   21.2220   -0.2749 H   0  0  0  0  0  0  0  0  0  0  0  0
   -3.8839   19.5461   -0.2749 H   0  0  0  0  0  0  0  0  0  0  0  0
   -0.4076   16.3118   -1.9311 H   0  0  0  0  0  0  0  0  0  0  0  0
   -0.3104   16.3357   -4.3443 H   0  0  0  0  0  0  0  0  0  0  0  0
    1.3972   16.8261   -4.3480 H   0  0  0  0  0  0  0  0  0  0  0  0
    0.4235   14.1966   -4.8969 H   0  0  0  0  0  0  0  0  0  0  0  0
    2.1065   14.5704   -4.5341 H   0  0  0  0  0  0  0  0  0  0  0  0
   -0.9015   13.6008   -1.6038 H   0  0  0  0  0  0  0  0  0  0  0  0
   -1.1862   14.4595   -3.1557 H   0  0  0  0  0  0  0  0  0  0  0  0
   -0.8297   12.6989   -3.1557 H   0  0  0  0  0  0  0  0  0  0  0  0
    2.7894   13.0373   -2.7886 H   0  0  0  0  0  0  0  0  0  0  0  0
    1.1536   11.9316   -4.4452 H   0  0  0  0  0  0  0  0  0  0  0  0
    2.4208   10.9392   -3.5516 H   0  0  0  0  0  0  0  0  0  0  0  0
    0.0258    9.8609   -3.7539 H   0  0  0  0  0  0  0  0  0  0  0  0
   -0.1946   12.0892   -0.3941 H   0  0  0  0  0  0  0  0  0  0  0  0
    1.6168    9.7185    0.3769 H   0  0  0  0  0  0  0  0  0  0  0  0
    1.1214   11.1070    1.4434 H   0  0  0  0  0  0  0  0  0  0  0  0
   -0.1637    9.0494    1.9274 H   0  0  0  0  0  0  0  0  0  0  0  0
   -1.1992   10.4052    1.3312 H   0  0  0  0  0  0  0  0  0  0  0  0
   -1.9049    8.3721    0.2682 H   0  0  0  0  0  0  0  0  0  0  0  0
    0.8660    8.1850   -0.5030 H   0  0  0  0  0  0  0  0  0  0  0  0
   -2.6578   10.6192   -0.1037 H   0  0  0  0  0  0  0  0  0  0  0  0
   -2.2858   11.4602   -1.6467 H   0  0  0  0  0  0  0  0  0  0  0  0
   -3.3489   10.0123   -1.6467 H   0  0  0  0  0  0  0  0  0  0  0  0
   -1.9700    7.6145   -1.9925 H   0  0  0  0  0  0  0  0  0  0  0  0
   -2.4245    8.9568   -3.0963 H   0  0  0  0  0  0  0  0  0  0  0  0
   -0.7433    8.3241   -3.0963 H   0  0  0  0  0  0  0  0  0  0  0  0
    3.3495   11.2397    0.2076 H   0  0  0  0  0  0  0  0  0  0  0  0
    3.0022   10.3958   -1.3396 H   0  0  0  0  0  0  0  0  0  0  0  0
    3.9693   11.9095   -1.3396 H   0  0  0  0  0  0  0  0  0  0  0  0
    1.5865   13.0709    0.9617 H   0  0  0  0  0  0  0  0  0  0  0  0
    3.0022   13.7146   -0.0456 H   0  0  0  0  0  0  0  0  0  0  0  0
    0.0826   14.5072   -0.2415 H   0  0  0  0  0  0  0  0  0  0  0  0
    1.4904   15.5086    0.2899 H   0  0  0  0  0  0  0  0  0  0  0  0
    3.3859   15.5514   -0.9574 H   0  0  0  0  0  0  0  0  0  0  0  0
    3.4495   14.6456   -2.5072 H   0  0  0  0  0  0  0  0  0  0  0  0
    3.0606   16.3993   -2.5072 H   0  0  0  0  0  0  0  0  0  0  0  0
  1  2  1  0
  2  3  1  0
  3  4  1  0
  4  5  1  0
  5  6  1  0
  6  7  1  0
  7  8  1  0
  7  9  1  0
  2 10  1  0
 10 11  1  0
 11 12  1  0
 12 13  1  0
 13 14  1  1
 13 15  1  0
 15 16  1  0
 16 17  1  0
 17 18  2  0
 18 19  1  0
 19 20  1  0
 20 21  1  0
 21 22  1  0
 22 23  1  0
 22 24  1  0
 24 25  1  0
 24 26  1  0
 19 27  1  0
 27 28  1  6
 27 29  1  0
 29 30  1  0
 30 31  1  0
 31 32  1  1
  7  5  1  0
 31 10  1  0
 31 13  1  0
 27 15  1  0
 24 18  1  0
  1 33  1  0
  1 34  1  0
  1 35  1  0
  2 36  1  6
  3 37  1  0
  3 38  1  0
  4 39  1  0
  4 40  1  0
  5 41  1  1
  8 42  1  0
  8 43  1  0
  8 44  1  0
  9 45  1  0
  9 46  1  0
  9 47  1  0
 10 48  1  1
 11 49  1  0
 11 50  1  0
 12 51  1  0
 12 52  1  0
 14 53  1  0
 14 54  1  0
 14 55  1  0
 15 56  1  6
 16 57  1  0
 16 58  1  0
 17 59  1  0
 19 60  1  1
 20 61  1  0
 20 62  1  0
 21 63  1  0
 21 64  1  0
 22 65  1  1
 23 66  1  0
 25 67  1  0
 25 68  1  0
 25 69  1  0
 26 70  1  0
 26 71  1  0
 26 72  1  0
 28 73  1  0
 28 74  1  0
 28 75  1  0
 29 76  1  0
 29 77  1  0
 30 78  1  0
 30 79  1  0
 32 80  1  0
 32 81  1  0
 32 82  1  0
M  END
>  <meeko>  (5) 
{"is_sidechain": [false], "intermolecular_energy": 2.731, "internal_energy": -0.839}

$$$$
EPH_relaxed_0001_pdb2pqr_Repair_364_r2_0001_out
     RDKit          3D

 82 86  0  0  0  0  0  0  0  0999 V2000
    3.7150   17.7710    0.6250 C   0  0  0  0  0  0  0  0  0  0  0  0
    2.7810   18.0760   -0.5500 C   0  0  2  0  0  0  0  0  0  0  0  0
    2.0930   19.4480   -0.4040 C   0  0  0  0  0  0  0  0  0  0  0  0
    1.1890   19.5550    0.8280 C   0  0  0  0  0  0  0  0  0  0  0  0
   -0.1500   20.1330    0.4840 C   0  0  2  0  0  0  0  0  0  0  0  0
   -1.0750   20.1940    1.5770 O   0  0  0  0  0  0  0  0  0  0  0  0
   -1.4360   19.3280    0.4890 C   0  0  0  0  0  0  0  0  0  0  0  0
   -1.4450   17.8750    0.8460 C   0  0  0  0  0  0  0  0  0  0  0  0
   -2.5950   19.8250   -0.3170 C   0  0  0  0  0  0  0  0  0  0  0  0
    1.7320   16.9780   -0.6780 C   0  0  1  0  0  0  0  0  0  0  0  0
    0.4710   17.4440   -1.4540 C   0  0  0  0  0  0  0  0  0  0  0  0
   -0.0350   16.2210   -2.2610 C   0  0  0  0  0  0  0  0  0  0  0  0
    0.7400   15.0180   -1.6740 C   0  0  1  0  0  0  0  0  0  0  0  0
   -0.0330   14.6380   -0.3730 C   0  0  0  0  0  0  0  0  0  0  0  0
    0.9210   13.7850   -2.6190 C   0  0  2  0  0  0  0  0  0  0  0  0
   -0.3860   13.1000   -3.0550 C   0  0  0  0  0  0  0  0  0  0  0  0
   -0.8540   11.9960   -2.1660 C   0  0  0  0  0  0  0  0  0  0  0  0
   -0.1130   11.3810   -1.2260 C   0  0  0  0  0  0  0  0  0  0  0  0
    1.3730   11.7180   -1.0490 C   0  0  1  0  0  0  0  0  0  0  0  0
    2.1930   10.4060   -0.9350 C   0  0  0  0  0  0  0  0  0  0  0  0
    1.6690    9.4830    0.1610 C   0  0  0  0  0  0  0  0  0  0  0  0
    0.2060    9.1230   -0.0820 C   0  0  2  0  0  0  0  0  0  0  0  0
    0.1180    8.3220   -1.2640 O   0  0  0  0  0  0  0  0  0  0  0  0
   -0.7160   10.3670   -0.2230 C   0  0  0  0  0  0  0  0  0  0  0  0
   -0.8580   11.0680    1.1500 C   0  0  0  0  0  0  0  0  0  0  0  0
   -2.1350    9.8680   -0.6050 C   0  0  0  0  0  0  0  0  0  0  0  0
    1.9850   12.7300   -2.1110 C   0  0  1  0  0  0  0  0  0  0  0  0
    2.4740   11.9500   -3.3690 C   0  0  0  0  0  0  0  0  0  0  0  0
    3.2600   13.4170   -1.4910 C   0  0  0  0  0  0  0  0  0  0  0  0
    3.0280   14.6980   -0.6680 C   0  0  0  0  0  0  0  0  0  0  0  0
    2.1420   15.6870   -1.4310 C   0  0  2  0  0  0  0  0  0  0  0  0
    2.9040   16.1050   -2.7350 C   0  0  0  0  0  0  0  0  0  0  0  0
    3.1823   17.9450    1.5716 H   0  0  0  0  0  0  0  0  0  0  0  0
    4.0379   16.7207    0.5736 H   0  0  0  0  0  0  0  0  0  0  0  0
    4.5955   18.4283    0.5736 H   0  0  0  0  0  0  0  0  0  0  0  0
    3.3959   18.1109   -1.4614 H   0  0  0  0  0  0  0  0  0  0  0  0
    2.8720   20.2213   -0.3315 H   0  0  0  0  0  0  0  0  0  0  0  0
    1.4506   19.5813   -1.2869 H   0  0  0  0  0  0  0  0  0  0  0  0
    1.0453   18.5507    1.2531 H   0  0  0  0  0  0  0  0  0  0  0  0
    1.6753   20.2239    1.5533 H   0  0  0  0  0  0  0  0  0  0  0  0
    0.3035   20.7941   -0.2692 H   0  0  0  0  0  0  0  0  0  0  0  0
   -1.4457   17.7664    1.9406 H   0  0  0  0  0  0  0  0  0  0  0  0
   -2.3461   17.4008    0.4299 H   0  0  0  0  0  0  0  0  0  0  0  0
   -0.5498   17.3896    0.4299 H   0  0  0  0  0  0  0  0  0  0  0  0
   -3.3923   20.1669    0.3594 H   0  0  0  0  0  0  0  0  0  0  0  0
   -2.2683   20.6622   -0.9514 H   0  0  0  0  0  0  0  0  0  0  0  0
   -2.9763   19.0113   -0.9514 H   0  0  0  0  0  0  0  0  0  0  0  0
    1.5661   16.7564    0.3866 H   0  0  0  0  0  0  0  0  0  0  0  0
   -0.3043   17.7802   -0.7499 H   0  0  0  0  0  0  0  0  0  0  0  0
    0.7065   18.2869   -2.1204 H   0  0  0  0  0  0  0  0  0  0  0  0
   -1.1186   16.0881   -2.1259 H   0  0  0  0  0  0  0  0  0  0  0  0
    0.1315   16.3369   -3.3421 H   0  0  0  0  0  0  0  0  0  0  0  0
    0.5614   14.9302    0.5052 H   0  0  0  0  0  0  0  0  0  0  0  0
   -0.9989   15.1640   -0.3535 H   0  0  0  0  0  0  0  0  0  0  0  0
   -0.2064   13.5519   -0.3535 H   0  0  0  0  0  0  0  0  0  0  0  0
    1.3357   14.2436   -3.5287 H   0  0  0  0  0  0  0  0  0  0  0  0
   -1.1753   13.8653   -3.0910 H   0  0  0  0  0  0  0  0  0  0  0  0
   -0.1765   12.6373   -4.0307 H   0  0  0  0  0  0  0  0  0  0  0  0
   -1.8929   11.6563   -2.2898 H   0  0  0  0  0  0  0  0  0  0  0  0
    1.4460   12.2853   -0.1094 H   0  0  0  0  0  0  0  0  0  0  0  0
    2.1441    9.8747   -1.8969 H   0  0  0  0  0  0  0  0  0  0  0  0
    3.2266   10.6792   -0.6761 H   0  0  0  0  0  0  0  0  0  0  0  0
    2.2693    8.5613    0.1729 H   0  0  0  0  0  0  0  0  0  0  0  0
    1.7464   10.0050    1.1262 H   0  0  0  0  0  0  0  0  0  0  0  0
   -0.1480    8.5689    0.7999 H   0  0  0  0  0  0  0  0  0  0  0  0
    0.1400    7.3900   -0.9900 H   0  0  0  0  0  0  0  0  0  0  0  0
   -0.7090   10.3326    1.9543 H   0  0  0  0  0  0  0  0  0  0  0  0
   -0.1027   11.8631    1.2356 H   0  0  0  0  0  0  0  0  0  0  0  0
   -1.8632   11.5064    1.2356 H   0  0  0  0  0  0  0  0  0  0  0  0
   -2.7111    9.6654    0.3099 H   0  0  0  0  0  0  0  0  0  0  0  0
   -2.6478   10.6397   -1.1978 H   0  0  0  0  0  0  0  0  0  0  0  0
   -2.0519    8.9452   -1.1978 H   0  0  0  0  0  0  0  0  0  0  0  0
    3.0336   11.0574   -3.0524 H   0  0  0  0  0  0  0  0  0  0  0  0
    1.6058   11.6440   -3.9711 H   0  0  0  0  0  0  0  0  0  0  0  0
    3.1277   12.5981   -3.9711 H   0  0  0  0  0  0  0  0  0  0  0  0
    3.7469   12.6823   -0.8329 H   0  0  0  0  0  0  0  0  0  0  0  0
    3.8638   13.7348   -2.3538 H   0  0  0  0  0  0  0  0  0  0  0  0
    2.5373   14.4326    0.2800 H   0  0  0  0  0  0  0  0  0  0  0  0
    4.0014   15.1737   -0.4779 H   0  0  0  0  0  0  0  0  0  0  0  0
    3.8389   16.6178   -2.4649 H   0  0  0  0  0  0  0  0  0  0  0  0
    3.1359   15.2078   -3.3277 H   0  0  0  0  0  0  0  0  0  0  0  0
    2.2720   16.7827   -3.3277 H   0  0  0  0  0  0  0  0  0  0  0  0
  1  2  1  0
  2  3  1  0
  3  4  1  0
  4  5  1  0
  5  6  1  0
  6  7  1  0
  7  8  1  0
  7  9  1  0
  2 10  1  0
 10 11  1  0
 11 12  1  0
 12 13  1  0
 13 14  1  1
 13 15  1  0
 15 16  1  0
 16 17  1  0
 17 18  2  0
 18 19  1  0
 19 20  1  0
 20 21  1  0
 21 22  1  0
 22 23  1  0
 22 24  1  0
 24 25  1  0
 24 26  1  0
 19 27  1  0
 27 28  1  6
 27 29  1  0
 29 30  1  0
 30 31  1  0
 31 32  1  6
  7  5  1  0
 31 10  1  0
 31 13  1  0
 27 15  1  0
 24 18  1  0
  1 33  1  0
  1 34  1  0
  1 35  1  0
  2 36  1  6
  3 37  1  0
  3 38  1  0
  4 39  1  0
  4 40  1  0
  5 41  1  6
  8 42  1  0
  8 43  1  0
  8 44  1  0
  9 45  1  0
  9 46  1  0
  9 47  1  0
 10 48  1  1
 11 49  1  0
 11 50  1  0
 12 51  1  0
 12 52  1  0
 14 53  1  0
 14 54  1  0
 14 55  1  0
 15 56  1  6
 16 57  1  0
 16 58  1  0
 17 59  1  0
 19 60  1  1
 20 61  1  0
 20 62  1  0
 21 63  1  0
 21 64  1  0
 22 65  1  1
 23 66  1  0
 25 67  1  0
 25 68  1  0
 25 69  1  0
 26 70  1  0
 26 71  1  0
 26 72  1  0
 28 73  1  0
 28 74  1  0
 28 75  1  0
 29 76  1  0
 29 77  1  0
 30 78  1  0
 30 79  1  0
 32 80  1  0
 32 81  1  0
 32 82  1  0
M  END
>  <meeko>  (6) 
{"is_sidechain": [false], "intermolecular_energy": 2.731, "internal_energy": -0.839}

$$$$
EPH_relaxed_0001_pdb2pqr_Repair_364_r2_0001_out
     RDKit          3D

 82 86  0  0  0  0  0  0  0  0999 V2000
    3.5220   17.5700    0.6920 C   0  0  0  0  0  0  0  0  0  0  0  0
    3.4410   16.6140   -0.5020 C   0  0  2  0  0  0  0  0  0  0  0  0
    3.3400   17.3680   -1.8430 C   0  0  0  0  0  0  0  0  0  0  0  0
    2.8030   18.7950   -1.7090 C   0  0  0  0  0  0  0  0  0  0  0  0
    1.3300   18.8610   -1.9760 C   0  0  2  0  0  0  0  0  0  0  0  0
    0.8150   20.1850   -2.1670 O   0  0  0  0  0  0  0  0  0  0  0  0
    0.3320   19.4780   -1.0140 C   0  0  0  0  0  0  0  0  0  0  0  0
    0.7680   20.0690    0.2900 C   0  0  0  0  0  0  0  0  0  0  0  0
   -1.1050   19.0700   -1.1150 C   0  0  0  0  0  0  0  0  0  0  0  0
    2.2480   15.6790   -0.3380 C   0  0  1  0  0  0  0  0  0  0  0  0
    0.9090   16.4440   -0.1660 C   0  0  0  0  0  0  0  0  0  0  0  0
   -0.1830   15.5980   -0.8700 C   0  0  0  0  0  0  0  0  0  0  0  0
    0.4910   14.2310   -1.1320 C   0  0  1  0  0  0  0  0  0  0  0  0
    0.3860   13.4660    0.2250 C   0  0  0  0  0  0  0  0  0  0  0  0
   -0.0890   13.3890   -2.3150 C   0  0  2  0  0  0  0  0  0  0  0  0
   -1.5580   12.9600   -2.1510 C   0  0  0  0  0  0  0  0  0  0  0  0
   -1.7660   11.6420   -1.4810 C   0  0  0  0  0  0  0  0  0  0  0  0
   -0.8190   10.7060   -1.2840 C   0  0  0  0  0  0  0  0  0  0  0  0
    0.5980   10.8900   -1.8430 C   0  0  1  0  0  0  0  0  0  0  0  0
    1.0550    9.5800   -2.5370 C   0  0  0  0  0  0  0  0  0  0  0  0
    0.9420    8.3640   -1.6230 C   0  0  0  0  0  0  0  0  0  0  0  0
   -0.4930    8.1800   -1.1340 C   0  0  2  0  0  0  0  0  0  0  0  0
   -1.3200    7.8390   -2.2510 O   0  0  0  0  0  0  0  0  0  0  0  0
   -1.0650    9.4410   -0.4270 C   0  0  0  0  0  0  0  0  0  0  0  0
   -0.3610    9.6350    0.9390 C   0  0  0  0  0  0  0  0  0  0  0  0
   -2.5610    9.1730   -0.1100 C   0  0  0  0  0  0  0  0  0  0  0  0
    0.8230   12.1730   -2.7540 C   0  0  1  0  0  0  0  0  0  0  0  0
    0.4510   11.8480   -4.2330 C   0  0  0  0  0  0  0  0  0  0  0  0
    2.3540   12.5420   -2.7520 C   0  0  0  0  0  0  0  0  0  0  0  0
    2.8430   13.4740   -1.6260 C   0  0  0  0  0  0  0  0  0  0  0  0
    1.9420   14.7070   -1.5050 C   0  0  2  0  0  0  0  0  0  0  0  0
    2.0440   15.5080   -2.8470 C   0  0  0  0  0  0  0  0  0  0  0  0
    3.4731   16.9933    1.6274 H   0  0  0  0  0  0  0  0  0  0  0  0
    4.4705   18.1258    0.6530 H   0  0  0  0  0  0  0  0  0  0  0  0
    2.6806   18.2775    0.6530 H   0  0  0  0  0  0  0  0  0  0  0  0
    4.3721   16.0286   -0.5223 H   0  0  0  0  0  0  0  0  0  0  0  0
    4.3436   17.4155   -2.2909 H   0  0  0  0  0  0  0  0  0  0  0  0
    2.6258   16.8139   -2.4697 H   0  0  0  0  0  0  0  0  0  0  0  0
    2.9964   19.1541   -0.6874 H   0  0  0  0  0  0  0  0  0  0  0  0
    3.3144   19.4247   -2.4520 H   0  0  0  0  0  0  0  0  0  0  0  0
    1.3557   17.8885   -2.4894 H   0  0  0  0  0  0  0  0  0  0  0  0
    0.3384   19.4866    1.1184 H   0  0  0  0  0  0  0  0  0  0  0  0
    1.8658   20.0442    0.3550 H   0  0  0  0  0  0  0  0  0  0  0  0
    0.4203   21.1106    0.3550 H   0  0  0  0  0  0  0  0  0  0  0  0
   -1.5242   18.9510   -0.1050 H   0  0  0  0  0  0  0  0  0  0  0  0
   -1.6686   19.8436   -1.6571 H   0  0  0  0  0  0  0  0  0  0  0  0
   -1.1780   18.1156   -1.6571 H   0  0  0  0  0  0  0  0  0  0  0  0
    2.5760   15.1139    0.5469 H   0  0  0  0  0  0  0  0  0  0  0  0
    0.6713   16.5562    0.9021 H   0  0  0  0  0  0  0  0  0  0  0  0
    0.9708   17.4516   -0.6029 H   0  0  0  0  0  0  0  0  0  0  0  0
   -1.0619   15.4792   -0.2192 H   0  0  0  0  0  0  0  0  0  0  0  0
   -0.5436   16.0696   -1.7961 H   0  0  0  0  0  0  0  0  0  0  0  0
    0.4839   14.1794    1.0566 H   0  0  0  0  0  0  0  0  0  0  0  0
   -0.5897   12.9620    0.2872 H   0  0  0  0  0  0  0  0  0  0  0  0
    1.1899   12.7177    0.2872 H   0  0  0  0  0  0  0  0  0  0  0  0
   -0.0790   14.1104   -3.1454 H   0  0  0  0  0  0  0  0  0  0  0  0
   -2.0723   13.7289   -1.5558 H   0  0  0  0  0  0  0  0  0  0  0  0
   -1.9588   12.8505   -3.1695 H   0  0  0  0  0  0  0  0  0  0  0  0
   -2.7794   11.4167   -1.1174 H   0  0  0  0  0  0  0  0  0  0  0  0
    1.2421   11.0978   -0.9758 H   0  0  0  0  0  0  0  0  0  0  0  0
    0.4270    9.4135   -3.4247 H   0  0  0  0  0  0  0  0  0  0  0  0
    2.1148    9.6974   -2.8073 H   0  0  0  0  0  0  0  0  0  0  0  0
    1.2509    7.4662   -2.1785 H   0  0  0  0  0  0  0  0  0  0  0  0
    1.5931    8.5193   -0.7501 H   0  0  0  0  0  0  0  0  0  0  0  0
   -0.4859    7.3752   -0.3841 H   0  0  0  0  0  0  0  0  0  0  0  0
   -1.7850    8.6450   -2.5310 H   0  0  0  0  0  0  0  0  0  0  0  0
   -1.0761    9.4379    1.7513 H   0  0  0  0  0  0  0  0  0  0  0  0
    0.4851    8.9365    1.0179 H   0  0  0  0  0  0  0  0  0  0  0  0
    0.0079   10.6683    1.0179 H   0  0  0  0  0  0  0  0  0  0  0  0
   -2.7059    9.1470    0.9801 H   0  0  0  0  0  0  0  0  0  0  0  0
   -3.1769    9.9751   -0.5428 H   0  0  0  0  0  0  0  0  0  0  0  0
   -2.8602    8.2070   -0.5428 H   0  0  0  0  0  0  0  0  0  0  0  0
   -0.3773   11.1244   -4.2522 H   0  0  0  0  0  0  0  0  0  0  0  0
    0.1430   12.7715   -4.7451 H   0  0  0  0  0  0  0  0  0  0  0  0
    1.3248   11.4188   -4.7451 H   0  0  0  0  0  0  0  0  0  0  0  0
    2.9224   11.6032   -2.6773 H   0  0  0  0  0  0  0  0  0  0  0  0
    2.5153   13.1059   -3.6826 H   0  0  0  0  0  0  0  0  0  0  0  0
    2.8308   12.9244   -0.6732 H   0  0  0  0  0  0  0  0  0  0  0  0
    3.8636   13.8074   -1.8650 H   0  0  0  0  0  0  0  0  0  0  0  0
    2.1801   16.5770   -2.6265 H   0  0  0  0  0  0  0  0  0  0  0  0
    2.9027   15.1413   -3.4285 H   0  0  0  0  0  0  0  0  0  0  0  0
    1.1208   15.3682   -3.4285 H   0  0  0  0  0  0  0  0  0  0  0  0
  1  2  1  0
  2  3  1  0
  3  4  1  0
  4  5  1  0
  5  6  1  0
  6  7  1  0
  7  8  1  0
  7  9  1  0
  2 10  1  0
 10 11  1  0
 11 12  1  0
 12 13  1  0
 13 14  1  1
 13 15  1  0
 15 16  1  0
 16 17  1  0
 17 18  2  0
 18 19  1  0
 19 20  1  0
 20 21  1  0
 21 22  1  0
 22 23  1  0
 22 24  1  0
 24 25  1  0
 24 26  1  0
 19 27  1  0
 27 28  1  6
 27 29  1  0
 29 30  1  0
 30 31  1  0
 31 32  1  6
  7  5  1  0
 31 10  1  0
 31 13  1  0
 27 15  1  0
 24 18  1  0
  1 33  1  0
  1 34  1  0
  1 35  1  0
  2 36  1  6
  3 37  1  0
  3 38  1  0
  4 39  1  0
  4 40  1  0
  5 41  1  6
  8 42  1  0
  8 43  1  0
  8 44  1  0
  9 45  1  0
  9 46  1  0
  9 47  1  0
 10 48  1  1
 11 49  1  0
 11 50  1  0
 12 51  1  0
 12 52  1  0
 14 53  1  0
 14 54  1  0
 14 55  1  0
 15 56  1  6
 16 57  1  0
 16 58  1  0
 17 59  1  0
 19 60  1  1
 20 61  1  0
 20 62  1  0
 21 63  1  0
 21 64  1  0
 22 65  1  1
 23 66  1  0
 25 67  1  0
 25 68  1  0
 25 69  1  0
 26 70  1  0
 26 71  1  0
 26 72  1  0
 28 73  1  0
 28 74  1  0
 28 75  1  0
 29 76  1  0
 29 77  1  0
 30 78  1  0
 30 79  1  0
 32 80  1  0
 32 81  1  0
 32 82  1  0
M  END
>  <meeko>  (7) 
{"is_sidechain": [false], "intermolecular_energy": 2.731, "internal_energy": -0.839}

$$$$
EPH_relaxed_0001_pdb2pqr_Repair_364_r2_0001_out
     RDKit          3D

 82 86  0  0  0  0  0  0  0  0999 V2000
    0.4280    8.8100   -2.4190 C   0  0  0  0  0  0  0  0  0  0  0  0
    1.1690    9.9540   -3.1160 C   0  0  2  0  0  0  0  0  0  0  0  0
    2.6710    9.9710   -2.7680 C   0  0  0  0  0  0  0  0  0  0  0  0
    3.5450   10.6150   -3.8470 C   0  0  0  0  0  0  0  0  0  0  0  0
    4.9420   10.8530   -3.3590 C   0  0  2  0  0  0  0  0  0  0  0  0
    5.5490   12.0580   -3.8440 O   0  0  0  0  0  0  0  0  0  0  0  0
    6.1600   10.8270   -4.2640 C   0  0  0  0  0  0  0  0  0  0  0  0
    6.0370   10.5560   -5.7310 C   0  0  0  0  0  0  0  0  0  0  0  0
    7.5030   10.5800   -3.6500 C   0  0  0  0  0  0  0  0  0  0  0  0
    0.5330   11.2880   -2.7420 C   0  0  1  0  0  0  0  0  0  0  0  0
   -0.8480   11.1200   -2.0550 C   0  0  0  0  0  0  0  0  0  0  0  0
   -0.9650   12.2530   -1.0030 C   0  0  0  0  0  0  0  0  0  0  0  0
    0.1910   13.2230   -1.3440 C   0  0  1  0  0  0  0  0  0  0  0  0
   -0.3500   14.0910   -2.5230 C   0  0  0  0  0  0  0  0  0  0  0  0
    0.7180   14.1090   -0.1690 C   0  0  2  0  0  0  0  0  0  0  0  0
   -0.3120   15.0860    0.4250 C   0  0  0  0  0  0  0  0  0  0  0  0
   -0.3470   16.4380   -0.2070 C   0  0  0  0  0  0  0  0  0  0  0  0
    0.6010   16.9490   -1.0140 C   0  0  0  0  0  0  0  0  0  0  0  0
    1.9010   16.1810   -1.2870 C   0  0  1  0  0  0  0  0  0  0  0  0
    3.1100   17.1420   -1.1440 C   0  0  0  0  0  0  0  0  0  0  0  0
    2.9740   18.3870   -2.0150 C   0  0  0  0  0  0  0  0  0  0  0  0
    1.7000   19.1550   -1.6740 C   0  0  2  0  0  0  0  0  0  0  0  0
    1.8210   19.6840   -0.3500 O   0  0  0  0  0  0  0  0  0  0  0  0
    0.4150   18.2850   -1.7740 C   0  0  0  0  0  0  0  0  0  0  0  0
    0.1200   17.9620   -3.2600 C   0  0  0  0  0  0  0  0  0  0  0  0
   -0.7790   19.1390   -1.2690 C   0  0  0  0  0  0  0  0  0  0  0  0
    2.0940   14.8320   -0.4690 C   0  0  1  0  0  0  0  0  0  0  0  0
    2.7480   15.1360    0.9130 C   0  0  0  0  0  0  0  0  0  0  0  0
    3.1020   13.9020   -1.2420 C   0  0  0  0  0  0  0  0  0  0  0  0
    2.5040   12.9630   -2.3080 C   0  0  0  0  0  0  0  0  0  0  0  0
    1.3060   12.1910   -1.7480 C   0  0  2  0  0  0  0  0  0  0  0  0
    1.8220   11.2910   -0.5730 C   0  0  0  0  0  0  0  0  0  0  0  0
    0.5072    8.9323   -1.3287 H   0  0  0  0  0  0  0  0  0  0  0  0
   -0.6317    8.8261   -2.7137 H   0  0  0  0  0  0  0  0  0  0  0  0
    0.8760    7.8496   -2.7137 H   0  0  0  0  0  0  0  0  0  0  0  0
    1.0836    9.7915   -4.2006 H   0  0  0  0  0  0  0  0  0  0  0  0
    2.8043   10.5330   -1.8319 H   0  0  0  0  0  0  0  0  0  0  0  0
    2.9920    8.9228   -2.6774 H   0  0  0  0  0  0  0  0  0  0  0  0
    3.5814    9.9484   -4.7212 H   0  0  0  0  0  0  0  0  0  0  0  0
    3.1035   11.5873   -4.1111 H   0  0  0  0  0  0  0  0  0  0  0  0
    4.7198   10.3505   -2.4060 H   0  0  0  0  0  0  0  0  0  0  0  0
    5.5868    9.5641   -5.8842 H   0  0  0  0  0  0  0  0  0  0  0  0
    5.3991   11.3236   -6.1934 H   0  0  0  0  0  0  0  0  0  0  0  0
    7.0348   10.5812   -6.1934 H   0  0  0  0  0  0  0  0  0  0  0  0
    7.4136   10.5964   -2.5538 H   0  0  0  0  0  0  0  0  0  0  0  0
    7.8786    9.5977   -3.9726 H   0  0  0  0  0  0  0  0  0  0  0  0
    8.2035   11.3644   -3.9726 H   0  0  0  0  0  0  0  0  0  0  0  0
    0.5022   11.7618   -3.7343 H   0  0  0  0  0  0  0  0  0  0  0  0
   -1.6541   11.2085   -2.7982 H   0  0  0  0  0  0  0  0  0  0  0  0
   -0.9360   10.1309   -1.5817 H   0  0  0  0  0  0  0  0  0  0  0  0
   -1.9365   12.7620   -1.0869 H   0  0  0  0  0  0  0  0  0  0  0  0
   -0.9010   11.8736    0.0275 H   0  0  0  0  0  0  0  0  0  0  0  0
   -0.8915   14.9597   -2.1204 H   0  0  0  0  0  0  0  0  0  0  0  0
    0.4923   14.4376   -3.1398 H   0  0  0  0  0  0  0  0  0  0  0  0
   -1.0321   13.4874   -3.1398 H   0  0  0  0  0  0  0  0  0  0  0  0
    0.9125   13.3653    0.6178 H   0  0  0  0  0  0  0  0  0  0  0  0
   -1.3095   14.6348    0.3179 H   0  0  0  0  0  0  0  0  0  0  0  0
   -0.0110   15.2467    1.4707 H   0  0  0  0  0  0  0  0  0  0  0  0
   -1.2219   17.0702    0.0049 H   0  0  0  0  0  0  0  0  0  0  0  0
    1.8300   15.8223   -2.3244 H   0  0  0  0  0  0  0  0  0  0  0  0
    3.1896   17.4544   -0.0923 H   0  0  0  0  0  0  0  0  0  0  0  0
    4.0083   16.5999   -1.4745 H   0  0  0  0  0  0  0  0  0  0  0  0
    3.8434   19.0398   -1.8480 H   0  0  0  0  0  0  0  0  0  0  0  0
    2.9241   18.0746   -3.0685 H   0  0  0  0  0  0  0  0  0  0  0  0
    1.5919   19.9606   -2.4152 H   0  0  0  0  0  0  0  0  0  0  0  0
    2.0530   18.9480    0.2410 H   0  0  0  0  0  0  0  0  0  0  0  0
   -0.6208   17.1509   -3.3189 H   0  0  0  0  0  0  0  0  0  0  0  0
   -0.2775   18.8585   -3.7582 H   0  0  0  0  0  0  0  0  0  0  0  0
    1.0488   17.6472   -3.7582 H   0  0  0  0  0  0  0  0  0  0  0  0
   -0.7866   19.1444   -0.1690 H   0  0  0  0  0  0  0  0  0  0  0  0
   -0.6757   20.1694   -1.6401 H   0  0  0  0  0  0  0  0  0  0  0  0
   -1.7207   18.7083   -1.6401 H   0  0  0  0  0  0  0  0  0  0  0  0
    2.0681   14.8199    1.7179 H   0  0  0  0  0  0  0  0  0  0  0  0
    3.6973   14.5868    0.9982 H   0  0  0  0  0  0  0  0  0  0  0  0
    2.9401   16.2157    0.9982 H   0  0  0  0  0  0  0  0  0  0  0  0
    3.8354   14.5505   -1.7436 H   0  0  0  0  0  0  0  0  0  0  0  0
    3.5241   13.2354   -0.4755 H   0  0  0  0  0  0  0  0  0  0  0  0
    2.1753   13.5610   -3.1708 H   0  0  0  0  0  0  0  0  0  0  0  0
    3.2759   12.2406   -2.6120 H   0  0  0  0  0  0  0  0  0  0  0  0
    1.5560   11.7549    0.3883 H   0  0  0  0  0  0  0  0  0  0  0  0
    1.3569   10.2965   -0.6413 H   0  0  0  0  0  0  0  0  0  0  0  0
    2.9152   11.1900   -0.6413 H   0  0  0  0  0  0  0  0  0  0  0  0
  1  2  1  0
  2  3  1  0
  3  4  1  0
  4  5  1  0
  5  6  1  0
  6  7  1  0
  7  8  1  0
  7  9  1  0
  2 10  1  0
 10 11  1  0
 11 12  1  0
 12 13  1  0
 13 14  1  6
 13 15  1  0
 15 16  1  0
 16 17  1  0
 17 18  2  0
 18 19  1  0
 19 20  1  0
 20 21  1  0
 21 22  1  0
 22 23  1  0
 22 24  1  0
 24 25  1  0
 24 26  1  0
 19 27  1  0
 27 28  1  1
 27 29  1  0
 29 30  1  0
 30 31  1  0
 31 32  1  1
  7  5  1  0
 31 10  1  0
 31 13  1  0
 27 15  1  0
 24 18  1  0
  1 33  1  0
  1 34  1  0
  1 35  1  0
  2 36  1  6
  3 37  1  0
  3 38  1  0
  4 39  1  0
  4 40  1  0
  5 41  1  1
  8 42  1  0
  8 43  1  0
  8 44  1  0
  9 45  1  0
  9 46  1  0
  9 47  1  0
 10 48  1  6
 11 49  1  0
 11 50  1  0
 12 51  1  0
 12 52  1  0
 14 53  1  0
 14 54  1  0
 14 55  1  0
 15 56  1  1
 16 57  1  0
 16 58  1  0
 17 59  1  0
 19 60  1  6
 20 61  1  0
 20 62  1  0
 21 63  1  0
 21 64  1  0
 22 65  1  6
 23 66  1  0
 25 67  1  0
 25 68  1  0
 25 69  1  0
 26 70  1  0
 26 71  1  0
 26 72  1  0
 28 73  1  0
 28 74  1  0
 28 75  1  0
 29 76  1  0
 29 77  1  0
 30 78  1  0
 30 79  1  0
 32 80  1  0
 32 81  1  0
 32 82  1  0
M  END
>  <meeko>  (8) 
{"is_sidechain": [false], "intermolecular_energy": 2.731, "internal_energy": -0.839}

$$$$
EPH_relaxed_0001_pdb2pqr_Repair_364_r2_0001_out
     RDKit          3D

 82 86  0  0  0  0  0  0  0  0999 V2000
    2.6820   17.9330   -3.8540 C   0  0  0  0  0  0  0  0  0  0  0  0
    2.0010   17.8790   -2.4840 C   0  0  2  0  0  0  0  0  0  0  0  0
    2.5030   18.9900   -1.5410 C   0  0  0  0  0  0  0  0  0  0  0  0
    1.5540   20.1880   -1.4420 C   0  0  0  0  0  0  0  0  0  0  0  0
    0.4830   19.9630   -0.4180 C   0  0  2  0  0  0  0  0  0  0  0  0
   -0.2300   18.7280   -0.5580 O   0  0  0  0  0  0  0  0  0  0  0  0
   -0.9970   19.9270   -0.7490 C   0  0  0  0  0  0  0  0  0  0  0  0
   -1.4880   20.1190   -2.1500 C   0  0  0  0  0  0  0  0  0  0  0  0
   -1.9830   20.1940    0.3460 C   0  0  0  0  0  0  0  0  0  0  0  0
    2.2260   16.5130   -1.8460 C   0  0  1  0  0  0  0  0  0  0  0  0
    2.8060   16.6130   -0.4100 C   0  0  0  0  0  0  0  0  0  0  0  0
    2.1940   15.4430    0.4030 C   0  0  0  0  0  0  0  0  0  0  0  0
    1.5510   14.5240   -0.6620 C   0  0  1  0  0  0  0  0  0  0  0  0
    2.7340   13.6770   -1.2280 C   0  0  0  0  0  0  0  0  0  0  0  0
    0.3750   13.6170   -0.1720 C   0  0  2  0  0  0  0  0  0  0  0  0
    0.7510   12.5880    0.9080 C   0  0  0  0  0  0  0  0  0  0  0  0
    1.1920   11.2570    0.3960 C   0  0  0  0  0  0  0  0  0  0  0  0
    1.0140   10.8040   -0.8590 C   0  0  0  0  0  0  0  0  0  0  0  0
    0.2230   11.6230   -1.8870 C   0  0  1  0  0  0  0  0  0  0  0  0
   -0.7810   10.6980   -2.6240 C   0  0  0  0  0  0  0  0  0  0  0  0
   -0.1050    9.4780   -3.2440 C   0  0  0  0  0  0  0  0  0  0  0  0
    0.6220    8.6580   -2.1820 C   0  0  2  0  0  0  0  0  0  0  0  0
   -0.3470    8.0900   -1.2950 O   0  0  0  0  0  0  0  0  0  0  0  0
    1.6530    9.4880   -1.3670 C   0  0  0  0  0  0  0  0  0  0  0  0
    2.8590    9.8490   -2.2680 C   0  0  0  0  0  0  0  0  0  0  0  0
    2.2110    8.5800   -0.2380 C   0  0  0  0  0  0  0  0  0  0  0  0
   -0.4590   12.9500   -1.3400 C   0  0  1  0  0  0  0  0  0  0  0  0
   -1.8650   12.6220   -0.7520 C   0  0  0  0  0  0  0  0  0  0  0  0
   -0.7000   13.9380   -2.5430 C   0  0  0  0  0  0  0  0  0  0  0  0
    0.4570   14.8910   -2.9010 C   0  0  0  0  0  0  0  0  0  0  0  0
    0.9860   15.6040   -1.6540 C   0  0  2  0  0  0  0  0  0  0  0  0
   -0.1760   16.4810   -1.0750 C   0  0  0  0  0  0  0  0  0  0  0  0
    3.7703   18.0193   -3.7193 H   0  0  0  0  0  0  0  0  0  0  0  0
    2.4535   17.0139   -4.4135 H   0  0  0  0  0  0  0  0  0  0  0  0
    2.3115   18.8046   -4.4135 H   0  0  0  0  0  0  0  0  0  0  0  0
    0.9250   18.0431   -2.6427 H   0  0  0  0  0  0  0  0  0  0  0  0
    2.6281   18.5619   -0.5355 H   0  0  0  0  0  0  0  0  0  0  0  0
    3.4497   19.3631   -1.9587 H   0  0  0  0  0  0  0  0  0  0  0  0
    2.1337   21.0799   -1.1617 H   0  0  0  0  0  0  0  0  0  0  0  0
    1.0701   20.3242   -2.4204 H   0  0  0  0  0  0  0  0  0  0  0  0
    1.0568   20.5193    0.3378 H   0  0  0  0  0  0  0  0  0  0  0  0
   -2.5123   20.5195   -2.1279 H   0  0  0  0  0  0  0  0  0  0  0  0
   -0.8292   20.8258   -2.6758 H   0  0  0  0  0  0  0  0  0  0  0  0
   -1.4834   19.1528   -2.6758 H   0  0  0  0  0  0  0  0  0  0  0  0
   -1.4924   20.0612    1.3216 H   0  0  0  0  0  0  0  0  0  0  0  0
   -2.3557   21.2254    0.2604 H   0  0  0  0  0  0  0  0  0  0  0  0
   -2.8252   19.4916    0.2604 H   0  0  0  0  0  0  0  0  0  0  0  0
    2.9042   16.0714   -2.5910 H   0  0  0  0  0  0  0  0  0  0  0  0
    3.9020   16.5227   -0.4371 H   0  0  0  0  0  0  0  0  0  0  0  0
    2.5608   17.5826    0.0480 H   0  0  0  0  0  0  0  0  0  0  0  0
    2.9761   14.9053    0.9590 H   0  0  0  0  0  0  0  0  0  0  0  0
    1.4651   15.7899    1.1503 H   0  0  0  0  0  0  0  0  0  0  0  0
    3.3176   13.2592   -0.3944 H   0  0  0  0  0  0  0  0  0  0  0  0
    2.3361   12.8572   -1.8442 H   0  0  0  0  0  0  0  0  0  0  0  0
    3.3818   14.3178   -1.8442 H   0  0  0  0  0  0  0  0  0  0  0  0
   -0.2900   14.3401    0.3229 H   0  0  0  0  0  0  0  0  0  0  0  0
    1.5707   13.0097    1.5082 H   0  0  0  0  0  0  0  0  0  0  0  0
   -0.1676   12.4028    1.4841 H   0  0  0  0  0  0  0  0  0  0  0  0
    1.7058   10.5901    1.1040 H   0  0  0  0  0  0  0  0  0  0  0  0
    0.9643   12.0131   -2.6000 H   0  0  0  0  0  0  0  0  0  0  0  0
   -1.5378   10.3539   -1.9037 H   0  0  0  0  0  0  0  0  0  0  0  0
   -1.2344   11.2797   -3.4401 H   0  0  0  0  0  0  0  0  0  0  0  0
   -0.8687    8.8486   -3.7243 H   0  0  0  0  0  0  0  0  0  0  0  0
    0.6308    9.8234   -3.9851 H   0  0  0  0  0  0  0  0  0  0  0  0
    1.1916    7.8742   -2.7028 H   0  0  0  0  0  0  0  0  0  0  0  0
   -0.5600    7.2000   -1.6230 H   0  0  0  0  0  0  0  0  0  0  0  0
    3.7229   10.1076   -1.6381 H   0  0  0  0  0  0  0  0  0  0  0  0
    3.1131    8.9875   -2.9031 H   0  0  0  0  0  0  0  0  0  0  0  0
    2.5980   10.7084   -2.9031 H   0  0  0  0  0  0  0  0  0  0  0  0
    1.9479    9.0081    0.7405 H   0  0  0  0  0  0  0  0  0  0  0  0
    1.7750    7.5741   -0.3273 H   0  0  0  0  0  0  0  0  0  0  0  0
    3.3054    8.5145   -0.3273 H   0  0  0  0  0  0  0  0  0  0  0  0
   -1.8147   12.6337    0.3468 H   0  0  0  0  0  0  0  0  0  0  0  0
   -2.5902   13.3751   -1.0939 H   0  0  0  0  0  0  0  0  0  0  0  0
   -2.1821   11.6258   -1.0939 H   0  0  0  0  0  0  0  0  0  0  0  0
   -0.9189   13.3308   -3.4337 H   0  0  0  0  0  0  0  0  0  0  0  0
   -1.5223   14.5924   -2.2182 H   0  0  0  0  0  0  0  0  0  0  0  0
    1.2728   14.3110   -3.3571 H   0  0  0  0  0  0  0  0  0  0  0  0
    0.0822   15.6483   -3.6053 H   0  0  0  0  0  0  0  0  0  0  0  0
   -0.1420   16.4554    0.0242 H   0  0  0  0  0  0  0  0  0  0  0  0
   -0.0599   17.5186   -1.4213 H   0  0  0  0  0  0  0  0  0  0  0  0
   -1.1420   16.0848   -1.4213 H   0  0  0  0  0  0  0  0  0  0  0  0
  1  2  1  0
  2  3  1  0
  3  4  1  0
  4  5  1  0
  5  6  1  0
  6  7  1  0
  7  8  1  0
  7  9  1  0
  2 10  1  0
 10 11  1  0
 11 12  1  0
 12 13  1  0
 13 14  1  6
 13 15  1  0
 15 16  1  0
 16 17  1  0
 17 18  2  0
 18 19  1  0
 19 20  1  0
 20 21  1  0
 21 22  1  0
 22 23  1  0
 22 24  1  0
 24 25  1  0
 24 26  1  0
 19 27  1  0
 27 28  1  1
 27 29  1  0
 29 30  1  0
 30 31  1  0
 31 32  1  1
  7  5  1  0
 31 10  1  0
 31 13  1  0
 27 15  1  0
 24 18  1  0
  1 33  1  0
  1 34  1  0
  1 35  1  0
  2 36  1  6
  3 37  1  0
  3 38  1  0
  4 39  1  0
  4 40  1  0
  5 41  1  1
  8 42  1  0
  8 43  1  0
  8 44  1  0
  9 45  1  0
  9 46  1  0
  9 47  1  0
 10 48  1  6
 11 49  1  0
 11 50  1  0
 12 51  1  0
 12 52  1  0
 14 53  1  0
 14 54  1  0
 14 55  1  0
 15 56  1  1
 16 57  1  0
 16 58  1  0
 17 59  1  0
 19 60  1  6
 20 61  1  0
 20 62  1  0
 21 63  1  0
 21 64  1  0
 22 65  1  6
 23 66  1  0
 25 67  1  0
 25 68  1  0
 25 69  1  0
 26 70  1  0
 26 71  1  0
 26 72  1  0
 28 73  1  0
 28 74  1  0
 28 75  1  0
 29 76  1  0
 29 77  1  0
 30 78  1  0
 30 79  1  0
 32 80  1  0
 32 81  1  0
 32 82  1  0
M  END
>  <meeko>  (9) 
{"is_sidechain": [false], "intermolecular_energy": 2.731, "internal_energy": -0.839}

$$$$
EPH_relaxed_0001_pdb2pqr_Repair_364_r2_0001_out
     RDKit          3D

 82 86  0  0  0  0  0  0  0  0999 V2000
    0.0640    9.4240   -2.5480 C   0  0  0  0  0  0  0  0  0  0  0  0
    1.1850   10.4010   -2.9130 C   0  0  2  0  0  0  0  0  0  0  0  0
    2.5680    9.7200   -2.9250 C   0  0  0  0  0  0  0  0  0  0  0  0
    3.5420   10.3220   -3.9410 C   0  0  0  0  0  0  0  0  0  0  0  0
    4.9080   10.5130   -3.3550 C   0  0  2  0  0  0  0  0  0  0  0  0
    5.4670   11.8180   -3.5520 O   0  0  0  0  0  0  0  0  0  0  0  0
    6.1550   10.7300   -4.1920 C   0  0  0  0  0  0  0  0  0  0  0  0
    6.0950   10.7670   -5.6870 C   0  0  0  0  0  0  0  0  0  0  0  0
    7.4870   10.4190   -3.5850 C   0  0  0  0  0  0  0  0  0  0  0  0
    1.1900   11.5730   -1.9380 C   0  0  1  0  0  0  0  0  0  0  0  0
    2.2530   11.4140   -0.8180 C   0  0  0  0  0  0  0  0  0  0  0  0
    2.7840   12.8350   -0.5000 C   0  0  0  0  0  0  0  0  0  0  0  0
    1.7870   13.7890   -1.1990 C   0  0  1  0  0  0  0  0  0  0  0  0
    0.5730   13.8870   -0.2220 C   0  0  0  0  0  0  0  0  0  0  0  0
    2.3350   15.2030   -1.5820 C   0  0  2  0  0  0  0  0  0  0  0  0
    2.7820   16.0730   -0.3940 C   0  0  0  0  0  0  0  0  0  0  0  0
    1.7240   16.9500    0.1870 C   0  0  0  0  0  0  0  0  0  0  0  0
    0.5490   17.2510   -0.3970 C   0  0  0  0  0  0  0  0  0  0  0  0
    0.2290   16.7680   -1.8180 C   0  0  1  0  0  0  0  0  0  0  0  0
   -0.3530   17.9430   -2.6460 C   0  0  0  0  0  0  0  0  0  0  0  0
   -1.5530   18.5980   -1.9690 C   0  0  0  0  0  0  0  0  0  0  0  0
   -1.1810   19.1180   -0.5830 C   0  0  2  0  0  0  0  0  0  0  0  0
   -0.2500   20.1940   -0.7290 O   0  0  0  0  0  0  0  0  0  0  0  0
   -0.5730   18.0230    0.3390 C   0  0  0  0  0  0  0  0  0  0  0  0
   -1.6750   17.0120    0.7420 C   0  0  0  0  0  0  0  0  0  0  0  0
   -0.1110   18.7090    1.6530 C   0  0  0  0  0  0  0  0  0  0  0  0
    1.4050   16.0120   -2.5740 C   0  0  1  0  0  0  0  0  0  0  0  0
    2.3210   17.0440   -3.3000 C   0  0  0  0  0  0  0  0  0  0  0  0
    0.7890   15.0970   -3.6980 C   0  0  0  0  0  0  0  0  0  0  0  0
    0.3770   13.6710   -3.2840 C   0  0  0  0  0  0  0  0  0  0  0  0
    1.5040   12.9760   -2.5150 C   0  0  2  0  0  0  0  0  0  0  0  0
    2.7310   12.8430   -3.4800 C   0  0  0  0  0  0  0  0  0  0  0  0
   -0.0181    9.3525   -1.4534 H   0  0  0  0  0  0  0  0  0  0  0  0
   -0.8877    9.7859   -2.9642 H   0  0  0  0  0  0  0  0  0  0  0  0
    0.2925    8.4317   -2.9642 H   0  0  0  0  0  0  0  0  0  0  0  0
    0.9880   10.7653   -3.9320 H   0  0  0  0  0  0  0  0  0  0  0  0
    3.0101    9.8142   -1.9222 H   0  0  0  0  0  0  0  0  0  0  0  0
    2.4073    8.6715   -3.2162 H   0  0  0  0  0  0  0  0  0  0  0  0
    3.6167    9.6469   -4.8062 H   0  0  0  0  0  0  0  0  0  0  0  0
    3.1574   11.3078   -4.2416 H   0  0  0  0  0  0  0  0  0  0  0  0
    4.6808    9.8124   -2.5379 H   0  0  0  0  0  0  0  0  0  0  0  0
    5.1985   11.3198   -6.0044 H   0  0  0  0  0  0  0  0  0  0  0  0
    6.9926   11.2687   -6.0777 H   0  0  0  0  0  0  0  0  0  0  0  0
    6.0498    9.7397   -6.0777 H   0  0  0  0  0  0  0  0  0  0  0  0
    7.4037   10.4384   -2.4883 H   0  0  0  0  0  0  0  0  0  0  0  0
    7.8140    9.4204   -3.9102 H   0  0  0  0  0  0  0  0  0  0  0  0
    8.2224   11.1696   -3.9102 H   0  0  0  0  0  0  0  0  0  0  0  0
    0.1457   11.5323   -1.5949 H   0  0  0  0  0  0  0  0  0  0  0  0
    1.7950   10.9714    0.0788 H   0  0  0  0  0  0  0  0  0  0  0  0
    3.0692   10.7503   -1.1396 H   0  0  0  0  0  0  0  0  0  0  0  0
    2.7946   13.0117    0.5857 H   0  0  0  0  0  0  0  0  0  0  0  0
    3.8169   12.9823   -0.8486 H   0  0  0  0  0  0  0  0  0  0  0  0
    0.9347   13.8578    0.8164 H   0  0  0  0  0  0  0  0  0  0  0  0
    0.0368   14.8314   -0.3971 H   0  0  0  0  0  0  0  0  0  0  0  0
   -0.1078   13.0409   -0.3971 H   0  0  0  0  0  0  0  0  0  0  0  0
    3.2537   14.9581   -2.1351 H   0  0  0  0  0  0  0  0  0  0  0  0
    3.1429   15.4036    0.4007 H   0  0  0  0  0  0  0  0  0  0  0  0
    3.5563   16.7489   -0.7860 H   0  0  0  0  0  0  0  0  0  0  0  0
    1.9208   17.3879    1.1767 H   0  0  0  0  0  0  0  0  0  0  0  0
   -0.5291   15.9787   -1.7074 H   0  0  0  0  0  0  0  0  0  0  0  0
    0.4322   18.7012   -2.7823 H   0  0  0  0  0  0  0  0  0  0  0  0
   -0.6943   17.5358   -3.6092 H   0  0  0  0  0  0  0  0  0  0  0  0
   -1.9007   19.4386   -2.5875 H   0  0  0  0  0  0  0  0  0  0  0  0
   -2.3482   17.8459   -1.8599 H   0  0  0  0  0  0  0  0  0  0  0  0
   -2.1081   19.4578   -0.0983 H   0  0  0  0  0  0  0  0  0  0  0  0
    0.4950   19.8690   -1.2630 H   0  0  0  0  0  0  0  0  0  0  0  0
   -1.7370   16.9551    1.8388 H   0  0  0  0  0  0  0  0  0  0  0  0
   -2.6425   17.3433    0.3367 H   0  0  0  0  0  0  0  0  0  0  0  0
   -1.4281   16.0196    0.3367 H   0  0  0  0  0  0  0  0  0  0  0  0
   -0.4922   18.1430    2.5158 H   0  0  0  0  0  0  0  0  0  0  0  0
    0.9882   18.7333    1.6871 H   0  0  0  0  0  0  0  0  0  0  0  0
   -0.5017   19.7367    1.6871 H   0  0  0  0  0  0  0  0  0  0  0  0
    2.8570   17.6478   -2.5529 H   0  0  0  0  0  0  0  0  0  0  0  0
    3.0478   16.5099   -3.9296 H   0  0  0  0  0  0  0  0  0  0  0  0
    1.7044   17.7023   -3.9296 H   0  0  0  0  0  0  0  0  0  0  0  0
   -0.1075   15.6033   -4.0853 H   0  0  0  0  0  0  0  0  0  0  0  0
    1.5956   14.9617   -4.4336 H   0  0  0  0  0  0  0  0  0  0  0  0
   -0.5152   13.7261   -2.6430 H   0  0  0  0  0  0  0  0  0  0  0  0
    0.1628   13.0901   -4.1932 H   0  0  0  0  0  0  0  0  0  0  0  0
    3.6533   12.7430   -2.8888 H   0  0  0  0  0  0  0  0  0  0  0  0
    2.6038   11.9534   -4.1144 H   0  0  0  0  0  0  0  0  0  0  0  0
    2.7974   13.7392   -4.1144 H   0  0  0  0  0  0  0  0  0  0  0  0
  1  2  1  0
  2  3  1  0
  3  4  1  0
  4  5  1  0
  5  6  1  0
  6  7  1  0
  7  8  1  0
  7  9  1  0
  2 10  1  0
 10 11  1  0
 11 12  1  0
 12 13  1  0
 13 14  1  1
 13 15  1  0
 15 16  1  0
 16 17  1  0
 17 18  2  0
 18 19  1  0
 19 20  1  0
 20 21  1  0
 21 22  1  0
 22 23  1  0
 22 24  1  0
 24 25  1  0
 24 26  1  0
 19 27  1  0
 27 28  1  6
 27 29  1  0
 29 30  1  0
 30 31  1  0
 31 32  1  6
  7  5  1  0
 31 10  1  0
 31 13  1  0
 27 15  1  0
 24 18  1  0
  1 33  1  0
  1 34  1  0
  1 35  1  0
  2 36  1  6
  3 37  1  0
  3 38  1  0
  4 39  1  0
  4 40  1  0
  5 41  1  1
  8 42  1  0
  8 43  1  0
  8 44  1  0
  9 45  1  0
  9 46  1  0
  9 47  1  0
 10 48  1  1
 11 49  1  0
 11 50  1  0
 12 51  1  0
 12 52  1  0
 14 53  1  0
 14 54  1  0
 14 55  1  0
 15 56  1  6
 16 57  1  0
 16 58  1  0
 17 59  1  0
 19 60  1  1
 20 61  1  0
 20 62  1  0
 21 63  1  0
 21 64  1  0
 22 65  1  1
 23 66  1  0
 25 67  1  0
 25 68  1  0
 25 69  1  0
 26 70  1  0
 26 71  1  0
 26 72  1  0
 28 73  1  0
 28 74  1  0
 28 75  1  0
 29 76  1  0
 29 77  1  0
 30 78  1  0
 30 79  1  0
 32 80  1  0
 32 81  1  0
 32 82  1  0
M  END
>  <meeko>  (10) 
{"is_sidechain": [false], "intermolecular_energy": 2.731, "internal_energy": -0.839}

$$$$
EPH_relaxed_0001_pdb2pqr_Repair_364_r2_0001_out
     RDKit          3D

 82 86  0  0  0  0  0  0  0  0999 V2000
   -0.9130   16.3950   -5.8710 C   0  0  0  0  0  0  0  0  0  0  0  0
    0.1850   15.6970   -6.6790 C   0  0  2  0  0  0  0  0  0  0  0  0
   -0.2150   15.5040   -8.1550 C   0  0  0  0  0  0  0  0  0  0  0  0
    0.4390   16.5090   -9.1070 C   0  0  0  0  0  0  0  0  0  0  0  0
    1.8460   16.1160   -9.4460 C   0  0  2  0  0  0  0  0  0  0  0  0
    2.3460   16.6770  -10.6660 O   0  0  0  0  0  0  0  0  0  0  0  0
    2.2080   15.2470  -10.6360 C   0  0  0  0  0  0  0  0  0  0  0  0
    1.1600   14.7180  -11.5640 C   0  0  0  0  0  0  0  0  0  0  0  0
    3.5140   14.5160  -10.6170 C   0  0  0  0  0  0  0  0  0  0  0  0
    0.5180   14.3500   -6.0490 C   0  0  1  0  0  0  0  0  0  0  0  0
    1.7480   13.6710   -6.7070 C   0  0  0  0  0  0  0  0  0  0  0  0
    2.4980   12.9150   -5.5800 C   0  0  0  0  0  0  0  0  0  0  0  0
    1.5090   12.9060   -4.3910 C   0  0  1  0  0  0  0  0  0  0  0  0
    0.5260   11.7320   -4.6960 C   0  0  0  0  0  0  0  0  0  0  0  0
    2.1400   12.7740   -2.9670 C   0  0  2  0  0  0  0  0  0  0  0  0
    2.9090   11.4650   -2.7120 C   0  0  0  0  0  0  0  0  0  0  0  0
    2.0950   10.3480   -2.1480 C   0  0  0  0  0  0  0  0  0  0  0  0
    0.8760   10.4720   -1.5920 C   0  0  0  0  0  0  0  0  0  0  0  0
    0.2330   11.8520   -1.4010 C   0  0  1  0  0  0  0  0  0  0  0  0
   -0.3510   11.9570    0.0330 C   0  0  0  0  0  0  0  0  0  0  0  0
   -1.3100   10.8170    0.3580 C   0  0  0  0  0  0  0  0  0  0  0  0
   -0.6190    9.4640    0.2130 C   0  0  2  0  0  0  0  0  0  0  0  0
    0.3900    9.3510    1.2220 O   0  0  0  0  0  0  0  0  0  0  0  0
    0.0170    9.2480   -1.1890 C   0  0  0  0  0  0  0  0  0  0  0  0
   -1.1010    9.0690   -2.2450 C   0  0  0  0  0  0  0  0  0  0  0  0
    0.8020    7.9080   -1.1560 C   0  0  0  0  0  0  0  0  0  0  0  0
    1.1420   13.0980   -1.7830 C   0  0  1  0  0  0  0  0  0  0  0  0
    2.0200   13.5110   -0.5610 C   0  0  0  0  0  0  0  0  0  0  0  0
    0.2170   14.3310   -2.1010 C   0  0  0  0  0  0  0  0  0  0  0  0
   -0.2780   14.4720   -3.5530 C   0  0  0  0  0  0  0  0  0  0  0  0
    0.8830   14.3400   -4.5430 C   0  0  2  0  0  0  0  0  0  0  0  0
    1.8770   15.5210   -4.2750 C   0  0  0  0  0  0  0  0  0  0  0  0
   -0.7141   16.2686   -4.7965 H   0  0  0  0  0  0  0  0  0  0  0  0
   -0.9249   17.4668   -6.1181 H   0  0  0  0  0  0  0  0  0  0  0  0
   -1.8886   15.9509   -6.1181 H   0  0  0  0  0  0  0  0  0  0  0  0
    1.0732   16.3456   -6.6595 H   0  0  0  0  0  0  0  0  0  0  0  0
    0.0792   14.4903   -8.4647 H   0  0  0  0  0  0  0  0  0  0  0  0
   -1.3016   15.6633   -8.2168 H   0  0  0  0  0  0  0  0  0  0  0  0
   -0.1509   16.5579  -10.0342 H   0  0  0  0  0  0  0  0  0  0  0  0
    0.4672   17.4880   -8.6062 H   0  0  0  0  0  0  0  0  0  0  0  0
    2.1111   16.0549   -8.3802 H   0  0  0  0  0  0  0  0  0  0  0  0
    0.3291   14.2986  -10.9778 H   0  0  0  0  0  0  0  0  0  0  0  0
    0.7856   15.5351  -12.1982 H   0  0  0  0  0  0  0  0  0  0  0  0
    1.5950   13.9315  -12.1982 H   0  0  0  0  0  0  0  0  0  0  0  0
    3.8224   14.3434   -9.5753 H   0  0  0  0  0  0  0  0  0  0  0  0
    3.4010   13.5500  -11.1308 H   0  0  0  0  0  0  0  0  0  0  0  0
    4.2783   15.1174  -11.1308 H   0  0  0  0  0  0  0  0  0  0  0  0
   -0.4385   13.8305   -6.2076 H   0  0  0  0  0  0  0  0  0  0  0  0
    1.4202   12.9646   -7.4838 H   0  0  0  0  0  0  0  0  0  0  0  0
    2.4012   14.4156   -7.1855 H   0  0  0  0  0  0  0  0  0  0  0  0
    2.7373   11.8882   -5.8938 H   0  0  0  0  0  0  0  0  0  0  0  0
    3.4551   13.3923   -5.3228 H   0  0  0  0  0  0  0  0  0  0  0  0
    0.1651   11.3010   -3.7505 H   0  0  0  0  0  0  0  0  0  0  0  0
   -0.3285   12.1105   -5.2762 H   0  0  0  0  0  0  0  0  0  0  0  0
    1.0488   10.9574   -5.2762 H   0  0  0  0  0  0  0  0  0  0  0  0
    2.8991   13.5701   -2.9713 H   0  0  0  0  0  0  0  0  0  0  0  0
    3.3326   11.1274   -3.6694 H   0  0  0  0  0  0  0  0  0  0  0  0
    3.6696   11.7012   -1.9532 H   0  0  0  0  0  0  0  0  0  0  0  0
    2.5285    9.3379   -2.1905 H   0  0  0  0  0  0  0  0  0  0  0  0
   -0.5795   11.9148   -2.1399 H   0  0  0  0  0  0  0  0  0  0  0  0
    0.4792   11.9361    0.7544 H   0  0  0  0  0  0  0  0  0  0  0  0
   -0.9173   12.8980    0.0951 H   0  0  0  0  0  0  0  0  0  0  0  0
   -1.6661   10.9302    1.3926 H   0  0  0  0  0  0  0  0  0  0  0  0
   -2.1541   10.8571   -0.3462 H   0  0  0  0  0  0  0  0  0  0  0  0
   -1.3880    8.6864    0.3315 H   0  0  0  0  0  0  0  0  0  0  0  0
    0.3130    8.4660    1.6170 H   0  0  0  0  0  0  0  0  0  0  0  0
   -2.0642    8.9148   -1.7367 H   0  0  0  0  0  0  0  0  0  0  0  0
   -1.1585    9.9694   -2.8743 H   0  0  0  0  0  0  0  0  0  0  0  0
   -0.8746    8.1957   -2.8743 H   0  0  0  0  0  0  0  0  0  0  0  0
    0.9762    7.6107   -0.1114 H   0  0  0  0  0  0  0  0  0  0  0  0
    0.2179    7.1282   -1.6666 H   0  0  0  0  0  0  0  0  0  0  0  0
    1.7678    8.0362   -1.6666 H   0  0  0  0  0  0  0  0  0  0  0  0
    1.4914   13.2623    0.3710 H   0  0  0  0  0  0  0  0  0  0  0  0
    2.9761   12.9682   -0.5963 H   0  0  0  0  0  0  0  0  0  0  0  0
    2.2115   14.5936   -0.5963 H   0  0  0  0  0  0  0  0  0  0  0  0
   -0.6689   14.2582   -1.4530 H   0  0  0  0  0  0  0  0  0  0  0  0
    0.8461   15.2159   -1.9243 H   0  0  0  0  0  0  0  0  0  0  0  0
   -1.0179   13.6846   -3.7590 H   0  0  0  0  0  0  0  0  0  0  0  0
   -0.7309   15.4671   -3.6742 H   0  0  0  0  0  0  0  0  0  0  0  0
    1.9954   15.6617   -3.1905 H   0  0  0  0  0  0  0  0  0  0  0  0
    2.8539   15.2869   -4.7232 H   0  0  0  0  0  0  0  0  0  0  0  0
    1.4796   16.4436   -4.7232 H   0  0  0  0  0  0  0  0  0  0  0  0
  1  2  1  0
  2  3  1  0
  3  4  1  0
  4  5  1  0
  5  6  1  0
  6  7  1  0
  7  8  1  0
  7  9  1  0
  2 10  1  0
 10 11  1  0
 11 12  1  0
 12 13  1  0
 13 14  1  6
 13 15  1  0
 15 16  1  0
 16 17  1  0
 17 18  2  0
 18 19  1  0
 19 20  1  0
 20 21  1  0
 21 22  1  0
 22 23  1  0
 22 24  1  0
 24 25  1  0
 24 26  1  0
 19 27  1  0
 27 28  1  1
 27 29  1  0
 29 30  1  0
 30 31  1  0
 31 32  1  6
  7  5  1  0
 31 10  1  0
 31 13  1  0
 27 15  1  0
 24 18  1  0
  1 33  1  0
  1 34  1  0
  1 35  1  0
  2 36  1  6
  3 37  1  0
  3 38  1  0
  4 39  1  0
  4 40  1  0
  5 41  1  1
  8 42  1  0
  8 43  1  0
  8 44  1  0
  9 45  1  0
  9 46  1  0
  9 47  1  0
 10 48  1  1
 11 49  1  0
 11 50  1  0
 12 51  1  0
 12 52  1  0
 14 53  1  0
 14 54  1  0
 14 55  1  0
 15 56  1  6
 16 57  1  0
 16 58  1  0
 17 59  1  0
 19 60  1  6
 20 61  1  0
 20 62  1  0
 21 63  1  0
 21 64  1  0
 22 65  1  1
 23 66  1  0
 25 67  1  0
 25 68  1  0
 25 69  1  0
 26 70  1  0
 26 71  1  0
 26 72  1  0
 28 73  1  0
 28 74  1  0
 28 75  1  0
 29 76  1  0
 29 77  1  0
 30 78  1  0
 30 79  1  0
 32 80  1  0
 32 81  1  0
 32 82  1  0
M  END
>  <meeko>  (11) 
{"is_sidechain": [false], "intermolecular_energy": 2.731, "internal_energy": -0.839}

$$$$
EPH_relaxed_0001_pdb2pqr_Repair_364_r2_0001_out
     RDKit          3D

 82 86  0  0  0  0  0  0  0  0999 V2000
    0.0880   17.8850   -2.4490 C   0  0  0  0  0  0  0  0  0  0  0  0
   -0.2680   16.9240   -1.3100 C   0  0  2  0  0  0  0  0  0  0  0  0
   -0.4190   17.6550    0.0390 C   0  0  0  0  0  0  0  0  0  0  0  0
    0.2280   19.0420    0.0640 C   0  0  0  0  0  0  0  0  0  0  0  0
    1.4450   19.0710    0.9380 C   0  0  2  0  0  0  0  0  0  0  0  0
    2.3090   20.1940    0.7240 O   0  0  0  0  0  0  0  0  0  0  0  0
    2.8580   18.9040    0.4100 C   0  0  0  0  0  0  0  0  0  0  0  0
    3.1260   18.6960   -1.0480 C   0  0  0  0  0  0  0  0  0  0  0  0
    3.9280   18.4570    1.3560 C   0  0  0  0  0  0  0  0  0  0  0  0
    0.7940   15.8370   -1.1980 C   0  0  1  0  0  0  0  0  0  0  0  0
    0.8750   15.2260    0.2270 C   0  0  0  0  0  0  0  0  0  0  0  0
    1.2180   13.7240    0.0510 C   0  0  0  0  0  0  0  0  0  0  0  0
    1.6470   13.5930   -1.4290 C   0  0  1  0  0  0  0  0  0  0  0  0
    3.1350   14.0660   -1.4590 C   0  0  0  0  0  0  0  0  0  0  0  0
    1.4780   12.1790   -2.0750 C   0  0  2  0  0  0  0  0  0  0  0  0
    2.3190   11.0630   -1.4310 C   0  0  0  0  0  0  0  0  0  0  0  0
    3.6740   10.8630   -2.0240 C   0  0  0  0  0  0  0  0  0  0  0  0
    4.0900   11.3500   -3.2080 C   0  0  0  0  0  0  0  0  0  0  0  0
    3.1260   12.1090   -4.1290 C   0  0  1  0  0  0  0  0  0  0  0  0
    3.2740   11.5820   -5.5810 C   0  0  0  0  0  0  0  0  0  0  0  0
    4.7150   11.6300   -6.0770 C   0  0  0  0  0  0  0  0  0  0  0  0
    5.6330   10.8160   -5.1680 C   0  0  2  0  0  0  0  0  0  0  0  0
    5.2860    9.4330   -5.2820 O   0  0  0  0  0  0  0  0  0  0  0  0
    5.5620   11.2520   -3.6780 C   0  0  0  0  0  0  0  0  0  0  0  0
    6.2200   12.6440   -3.5100 C   0  0  0  0  0  0  0  0  0  0  0  0
    6.4250   10.2620   -2.8500 C   0  0  0  0  0  0  0  0  0  0  0  0
    1.6110   12.1670   -3.6520 C   0  0  1  0  0  0  0  0  0  0  0  0
    0.8470   10.9040   -4.1530 C   0  0  0  0  0  0  0  0  0  0  0  0
    0.9080   13.4060   -4.3210 C   0  0  0  0  0  0  0  0  0  0  0  0
    1.0090   14.7500   -3.5740 C   0  0  0  0  0  0  0  0  0  0  0  0
    0.6310   14.5870   -2.0990 C   0  0  2  0  0  0  0  0  0  0  0  0
   -0.8680   14.1340   -2.0370 C   0  0  0  0  0  0  0  0  0  0  0  0
    0.4410   18.8379   -2.0279 H   0  0  0  0  0  0  0  0  0  0  0  0
    0.8815   17.4415   -3.0684 H   0  0  0  0  0  0  0  0  0  0  0  0
   -0.8029   18.0655   -3.0684 H   0  0  0  0  0  0  0  0  0  0  0  0
   -1.2408   16.4700   -1.5500 H   0  0  0  0  0  0  0  0  0  0  0  0
   -1.4918   17.7685    0.2542 H   0  0  0  0  0  0  0  0  0  0  0  0
    0.0988   17.0455    0.7942 H   0  0  0  0  0  0  0  0  0  0  0  0
    0.5183   19.3183   -0.9604 H   0  0  0  0  0  0  0  0  0  0  0  0
   -0.5041   19.7542    0.4723 H   0  0  0  0  0  0  0  0  0  0  0  0
    0.8992   18.5763    1.7549 H   0  0  0  0  0  0  0  0  0  0  0  0
    3.9896   18.0257   -1.1701 H   0  0  0  0  0  0  0  0  0  0  0  0
    2.2420   18.2452   -1.5226 H   0  0  0  0  0  0  0  0  0  0  0  0
    3.3433   19.6642   -1.5226 H   0  0  0  0  0  0  0  0  0  0  0  0
    3.5852   18.6002    2.3914 H   0  0  0  0  0  0  0  0  0  0  0  0
    4.1464   17.3924    1.1860 H   0  0  0  0  0  0  0  0  0  0  0  0
    4.8388   19.0499    1.1860 H   0  0  0  0  0  0  0  0  0  0  0  0
    1.6792   16.4117   -1.5082 H   0  0  0  0  0  0  0  0  0  0  0  0
    1.6608   15.7282    0.8103 H   0  0  0  0  0  0  0  0  0  0  0  0
   -0.0754   15.3535    0.7660 H   0  0  0  0  0  0  0  0  0  0  0  0
    2.0402   13.4323    0.7210 H   0  0  0  0  0  0  0  0  0  0  0  0
    0.3688   13.0702    0.2987 H   0  0  0  0  0  0  0  0  0  0  0  0
    3.5034   14.1831   -0.4291 H   0  0  0  0  0  0  0  0  0  0  0  0
    3.7470   13.3181   -1.9845 H   0  0  0  0  0  0  0  0  0  0  0  0
    3.2028   15.0300   -1.9845 H   0  0  0  0  0  0  0  0  0  0  0  0
    0.4309   11.9361   -1.8414 H   0  0  0  0  0  0  0  0  0  0  0  0
    2.4466   11.3053   -0.3656 H   0  0  0  0  0  0  0  0  0  0  0  0
    1.7686   10.1270   -1.6071 H   0  0  0  0  0  0  0  0  0  0  0  0
    4.3940   10.2669   -1.4442 H   0  0  0  0  0  0  0  0  0  0  0  0
    3.4298   13.1652   -4.0823 H   0  0  0  0  0  0  0  0  0  0  0  0
    2.9240   10.5397   -5.6151 H   0  0  0  0  0  0  0  0  0  0  0  0
    2.6743   12.2324   -6.2347 H   0  0  0  0  0  0  0  0  0  0  0  0
    4.7589   11.2171   -7.0956 H   0  0  0  0  0  0  0  0  0  0  0  0
    5.0535   12.6766   -6.0710 H   0  0  0  0  0  0  0  0  0  0  0  0
    6.6671   10.9941   -5.4979 H   0  0  0  0  0  0  0  0  0  0  0  0
    5.5140    9.1460   -6.1830 H   0  0  0  0  0  0  0  0  0  0  0  0
    6.3277   12.8718   -2.4393 H   0  0  0  0  0  0  0  0  0  0  0  0
    7.2118   12.6406   -3.9857 H   0  0  0  0  0  0  0  0  0  0  0  0
    5.5878   13.4082   -3.9857 H   0  0  0  0  0  0  0  0  0  0  0  0
    6.2654   10.4451   -1.7772 H   0  0  0  0  0  0  0  0  0  0  0  0
    6.1335    9.2296   -3.0931 H   0  0  0  0  0  0  0  0  0  0  0  0
    7.4876   10.4099   -3.0931 H   0  0  0  0  0  0  0  0  0  0  0  0
    0.4948   10.3217   -3.2888 H   0  0  0  0  0  0  0  0  0  0  0  0
   -0.0149   11.2144   -4.7619 H   0  0  0  0  0  0  0  0  0  0  0  0
    1.5220   10.2846   -4.7619 H   0  0  0  0  0  0  0  0  0  0  0  0
    1.3547   13.5444   -5.3166 H   0  0  0  0  0  0  0  0  0  0  0  0
   -0.1641   13.1600   -4.3265 H   0  0  0  0  0  0  0  0  0  0  0  0
    2.0417   15.1226   -3.6418 H   0  0  0  0  0  0  0  0  0  0  0  0
    0.3113   15.4626   -4.0382 H   0  0  0  0  0  0  0  0  0  0  0  0
   -1.1794   14.0399   -0.9862 H   0  0  0  0  0  0  0  0  0  0  0  0
   -1.4982   14.8818   -2.5406 H   0  0  0  0  0  0  0  0  0  0  0  0
   -0.9785   13.1623   -2.5406 H   0  0  0  0  0  0  0  0  0  0  0  0
  1  2  1  0
  2  3  1  0
  3  4  1  0
  4  5  1  0
  5  6  1  0
  6  7  1  0
  7  8  1  0
  7  9  1  0
  2 10  1  0
 10 11  1  0
 11 12  1  0
 12 13  1  0
 13 14  1  1
 13 15  1  0
 15 16  1  0
 16 17  1  0
 17 18  2  0
 18 19  1  0
 19 20  1  0
 20 21  1  0
 21 22  1  0
 22 23  1  0
 22 24  1  0
 24 25  1  0
 24 26  1  0
 19 27  1  0
 27 28  1  6
 27 29  1  0
 29 30  1  0
 30 31  1  0
 31 32  1  6
  7  5  1  0
 31 10  1  0
 31 13  1  0
 27 15  1  0
 24 18  1  0
  1 33  1  0
  1 34  1  0
  1 35  1  0
  2 36  1  6
  3 37  1  0
  3 38  1  0
  4 39  1  0
  4 40  1  0
  5 41  1  1
  8 42  1  0
  8 43  1  0
  8 44  1  0
  9 45  1  0
  9 46  1  0
  9 47  1  0
 10 48  1  6
 11 49  1  0
 11 50  1  0
 12 51  1  0
 12 52  1  0
 14 53  1  0
 14 54  1  0
 14 55  1  0
 15 56  1  6
 16 57  1  0
 16 58  1  0
 17 59  1  0
 19 60  1  6
 20 61  1  0
 20 62  1  0
 21 63  1  0
 21 64  1  0
 22 65  1  6
 23 66  1  0
 25 67  1  0
 25 68  1  0
 25 69  1  0
 26 70  1  0
 26 71  1  0
 26 72  1  0
 28 73  1  0
 28 74  1  0
 28 75  1  0
 29 76  1  0
 29 77  1  0
 30 78  1  0
 30 79  1  0
 32 80  1  0
 32 81  1  0
 32 82  1  0
M  END
>  <meeko>  (12) 
{"is_sidechain": [false], "intermolecular_energy": 2.731, "internal_energy": -0.839}

$$$$
EPH_relaxed_0001_pdb2pqr_Repair_364_r2_0001_out
     RDKit          3D

 82 86  0  0  0  0  0  0  0  0999 V2000
   -4.1680    7.3780   -3.6320 C   0  0  0  0  0  0  0  0  0  0  0  0
   -3.7480    7.2440   -2.1660 C   0  0  2  0  0  0  0  0  0  0  0  0
   -4.9010    6.7410   -1.2740 C   0  0  0  0  0  0  0  0  0  0  0  0
   -6.0690    6.1390   -2.0600 C   0  0  0  0  0  0  0  0  0  0  0  0
   -7.3900    6.6380   -1.5580 C   0  0  2  0  0  0  0  0  0  0  0  0
   -8.3630    5.6130   -1.3150 O   0  0  0  0  0  0  0  0  0  0  0  0
   -8.6760    6.5510   -2.3580 C   0  0  0  0  0  0  0  0  0  0  0  0
   -8.7030    5.9500   -3.7290 C   0  0  0  0  0  0  0  0  0  0  0  0
   -9.7970    7.4820   -2.0150 C   0  0  0  0  0  0  0  0  0  0  0  0
   -3.2350    8.5820   -1.6480 C   0  0  1  0  0  0  0  0  0  0  0  0
   -3.9020    9.0020   -0.3110 C   0  0  0  0  0  0  0  0  0  0  0  0
   -2.8220    9.7460    0.5140 C   0  0  0  0  0  0  0  0  0  0  0  0
   -1.6820   10.0210   -0.4940 C   0  0  1  0  0  0  0  0  0  0  0  0
   -2.1370   11.2920   -1.2770 C   0  0  0  0  0  0  0  0  0  0  0  0
   -0.2510   10.1990    0.1130 C   0  0  2  0  0  0  0  0  0  0  0  0
   -0.0900   11.3980    1.0640 C   0  0  0  0  0  0  0  0  0  0  0  0
    0.3310   12.6740    0.4160 C   0  0  0  0  0  0  0  0  0  0  0  0
    0.8450   12.7900   -0.8230 C   0  0  0  0  0  0  0  0  0  0  0  0
    1.1400   11.5470   -1.6730 C   0  0  1  0  0  0  0  0  0  0  0  0
    2.5510   11.6740   -2.3040 C   0  0  0  0  0  0  0  0  0  0  0  0
    2.7270   12.9720   -3.0870 C   0  0  0  0  0  0  0  0  0  0  0  0
    2.4830   14.1850   -2.1940 C   0  0  2  0  0  0  0  0  0  0  0  0
    3.5170   14.2470   -1.2070 O   0  0  0  0  0  0  0  0  0  0  0  0
    1.0950   14.1630   -1.4960 C   0  0  0  0  0  0  0  0  0  0  0  0
   -0.0200   14.4000   -2.5440 C   0  0  0  0  0  0  0  0  0  0  0  0
    1.0330   15.3670   -0.5170 C   0  0  0  0  0  0  0  0  0  0  0  0
    0.9160   10.1470   -0.9550 C   0  0  1  0  0  0  0  0  0  0  0  0
    2.2060    9.7330   -0.1830 C   0  0  0  0  0  0  0  0  0  0  0  0
    0.6780    9.0410   -2.0490 C   0  0  0  0  0  0  0  0  0  0  0  0
   -0.7740    8.8300   -2.5200 C   0  0  0  0  0  0  0  0  0  0  0  0
   -1.7230    8.6880   -1.3260 C   0  0  2  0  0  0  0  0  0  0  0  0
   -1.3030    7.4050   -0.5310 C   0  0  0  0  0  0  0  0  0  0  0  0
   -5.2148    7.7120   -3.6845 H   0  0  0  0  0  0  0  0  0  0  0  0
   -3.5225    8.1148   -4.1325 H   0  0  0  0  0  0  0  0  0  0  0  0
   -4.0685    6.4035   -4.1325 H   0  0  0  0  0  0  0  0  0  0  0  0
   -2.9444    6.4942   -2.1200 H   0  0  0  0  0  0  0  0  0  0  0  0
   -4.5050    5.9707   -0.5959 H   0  0  0  0  0  0  0  0  0  0  0  0
   -5.2937    7.6145   -0.7329 H   0  0  0  0  0  0  0  0  0  0  0  0
   -5.9640    6.4126   -3.1202 H   0  0  0  0  0  0  0  0  0  0  0  0
   -6.0431    5.0469   -1.9306 H   0  0  0  0  0  0  0  0  0  0  0  0
   -6.9025    7.4735   -1.0342 H   0  0  0  0  0  0  0  0  0  0  0  0
   -8.7522    4.8541   -3.6480 H   0  0  0  0  0  0  0  0  0  0  0  0
   -9.5855    6.3175   -4.2731 H   0  0  0  0  0  0  0  0  0  0  0  0
   -7.7911    6.2369   -4.2731 H   0  0  0  0  0  0  0  0  0  0  0  0
   -9.8888    7.5582   -0.9215 H   0  0  0  0  0  0  0  0  0  0  0  0
   -9.5891    8.4769   -2.4357 H   0  0  0  0  0  0  0  0  0  0  0  0
  -10.7368    7.0950   -2.4357 H   0  0  0  0  0  0  0  0  0  0  0  0
   -3.4824    9.2191   -2.5099 H   0  0  0  0  0  0  0  0  0  0  0  0
   -4.7551    9.6684   -0.5064 H   0  0  0  0  0  0  0  0  0  0  0  0
   -4.2800    8.1245    0.2341 H   0  0  0  0  0  0  0  0  0  0  0  0
   -3.2213   10.6891    0.9155 H   0  0  0  0  0  0  0  0  0  0  0  0
   -2.4809    9.1595    1.3798 H   0  0  0  0  0  0  0  0  0  0  0  0
   -2.4193   12.0805   -0.5638 H   0  0  0  0  0  0  0  0  0  0  0  0
   -1.3106   11.6484   -1.9095 H   0  0  0  0  0  0  0  0  0  0  0  0
   -3.0018   11.0430   -1.9095 H   0  0  0  0  0  0  0  0  0  0  0  0
   -0.1480    9.3031    0.7429 H   0  0  0  0  0  0  0  0  0  0  0  0
   -1.0569   11.5712    1.5591 H   0  0  0  0  0  0  0  0  0  0  0  0
    0.7191   11.1285    1.7588 H   0  0  0  0  0  0  0  0  0  0  0  0
    0.2114   13.5985    0.9999 H   0  0  0  0  0  0  0  0  0  0  0  0
    0.3771   11.5324   -2.4653 H   0  0  0  0  0  0  0  0  0  0  0  0
    3.3010   11.6427   -1.4999 H   0  0  0  0  0  0  0  0  0  0  0  0
    2.6781   10.8390   -3.0087 H   0  0  0  0  0  0  0  0  0  0  0  0
    3.7521   13.0171   -3.4833 H   0  0  0  0  0  0  0  0  0  0  0  0
    1.9959   12.9882   -3.9087 H   0  0  0  0  0  0  0  0  0  0  0  0
    2.4955   15.0763   -2.8386 H   0  0  0  0  0  0  0  0  0  0  0  0
    4.3560   14.0240   -1.6460 H   0  0  0  0  0  0  0  0  0  0  0  0
   -0.9706   14.6021   -2.0287 H   0  0  0  0  0  0  0  0  0  0  0  0
    0.2460   15.2617   -3.1739 H   0  0  0  0  0  0  0  0  0  0  0  0
   -0.1275   13.5046   -3.1739 H   0  0  0  0  0  0  0  0  0  0  0  0
    1.0520   14.9984    0.5192 H   0  0  0  0  0  0  0  0  0  0  0  0
    1.8985   16.0239   -0.6884 H   0  0  0  0  0  0  0  0  0  0  0  0
    0.1046   15.9315   -0.6884 H   0  0  0  0  0  0  0  0  0  0  0  0
    2.0204    9.7926    0.8996 H   0  0  0  0  0  0  0  0  0  0  0  0
    2.4793    8.7020   -0.4520 H   0  0  0  0  0  0  0  0  0  0  0  0
    3.0282   10.4124   -0.4520 H   0  0  0  0  0  0  0  0  0  0  0  0
    1.2779    9.3107   -2.9307 H   0  0  0  0  0  0  0  0  0  0  0  0
    0.9648    8.0942   -1.5680 H   0  0  0  0  0  0  0  0  0  0  0  0
   -1.0848    9.6939   -3.1259 H   0  0  0  0  0  0  0  0  0  0  0  0
   -0.8187    7.9060   -3.1152 H   0  0  0  0  0  0  0  0  0  0  0  0
   -1.3684    7.6049    0.5487 H   0  0  0  0  0  0  0  0  0  0  0  0
   -1.9764    6.5752   -0.7918 H   0  0  0  0  0  0  0  0  0  0  0  0
   -0.2693    7.1341   -0.7918 H   0  0  0  0  0  0  0  0  0  0  0  0
  1  2  1  0
  2  3  1  0
  3  4  1  0
  4  5  1  0
  5  6  1  0
  6  7  1  0
  7  8  1  0
  7  9  1  0
  2 10  1  0
 10 11  1  0
 11 12  1  0
 12 13  1  0
 13 14  1  6
 13 15  1  0
 15 16  1  0
 16 17  1  0
 17 18  2  0
 18 19  1  0
 19 20  1  0
 20 21  1  0
 21 22  1  0
 22 23  1  0
 22 24  1  0
 24 25  1  0
 24 26  1  0
 19 27  1  0
 27 28  1  1
 27 29  1  0
 29 30  1  0
 30 31  1  0
 31 32  1  1
  7  5  1  0
 31 10  1  0
 31 13  1  0
 27 15  1  0
 24 18  1  0
  1 33  1  0
  1 34  1  0
  1 35  1  0
  2 36  1  6
  3 37  1  0
  3 38  1  0
  4 39  1  0
  4 40  1  0
  5 41  1  1
  8 42  1  0
  8 43  1  0
  8 44  1  0
  9 45  1  0
  9 46  1  0
  9 47  1  0
 10 48  1  6
 11 49  1  0
 11 50  1  0
 12 51  1  0
 12 52  1  0
 14 53  1  0
 14 54  1  0
 14 55  1  0
 15 56  1  1
 16 57  1  0
 16 58  1  0
 17 59  1  0
 19 60  1  6
 20 61  1  0
 20 62  1  0
 21 63  1  0
 21 64  1  0
 22 65  1  6
 23 66  1  0
 25 67  1  0
 25 68  1  0
 25 69  1  0
 26 70  1  0
 26 71  1  0
 26 72  1  0
 28 73  1  0
 28 74  1  0
 28 75  1  0
 29 76  1  0
 29 77  1  0
 30 78  1  0
 30 79  1  0
 32 80  1  0
 32 81  1  0
 32 82  1  0
M  END
>  <meeko>  (13) 
{"is_sidechain": [false], "intermolecular_energy": 2.731, "internal_energy": -0.839}

$$$$
EPH_relaxed_0001_pdb2pqr_Repair_364_r2_0001_out
     RDKit          3D

 82 86  0  0  0  0  0  0  0  0999 V2000
    3.1720   18.7040   -2.5530 C   0  0  0  0  0  0  0  0  0  0  0  0
    1.7510   18.7620   -1.9860 C   0  0  2  0  0  0  0  0  0  0  0  0
    1.5810   19.9000   -0.9600 C   0  0  0  0  0  0  0  0  0  0  0  0
    1.3870   19.4090    0.4780 C   0  0  0  0  0  0  0  0  0  0  0  0
    2.4980   19.8660    1.3740 C   0  0  2  0  0  0  0  0  0  0  0  0
    3.7200   20.1890    0.6960 O   0  0  0  0  0  0  0  0  0  0  0  0
    3.7720   19.0720    1.5980 C   0  0  0  0  0  0  0  0  0  0  0  0
    4.0000   17.7550    0.9240 C   0  0  0  0  0  0  0  0  0  0  0  0
    4.5700   19.3340    2.8370 C   0  0  0  0  0  0  0  0  0  0  0  0
    1.3920   17.4260   -1.3460 C   0  0  1  0  0  0  0  0  0  0  0  0
    0.1920   17.5350   -0.3670 C   0  0  0  0  0  0  0  0  0  0  0  0
   -0.6060   16.2120   -0.4870 C   0  0  0  0  0  0  0  0  0  0  0  0
    0.3300   15.2620   -1.2700 C   0  0  1  0  0  0  0  0  0  0  0  0
    1.3270   14.7110   -0.2030 C   0  0  0  0  0  0  0  0  0  0  0  0
   -0.3640   14.1060   -2.0630 C   0  0  2  0  0  0  0  0  0  0  0  0
   -1.1410   13.0970   -1.1990 C   0  0  0  0  0  0  0  0  0  0  0  0
   -0.3520   11.9210   -0.7270 C   0  0  0  0  0  0  0  0  0  0  0  0
    0.8420   11.5340   -1.2140 C   0  0  0  0  0  0  0  0  0  0  0  0
    1.4730   12.2510   -2.4140 C   0  0  1  0  0  0  0  0  0  0  0  0
    1.9930   11.2000   -3.4300 C   0  0  0  0  0  0  0  0  0  0  0  0
    2.9390   10.1880   -2.7920 C   0  0  0  0  0  0  0  0  0  0  0  0
    2.2560    9.4540   -1.6410 C   0  0  2  0  0  0  0  0  0  0  0  0
    1.2040    8.6420   -2.1710 O   0  0  0  0  0  0  0  0  0  0  0  0
    1.6840   10.4110   -0.5580 C   0  0  0  0  0  0  0  0  0  0  0  0
    2.8470   11.0690    0.2230 C   0  0  0  0  0  0  0  0  0  0  0  0
    0.9000    9.5530    0.4710 C   0  0  0  0  0  0  0  0  0  0  0  0
    0.5810   13.3730   -3.1000 C   0  0  1  0  0  0  0  0  0  0  0  0
   -0.3500   12.7300   -4.1730 C   0  0  0  0  0  0  0  0  0  0  0  0
    1.5180   14.3770   -3.8690 C   0  0  0  0  0  0  0  0  0  0  0  0
    2.0760   15.5650   -3.0620 C   0  0  0  0  0  0  0  0  0  0  0  0
    0.9600   16.2770   -2.2920 C   0  0  2  0  0  0  0  0  0  0  0  0
   -0.0460   16.8610   -3.3410 C   0  0  0  0  0  0  0  0  0  0  0  0
    3.8961   18.6744   -1.7254 H   0  0  0  0  0  0  0  0  0  0  0  0
    3.2838   17.8005   -3.1705 H   0  0  0  0  0  0  0  0  0  0  0  0
    3.3571   19.5953   -3.1705 H   0  0  0  0  0  0  0  0  0  0  0  0
    1.0687   18.9684   -2.8238 H   0  0  0  0  0  0  0  0  0  0  0  0
    2.4795   20.5337   -0.9923 H   0  0  0  0  0  0  0  0  0  0  0  0
    0.6695   20.4495   -1.2377 H   0  0  0  0  0  0  0  0  0  0  0  0
    0.4341   19.8011    0.8631 H   0  0  0  0  0  0  0  0  0  0  0  0
    1.3851   18.3091    0.4676 H   0  0  0  0  0  0  0  0  0  0  0  0
    1.7799   20.3217    2.0716 H   0  0  0  0  0  0  0  0  0  0  0  0
    4.1355   16.9723    1.6849 H   0  0  0  0  0  0  0  0  0  0  0  0
    3.1310   17.5092    0.2959 H   0  0  0  0  0  0  0  0  0  0  0  0
    4.9010   17.8157    0.2959 H   0  0  0  0  0  0  0  0  0  0  0  0
    3.9499   19.1304    3.7224 H   0  0  0  0  0  0  0  0  0  0  0  0
    5.4534   18.6787    2.8495 H   0  0  0  0  0  0  0  0  0  0  0  0
    4.8931   20.3854    2.8495 H   0  0  0  0  0  0  0  0  0  0  0  0
    2.3556   17.1836   -0.8741 H   0  0  0  0  0  0  0  0  0  0  0  0
    0.5546   17.6663    0.6632 H   0  0  0  0  0  0  0  0  0  0  0  0
   -0.4404   18.4008   -0.6129 H   0  0  0  0  0  0  0  0  0  0  0  0
   -0.8306   15.8022    0.5088 H   0  0  0  0  0  0  0  0  0  0  0  0
   -1.5739   16.3526   -0.9904 H   0  0  0  0  0  0  0  0  0  0  0  0
    0.9407   14.9245    0.8046 H   0  0  0  0  0  0  0  0  0  0  0  0
    1.4370   13.6240   -0.3308 H   0  0  0  0  0  0  0  0  0  0  0  0
    2.3059   15.1962   -0.3308 H   0  0  0  0  0  0  0  0  0  0  0  0
   -1.1236   14.6443   -2.6489 H   0  0  0  0  0  0  0  0  0  0  0  0
   -1.5208   13.6288   -0.3141 H   0  0  0  0  0  0  0  0  0  0  0  0
   -1.9347   12.6919   -1.8439 H   0  0  0  0  0  0  0  0  0  0  0  0
   -0.7825   11.3199    0.0875 H   0  0  0  0  0  0  0  0  0  0  0  0
    2.3164   12.8314   -2.0117 H   0  0  0  0  0  0  0  0  0  0  0  0
    1.1318   10.6607   -3.8514 H   0  0  0  0  0  0  0  0  0  0  0  0
    2.5545   11.7374   -4.2084 H   0  0  0  0  0  0  0  0  0  0  0  0
    3.2493    9.4560   -3.5522 H   0  0  0  0  0  0  0  0  0  0  0  0
    3.8135   10.7253   -2.3964 H   0  0  0  0  0  0  0  0  0  0  0  0
    3.0195    8.8382   -1.1431 H   0  0  0  0  0  0  0  0  0  0  0  0
    1.5140    8.2730   -3.0150 H   0  0  0  0  0  0  0  0  0  0  0  0
    2.6670   10.9672    1.3034 H   0  0  0  0  0  0  0  0  0  0  0  0
    3.7925   10.5720   -0.0397 H   0  0  0  0  0  0  0  0  0  0  0  0
    2.9080   12.1354   -0.0397 H   0  0  0  0  0  0  0  0  0  0  0  0
    1.1786    9.8578    1.4905 H   0  0  0  0  0  0  0  0  0  0  0  0
   -0.1801    9.7024    0.3258 H   0  0  0  0  0  0  0  0  0  0  0  0
    1.1460    8.4907    0.3258 H   0  0  0  0  0  0  0  0  0  0  0  0
   -1.1561   12.1733   -3.6728 H   0  0  0  0  0  0  0  0  0  0  0  0
   -0.7857   13.5206   -4.8016 H   0  0  0  0  0  0  0  0  0  0  0  0
    0.2351   12.0426   -4.8016 H   0  0  0  0  0  0  0  0  0  0  0  0
    2.3749   13.8043   -4.2534 H   0  0  0  0  0  0  0  0  0  0  0  0
    0.8807   14.8294   -4.6430 H   0  0  0  0  0  0  0  0  0  0  0  0
    2.8260   15.1943   -2.3478 H   0  0  0  0  0  0  0  0  0  0  0  0
    2.5315   16.2812   -3.7617 H   0  0  0  0  0  0  0  0  0  0  0  0
   -0.8822   17.3464   -2.8164 H   0  0  0  0  0  0  0  0  0  0  0  0
    0.4698   17.6001   -3.9716 H   0  0  0  0  0  0  0  0  0  0  0  0
   -0.4321   16.0466   -3.9716 H   0  0  0  0  0  0  0  0  0  0  0  0
  1  2  1  0
  2  3  1  0
  3  4  1  0
  4  5  1  0
  5  6  1  0
  6  7  1  0
  7  8  1  0
  7  9  1  0
  2 10  1  0
 10 11  1  0
 11 12  1  0
 12 13  1  0
 13 14  1  1
 13 15  1  0
 15 16  1  0
 16 17  1  0
 17 18  2  0
 18 19  1  0
 19 20  1  0
 20 21  1  0
 21 22  1  0
 22 23  1  0
 22 24  1  0
 24 25  1  0
 24 26  1  0
 19 27  1  0
 27 28  1  6
 27 29  1  0
 29 30  1  0
 30 31  1  0
 31 32  1  6
  7  5  1  0
 31 10  1  0
 31 13  1  0
 27 15  1  0
 24 18  1  0
  1 33  1  0
  1 34  1  0
  1 35  1  0
  2 36  1  6
  3 37  1  0
  3 38  1  0
  4 39  1  0
  4 40  1  0
  5 41  1  1
  8 42  1  0
  8 43  1  0
  8 44  1  0
  9 45  1  0
  9 46  1  0
  9 47  1  0
 10 48  1  1
 11 49  1  0
 11 50  1  0
 12 51  1  0
 12 52  1  0
 14 53  1  0
 14 54  1  0
 14 55  1  0
 15 56  1  6
 16 57  1  0
 16 58  1  0
 17 59  1  0
 19 60  1  1
 20 61  1  0
 20 62  1  0
 21 63  1  0
 21 64  1  0
 22 65  1  1
 23 66  1  0
 25 67  1  0
 25 68  1  0
 25 69  1  0
 26 70  1  0
 26 71  1  0
 26 72  1  0
 28 73  1  0
 28 74  1  0
 28 75  1  0
 29 76  1  0
 29 77  1  0
 30 78  1  0
 30 79  1  0
 32 80  1  0
 32 81  1  0
 32 82  1  0
M  END
>  <meeko>  (14) 
{"is_sidechain": [false], "intermolecular_energy": 2.731, "internal_energy": -0.839}

$$$$
EPH_relaxed_0001_pdb2pqr_Repair_364_r2_0001_out
     RDKit          3D

 82 86  0  0  0  0  0  0  0  0999 V2000
    0.3880   19.2670   -2.4690 C   0  0  0  0  0  0  0  0  0  0  0  0
   -0.0720   18.2320   -1.4380 C   0  0  2  0  0  0  0  0  0  0  0  0
    0.3850   18.5930   -0.0100 C   0  0  0  0  0  0  0  0  0  0  0  0
    1.4330   19.7080    0.0380 C   0  0  0  0  0  0  0  0  0  0  0  0
    2.4260   19.4890    1.1380 C   0  0  2  0  0  0  0  0  0  0  0  0
    3.6660   20.1880    0.9740 O   0  0  0  0  0  0  0  0  0  0  0  0
    3.7390   18.7530    0.9460 C   0  0  0  0  0  0  0  0  0  0  0  0
    4.1300   18.1900   -0.3840 C   0  0  0  0  0  0  0  0  0  0  0  0
    4.4090   18.1610    2.1460 C   0  0  0  0  0  0  0  0  0  0  0  0
    0.4510   16.8520   -1.8180 C   0  0  1  0  0  0  0  0  0  0  0  0
    1.8940   16.8960   -2.3890 C   0  0  0  0  0  0  0  0  0  0  0  0
    2.6020   15.6000   -1.9160 C   0  0  0  0  0  0  0  0  0  0  0  0
    1.4600   14.7070   -1.3770 C   0  0  1  0  0  0  0  0  0  0  0  0
    0.8320   14.0490   -2.6450 C   0  0  0  0  0  0  0  0  0  0  0  0
    1.8650   13.6350   -0.3120 C   0  0  2  0  0  0  0  0  0  0  0  0
    2.8580   12.5680   -0.8060 C   0  0  0  0  0  0  0  0  0  0  0  0
    2.2380   11.3430   -1.3920 C   0  0  0  0  0  0  0  0  0  0  0  0
    0.9480   10.9800   -1.2620 C   0  0  0  0  0  0  0  0  0  0  0  0
   -0.0120   11.7880   -0.3790 C   0  0  1  0  0  0  0  0  0  0  0  0
   -0.8300   10.8210    0.5170 C   0  0  0  0  0  0  0  0  0  0  0  0
   -1.5460    9.7420   -0.2890 C   0  0  0  0  0  0  0  0  0  0  0  0
   -0.5520    8.9230   -1.1080 C   0  0  2  0  0  0  0  0  0  0  0  0
    0.2780    8.1760   -0.2130 O   0  0  0  0  0  0  0  0  0  0  0  0
    0.3350    9.7920   -2.0430 C   0  0  0  0  0  0  0  0  0  0  0  0
   -0.5260   10.3610   -3.1970 C   0  0  0  0  0  0  0  0  0  0  0  0
    1.3870    8.8610   -2.7040 C   0  0  0  0  0  0  0  0  0  0  0  0
    0.6410   12.9790    0.4460 C   0  0  1  0  0  0  0  0  0  0  0  0
    1.1920   12.4470    1.8040 C   0  0  0  0  0  0  0  0  0  0  0  0
   -0.4760   14.0310    0.8010 C   0  0  0  0  0  0  0  0  0  0  0  0
   -0.7470   15.1350   -0.2390 C   0  0  0  0  0  0  0  0  0  0  0  0
    0.5590   15.7960   -0.6890 C   0  0  2  0  0  0  0  0  0  0  0  0
    1.2030   16.4850    0.5620 C   0  0  0  0  0  0  0  0  0  0  0  0
    0.7817   20.1527   -1.9489 H   0  0  0  0  0  0  0  0  0  0  0  0
    1.1771   18.8310   -3.0993 H   0  0  0  0  0  0  0  0  0  0  0  0
   -0.4644   19.5606   -3.0993 H   0  0  0  0  0  0  0  0  0  0  0  0
   -1.1720   18.2270   -1.4420 H   0  0  0  0  0  0  0  0  0  0  0  0
   -0.4949   18.9186    0.5642 H   0  0  0  0  0  0  0  0  0  0  0  0
    0.8539   17.6930    0.4144 H   0  0  0  0  0  0  0  0  0  0  0  0
    1.9668   19.7370   -0.9234 H   0  0  0  0  0  0  0  0  0  0  0  0
    0.9135   20.6585    0.2296 H   0  0  0  0  0  0  0  0  0  0  0  0
    1.6181   19.3763    1.8759 H   0  0  0  0  0  0  0  0  0  0  0  0
    4.7517   17.2949   -0.2348 H   0  0  0  0  0  0  0  0  0  0  0  0
    3.2252   17.9183   -0.9475 H   0  0  0  0  0  0  0  0  0  0  0  0
    4.7006   18.9429   -0.9475 H   0  0  0  0  0  0  0  0  0  0  0  0
    3.9499   18.5666    3.0596 H   0  0  0  0  0  0  0  0  0  0  0  0
    4.2901   17.0676    2.1302 H   0  0  0  0  0  0  0  0  0  0  0  0
    5.4795   18.4137    2.1302 H   0  0  0  0  0  0  0  0  0  0  0  0
   -0.3243   16.5536   -2.5391 H   0  0  0  0  0  0  0  0  0  0  0  0
    1.8655   16.9326   -3.4880 H   0  0  0  0  0  0  0  0  0  0  0  0
    2.4306   17.7898   -2.0380 H   0  0  0  0  0  0  0  0  0  0  0  0
    3.1155   15.1092   -2.7559 H   0  0  0  0  0  0  0  0  0  0  0  0
    3.3713   15.7984   -1.1552 H   0  0  0  0  0  0  0  0  0  0  0  0
    0.1026   13.2848   -2.3384 H   0  0  0  0  0  0  0  0  0  0  0  0
    0.3256   14.8193   -3.2452 H   0  0  0  0  0  0  0  0  0  0  0  0
    1.6251   13.5791   -3.2452 H   0  0  0  0  0  0  0  0  0  0  0  0
    2.4142   14.2344    0.4291 H   0  0  0  0  0  0  0  0  0  0  0  0
    3.4958   13.0275   -1.5754 H   0  0  0  0  0  0  0  0  0  0  0  0
    3.4123   12.2331    0.0831 H   0  0  0  0  0  0  0  0  0  0  0  0
    2.8904   10.6807   -1.9799 H   0  0  0  0  0  0  0  0  0  0  0  0
   -0.6858   12.3178   -1.0684 H   0  0  0  0  0  0  0  0  0  0  0  0
   -0.1455   10.3346    1.2276 H   0  0  0  0  0  0  0  0  0  0  0  0
   -1.5971   11.4147    1.0358 H   0  0  0  0  0  0  0  0  0  0  0  0
   -2.0815    9.0731    0.4009 H   0  0  0  0  0  0  0  0  0  0  0  0
   -2.2518   10.2288   -0.9781 H   0  0  0  0  0  0  0  0  0  0  0  0
   -1.1334    8.2551   -1.7606 H   0  0  0  0  0  0  0  0  0  0  0  0
    1.1940    8.2470   -0.5330 H   0  0  0  0  0  0  0  0  0  0  0  0
   -1.3749   10.9220   -2.7790 H   0  0  0  0  0  0  0  0  0  0  0  0
    0.0877   11.0320   -3.8160 H   0  0  0  0  0  0  0  0  0  0  0  0
   -0.9026    9.5334   -3.8160 H   0  0  0  0  0  0  0  0  0  0  0  0
    1.9661    8.3485   -1.9217 H   0  0  0  0  0  0  0  0  0  0  0  0
    0.8749    8.1148   -3.3293 H   0  0  0  0  0  0  0  0  0  0  0  0
    2.0654    9.4600   -3.3293 H   0  0  0  0  0  0  0  0  0  0  0  0
    0.6717   12.9493    2.6328 H   0  0  0  0  0  0  0  0  0  0  0  0
    1.0227   11.3620    1.8686 H   0  0  0  0  0  0  0  0  0  0  0  0
    2.2704   12.6543    1.8686 H   0  0  0  0  0  0  0  0  0  0  0  0
   -1.4156   13.4798    0.9536 H   0  0  0  0  0  0  0  0  0  0  0  0
   -0.1014   14.5592    1.6902 H   0  0  0  0  0  0  0  0  0  0  0  0
   -1.2457   14.6913   -1.1133 H   0  0  0  0  0  0  0  0  0  0  0  0
   -1.3877   15.9014    0.2216 H   0  0  0  0  0  0  0  0  0  0  0  0
    0.7882   16.0413    1.4791 H   0  0  0  0  0  0  0  0  0  0  0  0
    2.2926   16.3355    0.5426 H   0  0  0  0  0  0  0  0  0  0  0  0
    0.9803   17.5621    0.5426 H   0  0  0  0  0  0  0  0  0  0  0  0
  1  2  1  0
  2  3  1  0
  3  4  1  0
  4  5  1  0
  5  6  1  0
  6  7  1  0
  7  8  1  0
  7  9  1  0
  2 10  1  0
 10 11  1  0
 11 12  1  0
 12 13  1  0
 13 14  1  6
 13 15  1  0
 15 16  1  0
 16 17  1  0
 17 18  2  0
 18 19  1  0
 19 20  1  0
 20 21  1  0
 21 22  1  0
 22 23  1  0
 22 24  1  0
 24 25  1  0
 24 26  1  0
 19 27  1  0
 27 28  1  1
 27 29  1  0
 29 30  1  0
 30 31  1  0
 31 32  1  1
  7  5  1  0
 31 10  1  0
 31 13  1  0
 27 15  1  0
 24 18  1  0
  1 33  1  0
  1 34  1  0
  1 35  1  0
  2 36  1  1
  3 37  1  0
  3 38  1  0
  4 39  1  0
  4 40  1  0
  5 41  1  1
  8 42  1  0
  8 43  1  0
  8 44  1  0
  9 45  1  0
  9 46  1  0
  9 47  1  0
 10 48  1  6
 11 49  1  0
 11 50  1  0
 12 51  1  0
 12 52  1  0
 14 53  1  0
 14 54  1  0
 14 55  1  0
 15 56  1  1
 16 57  1  0
 16 58  1  0
 17 59  1  0
 19 60  1  6
 20 61  1  0
 20 62  1  0
 21 63  1  0
 21 64  1  0
 22 65  1  6
 23 66  1  0
 25 67  1  0
 25 68  1  0
 25 69  1  0
 26 70  1  0
 26 71  1  0
 26 72  1  0
 28 73  1  0
 28 74  1  0
 28 75  1  0
 29 76  1  0
 29 77  1  0
 30 78  1  0
 30 79  1  0
 32 80  1  0
 32 81  1  0
 32 82  1  0
M  END
>  <meeko>  (15) 
{"is_sidechain": [false], "intermolecular_energy": 2.731, "internal_energy": -0.839}

$$$$
EPH_relaxed_0001_pdb2pqr_Repair_364_r2_0001_out
     RDKit          3D

 82 86  0  0  0  0  0  0  0  0999 V2000
   -2.0320    7.7770   -2.1110 C   0  0  0  0  0  0  0  0  0  0  0  0
   -2.1980    8.4600   -0.7510 C   0  0  2  0  0  0  0  0  0  0  0  0
   -3.6670    8.4690   -0.2820 C   0  0  0  0  0  0  0  0  0  0  0  0
   -4.6780    8.3240   -1.4220 C   0  0  0  0  0  0  0  0  0  0  0  0
   -5.4720    7.0580   -1.3010 C   0  0  2  0  0  0  0  0  0  0  0  0
   -5.6370    6.3360   -2.5280 O   0  0  0  0  0  0  0  0  0  0  0  0
   -6.8360    6.8620   -1.9360 C   0  0  0  0  0  0  0  0  0  0  0  0
   -7.4860    7.9450   -2.7390 C   0  0  0  0  0  0  0  0  0  0  0  0
   -7.7420    5.8110   -1.3740 C   0  0  0  0  0  0  0  0  0  0  0  0
   -1.6640    9.8860   -0.8180 C   0  0  1  0  0  0  0  0  0  0  0  0
   -1.2030   10.4170    0.5660 C   0  0  0  0  0  0  0  0  0  0  0  0
    0.0210   11.3330    0.3090 C   0  0  0  0  0  0  0  0  0  0  0  0
    0.0200   11.5650   -1.2210 C   0  0  1  0  0  0  0  0  0  0  0  0
   -1.0340   12.6940   -1.4540 C   0  0  0  0  0  0  0  0  0  0  0  0
    1.3980   11.9200   -1.8670 C   0  0  2  0  0  0  0  0  0  0  0  0
    2.0300   13.2350   -1.3760 C   0  0  0  0  0  0  0  0  0  0  0  0
    1.6650   14.4500   -2.1640 C   0  0  0  0  0  0  0  0  0  0  0  0
    1.0970   14.4500   -3.3840 C   0  0  0  0  0  0  0  0  0  0  0  0
    0.8530   13.1370   -4.1390 C   0  0  1  0  0  0  0  0  0  0  0  0
    1.3280   13.2880   -5.6080 C   0  0  0  0  0  0  0  0  0  0  0  0
    0.6980   14.4890   -6.3060 C   0  0  0  0  0  0  0  0  0  0  0  0
    1.0120   15.7820   -5.5580 C   0  0  2  0  0  0  0  0  0  0  0  0
    2.4160   16.0390   -5.6520 O   0  0  0  0  0  0  0  0  0  0  0  0
    0.5860   15.7440   -4.0640 C   0  0  0  0  0  0  0  0  0  0  0  0
   -0.9590   15.7690   -3.9620 C   0  0  0  0  0  0  0  0  0  0  0  0
    1.0860   17.0510   -3.3920 C   0  0  0  0  0  0  0  0  0  0  0  0
    1.4180   11.8230   -3.4460 C   0  0  1  0  0  0  0  0  0  0  0  0
    2.9050   11.6020   -3.8600 C   0  0  0  0  0  0  0  0  0  0  0  0
    0.6190   10.5760   -3.9790 C   0  0  0  0  0  0  0  0  0  0  0  0
   -0.6720   10.2040   -3.2250 C   0  0  0  0  0  0  0  0  0  0  0  0
   -0.4260   10.1410   -1.7140 C   0  0  2  0  0  0  0  0  0  0  0  0
    0.6130    8.9990   -1.4460 C   0  0  0  0  0  0  0  0  0  0  0  0
   -1.7747    6.7182   -1.9606 H   0  0  0  0  0  0  0  0  0  0  0  0
   -2.9738    7.8489   -2.6748 H   0  0  0  0  0  0  0  0  0  0  0  0
   -1.2283    8.2732   -2.6748 H   0  0  0  0  0  0  0  0  0  0  0  0
   -1.6202    7.8805   -0.0160 H   0  0  0  0  0  0  0  0  0  0  0  0
   -3.8126    7.6343    0.4195 H   0  0  0  0  0  0  0  0  0  0  0  0
   -3.8488    9.4476    0.1863 H   0  0  0  0  0  0  0  0  0  0  0  0
   -5.3674    9.1809   -1.3983 H   0  0  0  0  0  0  0  0  0  0  0  0
   -4.1226    8.2912   -2.3709 H   0  0  0  0  0  0  0  0  0  0  0  0
   -5.1056    6.8981   -0.2762 H   0  0  0  0  0  0  0  0  0  0  0  0
   -7.9316    8.6874   -2.0605 H   0  0  0  0  0  0  0  0  0  0  0  0
   -6.7320    8.4340   -3.3733 H   0  0  0  0  0  0  0  0  0  0  0  0
   -8.2722    7.5096   -3.3733 H   0  0  0  0  0  0  0  0  0  0  0  0
   -7.7097    5.8485   -0.2751 H   0  0  0  0  0  0  0  0  0  0  0  0
   -8.7713    5.9926   -1.7170 H   0  0  0  0  0  0  0  0  0  0  0  0
   -7.4107    4.8197   -1.7170 H   0  0  0  0  0  0  0  0  0  0  0  0
   -2.5446   10.3926   -1.2398 H   0  0  0  0  0  0  0  0  0  0  0  0
   -2.0127   10.9910    1.0403 H   0  0  0  0  0  0  0  0  0  0  0  0
   -0.9410    9.5878    1.2397 H   0  0  0  0  0  0  0  0  0  0  0  0
   -0.0878   12.2865    0.8465 H   0  0  0  0  0  0  0  0  0  0  0  0
    0.9605   10.8830    0.6622 H   0  0  0  0  0  0  0  0  0  0  0  0
   -1.3870   13.0721   -0.4832 H   0  0  0  0  0  0  0  0  0  0  0  0
   -0.5721   13.5154   -2.0214 H   0  0  0  0  0  0  0  0  0  0  0  0
   -1.8852   12.2896   -2.0214 H   0  0  0  0  0  0  0  0  0  0  0  0
    2.0487   11.1172   -1.4900 H   0  0  0  0  0  0  0  0  0  0  0  0
    1.7132   13.3968   -0.3351 H   0  0  0  0  0  0  0  0  0  0  0  0
    3.1171   13.1123   -1.4909 H   0  0  0  0  0  0  0  0  0  0  0  0
    1.8786   15.4282   -1.7084 H   0  0  0  0  0  0  0  0  0  0  0  0
   -0.2339   12.9695   -4.1141 H   0  0  0  0  0  0  0  0  0  0  0  0
    2.4212   13.4100   -5.6143 H   0  0  0  0  0  0  0  0  0  0  0  0
    1.0182   12.3844   -6.1536 H   0  0  0  0  0  0  0  0  0  0  0  0
    1.0952   14.5597   -7.3293 H   0  0  0  0  0  0  0  0  0  0  0  0
   -0.3931   14.3510   -6.3253 H   0  0  0  0  0  0  0  0  0  0  0  0
    0.4286   16.5865   -6.0297 H   0  0  0  0  0  0  0  0  0  0  0  0
    2.6980   16.4420   -4.8130 H   0  0  0  0  0  0  0  0  0  0  0  0
   -1.2565   15.7738   -2.9030 H   0  0  0  0  0  0  0  0  0  0  0  0
   -1.3444   16.6735   -4.4553 H   0  0  0  0  0  0  0  0  0  0  0  0
   -1.3735   14.8774   -4.4553 H   0  0  0  0  0  0  0  0  0  0  0  0
    1.0437   16.9404   -2.2984 H   0  0  0  0  0  0  0  0  0  0  0  0
    2.1232   17.2485   -3.7007 H   0  0  0  0  0  0  0  0  0  0  0  0
    0.4454   17.8903   -3.7007 H   0  0  0  0  0  0  0  0  0  0  0  0
    3.5270   11.5096   -2.9575 H   0  0  0  0  0  0  0  0  0  0  0  0
    2.9865   10.6819   -4.4573 H   0  0  0  0  0  0  0  0  0  0  0  0
    3.2505   12.4587   -4.4573 H   0  0  0  0  0  0  0  0  0  0  0  0
    0.3468   10.7777   -5.0255 H   0  0  0  0  0  0  0  0  0  0  0  0
    1.2935    9.7190   -3.8350 H   0  0  0  0  0  0  0  0  0  0  0  0
   -1.4413   10.9622   -3.4330 H   0  0  0  0  0  0  0  0  0  0  0  0
   -1.0051    9.2132   -3.5677 H   0  0  0  0  0  0  0  0  0  0  0  0
    0.7368    8.8630   -0.3615 H   0  0  0  0  0  0  0  0  0  0  0  0
    0.2515    8.0618   -1.8942 H   0  0  0  0  0  0  0  0  0  0  0  0
    1.5801    9.2706   -1.8942 H   0  0  0  0  0  0  0  0  0  0  0  0
  1  2  1  0
  2  3  1  0
  3  4  1  0
  4  5  1  0
  5  6  1  0
  6  7  1  0
  7  8  1  0
  7  9  1  0
  2 10  1  0
 10 11  1  0
 11 12  1  0
 12 13  1  0
 13 14  1  1
 13 15  1  0
 15 16  1  0
 16 17  1  0
 17 18  2  0
 18 19  1  0
 19 20  1  0
 20 21  1  0
 21 22  1  0
 22 23  1  0
 22 24  1  0
 24 25  1  0
 24 26  1  0
 19 27  1  0
 27 28  1  6
 27 29  1  0
 29 30  1  0
 30 31  1  0
 31 32  1  6
  7  5  1  0
 31 10  1  0
 31 13  1  0
 27 15  1  0
 24 18  1  0
  1 33  1  0
  1 34  1  0
  1 35  1  0
  2 36  1  1
  3 37  1  0
  3 38  1  0
  4 39  1  0
  4 40  1  0
  5 41  1  1
  8 42  1  0
  8 43  1  0
  8 44  1  0
  9 45  1  0
  9 46  1  0
  9 47  1  0
 10 48  1  6
 11 49  1  0
 11 50  1  0
 12 51  1  0
 12 52  1  0
 14 53  1  0
 14 54  1  0
 14 55  1  0
 15 56  1  1
 16 57  1  0
 16 58  1  0
 17 59  1  0
 19 60  1  6
 20 61  1  0
 20 62  1  0
 21 63  1  0
 21 64  1  0
 22 65  1  6
 23 66  1  0
 25 67  1  0
 25 68  1  0
 25 69  1  0
 26 70  1  0
 26 71  1  0
 26 72  1  0
 28 73  1  0
 28 74  1  0
 28 75  1  0
 29 76  1  0
 29 77  1  0
 30 78  1  0
 30 79  1  0
 32 80  1  0
 32 81  1  0
 32 82  1  0
M  END
>  <meeko>  (16) 
{"is_sidechain": [false], "intermolecular_energy": 2.731, "internal_energy": -0.839}

$$$$
EPH_relaxed_0001_pdb2pqr_Repair_364_r2_0001_out
     RDKit          3D

 82 86  0  0  0  0  0  0  0  0999 V2000
    2.3320   11.1480   -5.4570 C   0  0  0  0  0  0  0  0  0  0  0  0
    1.6970   11.0080   -4.0710 C   0  0  2  0  0  0  0  0  0  0  0  0
    0.5730    9.9520   -4.0520 C   0  0  0  0  0  0  0  0  0  0  0  0
    0.4400    9.2190   -2.7140 C   0  0  0  0  0  0  0  0  0  0  0  0
   -0.9890    9.1250   -2.2730 C   0  0  2  0  0  0  0  0  0  0  0  0
   -1.5830   10.3740   -1.8960 O   0  0  0  0  0  0  0  0  0  0  0  0
   -1.4460    9.3980   -0.8520 C   0  0  0  0  0  0  0  0  0  0  0  0
   -0.4750    9.7840    0.2190 C   0  0  0  0  0  0  0  0  0  0  0  0
   -2.7480    8.8170   -0.3950 C   0  0  0  0  0  0  0  0  0  0  0  0
    1.1540   12.3550   -3.6090 C   0  0  1  0  0  0  0  0  0  0  0  0
   -0.3900   12.3550   -3.4520 C   0  0  0  0  0  0  0  0  0  0  0  0
   -0.7180   13.2800   -2.2510 C   0  0  0  0  0  0  0  0  0  0  0  0
    0.6020   14.0360   -1.9700 C   0  0  1  0  0  0  0  0  0  0  0  0
    0.6320   15.1940   -3.0160 C   0  0  0  0  0  0  0  0  0  0  0  0
    0.7960   14.5680   -0.5130 C   0  0  2  0  0  0  0  0  0  0  0  0
   -0.2380   15.6140   -0.0570 C   0  0  0  0  0  0  0  0  0  0  0  0
    0.1320   17.0350   -0.3260 C   0  0  0  0  0  0  0  0  0  0  0  0
    1.3630   17.4760   -0.6480 C   0  0  0  0  0  0  0  0  0  0  0  0
    2.5610   16.5180   -0.6730 C   0  0  1  0  0  0  0  0  0  0  0  0
    3.7590   17.1670    0.0680 C   0  0  0  0  0  0  0  0  0  0  0  0
    4.1050   18.5490   -0.4780 C   0  0  0  0  0  0  0  0  0  0  0  0
    2.9060   19.4890   -0.3820 C   0  0  2  0  0  0  0  0  0  0  0  0
    2.6230   19.7360    0.9990 O   0  0  0  0  0  0  0  0  0  0  0  0
    1.6350   18.9360   -1.0850 C   0  0  0  0  0  0  0  0  0  0  0  0
    1.8410   18.9530   -2.6200 C   0  0  0  0  0  0  0  0  0  0  0  0
    0.4640   19.9120   -0.7930 C   0  0  0  0  0  0  0  0  0  0  0  0
    2.2720   15.0330   -0.1840 C   0  0  1  0  0  0  0  0  0  0  0  0
    2.4330   14.9430    1.3650 C   0  0  0  0  0  0  0  0  0  0  0  0
    3.3540   14.0700   -0.7990 C   0  0  0  0  0  0  0  0  0  0  0  0
    3.0500   13.4810   -2.1900 C   0  0  0  0  0  0  0  0  0  0  0  0
    1.6400   12.8850   -2.2370 C   0  0  2  0  0  0  0  0  0  0  0  0
    1.5860   11.7030   -1.2100 C   0  0  0  0  0  0  0  0  0  0  0  0
    3.4010   11.3837   -5.3485 H   0  0  0  0  0  0  0  0  0  0  0  0
    2.2190   10.2034   -6.0092 H   0  0  0  0  0  0  0  0  0  0  0  0
    1.8323   11.9575   -6.0092 H   0  0  0  0  0  0  0  0  0  0  0  0
    2.4822   10.6675   -3.3800 H   0  0  0  0  0  0  0  0  0  0  0  0
   -0.3806   10.4558   -4.2683 H   0  0  0  0  0  0  0  0  0  0  0  0
    0.8292    9.1960   -4.8088 H   0  0  0  0  0  0  0  0  0  0  0  0
    0.8472    8.2029   -2.8222 H   0  0  0  0  0  0  0  0  0  0  0  0
    0.9964    9.7880   -1.9546 H   0  0  0  0  0  0  0  0  0  0  0  0
   -1.1690    8.2828   -2.9573 H   0  0  0  0  0  0  0  0  0  0  0  0
   -0.9269    9.6044    1.2057 H   0  0  0  0  0  0  0  0  0  0  0  0
    0.4396    9.1811    0.1193 H   0  0  0  0  0  0  0  0  0  0  0  0
   -0.2239   10.8503    0.1193 H   0  0  0  0  0  0  0  0  0  0  0  0
   -2.7778    8.8037    0.7045 H   0  0  0  0  0  0  0  0  0  0  0  0
   -3.5774    9.4304   -0.7769 H   0  0  0  0  0  0  0  0  0  0  0  0
   -2.8454    7.7900   -0.7769 H   0  0  0  0  0  0  0  0  0  0  0  0
    1.5379   12.9951   -4.4170 H   0  0  0  0  0  0  0  0  0  0  0  0
   -0.8637   12.7400   -4.3670 H   0  0  0  0  0  0  0  0  0  0  0  0
   -0.7695   11.3367   -3.2813 H   0  0  0  0  0  0  0  0  0  0  0  0
   -1.5214   13.9847   -2.5115 H   0  0  0  0  0  0  0  0  0  0  0  0
   -1.0713   12.7169   -1.3746 H   0  0  0  0  0  0  0  0  0  0  0  0
    0.6570   16.1609   -2.4920 H   0  0  0  0  0  0  0  0  0  0  0  0
    1.5279   15.0954   -3.6466 H   0  0  0  0  0  0  0  0  0  0  0  0
   -0.2678   15.1419   -3.6466 H   0  0  0  0  0  0  0  0  0  0  0  0
    0.6014   13.6712    0.0935 H   0  0  0  0  0  0  0  0  0  0  0  0
   -1.1848   15.4050   -0.5765 H   0  0  0  0  0  0  0  0  0  0  0  0
   -0.3056   15.5187    1.0368 H   0  0  0  0  0  0  0  0  0  0  0  0
   -0.6689   17.7857   -0.2552 H   0  0  0  0  0  0  0  0  0  0  0  0
    2.8128   16.3739   -1.7340 H   0  0  0  0  0  0  0  0  0  0  0  0
    3.5046   17.2625    1.1339 H   0  0  0  0  0  0  0  0  0  0  0  0
    4.6353   16.5194   -0.0824 H   0  0  0  0  0  0  0  0  0  0  0  0
    4.9386   18.9680    0.1047 H   0  0  0  0  0  0  0  0  0  0  0  0
    4.3882   18.4478   -1.5361 H   0  0  0  0  0  0  0  0  0  0  0  0
    3.1738   20.4187   -0.9053 H   0  0  0  0  0  0  0  0  0  0  0  0
    2.1270   18.9720    1.3390 H   0  0  0  0  0  0  0  0  0  0  0  0
    2.9141   19.0415   -2.8450 H   0  0  0  0  0  0  0  0  0  0  0  0
    1.4515   18.0197   -3.0526 H   0  0  0  0  0  0  0  0  0  0  0  0
    1.3037   19.8099   -3.0526 H   0  0  0  0  0  0  0  0  0  0  0  0
    0.3372   20.0176    0.2946 H   0  0  0  0  0  0  0  0  0  0  0  0
    0.6875   20.8950   -1.2333 H   0  0  0  0  0  0  0  0  0  0  0  0
   -0.4626   19.5151   -1.2333 H   0  0  0  0  0  0  0  0  0  0  0  0
    1.5719   15.4243    1.8517 H   0  0  0  0  0  0  0  0  0  0  0  0
    2.4821   13.8866    1.6678 H   0  0  0  0  0  0  0  0  0  0  0  0
    3.3585   15.4546    1.6678 H   0  0  0  0  0  0  0  0  0  0  0  0
    4.2960   14.6330   -0.8747 H   0  0  0  0  0  0  0  0  0  0  0  0
    3.3873   13.2044   -0.1211 H   0  0  0  0  0  0  0  0  0  0  0  0
    3.1288   14.2785   -2.9435 H   0  0  0  0  0  0  0  0  0  0  0  0
    3.7759   12.6812   -2.3984 H   0  0  0  0  0  0  0  0  0  0  0  0
    1.6044   12.1055   -0.1864 H   0  0  0  0  0  0  0  0  0  0  0  0
    0.6606   11.1278   -1.3613 H   0  0  0  0  0  0  0  0  0  0  0  0
    2.4551   11.0458   -1.3613 H   0  0  0  0  0  0  0  0  0  0  0  0
  1  2  1  0
  2  3  1  0
  3  4  1  0
  4  5  1  0
  5  6  1  0
  6  7  1  0
  7  8  1  0
  7  9  1  0
  2 10  1  0
 10 11  1  0
 11 12  1  0
 12 13  1  0
 13 14  1  6
 13 15  1  0
 15 16  1  0
 16 17  1  0
 17 18  2  0
 18 19  1  0
 19 20  1  0
 20 21  1  0
 21 22  1  0
 22 23  1  0
 22 24  1  0
 24 25  1  0
 24 26  1  0
 19 27  1  0
 27 28  1  1
 27 29  1  0
 29 30  1  0
 30 31  1  0
 31 32  1  1
  7  5  1  0
 31 10  1  0
 31 13  1  0
 27 15  1  0
 24 18  1  0
  1 33  1  0
  1 34  1  0
  1 35  1  0
  2 36  1  1
  3 37  1  0
  3 38  1  0
  4 39  1  0
  4 40  1  0
  5 41  1  6
  8 42  1  0
  8 43  1  0
  8 44  1  0
  9 45  1  0
  9 46  1  0
  9 47  1  0
 10 48  1  6
 11 49  1  0
 11 50  1  0
 12 51  1  0
 12 52  1  0
 14 53  1  0
 14 54  1  0
 14 55  1  0
 15 56  1  1
 16 57  1  0
 16 58  1  0
 17 59  1  0
 19 60  1  6
 20 61  1  0
 20 62  1  0
 21 63  1  0
 21 64  1  0
 22 65  1  6
 23 66  1  0
 25 67  1  0
 25 68  1  0
 25 69  1  0
 26 70  1  0
 26 71  1  0
 26 72  1  0
 28 73  1  0
 28 74  1  0
 28 75  1  0
 29 76  1  0
 29 77  1  0
 30 78  1  0
 30 79  1  0
 32 80  1  0
 32 81  1  0
 32 82  1  0
M  END
>  <meeko>  (17) 
{"is_sidechain": [false], "intermolecular_energy": 2.731, "internal_energy": -0.839}

$$$$
