EPH_relaxed_0001_pdb2pqr_Repair_108_r2_0001_out
     RDKit          3D

 82 86  0  0  0  0  0  0  0  0999 V2000
   -1.5110    8.5080   -1.8100 C   0  0  0  0  0  0  0  0  0  0  0  0
   -1.9070    9.0840   -0.4470 C   0  0  2  0  0  0  0  0  0  0  0  0
   -3.3980    9.4700   -0.3910 C   0  0  0  0  0  0  0  0  0  0  0  0
   -4.3480    8.2700   -0.4470 C   0  0  0  0  0  0  0  0  0  0  0  0
   -4.6570    7.8730   -1.8580 C   0  0  2  0  0  0  0  0  0  0  0  0
   -6.0480    7.9170   -2.2020 O   0  0  0  0  0  0  0  0  0  0  0  0
   -5.4300    6.6200   -2.2250 C   0  0  0  0  0  0  0  0  0  0  0  0
   -5.9420    5.6840   -1.1750 C   0  0  0  0  0  0  0  0  0  0  0  0
   -5.2660    6.0550   -3.6010 C   0  0  0  0  0  0  0  0  0  0  0  0
   -1.0420   10.2970   -0.1250 C   0  0  1  0  0  0  0  0  0  0  0  0
    0.0550    9.9860    0.9280 C   0  0  0  0  0  0  0  0  0  0  0  0
    1.2950   10.8340    0.5460 C   0  0  0  0  0  0  0  0  0  0  0  0
    0.7700   11.8430   -0.5030 C   0  0  1  0  0  0  0  0  0  0  0  0
    0.0970   12.9760    0.3330 C   0  0  0  0  0  0  0  0  0  0  0  0
    1.8280   12.4140   -1.5020 C   0  0  2  0  0  0  0  0  0  0  0  0
    2.9600   13.2320   -0.8570 C   0  0  0  0  0  0  0  0  0  0  0  0
    2.6990   14.6970   -0.7350 C   0  0  0  0  0  0  0  0  0  0  0  0
    1.7290   15.3750   -1.3780 C   0  0  0  0  0  0  0  0  0  0  0  0
    0.8320   14.6780   -2.4090 C   0  0  1  0  0  0  0  0  0  0  0  0
    0.7220   15.5610   -3.6800 C   0  0  0  0  0  0  0  0  0  0  0  0
    0.2590   16.9810   -3.3670 C   0  0  0  0  0  0  0  0  0  0  0  0
    1.2080   17.6600   -2.3840 C   0  0  2  0  0  0  0  0  0  0  0  0
    2.4730   17.8540   -3.0230 O   0  0  0  0  0  0  0  0  0  0  0  0
    1.4050   16.8570   -1.0680 C   0  0  0  0  0  0  0  0  0  0  0  0
    0.1040   16.9050   -0.2290 C   0  0  0  0  0  0  0  0  0  0  0  0
    2.4910   17.5790   -0.2250 C   0  0  0  0  0  0  0  0  0  0  0  0
    1.2040   13.1700   -2.7450 C   0  0  1  0  0  0  0  0  0  0  0  0
    2.2740   13.1250   -3.8770 C   0  0  0  0  0  0  0  0  0  0  0  0
   -0.0720   12.4400   -3.3100 C   0  0  0  0  0  0  0  0  0  0  0  0
   -1.0160   11.7930   -2.2790 C   0  0  0  0  0  0  0  0  0  0  0  0
   -0.2340   10.9240   -1.2890 C   0  0  2  0  0  0  0  0  0  0  0  0
    0.4360    9.7620   -2.0980 C   0  0  0  0  0  0  0  0  0  0  0  0
   -0.8934    7.6097   -1.6630 H   0  0  0  0  0  0  0  0  0  0  0  0
   -2.4177    8.2415   -2.3729 H   0  0  0  0  0  0  0  0  0  0  0  0
   -0.9375    9.2592   -2.3729 H   0  0  0  0  0  0  0  0  0  0  0  0
   -1.7413    8.2988    0.3054 H   0  0  0  0  0  0  0  0  0  0  0  0
   -3.5807   10.0139    0.5475 H   0  0  0  0  0  0  0  0  0  0  0  0
   -3.6042   10.0845   -1.2797 H   0  0  0  0  0  0  0  0  0  0  0  0
   -3.8781    7.4191    0.0679 H   0  0  0  0  0  0  0  0  0  0  0  0
   -5.2905    8.5558    0.0429 H   0  0  0  0  0  0  0  0  0  0  0  0
   -3.6936    8.2740   -2.2060 H   0  0  0  0  0  0  0  0  0  0  0  0
   -5.7183    6.0929   -0.1786 H   0  0  0  0  0  0  0  0  0  0  0  0
   -7.0299    5.5666   -1.2874 H   0  0  0  0  0  0  0  0  0  0  0  0
   -5.4540    4.7046   -1.2874 H   0  0  0  0  0  0  0  0  0  0  0  0
   -4.9600    5.0008   -3.5304 H   0  0  0  0  0  0  0  0  0  0  0  0
   -6.2213    6.1241   -4.1420 H   0  0  0  0  0  0  0  0  0  0  0  0
   -4.4962    6.6248   -4.1420 H   0  0  0  0  0  0  0  0  0  0  0  0
   -1.8225   10.9957    0.2105 H   0  0  0  0  0  0  0  0  0  0  0  0
   -0.2965   10.2606    1.9335 H   0  0  0  0  0  0  0  0  0  0  0  0
    0.2985    8.9134    0.9396 H   0  0  0  0  0  0  0  0  0  0  0  0
    1.6916   11.3605    1.4266 H   0  0  0  0  0  0  0  0  0  0  0  0
    2.1180   10.2172    0.1559 H   0  0  0  0  0  0  0  0  0  0  0  0
    0.2226   12.7645    1.4052 H   0  0  0  0  0  0  0  0  0  0  0  0
    0.5692   13.9397    0.0916 H   0  0  0  0  0  0  0  0  0  0  0  0
   -0.9752   13.0223    0.0916 H   0  0  0  0  0  0  0  0  0  0  0  0
    2.3033   11.5007   -1.8894 H   0  0  0  0  0  0  0  0  0  0  0  0
    3.1349   12.8327    0.1529 H   0  0  0  0  0  0  0  0  0  0  0  0
    3.8270   13.1322   -1.5266 H   0  0  0  0  0  0  0  0  0  0  0  0
    3.3542   15.2710   -0.0633 H   0  0  0  0  0  0  0  0  0  0  0  0
   -0.1559   14.5796   -1.9354 H   0  0  0  0  0  0  0  0  0  0  0  0
    1.7096   15.6102   -4.1619 H   0  0  0  0  0  0  0  0  0  0  0  0
   -0.0284   15.1030   -4.3412 H   0  0  0  0  0  0  0  0  0  0  0  0
    0.2293   17.5637   -4.2995 H   0  0  0  0  0  0  0  0  0  0  0  0
   -0.7413   16.9318   -2.9121 H   0  0  0  0  0  0  0  0  0  0  0  0
    0.7552   18.6213   -2.0998 H   0  0  0  0  0  0  0  0  0  0  0  0
    2.5270   18.7870   -3.2930 H   0  0  0  0  0  0  0  0  0  0  0  0
    0.3574   16.8957    0.8414 H   0  0  0  0  0  0  0  0  0  0  0  0
   -0.4516   17.8243   -0.4662 H   0  0  0  0  0  0  0  0  0  0  0  0
   -0.5178   16.0292   -0.4662 H   0  0  0  0  0  0  0  0  0  0  0  0
    2.2786   17.4378    0.8450 H   0  0  0  0  0  0  0  0  0  0  0  0
    3.4791   17.1574   -0.4614 H   0  0  0  0  0  0  0  0  0  0  0  0
    2.4846   18.6533   -0.4614 H   0  0  0  0  0  0  0  0  0  0  0  0
    3.2785   13.0828   -3.4306 H   0  0  0  0  0  0  0  0  0  0  0  0
    2.1117   12.2329   -4.4997 H   0  0  0  0  0  0  0  0  0  0  0  0
    2.1872   14.0276   -4.4997 H   0  0  0  0  0  0  0  0  0  0  0  0
   -0.6555   13.1806   -3.8766 H   0  0  0  0  0  0  0  0  0  0  0  0
    0.3168   11.6032   -3.9089 H   0  0  0  0  0  0  0  0  0  0  0  0
   -1.5415   12.5851   -1.7254 H   0  0  0  0  0  0  0  0  0  0  0  0
   -1.7350   11.1550   -2.8138 H   0  0  0  0  0  0  0  0  0  0  0  0
    0.8604    9.0260   -1.3993 H   0  0  0  0  0  0  0  0  0  0  0  0
   -0.3190    9.2734   -2.7314 H   0  0  0  0  0  0  0  0  0  0  0  0
    1.2371   10.1706   -2.7314 H   0  0  0  0  0  0  0  0  0  0  0  0
  1  2  1  0
  2  3  1  0
  3  4  1  0
  4  5  1  0
  5  6  1  0
  6  7  1  0
  7  8  1  0
  7  9  1  0
  2 10  1  0
 10 11  1  0
 11 12  1  0
 12 13  1  0
 13 14  1  1
 13 15  1  0
 15 16  1  0
 16 17  1  0
 17 18  2  0
 18 19  1  0
 19 20  1  0
 20 21  1  0
 21 22  1  0
 22 23  1  0
 22 24  1  0
 24 25  1  0
 24 26  1  0
 19 27  1  0
 27 28  1  6
 27 29  1  0
 29 30  1  0
 30 31  1  0
 31 32  1  6
  7  5  1  0
 31 10  1  0
 31 13  1  0
 27 15  1  0
 24 18  1  0
  1 33  1  0
  1 34  1  0
  1 35  1  0
  2 36  1  1
  3 37  1  0
  3 38  1  0
  4 39  1  0
  4 40  1  0
  5 41  1  6
  8 42  1  0
  8 43  1  0
  8 44  1  0
  9 45  1  0
  9 46  1  0
  9 47  1  0
 10 48  1  1
 11 49  1  0
 11 50  1  0
 12 51  1  0
 12 52  1  0
 14 53  1  0
 14 54  1  0
 14 55  1  0
 15 56  1  6
 16 57  1  0
 16 58  1  0
 17 59  1  0
 19 60  1  1
 20 61  1  0
 20 62  1  0
 21 63  1  0
 21 64  1  0
 22 65  1  1
 23 66  1  0
 25 67  1  0
 25 68  1  0
 25 69  1  0
 26 70  1  0
 26 71  1  0
 26 72  1  0
 28 73  1  0
 28 74  1  0
 28 75  1  0
 29 76  1  0
 29 77  1  0
 30 78  1  0
 30 79  1  0
 32 80  1  0
 32 81  1  0
 32 82  1  0
M  END
>  <meeko>  (1) 
{"is_sidechain": [false], "intermolecular_energy": 2.731, "internal_energy": -0.839}

$$$$
EPH_relaxed_0001_pdb2pqr_Repair_108_r2_0001_out
     RDKit          3D

 82 86  0  0  0  0  0  0  0  0999 V2000
    0.5140   18.3910    0.0530 C   0  0  0  0  0  0  0  0  0  0  0  0
    1.5760   17.3170   -0.1950 C   0  0  2  0  0  0  0  0  0  0  0  0
    2.7900   17.8690   -0.9690 C   0  0  0  0  0  0  0  0  0  0  0  0
    4.0290   18.0880   -0.0970 C   0  0  0  0  0  0  0  0  0  0  0  0
    3.6620   18.5420    1.2840 C   0  0  2  0  0  0  0  0  0  0  0  0
    3.8660   19.9400    1.5270 O   0  0  0  0  0  0  0  0  0  0  0  0
    4.6750   19.0380    2.2990 C   0  0  0  0  0  0  0  0  0  0  0  0
    6.1350   19.1020    1.9760 C   0  0  0  0  0  0  0  0  0  0  0  0
    4.3130   18.9940    3.7510 C   0  0  0  0  0  0  0  0  0  0  0  0
    0.9640   16.1460   -0.9540 C   0  0  1  0  0  0  0  0  0  0  0  0
    0.7990   16.4360   -2.4700 C   0  0  0  0  0  0  0  0  0  0  0  0
    1.0480   15.0970   -3.2110 C   0  0  0  0  0  0  0  0  0  0  0  0
    1.0180   14.0240   -2.0980 C   0  0  1  0  0  0  0  0  0  0  0  0
   -0.4980   13.7480   -1.8480 C   0  0  0  0  0  0  0  0  0  0  0  0
    1.8040   12.7040   -2.3890 C   0  0  2  0  0  0  0  0  0  0  0  0
    1.2900   11.8890   -3.5890 C   0  0  0  0  0  0  0  0  0  0  0  0
    0.2500   10.8680   -3.2680 C   0  0  0  0  0  0  0  0  0  0  0  0
   -0.0470   10.4150   -2.0350 C   0  0  0  0  0  0  0  0  0  0  0  0
    0.7630   10.8670   -0.8140 C   0  0  1  0  0  0  0  0  0  0  0  0
    1.1220    9.6330    0.0550 C   0  0  0  0  0  0  0  0  0  0  0  0
   -0.1040    8.8110    0.4400 C   0  0  0  0  0  0  0  0  0  0  0  0
   -0.8510    8.3310   -0.8020 C   0  0  2  0  0  0  0  0  0  0  0  0
   -0.0260    7.3940   -1.5020 O   0  0  0  0  0  0  0  0  0  0  0  0
   -1.2560    9.4870   -1.7590 C   0  0  0  0  0  0  0  0  0  0  0  0
   -2.3780   10.3330   -1.1070 C   0  0  0  0  0  0  0  0  0  0  0  0
   -1.8740    8.8560   -3.0350 C   0  0  0  0  0  0  0  0  0  0  0  0
    2.0230   11.7860   -1.1190 C   0  0  1  0  0  0  0  0  0  0  0  0
    3.2690   10.8980   -1.4210 C   0  0  0  0  0  0  0  0  0  0  0  0
    2.3750   12.6210    0.1690 C   0  0  0  0  0  0  0  0  0  0  0  0
    1.6540   13.9710    0.3400 C   0  0  0  0  0  0  0  0  0  0  0  0
    1.7410   14.8060   -0.9420 C   0  0  2  0  0  0  0  0  0  0  0  0
    3.2540   15.1170   -1.2070 C   0  0  0  0  0  0  0  0  0  0  0  0
    0.3777   18.5288    1.1358 H   0  0  0  0  0  0  0  0  0  0  0  0
    0.8392   19.3395   -0.3993 H   0  0  0  0  0  0  0  0  0  0  0  0
   -0.4381   18.0765   -0.3993 H   0  0  0  0  0  0  0  0  0  0  0  0
    1.9369   16.9760    0.7865 H   0  0  0  0  0  0  0  0  0  0  0  0
    3.0477   17.1552   -1.7653 H   0  0  0  0  0  0  0  0  0  0  0  0
    2.4980   18.8529   -1.3650 H   0  0  0  0  0  0  0  0  0  0  0  0
    4.5860   17.1422   -0.0251 H   0  0  0  0  0  0  0  0  0  0  0  0
    4.6427   18.8724   -0.5640 H   0  0  0  0  0  0  0  0  0  0  0  0
    2.8648   17.7867    1.3465 H   0  0  0  0  0  0  0  0  0  0  0  0
    6.7163   19.1275    2.9095 H   0  0  0  0  0  0  0  0  0  0  0  0
    6.4202   18.2155    1.3905 H   0  0  0  0  0  0  0  0  0  0  0  0
    6.3416   20.0101    1.3905 H   0  0  0  0  0  0  0  0  0  0  0  0
    5.2228   19.1046    4.3592 H   0  0  0  0  0  0  0  0  0  0  0  0
    3.6167   19.8141    3.9803 H   0  0  0  0  0  0  0  0  0  0  0  0
    3.8335   18.0310    3.9803 H   0  0  0  0  0  0  0  0  0  0  0  0
    0.0214   16.0393   -0.3972 H   0  0  0  0  0  0  0  0  0  0  0  0
   -0.2179   16.8004   -2.6775 H   0  0  0  0  0  0  0  0  0  0  0  0
    1.5064   17.2096   -2.8035 H   0  0  0  0  0  0  0  0  0  0  0  0
    0.2567   14.9102   -3.9519 H   0  0  0  0  0  0  0  0  0  0  0  0
    1.9984   15.0971   -3.7649 H   0  0  0  0  0  0  0  0  0  0  0  0
   -0.6907   13.7129   -0.7656 H   0  0  0  0  0  0  0  0  0  0  0  0
   -1.0967   14.5519   -2.3011 H   0  0  0  0  0  0  0  0  0  0  0  0
   -0.7749   12.7847   -2.3011 H   0  0  0  0  0  0  0  0  0  0  0  0
    2.7941   13.0806   -2.6854 H   0  0  0  0  0  0  0  0  0  0  0  0
    0.8622   12.5919   -4.3190 H   0  0  0  0  0  0  0  0  0  0  0  0
    2.1571   11.3302   -3.9710 H   0  0  0  0  0  0  0  0  0  0  0  0
   -0.3222   10.4502   -4.1094 H   0  0  0  0  0  0  0  0  0  0  0  0
    0.1067   11.5442   -0.2477 H   0  0  0  0  0  0  0  0  0  0  0  0
    1.8126    8.9915   -0.5120 H   0  0  0  0  0  0  0  0  0  0  0  0
    1.5816   10.0016    0.9839 H   0  0  0  0  0  0  0  0  0  0  0  0
    0.2177    7.9378    1.0265 H   0  0  0  0  0  0  0  0  0  0  0  0
   -0.7797    9.4449    1.0330 H   0  0  0  0  0  0  0  0  0  0  0  0
   -1.7867    7.8621   -0.4635 H   0  0  0  0  0  0  0  0  0  0  0  0
    0.7800    7.2610   -0.9760 H   0  0  0  0  0  0  0  0  0  0  0  0
   -2.2950   10.2704   -0.0119 H   0  0  0  0  0  0  0  0  0  0  0  0
   -2.2771   11.3818   -1.4231 H   0  0  0  0  0  0  0  0  0  0  0  0
   -3.3586    9.9475   -1.4231 H   0  0  0  0  0  0  0  0  0  0  0  0
   -2.6167    8.0977   -2.7462 H   0  0  0  0  0  0  0  0  0  0  0  0
   -2.3633    9.6400   -3.6316 H   0  0  0  0  0  0  0  0  0  0  0  0
   -1.0800    8.3831   -3.6316 H   0  0  0  0  0  0  0  0  0  0  0  0
    3.7255   10.5727   -0.4745 H   0  0  0  0  0  0  0  0  0  0  0  0
    2.9589   10.0161   -2.0007 H   0  0  0  0  0  0  0  0  0  0  0  0
    4.0014   11.4789   -2.0007 H   0  0  0  0  0  0  0  0  0  0  0  0
    2.1320   12.0008    1.0444 H   0  0  0  0  0  0  0  0  0  0  0  0
    3.4403   12.8748    0.0652 H   0  0  0  0  0  0  0  0  0  0  0  0
    0.5960   13.7862    0.5779 H   0  0  0  0  0  0  0  0  0  0  0  0
    2.1405   14.5276    1.1546 H   0  0  0  0  0  0  0  0  0  0  0  0
    3.7798   15.2251   -0.2468 H   0  0  0  0  0  0  0  0  0  0  0  0
    3.7029   14.2924   -1.7801 H   0  0  0  0  0  0  0  0  0  0  0  0
    3.3413   16.0519   -1.7801 H   0  0  0  0  0  0  0  0  0  0  0  0
  1  2  1  0
  2  3  1  0
  3  4  1  0
  4  5  1  0
  5  6  1  0
  6  7  1  0
  7  8  1  0
  7  9  1  0
  2 10  1  0
 10 11  1  0
 11 12  1  0
 12 13  1  0
 13 14  1  1
 13 15  1  0
 15 16  1  0
 16 17  1  0
 17 18  2  0
 18 19  1  0
 19 20  1  0
 20 21  1  0
 21 22  1  0
 22 23  1  0
 22 24  1  0
 24 25  1  0
 24 26  1  0
 19 27  1  0
 27 28  1  6
 27 29  1  0
 29 30  1  0
 30 31  1  0
 31 32  1  6
  7  5  1  0
 31 10  1  0
 31 13  1  0
 27 15  1  0
 24 18  1  0
  1 33  1  0
  1 34  1  0
  1 35  1  0
  2 36  1  1
  3 37  1  0
  3 38  1  0
  4 39  1  0
  4 40  1  0
  5 41  1  1
  8 42  1  0
  8 43  1  0
  8 44  1  0
  9 45  1  0
  9 46  1  0
  9 47  1  0
 10 48  1  1
 11 49  1  0
 11 50  1  0
 12 51  1  0
 12 52  1  0
 14 53  1  0
 14 54  1  0
 14 55  1  0
 15 56  1  6
 16 57  1  0
 16 58  1  0
 17 59  1  0
 19 60  1  1
 20 61  1  0
 20 62  1  0
 21 63  1  0
 21 64  1  0
 22 65  1  1
 23 66  1  0
 25 67  1  0
 25 68  1  0
 25 69  1  0
 26 70  1  0
 26 71  1  0
 26 72  1  0
 28 73  1  0
 28 74  1  0
 28 75  1  0
 29 76  1  0
 29 77  1  0
 30 78  1  0
 30 79  1  0
 32 80  1  0
 32 81  1  0
 32 82  1  0
M  END
>  <meeko>  (2) 
{"is_sidechain": [false], "intermolecular_energy": 2.731, "internal_energy": -0.839}

$$$$
EPH_relaxed_0001_pdb2pqr_Repair_108_r2_0001_out
     RDKit          3D

 82 86  0  0  0  0  0  0  0  0999 V2000
    2.5170   17.9420   -2.5790 C   0  0  0  0  0  0  0  0  0  0  0  0
    1.1850   17.6130   -1.8990 C   0  0  2  0  0  0  0  0  0  0  0  0
    1.2900   17.6660   -0.3610 C   0  0  0  0  0  0  0  0  0  0  0  0
    0.9660   19.0400    0.2310 C   0  0  0  0  0  0  0  0  0  0  0  0
   -0.4880   19.1700    0.5690 C   0  0  2  0  0  0  0  0  0  0  0  0
   -1.3450   18.2400   -0.1070 O   0  0  0  0  0  0  0  0  0  0  0  0
   -1.5400   19.6280   -0.4240 C   0  0  0  0  0  0  0  0  0  0  0  0
   -1.1810   19.9880   -1.8310 C   0  0  0  0  0  0  0  0  0  0  0  0
   -2.8230   20.1920    0.1030 C   0  0  0  0  0  0  0  0  0  0  0  0
    0.7020   16.2370   -2.3410 C   0  0  1  0  0  0  0  0  0  0  0  0
    0.7770   16.0430   -3.8790 C   0  0  0  0  0  0  0  0  0  0  0  0
    1.1420   14.5560   -4.1250 C   0  0  0  0  0  0  0  0  0  0  0  0
    0.9390   13.8720   -2.7520 C   0  0  1  0  0  0  0  0  0  0  0  0
   -0.5970   13.6110   -2.6580 C   0  0  0  0  0  0  0  0  0  0  0  0
    1.7640   12.5680   -2.5010 C   0  0  2  0  0  0  0  0  0  0  0  0
    1.4460   11.4020   -3.4530 C   0  0  0  0  0  0  0  0  0  0  0  0
    0.3700   10.4760   -2.9910 C   0  0  0  0  0  0  0  0  0  0  0  0
   -0.1160   10.4060   -1.7380 C   0  0  0  0  0  0  0  0  0  0  0  0
    0.4910   11.2480   -0.6090 C   0  0  1  0  0  0  0  0  0  0  0  0
    0.7110   10.3570    0.6410 C   0  0  0  0  0  0  0  0  0  0  0  0
   -0.5590    9.6310    1.0740 C   0  0  0  0  0  0  0  0  0  0  0  0
   -1.1000    8.7590   -0.0560 C   0  0  2  0  0  0  0  0  0  0  0  0
   -0.1740    7.6960   -0.3010 O   0  0  0  0  0  0  0  0  0  0  0  0
   -1.3520    9.5470   -1.3720 C   0  0  0  0  0  0  0  0  0  0  0  0
   -2.5640   10.4930   -1.1880 C   0  0  0  0  0  0  0  0  0  0  0  0
   -1.7600    8.5270   -2.4690 C   0  0  0  0  0  0  0  0  0  0  0  0
    1.7820   12.0930   -0.9920 C   0  0  1  0  0  0  0  0  0  0  0  0
    3.0610   11.2190   -0.8150 C   0  0  0  0  0  0  0  0  0  0  0  0
    1.9250   13.2970    0.0130 C   0  0  0  0  0  0  0  0  0  0  0  0
    1.1830   14.5970   -0.3520 C   0  0  0  0  0  0  0  0  0  0  0  0
    1.4700   15.0050   -1.8000 C   0  0  2  0  0  0  0  0  0  0  0  0
    3.0050   15.2970   -1.9200 C   0  0  0  0  0  0  0  0  0  0  0  0
    3.2830   18.1312   -1.8126 H   0  0  0  0  0  0  0  0  0  0  0  0
    2.8278   17.0936   -3.2064 H   0  0  0  0  0  0  0  0  0  0  0  0
    2.3970   18.8375   -3.2064 H   0  0  0  0  0  0  0  0  0  0  0  0
    0.4578   18.3787   -2.2070 H   0  0  0  0  0  0  0  0  0  0  0  0
    0.5876   16.9319    0.0605 H   0  0  0  0  0  0  0  0  0  0  0  0
    2.3356   17.4430   -0.1023 H   0  0  0  0  0  0  0  0  0  0  0  0
    1.5588   19.1822    1.1466 H   0  0  0  0  0  0  0  0  0  0  0  0
    1.2124   19.8038   -0.5213 H   0  0  0  0  0  0  0  0  0  0  0  0
   -0.2456   19.4977    1.5907 H   0  0  0  0  0  0  0  0  0  0  0  0
   -0.4043   20.7669   -1.8234 H   0  0  0  0  0  0  0  0  0  0  0  0
   -0.8014   19.0967   -2.3521 H   0  0  0  0  0  0  0  0  0  0  0  0
   -2.0733   20.3651   -2.3521 H   0  0  0  0  0  0  0  0  0  0  0  0
   -2.8030   20.1832    1.2028 H   0  0  0  0  0  0  0  0  0  0  0  0
   -2.9428   21.2258   -0.2533 H   0  0  0  0  0  0  0  0  0  0  0  0
   -3.6657   19.5814   -0.2533 H   0  0  0  0  0  0  0  0  0  0  0  0
   -0.3161   16.2573   -1.9251 H   0  0  0  0  0  0  0  0  0  0  0  0
   -0.1953   16.2753   -4.3380 H   0  0  0  0  0  0  0  0  0  0  0  0
    1.5266   16.7128   -4.3255 H   0  0  0  0  0  0  0  0  0  0  0  0
    0.4776   14.1131   -4.8815 H   0  0  0  0  0  0  0  0  0  0  0  0
    2.1677   14.4354   -4.5036 H   0  0  0  0  0  0  0  0  0  0  0  0
   -0.8963   13.5602   -1.6007 H   0  0  0  0  0  0  0  0  0  0  0  0
   -1.1391   14.4299   -3.1535 H   0  0  0  0  0  0  0  0  0  0  0  0
   -0.8382   12.6590   -3.1535 H   0  0  0  0  0  0  0  0  0  0  0  0
    2.7879   12.8852   -2.7481 H   0  0  0  0  0  0  0  0  0  0  0  0
    1.1368   11.8270   -4.4193 H   0  0  0  0  0  0  0  0  0  0  0  0
    2.3633   10.7976   -3.5104 H   0  0  0  0  0  0  0  0  0  0  0  0
   -0.0620    9.7934   -3.7376 H   0  0  0  0  0  0  0  0  0  0  0  0
   -0.2474   12.0313   -0.3828 H   0  0  0  0  0  0  0  0  0  0  0  0
    1.4830    9.6086    0.4089 H   0  0  0  0  0  0  0  0  0  0  0  0
    1.0185   11.0134    1.4684 H   0  0  0  0  0  0  0  0  0  0  0  0
   -0.3321    8.9952    1.9425 H   0  0  0  0  0  0  0  0  0  0  0  0
   -1.3207   10.3805    1.3351 H   0  0  0  0  0  0  0  0  0  0  0  0
   -2.0765    8.3689    0.2669 H   0  0  0  0  0  0  0  0  0  0  0  0
    0.5900    8.0740   -0.7690 H   0  0  0  0  0  0  0  0  0  0  0  0
   -2.7538   10.6412   -0.1147 H   0  0  0  0  0  0  0  0  0  0  0  0
   -2.3470   11.4629   -1.6593 H   0  0  0  0  0  0  0  0  0  0  0  0
   -3.4522   10.0469   -1.6593 H   0  0  0  0  0  0  0  0  0  0  0  0
   -2.1285    7.6057   -1.9942 H   0  0  0  0  0  0  0  0  0  0  0  0
   -2.5542    8.9599   -3.0950 H   0  0  0  0  0  0  0  0  0  0  0  0
   -0.8864    8.2927   -3.0950 H   0  0  0  0  0  0  0  0  0  0  0  0
    3.2646   11.0799    0.2570 H   0  0  0  0  0  0  0  0  0  0  0  0
    2.9036   10.2387   -1.2886 H   0  0  0  0  0  0  0  0  0  0  0  0
    3.9171   11.7218   -1.2886 H   0  0  0  0  0  0  0  0  0  0  0  0
    1.5479   12.9615    0.9904 H   0  0  0  0  0  0  0  0  0  0  0  0
    2.9929   13.5604   -0.0027 H   0  0  0  0  0  0  0  0  0  0  0  0
    0.1011   14.4399   -0.2303 H   0  0  0  0  0  0  0  0  0  0  0  0
    1.5334   15.3992    0.3141 H   0  0  0  0  0  0  0  0  0  0  0  0
    3.4422   15.3802   -0.9140 H   0  0  0  0  0  0  0  0  0  0  0  0
    3.4930   14.4756   -2.4651 H   0  0  0  0  0  0  0  0  0  0  0  0
    3.1573   16.2402   -2.4651 H   0  0  0  0  0  0  0  0  0  0  0  0
  1  2  1  0
  2  3  1  0
  3  4  1  0
  4  5  1  0
  5  6  1  0
  6  7  1  0
  7  8  1  0
  7  9  1  0
  2 10  1  0
 10 11  1  0
 11 12  1  0
 12 13  1  0
 13 14  1  1
 13 15  1  0
 15 16  1  0
 16 17  1  0
 17 18  2  0
 18 19  1  0
 19 20  1  0
 20 21  1  0
 21 22  1  0
 22 23  1  0
 22 24  1  0
 24 25  1  0
 24 26  1  0
 19 27  1  0
 27 28  1  6
 27 29  1  0
 29 30  1  0
 30 31  1  0
 31 32  1  1
  7  5  1  0
 31 10  1  0
 31 13  1  0
 27 15  1  0
 24 18  1  0
  1 33  1  0
  1 34  1  0
  1 35  1  0
  2 36  1  6
  3 37  1  0
  3 38  1  0
  4 39  1  0
  4 40  1  0
  5 41  1  1
  8 42  1  0
  8 43  1  0
  8 44  1  0
  9 45  1  0
  9 46  1  0
  9 47  1  0
 10 48  1  1
 11 49  1  0
 11 50  1  0
 12 51  1  0
 12 52  1  0
 14 53  1  0
 14 54  1  0
 14 55  1  0
 15 56  1  6
 16 57  1  0
 16 58  1  0
 17 59  1  0
 19 60  1  1
 20 61  1  0
 20 62  1  0
 21 63  1  0
 21 64  1  0
 22 65  1  1
 23 66  1  0
 25 67  1  0
 25 68  1  0
 25 69  1  0
 26 70  1  0
 26 71  1  0
 26 72  1  0
 28 73  1  0
 28 74  1  0
 28 75  1  0
 29 76  1  0
 29 77  1  0
 30 78  1  0
 30 79  1  0
 32 80  1  0
 32 81  1  0
 32 82  1  0
M  END
>  <meeko>  (3) 
{"is_sidechain": [false], "intermolecular_energy": 2.731, "internal_energy": -0.839}

$$$$
EPH_relaxed_0001_pdb2pqr_Repair_108_r2_0001_out
     RDKit          3D

 82 86  0  0  0  0  0  0  0  0999 V2000
    4.1950   17.5680   -0.6600 C   0  0  0  0  0  0  0  0  0  0  0  0
    2.8480   18.1270   -0.1930 C   0  0  2  0  0  0  0  0  0  0  0  0
    2.9400   18.7750    1.2030 C   0  0  0  0  0  0  0  0  0  0  0  0
    4.3270   18.6640    1.8420 C   0  0  0  0  0  0  0  0  0  0  0  0
    4.3890   19.3790    3.1580 C   0  0  2  0  0  0  0  0  0  0  0  0
    5.5530   20.1940    3.3430 O   0  0  0  0  0  0  0  0  0  0  0  0
    5.4190   19.0720    4.2290 C   0  0  0  0  0  0  0  0  0  0  0  0
    6.4580   18.0130    4.0320 C   0  0  0  0  0  0  0  0  0  0  0  0
    5.1160   19.4540    5.6440 C   0  0  0  0  0  0  0  0  0  0  0  0
    1.8010   17.0190   -0.1850 C   0  0  1  0  0  0  0  0  0  0  0  0
    0.3740   17.5430   -0.4960 C   0  0  0  0  0  0  0  0  0  0  0  0
   -0.3450   16.4320   -1.3030 C   0  0  0  0  0  0  0  0  0  0  0  0
    0.5600   15.1880   -1.1450 C   0  0  1  0  0  0  0  0  0  0  0  0
    0.1850   14.5930    0.2490 C   0  0  0  0  0  0  0  0  0  0  0  0
    0.4600   14.1130   -2.2760 C   0  0  2  0  0  0  0  0  0  0  0  0
   -0.9190   13.4480   -2.4260 C   0  0  0  0  0  0  0  0  0  0  0  0
   -1.1210   12.2100   -1.6170 C   0  0  0  0  0  0  0  0  0  0  0  0
   -0.1460   11.4930   -1.0270 C   0  0  0  0  0  0  0  0  0  0  0  0
    1.3300   11.8590   -1.2260 C   0  0  1  0  0  0  0  0  0  0  0  0
    2.1430   10.5770   -1.5450 C   0  0  0  0  0  0  0  0  0  0  0  0
    1.9490    9.4850   -0.4980 C   0  0  0  0  0  0  0  0  0  0  0  0
    0.4750    9.1080   -0.3710 C   0  0  2  0  0  0  0  0  0  0  0  0
    0.0520    8.4840   -1.5870 O   0  0  0  0  0  0  0  0  0  0  0  0
   -0.4440   10.3220   -0.0590 C   0  0  0  0  0  0  0  0  0  0  0  0
   -0.1880   10.8100    1.3880 C   0  0  0  0  0  0  0  0  0  0  0  0
   -1.9160    9.8290   -0.0970 C   0  0  0  0  0  0  0  0  0  0  0  0
    1.6210   13.0370   -2.2520 C   0  0  1  0  0  0  0  0  0  0  0  0
    1.7290   12.4670   -3.7000 C   0  0  0  0  0  0  0  0  0  0  0  0
    3.0210   13.6750   -1.9200 C   0  0  0  0  0  0  0  0  0  0  0  0
    3.0380   14.8140   -0.8820 C   0  0  0  0  0  0  0  0  0  0  0  0
    1.9760   15.8680   -1.2080 C   0  0  2  0  0  0  0  0  0  0  0  0
    2.3390   16.5000   -2.5950 C   0  0  0  0  0  0  0  0  0  0  0  0
    4.8096   17.3129    0.2159 H   0  0  0  0  0  0  0  0  0  0  0  0
    4.0272   16.6652   -1.2657 H   0  0  0  0  0  0  0  0  0  0  0  0
    4.7157   18.3243   -1.2657 H   0  0  0  0  0  0  0  0  0  0  0  0
    2.5522   18.9138   -0.9026 H   0  0  0  0  0  0  0  0  0  0  0  0
    2.6852   19.8409    1.1087 H   0  0  0  0  0  0  0  0  0  0  0  0
    2.2404   18.2329    1.8562 H   0  0  0  0  0  0  0  0  0  0  0  0
    4.5619   17.6014    2.0020 H   0  0  0  0  0  0  0  0  0  0  0  0
    5.0560   19.1305    1.1632 H   0  0  0  0  0  0  0  0  0  0  0  0
    3.2927   19.4626    3.1905 H   0  0  0  0  0  0  0  0  0  0  0  0
    6.8082   17.6561    5.0118 H   0  0  0  0  0  0  0  0  0  0  0  0
    6.0236   17.1733    3.4697 H   0  0  0  0  0  0  0  0  0  0  0  0
    7.3059   18.4313    3.4697 H   0  0  0  0  0  0  0  0  0  0  0  0
    5.6511   18.7794    6.3285 H   0  0  0  0  0  0  0  0  0  0  0  0
    5.4408   20.4898    5.8217 H   0  0  0  0  0  0  0  0  0  0  0  0
    4.0334   19.3735    5.8217 H   0  0  0  0  0  0  0  0  0  0  0  0
    1.9427   16.6389    0.8375 H   0  0  0  0  0  0  0  0  0  0  0  0
   -0.1685   17.7426    0.4399 H   0  0  0  0  0  0  0  0  0  0  0  0
    0.4142   18.4824   -1.0669 H   0  0  0  0  0  0  0  0  0  0  0  0
   -1.3464   16.2387   -0.8908 H   0  0  0  0  0  0  0  0  0  0  0  0
   -0.4916   16.7103   -2.3571 H   0  0  0  0  0  0  0  0  0  0  0  0
    0.5906   15.2366    1.0435 H   0  0  0  0  0  0  0  0  0  0  0  0
   -0.9097   14.5405    0.3428 H   0  0  0  0  0  0  0  0  0  0  0  0
    0.6099   13.5827    0.3428 H   0  0  0  0  0  0  0  0  0  0  0  0
    0.6007   14.7153   -3.1856 H   0  0  0  0  0  0  0  0  0  0  0  0
   -1.6836   14.1793   -2.1250 H   0  0  0  0  0  0  0  0  0  0  0  0
   -0.9951   13.1393   -3.4790 H   0  0  0  0  0  0  0  0  0  0  0  0
   -2.1540   11.8532   -1.4922 H   0  0  0  0  0  0  0  0  0  0  0  0
    1.6678   12.2876   -0.2709 H   0  0  0  0  0  0  0  0  0  0  0  0
    1.8206   10.1893   -2.5226 H   0  0  0  0  0  0  0  0  0  0  0  0
    3.2086   10.8500   -1.5488 H   0  0  0  0  0  0  0  0  0  0  0  0
    2.5240    8.5954   -0.7946 H   0  0  0  0  0  0  0  0  0  0  0  0
    2.3001    9.8631    0.4735 H   0  0  0  0  0  0  0  0  0  0  0  0
    0.3836    8.4190    0.4816 H   0  0  0  0  0  0  0  0  0  0  0  0
    0.1280    7.5220   -1.4670 H   0  0  0  0  0  0  0  0  0  0  0  0
   -0.5776   10.0673    2.0998 H   0  0  0  0  0  0  0  0  0  0  0  0
    0.8931   10.9375    1.5461 H   0  0  0  0  0  0  0  0  0  0  0  0
   -0.6976   11.7719    1.5461 H   0  0  0  0  0  0  0  0  0  0  0  0
   -2.2876    9.7045    0.9308 H   0  0  0  0  0  0  0  0  0  0  0  0
   -2.5368   10.5683   -0.6244 H   0  0  0  0  0  0  0  0  0  0  0  0
   -1.9663    8.8650   -0.6244 H   0  0  0  0  0  0  0  0  0  0  0  0
    1.9336   11.3871   -3.6547 H   0  0  0  0  0  0  0  0  0  0  0  0
    0.7823   12.6388   -4.2332 H   0  0  0  0  0  0  0  0  0  0  0  0
    2.5472   12.9732   -4.2332 H   0  0  0  0  0  0  0  0  0  0  0  0
    3.6715   12.8720   -1.5433 H   0  0  0  0  0  0  0  0  0  0  0  0
    3.3562   14.1377   -2.8600 H   0  0  0  0  0  0  0  0  0  0  0  0
    2.8356   14.3955    0.1149 H   0  0  0  0  0  0  0  0  0  0  0  0
    4.0274   15.2942   -0.9041 H   0  0  0  0  0  0  0  0  0  0  0  0
    2.8812   17.4440   -2.4372 H   0  0  0  0  0  0  0  0  0  0  0  0
    2.9741   15.8025   -3.1608 H   0  0  0  0  0  0  0  0  0  0  0  0
    1.4165   16.6972   -3.1608 H   0  0  0  0  0  0  0  0  0  0  0  0
  1  2  1  0
  2  3  1  0
  3  4  1  0
  4  5  1  0
  5  6  1  0
  6  7  1  0
  7  8  1  0
  7  9  1  0
  2 10  1  0
 10 11  1  0
 11 12  1  0
 12 13  1  0
 13 14  1  1
 13 15  1  0
 15 16  1  0
 16 17  1  0
 17 18  2  0
 18 19  1  0
 19 20  1  0
 20 21  1  0
 21 22  1  0
 22 23  1  0
 22 24  1  0
 24 25  1  0
 24 26  1  0
 19 27  1  0
 27 28  1  6
 27 29  1  0
 29 30  1  0
 30 31  1  0
 31 32  1  6
  7  5  1  0
 31 10  1  0
 31 13  1  0
 27 15  1  0
 24 18  1  0
  1 33  1  0
  1 34  1  0
  1 35  1  0
  2 36  1  6
  3 37  1  0
  3 38  1  0
  4 39  1  0
  4 40  1  0
  5 41  1  1
  8 42  1  0
  8 43  1  0
  8 44  1  0
  9 45  1  0
  9 46  1  0
  9 47  1  0
 10 48  1  1
 11 49  1  0
 11 50  1  0
 12 51  1  0
 12 52  1  0
 14 53  1  0
 14 54  1  0
 14 55  1  0
 15 56  1  6
 16 57  1  0
 16 58  1  0
 17 59  1  0
 19 60  1  1
 20 61  1  0
 20 62  1  0
 21 63  1  0
 21 64  1  0
 22 65  1  1
 23 66  1  0
 25 67  1  0
 25 68  1  0
 25 69  1  0
 26 70  1  0
 26 71  1  0
 26 72  1  0
 28 73  1  0
 28 74  1  0
 28 75  1  0
 29 76  1  0
 29 77  1  0
 30 78  1  0
 30 79  1  0
 32 80  1  0
 32 81  1  0
 32 82  1  0
M  END
>  <meeko>  (4) 
{"is_sidechain": [false], "intermolecular_energy": 2.731, "internal_energy": -0.839}

$$$$
EPH_relaxed_0001_pdb2pqr_Repair_108_r2_0001_out
     RDKit          3D

 82 86  0  0  0  0  0  0  0  0999 V2000
    3.6820   17.7900    0.5350 C   0  0  0  0  0  0  0  0  0  0  0  0
    2.7320   18.1080   -0.6230 C   0  0  2  0  0  0  0  0  0  0  0  0
    2.0360   19.4730   -0.4460 C   0  0  0  0  0  0  0  0  0  0  0  0
    1.1580   19.5580    0.8060 C   0  0  0  0  0  0  0  0  0  0  0  0
   -0.1910   20.1340    0.4980 C   0  0  2  0  0  0  0  0  0  0  0  0
   -1.0930   20.1720    1.6110 O   0  0  0  0  0  0  0  0  0  0  0  0
   -1.4720   19.3210    0.5170 C   0  0  0  0  0  0  0  0  0  0  0  0
   -1.4650   17.8630    0.8510 C   0  0  0  0  0  0  0  0  0  0  0  0
   -2.6500   19.8240   -0.2570 C   0  0  0  0  0  0  0  0  0  0  0  0
    1.6890   17.0050   -0.7570 C   0  0  1  0  0  0  0  0  0  0  0  0
    0.4270   17.4670   -1.5330 C   0  0  0  0  0  0  0  0  0  0  0  0
   -0.0720   16.2440   -2.3450 C   0  0  0  0  0  0  0  0  0  0  0  0
    0.7090   15.0430   -1.7600 C   0  0  1  0  0  0  0  0  0  0  0  0
   -0.0650   14.6560   -0.4610 C   0  0  0  0  0  0  0  0  0  0  0  0
    0.8970   13.8140   -2.7080 C   0  0  2  0  0  0  0  0  0  0  0  0
   -0.4050   13.1240   -3.1490 C   0  0  0  0  0  0  0  0  0  0  0  0
   -0.8700   12.0150   -2.2640 C   0  0  0  0  0  0  0  0  0  0  0  0
   -0.1270   11.4000   -1.3250 C   0  0  0  0  0  0  0  0  0  0  0  0
    1.3570   11.7450   -1.1440 C   0  0  1  0  0  0  0  0  0  0  0  0
    2.1830   10.4370   -1.0320 C   0  0  0  0  0  0  0  0  0  0  0  0
    1.6620    9.5080    0.0600 C   0  0  0  0  0  0  0  0  0  0  0  0
    0.2010    9.1410   -0.1860 C   0  0  2  0  0  0  0  0  0  0  0  0
    0.1200    8.3430   -1.3710 O   0  0  0  0  0  0  0  0  0  0  0  0
   -0.7270   10.3800   -0.3260 C   0  0  0  0  0  0  0  0  0  0  0  0
   -0.8750   11.0770    1.0500 C   0  0  0  0  0  0  0  0  0  0  0  0
   -2.1430    9.8750   -0.7110 C   0  0  0  0  0  0  0  0  0  0  0  0
    1.9660   12.7630   -2.2010 C   0  0  1  0  0  0  0  0  0  0  0  0
    2.4610   11.9890   -3.4610 C   0  0  0  0  0  0  0  0  0  0  0  0
    3.2360   13.4540   -1.5780 C   0  0  0  0  0  0  0  0  0  0  0  0
    2.9960   14.7320   -0.7510 C   0  0  0  0  0  0  0  0  0  0  0  0
    2.1060   15.7190   -1.5130 C   0  0  2  0  0  0  0  0  0  0  0  0
    2.8690   16.1440   -2.8140 C   0  0  0  0  0  0  0  0  0  0  0  0
    3.1657   17.9628    1.4908 H   0  0  0  0  0  0  0  0  0  0  0  0
    3.9963   16.7377    0.4730 H   0  0  0  0  0  0  0  0  0  0  0  0
    4.5665   18.4411    0.4730 H   0  0  0  0  0  0  0  0  0  0  0  0
    3.3359   18.1625   -1.5408 H   0  0  0  0  0  0  0  0  0  0  0  0
    2.8101   20.2518   -0.3810 H   0  0  0  0  0  0  0  0  0  0  0  0
    1.3738   19.6113   -1.3133 H   0  0  0  0  0  0  0  0  0  0  0  0
    1.0281   18.5471    1.2198 H   0  0  0  0  0  0  0  0  0  0  0  0
    1.6562   20.2190    1.5304 H   0  0  0  0  0  0  0  0  0  0  0  0
    0.2427   20.8096   -0.2540 H   0  0  0  0  0  0  0  0  0  0  0  0
   -1.4644   17.7372    1.9438 H   0  0  0  0  0  0  0  0  0  0  0  0
   -2.3609   17.3855    0.4274 H   0  0  0  0  0  0  0  0  0  0  0  0
   -0.5646   17.3941    0.4274 H   0  0  0  0  0  0  0  0  0  0  0  0
   -3.4319   20.1579    0.4410 H   0  0  0  0  0  0  0  0  0  0  0  0
   -2.3393   20.6679   -0.8904 H   0  0  0  0  0  0  0  0  0  0  0  0
   -3.0447   19.0159   -0.8904 H   0  0  0  0  0  0  0  0  0  0  0  0
    1.5231   16.7790    0.3067 H   0  0  0  0  0  0  0  0  0  0  0  0
   -0.3509   17.7970   -0.8288 H   0  0  0  0  0  0  0  0  0  0  0  0
    0.6592   18.3132   -2.1964 H   0  0  0  0  0  0  0  0  0  0  0  0
   -1.1550   16.1050   -2.2119 H   0  0  0  0  0  0  0  0  0  0  0  0
    0.0950   16.3641   -3.4256 H   0  0  0  0  0  0  0  0  0  0  0  0
    0.5252   14.9511    0.4191 H   0  0  0  0  0  0  0  0  0  0  0  0
   -1.0345   15.1754   -0.4433 H   0  0  0  0  0  0  0  0  0  0  0  0
   -0.2312   13.5688   -0.4433 H   0  0  0  0  0  0  0  0  0  0  0  0
    1.3102   14.2775   -3.6160 H   0  0  0  0  0  0  0  0  0  0  0  0
   -1.1980   13.8855   -3.1850 H   0  0  0  0  0  0  0  0  0  0  0  0
   -0.1907   12.6649   -4.1254 H   0  0  0  0  0  0  0  0  0  0  0  0
   -1.9074   11.6715   -2.3900 H   0  0  0  0  0  0  0  0  0  0  0  0
    1.4250   12.3107   -0.2031 H   0  0  0  0  0  0  0  0  0  0  0  0
    2.1386    9.9083   -1.9956 H   0  0  0  0  0  0  0  0  0  0  0  0
    3.2146   10.7149   -0.7699 H   0  0  0  0  0  0  0  0  0  0  0  0
    2.2670    8.5894    0.0698 H   0  0  0  0  0  0  0  0  0  0  0  0
    1.7351   10.0276    1.0268 H   0  0  0  0  0  0  0  0  0  0  0  0
   -0.1518    8.5832    0.6940 H   0  0  0  0  0  0  0  0  0  0  0  0
    0.3550    7.4310   -1.1290 H   0  0  0  0  0  0  0  0  0  0  0  0
   -0.7187   10.3411    1.8525 H   0  0  0  0  0  0  0  0  0  0  0  0
   -0.1271   11.8789    1.1372 H   0  0  0  0  0  0  0  0  0  0  0  0
   -1.8842   11.5058    1.1372 H   0  0  0  0  0  0  0  0  0  0  0  0
   -2.7199    9.6693    0.2027 H   0  0  0  0  0  0  0  0  0  0  0  0
   -2.6581   10.6449   -1.3043 H   0  0  0  0  0  0  0  0  0  0  0  0
   -2.0547    8.9529   -1.3043 H   0  0  0  0  0  0  0  0  0  0  0  0
    3.0289   11.1011   -3.1462 H   0  0  0  0  0  0  0  0  0  0  0  0
    1.5950   11.6761   -4.0628 H   0  0  0  0  0  0  0  0  0  0  0  0
    3.1083   12.6439   -4.0628 H   0  0  0  0  0  0  0  0  0  0  0  0
    3.7260   12.7199   -0.9215 H   0  0  0  0  0  0  0  0  0  0  0  0
    3.8394   13.7773   -2.4390 H   0  0  0  0  0  0  0  0  0  0  0  0
    2.5050   14.4613    0.1954 H   0  0  0  0  0  0  0  0  0  0  0  0
    3.9666   15.2121   -0.5576 H   0  0  0  0  0  0  0  0  0  0  0  0
    3.7998   16.6625   -2.5404 H   0  0  0  0  0  0  0  0  0  0  0  0
    3.1085   15.2493   -3.4075 H   0  0  0  0  0  0  0  0  0  0  0  0
    2.2344   16.8186   -3.4075 H   0  0  0  0  0  0  0  0  0  0  0  0
  1  2  1  0
  2  3  1  0
  3  4  1  0
  4  5  1  0
  5  6  1  0
  6  7  1  0
  7  8  1  0
  7  9  1  0
  2 10  1  0
 10 11  1  0
 11 12  1  0
 12 13  1  0
 13 14  1  1
 13 15  1  0
 15 16  1  0
 16 17  1  0
 17 18  2  0
 18 19  1  0
 19 20  1  0
 20 21  1  0
 21 22  1  0
 22 23  1  0
 22 24  1  0
 24 25  1  0
 24 26  1  0
 19 27  1  0
 27 28  1  6
 27 29  1  0
 29 30  1  0
 30 31  1  0
 31 32  1  6
  7  5  1  0
 31 10  1  0
 31 13  1  0
 27 15  1  0
 24 18  1  0
  1 33  1  0
  1 34  1  0
  1 35  1  0
  2 36  1  6
  3 37  1  0
  3 38  1  0
  4 39  1  0
  4 40  1  0
  5 41  1  6
  8 42  1  0
  8 43  1  0
  8 44  1  0
  9 45  1  0
  9 46  1  0
  9 47  1  0
 10 48  1  1
 11 49  1  0
 11 50  1  0
 12 51  1  0
 12 52  1  0
 14 53  1  0
 14 54  1  0
 14 55  1  0
 15 56  1  6
 16 57  1  0
 16 58  1  0
 17 59  1  0
 19 60  1  1
 20 61  1  0
 20 62  1  0
 21 63  1  0
 21 64  1  0
 22 65  1  1
 23 66  1  0
 25 67  1  0
 25 68  1  0
 25 69  1  0
 26 70  1  0
 26 71  1  0
 26 72  1  0
 28 73  1  0
 28 74  1  0
 28 75  1  0
 29 76  1  0
 29 77  1  0
 30 78  1  0
 30 79  1  0
 32 80  1  0
 32 81  1  0
 32 82  1  0
M  END
>  <meeko>  (5) 
{"is_sidechain": [false], "intermolecular_energy": 2.731, "internal_energy": -0.839}

$$$$
EPH_relaxed_0001_pdb2pqr_Repair_108_r2_0001_out
     RDKit          3D

 82 86  0  0  0  0  0  0  0  0999 V2000
   -0.7250   10.3650   -2.9490 C   0  0  0  0  0  0  0  0  0  0  0  0
   -0.0520   10.0880   -1.6020 C   0  0  2  0  0  0  0  0  0  0  0  0
   -0.9300    9.2150   -0.6830 C   0  0  0  0  0  0  0  0  0  0  0  0
   -2.4330    9.4390   -0.8730 C   0  0  0  0  0  0  0  0  0  0  0  0
   -3.1830    8.1430   -0.9320 C   0  0  2  0  0  0  0  0  0  0  0  0
   -3.8320    7.8840   -2.1840 O   0  0  0  0  0  0  0  0  0  0  0  0
   -4.6940    8.0550   -1.0470 C   0  0  0  0  0  0  0  0  0  0  0  0
   -5.5440    9.2850   -1.1080 C   0  0  0  0  0  0  0  0  0  0  0  0
   -5.3720    6.7950   -0.6090 C   0  0  0  0  0  0  0  0  0  0  0  0
    0.2810   11.4030   -0.9080 C   0  0  1  0  0  0  0  0  0  0  0  0
    1.3940   11.2480    0.1630 C   0  0  0  0  0  0  0  0  0  0  0  0
    2.2270   12.5560    0.1350 C   0  0  0  0  0  0  0  0  0  0  0  0
    1.3780   13.5410   -0.7020 C   0  0  1  0  0  0  0  0  0  0  0  0
    0.3100   14.0950    0.2920 C   0  0  0  0  0  0  0  0  0  0  0  0
    2.1590   14.6950   -1.4120 C   0  0  2  0  0  0  0  0  0  0  0  0
    2.8840   15.6700   -0.4670 C   0  0  0  0  0  0  0  0  0  0  0  0
    2.0840   16.8540   -0.0370 C   0  0  0  0  0  0  0  0  0  0  0  0
    0.9430   17.2780   -0.6110 C   0  0  0  0  0  0  0  0  0  0  0  0
    0.3960   16.5980   -1.8730 C   0  0  1  0  0  0  0  0  0  0  0  0
   -0.0170   17.6790   -2.9060 C   0  0  0  0  0  0  0  0  0  0  0  0
   -0.9900   18.7010   -2.3260 C   0  0  0  0  0  0  0  0  0  0  0  0
   -0.3880   19.3970   -1.1080 C   0  0  2  0  0  0  0  0  0  0  0  0
    0.7210   20.1940   -1.5340 O   0  0  0  0  0  0  0  0  0  0  0  0
    0.0740   18.4070   -0.0030 C   0  0  0  0  0  0  0  0  0  0  0  0
   -1.1630   17.7610    0.6680 C   0  0  0  0  0  0  0  0  0  0  0  0
    0.7890   19.2270    1.1040 C   0  0  0  0  0  0  0  0  0  0  0  0
    1.3180   15.4690   -2.5070 C   0  0  1  0  0  0  0  0  0  0  0  0
    2.3470   16.1100   -3.4870 C   0  0  0  0  0  0  0  0  0  0  0  0
    0.4260   14.5010   -3.3700 C   0  0  0  0  0  0  0  0  0  0  0  0
   -0.2220   13.3120   -2.6350 C   0  0  0  0  0  0  0  0  0  0  0  0
    0.8130   12.5590   -1.7920 C   0  0  2  0  0  0  0  0  0  0  0  0
    1.8890   11.9720   -2.7670 C   0  0  0  0  0  0  0  0  0  0  0  0
   -1.7299   10.7786   -2.7786 H   0  0  0  0  0  0  0  0  0  0  0  0
   -0.1225   11.0882   -3.5181 H   0  0  0  0  0  0  0  0  0  0  0  0
   -0.8061    9.4272   -3.5181 H   0  0  0  0  0  0  0  0  0  0  0  0
    0.8735    9.5286   -1.8030 H   0  0  0  0  0  0  0  0  0  0  0  0
   -0.7073    8.1582   -0.8916 H   0  0  0  0  0  0  0  0  0  0  0  0
   -0.6913    9.4978    0.3529 H   0  0  0  0  0  0  0  0  0  0  0  0
   -2.8143   10.0335   -0.0297 H   0  0  0  0  0  0  0  0  0  0  0  0
   -2.5835    9.9662   -1.8266 H   0  0  0  0  0  0  0  0  0  0  0  0
   -2.4667    7.6696   -0.2444 H   0  0  0  0  0  0  0  0  0  0  0  0
   -5.7763    9.6212   -0.0867 H   0  0  0  0  0  0  0  0  0  0  0  0
   -5.0014   10.0796   -1.6411 H   0  0  0  0  0  0  0  0  0  0  0  0
   -6.4791    9.0584   -1.6411 H   0  0  0  0  0  0  0  0  0  0  0  0
   -5.3943    6.7536    0.4900 H   0  0  0  0  0  0  0  0  0  0  0  0
   -6.4010    6.7782   -0.9975 H   0  0  0  0  0  0  0  0  0  0  0  0
   -4.8191    5.9270   -0.9975 H   0  0  0  0  0  0  0  0  0  0  0  0
   -0.7126   11.6589   -0.5113 H   0  0  0  0  0  0  0  0  0  0  0  0
    0.9457   11.1056    1.1574 H   0  0  0  0  0  0  0  0  0  0  0  0
    2.0259   10.3727   -0.0478 H   0  0  0  0  0  0  0  0  0  0  0  0
    2.3780   12.9422    1.1539 H   0  0  0  0  0  0  0  0  0  0  0  0
    3.2296   12.4031   -0.2909 H   0  0  0  0  0  0  0  0  0  0  0  0
    0.6454   13.9210    1.3251 H   0  0  0  0  0  0  0  0  0  0  0  0
    0.1795   15.1745    0.1258 H   0  0  0  0  0  0  0  0  0  0  0  0
   -0.6477   13.5800    0.1258 H   0  0  0  0  0  0  0  0  0  0  0  0
    2.9521   14.1501   -1.9450 H   0  0  0  0  0  0  0  0  0  0  0  0
    3.1789   15.1134    0.4348 H   0  0  0  0  0  0  0  0  0  0  0  0
    3.7362   16.0690   -1.0367 H   0  0  0  0  0  0  0  0  0  0  0  0
    2.4588   17.4293    0.8224 H   0  0  0  0  0  0  0  0  0  0  0  0
   -0.4899   16.0300   -1.5528 H   0  0  0  0  0  0  0  0  0  0  0  0
    0.8869   18.2059   -3.2455 H   0  0  0  0  0  0  0  0  0  0  0  0
   -0.5249   17.1691   -3.7379 H   0  0  0  0  0  0  0  0  0  0  0  0
   -1.2208   19.4543   -3.0936 H   0  0  0  0  0  0  0  0  0  0  0  0
   -1.9054   18.1768   -2.0142 H   0  0  0  0  0  0  0  0  0  0  0  0
   -1.1765   20.0201   -0.6609 H   0  0  0  0  0  0  0  0  0  0  0  0
    1.3930   20.1630   -0.8320 H   0  0  0  0  0  0  0  0  0  0  0  0
   -1.0576   17.8161    1.7615 H   0  0  0  0  0  0  0  0  0  0  0  0
   -2.0709   18.3001    0.3596 H   0  0  0  0  0  0  0  0  0  0  0  0
   -1.2393   16.7079    0.3596 H   0  0  0  0  0  0  0  0  0  0  0  0
    0.4718   18.8632    2.0925 H   0  0  0  0  0  0  0  0  0  0  0  0
    1.8779   19.1092    1.0020 H   0  0  0  0  0  0  0  0  0  0  0  0
    0.5240   20.2897    1.0020 H   0  0  0  0  0  0  0  0  0  0  0  0
    3.1424   16.6055   -2.9110 H   0  0  0  0  0  0  0  0  0  0  0  0
    2.7872   15.3261   -4.1208 H   0  0  0  0  0  0  0  0  0  0  0  0
    1.8375   16.8507   -4.1208 H   0  0  0  0  0  0  0  0  0  0  0  0
   -0.3838   15.1002   -3.8118 H   0  0  0  0  0  0  0  0  0  0  0  0
    1.1149   14.0480   -4.0982 H   0  0  0  0  0  0  0  0  0  0  0  0
   -1.0188   13.6872   -1.9760 H   0  0  0  0  0  0  0  0  0  0  0  0
   -0.6357   12.6200   -3.3834 H   0  0  0  0  0  0  0  0  0  0  0  0
    2.7077   11.5254   -2.1836 H   0  0  0  0  0  0  0  0  0  0  0  0
    1.4274   11.2007   -3.4011 H   0  0  0  0  0  0  0  0  0  0  0  0
    2.2877   12.7776   -3.4011 H   0  0  0  0  0  0  0  0  0  0  0  0
  1  2  1  0
  2  3  1  0
  3  4  1  0
  4  5  1  0
  5  6  1  0
  6  7  1  0
  7  8  1  0
  7  9  1  0
  2 10  1  0
 10 11  1  0
 11 12  1  0
 12 13  1  0
 13 14  1  1
 13 15  1  0
 15 16  1  0
 16 17  1  0
 17 18  2  0
 18 19  1  0
 19 20  1  0
 20 21  1  0
 21 22  1  0
 22 23  1  0
 22 24  1  0
 24 25  1  0
 24 26  1  0
 19 27  1  0
 27 28  1  6
 27 29  1  0
 29 30  1  0
 30 31  1  0
 31 32  1  6
  7  5  1  0
 31 10  1  0
 31 13  1  0
 27 15  1  0
 24 18  1  0
  1 33  1  0
  1 34  1  0
  1 35  1  0
  2 36  1  6
  3 37  1  0
  3 38  1  0
  4 39  1  0
  4 40  1  0
  5 41  1  1
  8 42  1  0
  8 43  1  0
  8 44  1  0
  9 45  1  0
  9 46  1  0
  9 47  1  0
 10 48  1  1
 11 49  1  0
 11 50  1  0
 12 51  1  0
 12 52  1  0
 14 53  1  0
 14 54  1  0
 14 55  1  0
 15 56  1  6
 16 57  1  0
 16 58  1  0
 17 59  1  0
 19 60  1  1
 20 61  1  0
 20 62  1  0
 21 63  1  0
 21 64  1  0
 22 65  1  1
 23 66  1  0
 25 67  1  0
 25 68  1  0
 25 69  1  0
 26 70  1  0
 26 71  1  0
 26 72  1  0
 28 73  1  0
 28 74  1  0
 28 75  1  0
 29 76  1  0
 29 77  1  0
 30 78  1  0
 30 79  1  0
 32 80  1  0
 32 81  1  0
 32 82  1  0
M  END
>  <meeko>  (6) 
{"is_sidechain": [false], "intermolecular_energy": 2.731, "internal_energy": -0.839}

$$$$
EPH_relaxed_0001_pdb2pqr_Repair_108_r2_0001_out
     RDKit          3D

 82 86  0  0  0  0  0  0  0  0999 V2000
   -5.2170    5.6960   -1.7400 C   0  0  0  0  0  0  0  0  0  0  0  0
   -5.4950    7.2010   -1.7910 C   0  0  2  0  0  0  0  0  0  0  0  0
   -5.2600    7.8810   -0.4270 C   0  0  0  0  0  0  0  0  0  0  0  0
   -4.2110    8.9950   -0.4670 C   0  0  0  0  0  0  0  0  0  0  0  0
   -2.8820    8.4890   -0.9390 C   0  0  2  0  0  0  0  0  0  0  0  0
   -1.8010    8.6990   -0.0210 O   0  0  0  0  0  0  0  0  0  0  0  0
   -1.7120    9.3950   -1.2750 C   0  0  0  0  0  0  0  0  0  0  0  0
   -1.8180   10.8830   -1.1540 C   0  0  0  0  0  0  0  0  0  0  0  0
   -0.6400    8.8730   -2.1790 C   0  0  0  0  0  0  0  0  0  0  0  0
   -6.9250    7.4500   -2.2570 C   0  0  1  0  0  0  0  0  0  0  0  0
   -7.2480    6.7400   -3.5990 C   0  0  0  0  0  0  0  0  0  0  0  0
   -8.7320    6.2990   -3.5250 C   0  0  0  0  0  0  0  0  0  0  0  0
   -9.3030    7.0520   -2.3010 C   0  0  1  0  0  0  0  0  0  0  0  0
   -9.6240    8.4860   -2.8270 C   0  0  0  0  0  0  0  0  0  0  0  0
  -10.5430    6.4010   -1.6060 C   0  0  2  0  0  0  0  0  0  0  0  0
  -11.8000    6.2880   -2.4860 C   0  0  0  0  0  0  0  0  0  0  0  0
  -12.7290    7.4540   -2.4230 C   0  0  0  0  0  0  0  0  0  0  0  0
  -12.7120    8.4180   -1.4830 C   0  0  0  0  0  0  0  0  0  0  0  0
  -11.7490    8.3400   -0.2920 C   0  0  1  0  0  0  0  0  0  0  0  0
  -12.5180    8.6570    1.0170 C   0  0  0  0  0  0  0  0  0  0  0  0
  -13.2600    9.9890    0.9530 C   0  0  0  0  0  0  0  0  0  0  0  0
  -14.2500   10.0060   -0.2090 C   0  0  2  0  0  0  0  0  0  0  0  0
  -15.2870    9.0570    0.0560 O   0  0  0  0  0  0  0  0  0  0  0  0
  -13.5910    9.6900   -1.5800 C   0  0  0  0  0  0  0  0  0  0  0  0
  -12.6870   10.8730   -2.0080 C   0  0  0  0  0  0  0  0  0  0  0  0
  -14.7190    9.6000   -2.6430 C   0  0  0  0  0  0  0  0  0  0  0  0
  -10.8840    7.0110   -0.1860 C   0  0  1  0  0  0  0  0  0  0  0  0
  -11.6810    5.9180    0.5890 C   0  0  0  0  0  0  0  0  0  0  0  0
   -9.5920    7.3050    0.6650 C   0  0  0  0  0  0  0  0  0  0  0  0
   -8.3630    7.8340   -0.0980 C   0  0  0  0  0  0  0  0  0  0  0  0
   -8.0690    6.9710   -1.3290 C   0  0  2  0  0  0  0  0  0  0  0  0
   -7.7210    5.5280   -0.8310 C   0  0  0  0  0  0  0  0  0  0  0  0
   -5.1567    5.3696   -0.6913 H   0  0  0  0  0  0  0  0  0  0  0  0
   -6.0305    5.1555   -2.2460 H   0  0  0  0  0  0  0  0  0  0  0  0
   -4.2641    5.4818   -2.2460 H   0  0  0  0  0  0  0  0  0  0  0  0
   -4.7878    7.6441   -2.5076 H   0  0  0  0  0  0  0  0  0  0  0  0
   -6.2123    8.3130   -0.0857 H   0  0  0  0  0  0  0  0  0  0  0  0
   -4.8810    7.1072    0.2567 H   0  0  0  0  0  0  0  0  0  0  0  0
   -4.5553    9.7843   -1.1514 H   0  0  0  0  0  0  0  0  0  0  0  0
   -4.0862    9.3849    0.5540 H   0  0  0  0  0  0  0  0  0  0  0  0
   -3.3646    7.6711   -1.4941 H   0  0  0  0  0  0  0  0  0  0  0  0
   -1.8380   11.1639   -0.0907 H   0  0  0  0  0  0  0  0  0  0  0  0
   -0.9511   11.3532   -1.6412 H   0  0  0  0  0  0  0  0  0  0  0  0
   -2.7428   11.2255   -1.6412 H   0  0  0  0  0  0  0  0  0  0  0  0
    0.1860    8.4708   -1.5741 H   0  0  0  0  0  0  0  0  0  0  0  0
   -1.0522    8.0747   -2.8137 H   0  0  0  0  0  0  0  0  0  0  0  0
   -0.2658    9.6897   -2.8137 H   0  0  0  0  0  0  0  0  0  0  0  0
   -6.9148    8.5489   -2.3045 H   0  0  0  0  0  0  0  0  0  0  0  0
   -7.1004    7.4337   -4.4398 H   0  0  0  0  0  0  0  0  0  0  0  0
   -6.5864    5.8758   -3.7581 H   0  0  0  0  0  0  0  0  0  0  0  0
   -9.2682    6.5854   -4.4418 H   0  0  0  0  0  0  0  0  0  0  0  0
   -8.8385    5.2083   -3.4303 H   0  0  0  0  0  0  0  0  0  0  0  0
   -9.7758    9.1639   -1.9741 H   0  0  0  0  0  0  0  0  0  0  0  0
   -8.7848    8.8485   -3.4388 H   0  0  0  0  0  0  0  0  0  0  0  0
  -10.5377    8.4562   -3.4388 H   0  0  0  0  0  0  0  0  0  0  0  0
  -10.2037    5.3684   -1.4369 H   0  0  0  0  0  0  0  0  0  0  0  0
  -11.4745    6.1688   -3.5299 H   0  0  0  0  0  0  0  0  0  0  0  0
  -12.3655    5.4271   -2.0998 H   0  0  0  0  0  0  0  0  0  0  0  0
  -13.4923    7.5327   -3.2111 H   0  0  0  0  0  0  0  0  0  0  0  0
  -10.9824    9.1086   -0.4694 H   0  0  0  0  0  0  0  0  0  0  0  0
  -13.2485    7.8551    1.1996 H   0  0  0  0  0  0  0  0  0  0  0  0
  -11.7795    8.7254    1.8294 H   0  0  0  0  0  0  0  0  0  0  0  0
  -13.8074   10.1419    1.8948 H   0  0  0  0  0  0  0  0  0  0  0  0
  -12.5254   10.7935    0.8006 H   0  0  0  0  0  0  0  0  0  0  0  0
  -14.6541   11.0264   -0.2833 H   0  0  0  0  0  0  0  0  0  0  0  0
  -16.0670    9.5510    0.3630 H   0  0  0  0  0  0  0  0  0  0  0  0
  -12.2991   11.3807   -1.1126 H   0  0  0  0  0  0  0  0  0  0  0  0
  -11.8464   10.4938   -2.6077 H   0  0  0  0  0  0  0  0  0  0  0  0
  -13.2737   11.5845   -2.6077 H   0  0  0  0  0  0  0  0  0  0  0  0
  -15.6932    9.5223   -2.1382 H   0  0  0  0  0  0  0  0  0  0  0  0
  -14.7029   10.5023   -3.2720 H   0  0  0  0  0  0  0  0  0  0  0  0
  -14.5601    8.7117   -3.2720 H   0  0  0  0  0  0  0  0  0  0  0  0
  -11.5647    6.0775    1.6711 H   0  0  0  0  0  0  0  0  0  0  0  0
  -12.7460    5.9818    0.3213 H   0  0  0  0  0  0  0  0  0  0  0  0
  -11.2946    4.9235    0.3213 H   0  0  0  0  0  0  0  0  0  0  0  0
   -9.8582    8.0529    1.4264 H   0  0  0  0  0  0  0  0  0  0  0  0
   -9.2832    6.3284    1.0660 H   0  0  0  0  0  0  0  0  0  0  0  0
   -8.5573    8.8674   -0.4210 H   0  0  0  0  0  0  0  0  0  0  0  0
   -7.4915    7.7977    0.5722 H   0  0  0  0  0  0  0  0  0  0  0  0
   -7.7168    5.5107    0.2689 H   0  0  0  0  0  0  0  0  0  0  0  0
   -8.4739    4.8192   -1.2060 H   0  0  0  0  0  0  0  0  0  0  0  0
   -6.7277    5.2403   -1.2060 H   0  0  0  0  0  0  0  0  0  0  0  0
  1  2  1  0
  2  3  1  0
  3  4  1  0
  4  5  1  0
  5  6  1  0
  6  7  1  0
  7  8  1  0
  7  9  1  0
  2 10  1  0
 10 11  1  0
 11 12  1  0
 12 13  1  0
 13 14  1  6
 13 15  1  0
 15 16  1  0
 16 17  1  0
 17 18  2  0
 18 19  1  0
 19 20  1  0
 20 21  1  0
 21 22  1  0
 22 23  1  0
 22 24  1  0
 24 25  1  0
 24 26  1  0
 19 27  1  0
 27 28  1  1
 27 29  1  0
 29 30  1  0
 30 31  1  0
 31 32  1  1
  7  5  1  0
 31 10  1  0
 31 13  1  0
 27 15  1  0
 24 18  1  0
  1 33  1  0
  1 34  1  0
  1 35  1  0
  2 36  1  6
  3 37  1  0
  3 38  1  0
  4 39  1  0
  4 40  1  0
  5 41  1  6
  8 42  1  0
  8 43  1  0
  8 44  1  0
  9 45  1  0
  9 46  1  0
  9 47  1  0
 10 48  1  6
 11 49  1  0
 11 50  1  0
 12 51  1  0
 12 52  1  0
 14 53  1  0
 14 54  1  0
 14 55  1  0
 15 56  1  1
 16 57  1  0
 16 58  1  0
 17 59  1  0
 19 60  1  6
 20 61  1  0
 20 62  1  0
 21 63  1  0
 21 64  1  0
 22 65  1  6
 23 66  1  0
 25 67  1  0
 25 68  1  0
 25 69  1  0
 26 70  1  0
 26 71  1  0
 26 72  1  0
 28 73  1  0
 28 74  1  0
 28 75  1  0
 29 76  1  0
 29 77  1  0
 30 78  1  0
 30 79  1  0
 32 80  1  0
 32 81  1  0
 32 82  1  0
M  END
>  <meeko>  (7) 
{"is_sidechain": [false], "intermolecular_energy": 2.731, "internal_energy": -0.839}

$$$$
EPH_relaxed_0001_pdb2pqr_Repair_108_r2_0001_out
     RDKit          3D

 82 86  0  0  0  0  0  0  0  0999 V2000
    0.4050    8.8700   -2.5290 C   0  0  0  0  0  0  0  0  0  0  0  0
    1.1730   10.0220   -3.1830 C   0  0  2  0  0  0  0  0  0  0  0  0
    2.6660   10.0180   -2.7990 C   0  0  0  0  0  0  0  0  0  0  0  0
    3.5820   10.5950   -3.8820 C   0  0  0  0  0  0  0  0  0  0  0  0
    4.9690   10.8290   -3.3670 C   0  0  2  0  0  0  0  0  0  0  0  0
    5.5750   12.0500   -3.8120 O   0  0  0  0  0  0  0  0  0  0  0  0
    6.2010   10.8340   -4.2530 C   0  0  0  0  0  0  0  0  0  0  0  0
    6.1020   10.5990   -5.7280 C   0  0  0  0  0  0  0  0  0  0  0  0
    7.5360   10.5810   -3.6250 C   0  0  0  0  0  0  0  0  0  0  0  0
    0.5390   11.3530   -2.7970 C   0  0  1  0  0  0  0  0  0  0  0  0
   -0.8530   11.1830   -2.1340 C   0  0  0  0  0  0  0  0  0  0  0  0
   -0.9790   12.2980   -1.0650 C   0  0  0  0  0  0  0  0  0  0  0  0
    0.1870   13.2670   -1.3720 C   0  0  1  0  0  0  0  0  0  0  0  0
   -0.3300   14.1580   -2.5450 C   0  0  0  0  0  0  0  0  0  0  0  0
    0.7020   14.1300   -0.1750 C   0  0  2  0  0  0  0  0  0  0  0  0
   -0.3310   15.1030    0.4200 C   0  0  0  0  0  0  0  0  0  0  0  0
   -0.3480   16.4660   -0.1900 C   0  0  0  0  0  0  0  0  0  0  0  0
    0.6150   16.9840   -0.9750 C   0  0  0  0  0  0  0  0  0  0  0  0
    1.9140   16.2130   -1.2400 C   0  0  1  0  0  0  0  0  0  0  0  0
    3.1270   17.1640   -1.0630 C   0  0  0  0  0  0  0  0  0  0  0  0
    3.0120   18.4240   -1.9160 C   0  0  0  0  0  0  0  0  0  0  0  0
    1.7370   19.1940   -1.5810 C   0  0  2  0  0  0  0  0  0  0  0  0
    1.8410   19.7000   -0.2470 O   0  0  0  0  0  0  0  0  0  0  0  0
    0.4490   18.3340   -1.7150 C   0  0  0  0  0  0  0  0  0  0  0  0
    0.1740   18.0380   -3.2100 C   0  0  0  0  0  0  0  0  0  0  0  0
   -0.7480   19.1860   -1.2140 C   0  0  0  0  0  0  0  0  0  0  0  0
    2.0860   14.8490   -0.4420 C   0  0  1  0  0  0  0  0  0  0  0  0
    2.7210   15.1260    0.9540 C   0  0  0  0  0  0  0  0  0  0  0  0
    3.1010   13.9250   -1.2160 C   0  0  0  0  0  0  0  0  0  0  0  0
    2.5130   13.0080   -2.3050 C   0  0  0  0  0  0  0  0  0  0  0  0
    1.3020   12.2340   -1.7760 C   0  0  2  0  0  0  0  0  0  0  0  0
    1.7950   11.3120   -0.6100 C   0  0  0  0  0  0  0  0  0  0  0  0
    0.4668    8.9627   -1.4347 H   0  0  0  0  0  0  0  0  0  0  0  0
   -0.6491    8.9081   -2.8413 H   0  0  0  0  0  0  0  0  0  0  0  0
    0.8455    7.9117   -2.8413 H   0  0  0  0  0  0  0  0  0  0  0  0
    1.1133    9.8832   -4.2726 H   0  0  0  0  0  0  0  0  0  0  0  0
    2.7908   10.6157   -1.8840 H   0  0  0  0  0  0  0  0  0  0  0  0
    2.9585    8.9671   -2.6572 H   0  0  0  0  0  0  0  0  0  0  0  0
    3.6286    9.8880   -4.7234 H   0  0  0  0  0  0  0  0  0  0  0  0
    3.1673   11.5621   -4.2025 H   0  0  0  0  0  0  0  0  0  0  0  0
    4.7357   10.3007   -2.4308 H   0  0  0  0  0  0  0  0  0  0  0  0
    5.6810    9.5997   -5.9126 H   0  0  0  0  0  0  0  0  0  0  0  0
    5.4484   11.3610   -6.1776 H   0  0  0  0  0  0  0  0  0  0  0  0
    7.1038   10.6636   -6.1776 H   0  0  0  0  0  0  0  0  0  0  0  0
    7.4355   10.6000   -2.5298 H   0  0  0  0  0  0  0  0  0  0  0  0
    7.9095    9.5961   -3.9419 H   0  0  0  0  0  0  0  0  0  0  0  0
    8.2440   11.3610   -3.9419 H   0  0  0  0  0  0  0  0  0  0  0  0
    0.5259   11.8428   -3.7818 H   0  0  0  0  0  0  0  0  0  0  0  0
   -1.6470   11.2896   -2.8878 H   0  0  0  0  0  0  0  0  0  0  0  0
   -0.9544   10.1867   -1.6790 H   0  0  0  0  0  0  0  0  0  0  0  0
   -1.9464   12.8140   -1.1543 H   0  0  0  0  0  0  0  0  0  0  0  0
   -0.9321   11.9006   -0.0404 H   0  0  0  0  0  0  0  0  0  0  0  0
   -0.8425   15.0413   -2.1362 H   0  0  0  0  0  0  0  0  0  0  0  0
    0.5210   14.4810   -3.1627 H   0  0  0  0  0  0  0  0  0  0  0  0
   -1.0327   13.5795   -3.1627 H   0  0  0  0  0  0  0  0  0  0  0  0
    0.8809   13.3721    0.6019 H   0  0  0  0  0  0  0  0  0  0  0  0
   -1.3295   14.6600    0.2903 H   0  0  0  0  0  0  0  0  0  0  0  0
   -0.0453   15.2441    1.4728 H   0  0  0  0  0  0  0  0  0  0  0  0
   -1.2216   17.1005    0.0200 H   0  0  0  0  0  0  0  0  0  0  0  0
    1.8570   15.8720   -2.2843 H   0  0  0  0  0  0  0  0  0  0  0  0
    3.1924   17.4590   -0.0053 H   0  0  0  0  0  0  0  0  0  0  0  0
    4.0269   16.6215   -1.3884 H   0  0  0  0  0  0  0  0  0  0  0  0
    3.8827   19.0687   -1.7254 H   0  0  0  0  0  0  0  0  0  0  0  0
    2.9767   18.1294   -2.9752 H   0  0  0  0  0  0  0  0  0  0  0  0
    1.6448   20.0125   -2.3100 H   0  0  0  0  0  0  0  0  0  0  0  0
    2.6440   20.2460   -0.2010 H   0  0  0  0  0  0  0  0  0  0  0  0
   -0.5726   17.2344   -3.2934 H   0  0  0  0  0  0  0  0  0  0  0  0
   -0.2084   18.9460   -3.6993 H   0  0  0  0  0  0  0  0  0  0  0  0
    1.1076   17.7233   -3.6993 H   0  0  0  0  0  0  0  0  0  0  0  0
   -0.7580   19.1932   -0.1141 H   0  0  0  0  0  0  0  0  0  0  0  0
   -0.6463   20.2160   -1.5865 H   0  0  0  0  0  0  0  0  0  0  0  0
   -1.6879   18.7526   -1.5865 H   0  0  0  0  0  0  0  0  0  0  0  0
    2.0189   14.8197    1.7435 H   0  0  0  0  0  0  0  0  0  0  0  0
    3.6553   14.5537    1.0519 H   0  0  0  0  0  0  0  0  0  0  0  0
    2.9370   16.2001    1.0519 H   0  0  0  0  0  0  0  0  0  0  0  0
    3.8453   14.5772   -1.6962 H   0  0  0  0  0  0  0  0  0  0  0  0
    3.5085   13.2436   -0.4547 H   0  0  0  0  0  0  0  0  0  0  0  0
    2.2007   13.6223   -3.1624 H   0  0  0  0  0  0  0  0  0  0  0  0
    3.2849   12.2857   -2.6091 H   0  0  0  0  0  0  0  0  0  0  0  0
    1.5463   11.7770    0.3553 H   0  0  0  0  0  0  0  0  0  0  0  0
    1.3004   10.3322   -0.6832 H   0  0  0  0  0  0  0  0  0  0  0  0
    2.8845   11.1792   -0.6832 H   0  0  0  0  0  0  0  0  0  0  0  0
  1  2  1  0
  2  3  1  0
  3  4  1  0
  4  5  1  0
  5  6  1  0
  6  7  1  0
  7  8  1  0
  7  9  1  0
  2 10  1  0
 10 11  1  0
 11 12  1  0
 12 13  1  0
 13 14  1  6
 13 15  1  0
 15 16  1  0
 16 17  1  0
 17 18  2  0
 18 19  1  0
 19 20  1  0
 20 21  1  0
 21 22  1  0
 22 23  1  0
 22 24  1  0
 24 25  1  0
 24 26  1  0
 19 27  1  0
 27 28  1  1
 27 29  1  0
 29 30  1  0
 30 31  1  0
 31 32  1  1
  7  5  1  0
 31 10  1  0
 31 13  1  0
 27 15  1  0
 24 18  1  0
  1 33  1  0
  1 34  1  0
  1 35  1  0
  2 36  1  6
  3 37  1  0
  3 38  1  0
  4 39  1  0
  4 40  1  0
  5 41  1  1
  8 42  1  0
  8 43  1  0
  8 44  1  0
  9 45  1  0
  9 46  1  0
  9 47  1  0
 10 48  1  6
 11 49  1  0
 11 50  1  0
 12 51  1  0
 12 52  1  0
 14 53  1  0
 14 54  1  0
 14 55  1  0
 15 56  1  1
 16 57  1  0
 16 58  1  0
 17 59  1  0
 19 60  1  6
 20 61  1  0
 20 62  1  0
 21 63  1  0
 21 64  1  0
 22 65  1  6
 23 66  1  0
 25 67  1  0
 25 68  1  0
 25 69  1  0
 26 70  1  0
 26 71  1  0
 26 72  1  0
 28 73  1  0
 28 74  1  0
 28 75  1  0
 29 76  1  0
 29 77  1  0
 30 78  1  0
 30 79  1  0
 32 80  1  0
 32 81  1  0
 32 82  1  0
M  END
>  <meeko>  (8) 
{"is_sidechain": [false], "intermolecular_energy": 2.731, "internal_energy": -0.839}

$$$$
EPH_relaxed_0001_pdb2pqr_Repair_108_r2_0001_out
     RDKit          3D

 82 86  0  0  0  0  0  0  0  0999 V2000
   -4.0460    7.4580   -3.5540 C   0  0  0  0  0  0  0  0  0  0  0  0
   -3.6860    7.3430   -2.0700 C   0  0  2  0  0  0  0  0  0  0  0  0
   -4.8850    6.8850   -1.2150 C   0  0  0  0  0  0  0  0  0  0  0  0
   -6.0560    6.3430   -2.0390 C   0  0  0  0  0  0  0  0  0  0  0  0
   -7.3690    6.8830   -1.5580 C   0  0  2  0  0  0  0  0  0  0  0  0
   -8.3260    5.8830   -1.1830 O   0  0  0  0  0  0  0  0  0  0  0  0
   -8.6740    6.7030   -2.3110 C   0  0  0  0  0  0  0  0  0  0  0  0
   -8.7300    5.9610   -3.6090 C   0  0  0  0  0  0  0  0  0  0  0  0
   -9.7950    7.6580   -2.0380 C   0  0  0  0  0  0  0  0  0  0  0  0
   -3.1600    8.6780   -1.5570 C   0  0  1  0  0  0  0  0  0  0  0  0
   -3.8000    9.0930   -0.2050 C   0  0  0  0  0  0  0  0  0  0  0  0
   -2.7020    9.8310    0.6020 C   0  0  0  0  0  0  0  0  0  0  0  0
   -1.5820   10.1090   -0.4270 C   0  0  1  0  0  0  0  0  0  0  0  0
   -2.0510   11.3840   -1.1960 C   0  0  0  0  0  0  0  0  0  0  0  0
   -0.1390   10.2820    0.1510 C   0  0  2  0  0  0  0  0  0  0  0  0
    0.0430   11.4760    1.1040 C   0  0  0  0  0  0  0  0  0  0  0  0
    0.4540   12.7550    0.4530 C   0  0  0  0  0  0  0  0  0  0  0  0
    0.9430   12.8750   -0.7960 C   0  0  0  0  0  0  0  0  0  0  0  0
    1.2180   11.6360   -1.6570 C   0  0  1  0  0  0  0  0  0  0  0  0
    2.6160   11.7630   -2.3160 C   0  0  0  0  0  0  0  0  0  0  0  0
    2.7790   13.0640   -3.0960 C   0  0  0  0  0  0  0  0  0  0  0  0
    2.5550   14.2740   -2.1930 C   0  0  2  0  0  0  0  0  0  0  0  0
    3.6090   14.3290   -1.2270 O   0  0  0  0  0  0  0  0  0  0  0  0
    1.1810   14.2500   -1.4670 C   0  0  0  0  0  0  0  0  0  0  0  0
    0.0460   14.4940   -2.4920 C   0  0  0  0  0  0  0  0  0  0  0  0
    1.1410   15.4500   -0.4820 C   0  0  0  0  0  0  0  0  0  0  0  0
    1.0060   10.2330   -0.9400 C   0  0  1  0  0  0  0  0  0  0  0  0
    2.3110    9.8130   -0.1970 C   0  0  0  0  0  0  0  0  0  0  0  0
    0.7440    9.1310   -2.0340 C   0  0  0  0  0  0  0  0  0  0  0  0
   -0.7170    8.9260   -2.4770 C   0  0  0  0  0  0  0  0  0  0  0  0
   -1.6420    8.7800   -1.2650 C   0  0  2  0  0  0  0  0  0  0  0  0
   -1.2080    7.4930   -0.4840 C   0  0  0  0  0  0  0  0  0  0  0  0
   -5.0895    7.7914   -3.6534 H   0  0  0  0  0  0  0  0  0  0  0  0
   -3.3802    8.1882   -4.0373 H   0  0  0  0  0  0  0  0  0  0  0  0
   -3.9268    6.4771   -4.0373 H   0  0  0  0  0  0  0  0  0  0  0  0
   -2.9032    6.5756   -1.9785 H   0  0  0  0  0  0  0  0  0  0  0  0
   -4.5431    6.0920   -0.5337 H   0  0  0  0  0  0  0  0  0  0  0  0
   -5.2531    7.7706   -0.6763 H   0  0  0  0  0  0  0  0  0  0  0  0
   -5.9156    6.6319   -3.0910 H   0  0  0  0  0  0  0  0  0  0  0  0
   -6.0746    5.2486   -1.9300 H   0  0  0  0  0  0  0  0  0  0  0  0
   -6.8764    7.7723   -1.1379 H   0  0  0  0  0  0  0  0  0  0  0  0
   -8.8114    4.8820   -3.4113 H   0  0  0  0  0  0  0  0  0  0  0  0
   -9.6055    6.2953   -4.1850 H   0  0  0  0  0  0  0  0  0  0  0  0
   -7.8143    6.1602   -4.1850 H   0  0  0  0  0  0  0  0  0  0  0  0
   -9.9255    7.7692   -0.9514 H   0  0  0  0  0  0  0  0  0  0  0  0
   -9.5589    8.6368   -2.4810 H   0  0  0  0  0  0  0  0  0  0  0  0
  -10.7238    7.2694   -2.4810 H   0  0  0  0  0  0  0  0  0  0  0  0
   -3.4228    9.3195   -2.4111 H   0  0  0  0  0  0  0  0  0  0  0  0
   -4.6553    9.7621   -0.3804 H   0  0  0  0  0  0  0  0  0  0  0  0
   -4.1693    8.2138    0.3433 H   0  0  0  0  0  0  0  0  0  0  0  0
   -3.0913   10.7728    1.0161 H   0  0  0  0  0  0  0  0  0  0  0  0
   -2.3447    9.2395    1.4578 H   0  0  0  0  0  0  0  0  0  0  0  0
   -2.3375   12.1629   -0.4741 H   0  0  0  0  0  0  0  0  0  0  0  0
   -1.2300   11.7538   -1.8279 H   0  0  0  0  0  0  0  0  0  0  0  0
   -2.9159   11.1337   -1.8279 H   0  0  0  0  0  0  0  0  0  0  0  0
   -0.0247    9.3827    0.7741 H   0  0  0  0  0  0  0  0  0  0  0  0
   -0.9136   11.6488    1.6188 H   0  0  0  0  0  0  0  0  0  0  0  0
    0.8650   11.2018    1.7816 H   0  0  0  0  0  0  0  0  0  0  0  0
    0.3485   13.6772    1.0433 H   0  0  0  0  0  0  0  0  0  0  0  0
    0.4393   11.6264   -2.4339 H   0  0  0  0  0  0  0  0  0  0  0  0
    3.3822   11.7262   -1.5276 H   0  0  0  0  0  0  0  0  0  0  0  0
    2.7267   10.9312   -3.0272 H   0  0  0  0  0  0  0  0  0  0  0  0
    3.7962   13.1090   -3.5122 H   0  0  0  0  0  0  0  0  0  0  0  0
    2.0316   13.0853   -3.9028 H   0  0  0  0  0  0  0  0  0  0  0  0
    2.5557   15.1686   -2.8330 H   0  0  0  0  0  0  0  0  0  0  0  0
    3.7270   13.4330   -0.8680 H   0  0  0  0  0  0  0  0  0  0  0  0
   -0.8938   14.6960   -1.9572 H   0  0  0  0  0  0  0  0  0  0  0  0
    0.3016   15.3577   -3.1234 H   0  0  0  0  0  0  0  0  0  0  0  0
   -0.0760   13.6016   -3.1234 H   0  0  0  0  0  0  0  0  0  0  0  0
    1.1535   15.0759    0.5524 H   0  0  0  0  0  0  0  0  0  0  0  0
    2.0182   16.0920   -0.6503 H   0  0  0  0  0  0  0  0  0  0  0  0
    0.2230   16.0321   -0.6503 H   0  0  0  0  0  0  0  0  0  0  0  0
    2.1475    9.8656    0.8895 H   0  0  0  0  0  0  0  0  0  0  0  0
    2.5779    8.7836   -0.4782 H   0  0  0  0  0  0  0  0  0  0  0  0
    3.1282   10.4935   -0.4782 H   0  0  0  0  0  0  0  0  0  0  0  0
    1.3274    9.4024   -2.9262 H   0  0  0  0  0  0  0  0  0  0  0  0
    1.0378    8.1816   -1.5625 H   0  0  0  0  0  0  0  0  0  0  0  0
   -1.0377    9.7938   -3.0720 H   0  0  0  0  0  0  0  0  0  0  0  0
   -0.7760    8.0054   -3.0761 H   0  0  0  0  0  0  0  0  0  0  0  0
   -1.2716    7.6817    0.5978 H   0  0  0  0  0  0  0  0  0  0  0  0
   -1.8749    6.6599   -0.7507 H   0  0  0  0  0  0  0  0  0  0  0  0
   -0.1728    7.2339   -0.7507 H   0  0  0  0  0  0  0  0  0  0  0  0
  1  2  1  0
  2  3  1  0
  3  4  1  0
  4  5  1  0
  5  6  1  0
  6  7  1  0
  7  8  1  0
  7  9  1  0
  2 10  1  0
 10 11  1  0
 11 12  1  0
 12 13  1  0
 13 14  1  6
 13 15  1  0
 15 16  1  0
 16 17  1  0
 17 18  2  0
 18 19  1  0
 19 20  1  0
 20 21  1  0
 21 22  1  0
 22 23  1  0
 22 24  1  0
 24 25  1  0
 24 26  1  0
 19 27  1  0
 27 28  1  1
 27 29  1  0
 29 30  1  0
 30 31  1  0
 31 32  1  1
  7  5  1  0
 31 10  1  0
 31 13  1  0
 27 15  1  0
 24 18  1  0
  1 33  1  0
  1 34  1  0
  1 35  1  0
  2 36  1  6
  3 37  1  0
  3 38  1  0
  4 39  1  0
  4 40  1  0
  5 41  1  1
  8 42  1  0
  8 43  1  0
  8 44  1  0
  9 45  1  0
  9 46  1  0
  9 47  1  0
 10 48  1  6
 11 49  1  0
 11 50  1  0
 12 51  1  0
 12 52  1  0
 14 53  1  0
 14 54  1  0
 14 55  1  0
 15 56  1  1
 16 57  1  0
 16 58  1  0
 17 59  1  0
 19 60  1  6
 20 61  1  0
 20 62  1  0
 21 63  1  0
 21 64  1  0
 22 65  1  6
 23 66  1  0
 25 67  1  0
 25 68  1  0
 25 69  1  0
 26 70  1  0
 26 71  1  0
 26 72  1  0
 28 73  1  0
 28 74  1  0
 28 75  1  0
 29 76  1  0
 29 77  1  0
 30 78  1  0
 30 79  1  0
 32 80  1  0
 32 81  1  0
 32 82  1  0
M  END
>  <meeko>  (9) 
{"is_sidechain": [false], "intermolecular_energy": 2.731, "internal_energy": -0.839}

$$$$
EPH_relaxed_0001_pdb2pqr_Repair_108_r2_0001_out
     RDKit          3D

 82 86  0  0  0  0  0  0  0  0999 V2000
    2.9110   18.8450   -1.2040 C   0  0  0  0  0  0  0  0  0  0  0  0
    2.5230   17.8160   -2.2690 C   0  0  2  0  0  0  0  0  0  0  0  0
    1.0800   18.0180   -2.7730 C   0  0  0  0  0  0  0  0  0  0  0  0
    0.4210   19.3000   -2.2560 C   0  0  0  0  0  0  0  0  0  0  0  0
   -0.9230   19.0270   -1.6520 C   0  0  2  0  0  0  0  0  0  0  0  0
   -1.7200   20.1940   -1.4130 O   0  0  0  0  0  0  0  0  0  0  0  0
   -1.3130   19.4560   -0.2500 C   0  0  0  0  0  0  0  0  0  0  0  0
   -0.3570   20.1930    0.6350 C   0  0  0  0  0  0  0  0  0  0  0  0
   -2.4360   18.7380    0.4320 C   0  0  0  0  0  0  0  0  0  0  0  0
    2.6880   16.4060   -1.7150 C   0  0  1  0  0  0  0  0  0  0  0  0
    3.4480   16.3820   -0.3610 C   0  0  0  0  0  0  0  0  0  0  0  0
    2.8270   15.2370    0.4790 C   0  0  0  0  0  0  0  0  0  0  0  0
    1.9700   14.4340   -0.5270 C   0  0  1  0  0  0  0  0  0  0  0  0
    2.9850   13.5080   -1.2690 C   0  0  0  0  0  0  0  0  0  0  0  0
    0.7790   13.6190    0.0740 C   0  0  2  0  0  0  0  0  0  0  0  0
    1.1800   12.5080    1.0610 C   0  0  0  0  0  0  0  0  0  0  0  0
    1.4210   11.1680    0.4490 C   0  0  0  0  0  0  0  0  0  0  0  0
    1.0470   10.7950   -0.7890 C   0  0  0  0  0  0  0  0  0  0  0  0
    0.2210   11.7330   -1.6790 C   0  0  1  0  0  0  0  0  0  0  0  0
   -0.9530   10.9430   -2.3150 C   0  0  0  0  0  0  0  0  0  0  0  0
   -0.4830    9.6970   -3.0600 C   0  0  0  0  0  0  0  0  0  0  0  0
    0.2840    8.7620   -2.1280 C   0  0  2  0  0  0  0  0  0  0  0  0
   -0.6200    8.2450   -1.1470 O   0  0  0  0  0  0  0  0  0  0  0  0
    1.4850    9.4510   -1.4210 C   0  0  0  0  0  0  0  0  0  0  0  0
    2.6010    9.7410   -2.4550 C   0  0  0  0  0  0  0  0  0  0  0  0
    2.0850    8.4410   -0.4060 C   0  0  0  0  0  0  0  0  0  0  0  0
   -0.2540   13.0910   -1.0020 C   0  0  1  0  0  0  0  0  0  0  0  0
   -1.6030   12.8680   -0.2520 C   0  0  0  0  0  0  0  0  0  0  0  0
   -0.5420   14.1530   -2.1270 C   0  0  0  0  0  0  0  0  0  0  0  0
    0.6510   15.0100   -2.5950 C   0  0  0  0  0  0  0  0  0  0  0  0
    1.3970   15.6100   -1.4000 C   0  0  2  0  0  0  0  0  0  0  0  0
    0.4080   16.5630   -0.6470 C   0  0  0  0  0  0  0  0  0  0  0  0
    2.7494   18.4164   -0.2039 H   0  0  0  0  0  0  0  0  0  0  0  0
    3.9716   19.1121   -1.3214 H   0  0  0  0  0  0  0  0  0  0  0  0
    2.2908   19.7459   -1.3214 H   0  0  0  0  0  0  0  0  0  0  0  0
    3.1960   17.9591   -3.1273 H   0  0  0  0  0  0  0  0  0  0  0  0
    1.0982   18.0558   -3.8722 H   0  0  0  0  0  0  0  0  0  0  0  0
    0.4854   17.1747   -2.3918 H   0  0  0  0  0  0  0  0  0  0  0  0
    1.0704   19.7515   -1.4915 H   0  0  0  0  0  0  0  0  0  0  0  0
    0.2823   19.9821   -3.1078 H   0  0  0  0  0  0  0  0  0  0  0  0
   -0.9863   18.0598   -2.1721 H   0  0  0  0  0  0  0  0  0  0  0  0
   -0.6085   19.9992    1.6882 H   0  0  0  0  0  0  0  0  0  0  0  0
    0.6684   19.8494    0.4336 H   0  0  0  0  0  0  0  0  0  0  0  0
   -0.4283   21.2721    0.4336 H   0  0  0  0  0  0  0  0  0  0  0  0
   -2.3130   18.8166    1.5223 H   0  0  0  0  0  0  0  0  0  0  0  0
   -3.3938   19.1916    0.1374 H   0  0  0  0  0  0  0  0  0  0  0  0
   -2.4262   17.6782    0.1374 H   0  0  0  0  0  0  0  0  0  0  0  0
    3.2220   15.9385   -2.5554 H   0  0  0  0  0  0  0  0  0  0  0  0
    4.5179   16.1905   -0.5303 H   0  0  0  0  0  0  0  0  0  0  0  0
    3.3592   17.3471    0.1594 H   0  0  0  0  0  0  0  0  0  0  0  0
    3.6142   14.6021    0.9117 H   0  0  0  0  0  0  0  0  0  0  0  0
    2.2327   15.6152    1.3239 H   0  0  0  0  0  0  0  0  0  0  0  0
    3.5874   12.9584   -0.5307 H   0  0  0  0  0  0  0  0  0  0  0  0
    2.4360   12.7931   -1.8995 H   0  0  0  0  0  0  0  0  0  0  0  0
    3.6466   14.1201   -1.8995 H   0  0  0  0  0  0  0  0  0  0  0  0
    0.2547   14.3769    0.6746 H   0  0  0  0  0  0  0  0  0  0  0  0
    2.1045   12.8213    1.5681 H   0  0  0  0  0  0  0  0  0  0  0  0
    0.3250   12.3824    1.7416 H   0  0  0  0  0  0  0  0  0  0  0  0
    1.9489   10.4223    1.0616 H   0  0  0  0  0  0  0  0  0  0  0  0
    0.9041   12.0850   -2.4661 H   0  0  0  0  0  0  0  0  0  0  0  0
   -1.6454   10.6367   -1.5170 H   0  0  0  0  0  0  0  0  0  0  0  0
   -1.4439   11.6036   -3.0448 H   0  0  0  0  0  0  0  0  0  0  0  0
   -1.3585    9.1661   -3.4621 H   0  0  0  0  0  0  0  0  0  0  0  0
    0.1865   10.0069   -3.8759 H   0  0  0  0  0  0  0  0  0  0  0  0
    0.7049    7.9542   -2.7447 H   0  0  0  0  0  0  0  0  0  0  0  0
   -1.4550    8.7370   -1.2280 H   0  0  0  0  0  0  0  0  0  0  0  0
    3.5353    9.9838   -1.9277 H   0  0  0  0  0  0  0  0  0  0  0  0
    2.7560    8.8533   -3.0859 H   0  0  0  0  0  0  0  0  0  0  0  0
    2.3043   10.5919   -3.0859 H   0  0  0  0  0  0  0  0  0  0  0  0
    1.8804    8.7854    0.6185 H   0  0  0  0  0  0  0  0  0  0  0  0
    1.6277    7.4523   -0.5587 H   0  0  0  0  0  0  0  0  0  0  0  0
    3.1720    8.3697   -0.5587 H   0  0  0  0  0  0  0  0  0  0  0  0
   -1.4281   12.8969    0.8336 H   0  0  0  0  0  0  0  0  0  0  0  0
   -2.3127   13.6610   -0.5303 H   0  0  0  0  0  0  0  0  0  0  0  0
   -2.0197   11.8888   -0.5303 H   0  0  0  0  0  0  0  0  0  0  0  0
   -0.9280   13.6126   -3.0039 H   0  0  0  0  0  0  0  0  0  0  0  0
   -1.2492   14.8651   -1.6767 H   0  0  0  0  0  0  0  0  0  0  0  0
    1.3434   14.3788   -3.1714 H   0  0  0  0  0  0  0  0  0  0  0  0
    0.2693   15.8318   -3.2187 H   0  0  0  0  0  0  0  0  0  0  0  0
    0.5355   16.4401    0.4387 H   0  0  0  0  0  0  0  0  0  0  0  0
    0.6202   17.6058   -0.9254 H   0  0  0  0  0  0  0  0  0  0  0  0
   -0.6262   16.3123   -0.9254 H   0  0  0  0  0  0  0  0  0  0  0  0
  1  2  1  0
  2  3  1  0
  3  4  1  0
  4  5  1  0
  5  6  1  0
  6  7  1  0
  7  8  1  0
  7  9  1  0
  2 10  1  0
 10 11  1  0
 11 12  1  0
 12 13  1  0
 13 14  1  6
 13 15  1  0
 15 16  1  0
 16 17  1  0
 17 18  2  0
 18 19  1  0
 19 20  1  0
 20 21  1  0
 21 22  1  0
 22 23  1  0
 22 24  1  0
 24 25  1  0
 24 26  1  0
 19 27  1  0
 27 28  1  1
 27 29  1  0
 29 30  1  0
 30 31  1  0
 31 32  1  1
  7  5  1  0
 31 10  1  0
 31 13  1  0
 27 15  1  0
 24 18  1  0
  1 33  1  0
  1 34  1  0
  1 35  1  0
  2 36  1  6
  3 37  1  0
  3 38  1  0
  4 39  1  0
  4 40  1  0
  5 41  1  6
  8 42  1  0
  8 43  1  0
  8 44  1  0
  9 45  1  0
  9 46  1  0
  9 47  1  0
 10 48  1  6
 11 49  1  0
 11 50  1  0
 12 51  1  0
 12 52  1  0
 14 53  1  0
 14 54  1  0
 14 55  1  0
 15 56  1  1
 16 57  1  0
 16 58  1  0
 17 59  1  0
 19 60  1  6
 20 61  1  0
 20 62  1  0
 21 63  1  0
 21 64  1  0
 22 65  1  6
 23 66  1  0
 25 67  1  0
 25 68  1  0
 25 69  1  0
 26 70  1  0
 26 71  1  0
 26 72  1  0
 28 73  1  0
 28 74  1  0
 28 75  1  0
 29 76  1  0
 29 77  1  0
 30 78  1  0
 30 79  1  0
 32 80  1  0
 32 81  1  0
 32 82  1  0
M  END
>  <meeko>  (10) 
{"is_sidechain": [false], "intermolecular_energy": 2.731, "internal_energy": -0.839}

$$$$
EPH_relaxed_0001_pdb2pqr_Repair_108_r2_0001_out
     RDKit          3D

 82 86  0  0  0  0  0  0  0  0999 V2000
   -0.8910   16.3800   -5.8260 C   0  0  0  0  0  0  0  0  0  0  0  0
    0.1890   15.6770   -6.6540 C   0  0  2  0  0  0  0  0  0  0  0  0
   -0.2190   15.5260   -8.1330 C   0  0  0  0  0  0  0  0  0  0  0  0
    0.4440   16.5470   -9.0620 C   0  0  0  0  0  0  0  0  0  0  0  0
    1.8430   16.1440   -9.4180 C   0  0  2  0  0  0  0  0  0  0  0  0
    2.3250   16.6850  -10.6550 O   0  0  0  0  0  0  0  0  0  0  0  0
    2.1830   15.2560  -10.6000 C   0  0  0  0  0  0  0  0  0  0  0  0
    1.1180   14.7160  -11.5020 C   0  0  0  0  0  0  0  0  0  0  0  0
    3.4870   14.5210  -10.5910 C   0  0  0  0  0  0  0  0  0  0  0  0
    0.4940   14.3090   -6.0560 C   0  0  1  0  0  0  0  0  0  0  0  0
    1.7310   13.6340   -6.7070 C   0  0  0  0  0  0  0  0  0  0  0  0
    2.4490   12.8380   -5.5870 C   0  0  0  0  0  0  0  0  0  0  0  0
    1.4340   12.8070   -4.4200 C   0  0  1  0  0  0  0  0  0  0  0  0
    0.4450   11.6540   -4.7790 C   0  0  0  0  0  0  0  0  0  0  0  0
    2.0340   12.6270   -2.9870 C   0  0  2  0  0  0  0  0  0  0  0  0
    2.7830   11.3030   -2.7550 C   0  0  0  0  0  0  0  0  0  0  0  0
    1.9450   10.1800   -2.2390 C   0  0  0  0  0  0  0  0  0  0  0  0
    0.7160   10.3010   -1.7060 C   0  0  0  0  0  0  0  0  0  0  0  0
    0.0850   11.6830   -1.4880 C   0  0  1  0  0  0  0  0  0  0  0  0
   -0.5280   11.7540   -0.0650 C   0  0  0  0  0  0  0  0  0  0  0  0
   -1.5070   10.6160    0.2080 C   0  0  0  0  0  0  0  0  0  0  0  0
   -0.8270    9.2600    0.0390 C   0  0  2  0  0  0  0  0  0  0  0  0
    0.1590    9.1070    1.0640 O   0  0  0  0  0  0  0  0  0  0  0  0
   -0.1640    9.0760   -1.3550 C   0  0  0  0  0  0  0  0  0  0  0  0
   -1.2620    8.9400   -2.4390 C   0  0  0  0  0  0  0  0  0  0  0  0
    0.6050    7.7280   -1.3440 C   0  0  0  0  0  0  0  0  0  0  0  0
    1.0150   12.9290   -1.8150 C   0  0  1  0  0  0  0  0  0  0  0  0
    1.8710   13.2970   -0.5650 C   0  0  0  0  0  0  0  0  0  0  0  0
    0.1100   14.1810   -2.1170 C   0  0  0  0  0  0  0  0  0  0  0  0
   -0.3530   14.3690   -3.5750 C   0  0  0  0  0  0  0  0  0  0  0  0
    0.8280   14.2520   -4.5440 C   0  0  2  0  0  0  0  0  0  0  0  0
    1.8290   15.4130   -4.2210 C   0  0  0  0  0  0  0  0  0  0  0  0
   -0.6797   16.2424   -4.7553 H   0  0  0  0  0  0  0  0  0  0  0  0
   -0.8945   17.4539   -6.0640 H   0  0  0  0  0  0  0  0  0  0  0  0
   -1.8744   15.9485   -6.0640 H   0  0  0  0  0  0  0  0  0  0  0  0
    1.0909   16.3060   -6.6231 H   0  0  0  0  0  0  0  0  0  0  0  0
    0.0616   14.5170   -8.4693 H   0  0  0  0  0  0  0  0  0  0  0  0
   -1.3039   15.6998   -8.1865 H   0  0  0  0  0  0  0  0  0  0  0  0
   -0.1496   16.6281   -9.9845 H   0  0  0  0  0  0  0  0  0  0  0  0
    0.4878   17.5122   -8.5362 H   0  0  0  0  0  0  0  0  0  0  0  0
    2.1251   16.0979   -8.3558 H   0  0  0  0  0  0  0  0  0  0  0  0
    0.2995   14.3010  -10.8955 H   0  0  0  0  0  0  0  0  0  0  0  0
    0.7296   15.5261  -12.1368 H   0  0  0  0  0  0  0  0  0  0  0  0
    1.5420   13.9240  -12.1368 H   0  0  0  0  0  0  0  0  0  0  0  0
    3.8010   14.3440   -9.5517 H   0  0  0  0  0  0  0  0  0  0  0  0
    3.3681   13.5570  -11.1073 H   0  0  0  0  0  0  0  0  0  0  0  0
    4.2501   15.1218  -11.1073 H   0  0  0  0  0  0  0  0  0  0  0  0
   -0.4649   13.8060   -6.2496 H   0  0  0  0  0  0  0  0  0  0  0  0
    1.4120   12.9535   -7.5102 H   0  0  0  0  0  0  0  0  0  0  0  0
    2.4023   14.3844   -7.1500 H   0  0  0  0  0  0  0  0  0  0  0  0
    2.6839   11.8179   -5.9248 H   0  0  0  0  0  0  0  0  0  0  0  0
    3.4057   13.2965   -5.2964 H   0  0  0  0  0  0  0  0  0  0  0  0
    0.0574   11.2021   -3.8540 H   0  0  0  0  0  0  0  0  0  0  0  0
   -0.3914   12.0584   -5.3680 H   0  0  0  0  0  0  0  0  0  0  0  0
    0.9720   10.8889   -5.3680 H   0  0  0  0  0  0  0  0  0  0  0  0
    2.8018   13.4139   -2.9519 H   0  0  0  0  0  0  0  0  0  0  0  0
    3.2216   10.9878   -3.7133 H   0  0  0  0  0  0  0  0  0  0  0  0
    3.5314   11.5084   -1.9754 H   0  0  0  0  0  0  0  0  0  0  0  0
    2.3691    9.1669   -2.3000 H   0  0  0  0  0  0  0  0  0  0  0  0
   -0.7107   11.7762   -2.2418 H   0  0  0  0  0  0  0  0  0  0  0  0
    0.2864   11.7031    0.6727 H   0  0  0  0  0  0  0  0  0  0  0  0
   -1.0852   12.6993    0.0116 H   0  0  0  0  0  0  0  0  0  0  0  0
   -1.8836   10.7042    1.2378 H   0  0  0  0  0  0  0  0  0  0  0  0
   -2.3360   10.6855   -0.5116 H   0  0  0  0  0  0  0  0  0  0  0  0
   -1.6069    8.4885    0.1198 H   0  0  0  0  0  0  0  0  0  0  0  0
   -0.3080    8.9190    1.8960 H   0  0  0  0  0  0  0  0  0  0  0  0
   -2.2422    8.8186   -1.9548 H   0  0  0  0  0  0  0  0  0  0  0  0
   -1.2722    9.8437   -3.0660 H   0  0  0  0  0  0  0  0  0  0  0  0
   -1.0514    8.0611   -3.0660 H   0  0  0  0  0  0  0  0  0  0  0  0
    0.7830    7.4159   -0.3043 H   0  0  0  0  0  0  0  0  0  0  0  0
    0.0084    6.9613   -1.8599 H   0  0  0  0  0  0  0  0  0  0  0  0
    1.5686    7.8514   -1.8599 H   0  0  0  0  0  0  0  0  0  0  0  0
    1.3084   13.0551    0.3488 H   0  0  0  0  0  0  0  0  0  0  0  0
    2.8090   12.7226   -0.5809 H   0  0  0  0  0  0  0  0  0  0  0  0
    2.0995   14.3729   -0.5809 H   0  0  0  0  0  0  0  0  0  0  0  0
   -0.7901   14.0999   -1.4900 H   0  0  0  0  0  0  0  0  0  0  0  0
    0.7448   15.0533   -1.9021 H   0  0  0  0  0  0  0  0  0  0  0  0
   -1.0968   13.5962   -3.8190 H   0  0  0  0  0  0  0  0  0  0  0  0
   -0.7929   15.3720   -3.6771 H   0  0  0  0  0  0  0  0  0  0  0  0
    1.9237   15.5228   -3.1306 H   0  0  0  0  0  0  0  0  0  0  0  0
    2.8133   15.1792   -4.6528 H   0  0  0  0  0  0  0  0  0  0  0  0
    1.4529   16.3522   -4.6528 H   0  0  0  0  0  0  0  0  0  0  0  0
  1  2  1  0
  2  3  1  0
  3  4  1  0
  4  5  1  0
  5  6  1  0
  6  7  1  0
  7  8  1  0
  7  9  1  0
  2 10  1  0
 10 11  1  0
 11 12  1  0
 12 13  1  0
 13 14  1  6
 13 15  1  0
 15 16  1  0
 16 17  1  0
 17 18  2  0
 18 19  1  0
 19 20  1  0
 20 21  1  0
 21 22  1  0
 22 23  1  0
 22 24  1  0
 24 25  1  0
 24 26  1  0
 19 27  1  0
 27 28  1  1
 27 29  1  0
 29 30  1  0
 30 31  1  0
 31 32  1  1
  7  5  1  0
 31 10  1  0
 31 13  1  0
 27 15  1  0
 24 18  1  0
  1 33  1  0
  1 34  1  0
  1 35  1  0
  2 36  1  6
  3 37  1  0
  3 38  1  0
  4 39  1  0
  4 40  1  0
  5 41  1  1
  8 42  1  0
  8 43  1  0
  8 44  1  0
  9 45  1  0
  9 46  1  0
  9 47  1  0
 10 48  1  1
 11 49  1  0
 11 50  1  0
 12 51  1  0
 12 52  1  0
 14 53  1  0
 14 54  1  0
 14 55  1  0
 15 56  1  1
 16 57  1  0
 16 58  1  0
 17 59  1  0
 19 60  1  6
 20 61  1  0
 20 62  1  0
 21 63  1  0
 21 64  1  0
 22 65  1  1
 23 66  1  0
 25 67  1  0
 25 68  1  0
 25 69  1  0
 26 70  1  0
 26 71  1  0
 26 72  1  0
 28 73  1  0
 28 74  1  0
 28 75  1  0
 29 76  1  0
 29 77  1  0
 30 78  1  0
 30 79  1  0
 32 80  1  0
 32 81  1  0
 32 82  1  0
M  END
>  <meeko>  (11) 
{"is_sidechain": [false], "intermolecular_energy": 2.731, "internal_energy": -0.839}

$$$$
EPH_relaxed_0001_pdb2pqr_Repair_108_r2_0001_out
     RDKit          3D

 82 86  0  0  0  0  0  0  0  0999 V2000
   -0.2930   15.1940   -7.5680 C   0  0  0  0  0  0  0  0  0  0  0  0
    1.0970   15.1110   -6.9310 C   0  0  2  0  0  0  0  0  0  0  0  0
    2.2220   15.1710   -7.9830 C   0  0  0  0  0  0  0  0  0  0  0  0
    2.2590   16.4830   -8.7720 C   0  0  0  0  0  0  0  0  0  0  0  0
    1.8540   16.2820  -10.2010 C   0  0  2  0  0  0  0  0  0  0  0  0
    1.1930   15.0390  -10.4670 O   0  0  0  0  0  0  0  0  0  0  0  0
    2.4670   15.2280  -11.1030 C   0  0  0  0  0  0  0  0  0  0  0  0
    3.5370   14.3040  -10.6100 C   0  0  0  0  0  0  0  0  0  0  0  0
    2.3780   15.4160  -12.5860 C   0  0  0  0  0  0  0  0  0  0  0  0
    1.2170   13.8320   -6.1110 C   0  0  1  0  0  0  0  0  0  0  0  0
    2.6340   13.2040   -6.1890 C   0  0  0  0  0  0  0  0  0  0  0  0
    2.9200   12.5740   -4.8020 C   0  0  0  0  0  0  0  0  0  0  0  0
    1.5490   12.5650   -4.0870 C   0  0  1  0  0  0  0  0  0  0  0  0
    0.8120   11.3080   -4.6460 C   0  0  0  0  0  0  0  0  0  0  0  0
    1.5840   12.5650   -2.5240 C   0  0  2  0  0  0  0  0  0  0  0  0
    2.2490   11.3320   -1.8860 C   0  0  0  0  0  0  0  0  0  0  0  0
    1.3290   10.1960   -1.5850 C   0  0  0  0  0  0  0  0  0  0  0  0
   -0.0150   10.2650   -1.5520 C   0  0  0  0  0  0  0  0  0  0  0  0
   -0.7390   11.6040   -1.7370 C   0  0  1  0  0  0  0  0  0  0  0  0
   -1.8370   11.7540   -0.6510 C   0  0  0  0  0  0  0  0  0  0  0  0
   -2.7980   10.5690   -0.6240 C   0  0  0  0  0  0  0  0  0  0  0  0
   -2.0470    9.2630   -0.3800 C   0  0  2  0  0  0  0  0  0  0  0  0
   -1.5040    9.2840    0.9440 O   0  0  0  0  0  0  0  0  0  0  0  0
   -0.9090    9.0090   -1.4080 C   0  0  0  0  0  0  0  0  0  0  0  0
   -1.5220    8.6870   -2.7930 C   0  0  0  0  0  0  0  0  0  0  0  0
   -0.1420    7.7340   -0.9650 C   0  0  0  0  0  0  0  0  0  0  0  0
    0.1920   12.8880   -1.8430 C   0  0  1  0  0  0  0  0  0  0  0  0
    0.5090   13.4350   -0.4180 C   0  0  0  0  0  0  0  0  0  0  0  0
   -0.5900   14.0300   -2.5940 C   0  0  0  0  0  0  0  0  0  0  0  0
   -0.4890   14.0470   -4.1310 C   0  0  0  0  0  0  0  0  0  0  0  0
    0.9700   13.9390   -4.5860 C   0  0  2  0  0  0  0  0  0  0  0  0
    1.7310   15.2020   -4.0560 C   0  0  0  0  0  0  0  0  0  0  0  0
   -1.0565   15.2396   -6.7774 H   0  0  0  0  0  0  0  0  0  0  0  0
   -0.3570   16.0976   -8.1921 H   0  0  0  0  0  0  0  0  0  0  0  0
   -0.4640   14.3045   -8.1921 H   0  0  0  0  0  0  0  0  0  0  0  0
    1.2132   15.9856   -6.2740 H   0  0  0  0  0  0  0  0  0  0  0  0
    3.1860   15.0486   -7.4676 H   0  0  0  0  0  0  0  0  0  0  0  0
    2.0275   14.3662   -8.7072 H   0  0  0  0  0  0  0  0  0  0  0  0
    1.5691   17.2003   -8.3035 H   0  0  0  0  0  0  0  0  0  0  0  0
    3.2914   16.8625   -8.7583 H   0  0  0  0  0  0  0  0  0  0  0  0
    1.6929   17.3622  -10.3319 H   0  0  0  0  0  0  0  0  0  0  0  0
    3.5406   14.3009   -9.5100 H   0  0  0  0  0  0  0  0  0  0  0  0
    3.3413   13.2864  -10.9789 H   0  0  0  0  0  0  0  0  0  0  0  0
    4.5153   14.6459  -10.9789 H   0  0  0  0  0  0  0  0  0  0  0  0
    1.9168   16.3903  -12.8051 H   0  0  0  0  0  0  0  0  0  0  0  0
    3.3877   15.3822  -13.0211 H   0  0  0  0  0  0  0  0  0  0  0  0
    1.7642   14.6136  -13.0211 H   0  0  0  0  0  0  0  0  0  0  0  0
    0.4194   13.2367   -6.5796 H   0  0  0  0  0  0  0  0  0  0  0  0
    2.6630   12.4299   -6.9700 H   0  0  0  0  0  0  0  0  0  0  0  0
    3.3893   13.9627   -6.4418 H   0  0  0  0  0  0  0  0  0  0  0  0
    3.3068   11.5502   -4.9129 H   0  0  0  0  0  0  0  0  0  0  0  0
    3.6805   13.1343   -4.2384 H   0  0  0  0  0  0  0  0  0  0  0  0
    0.4510   10.6922   -3.8090 H   0  0  0  0  0  0  0  0  0  0  0  0
   -0.0420   11.6272   -5.2615 H   0  0  0  0  0  0  0  0  0  0  0  0
    1.5076   10.7186   -5.2615 H   0  0  0  0  0  0  0  0  0  0  0  0
    2.2505   13.4120   -2.3040 H   0  0  0  0  0  0  0  0  0  0  0  0
    3.0239   10.9681   -2.5768 H   0  0  0  0  0  0  0  0  0  0  0  0
    2.6457   11.6676   -0.9165 H   0  0  0  0  0  0  0  0  0  0  0  0
    1.7882    9.2194   -1.3720 H   0  0  0  0  0  0  0  0  0  0  0  0
   -1.2021   11.5627   -2.7339 H   0  0  0  0  0  0  0  0  0  0  0  0
   -1.3514   11.8368    0.3325 H   0  0  0  0  0  0  0  0  0  0  0  0
   -2.4227   12.6539   -0.8900 H   0  0  0  0  0  0  0  0  0  0  0  0
   -3.5313   10.7186    0.1821 H   0  0  0  0  0  0  0  0  0  0  0  0
   -3.3048   10.5058   -1.5982 H   0  0  0  0  0  0  0  0  0  0  0  0
   -2.7675    8.4406   -0.5009 H   0  0  0  0  0  0  0  0  0  0  0  0
   -1.8540    8.5110    1.4180 H   0  0  0  0  0  0  0  0  0  0  0  0
   -2.4884    8.1794   -2.6572 H   0  0  0  0  0  0  0  0  0  0  0  0
   -1.6742    9.6216   -3.3528 H   0  0  0  0  0  0  0  0  0  0  0  0
   -0.8389    8.0313   -3.3528 H   0  0  0  0  0  0  0  0  0  0  0  0
   -0.1134    7.6865    0.1336 H   0  0  0  0  0  0  0  0  0  0  0  0
   -0.6542    6.8431   -1.3574 H   0  0  0  0  0  0  0  0  0  0  0  0
    0.8850    7.7691   -1.3574 H   0  0  0  0  0  0  0  0  0  0  0  0
    0.1082   12.7435    0.3377 H   0  0  0  0  0  0  0  0  0  0  0  0
    1.5983   13.5234   -0.2931 H   0  0  0  0  0  0  0  0  0  0  0  0
    0.0441   14.4241   -0.2931 H   0  0  0  0  0  0  0  0  0  0  0  0
   -1.6538   13.9328   -2.3316 H   0  0  0  0  0  0  0  0  0  0  0  0
   -0.1173   14.9670   -2.2644 H   0  0  0  0  0  0  0  0  0  0  0  0
   -1.0568   13.1975   -4.5383 H   0  0  0  0  0  0  0  0  0  0  0  0
   -0.9017   14.9979   -4.4991 H   0  0  0  0  0  0  0  0  0  0  0  0
    1.7280   15.1971   -2.9560 H   0  0  0  0  0  0  0  0  0  0  0  0
    2.7689   15.1843   -4.4200 H   0  0  0  0  0  0  0  0  0  0  0  0
    1.2303   16.1113   -4.4200 H   0  0  0  0  0  0  0  0  0  0  0  0
  1  2  1  0
  2  3  1  0
  3  4  1  0
  4  5  1  0
  5  6  1  0
  6  7  1  0
  7  8  1  0
  7  9  1  0
  2 10  1  0
 10 11  1  0
 11 12  1  0
 12 13  1  0
 13 14  1  6
 13 15  1  0
 15 16  1  0
 16 17  1  0
 17 18  2  0
 18 19  1  0
 19 20  1  0
 20 21  1  0
 21 22  1  0
 22 23  1  0
 22 24  1  0
 24 25  1  0
 24 26  1  0
 19 27  1  0
 27 28  1  1
 27 29  1  0
 29 30  1  0
 30 31  1  0
 31 32  1  1
  7  5  1  0
 31 10  1  0
 31 13  1  0
 27 15  1  0
 24 18  1  0
  1 33  1  0
  1 34  1  0
  1 35  1  0
  2 36  1  1
  3 37  1  0
  3 38  1  0
  4 39  1  0
  4 40  1  0
  5 41  1  6
  8 42  1  0
  8 43  1  0
  8 44  1  0
  9 45  1  0
  9 46  1  0
  9 47  1  0
 10 48  1  6
 11 49  1  0
 11 50  1  0
 12 51  1  0
 12 52  1  0
 14 53  1  0
 14 54  1  0
 14 55  1  0
 15 56  1  6
 16 57  1  0
 16 58  1  0
 17 59  1  0
 19 60  1  6
 20 61  1  0
 20 62  1  0
 21 63  1  0
 21 64  1  0
 22 65  1  1
 23 66  1  0
 25 67  1  0
 25 68  1  0
 25 69  1  0
 26 70  1  0
 26 71  1  0
 26 72  1  0
 28 73  1  0
 28 74  1  0
 28 75  1  0
 29 76  1  0
 29 77  1  0
 30 78  1  0
 30 79  1  0
 32 80  1  0
 32 81  1  0
 32 82  1  0
M  END
>  <meeko>  (12) 
{"is_sidechain": [false], "intermolecular_energy": 2.731, "internal_energy": -0.839}

$$$$
EPH_relaxed_0001_pdb2pqr_Repair_108_r2_0001_out
     RDKit          3D

 82 86  0  0  0  0  0  0  0  0999 V2000
   -2.4360    7.7770   -2.1870 C   0  0  0  0  0  0  0  0  0  0  0  0
   -2.6250    8.4680   -0.8330 C   0  0  2  0  0  0  0  0  0  0  0  0
   -4.1100    8.5530   -0.4270 C   0  0  0  0  0  0  0  0  0  0  0  0
   -4.8410    7.2090   -0.4810 C   0  0  0  0  0  0  0  0  0  0  0  0
   -5.7190    7.1030   -1.6910 C   0  0  2  0  0  0  0  0  0  0  0  0
   -6.5750    8.2330   -1.9100 O   0  0  0  0  0  0  0  0  0  0  0  0
   -7.2300    6.9880   -1.6200 C   0  0  0  0  0  0  0  0  0  0  0  0
   -7.9510    6.9700   -0.3080 C   0  0  0  0  0  0  0  0  0  0  0  0
   -7.9590    6.4030   -2.7900 C   0  0  0  0  0  0  0  0  0  0  0  0
   -2.0150    9.8640   -0.8730 C   0  0  1  0  0  0  0  0  0  0  0  0
   -1.5450   10.3500    0.5250 C   0  0  0  0  0  0  0  0  0  0  0  0
   -0.2710   11.2040    0.2960 C   0  0  0  0  0  0  0  0  0  0  0  0
   -0.2400   11.4570   -1.2290 C   0  0  1  0  0  0  0  0  0  0  0  0
   -1.2280   12.6420   -1.4600 C   0  0  0  0  0  0  0  0  0  0  0  0
    1.1650   11.7460   -1.8530 C   0  0  2  0  0  0  0  0  0  0  0  0
    1.8580   13.0190   -1.3360 C   0  0  0  0  0  0  0  0  0  0  0  0
    1.5700   14.2620   -2.1100 C   0  0  0  0  0  0  0  0  0  0  0  0
    1.0190   14.3090   -3.3370 C   0  0  0  0  0  0  0  0  0  0  0  0
    0.7150   13.0210   -4.1140 C   0  0  1  0  0  0  0  0  0  0  0  0
    1.2180   13.1660   -5.5740 C   0  0  0  0  0  0  0  0  0  0  0  0
    0.6620   14.4090   -6.2640 C   0  0  0  0  0  0  0  0  0  0  0  0
    1.0340   15.6730   -5.4930 C   0  0  2  0  0  0  0  0  0  0  0  0
    2.4510   15.8560   -5.5650 O   0  0  0  0  0  0  0  0  0  0  0  0
    0.5860   15.6370   -4.0050 C   0  0  0  0  0  0  0  0  0  0  0  0
   -0.9570   15.7430   -3.9230 C   0  0  0  0  0  0  0  0  0  0  0  0
    1.1460   16.9070   -3.3080 C   0  0  0  0  0  0  0  0  0  0  0  0
    1.2010   11.6700   -3.4330 C   0  0  1  0  0  0  0  0  0  0  0  0
    2.6800   11.3750   -3.8310 C   0  0  0  0  0  0  0  0  0  0  0  0
    0.3440   10.4740   -3.9940 C   0  0  0  0  0  0  0  0  0  0  0  0
   -0.9750   10.1620   -3.2620 C   0  0  0  0  0  0  0  0  0  0  0  0
   -0.7530   10.0650   -1.7490 C   0  0  2  0  0  0  0  0  0  0  0  0
    0.2200    8.8660   -1.4840 C   0  0  0  0  0  0  0  0  0  0  0  0
   -2.1489    6.7274   -2.0261 H   0  0  0  0  0  0  0  0  0  0  0  0
   -3.3780    7.8168   -2.7536 H   0  0  0  0  0  0  0  0  0  0  0  0
   -1.6454    8.2907   -2.7536 H   0  0  0  0  0  0  0  0  0  0  0  0
   -2.1102    7.8589   -0.0754 H   0  0  0  0  0  0  0  0  0  0  0  0
   -4.1672    8.9383    0.6017 H   0  0  0  0  0  0  0  0  0  0  0  0
   -4.6038    9.2167   -1.1520 H   0  0  0  0  0  0  0  0  0  0  0  0
   -4.0968    6.3994   -0.5087 H   0  0  0  0  0  0  0  0  0  0  0  0
   -5.4778    7.1292    0.4124 H   0  0  0  0  0  0  0  0  0  0  0  0
   -4.9580    6.5115   -2.2211 H   0  0  0  0  0  0  0  0  0  0  0  0
   -7.2190    6.9883    0.5129 H   0  0  0  0  0  0  0  0  0  0  0  0
   -8.6043    7.8521   -0.2365 H   0  0  0  0  0  0  0  0  0  0  0  0
   -8.5594    6.0564   -0.2365 H   0  0  0  0  0  0  0  0  0  0  0  0
   -8.7694    5.7526   -2.4292 H   0  0  0  0  0  0  0  0  0  0  0  0
   -8.3836    7.2138   -3.4001 H   0  0  0  0  0  0  0  0  0  0  0  0
   -7.2594    5.8128   -3.4001 H   0  0  0  0  0  0  0  0  0  0  0  0
   -2.8613   10.4227   -1.2992 H   0  0  0  0  0  0  0  0  0  0  0  0
   -2.3295   10.9590    0.9979 H   0  0  0  0  0  0  0  0  0  0  0  0
   -1.3360    9.4988    1.1897 H   0  0  0  0  0  0  0  0  0  0  0  0
   -0.3365   12.1543    0.8460 H   0  0  0  0  0  0  0  0  0  0  0  0
    0.6389   10.7000    0.6538 H   0  0  0  0  0  0  0  0  0  0  0  0
   -1.5586   13.0385   -0.4886 H   0  0  0  0  0  0  0  0  0  0  0  0
   -0.7212   13.4367   -2.0271 H   0  0  0  0  0  0  0  0  0  0  0  0
   -2.1009   12.2864   -2.0271 H   0  0  0  0  0  0  0  0  0  0  0  0
    1.7669   10.9044   -1.4796 H   0  0  0  0  0  0  0  0  0  0  0  0
    1.5355   13.1833   -0.2972 H   0  0  0  0  0  0  0  0  0  0  0  0
    2.9384   12.8401   -1.4395 H   0  0  0  0  0  0  0  0  0  0  0  0
    1.8300   15.2208   -1.6378 H   0  0  0  0  0  0  0  0  0  0  0  0
   -0.3795   12.9118   -4.1055 H   0  0  0  0  0  0  0  0  0  0  0  0
    2.3161   13.2297   -5.5639 H   0  0  0  0  0  0  0  0  0  0  0  0
    0.8686   12.2875   -6.1363 H   0  0  0  0  0  0  0  0  0  0  0  0
    1.0768   14.4723   -7.2808 H   0  0  0  0  0  0  0  0  0  0  0  0
   -0.4345   14.3297   -6.3004 H   0  0  0  0  0  0  0  0  0  0  0  0
    0.5007   16.5140   -5.9603 H   0  0  0  0  0  0  0  0  0  0  0  0
    2.6830   15.9940   -6.4990 H   0  0  0  0  0  0  0  0  0  0  0  0
   -1.2675   15.7643   -2.8680 H   0  0  0  0  0  0  0  0  0  0  0  0
   -1.2881   16.6660   -4.4214 H   0  0  0  0  0  0  0  0  0  0  0  0
   -1.4112   14.8739   -4.4214 H   0  0  0  0  0  0  0  0  0  0  0  0
    1.0904   16.7810   -2.2167 H   0  0  0  0  0  0  0  0  0  0  0  0
    2.1939   17.0574   -3.6069 H   0  0  0  0  0  0  0  0  0  0  0  0
    0.5503   17.7821   -3.6069 H   0  0  0  0  0  0  0  0  0  0  0  0
    3.2872   11.2539   -2.9218 H   0  0  0  0  0  0  0  0  0  0  0  0
    2.7222   10.4507   -4.4259 H   0  0  0  0  0  0  0  0  0  0  0  0
    3.0736   12.2123   -4.4259 H   0  0  0  0  0  0  0  0  0  0  0  0
    0.0973   10.7036   -5.0411 H   0  0  0  0  0  0  0  0  0  0  0  0
    0.9698    9.5804   -3.8534 H   0  0  0  0  0  0  0  0  0  0  0  0
   -1.6995   10.9634   -3.4687 H   0  0  0  0  0  0  0  0  0  0  0  0
   -1.3564    9.1955   -3.6232 H   0  0  0  0  0  0  0  0  0  0  0  0
    0.3372    8.7216   -0.3998 H   0  0  0  0  0  0  0  0  0  0  0  0
   -0.1944    7.9513   -1.9331 H   0  0  0  0  0  0  0  0  0  0  0  0
    1.2004    9.0832   -1.9331 H   0  0  0  0  0  0  0  0  0  0  0  0
  1  2  1  0
  2  3  1  0
  3  4  1  0
  4  5  1  0
  5  6  1  0
  6  7  1  0
  7  8  1  0
  7  9  1  0
  2 10  1  0
 10 11  1  0
 11 12  1  0
 12 13  1  0
 13 14  1  1
 13 15  1  0
 15 16  1  0
 16 17  1  0
 17 18  2  0
 18 19  1  0
 19 20  1  0
 20 21  1  0
 21 22  1  0
 22 23  1  0
 22 24  1  0
 24 25  1  0
 24 26  1  0
 19 27  1  0
 27 28  1  1
 27 29  1  0
 29 30  1  0
 30 31  1  0
 31 32  1  6
  7  5  1  0
 31 10  1  0
 31 13  1  0
 27 15  1  0
 24 18  1  0
  1 33  1  0
  1 34  1  0
  1 35  1  0
  2 36  1  1
  3 37  1  0
  3 38  1  0
  4 39  1  0
  4 40  1  0
  5 41  1  6
  8 42  1  0
  8 43  1  0
  8 44  1  0
  9 45  1  0
  9 46  1  0
  9 47  1  0
 10 48  1  6
 11 49  1  0
 11 50  1  0
 12 51  1  0
 12 52  1  0
 14 53  1  0
 14 54  1  0
 14 55  1  0
 15 56  1  1
 16 57  1  0
 16 58  1  0
 17 59  1  0
 19 60  1  6
 20 61  1  0
 20 62  1  0
 21 63  1  0
 21 64  1  0
 22 65  1  6
 23 66  1  0
 25 67  1  0
 25 68  1  0
 25 69  1  0
 26 70  1  0
 26 71  1  0
 26 72  1  0
 28 73  1  0
 28 74  1  0
 28 75  1  0
 29 76  1  0
 29 77  1  0
 30 78  1  0
 30 79  1  0
 32 80  1  0
 32 81  1  0
 32 82  1  0
M  END
>  <meeko>  (13) 
{"is_sidechain": [false], "intermolecular_energy": 2.731, "internal_energy": -0.839}

$$$$
EPH_relaxed_0001_pdb2pqr_Repair_108_r2_0001_out
     RDKit          3D

 82 86  0  0  0  0  0  0  0  0999 V2000
   -0.0420    9.2730   -2.0070 C   0  0  0  0  0  0  0  0  0  0  0  0
    1.0160   10.2500   -2.5270 C   0  0  2  0  0  0  0  0  0  0  0  0
    2.4110    9.6010   -2.6210 C   0  0  0  0  0  0  0  0  0  0  0  0
    3.2740   10.1570   -3.7570 C   0  0  0  0  0  0  0  0  0  0  0  0
    4.6250   10.5830   -3.2680 C   0  0  2  0  0  0  0  0  0  0  0  0
    5.0650   11.8560   -3.7610 O   0  0  0  0  0  0  0  0  0  0  0  0
    5.8370   10.7160   -4.1710 C   0  0  0  0  0  0  0  0  0  0  0  0
    5.7550   10.4210   -5.6360 C   0  0  0  0  0  0  0  0  0  0  0  0
    7.2000   10.6560   -3.5530 C   0  0  0  0  0  0  0  0  0  0  0  0
    1.0730   11.4800   -1.6290 C   0  0  1  0  0  0  0  0  0  0  0  0
    2.1600   11.3650   -0.5270 C   0  0  0  0  0  0  0  0  0  0  0  0
    2.7320   12.7890   -0.3120 C   0  0  0  0  0  0  0  0  0  0  0  0
    1.7400   13.7230   -1.0450 C   0  0  1  0  0  0  0  0  0  0  0  0
    0.5550   13.9120   -0.0470 C   0  0  0  0  0  0  0  0  0  0  0  0
    2.3120   15.0950   -1.5290 C   0  0  2  0  0  0  0  0  0  0  0  0
    2.8100   16.0260   -0.4090 C   0  0  0  0  0  0  0  0  0  0  0  0
    1.7870   16.9650    0.1410 C   0  0  0  0  0  0  0  0  0  0  0  0
    0.6060   17.2580   -0.4330 C   0  0  0  0  0  0  0  0  0  0  0  0
    0.2390   16.6950   -1.8120 C   0  0  1  0  0  0  0  0  0  0  0  0
   -0.3370   17.8310   -2.6990 C   0  0  0  0  0  0  0  0  0  0  0  0
   -1.5030   18.5570   -2.0350 C   0  0  0  0  0  0  0  0  0  0  0  0
   -1.0830   19.1520   -0.6940 C   0  0  2  0  0  0  0  0  0  0  0  0
   -0.1310   20.1940   -0.9300 O   0  0  0  0  0  0  0  0  0  0  0  0
   -0.4790   18.1030    0.2800 C   0  0  0  0  0  0  0  0  0  0  0  0
   -1.5940   17.1470    0.7720 C   0  0  0  0  0  0  0  0  0  0  0  0
    0.0320   18.8570    1.5370 C   0  0  0  0  0  0  0  0  0  0  0  0
    1.3770   15.8640   -2.5470 C   0  0  1  0  0  0  0  0  0  0  0  0
    2.2980   16.8260   -3.3590 C   0  0  0  0  0  0  0  0  0  0  0  0
    0.7110   14.8970   -3.5960 C   0  0  0  0  0  0  0  0  0  0  0  0
    0.2760   13.5110   -3.0840 C   0  0  0  0  0  0  0  0  0  0  0  0
    1.4050   12.8360   -2.3000 C   0  0  2  0  0  0  0  0  0  0  0  0
    2.6040   12.6130   -3.2830 C   0  0  0  0  0  0  0  0  0  0  0  0
   -0.0366    9.2780   -0.9070 H   0  0  0  0  0  0  0  0  0  0  0  0
   -1.0341    9.5794   -2.3702 H   0  0  0  0  0  0  0  0  0  0  0  0
    0.1846    8.2597   -2.3702 H   0  0  0  0  0  0  0  0  0  0  0  0
    0.7212   10.5456   -3.5447 H   0  0  0  0  0  0  0  0  0  0  0  0
    2.9375    9.7705   -1.6702 H   0  0  0  0  0  0  0  0  0  0  0  0
    2.2546    8.5324   -2.8299 H   0  0  0  0  0  0  0  0  0  0  0  0
    3.4013    9.3774   -4.5226 H   0  0  0  0  0  0  0  0  0  0  0  0
    2.7660   11.0391   -4.1740 H   0  0  0  0  0  0  0  0  0  0  0  0
    4.4708   10.0610   -2.3121 H   0  0  0  0  0  0  0  0  0  0  0  0
    5.4630    9.3707   -5.7827 H   0  0  0  0  0  0  0  0  0  0  0  0
    5.0055   11.0783   -6.1010 H   0  0  0  0  0  0  0  0  0  0  0  0
    6.7362   10.5972   -6.1010 H   0  0  0  0  0  0  0  0  0  0  0  0
    7.1062   10.6601   -2.4570 H   0  0  0  0  0  0  0  0  0  0  0  0
    7.7079    9.7346   -3.8741 H   0  0  0  0  0  0  0  0  0  0  0  0
    7.7869   11.5292   -3.8741 H   0  0  0  0  0  0  0  0  0  0  0  0
    0.0368   11.4868   -1.2599 H   0  0  0  0  0  0  0  0  0  0  0  0
    1.7146   10.9909    0.4066 H   0  0  0  0  0  0  0  0  0  0  0  0
    2.9520   10.6625   -0.8256 H   0  0  0  0  0  0  0  0  0  0  0  0
    2.7749   13.0325    0.7599 H   0  0  0  0  0  0  0  0  0  0  0  0
    3.7586   12.8883   -0.6945 H   0  0  0  0  0  0  0  0  0  0  0  0
    0.9315   13.8520    0.9848 H   0  0  0  0  0  0  0  0  0  0  0  0
    0.0906   14.8956   -0.2112 H   0  0  0  0  0  0  0  0  0  0  0  0
   -0.1923   13.1217   -0.2112 H   0  0  0  0  0  0  0  0  0  0  0  0
    3.2103   14.7924   -2.0872 H   0  0  0  0  0  0  0  0  0  0  0  0
    3.1750   15.3986    0.4175 H   0  0  0  0  0  0  0  0  0  0  0  0
    3.5902   16.6561   -0.8610 H   0  0  0  0  0  0  0  0  0  0  0  0
    2.0188   17.4588    1.0962 H   0  0  0  0  0  0  0  0  0  0  0  0
   -0.5339   15.9329   -1.6334 H   0  0  0  0  0  0  0  0  0  0  0  0
    0.4620   18.5592   -2.9024 H   0  0  0  0  0  0  0  0  0  0  0  0
   -0.7128   17.3731   -3.6259 H   0  0  0  0  0  0  0  0  0  0  0  0
   -1.8465   19.3663   -2.6961 H   0  0  0  0  0  0  0  0  0  0  0  0
   -2.3128   17.8335   -1.8597 H   0  0  0  0  0  0  0  0  0  0  0  0
   -1.9892   19.5440   -0.2091 H   0  0  0  0  0  0  0  0  0  0  0  0
    0.3540   19.9700   -1.7420 H   0  0  0  0  0  0  0  0  0  0  0  0
   -1.6079   17.1351    1.8718 H   0  0  0  0  0  0  0  0  0  0  0  0
   -2.5676   17.4953    0.3968 H   0  0  0  0  0  0  0  0  0  0  0  0
   -1.3984   16.1316    0.3968 H   0  0  0  0  0  0  0  0  0  0  0  0
   -0.3184   18.3399    2.4424 H   0  0  0  0  0  0  0  0  0  0  0  0
    1.1318   18.8788    1.5296 H   0  0  0  0  0  0  0  0  0  0  0  0
   -0.3552   19.8866    1.5296 H   0  0  0  0  0  0  0  0  0  0  0  0
    2.8879   17.4421   -2.6644 H   0  0  0  0  0  0  0  0  0  0  0  0
    2.9766   16.2360   -3.9926 H   0  0  0  0  0  0  0  0  0  0  0  0
    1.6791   17.4783   -3.9926 H   0  0  0  0  0  0  0  0  0  0  0  0
   -0.1828   15.4009   -3.9926 H   0  0  0  0  0  0  0  0  0  0  0  0
    1.4952   14.6958   -4.3407 H   0  0  0  0  0  0  0  0  0  0  0  0
   -0.5981   13.6285   -2.4266 H   0  0  0  0  0  0  0  0  0  0  0  0
    0.0252   12.8806   -3.9498 H   0  0  0  0  0  0  0  0  0  0  0  0
    3.5245   12.4418   -2.7056 H   0  0  0  0  0  0  0  0  0  0  0  0
    2.4005   11.7373   -3.9168 H   0  0  0  0  0  0  0  0  0  0  0  0
    2.7290   13.5033   -3.9168 H   0  0  0  0  0  0  0  0  0  0  0  0
  1  2  1  0
  2  3  1  0
  3  4  1  0
  4  5  1  0
  5  6  1  0
  6  7  1  0
  7  8  1  0
  7  9  1  0
  2 10  1  0
 10 11  1  0
 11 12  1  0
 12 13  1  0
 13 14  1  1
 13 15  1  0
 15 16  1  0
 16 17  1  0
 17 18  2  0
 18 19  1  0
 19 20  1  0
 20 21  1  0
 21 22  1  0
 22 23  1  0
 22 24  1  0
 24 25  1  0
 24 26  1  0
 19 27  1  0
 27 28  1  6
 27 29  1  0
 29 30  1  0
 30 31  1  0
 31 32  1  6
  7  5  1  0
 31 10  1  0
 31 13  1  0
 27 15  1  0
 24 18  1  0
  1 33  1  0
  1 34  1  0
  1 35  1  0
  2 36  1  6
  3 37  1  0
  3 38  1  0
  4 39  1  0
  4 40  1  0
  5 41  1  1
  8 42  1  0
  8 43  1  0
  8 44  1  0
  9 45  1  0
  9 46  1  0
  9 47  1  0
 10 48  1  1
 11 49  1  0
 11 50  1  0
 12 51  1  0
 12 52  1  0
 14 53  1  0
 14 54  1  0
 14 55  1  0
 15 56  1  6
 16 57  1  0
 16 58  1  0
 17 59  1  0
 19 60  1  1
 20 61  1  0
 20 62  1  0
 21 63  1  0
 21 64  1  0
 22 65  1  1
 23 66  1  0
 25 67  1  0
 25 68  1  0
 25 69  1  0
 26 70  1  0
 26 71  1  0
 26 72  1  0
 28 73  1  0
 28 74  1  0
 28 75  1  0
 29 76  1  0
 29 77  1  0
 30 78  1  0
 30 79  1  0
 32 80  1  0
 32 81  1  0
 32 82  1  0
M  END
>  <meeko>  (14) 
{"is_sidechain": [false], "intermolecular_energy": 2.731, "internal_energy": -0.839}

$$$$
EPH_relaxed_0001_pdb2pqr_Repair_108_r2_0001_out
     RDKit          3D

 82 86  0  0  0  0  0  0  0  0999 V2000
    0.9000   14.9730   -2.6700 C   0  0  0  0  0  0  0  0  0  0  0  0
    1.1660   14.2980   -4.0180 C   0  0  2  0  0  0  0  0  0  0  0  0
    0.4580   15.0230   -5.1800 C   0  0  0  0  0  0  0  0  0  0  0  0
    0.9640   14.6080   -6.5640 C   0  0  0  0  0  0  0  0  0  0  0  0
    0.7440   15.6870   -7.5810 C   0  0  2  0  0  0  0  0  0  0  0  0
    0.4160   15.2130   -8.8940 O   0  0  0  0  0  0  0  0  0  0  0  0
    1.6610   15.9180   -8.7680 C   0  0  0  0  0  0  0  0  0  0  0  0
    2.8690   15.0650   -8.9980 C   0  0  0  0  0  0  0  0  0  0  0  0
    1.6610   17.2650   -9.4200 C   0  0  0  0  0  0  0  0  0  0  0  0
    0.7240   12.8410   -3.9670 C   0  0  1  0  0  0  0  0  0  0  0  0
    1.8520   11.8590   -4.3800 C   0  0  0  0  0  0  0  0  0  0  0  0
    1.6780   10.5860   -3.5130 C   0  0  0  0  0  0  0  0  0  0  0  0
    0.2770   10.7370   -2.8760 C   0  0  1  0  0  0  0  0  0  0  0  0
   -0.7200   10.2730   -3.9830 C   0  0  0  0  0  0  0  0  0  0  0  0
    0.0430    9.9740   -1.5310 C   0  0  2  0  0  0  0  0  0  0  0  0
    0.1530    8.4420   -1.6230 C   0  0  0  0  0  0  0  0  0  0  0  0
   -1.1220    7.7280   -1.9250 C   0  0  0  0  0  0  0  0  0  0  0  0
   -2.3560    8.2580   -1.8350 C   0  0  0  0  0  0  0  0  0  0  0  0
   -2.5650    9.6800   -1.2990 C   0  0  1  0  0  0  0  0  0  0  0  0
   -3.7230    9.6790   -0.2670 C   0  0  0  0  0  0  0  0  0  0  0  0
   -5.0060    9.0730   -0.8280 C   0  0  0  0  0  0  0  0  0  0  0  0
   -4.7720    7.6400   -1.2980 C   0  0  2  0  0  0  0  0  0  0  0  0
   -4.4860    6.8230   -0.1580 O   0  0  0  0  0  0  0  0  0  0  0  0
   -3.6200    7.5150   -2.3330 C   0  0  0  0  0  0  0  0  0  0  0  0
   -4.0580    8.1470   -3.6780 C   0  0  0  0  0  0  0  0  0  0  0  0
   -3.3950    6.0050   -2.6170 C   0  0  0  0  0  0  0  0  0  0  0  0
   -1.2640   10.4140   -0.7550 C   0  0  1  0  0  0  0  0  0  0  0  0
   -1.0350   10.0500    0.7440 C   0  0  0  0  0  0  0  0  0  0  0  0
   -1.4940   11.9710   -0.8040 C   0  0  0  0  0  0  0  0  0  0  0  0
   -1.1310   12.6850   -2.1200 C   0  0  0  0  0  0  0  0  0  0  0  0
    0.2690   12.2840   -2.5940 C   0  0  2  0  0  0  0  0  0  0  0  0
    1.2950   12.7590   -1.5100 C   0  0  0  0  0  0  0  0  0  0  0  0
    1.1711   14.2850   -1.8556 H   0  0  0  0  0  0  0  0  0  0  0  0
    1.5045   15.8888   -2.5929 H   0  0  0  0  0  0  0  0  0  0  0  0
   -0.1667   15.2302   -2.5929 H   0  0  0  0  0  0  0  0  0  0  0  0
    2.2485   14.3510   -4.2061 H   0  0  0  0  0  0  0  0  0  0  0  0
   -0.6181   14.8020   -5.1230 H   0  0  0  0  0  0  0  0  0  0  0  0
    0.6727   16.0960   -5.0678 H   0  0  0  0  0  0  0  0  0  0  0  0
    2.0408   14.3925   -6.5001 H   0  0  0  0  0  0  0  0  0  0  0  0
    0.4021   13.7174   -6.8818 H   0  0  0  0  0  0  0  0  0  0  0  0
    0.3493   16.3658   -6.8106 H   0  0  0  0  0  0  0  0  0  0  0  0
    3.2952   14.7641   -8.0296 H   0  0  0  0  0  0  0  0  0  0  0  0
    2.5818   14.1683   -9.5667 H   0  0  0  0  0  0  0  0  0  0  0  0
    3.6179   15.6357   -9.5667 H   0  0  0  0  0  0  0  0  0  0  0  0
    2.6981   17.5950   -9.5797 H   0  0  0  0  0  0  0  0  0  0  0  0
    1.1425   17.2037  -10.3882 H   0  0  0  0  0  0  0  0  0  0  0  0
    1.1425   17.9863   -8.7713 H   0  0  0  0  0  0  0  0  0  0  0  0
   -0.1301   12.8834   -4.6589 H   0  0  0  0  0  0  0  0  0  0  0  0
    1.7618   11.6058   -5.4467 H   0  0  0  0  0  0  0  0  0  0  0  0
    2.8435   12.3094   -4.2249 H   0  0  0  0  0  0  0  0  0  0  0  0
    1.7254    9.6815   -4.1372 H   0  0  0  0  0  0  0  0  0  0  0  0
    2.4711   10.4839   -2.7576 H   0  0  0  0  0  0  0  0  0  0  0  0
   -1.6213    9.8535   -3.5122 H   0  0  0  0  0  0  0  0  0  0  0  0
   -0.9997   11.1335   -4.6086 H   0  0  0  0  0  0  0  0  0  0  0  0
   -0.2418    9.5049   -4.6086 H   0  0  0  0  0  0  0  0  0  0  0  0
    0.8998   10.2994   -0.9227 H   0  0  0  0  0  0  0  0  0  0  0  0
    0.8743    8.2002   -2.4175 H   0  0  0  0  0  0  0  0  0  0  0  0
    0.4647    8.0990   -0.6254 H   0  0  0  0  0  0  0  0  0  0  0  0
   -1.0471    6.6794   -2.2487 H   0  0  0  0  0  0  0  0  0  0  0  0
   -2.8398   10.2955   -2.1683 H   0  0  0  0  0  0  0  0  0  0  0  0
   -3.4119    9.0948    0.6116 H   0  0  0  0  0  0  0  0  0  0  0  0
   -3.9357   10.7254   -0.0027 H   0  0  0  0  0  0  0  0  0  0  0  0
   -5.7772    9.0733   -0.0437 H   0  0  0  0  0  0  0  0  0  0  0  0
   -5.3323    9.6759   -1.6883 H   0  0  0  0  0  0  0  0  0  0  0  0
   -5.6878    7.3056   -1.8074 H   0  0  0  0  0  0  0  0  0  0  0  0
   -3.5310    6.6400   -0.1600 H   0  0  0  0  0  0  0  0  0  0  0  0
   -4.6745    9.0366   -3.4816 H   0  0  0  0  0  0  0  0  0  0  0  0
   -3.1670    8.4382   -4.2537 H   0  0  0  0  0  0  0  0  0  0  0  0
   -4.6434    7.4150   -4.2537 H   0  0  0  0  0  0  0  0  0  0  0  0
   -3.3139    5.4609   -1.6645 H   0  0  0  0  0  0  0  0  0  0  0  0
   -4.2442    5.6099   -3.1939 H   0  0  0  0  0  0  0  0  0  0  0  0
   -2.4675    5.8746   -3.1939 H   0  0  0  0  0  0  0  0  0  0  0  0
   -1.5120   10.8082    1.3824 H   0  0  0  0  0  0  0  0  0  0  0  0
   -1.4759    9.0643    0.9535 H   0  0  0  0  0  0  0  0  0  0  0  0
    0.0445   10.0208    0.9535 H   0  0  0  0  0  0  0  0  0  0  0  0
   -2.5604   12.1563   -0.6079 H   0  0  0  0  0  0  0  0  0  0  0  0
   -0.8081   12.3874   -0.0516 H   0  0  0  0  0  0  0  0  0  0  0  0
   -1.8646   12.4105   -2.8923 H   0  0  0  0  0  0  0  0  0  0  0  0
   -1.1439   13.7709   -1.9446 H   0  0  0  0  0  0  0  0  0  0  0  0
    0.8839   12.5687   -0.5076 H   0  0  0  0  0  0  0  0  0  0  0  0
    2.2382   12.2059   -1.6305 H   0  0  0  0  0  0  0  0  0  0  0  0
    1.4835   13.8360   -1.6305 H   0  0  0  0  0  0  0  0  0  0  0  0
  1  2  1  0
  2  3  1  0
  3  4  1  0
  4  5  1  0
  5  6  1  0
  6  7  1  0
  7  8  1  0
  7  9  1  0
  2 10  1  0
 10 11  1  0
 11 12  1  0
 12 13  1  0
 13 14  1  6
 13 15  1  0
 15 16  1  0
 16 17  1  0
 17 18  2  0
 18 19  1  0
 19 20  1  0
 20 21  1  0
 21 22  1  0
 22 23  1  0
 22 24  1  0
 24 25  1  0
 24 26  1  0
 19 27  1  0
 27 28  1  1
 27 29  1  0
 29 30  1  0
 30 31  1  0
 31 32  1  1
  7  5  1  0
 31 10  1  0
 31 13  1  0
 27 15  1  0
 24 18  1  0
  1 33  1  0
  1 34  1  0
  1 35  1  0
  2 36  1  6
  3 37  1  0
  3 38  1  0
  4 39  1  0
  4 40  1  0
  5 41  1  1
  8 42  1  0
  8 43  1  0
  8 44  1  0
  9 45  1  0
  9 46  1  0
  9 47  1  0
 10 48  1  6
 11 49  1  0
 11 50  1  0
 12 51  1  0
 12 52  1  0
 14 53  1  0
 14 54  1  0
 14 55  1  0
 15 56  1  1
 16 57  1  0
 16 58  1  0
 17 59  1  0
 19 60  1  6
 20 61  1  0
 20 62  1  0
 21 63  1  0
 21 64  1  0
 22 65  1  6
 23 66  1  0
 25 67  1  0
 25 68  1  0
 25 69  1  0
 26 70  1  0
 26 71  1  0
 26 72  1  0
 28 73  1  0
 28 74  1  0
 28 75  1  0
 29 76  1  0
 29 77  1  0
 30 78  1  0
 30 79  1  0
 32 80  1  0
 32 81  1  0
 32 82  1  0
M  END
>  <meeko>  (15) 
{"is_sidechain": [false], "intermolecular_energy": 2.731, "internal_energy": -0.839}

$$$$
EPH_relaxed_0001_pdb2pqr_Repair_108_r2_0001_out
     RDKit          3D

 82 86  0  0  0  0  0  0  0  0999 V2000
    2.7690   11.3060   -5.2930 C   0  0  0  0  0  0  0  0  0  0  0  0
    1.7240   11.0190   -4.2110 C   0  0  2  0  0  0  0  0  0  0  0  0
    0.5930   10.1050   -4.7240 C   0  0  0  0  0  0  0  0  0  0  0  0
   -0.4680    9.7870   -3.6670 C   0  0  0  0  0  0  0  0  0  0  0  0
    0.1070    9.0120   -2.5200 C   0  0  2  0  0  0  0  0  0  0  0  0
   -0.6920    7.9040   -2.0850 O   0  0  0  0  0  0  0  0  0  0  0  0
   -0.5200    8.9710   -1.1390 C   0  0  0  0  0  0  0  0  0  0  0  0
   -1.7780    9.7210   -0.8320 C   0  0  0  0  0  0  0  0  0  0  0  0
    0.3440    8.6080    0.0280 C   0  0  0  0  0  0  0  0  0  0  0  0
    1.1410   12.3280   -3.6910 C   0  0  1  0  0  0  0  0  0  0  0  0
   -0.3940   12.2550   -3.4790 C   0  0  0  0  0  0  0  0  0  0  0  0
   -0.7160   13.1310   -2.2410 C   0  0  0  0  0  0  0  0  0  0  0  0
    0.5790   13.9360   -1.9850 C   0  0  1  0  0  0  0  0  0  0  0  0
    0.5200   15.1230   -2.9970 C   0  0  0  0  0  0  0  0  0  0  0  0
    0.8040   14.4370   -0.5210 C   0  0  2  0  0  0  0  0  0  0  0  0
   -0.2560   15.4230    0.0020 C   0  0  0  0  0  0  0  0  0  0  0  0
    0.0420   16.8660   -0.2390 C   0  0  0  0  0  0  0  0  0  0  0  0
    1.2400   17.3690   -0.5910 C   0  0  0  0  0  0  0  0  0  0  0  0
    2.4760   16.4660   -0.6880 C   0  0  1  0  0  0  0  0  0  0  0  0
    3.6720   17.1470    0.0280 C   0  0  0  0  0  0  0  0  0  0  0  0
    3.9380   18.5570   -0.4890 C   0  0  0  0  0  0  0  0  0  0  0  0
    2.7040   19.4400   -0.3230 C   0  0  2  0  0  0  0  0  0  0  0  0
    2.4620   19.6360    1.0740 O   0  0  0  0  0  0  0  0  0  0  0  0
    1.4330   18.8510   -0.9960 C   0  0  0  0  0  0  0  0  0  0  0  0
    1.5810   18.9200   -2.5360 C   0  0  0  0  0  0  0  0  0  0  0  0
    0.2330   19.7670   -0.6330 C   0  0  0  0  0  0  0  0  0  0  0  0
    2.2700   14.9570   -0.2320 C   0  0  1  0  0  0  0  0  0  0  0  0
    2.4920   14.8310    1.3070 C   0  0  0  0  0  0  0  0  0  0  0  0
    3.3690   14.0590   -0.9140 C   0  0  0  0  0  0  0  0  0  0  0  0
    3.0390   13.4970   -2.3090 C   0  0  0  0  0  0  0  0  0  0  0  0
    1.6550   12.8410   -2.3220 C   0  0  2  0  0  0  0  0  0  0  0  0
    1.6900   11.6290   -1.3300 C   0  0  0  0  0  0  0  0  0  0  0  0
    3.7258   11.5688   -4.8182 H   0  0  0  0  0  0  0  0  0  0  0  0
    2.9038   10.4116   -5.9190 H   0  0  0  0  0  0  0  0  0  0  0  0
    2.4281   12.1438   -5.9190 H   0  0  0  0  0  0  0  0  0  0  0  0
    2.2321   10.4876   -3.3928 H   0  0  0  0  0  0  0  0  0  0  0  0
    0.1004   10.6042   -5.5714 H   0  0  0  0  0  0  0  0  0  0  0  0
    1.0568    9.1499   -5.0117 H   0  0  0  0  0  0  0  0  0  0  0  0
   -0.8856   10.7306   -3.2859 H   0  0  0  0  0  0  0  0  0  0  0  0
   -1.2488    9.1725   -4.1389 H   0  0  0  0  0  0  0  0  0  0  0  0
    1.1313    9.2260   -2.8592 H   0  0  0  0  0  0  0  0  0  0  0  0
   -1.9035    9.7958    0.2583 H   0  0  0  0  0  0  0  0  0  0  0  0
   -1.7177   10.7307   -1.2643 H   0  0  0  0  0  0  0  0  0  0  0  0
   -2.6375    9.1878   -1.2643 H   0  0  0  0  0  0  0  0  0  0  0  0
   -0.1898    8.8323    0.9633 H   0  0  0  0  0  0  0  0  0  0  0  0
    0.5805    7.5344   -0.0108 H   0  0  0  0  0  0  0  0  0  0  0  0
    1.2763    9.1905   -0.0108 H   0  0  0  0  0  0  0  0  0  0  0  0
    1.4663   13.0069   -4.4930 H   0  0  0  0  0  0  0  0  0  0  0  0
   -0.9178   12.6437   -4.3648 H   0  0  0  0  0  0  0  0  0  0  0  0
   -0.7228   11.2167   -3.3248 H   0  0  0  0  0  0  0  0  0  0  0  0
   -1.5580   13.8068   -2.4519 H   0  0  0  0  0  0  0  0  0  0  0  0
   -1.0118   12.5286   -1.3694 H   0  0  0  0  0  0  0  0  0  0  0  0
    0.4728   16.0734   -2.4451 H   0  0  0  0  0  0  0  0  0  0  0  0
    1.4199   15.1106   -3.6295 H   0  0  0  0  0  0  0  0  0  0  0  0
   -0.3742   15.0215   -3.6295 H   0  0  0  0  0  0  0  0  0  0  0  0
    0.6705   13.5164    0.0662 H   0  0  0  0  0  0  0  0  0  0  0  0
   -1.2117   15.1866   -0.4887 H   0  0  0  0  0  0  0  0  0  0  0  0
   -0.2784   15.2950    1.0943 H   0  0  0  0  0  0  0  0  0  0  0  0
   -0.7875   17.5783   -0.1188 H   0  0  0  0  0  0  0  0  0  0  0  0
    2.6935   16.3622   -1.7613 H   0  0  0  0  0  0  0  0  0  0  0  0
    3.4535   17.2017    1.1047 H   0  0  0  0  0  0  0  0  0  0  0  0
    4.5691   16.5431   -0.1732 H   0  0  0  0  0  0  0  0  0  0  0  0
    4.7736   18.9960    0.0759 H   0  0  0  0  0  0  0  0  0  0  0  0
    4.1864   18.4979   -1.5589 H   0  0  0  0  0  0  0  0  0  0  0  0
    2.9117   20.3948   -0.8283 H   0  0  0  0  0  0  0  0  0  0  0  0
    2.3010   20.5840    1.2140 H   0  0  0  0  0  0  0  0  0  0  0  0
    2.5508   19.3721   -2.7913 H   0  0  0  0  0  0  0  0  0  0  0  0
    1.5282   17.9044   -2.9553 H   0  0  0  0  0  0  0  0  0  0  0  0
    0.7692   19.5325   -2.9553 H   0  0  0  0  0  0  0  0  0  0  0  0
    0.1424   19.8362    0.4611 H   0  0  0  0  0  0  0  0  0  0  0  0
    0.3982   20.7708   -1.0515 H   0  0  0  0  0  0  0  0  0  0  0  0
   -0.6917   19.3430   -1.0515 H   0  0  0  0  0  0  0  0  0  0  0  0
    1.6544   15.3064    1.8384 H   0  0  0  0  0  0  0  0  0  0  0  0
    2.5457   13.7678    1.5839 H   0  0  0  0  0  0  0  0  0  0  0  0
    3.4324   15.3300    1.5839 H   0  0  0  0  0  0  0  0  0  0  0  0
    4.2828   14.6643   -1.0068 H   0  0  0  0  0  0  0  0  0  0  0  0
    3.4642   13.1770   -0.2636 H   0  0  0  0  0  0  0  0  0  0  0  0
    3.0550   14.3181   -3.0408 H   0  0  0  0  0  0  0  0  0  0  0  0
    3.7903   12.7363   -2.5676 H   0  0  0  0  0  0  0  0  0  0  0  0
    1.6792   12.0018   -0.2951 H   0  0  0  0  0  0  0  0  0  0  0  0
    0.8099   10.9912   -1.4992 H   0  0  0  0  0  0  0  0  0  0  0  0
    2.6054   11.0430   -1.4992 H   0  0  0  0  0  0  0  0  0  0  0  0
  1  2  1  0
  2  3  1  0
  3  4  1  0
  4  5  1  0
  5  6  1  0
  6  7  1  0
  7  8  1  0
  7  9  1  0
  2 10  1  0
 10 11  1  0
 11 12  1  0
 12 13  1  0
 13 14  1  6
 13 15  1  0
 15 16  1  0
 16 17  1  0
 17 18  2  0
 18 19  1  0
 19 20  1  0
 20 21  1  0
 21 22  1  0
 22 23  1  0
 22 24  1  0
 24 25  1  0
 24 26  1  0
 19 27  1  0
 27 28  1  1
 27 29  1  0
 29 30  1  0
 30 31  1  0
 31 32  1  1
  7  5  1  0
 31 10  1  0
 31 13  1  0
 27 15  1  0
 24 18  1  0
  1 33  1  0
  1 34  1  0
  1 35  1  0
  2 36  1  1
  3 37  1  0
  3 38  1  0
  4 39  1  0
  4 40  1  0
  5 41  1  1
  8 42  1  0
  8 43  1  0
  8 44  1  0
  9 45  1  0
  9 46  1  0
  9 47  1  0
 10 48  1  6
 11 49  1  0
 11 50  1  0
 12 51  1  0
 12 52  1  0
 14 53  1  0
 14 54  1  0
 14 55  1  0
 15 56  1  1
 16 57  1  0
 16 58  1  0
 17 59  1  0
 19 60  1  6
 20 61  1  0
 20 62  1  0
 21 63  1  0
 21 64  1  0
 22 65  1  6
 23 66  1  0
 25 67  1  0
 25 68  1  0
 25 69  1  0
 26 70  1  0
 26 71  1  0
 26 72  1  0
 28 73  1  0
 28 74  1  0
 28 75  1  0
 29 76  1  0
 29 77  1  0
 30 78  1  0
 30 79  1  0
 32 80  1  0
 32 81  1  0
 32 82  1  0
M  END
>  <meeko>  (16) 
{"is_sidechain": [false], "intermolecular_energy": 2.731, "internal_energy": -0.839}

$$$$
EPH_relaxed_0001_pdb2pqr_Repair_108_r2_0001_out
     RDKit          3D

 82 86  0  0  0  0  0  0  0  0999 V2000
    3.1020   18.3160   -3.4470 C   0  0  0  0  0  0  0  0  0  0  0  0
    2.1330   18.1050   -2.2800 C   0  0  2  0  0  0  0  0  0  0  0  0
    2.3090   19.1690   -1.1790 C   0  0  0  0  0  0  0  0  0  0  0  0
    3.6400   19.0640   -0.4290 C   0  0  0  0  0  0  0  0  0  0  0  0
    3.4370   18.9940    1.0540 C   0  0  2  0  0  0  0  0  0  0  0  0
    3.7910   20.1890    1.7630 O   0  0  0  0  0  0  0  0  0  0  0  0
    4.5760   19.0220    2.0570 C   0  0  0  0  0  0  0  0  0  0  0  0
    6.0020   19.1210    1.6150 C   0  0  0  0  0  0  0  0  0  0  0  0
    4.3380   18.4630    3.4250 C   0  0  0  0  0  0  0  0  0  0  0  0
    2.3230   16.7110   -1.6940 C   0  0  1  0  0  0  0  0  0  0  0  0
    2.8120   16.7440   -0.2210 C   0  0  0  0  0  0  0  0  0  0  0  0
    2.1540   15.5370    0.4960 C   0  0  0  0  0  0  0  0  0  0  0  0
    1.5830   14.6680   -0.6480 C   0  0  1  0  0  0  0  0  0  0  0  0
    2.8020   13.8500   -1.1780 C   0  0  0  0  0  0  0  0  0  0  0  0
    0.3820   13.7380   -0.2760 C   0  0  2  0  0  0  0  0  0  0  0  0
    0.6930   12.6600    0.7770 C   0  0  0  0  0  0  0  0  0  0  0  0
    1.1700   11.3550    0.2310 C   0  0  0  0  0  0  0  0  0  0  0  0
    1.0730   10.9610   -1.0520 C   0  0  0  0  0  0  0  0  0  0  0  0
    0.3450   11.8260   -2.0890 C   0  0  1  0  0  0  0  0  0  0  0  0
   -0.6070   10.9360   -2.9290 C   0  0  0  0  0  0  0  0  0  0  0  0
    0.1100    9.7470   -3.5620 C   0  0  0  0  0  0  0  0  0  0  0  0
    0.7730    8.8790   -2.4950 C   0  0  2  0  0  0  0  0  0  0  0  0
   -0.2480    8.2690   -1.6990 O   0  0  0  0  0  0  0  0  0  0  0  0
    1.7480    9.6710   -1.5800 C   0  0  0  0  0  0  0  0  0  0  0  0
    3.0070   10.0750   -2.3860 C   0  0  0  0  0  0  0  0  0  0  0  0
    2.2380    8.7110   -0.4620 C   0  0  0  0  0  0  0  0  0  0  0  0
   -0.3750   13.1260   -1.5240 C   0  0  1  0  0  0  0  0  0  0  0  0
   -1.8140   12.7700   -1.0410 C   0  0  0  0  0  0  0  0  0  0  0  0
   -0.5440   14.1680   -2.6920 C   0  0  0  0  0  0  0  0  0  0  0  0
    0.6290   15.1380   -2.9330 C   0  0  0  0  0  0  0  0  0  0  0  0
    1.0770   15.7930   -1.6220 C   0  0  2  0  0  0  0  0  0  0  0  0
   -0.1230   16.6410   -1.0770 C   0  0  0  0  0  0  0  0  0  0  0  0
    4.1062   18.5347   -3.0548 H   0  0  0  0  0  0  0  0  0  0  0  0
    3.1390   17.4049   -4.0622 H   0  0  0  0  0  0  0  0  0  0  0  0
    2.7568   19.1600   -4.0622 H   0  0  0  0  0  0  0  0  0  0  0  0
    1.1113   18.2064   -2.6749 H   0  0  0  0  0  0  0  0  0  0  0  0
    2.2503   20.1638   -1.6448 H   0  0  0  0  0  0  0  0  0  0  0  0
    1.5102   19.0034   -0.4411 H   0  0  0  0  0  0  0  0  0  0  0  0
    4.1650   18.1558   -0.7601 H   0  0  0  0  0  0  0  0  0  0  0  0
    4.2309   19.9646   -0.6519 H   0  0  0  0  0  0  0  0  0  0  0  0
    2.5808   18.3148    0.9289 H   0  0  0  0  0  0  0  0  0  0  0  0
    6.6571   19.1665    2.4975 H   0  0  0  0  0  0  0  0  0  0  0  0
    6.2608   18.2387    1.0113 H   0  0  0  0  0  0  0  0  0  0  0  0
    6.1364   20.0306    1.0113 H   0  0  0  0  0  0  0  0  0  0  0  0
    4.6510   19.1981    4.1810 H   0  0  0  0  0  0  0  0  0  0  0  0
    3.2677   18.2419    3.5496 H   0  0  0  0  0  0  0  0  0  0  0  0
    4.9204   17.5382    3.5496 H   0  0  0  0  0  0  0  0  0  0  0  0
    3.0479   16.3055   -2.4152 H   0  0  0  0  0  0  0  0  0  0  0  0
    3.9078   16.6554   -0.1836 H   0  0  0  0  0  0  0  0  0  0  0  0
    2.5358   17.6910    0.2657 H   0  0  0  0  0  0  0  0  0  0  0  0
    2.9014   14.9746    1.0750 H   0  0  0  0  0  0  0  0  0  0  0  0
    1.3779   15.8486    1.2105 H   0  0  0  0  0  0  0  0  0  0  0  0
    3.3808   13.4616   -0.3270 H   0  0  0  0  0  0  0  0  0  0  0  0
    2.4417   13.0102   -1.7902 H   0  0  0  0  0  0  0  0  0  0  0  0
    3.4426   14.5017   -1.7902 H   0  0  0  0  0  0  0  0  0  0  0  0
   -0.3155   14.4366    0.2091 H   0  0  0  0  0  0  0  0  0  0  0  0
    1.4719   13.0535    1.4467 H   0  0  0  0  0  0  0  0  0  0  0  0
   -0.2588   12.4477    1.2858 H   0  0  0  0  0  0  0  0  0  0  0  0
    1.6409   10.6559    0.9377 H   0  0  0  0  0  0  0  0  0  0  0  0
    1.1277   12.2490   -2.7359 H   0  0  0  0  0  0  0  0  0  0  0  0
   -1.4059   10.5581   -2.2740 H   0  0  0  0  0  0  0  0  0  0  0  0
   -1.0104   11.5550   -3.7439 H   0  0  0  0  0  0  0  0  0  0  0  0
   -0.6203    9.1401   -4.1172 H   0  0  0  0  0  0  0  0  0  0  0  0
    0.8888   10.1266   -4.2398 H   0  0  0  0  0  0  0  0  0  0  0  0
    1.3780    8.1209   -3.0139 H   0  0  0  0  0  0  0  0  0  0  0  0
   -0.1470    7.3060   -1.7780 H   0  0  0  0  0  0  0  0  0  0  0  0
    3.8191   10.3356   -1.6913 H   0  0  0  0  0  0  0  0  0  0  0  0
    3.3225    9.2330   -3.0196 H   0  0  0  0  0  0  0  0  0  0  0  0
    2.7737   10.9434   -3.0196 H   0  0  0  0  0  0  0  0  0  0  0  0
    2.0143    9.1493    0.5218 H   0  0  0  0  0  0  0  0  0  0  0  0
    1.7234    7.7435   -0.5579 H   0  0  0  0  0  0  0  0  0  0  0  0
    3.3234    8.5601   -0.5579 H   0  0  0  0  0  0  0  0  0  0  0  0
   -1.8405   12.7634    0.0587 H   0  0  0  0  0  0  0  0  0  0  0  0
   -2.5241   13.5196   -1.4204 H   0  0  0  0  0  0  0  0  0  0  0  0
   -2.0927   11.7758   -1.4204 H   0  0  0  0  0  0  0  0  0  0  0  0
   -0.7046   13.6025   -3.6218 H   0  0  0  0  0  0  0  0  0  0  0  0
   -1.3873   14.8059   -2.3888 H   0  0  0  0  0  0  0  0  0  0  0  0
    1.4739   14.5809   -3.3641 H   0  0  0  0  0  0  0  0  0  0  0  0
    0.2957   15.9269   -3.6234 H   0  0  0  0  0  0  0  0  0  0  0  0
   -0.1092   16.6313    0.0229 H   0  0  0  0  0  0  0  0  0  0  0  0
   -0.0327   17.6770   -1.4357 H   0  0  0  0  0  0  0  0  0  0  0  0
   -1.0694   16.2100   -1.4357 H   0  0  0  0  0  0  0  0  0  0  0  0
  1  2  1  0
  2  3  1  0
  3  4  1  0
  4  5  1  0
  5  6  1  0
  6  7  1  0
  7  8  1  0
  7  9  1  0
  2 10  1  0
 10 11  1  0
 11 12  1  0
 12 13  1  0
 13 14  1  6
 13 15  1  0
 15 16  1  0
 16 17  1  0
 17 18  2  0
 18 19  1  0
 19 20  1  0
 20 21  1  0
 21 22  1  0
 22 23  1  0
 22 24  1  0
 24 25  1  0
 24 26  1  0
 19 27  1  0
 27 28  1  1
 27 29  1  0
 29 30  1  0
 30 31  1  0
 31 32  1  1
  7  5  1  0
 31 10  1  0
 31 13  1  0
 27 15  1  0
 24 18  1  0
  1 33  1  0
  1 34  1  0
  1 35  1  0
  2 36  1  6
  3 37  1  0
  3 38  1  0
  4 39  1  0
  4 40  1  0
  5 41  1  6
  8 42  1  0
  8 43  1  0
  8 44  1  0
  9 45  1  0
  9 46  1  0
  9 47  1  0
 10 48  1  6
 11 49  1  0
 11 50  1  0
 12 51  1  0
 12 52  1  0
 14 53  1  0
 14 54  1  0
 14 55  1  0
 15 56  1  1
 16 57  1  0
 16 58  1  0
 17 59  1  0
 19 60  1  6
 20 61  1  0
 20 62  1  0
 21 63  1  0
 21 64  1  0
 22 65  1  6
 23 66  1  0
 25 67  1  0
 25 68  1  0
 25 69  1  0
 26 70  1  0
 26 71  1  0
 26 72  1  0
 28 73  1  0
 28 74  1  0
 28 75  1  0
 29 76  1  0
 29 77  1  0
 30 78  1  0
 30 79  1  0
 32 80  1  0
 32 81  1  0
 32 82  1  0
M  END
>  <meeko>  (17) 
{"is_sidechain": [false], "intermolecular_energy": 2.731, "internal_energy": -0.839}

$$$$
EPH_relaxed_0001_pdb2pqr_Repair_108_r2_0001_out
     RDKit          3D

 82 86  0  0  0  0  0  0  0  0999 V2000
   -0.2980    9.4240   -4.3950 C   0  0  0  0  0  0  0  0  0  0  0  0
    0.1110    9.6760   -2.9410 C   0  0  2  0  0  0  0  0  0  0  0  0
   -0.4890    8.6310   -1.9800 C   0  0  0  0  0  0  0  0  0  0  0  0
   -2.0190    8.6560   -1.9200 C   0  0  0  0  0  0  0  0  0  0  0  0
   -2.6200    7.4750   -2.6190 C   0  0  2  0  0  0  0  0  0  0  0  0
   -3.6620    7.7960   -3.5500 O   0  0  0  0  0  0  0  0  0  0  0  0
   -4.0510    7.0160   -2.4080 C   0  0  0  0  0  0  0  0  0  0  0  0
   -4.9680    7.7320   -1.4660 C   0  0  0  0  0  0  0  0  0  0  0  0
   -4.4040    5.6000   -2.7370 C   0  0  0  0  0  0  0  0  0  0  0  0
   -0.3130   11.0780   -2.5180 C   0  0  1  0  0  0  0  0  0  0  0  0
   -1.5590   11.0710   -1.5920 C   0  0  0  0  0  0  0  0  0  0  0  0
   -1.3730   12.2340   -0.5840 C   0  0  0  0  0  0  0  0  0  0  0  0
   -0.2070   13.0690   -1.1620 C   0  0  1  0  0  0  0  0  0  0  0  0
   -0.8610   13.9620   -2.2640 C   0  0  0  0  0  0  0  0  0  0  0  0
    0.6070   13.9230   -0.1360 C   0  0  2  0  0  0  0  0  0  0  0  0
   -0.1990   15.0150    0.5890 C   0  0  0  0  0  0  0  0  0  0  0  0
   -0.2130   16.3490   -0.0830 C   0  0  0  0  0  0  0  0  0  0  0  0
    0.6210   16.7390   -1.0650 C   0  0  0  0  0  0  0  0  0  0  0  0
    1.7690   15.8330   -1.5290 C   0  0  1  0  0  0  0  0  0  0  0  0
    3.0730   16.6660   -1.6400 C   0  0  0  0  0  0  0  0  0  0  0  0
    2.9070   17.8980   -2.5250 C   0  0  0  0  0  0  0  0  0  0  0  0
    1.7960   18.8020   -1.9980 C   0  0  2  0  0  0  0  0  0  0  0  0
    2.2040   19.3460   -0.7390 O   0  0  0  0  0  0  0  0  0  0  0  0
    0.4350   18.0690   -1.8350 C   0  0  0  0  0  0  0  0  0  0  0  0
   -0.1520   17.7450   -3.2310 C   0  0  0  0  0  0  0  0  0  0  0  0
   -0.5600   19.0540   -1.1640 C   0  0  0  0  0  0  0  0  0  0  0  0
    1.9710   14.4910   -0.7030 C   0  0  1  0  0  0  0  0  0  0  0  0
    2.8890   14.7570    0.5300 C   0  0  0  0  0  0  0  0  0  0  0  0
    2.7280   13.4430   -1.6010 C   0  0  0  0  0  0  0  0  0  0  0  0
    1.8590   12.5470   -2.5050 C   0  0  0  0  0  0  0  0  0  0  0  0
    0.7100   11.9170   -1.7120 C   0  0  2  0  0  0  0  0  0  0  0  0
    1.3370   10.9960   -0.6110 C   0  0  0  0  0  0  0  0  0  0  0  0
   -1.2343    8.8471   -4.4178 H   0  0  0  0  0  0  0  0  0  0  0  0
   -0.4479   10.3866   -4.9058 H   0  0  0  0  0  0  0  0  0  0  0  0
    0.4944    8.8573   -4.9058 H   0  0  0  0  0  0  0  0  0  0  0  0
    1.2058    9.5858   -2.8841 H   0  0  0  0  0  0  0  0  0  0  0  0
   -0.1708    7.6315   -2.3114 H   0  0  0  0  0  0  0  0  0  0  0  0
   -0.1239    8.8750   -0.9715 H   0  0  0  0  0  0  0  0  0  0  0  0
   -2.3347    8.6453   -0.8663 H   0  0  0  0  0  0  0  0  0  0  0  0
   -2.3673    9.5682   -2.4265 H   0  0  0  0  0  0  0  0  0  0  0  0
   -1.6605    6.9382   -2.5859 H   0  0  0  0  0  0  0  0  0  0  0  0
   -4.6782    7.5057   -0.4293 H   0  0  0  0  0  0  0  0  0  0  0  0
   -4.8971    8.8161   -1.6383 H   0  0  0  0  0  0  0  0  0  0  0  0
   -6.0025    7.4003   -1.6383 H   0  0  0  0  0  0  0  0  0  0  0  0
   -4.5457    5.0316   -1.8059 H   0  0  0  0  0  0  0  0  0  0  0  0
   -5.3344    5.5808   -3.3235 H   0  0  0  0  0  0  0  0  0  0  0  0
   -3.5915    5.1463   -3.3235 H   0  0  0  0  0  0  0  0  0  0  0  0
   -0.4733   11.5294   -3.5082 H   0  0  0  0  0  0  0  0  0  0  0  0
   -2.4725   11.2259   -2.1849 H   0  0  0  0  0  0  0  0  0  0  0  0
   -1.6581   10.1078   -1.0701 H   0  0  0  0  0  0  0  0  0  0  0  0
   -2.2886   12.8399   -0.5171 H   0  0  0  0  0  0  0  0  0  0  0  0
   -1.1634   11.8739    0.4341 H   0  0  0  0  0  0  0  0  0  0  0  0
   -1.4469   14.7620   -1.7877 H   0  0  0  0  0  0  0  0  0  0  0  0
   -0.0738   14.4071   -2.8902 H   0  0  0  0  0  0  0  0  0  0  0  0
   -1.5230   13.3458   -2.8902 H   0  0  0  0  0  0  0  0  0  0  0  0
    0.8659   13.1820    0.6347 H   0  0  0  0  0  0  0  0  0  0  0  0
   -1.2390   14.6678    0.6773 H   0  0  0  0  0  0  0  0  0  0  0  0
    0.2980   15.1675    1.5584 H   0  0  0  0  0  0  0  0  0  0  0  0
   -0.9689   17.0741    0.2531 H   0  0  0  0  0  0  0  0  0  0  0  0
    1.4787   15.4590   -2.5219 H   0  0  0  0  0  0  0  0  0  0  0  0
    3.3693   16.9930   -0.6324 H   0  0  0  0  0  0  0  0  0  0  0  0
    3.8401   16.0256   -2.0998 H   0  0  0  0  0  0  0  0  0  0  0  0
    3.8522   18.4605   -2.5401 H   0  0  0  0  0  0  0  0  0  0  0  0
    2.6397   17.5681   -3.5398 H   0  0  0  0  0  0  0  0  0  0  0  0
    1.6361   19.5969   -2.7414 H   0  0  0  0  0  0  0  0  0  0  0  0
    1.4480   19.2800   -0.1310 H   0  0  0  0  0  0  0  0  0  0  0  0
   -1.1094   17.2165   -3.1125 H   0  0  0  0  0  0  0  0  0  0  0  0
   -0.3158   18.6805   -3.7860 H   0  0  0  0  0  0  0  0  0  0  0  0
    0.5523   17.1078   -3.7860 H   0  0  0  0  0  0  0  0  0  0  0  0
   -0.4765   18.9713   -0.0703 H   0  0  0  0  0  0  0  0  0  0  0  0
   -0.3224   20.0826   -1.4731 H   0  0  0  0  0  0  0  0  0  0  0  0
   -1.5861   18.8060   -1.4731 H   0  0  0  0  0  0  0  0  0  0  0  0
    2.3175   14.5914    1.4552 H   0  0  0  0  0  0  0  0  0  0  0  0
    3.7484   14.0709    0.5021 H   0  0  0  0  0  0  0  0  0  0  0  0
    3.2484   15.7962    0.5021 H   0  0  0  0  0  0  0  0  0  0  0  0
    3.4202   13.9993   -2.2502 H   0  0  0  0  0  0  0  0  0  0  0  0
    3.2129   12.7543   -0.8935 H   0  0  0  0  0  0  0  0  0  0  0  0
    1.4418   13.1559   -3.3206 H   0  0  0  0  0  0  0  0  0  0  0  0
    2.4891   11.7410   -2.9092 H   0  0  0  0  0  0  0  0  0  0  0  0
    1.0735   11.3830    0.3844 H   0  0  0  0  0  0  0  0  0  0  0  0
    0.9465    9.9737   -0.7221 H   0  0  0  0  0  0  0  0  0  0  0  0
    2.4313   10.9846   -0.7221 H   0  0  0  0  0  0  0  0  0  0  0  0
  1  2  1  0
  2  3  1  0
  3  4  1  0
  4  5  1  0
  5  6  1  0
  6  7  1  0
  7  8  1  0
  7  9  1  0
  2 10  1  0
 10 11  1  0
 11 12  1  0
 12 13  1  0
 13 14  1  6
 13 15  1  0
 15 16  1  0
 16 17  1  0
 17 18  2  0
 18 19  1  0
 19 20  1  0
 20 21  1  0
 21 22  1  0
 22 23  1  0
 22 24  1  0
 24 25  1  0
 24 26  1  0
 19 27  1  0
 27 28  1  1
 27 29  1  0
 29 30  1  0
 30 31  1  0
 31 32  1  1
  7  5  1  0
 31 10  1  0
 31 13  1  0
 27 15  1  0
 24 18  1  0
  1 33  1  0
  1 34  1  0
  1 35  1  0
  2 36  1  6
  3 37  1  0
  3 38  1  0
  4 39  1  0
  4 40  1  0
  5 41  1  6
  8 42  1  0
  8 43  1  0
  8 44  1  0
  9 45  1  0
  9 46  1  0
  9 47  1  0
 10 48  1  6
 11 49  1  0
 11 50  1  0
 12 51  1  0
 12 52  1  0
 14 53  1  0
 14 54  1  0
 14 55  1  0
 15 56  1  1
 16 57  1  0
 16 58  1  0
 17 59  1  0
 19 60  1  6
 20 61  1  0
 20 62  1  0
 21 63  1  0
 21 64  1  0
 22 65  1  6
 23 66  1  0
 25 67  1  0
 25 68  1  0
 25 69  1  0
 26 70  1  0
 26 71  1  0
 26 72  1  0
 28 73  1  0
 28 74  1  0
 28 75  1  0
 29 76  1  0
 29 77  1  0
 30 78  1  0
 30 79  1  0
 32 80  1  0
 32 81  1  0
 32 82  1  0
M  END
>  <meeko>  (18) 
{"is_sidechain": [false], "intermolecular_energy": 2.731, "internal_energy": -0.839}

$$$$
EPH_relaxed_0001_pdb2pqr_Repair_108_r2_0001_out
     RDKit          3D

 82 86  0  0  0  0  0  0  0  0999 V2000
    0.8280   14.8430   -4.9180 C   0  0  0  0  0  0  0  0  0  0  0  0
    0.5900   14.2950   -3.5090 C   0  0  2  0  0  0  0  0  0  0  0  0
    1.8130   14.4990   -2.5920 C   0  0  0  0  0  0  0  0  0  0  0  0
    1.5980   15.5550   -1.5050 C   0  0  0  0  0  0  0  0  0  0  0  0
    1.2560   16.8920   -2.0900 C   0  0  2  0  0  0  0  0  0  0  0  0
    2.3220   17.5170   -2.8160 O   0  0  0  0  0  0  0  0  0  0  0  0
    1.8830   18.1930   -1.6260 C   0  0  0  0  0  0  0  0  0  0  0  0
    2.9020   18.2210   -0.5310 C   0  0  0  0  0  0  0  0  0  0  0  0
    1.1550   19.4730   -1.8950 C   0  0  0  0  0  0  0  0  0  0  0  0
    0.2340   12.8140   -3.5800 C   0  0  1  0  0  0  0  0  0  0  0  0
    1.4490   11.9250   -3.9570 C   0  0  0  0  0  0  0  0  0  0  0  0
    1.2830   10.5910   -3.1850 C   0  0  0  0  0  0  0  0  0  0  0  0
   -0.1700   10.6240   -2.6570 C   0  0  1  0  0  0  0  0  0  0  0  0
   -1.0460   10.1760   -3.8690 C   0  0  0  0  0  0  0  0  0  0  0  0
   -0.4630    9.7640   -1.3850 C   0  0  2  0  0  0  0  0  0  0  0  0
   -0.2530    8.2490   -1.5580 C   0  0  0  0  0  0  0  0  0  0  0  0
   -1.4550    7.4860   -2.0070 C   0  0  0  0  0  0  0  0  0  0  0  0
   -2.7220    7.9400   -1.9870 C   0  0  0  0  0  0  0  0  0  0  0  0
   -3.0580    9.3110   -1.3860 C   0  0  1  0  0  0  0  0  0  0  0  0
   -4.2920    9.1800   -0.4560 C   0  0  0  0  0  0  0  0  0  0  0  0
   -5.4880    8.5410   -1.1560 C   0  0  0  0  0  0  0  0  0  0  0  0
   -5.1310    7.1560   -1.6890 C   0  0  2  0  0  0  0  0  0  0  0  0
   -4.8870    6.2840   -0.5810 O   0  0  0  0  0  0  0  0  0  0  0  0
   -3.8950    7.1610   -2.6320 C   0  0  0  0  0  0  0  0  0  0  0  0
   -4.2630    7.8530   -3.9670 C   0  0  0  0  0  0  0  0  0  0  0  0
   -3.5570    5.6880   -2.9850 C   0  0  0  0  0  0  0  0  0  0  0  0
   -1.8510   10.0790   -0.6940 C   0  0  1  0  0  0  0  0  0  0  0  0
   -1.7200    9.6330    0.7940 C   0  0  0  0  0  0  0  0  0  0  0  0
   -2.1700   11.6210   -0.6690 C   0  0  0  0  0  0  0  0  0  0  0  0
   -1.7490   12.4380   -1.9060 C   0  0  0  0  0  0  0  0  0  0  0  0
   -0.2940   12.1460   -2.2860 C   0  0  2  0  0  0  0  0  0  0  0  0
    0.6130   12.6060   -1.0950 C   0  0  0  0  0  0  0  0  0  0  0  0
    1.2654   15.8501   -4.8507 H   0  0  0  0  0  0  0  0  0  0  0  0
    1.5186   14.1786   -5.4580 H   0  0  0  0  0  0  0  0  0  0  0  0
   -0.1290   14.8942   -5.4580 H   0  0  0  0  0  0  0  0  0  0  0  0
   -0.2478   14.8584   -3.0725 H   0  0  0  0  0  0  0  0  0  0  0  0
    2.0449   13.5408   -2.1042 H   0  0  0  0  0  0  0  0  0  0  0  0
    2.6360   14.8560   -3.2286 H   0  0  0  0  0  0  0  0  0  0  0  0
    0.7749   15.2310   -0.8512 H   0  0  0  0  0  0  0  0  0  0  0  0
    2.5348   15.6586   -0.9379 H   0  0  0  0  0  0  0  0  0  0  0  0
    0.2085   16.5882   -2.2334 H   0  0  0  0  0  0  0  0  0  0  0  0
    2.3930   18.2070    0.4440 H   0  0  0  0  0  0  0  0  0  0  0  0
    3.5558   17.3405   -0.6160 H   0  0  0  0  0  0  0  0  0  0  0  0
    3.5065   19.1361   -0.6160 H   0  0  0  0  0  0  0  0  0  0  0  0
    0.8845   19.9485   -0.9407 H   0  0  0  0  0  0  0  0  0  0  0  0
    1.8035   20.1496   -2.4710 H   0  0  0  0  0  0  0  0  0  0  0  0
    0.2420   19.2615   -2.4710 H   0  0  0  0  0  0  0  0  0  0  0  0
   -0.5646   12.8528   -4.3355 H   0  0  0  0  0  0  0  0  0  0  0  0
    1.4591   11.7369   -5.0407 H   0  0  0  0  0  0  0  0  0  0  0  0
    2.3964   12.4184   -3.6942 H   0  0  0  0  0  0  0  0  0  0  0  0
    1.4328    9.7326   -3.8563 H   0  0  0  0  0  0  0  0  0  0  0  0
    2.0190   10.4837   -2.3745 H   0  0  0  0  0  0  0  0  0  0  0  0
   -1.9686    9.7042   -3.5000 H   0  0  0  0  0  0  0  0  0  0  0  0
   -1.3023   11.0537   -4.4805 H   0  0  0  0  0  0  0  0  0  0  0  0
   -0.4844    9.4544   -4.4805 H   0  0  0  0  0  0  0  0  0  0  0  0
    0.3222   10.0974   -0.6906 H   0  0  0  0  0  0  0  0  0  0  0  0
    0.5426    8.0989   -2.3027 H   0  0  0  0  0  0  0  0  0  0  0  0
   -0.0012    7.8607   -0.5601 H   0  0  0  0  0  0  0  0  0  0  0  0
   -1.2914    6.4665   -2.3863 H   0  0  0  0  0  0  0  0  0  0  0  0
   -3.2996    9.9652   -2.2366 H   0  0  0  0  0  0  0  0  0  0  0  0
   -4.0169    8.5590    0.4093 H   0  0  0  0  0  0  0  0  0  0  0  0
   -4.5877   10.1941   -0.1493 H   0  0  0  0  0  0  0  0  0  0  0  0
   -6.3174    8.4483   -0.4394 H   0  0  0  0  0  0  0  0  0  0  0  0
   -5.7814    9.1786   -2.0030 H   0  0  0  0  0  0  0  0  0  0  0  0
   -5.9825    6.8054   -2.2907 H   0  0  0  0  0  0  0  0  0  0  0  0
   -4.9350    5.3700   -0.9090 H   0  0  0  0  0  0  0  0  0  0  0  0
   -4.7701    8.8065   -3.7581 H   0  0  0  0  0  0  0  0  0  0  0  0
   -3.3472    8.0438   -4.5457 H   0  0  0  0  0  0  0  0  0  0  0  0
   -4.9332    7.2004   -4.5457 H   0  0  0  0  0  0  0  0  0  0  0  0
   -3.4244    5.1101   -2.0585 H   0  0  0  0  0  0  0  0  0  0  0  0
   -4.3789    5.2541   -3.5734 H   0  0  0  0  0  0  0  0  0  0  0  0
   -2.6281    5.6558   -3.5734 H   0  0  0  0  0  0  0  0  0  0  0  0
   -1.9682   10.4779    1.4532 H   0  0  0  0  0  0  0  0  0  0  0  0
   -2.4114    8.8001    0.9894 H   0  0  0  0  0  0  0  0  0  0  0  0
   -0.6880    9.3063    0.9894 H   0  0  0  0  0  0  0  0  0  0  0  0
   -3.2577   11.7339   -0.5501 H   0  0  0  0  0  0  0  0  0  0  0  0
   -1.5711   12.0253    0.1603 H   0  0  0  0  0  0  0  0  0  0  0  0
   -2.4017   12.1738   -2.7511 H   0  0  0  0  0  0  0  0  0  0  0  0
   -1.8417   13.5080   -1.6681 H   0  0  0  0  0  0  0  0  0  0  0  0
    0.1220   12.3570   -0.1427 H   0  0  0  0  0  0  0  0  0  0  0  0
    1.5833   12.0911   -1.1529 H   0  0  0  0  0  0  0  0  0  0  0  0
    0.7708   13.6931   -1.1529 H   0  0  0  0  0  0  0  0  0  0  0  0
  1  2  1  0
  2  3  1  0
  3  4  1  0
  4  5  1  0
  5  6  1  0
  6  7  1  0
  7  8  1  0
  7  9  1  0
  2 10  1  0
 10 11  1  0
 11 12  1  0
 12 13  1  0
 13 14  1  6
 13 15  1  0
 15 16  1  0
 16 17  1  0
 17 18  2  0
 18 19  1  0
 19 20  1  0
 20 21  1  0
 21 22  1  0
 22 23  1  0
 22 24  1  0
 24 25  1  0
 24 26  1  0
 19 27  1  0
 27 28  1  1
 27 29  1  0
 29 30  1  0
 30 31  1  0
 31 32  1  1
  7  5  1  0
 31 10  1  0
 31 13  1  0
 27 15  1  0
 24 18  1  0
  1 33  1  0
  1 34  1  0
  1 35  1  0
  2 36  1  1
  3 37  1  0
  3 38  1  0
  4 39  1  0
  4 40  1  0
  5 41  1  6
  8 42  1  0
  8 43  1  0
  8 44  1  0
  9 45  1  0
  9 46  1  0
  9 47  1  0
 10 48  1  6
 11 49  1  0
 11 50  1  0
 12 51  1  0
 12 52  1  0
 14 53  1  0
 14 54  1  0
 14 55  1  0
 15 56  1  1
 16 57  1  0
 16 58  1  0
 17 59  1  0
 19 60  1  6
 20 61  1  0
 20 62  1  0
 21 63  1  0
 21 64  1  0
 22 65  1  6
 23 66  1  0
 25 67  1  0
 25 68  1  0
 25 69  1  0
 26 70  1  0
 26 71  1  0
 26 72  1  0
 28 73  1  0
 28 74  1  0
 28 75  1  0
 29 76  1  0
 29 77  1  0
 30 78  1  0
 30 79  1  0
 32 80  1  0
 32 81  1  0
 32 82  1  0
M  END
>  <meeko>  (19) 
{"is_sidechain": [false], "intermolecular_energy": 2.731, "internal_energy": -0.839}

$$$$
