EPH_relaxed_0001_pdb2pqr_Repair_74_r2_0001_out
     RDKit          3D

 82 86  0  0  0  0  0  0  0  0999 V2000
   -1.5130    8.4870   -1.8910 C   0  0  0  0  0  0  0  0  0  0  0  0
   -1.9680    9.1250   -0.5750 C   0  0  2  0  0  0  0  0  0  0  0  0
   -3.4430    9.5700   -0.6250 C   0  0  0  0  0  0  0  0  0  0  0  0
   -4.4380    8.4320   -0.3840 C   0  0  0  0  0  0  0  0  0  0  0  0
   -5.1420    8.0340   -1.6460 C   0  0  2  0  0  0  0  0  0  0  0  0
   -6.3820    8.7150   -1.8800 O   0  0  0  0  0  0  0  0  0  0  0  0
   -6.4680    7.2970   -1.6690 C   0  0  0  0  0  0  0  0  0  0  0  0
   -7.1680    6.9110   -0.4030 C   0  0  0  0  0  0  0  0  0  0  0  0
   -6.8370    6.5250   -2.8970 C   0  0  0  0  0  0  0  0  0  0  0  0
   -1.0760   10.3140   -0.2380 C   0  0  1  0  0  0  0  0  0  0  0  0
    0.0380    9.9550    0.7810 C   0  0  0  0  0  0  0  0  0  0  0  0
    1.2840   10.7930    0.3950 C   0  0  0  0  0  0  0  0  0  0  0  0
    0.7530   11.8400   -0.6120 C   0  0  1  0  0  0  0  0  0  0  0  0
    0.1170   12.9600    0.2700 C   0  0  0  0  0  0  0  0  0  0  0  0
    1.7980   12.4230   -1.6190 C   0  0  2  0  0  0  0  0  0  0  0  0
    2.9580   13.2040   -0.9760 C   0  0  0  0  0  0  0  0  0  0  0  0
    2.7240   14.6680   -0.8060 C   0  0  0  0  0  0  0  0  0  0  0  0
    1.7520   15.3800   -1.4080 C   0  0  0  0  0  0  0  0  0  0  0  0
    0.8210   14.7280   -2.4380 C   0  0  1  0  0  0  0  0  0  0  0  0
    0.6980   15.6490   -3.6800 C   0  0  0  0  0  0  0  0  0  0  0  0
    0.2660   17.0660   -3.3170 C   0  0  0  0  0  0  0  0  0  0  0  0
    1.2480   17.7020   -2.3360 C   0  0  2  0  0  0  0  0  0  0  0  0
    2.5020   17.8930   -2.9980 O   0  0  0  0  0  0  0  0  0  0  0  0
    1.4600   16.8580   -1.0490 C   0  0  0  0  0  0  0  0  0  0  0  0
    0.1790   16.9020   -0.1800 C   0  0  0  0  0  0  0  0  0  0  0  0
    2.5760   17.5370   -0.2110 C   0  0  0  0  0  0  0  0  0  0  0  0
    1.1600   13.2240   -2.8250 C   0  0  1  0  0  0  0  0  0  0  0  0
    2.2040   13.1940   -3.9820 C   0  0  0  0  0  0  0  0  0  0  0  0
   -0.1400   12.5320   -3.3820 C   0  0  0  0  0  0  0  0  0  0  0  0
   -1.0720   11.8700   -2.3490 C   0  0  0  0  0  0  0  0  0  0  0  0
   -0.2840   10.9610   -1.4020 C   0  0  2  0  0  0  0  0  0  0  0  0
    0.3490    9.8120   -2.2590 C   0  0  0  0  0  0  0  0  0  0  0  0
   -0.8867    7.6088   -1.6754 H   0  0  0  0  0  0  0  0  0  0  0  0
   -2.3940    8.1755   -2.4713 H   0  0  0  0  0  0  0  0  0  0  0  0
   -0.9315    9.2185   -2.4713 H   0  0  0  0  0  0  0  0  0  0  0  0
   -1.8806    8.3604    0.2110 H   0  0  0  0  0  0  0  0  0  0  0  0
   -3.6003   10.3380    0.1467 H   0  0  0  0  0  0  0  0  0  0  0  0
   -3.6296    9.9503   -1.6402 H   0  0  0  0  0  0  0  0  0  0  0  0
   -3.8945    7.5610    0.0108 H   0  0  0  0  0  0  0  0  0  0  0  0
   -5.1938    8.7838    0.3337 H   0  0  0  0  0  0  0  0  0  0  0  0
   -4.1823    7.8414   -2.1479 H   0  0  0  0  0  0  0  0  0  0  0  0
   -6.5715    7.2399    0.4607 H   0  0  0  0  0  0  0  0  0  0  0  0
   -8.1571    7.3912   -0.3698 H   0  0  0  0  0  0  0  0  0  0  0  0
   -7.2897    5.8183   -0.3698 H   0  0  0  0  0  0  0  0  0  0  0  0
   -7.2943    5.5682   -2.6049 H   0  0  0  0  0  0  0  0  0  0  0  0
   -7.5543    7.1071   -3.4943 H   0  0  0  0  0  0  0  0  0  0  0  0
   -5.9336    6.3324   -3.4943 H   0  0  0  0  0  0  0  0  0  0  0  0
   -1.8366   11.0157    0.1350 H   0  0  0  0  0  0  0  0  0  0  0  0
   -0.2866   10.2067    1.8014 H   0  0  0  0  0  0  0  0  0  0  0  0
    0.2631    8.8785    0.7573 H   0  0  0  0  0  0  0  0  0  0  0  0
    1.7094   11.2871    1.2809 H   0  0  0  0  0  0  0  0  0  0  0  0
    2.0874   10.1742   -0.0312 H   0  0  0  0  0  0  0  0  0  0  0  0
    0.2570   12.7135    1.3329 H   0  0  0  0  0  0  0  0  0  0  0  0
    0.6039   13.9213    0.0493 H   0  0  0  0  0  0  0  0  0  0  0  0
   -0.9581   13.0343    0.0493 H   0  0  0  0  0  0  0  0  0  0  0  0
    2.2487   11.5139   -2.0436 H   0  0  0  0  0  0  0  0  0  0  0  0
    3.1485   12.7726    0.0178 H   0  0  0  0  0  0  0  0  0  0  0  0
    3.8083   13.1101   -1.6675 H   0  0  0  0  0  0  0  0  0  0  0  0
    3.4026   15.2115   -0.1322 H   0  0  0  0  0  0  0  0  0  0  0  0
   -0.1579   14.6320   -1.9456 H   0  0  0  0  0  0  0  0  0  0  0  0
    1.6755   15.6962   -4.1822 H   0  0  0  0  0  0  0  0  0  0  0  0
   -0.0745   15.2224   -4.3368 H   0  0  0  0  0  0  0  0  0  0  0  0
    0.2257   17.6754   -4.2319 H   0  0  0  0  0  0  0  0  0  0  0  0
   -0.7248   17.0197   -2.8413 H   0  0  0  0  0  0  0  0  0  0  0  0
    0.8184   18.6622   -2.0144 H   0  0  0  0  0  0  0  0  0  0  0  0
    2.6930   17.0870   -3.5060 H   0  0  0  0  0  0  0  0  0  0  0  0
    0.4573   16.8924    0.8842 H   0  0  0  0  0  0  0  0  0  0  0  0
   -0.3843   17.8200   -0.4034 H   0  0  0  0  0  0  0  0  0  0  0  0
   -0.4460   16.0248   -0.4034 H   0  0  0  0  0  0  0  0  0  0  0  0
    2.3613   17.4064    0.8599 H   0  0  0  0  0  0  0  0  0  0  0  0
    3.5457   17.0757   -0.4495 H   0  0  0  0  0  0  0  0  0  0  0  0
    2.6120   18.6102   -0.4495 H   0  0  0  0  0  0  0  0  0  0  0  0
    3.2191   13.1648   -3.5592 H   0  0  0  0  0  0  0  0  0  0  0  0
    2.0390   12.3002   -4.6016 H   0  0  0  0  0  0  0  0  0  0  0  0
    2.0906   14.0958   -4.6016 H   0  0  0  0  0  0  0  0  0  0  0  0
   -0.7233   13.2984   -3.9133 H   0  0  0  0  0  0  0  0  0  0  0  0
    0.2213   11.7071   -4.0137 H   0  0  0  0  0  0  0  0  0  0  0  0
   -1.5724   12.6539   -1.7616 H   0  0  0  0  0  0  0  0  0  0  0  0
   -1.8124   11.2589   -2.8860 H   0  0  0  0  0  0  0  0  0  0  0  0
    0.7708    9.0463   -1.5913 H   0  0  0  0  0  0  0  0  0  0  0  0
   -0.4264    9.3582   -2.8937 H   0  0  0  0  0  0  0  0  0  0  0  0
    1.1469   10.2249   -2.8937 H   0  0  0  0  0  0  0  0  0  0  0  0
  1  2  1  0
  2  3  1  0
  3  4  1  0
  4  5  1  0
  5  6  1  0
  6  7  1  0
  7  8  1  0
  7  9  1  0
  2 10  1  0
 10 11  1  0
 11 12  1  0
 12 13  1  0
 13 14  1  1
 13 15  1  0
 15 16  1  0
 16 17  1  0
 17 18  2  0
 18 19  1  0
 19 20  1  0
 20 21  1  0
 21 22  1  0
 22 23  1  0
 22 24  1  0
 24 25  1  0
 24 26  1  0
 19 27  1  0
 27 28  1  6
 27 29  1  0
 29 30  1  0
 30 31  1  0
 31 32  1  6
  7  5  1  0
 31 10  1  0
 31 13  1  0
 27 15  1  0
 24 18  1  0
  1 33  1  0
  1 34  1  0
  1 35  1  0
  2 36  1  1
  3 37  1  0
  3 38  1  0
  4 39  1  0
  4 40  1  0
  5 41  1  6
  8 42  1  0
  8 43  1  0
  8 44  1  0
  9 45  1  0
  9 46  1  0
  9 47  1  0
 10 48  1  1
 11 49  1  0
 11 50  1  0
 12 51  1  0
 12 52  1  0
 14 53  1  0
 14 54  1  0
 14 55  1  0
 15 56  1  6
 16 57  1  0
 16 58  1  0
 17 59  1  0
 19 60  1  1
 20 61  1  0
 20 62  1  0
 21 63  1  0
 21 64  1  0
 22 65  1  1
 23 66  1  0
 25 67  1  0
 25 68  1  0
 25 69  1  0
 26 70  1  0
 26 71  1  0
 26 72  1  0
 28 73  1  0
 28 74  1  0
 28 75  1  0
 29 76  1  0
 29 77  1  0
 30 78  1  0
 30 79  1  0
 32 80  1  0
 32 81  1  0
 32 82  1  0
M  END
>  <meeko>  (1) 
{"is_sidechain": [false], "intermolecular_energy": 2.731, "internal_energy": -0.839}

$$$$
EPH_relaxed_0001_pdb2pqr_Repair_74_r2_0001_out
     RDKit          3D

 82 86  0  0  0  0  0  0  0  0999 V2000
    1.9600   19.7530   -0.6000 C   0  0  0  0  0  0  0  0  0  0  0  0
    2.3480   18.5280    0.2330 C   0  0  2  0  0  0  0  0  0  0  0  0
    3.8110   18.1040   -0.0030 C   0  0  0  0  0  0  0  0  0  0  0  0
    4.6760   18.1470    1.2600 C   0  0  0  0  0  0  0  0  0  0  0  0
    4.0840   19.0400    2.3070 C   0  0  2  0  0  0  0  0  0  0  0  0
    4.8800   20.1870    2.6360 O   0  0  0  0  0  0  0  0  0  0  0  0
    4.6870   19.2260    3.6870 C   0  0  0  0  0  0  0  0  0  0  0  0
    5.9370   18.5110    4.0940 C   0  0  0  0  0  0  0  0  0  0  0  0
    3.8050   19.7130    4.7940 C   0  0  0  0  0  0  0  0  0  0  0  0
    1.4120   17.3670   -0.0830 C   0  0  1  0  0  0  0  0  0  0  0  0
    0.1750   17.8050   -0.9110 C   0  0  0  0  0  0  0  0  0  0  0  0
   -0.1610   16.6330   -1.8690 C   0  0  0  0  0  0  0  0  0  0  0  0
    0.6720   15.4440   -1.3360 C   0  0  1  0  0  0  0  0  0  0  0  0
   -0.1580   14.8740   -0.1440 C   0  0  0  0  0  0  0  0  0  0  0  0
    1.0300   14.3310   -2.3750 C   0  0  2  0  0  0  0  0  0  0  0  0
   -0.1760   13.5900   -2.9790 C   0  0  0  0  0  0  0  0  0  0  0  0
   -0.6090   12.3680   -2.2390 C   0  0  0  0  0  0  0  0  0  0  0  0
    0.1130   11.7230   -1.3040 C   0  0  0  0  0  0  0  0  0  0  0  0
    1.5460   12.1600   -0.9750 C   0  0  1  0  0  0  0  0  0  0  0  0
    2.4680   10.9130   -0.9190 C   0  0  0  0  0  0  0  0  0  0  0  0
    1.9490    9.8450    0.0400 C   0  0  0  0  0  0  0  0  0  0  0  0
    0.5450    9.3950   -0.3540 C   0  0  2  0  0  0  0  0  0  0  0  0
    0.6150    8.7120   -1.6100 O   0  0  0  0  0  0  0  0  0  0  0  0
   -0.4700   10.5680   -0.4530 C   0  0  0  0  0  0  0  0  0  0  0  0
   -0.7740   11.1130    0.9640 C   0  0  0  0  0  0  0  0  0  0  0  0
   -1.8080    9.9970   -0.9950 C   0  0  0  0  0  0  0  0  0  0  0  0
    2.1430   13.3190   -1.8830 C   0  0  1  0  0  0  0  0  0  0  0  0
    2.7900   12.7110   -3.1650 C   0  0  0  0  0  0  0  0  0  0  0  0
    3.3030   14.0400   -1.1000 C   0  0  0  0  0  0  0  0  0  0  0  0
    2.9000   15.2100   -0.1820 C   0  0  0  0  0  0  0  0  0  0  0  0
    1.9880   16.1960   -0.9180 C   0  0  2  0  0  0  0  0  0  0  0  0
    2.8040   16.8020   -2.1100 C   0  0  0  0  0  0  0  0  0  0  0  0
    1.6968   20.5841    0.0708 H   0  0  0  0  0  0  0  0  0  0  0  0
    2.8085   20.0486   -1.2346 H   0  0  0  0  0  0  0  0  0  0  0  0
    1.0960   19.5062   -1.2346 H   0  0  0  0  0  0  0  0  0  0  0  0
    2.2521   18.8055    1.2931 H   0  0  0  0  0  0  0  0  0  0  0  0
    3.8159   17.0752   -0.3923 H   0  0  0  0  0  0  0  0  0  0  0  0
    4.2436   18.8238   -0.7135 H   0  0  0  0  0  0  0  0  0  0  0  0
    4.7628   17.1289    1.6674 H   0  0  0  0  0  0  0  0  0  0  0  0
    5.6632   18.5475    0.9860 H   0  0  0  0  0  0  0  0  0  0  0  0
    3.0649   18.7934    1.9743 H   0  0  0  0  0  0  0  0  0  0  0  0
    5.9984   18.4759    5.1917 H   0  0  0  0  0  0  0  0  0  0  0  0
    5.9198   17.4862    3.6947 H   0  0  0  0  0  0  0  0  0  0  0  0
    6.8116   19.0454    3.6947 H   0  0  0  0  0  0  0  0  0  0  0  0
    4.2604   19.4616    5.7632 H   0  0  0  0  0  0  0  0  0  0  0  0
    3.6874   20.8039    4.7161 H   0  0  0  0  0  0  0  0  0  0  0  0
    2.8191   19.2314    4.7161 H   0  0  0  0  0  0  0  0  0  0  0  0
    1.1893   17.0268    0.9391 H   0  0  0  0  0  0  0  0  0  0  0  0
   -0.6762   18.0043   -0.2434 H   0  0  0  0  0  0  0  0  0  0  0  0
    0.3830   18.7272   -1.4734 H   0  0  0  0  0  0  0  0  0  0  0  0
   -1.2356   16.4002   -1.8362 H   0  0  0  0  0  0  0  0  0  0  0  0
    0.0731   16.8703   -2.9173 H   0  0  0  0  0  0  0  0  0  0  0  0
    0.3001   15.1886    0.8053 H   0  0  0  0  0  0  0  0  0  0  0  0
   -1.1880   15.2562   -0.1985 H   0  0  0  0  0  0  0  0  0  0  0  0
   -0.1711   13.7754   -0.1985 H   0  0  0  0  0  0  0  0  0  0  0  0
    1.4683   14.9110   -3.2006 H   0  0  0  0  0  0  0  0  0  0  0  0
   -1.0250   14.2889   -3.0075 H   0  0  0  0  0  0  0  0  0  0  0  0
    0.1448   13.2461   -3.9734 H   0  0  0  0  0  0  0  0  0  0  0  0
   -1.6022   11.9601   -2.4781 H   0  0  0  0  0  0  0  0  0  0  0  0
    1.4989   12.6345    0.0163 H   0  0  0  0  0  0  0  0  0  0  0  0
    2.5357   10.4788   -1.9274 H   0  0  0  0  0  0  0  0  0  0  0  0
    3.4521   11.2411   -0.5530 H   0  0  0  0  0  0  0  0  0  0  0  0
    2.6256    8.9781    0.0139 H   0  0  0  0  0  0  0  0  0  0  0  0
    1.9099   10.2716    1.0532 H   0  0  0  0  0  0  0  0  0  0  0  0
    0.1775    8.7290    0.4406 H   0  0  0  0  0  0  0  0  0  0  0  0
    0.8990    9.3570   -2.2800 H   0  0  0  0  0  0  0  0  0  0  0  0
   -0.3836   10.4132    1.7176 H   0  0  0  0  0  0  0  0  0  0  0  0
   -0.2928   12.0940    1.0906 H   0  0  0  0  0  0  0  0  0  0  0  0
   -1.8615   11.2190    1.0906 H   0  0  0  0  0  0  0  0  0  0  0  0
   -2.4570    9.7200   -0.1512 H   0  0  0  0  0  0  0  0  0  0  0  0
   -2.3100   10.7593   -1.6089 H   0  0  0  0  0  0  0  0  0  0  0  0
   -1.6050    9.1071   -1.6089 H   0  0  0  0  0  0  0  0  0  0  0  0
    3.5634   11.9842   -2.8760 H   0  0  0  0  0  0  0  0  0  0  0  0
    2.0164   12.2055   -3.7617 H   0  0  0  0  0  0  0  0  0  0  0  0
    3.2465   13.5145   -3.7617 H   0  0  0  0  0  0  0  0  0  0  0  0
    3.8028   13.2845   -0.4760 H   0  0  0  0  0  0  0  0  0  0  0  0
    3.9381   14.4900   -1.8772 H   0  0  0  0  0  0  0  0  0  0  0  0
    2.3671   14.8126    0.6944 H   0  0  0  0  0  0  0  0  0  0  0  0
    3.8115   15.7412    0.1295 H   0  0  0  0  0  0  0  0  0  0  0  0
    3.6285   17.4143   -1.7161 H   0  0  0  0  0  0  0  0  0  0  0  0
    3.2137   15.9875   -2.7255 H   0  0  0  0  0  0  0  0  0  0  0  0
    2.1427   17.4296   -2.7255 H   0  0  0  0  0  0  0  0  0  0  0  0
  1  2  1  0
  2  3  1  0
  3  4  1  0
  4  5  1  0
  5  6  1  0
  6  7  1  0
  7  8  1  0
  7  9  1  0
  2 10  1  0
 10 11  1  0
 11 12  1  0
 12 13  1  0
 13 14  1  1
 13 15  1  0
 15 16  1  0
 16 17  1  0
 17 18  2  0
 18 19  1  0
 19 20  1  0
 20 21  1  0
 21 22  1  0
 22 23  1  0
 22 24  1  0
 24 25  1  0
 24 26  1  0
 19 27  1  0
 27 28  1  6
 27 29  1  0
 29 30  1  0
 30 31  1  0
 31 32  1  6
  7  5  1  0
 31 10  1  0
 31 13  1  0
 27 15  1  0
 24 18  1  0
  1 33  1  0
  1 34  1  0
  1 35  1  0
  2 36  1  1
  3 37  1  0
  3 38  1  0
  4 39  1  0
  4 40  1  0
  5 41  1  1
  8 42  1  0
  8 43  1  0
  8 44  1  0
  9 45  1  0
  9 46  1  0
  9 47  1  0
 10 48  1  1
 11 49  1  0
 11 50  1  0
 12 51  1  0
 12 52  1  0
 14 53  1  0
 14 54  1  0
 14 55  1  0
 15 56  1  6
 16 57  1  0
 16 58  1  0
 17 59  1  0
 19 60  1  1
 20 61  1  0
 20 62  1  0
 21 63  1  0
 21 64  1  0
 22 65  1  1
 23 66  1  0
 25 67  1  0
 25 68  1  0
 25 69  1  0
 26 70  1  0
 26 71  1  0
 26 72  1  0
 28 73  1  0
 28 74  1  0
 28 75  1  0
 29 76  1  0
 29 77  1  0
 30 78  1  0
 30 79  1  0
 32 80  1  0
 32 81  1  0
 32 82  1  0
M  END
>  <meeko>  (2) 
{"is_sidechain": [false], "intermolecular_energy": 2.731, "internal_energy": -0.839}

$$$$
EPH_relaxed_0001_pdb2pqr_Repair_74_r2_0001_out
     RDKit          3D

 82 86  0  0  0  0  0  0  0  0999 V2000
    0.5140   18.4490    0.1180 C   0  0  0  0  0  0  0  0  0  0  0  0
    1.5870   17.3870   -0.1390 C   0  0  2  0  0  0  0  0  0  0  0  0
    2.7930   17.9560   -0.9140 C   0  0  0  0  0  0  0  0  0  0  0  0
    4.0230   18.2070   -0.0390 C   0  0  0  0  0  0  0  0  0  0  0  0
    3.6410   18.6630    1.3370 C   0  0  2  0  0  0  0  0  0  0  0  0
    3.8990   20.0480    1.6020 O   0  0  0  0  0  0  0  0  0  0  0  0
    4.6490   19.1030    2.3830 C   0  0  0  0  0  0  0  0  0  0  0  0
    6.1180   19.1080    2.0970 C   0  0  0  0  0  0  0  0  0  0  0  0
    4.2490   19.0610    3.8250 C   0  0  0  0  0  0  0  0  0  0  0  0
    0.9840   16.2140   -0.9030 C   0  0  1  0  0  0  0  0  0  0  0  0
    0.7780   16.5240   -2.4090 C   0  0  0  0  0  0  0  0  0  0  0  0
    1.0400   15.2030   -3.1780 C   0  0  0  0  0  0  0  0  0  0  0  0
    1.0610   14.1120   -2.0820 C   0  0  1  0  0  0  0  0  0  0  0  0
   -0.4420   13.7970   -1.8020 C   0  0  0  0  0  0  0  0  0  0  0  0
    1.8700   12.8160   -2.4130 C   0  0  2  0  0  0  0  0  0  0  0  0
    1.3470   12.0080   -3.6140 C   0  0  0  0  0  0  0  0  0  0  0  0
    0.3390   10.9580   -3.2850 C   0  0  0  0  0  0  0  0  0  0  0  0
    0.0820   10.4790   -2.0540 C   0  0  0  0  0  0  0  0  0  0  0  0
    0.9100   10.9300   -0.8440 C   0  0  1  0  0  0  0  0  0  0  0  0
    1.3180    9.6910   -0.0050 C   0  0  0  0  0  0  0  0  0  0  0  0
    0.1200    8.8350    0.3950 C   0  0  0  0  0  0  0  0  0  0  0  0
   -0.6440    8.3570   -0.8370 C   0  0  2  0  0  0  0  0  0  0  0  0
    0.1860    7.4510   -1.5720 O   0  0  0  0  0  0  0  0  0  0  0  0
   -1.0980    9.5180   -1.7650 C   0  0  0  0  0  0  0  0  0  0  0  0
   -2.2240   10.3260   -1.0740 C   0  0  0  0  0  0  0  0  0  0  0  0
   -1.7310    8.8930   -3.0370 C   0  0  0  0  0  0  0  0  0  0  0  0
    2.1410   11.8830   -1.1640 C   0  0  1  0  0  0  0  0  0  0  0  0
    3.3990   11.0300   -1.5090 C   0  0  0  0  0  0  0  0  0  0  0  0
    2.5030   12.7060    0.1290 C   0  0  0  0  0  0  0  0  0  0  0  0
    1.7550   14.0360    0.3390 C   0  0  0  0  0  0  0  0  0  0  0  0
    1.7930   14.8920   -0.9310 C   0  0  2  0  0  0  0  0  0  0  0  0
    3.2910   15.2440   -1.2260 C   0  0  0  0  0  0  0  0  0  0  0  0
    0.3808   18.5808    1.2019 H   0  0  0  0  0  0  0  0  0  0  0  0
    0.8270   19.4028   -0.3317 H   0  0  0  0  0  0  0  0  0  0  0  0
   -0.4366   18.1261   -0.3317 H   0  0  0  0  0  0  0  0  0  0  0  0
    1.9549   17.0443    0.8394 H   0  0  0  0  0  0  0  0  0  0  0  0
    3.0680   17.2403   -1.7028 H   0  0  0  0  0  0  0  0  0  0  0  0
    2.4834   18.9300   -1.3207 H   0  0  0  0  0  0  0  0  0  0  0  0
    4.5993   17.2736    0.0420 H   0  0  0  0  0  0  0  0  0  0  0  0
    4.6221   19.0007   -0.5092 H   0  0  0  0  0  0  0  0  0  0  0  0
    2.8099   17.9431    1.3702 H   0  0  0  0  0  0  0  0  0  0  0  0
    6.6761   19.1099    3.0449 H   0  0  0  0  0  0  0  0  0  0  0  0
    6.3819   18.2107    1.5179 H   0  0  0  0  0  0  0  0  0  0  0  0
    6.3758   20.0070    1.5179 H   0  0  0  0  0  0  0  0  0  0  0  0
    5.1445   19.1550    4.4568 H   0  0  0  0  0  0  0  0  0  0  0  0
    3.5605   19.8918    4.0389 H   0  0  0  0  0  0  0  0  0  0  0  0
    3.7481   18.1053    4.0389 H   0  0  0  0  0  0  0  0  0  0  0  0
    0.0570   16.0763   -0.3270 H   0  0  0  0  0  0  0  0  0  0  0  0
   -0.2514   16.8683   -2.5874 H   0  0  0  0  0  0  0  0  0  0  0  0
    1.4602   17.3186   -2.7454 H   0  0  0  0  0  0  0  0  0  0  0  0
    0.2358   15.0096   -3.9032 H   0  0  0  0  0  0  0  0  0  0  0  0
    1.9766   15.2341   -3.7541 H   0  0  0  0  0  0  0  0  0  0  0  0
   -0.6130   13.7612   -0.7160 H   0  0  0  0  0  0  0  0  0  0  0  0
   -1.0703   14.5830   -2.2464 H   0  0  0  0  0  0  0  0  0  0  0  0
   -0.7019   12.8249   -2.2464 H   0  0  0  0  0  0  0  0  0  0  0  0
    2.8435   13.2212   -2.7262 H   0  0  0  0  0  0  0  0  0  0  0  0
    0.8858   12.7119   -4.3224 H   0  0  0  0  0  0  0  0  0  0  0  0
    2.2175   11.4761   -4.0254 H   0  0  0  0  0  0  0  0  0  0  0  0
   -0.2433   10.5401   -4.1195 H   0  0  0  0  0  0  0  0  0  0  0  0
    0.2521   11.5818   -0.2504 H   0  0  0  0  0  0  0  0  0  0  0  0
    2.0090    9.0749   -0.5991 H   0  0  0  0  0  0  0  0  0  0  0  0
    1.7919   10.0546    0.9187 H   0  0  0  0  0  0  0  0  0  0  0  0
    0.4749    7.9606    0.9603 H   0  0  0  0  0  0  0  0  0  0  0  0
   -0.5560    9.4439    1.0132 H   0  0  0  0  0  0  0  0  0  0  0  0
   -1.5599    7.8602   -0.4844 H   0  0  0  0  0  0  0  0  0  0  0  0
    1.0200    7.3530   -1.0820 H   0  0  0  0  0  0  0  0  0  0  0  0
   -2.1146   10.2475    0.0177 H   0  0  0  0  0  0  0  0  0  0  0  0
   -2.1550   11.3819   -1.3745 H   0  0  0  0  0  0  0  0  0  0  0  0
   -3.2022    9.9225   -1.3745 H   0  0  0  0  0  0  0  0  0  0  0  0
   -2.4853    8.1482   -2.7431 H   0  0  0  0  0  0  0  0  0  0  0  0
   -2.2092    9.6830   -3.6347 H   0  0  0  0  0  0  0  0  0  0  0  0
   -0.9471    8.4048   -3.6347 H   0  0  0  0  0  0  0  0  0  0  0  0
    3.8850   10.7005   -0.5788 H   0  0  0  0  0  0  0  0  0  0  0  0
    3.0959   10.1504   -2.0958 H   0  0  0  0  0  0  0  0  0  0  0  0
    4.1040   11.6371   -2.0958 H   0  0  0  0  0  0  0  0  0  0  0  0
    2.2950   12.0664    0.9994 H   0  0  0  0  0  0  0  0  0  0  0  0
    3.5592   12.9869    0.0045 H   0  0  0  0  0  0  0  0  0  0  0  0
    0.7075   13.8228    0.5982 H   0  0  0  0  0  0  0  0  0  0  0  0
    2.2470   14.5910    1.1513 H   0  0  0  0  0  0  0  0  0  0  0  0
    3.8316   15.3710   -0.2765 H   0  0  0  0  0  0  0  0  0  0  0  0
    3.7520   14.4297   -1.8043 H   0  0  0  0  0  0  0  0  0  0  0  0
    3.3411   16.1784   -1.8043 H   0  0  0  0  0  0  0  0  0  0  0  0
  1  2  1  0
  2  3  1  0
  3  4  1  0
  4  5  1  0
  5  6  1  0
  6  7  1  0
  7  8  1  0
  7  9  1  0
  2 10  1  0
 10 11  1  0
 11 12  1  0
 12 13  1  0
 13 14  1  1
 13 15  1  0
 15 16  1  0
 16 17  1  0
 17 18  2  0
 18 19  1  0
 19 20  1  0
 20 21  1  0
 21 22  1  0
 22 23  1  0
 22 24  1  0
 24 25  1  0
 24 26  1  0
 19 27  1  0
 27 28  1  6
 27 29  1  0
 29 30  1  0
 30 31  1  0
 31 32  1  6
  7  5  1  0
 31 10  1  0
 31 13  1  0
 27 15  1  0
 24 18  1  0
  1 33  1  0
  1 34  1  0
  1 35  1  0
  2 36  1  1
  3 37  1  0
  3 38  1  0
  4 39  1  0
  4 40  1  0
  5 41  1  1
  8 42  1  0
  8 43  1  0
  8 44  1  0
  9 45  1  0
  9 46  1  0
  9 47  1  0
 10 48  1  1
 11 49  1  0
 11 50  1  0
 12 51  1  0
 12 52  1  0
 14 53  1  0
 14 54  1  0
 14 55  1  0
 15 56  1  6
 16 57  1  0
 16 58  1  0
 17 59  1  0
 19 60  1  1
 20 61  1  0
 20 62  1  0
 21 63  1  0
 21 64  1  0
 22 65  1  1
 23 66  1  0
 25 67  1  0
 25 68  1  0
 25 69  1  0
 26 70  1  0
 26 71  1  0
 26 72  1  0
 28 73  1  0
 28 74  1  0
 28 75  1  0
 29 76  1  0
 29 77  1  0
 30 78  1  0
 30 79  1  0
 32 80  1  0
 32 81  1  0
 32 82  1  0
M  END
>  <meeko>  (3) 
{"is_sidechain": [false], "intermolecular_energy": 2.731, "internal_energy": -0.839}

$$$$
EPH_relaxed_0001_pdb2pqr_Repair_74_r2_0001_out
     RDKit          3D

 82 86  0  0  0  0  0  0  0  0999 V2000
    1.9640   18.3320   -2.5370 C   0  0  0  0  0  0  0  0  0  0  0  0
    0.4440   18.1550   -2.6040 C   0  0  2  0  0  0  0  0  0  0  0  0
   -0.2540   18.6280   -1.3140 C   0  0  0  0  0  0  0  0  0  0  0  0
    0.4340   18.1510   -0.0320 C   0  0  0  0  0  0  0  0  0  0  0  0
    1.1000   19.2810    0.6930 C   0  0  2  0  0  0  0  0  0  0  0  0
    2.0540   20.0140   -0.0870 O   0  0  0  0  0  0  0  0  0  0  0  0
    2.5770   19.2960    1.0430 C   0  0  0  0  0  0  0  0  0  0  0  0
    3.4770   18.1580    0.6770 C   0  0  0  0  0  0  0  0  0  0  0  0
    3.0390   20.1820    2.1570 C   0  0  0  0  0  0  0  0  0  0  0  0
    0.1030   16.6940   -2.8760 C   0  0  1  0  0  0  0  0  0  0  0  0
   -0.0450   16.3870   -4.3890 C   0  0  0  0  0  0  0  0  0  0  0  0
    0.4900   14.9480   -4.6080 C   0  0  0  0  0  0  0  0  0  0  0  0
    0.6170   14.3580   -3.1840 C   0  0  1  0  0  0  0  0  0  0  0  0
   -0.8270   13.8990   -2.8100 C   0  0  0  0  0  0  0  0  0  0  0  0
    1.6540   13.2030   -3.0050 C   0  0  2  0  0  0  0  0  0  0  0  0
    1.3610   11.9300   -3.8180 C   0  0  0  0  0  0  0  0  0  0  0  0
    0.5240   10.9080   -3.1230 C   0  0  0  0  0  0  0  0  0  0  0  0
    0.2640   10.8760   -1.8030 C   0  0  0  0  0  0  0  0  0  0  0  0
    0.9170   11.8830   -0.8470 C   0  0  1  0  0  0  0  0  0  0  0  0
    1.4680   11.1350    0.3950 C   0  0  0  0  0  0  0  0  0  0  0  0
    0.4060   10.2820    1.0830 C   0  0  0  0  0  0  0  0  0  0  0  0
   -0.1770    9.2540    0.1170 C   0  0  2  0  0  0  0  0  0  0  0  0
    0.8430    8.3100   -0.2240 O   0  0  0  0  0  0  0  0  0  0  0  0
   -0.7540    9.8900   -1.1790 C   0  0  0  0  0  0  0  0  0  0  0  0
   -2.0460   10.6750   -0.8420 C   0  0  0  0  0  0  0  0  0  0  0  0
   -1.1810    8.7380   -2.1270 C   0  0  0  0  0  0  0  0  0  0  0  0
    1.9890   12.8600   -1.4960 C   0  0  1  0  0  0  0  0  0  0  0  0
    3.3950   12.1850   -1.4940 C   0  0  0  0  0  0  0  0  0  0  0  0
    2.1150   14.1510   -0.6040 C   0  0  0  0  0  0  0  0  0  0  0  0
    1.1400   15.3040   -0.9080 C   0  0  0  0  0  0  0  0  0  0  0  0
    1.1230   15.6270   -2.4060 C   0  0  2  0  0  0  0  0  0  0  0  0
    2.5580   16.1130   -2.8070 C   0  0  0  0  0  0  0  0  0  0  0  0
    2.2828   18.3691   -1.4849 H   0  0  0  0  0  0  0  0  0  0  0  0
    2.4543   17.4849   -3.0390 H   0  0  0  0  0  0  0  0  0  0  0  0
    2.2465   19.2691   -3.0390 H   0  0  0  0  0  0  0  0  0  0  0  0
    0.0737   18.7832   -3.4276 H   0  0  0  0  0  0  0  0  0  0  0  0
   -0.2700   19.7279   -1.3110 H   0  0  0  0  0  0  0  0  0  0  0  0
   -1.2646   18.1937   -1.3174 H   0  0  0  0  0  0  0  0  0  0  0  0
   -0.3192   17.6978    0.6293 H   0  0  0  0  0  0  0  0  0  0  0  0
    1.2066   17.4188   -0.3095 H   0  0  0  0  0  0  0  0  0  0  0  0
    0.1970   19.4571    1.2959 H   0  0  0  0  0  0  0  0  0  0  0  0
    3.8549   17.6802    1.5929 H   0  0  0  0  0  0  0  0  0  0  0  0
    2.9144   17.4215    0.0845 H   0  0  0  0  0  0  0  0  0  0  0  0
    4.3233   18.5358    0.0845 H   0  0  0  0  0  0  0  0  0  0  0  0
    2.7952   19.7145    3.1224 H   0  0  0  0  0  0  0  0  0  0  0  0
    4.1271   20.3261    2.0837 H   0  0  0  0  0  0  0  0  0  0  0  0
    2.5343   21.1566    2.0837 H   0  0  0  0  0  0  0  0  0  0  0  0
   -0.8259   16.6096   -2.2929 H   0  0  0  0  0  0  0  0  0  0  0  0
   -1.1024   16.4473   -4.6861 H   0  0  0  0  0  0  0  0  0  0  0  0
    0.5153   17.1133   -4.9960 H   0  0  0  0  0  0  0  0  0  0  0  0
   -0.2165   14.3586   -5.2109 H   0  0  0  0  0  0  0  0  0  0  0  0
    1.4466   14.9367   -5.1510 H   0  0  0  0  0  0  0  0  0  0  0  0
   -0.9294   13.8665   -1.7153 H   0  0  0  0  0  0  0  0  0  0  0  0
   -1.5568   14.6095   -3.2256 H   0  0  0  0  0  0  0  0  0  0  0  0
   -1.0126   12.8976   -3.2256 H   0  0  0  0  0  0  0  0  0  0  0  0
    2.5650   13.6352   -3.4447 H   0  0  0  0  0  0  0  0  0  0  0  0
    0.8387   12.2277   -4.7392 H   0  0  0  0  0  0  0  0  0  0  0  0
    2.3357   11.4533   -3.9986 H   0  0  0  0  0  0  0  0  0  0  0  0
    0.0822   10.1135   -3.7424 H   0  0  0  0  0  0  0  0  0  0  0  0
    0.1183   12.5752   -0.5421 H   0  0  0  0  0  0  0  0  0  0  0  0
    2.2930   10.4812    0.0756 H   0  0  0  0  0  0  0  0  0  0  0  0
    1.8078   11.8920    1.1172 H   0  0  0  0  0  0  0  0  0  0  0  0
    0.8622    9.7571    1.9353 H   0  0  0  0  0  0  0  0  0  0  0  0
   -0.4052   10.9406    1.4269 H   0  0  0  0  0  0  0  0  0  0  0  0
   -1.0183    8.7623    0.6274 H   0  0  0  0  0  0  0  0  0  0  0  0
    0.5580    7.8470   -1.0300 H   0  0  0  0  0  0  0  0  0  0  0  0
   -2.1590   10.7437    0.2500 H   0  0  0  0  0  0  0  0  0  0  0  0
   -1.9819   11.6870   -1.2683 H   0  0  0  0  0  0  0  0  0  0  0  0
   -2.9146   10.1518   -1.2683 H   0  0  0  0  0  0  0  0  0  0  0  0
   -1.5021    7.8717   -1.5299 H   0  0  0  0  0  0  0  0  0  0  0  0
   -2.0140    9.0750   -2.7615 H   0  0  0  0  0  0  0  0  0  0  0  0
   -0.3296    8.4507   -2.7615 H   0  0  0  0  0  0  0  0  0  0  0  0
    3.7243   12.0269   -0.4564 H   0  0  0  0  0  0  0  0  0  0  0  0
    3.3374   11.2163   -2.0121 H   0  0  0  0  0  0  0  0  0  0  0  0
    4.1149   12.8357   -2.0121 H   0  0  0  0  0  0  0  0  0  0  0  0
    1.9575   13.8492    0.4420 H   0  0  0  0  0  0  0  0  0  0  0  0
    3.1147   14.5548   -0.8222 H   0  0  0  0  0  0  0  0  0  0  0  0
    0.1278   15.0124   -0.5912 H   0  0  0  0  0  0  0  0  0  0  0  0
    1.4722   16.1981   -0.3600 H   0  0  0  0  0  0  0  0  0  0  0  0
    3.1451   16.3118   -1.8982 H   0  0  0  0  0  0  0  0  0  0  0  0
    3.0562   15.3335   -3.4021 H   0  0  0  0  0  0  0  0  0  0  0  0
    2.4800   17.0348   -3.4021 H   0  0  0  0  0  0  0  0  0  0  0  0
  1  2  1  0
  2  3  1  0
  3  4  1  0
  4  5  1  0
  5  6  1  0
  6  7  1  0
  7  8  1  0
  7  9  1  0
  2 10  1  0
 10 11  1  0
 11 12  1  0
 12 13  1  0
 13 14  1  1
 13 15  1  0
 15 16  1  0
 16 17  1  0
 17 18  2  0
 18 19  1  0
 19 20  1  0
 20 21  1  0
 21 22  1  0
 22 23  1  0
 22 24  1  0
 24 25  1  0
 24 26  1  0
 19 27  1  0
 27 28  1  6
 27 29  1  0
 29 30  1  0
 30 31  1  0
 31 32  1  6
  7  5  1  0
 31 10  1  0
 31 13  1  0
 27 15  1  0
 24 18  1  0
  1 33  1  0
  1 34  1  0
  1 35  1  0
  2 36  1  6
  3 37  1  0
  3 38  1  0
  4 39  1  0
  4 40  1  0
  5 41  1  1
  8 42  1  0
  8 43  1  0
  8 44  1  0
  9 45  1  0
  9 46  1  0
  9 47  1  0
 10 48  1  1
 11 49  1  0
 11 50  1  0
 12 51  1  0
 12 52  1  0
 14 53  1  0
 14 54  1  0
 14 55  1  0
 15 56  1  6
 16 57  1  0
 16 58  1  0
 17 59  1  0
 19 60  1  1
 20 61  1  0
 20 62  1  0
 21 63  1  0
 21 64  1  0
 22 65  1  1
 23 66  1  0
 25 67  1  0
 25 68  1  0
 25 69  1  0
 26 70  1  0
 26 71  1  0
 26 72  1  0
 28 73  1  0
 28 74  1  0
 28 75  1  0
 29 76  1  0
 29 77  1  0
 30 78  1  0
 30 79  1  0
 32 80  1  0
 32 81  1  0
 32 82  1  0
M  END
>  <meeko>  (4) 
{"is_sidechain": [false], "intermolecular_energy": 2.731, "internal_energy": -0.839}

$$$$
EPH_relaxed_0001_pdb2pqr_Repair_74_r2_0001_out
     RDKit          3D

 82 86  0  0  0  0  0  0  0  0999 V2000
   -4.4670    6.0500   -2.6540 C   0  0  0  0  0  0  0  0  0  0  0  0
   -5.0190    7.4360   -2.3080 C   0  0  2  0  0  0  0  0  0  0  0  0
   -4.8060    7.7910   -0.8230 C   0  0  0  0  0  0  0  0  0  0  0  0
   -3.8270    8.9470   -0.6010 C   0  0  0  0  0  0  0  0  0  0  0  0
   -2.4720    8.6410   -1.1610 C   0  0  2  0  0  0  0  0  0  0  0  0
   -1.3840    8.8660   -0.2540 O   0  0  0  0  0  0  0  0  0  0  0  0
   -1.4160    9.6990   -1.4250 C   0  0  0  0  0  0  0  0  0  0  0  0
   -1.6720   11.1450   -1.1350 C   0  0  0  0  0  0  0  0  0  0  0  0
   -0.3310    9.3970   -2.4100 C   0  0  0  0  0  0  0  0  0  0  0  0
   -6.5030    7.5050   -2.6520 C   0  0  1  0  0  0  0  0  0  0  0  0
   -6.8580    6.6970   -3.9290 C   0  0  0  0  0  0  0  0  0  0  0  0
   -8.2710    6.1020   -3.7030 C   0  0  0  0  0  0  0  0  0  0  0  0
   -8.8160    6.8500   -2.4640 C   0  0  1  0  0  0  0  0  0  0  0  0
   -9.3400    8.2130   -3.0160 C   0  0  0  0  0  0  0  0  0  0  0  0
   -9.9110    6.1050   -1.6330 C   0  0  2  0  0  0  0  0  0  0  0  0
  -11.2180    5.8120   -2.3900 C   0  0  0  0  0  0  0  0  0  0  0  0
  -12.2640    6.8730   -2.2900 C   0  0  0  0  0  0  0  0  0  0  0  0
  -12.2740    7.8790   -1.3960 C   0  0  0  0  0  0  0  0  0  0  0  0
  -11.2090    7.9660   -0.2950 C   0  0  1  0  0  0  0  0  0  0  0  0
  -11.8940    8.2630    1.0650 C   0  0  0  0  0  0  0  0  0  0  0  0
  -12.7830    9.5020    1.0150 C   0  0  0  0  0  0  0  0  0  0  0  0
  -13.8650    9.3530   -0.0520 C   0  0  2  0  0  0  0  0  0  0  0  0
  -14.7630    8.3120    0.3440 O   0  0  0  0  0  0  0  0  0  0  0  0
  -13.2950    9.0420   -1.4640 C   0  0  0  0  0  0  0  0  0  0  0  0
  -12.5700   10.2930   -2.0200 C   0  0  0  0  0  0  0  0  0  0  0  0
  -14.4930    8.7770   -2.4150 C   0  0  0  0  0  0  0  0  0  0  0  0
  -10.1950    6.7450   -0.2140 C   0  0  1  0  0  0  0  0  0  0  0  0
  -10.7950    5.6120    0.6740 C   0  0  0  0  0  0  0  0  0  0  0  0
   -8.8760    7.2200    0.5040 C   0  0  0  0  0  0  0  0  0  0  0  0
   -7.7840    7.8390   -0.3890 C   0  0  0  0  0  0  0  0  0  0  0  0
   -7.5020    6.9520   -1.6060 C   0  0  2  0  0  0  0  0  0  0  0  0
   -6.9530    5.5820   -1.0830 C   0  0  0  0  0  0  0  0  0  0  0  0
   -4.2481    5.5005   -1.7266 H   0  0  0  0  0  0  0  0  0  0  0  0
   -5.2126    5.4947   -3.2420 H   0  0  0  0  0  0  0  0  0  0  0  0
   -3.5438    6.1593   -3.2420 H   0  0  0  0  0  0  0  0  0  0  0  0
   -4.4636    8.1727   -2.9069 H   0  0  0  0  0  0  0  0  0  0  0  0
   -5.7777    8.0708   -0.3900 H   0  0  0  0  0  0  0  0  0  0  0  0
   -4.3709    6.9039   -0.3395 H   0  0  0  0  0  0  0  0  0  0  0  0
   -4.2214    9.8477   -1.0941 H   0  0  0  0  0  0  0  0  0  0  0  0
   -3.7225    9.1044    0.4827 H   0  0  0  0  0  0  0  0  0  0  0  0
   -2.8877    7.8405   -1.7906 H   0  0  0  0  0  0  0  0  0  0  0  0
   -1.6997   11.3014   -0.0465 H   0  0  0  0  0  0  0  0  0  0  0  0
   -0.8678   11.7547   -1.5727 H   0  0  0  0  0  0  0  0  0  0  0  0
   -2.6366   11.4416   -1.5727 H   0  0  0  0  0  0  0  0  0  0  0  0
    0.5926    9.1399   -1.8707 H   0  0  0  0  0  0  0  0  0  0  0  0
   -0.6348    8.5493   -3.0417 H   0  0  0  0  0  0  0  0  0  0  0  0
   -0.1531   10.2798   -3.0417 H   0  0  0  0  0  0  0  0  0  0  0  0
   -6.6203    8.5948   -2.7446 H   0  0  0  0  0  0  0  0  0  0  0  0
   -6.8618    7.3591   -4.8074 H   0  0  0  0  0  0  0  0  0  0  0  0
   -6.1195    5.9026   -4.1118 H   0  0  0  0  0  0  0  0  0  0  0  0
   -8.9125    6.2817   -4.5783 H   0  0  0  0  0  0  0  0  0  0  0  0
   -8.2458    5.0123   -3.5546 H   0  0  0  0  0  0  0  0  0  0  0  0
   -9.5947    8.8754   -2.1756 H   0  0  0  0  0  0  0  0  0  0  0  0
   -8.5590    8.6843   -3.6307 H   0  0  0  0  0  0  0  0  0  0  0  0
  -10.2356    8.0397   -3.6307 H   0  0  0  0  0  0  0  0  0  0  0  0
   -9.4446    5.1251   -1.4531 H   0  0  0  0  0  0  0  0  0  0  0  0
  -10.9719    5.6764   -3.4535 H   0  0  0  0  0  0  0  0  0  0  0  0
  -11.6478    4.9153   -1.9197 H   0  0  0  0  0  0  0  0  0  0  0  0
  -13.0966    6.8286   -3.0075 H   0  0  0  0  0  0  0  0  0  0  0  0
  -10.5515    8.8031   -0.5724 H   0  0  0  0  0  0  0  0  0  0  0  0
  -12.5118    7.3970    1.3450 H   0  0  0  0  0  0  0  0  0  0  0  0
  -11.1010    8.4510    1.8038 H   0  0  0  0  0  0  0  0  0  0  0  0
  -13.2611    9.6422    1.9957 H   0  0  0  0  0  0  0  0  0  0  0  0
  -12.1591   10.3725    0.7640 H   0  0  0  0  0  0  0  0  0  0  0  0
  -14.3858   10.3187   -0.1300 H   0  0  0  0  0  0  0  0  0  0  0  0
  -15.6480    8.7060    0.4350 H   0  0  0  0  0  0  0  0  0  0  0  0
  -12.2118   10.9112   -1.1836 H   0  0  0  0  0  0  0  0  0  0  0  0
  -11.7146    9.9777   -2.6356 H   0  0  0  0  0  0  0  0  0  0  0  0
  -13.2688   10.8784   -2.6356 H   0  0  0  0  0  0  0  0  0  0  0  0
  -15.3963    8.5772   -1.8199 H   0  0  0  0  0  0  0  0  0  0  0  0
  -14.6598    9.6600   -3.0495 H   0  0  0  0  0  0  0  0  0  0  0  0
  -14.2718    7.9061   -3.0495 H   0  0  0  0  0  0  0  0  0  0  0  0
  -10.6597    5.8675    1.7353 H   0  0  0  0  0  0  0  0  0  0  0  0
  -11.8680    5.5050    0.4565 H   0  0  0  0  0  0  0  0  0  0  0  0
  -10.2805    4.6644    0.4565 H   0  0  0  0  0  0  0  0  0  0  0  0
   -9.1583    7.9727    1.2548 H   0  0  0  0  0  0  0  0  0  0  0  0
   -8.4265    6.3044    0.9159 H   0  0  0  0  0  0  0  0  0  0  0  0
   -8.1197    8.8279   -0.7346 H   0  0  0  0  0  0  0  0  0  0  0  0
   -6.8595    7.9301    0.2001 H   0  0  0  0  0  0  0  0  0  0  0  0
   -6.9533    5.5827    0.0170 H   0  0  0  0  0  0  0  0  0  0  0  0
   -7.5937    4.7663   -1.4493 H   0  0  0  0  0  0  0  0  0  0  0  0
   -5.9263    5.4345   -1.4493 H   0  0  0  0  0  0  0  0  0  0  0  0
  1  2  1  0
  2  3  1  0
  3  4  1  0
  4  5  1  0
  5  6  1  0
  6  7  1  0
  7  8  1  0
  7  9  1  0
  2 10  1  0
 10 11  1  0
 11 12  1  0
 12 13  1  0
 13 14  1  6
 13 15  1  0
 15 16  1  0
 16 17  1  0
 17 18  2  0
 18 19  1  0
 19 20  1  0
 20 21  1  0
 21 22  1  0
 22 23  1  0
 22 24  1  0
 24 25  1  0
 24 26  1  0
 19 27  1  0
 27 28  1  1
 27 29  1  0
 29 30  1  0
 30 31  1  0
 31 32  1  1
  7  5  1  0
 31 10  1  0
 31 13  1  0
 27 15  1  0
 24 18  1  0
  1 33  1  0
  1 34  1  0
  1 35  1  0
  2 36  1  6
  3 37  1  0
  3 38  1  0
  4 39  1  0
  4 40  1  0
  5 41  1  6
  8 42  1  0
  8 43  1  0
  8 44  1  0
  9 45  1  0
  9 46  1  0
  9 47  1  0
 10 48  1  6
 11 49  1  0
 11 50  1  0
 12 51  1  0
 12 52  1  0
 14 53  1  0
 14 54  1  0
 14 55  1  0
 15 56  1  1
 16 57  1  0
 16 58  1  0
 17 59  1  0
 19 60  1  6
 20 61  1  0
 20 62  1  0
 21 63  1  0
 21 64  1  0
 22 65  1  6
 23 66  1  0
 25 67  1  0
 25 68  1  0
 25 69  1  0
 26 70  1  0
 26 71  1  0
 26 72  1  0
 28 73  1  0
 28 74  1  0
 28 75  1  0
 29 76  1  0
 29 77  1  0
 30 78  1  0
 30 79  1  0
 32 80  1  0
 32 81  1  0
 32 82  1  0
M  END
>  <meeko>  (5) 
{"is_sidechain": [false], "intermolecular_energy": 2.731, "internal_energy": -0.839}

$$$$
EPH_relaxed_0001_pdb2pqr_Repair_74_r2_0001_out
     RDKit          3D

 82 86  0  0  0  0  0  0  0  0999 V2000
   -3.5060    9.4170    0.2080 C   0  0  0  0  0  0  0  0  0  0  0  0
   -2.5600    9.7020   -0.9610 C   0  0  2  0  0  0  0  0  0  0  0  0
   -1.8760    8.4210   -1.4800 C   0  0  0  0  0  0  0  0  0  0  0  0
   -2.7710    7.5660   -2.3800 C   0  0  0  0  0  0  0  0  0  0  0  0
   -4.2080    7.6360   -1.9590 C   0  0  2  0  0  0  0  0  0  0  0  0
   -4.7450    6.4060   -1.4540 O   0  0  0  0  0  0  0  0  0  0  0  0
   -5.3260    6.8980   -2.6730 C   0  0  0  0  0  0  0  0  0  0  0  0
   -5.0540    6.0380   -3.8670 C   0  0  0  0  0  0  0  0  0  0  0  0
   -6.7280    7.3960   -2.5130 C   0  0  0  0  0  0  0  0  0  0  0  0
   -1.5080   10.7220   -0.5420 C   0  0  1  0  0  0  0  0  0  0  0  0
   -0.4250   10.1150    0.3900 C   0  0  0  0  0  0  0  0  0  0  0  0
    0.9110   10.8180    0.0420 C   0  0  0  0  0  0  0  0  0  0  0  0
    0.5000   12.0260   -0.8320 C   0  0  1  0  0  0  0  0  0  0  0  0
    0.0440   13.1200    0.1840 C   0  0  0  0  0  0  0  0  0  0  0  0
    1.5870   12.5700   -1.8160 C   0  0  2  0  0  0  0  0  0  0  0  0
    2.8580   13.1200   -1.1450 C   0  0  0  0  0  0  0  0  0  0  0  0
    2.8270   14.5760   -0.8190 C   0  0  0  0  0  0  0  0  0  0  0  0
    1.9450   15.4680   -1.3050 C   0  0  0  0  0  0  0  0  0  0  0  0
    0.9080   15.0570   -2.3580 C   0  0  1  0  0  0  0  0  0  0  0  0
    0.8770   16.1120   -3.4950 C   0  0  0  0  0  0  0  0  0  0  0  0
    0.6490   17.5270   -2.9730 C   0  0  0  0  0  0  0  0  0  0  0  0
    1.7330   17.9210   -1.9730 C   0  0  2  0  0  0  0  0  0  0  0  0
    2.9830   18.0160   -2.6620 O   0  0  0  0  0  0  0  0  0  0  0  0
    1.8630   16.9260   -0.7870 C   0  0  0  0  0  0  0  0  0  0  0  0
    0.6230   17.0460    0.1320 C   0  0  0  0  0  0  0  0  0  0  0  0
    3.0820   17.3610    0.0700 C   0  0  0  0  0  0  0  0  0  0  0  0
    1.0300   13.5710   -2.9080 C   0  0  1  0  0  0  0  0  0  0  0  0
    2.0310   13.5270   -4.1040 C   0  0  0  0  0  0  0  0  0  0  0  0
   -0.3650   13.1170   -3.4800 C   0  0  0  0  0  0  0  0  0  0  0  0
   -1.3500   12.4780   -2.4830 C   0  0  0  0  0  0  0  0  0  0  0  0
   -0.6660   11.3790   -1.6650 C   0  0  2  0  0  0  0  0  0  0  0  0
   -0.2160   10.2540   -2.6580 C   0  0  0  0  0  0  0  0  0  0  0  0
   -2.9742    9.5772    1.1575 H   0  0  0  0  0  0  0  0  0  0  0  0
   -4.3709   10.0944    0.1533 H   0  0  0  0  0  0  0  0  0  0  0  0
   -3.8528    8.3745    0.1533 H   0  0  0  0  0  0  0  0  0  0  0  0
   -3.1648   10.1096   -1.7844 H   0  0  0  0  0  0  0  0  0  0  0  0
   -0.9837    8.7120   -2.0536 H   0  0  0  0  0  0  0  0  0  0  0  0
   -1.6286    7.8098   -0.5995 H   0  0  0  0  0  0  0  0  0  0  0  0
   -2.6847    7.9273   -3.4154 H   0  0  0  0  0  0  0  0  0  0  0  0
   -2.4402    6.5201   -2.2990 H   0  0  0  0  0  0  0  0  0  0  0  0
   -4.0928    8.6875   -1.6573 H   0  0  0  0  0  0  0  0  0  0  0  0
   -4.7378    5.0383   -3.5344 H   0  0  0  0  0  0  0  0  0  0  0  0
   -5.9685    5.9509   -4.4721 H   0  0  0  0  0  0  0  0  0  0  0  0
   -4.2558    6.4926   -4.4721 H   0  0  0  0  0  0  0  0  0  0  0  0
   -6.9670    7.4809   -1.4426 H   0  0  0  0  0  0  0  0  0  0  0  0
   -6.8232    8.3829   -2.9894 H   0  0  0  0  0  0  0  0  0  0  0  0
   -7.4244    6.6902   -2.9894 H   0  0  0  0  0  0  0  0  0  0  0  0
   -2.1583   11.4735   -0.0705 H   0  0  0  0  0  0  0  0  0  0  0  0
   -0.6859   10.2978    1.4429 H   0  0  0  0  0  0  0  0  0  0  0  0
   -0.3470    9.0270    0.2478 H   0  0  0  0  0  0  0  0  0  0  0  0
    1.4217   11.1557    0.9559 H   0  0  0  0  0  0  0  0  0  0  0  0
    1.6125   10.1477   -0.4762 H   0  0  0  0  0  0  0  0  0  0  0  0
    0.1966   12.7539    1.2100 H   0  0  0  0  0  0  0  0  0  0  0  0
    0.6361   14.0340    0.0289 H   0  0  0  0  0  0  0  0  0  0  0  0
   -1.0220   13.3429    0.0289 H   0  0  0  0  0  0  0  0  0  0  0  0
    1.9005   11.6597   -2.3480 H   0  0  0  0  0  0  0  0  0  0  0  0
    3.0153   12.5651   -0.2083 H   0  0  0  0  0  0  0  0  0  0  0  0
    3.6694   12.9888   -1.8760 H   0  0  0  0  0  0  0  0  0  0  0  0
    3.5904   14.9519   -0.1219 H   0  0  0  0  0  0  0  0  0  0  0  0
   -0.0615   15.0399   -1.8387 H   0  0  0  0  0  0  0  0  0  0  0  0
    1.8383   16.0836   -4.0289 H   0  0  0  0  0  0  0  0  0  0  0  0
    0.0374   15.8619   -4.1602 H   0  0  0  0  0  0  0  0  0  0  0  0
    0.6669   18.2300   -3.8189 H   0  0  0  0  0  0  0  0  0  0  0  0
   -0.3262   17.5609   -2.4652 H   0  0  0  0  0  0  0  0  0  0  0  0
    1.4450   18.8896   -1.5384 H   0  0  0  0  0  0  0  0  0  0  0  0
    3.2980   17.1110   -2.8260 H   0  0  0  0  0  0  0  0  0  0  0  0
    0.9421   17.0151    1.1842 H   0  0  0  0  0  0  0  0  0  0  0  0
    0.1094   17.9980   -0.0676 H   0  0  0  0  0  0  0  0  0  0  0  0
   -0.0636   16.2101   -0.0676 H   0  0  0  0  0  0  0  0  0  0  0  0
    2.8307   17.2713    1.1371 H   0  0  0  0  0  0  0  0  0  0  0  0
    3.9414   16.7141   -0.1599 H   0  0  0  0  0  0  0  0  0  0  0  0
    3.3377   18.4059   -0.1599 H   0  0  0  0  0  0  0  0  0  0  0  0
    3.0605   13.4818   -3.7191 H   0  0  0  0  0  0  0  0  0  0  0  0
    1.8297   12.6368   -4.7181 H   0  0  0  0  0  0  0  0  0  0  0  0
    1.9086   14.4314   -4.7181 H   0  0  0  0  0  0  0  0  0  0  0  0
   -0.8538   14.0045   -3.9082 H   0  0  0  0  0  0  0  0  0  0  0  0
   -0.1339   12.3229   -4.2052 H   0  0  0  0  0  0  0  0  0  0  0  0
   -1.7250   13.2544   -1.7999 H   0  0  0  0  0  0  0  0  0  0  0  0
   -2.1799   12.0293   -3.0486 H   0  0  0  0  0  0  0  0  0  0  0  0
    0.1335    9.3803   -2.0883 H   0  0  0  0  0  0  0  0  0  0  0  0
   -1.0667    9.9623   -3.2915 H   0  0  0  0  0  0  0  0  0  0  0  0
    0.6012   10.6294   -3.2915 H   0  0  0  0  0  0  0  0  0  0  0  0
  1  2  1  0
  2  3  1  0
  3  4  1  0
  4  5  1  0
  5  6  1  0
  6  7  1  0
  7  8  1  0
  7  9  1  0
  2 10  1  0
 10 11  1  0
 11 12  1  0
 12 13  1  0
 13 14  1  1
 13 15  1  0
 15 16  1  0
 16 17  1  0
 17 18  2  0
 18 19  1  0
 19 20  1  0
 20 21  1  0
 21 22  1  0
 22 23  1  0
 22 24  1  0
 24 25  1  0
 24 26  1  0
 19 27  1  0
 27 28  1  6
 27 29  1  0
 29 30  1  0
 30 31  1  0
 31 32  1  6
  7  5  1  0
 31 10  1  0
 31 13  1  0
 27 15  1  0
 24 18  1  0
  1 33  1  0
  1 34  1  0
  1 35  1  0
  2 36  1  6
  3 37  1  0
  3 38  1  0
  4 39  1  0
  4 40  1  0
  5 41  1  1
  8 42  1  0
  8 43  1  0
  8 44  1  0
  9 45  1  0
  9 46  1  0
  9 47  1  0
 10 48  1  1
 11 49  1  0
 11 50  1  0
 12 51  1  0
 12 52  1  0
 14 53  1  0
 14 54  1  0
 14 55  1  0
 15 56  1  6
 16 57  1  0
 16 58  1  0
 17 59  1  0
 19 60  1  1
 20 61  1  0
 20 62  1  0
 21 63  1  0
 21 64  1  0
 22 65  1  1
 23 66  1  0
 25 67  1  0
 25 68  1  0
 25 69  1  0
 26 70  1  0
 26 71  1  0
 26 72  1  0
 28 73  1  0
 28 74  1  0
 28 75  1  0
 29 76  1  0
 29 77  1  0
 30 78  1  0
 30 79  1  0
 32 80  1  0
 32 81  1  0
 32 82  1  0
M  END
>  <meeko>  (6) 
{"is_sidechain": [false], "intermolecular_energy": 2.731, "internal_energy": -0.839}

$$$$
EPH_relaxed_0001_pdb2pqr_Repair_74_r2_0001_out
     RDKit          3D

 82 86  0  0  0  0  0  0  0  0999 V2000
    1.9150   18.3070   -2.8480 C   0  0  0  0  0  0  0  0  0  0  0  0
    0.9760   17.7140   -1.7940 C   0  0  2  0  0  0  0  0  0  0  0  0
    1.6460   17.6170   -0.4080 C   0  0  0  0  0  0  0  0  0  0  0  0
    1.2880   18.7720    0.5310 C   0  0  0  0  0  0  0  0  0  0  0  0
    0.1600   19.5970   -0.0100 C   0  0  2  0  0  0  0  0  0  0  0  0
   -0.6840   20.1850    0.9890 O   0  0  0  0  0  0  0  0  0  0  0  0
   -1.3010   19.2110    0.1320 C   0  0  0  0  0  0  0  0  0  0  0  0
   -1.7120   17.9550    0.8360 C   0  0  0  0  0  0  0  0  0  0  0  0
   -2.2910   19.7930   -0.8270 C   0  0  0  0  0  0  0  0  0  0  0  0
    0.4990   16.3370   -2.2390 C   0  0  1  0  0  0  0  0  0  0  0  0
    0.3240   16.2340   -3.7780 C   0  0  0  0  0  0  0  0  0  0  0  0
    0.7200   14.7890   -4.1770 C   0  0  0  0  0  0  0  0  0  0  0  0
    0.7880   14.0190   -2.8380 C   0  0  1  0  0  0  0  0  0  0  0  0
   -0.6940   13.6560   -2.5080 C   0  0  0  0  0  0  0  0  0  0  0  0
    1.7110   12.7570   -2.8120 C   0  0  2  0  0  0  0  0  0  0  0  0
    1.2990   11.6280   -3.7730 C   0  0  0  0  0  0  0  0  0  0  0  0
    0.3670   10.6120   -3.2010 C   0  0  0  0  0  0  0  0  0  0  0  0
    0.1040   10.4420   -1.8920 C   0  0  0  0  0  0  0  0  0  0  0  0
    0.8470   11.2570   -0.8260 C   0  0  1  0  0  0  0  0  0  0  0  0
    1.3220   10.3130    0.3100 C   0  0  0  0  0  0  0  0  0  0  0  0
    0.1830    9.4860    0.8980 C   0  0  0  0  0  0  0  0  0  0  0  0
   -0.4940    8.6450   -0.1820 C   0  0  2  0  0  0  0  0  0  0  0  0
    0.4320    7.6580   -0.6460 O   0  0  0  0  0  0  0  0  0  0  0  0
   -1.0050    9.4880   -1.3840 C   0  0  0  0  0  0  0  0  0  0  0  0
   -2.2180   10.3440   -0.9400 C   0  0  0  0  0  0  0  0  0  0  0  0
   -1.5380    8.5060   -2.4620 C   0  0  0  0  0  0  0  0  0  0  0  0
    2.0090   12.2010   -1.3610 C   0  0  1  0  0  0  0  0  0  0  0  0
    3.3440   11.4010   -1.4560 C   0  0  0  0  0  0  0  0  0  0  0  0
    2.2550   13.3540   -0.3170 C   0  0  0  0  0  0  0  0  0  0  0  0
    1.3950   14.6230   -0.4680 C   0  0  0  0  0  0  0  0  0  0  0  0
    1.4110   15.1280   -1.9140 C   0  0  2  0  0  0  0  0  0  0  0  0
    2.8860   15.5220   -2.2670 C   0  0  0  0  0  0  0  0  0  0  0  0
    2.7435   18.8302   -2.3482 H   0  0  0  0  0  0  0  0  0  0  0  0
    2.3176   17.4990   -3.4765 H   0  0  0  0  0  0  0  0  0  0  0  0
    1.3585   19.0178   -3.4765 H   0  0  0  0  0  0  0  0  0  0  0  0
    0.1156   18.3926   -1.6981 H   0  0  0  0  0  0  0  0  0  0  0  0
    1.3313   16.6749    0.0647 H   0  0  0  0  0  0  0  0  0  0  0  0
    2.7327   17.6616   -0.5725 H   0  0  0  0  0  0  0  0  0  0  0  0
    0.9918   18.3594    1.5067 H   0  0  0  0  0  0  0  0  0  0  0  0
    2.1710   19.4206    0.6288 H   0  0  0  0  0  0  0  0  0  0  0  0
    0.7634   19.8953   -0.8800 H   0  0  0  0  0  0  0  0  0  0  0  0
   -1.6610   18.1109    1.9237 H   0  0  0  0  0  0  0  0  0  0  0  0
   -2.7421   17.6950    0.5507 H   0  0  0  0  0  0  0  0  0  0  0  0
   -1.0349   17.1364    0.5507 H   0  0  0  0  0  0  0  0  0  0  0  0
   -3.1067   20.2725   -0.2660 H   0  0  0  0  0  0  0  0  0  0  0  0
   -1.7919   20.5415   -1.4600 H   0  0  0  0  0  0  0  0  0  0  0  0
   -2.7023   18.9929   -1.4600 H   0  0  0  0  0  0  0  0  0  0  0  0
   -0.4340   16.2698   -1.6602 H   0  0  0  0  0  0  0  0  0  0  0  0
   -0.7225   16.4300   -4.0543 H   0  0  0  0  0  0  0  0  0  0  0  0
    0.9514   16.9734   -4.2974 H   0  0  0  0  0  0  0  0  0  0  0  0
   -0.0383   14.3478   -4.8405 H   0  0  0  0  0  0  0  0  0  0  0  0
    1.6721   14.7543   -4.7268 H   0  0  0  0  0  0  0  0  0  0  0  0
   -0.8291   13.6229   -1.4168 H   0  0  0  0  0  0  0  0  0  0  0  0
   -1.3622   14.4170   -2.9373 H   0  0  0  0  0  0  0  0  0  0  0  0
   -0.9349   12.6723   -2.9373 H   0  0  0  0  0  0  0  0  0  0  0  0
    2.6605   13.1512   -3.2032 H   0  0  0  0  0  0  0  0  0  0  0  0
    0.8091   12.0858   -4.6450 H   0  0  0  0  0  0  0  0  0  0  0  0
    2.2240   11.0868   -4.0210 H   0  0  0  0  0  0  0  0  0  0  0  0
   -0.1483    9.9461   -3.9089 H   0  0  0  0  0  0  0  0  0  0  0  0
    0.1168   11.9784   -0.4305 H   0  0  0  0  0  0  0  0  0  0  0  0
    2.0821    9.6287   -0.0949 H   0  0  0  0  0  0  0  0  0  0  0  0
    1.7302   10.9400    1.1164 H   0  0  0  0  0  0  0  0  0  0  0  0
    0.5859    8.8188    1.6742 H   0  0  0  0  0  0  0  0  0  0  0  0
   -0.5623   10.1707    1.3288 H   0  0  0  0  0  0  0  0  0  0  0  0
   -1.3797    8.1763    0.2718 H   0  0  0  0  0  0  0  0  0  0  0  0
   -0.0410    7.0800   -1.2680 H   0  0  0  0  0  0  0  0  0  0  0  0
   -2.2622   10.3752    0.1587 H   0  0  0  0  0  0  0  0  0  0  0  0
   -2.1086   11.3660   -1.3317 H   0  0  0  0  0  0  0  0  0  0  0  0
   -3.1443    9.8984   -1.3317 H   0  0  0  0  0  0  0  0  0  0  0  0
   -2.0074    7.6412   -1.9702 H   0  0  0  0  0  0  0  0  0  0  0  0
   -2.2815    9.0190   -3.0898 H   0  0  0  0  0  0  0  0  0  0  0  0
   -0.7028    8.1621   -3.0898 H   0  0  0  0  0  0  0  0  0  0  0  0
    3.7121   11.1804   -0.4432 H   0  0  0  0  0  0  0  0  0  0  0  0
    3.1692   10.4587   -1.9959 H   0  0  0  0  0  0  0  0  0  0  0  0
    4.0925   11.9995   -1.9959 H   0  0  0  0  0  0  0  0  0  0  0  0
    2.0662   12.9414    0.6851 H   0  0  0  0  0  0  0  0  0  0  0  0
    3.2894   13.6849   -0.4921 H   0  0  0  0  0  0  0  0  0  0  0  0
    0.3591   14.3920   -0.1791 H   0  0  0  0  0  0  0  0  0  0  0  0
    1.8105   15.4073    0.1818 H   0  0  0  0  0  0  0  0  0  0  0  0
    3.4569   15.6745   -1.3392 H   0  0  0  0  0  0  0  0  0  0  0  0
    3.3501   14.7163   -2.8548 H   0  0  0  0  0  0  0  0  0  0  0  0
    2.8865   16.4518   -2.8548 H   0  0  0  0  0  0  0  0  0  0  0  0
  1  2  1  0
  2  3  1  0
  3  4  1  0
  4  5  1  0
  5  6  1  0
  6  7  1  0
  7  8  1  0
  7  9  1  0
  2 10  1  0
 10 11  1  0
 11 12  1  0
 12 13  1  0
 13 14  1  1
 13 15  1  0
 15 16  1  0
 16 17  1  0
 17 18  2  0
 18 19  1  0
 19 20  1  0
 20 21  1  0
 21 22  1  0
 22 23  1  0
 22 24  1  0
 24 25  1  0
 24 26  1  0
 19 27  1  0
 27 28  1  6
 27 29  1  0
 29 30  1  0
 30 31  1  0
 31 32  1  6
  7  5  1  0
 31 10  1  0
 31 13  1  0
 27 15  1  0
 24 18  1  0
  1 33  1  0
  1 34  1  0
  1 35  1  0
  2 36  1  1
  3 37  1  0
  3 38  1  0
  4 39  1  0
  4 40  1  0
  5 41  1  6
  8 42  1  0
  8 43  1  0
  8 44  1  0
  9 45  1  0
  9 46  1  0
  9 47  1  0
 10 48  1  1
 11 49  1  0
 11 50  1  0
 12 51  1  0
 12 52  1  0
 14 53  1  0
 14 54  1  0
 14 55  1  0
 15 56  1  6
 16 57  1  0
 16 58  1  0
 17 59  1  0
 19 60  1  1
 20 61  1  0
 20 62  1  0
 21 63  1  0
 21 64  1  0
 22 65  1  1
 23 66  1  0
 25 67  1  0
 25 68  1  0
 25 69  1  0
 26 70  1  0
 26 71  1  0
 26 72  1  0
 28 73  1  0
 28 74  1  0
 28 75  1  0
 29 76  1  0
 29 77  1  0
 30 78  1  0
 30 79  1  0
 32 80  1  0
 32 81  1  0
 32 82  1  0
M  END
>  <meeko>  (7) 
{"is_sidechain": [false], "intermolecular_energy": 2.731, "internal_energy": -0.839}

$$$$
EPH_relaxed_0001_pdb2pqr_Repair_74_r2_0001_out
     RDKit          3D

 82 86  0  0  0  0  0  0  0  0999 V2000
    0.4380    8.8320   -2.4050 C   0  0  0  0  0  0  0  0  0  0  0  0
    1.1860    9.9800   -3.0900 C   0  0  2  0  0  0  0  0  0  0  0  0
    2.6840    9.9950   -2.7250 C   0  0  0  0  0  0  0  0  0  0  0  0
    3.5770   10.5950   -3.8150 C   0  0  0  0  0  0  0  0  0  0  0  0
    4.9740   10.8240   -3.3230 C   0  0  2  0  0  0  0  0  0  0  0  0
    5.5730   12.0470   -3.7700 O   0  0  0  0  0  0  0  0  0  0  0  0
    6.1890   10.8340   -4.2320 C   0  0  0  0  0  0  0  0  0  0  0  0
    6.0630   10.6100   -5.7060 C   0  0  0  0  0  0  0  0  0  0  0  0
    7.5350   10.5740   -3.6300 C   0  0  0  0  0  0  0  0  0  0  0  0
    0.5460   11.3120   -2.7190 C   0  0  1  0  0  0  0  0  0  0  0  0
   -0.8290   11.1400   -2.0190 C   0  0  0  0  0  0  0  0  0  0  0  0
   -0.9430   12.2790   -0.9720 C   0  0  0  0  0  0  0  0  0  0  0  0
    0.2040   13.2530   -1.3290 C   0  0  1  0  0  0  0  0  0  0  0  0
   -0.3510   14.1110   -2.5090 C   0  0  0  0  0  0  0  0  0  0  0  0
    0.7370   14.1500   -0.1640 C   0  0  2  0  0  0  0  0  0  0  0  0
   -0.2940   15.1240    0.4330 C   0  0  0  0  0  0  0  0  0  0  0  0
   -0.3420   16.4720   -0.2070 C   0  0  0  0  0  0  0  0  0  0  0  0
    0.5960   16.9830   -1.0250 C   0  0  0  0  0  0  0  0  0  0  0  0
    1.8980   16.2210   -1.3050 C   0  0  1  0  0  0  0  0  0  0  0  0
    3.1030   17.1900   -1.1780 C   0  0  0  0  0  0  0  0  0  0  0  0
    2.9520   18.4290   -2.0550 C   0  0  0  0  0  0  0  0  0  0  0  0
    1.6760   19.1910   -1.7080 C   0  0  2  0  0  0  0  0  0  0  0  0
    1.8050   19.7290   -0.3880 O   0  0  0  0  0  0  0  0  0  0  0  0
    0.3960   18.3140   -1.7920 C   0  0  0  0  0  0  0  0  0  0  0  0
    0.0890   17.9810   -3.2730 C   0  0  0  0  0  0  0  0  0  0  0  0
   -0.7990   19.1640   -1.2820 C   0  0  0  0  0  0  0  0  0  0  0  0
    2.1050   14.8780   -0.4810 C   0  0  1  0  0  0  0  0  0  0  0  0
    2.7700   15.1950    0.8940 C   0  0  0  0  0  0  0  0  0  0  0  0
    3.1120   13.9490   -1.2570 C   0  0  0  0  0  0  0  0  0  0  0  0
    2.5110   13.0010   -2.3110 C   0  0  0  0  0  0  0  0  0  0  0  0
    1.3210   12.2250   -1.7360 C   0  0  2  0  0  0  0  0  0  0  0  0
    1.8530   11.3350   -0.5610 C   0  0  0  0  0  0  0  0  0  0  0  0
    0.5121    8.9458   -1.3134 H   0  0  0  0  0  0  0  0  0  0  0  0
   -0.6201    8.8532   -2.7049 H   0  0  0  0  0  0  0  0  0  0  0  0
    0.8849    7.8726   -2.7049 H   0  0  0  0  0  0  0  0  0  0  0  0
    1.1120    9.8224   -4.1761 H   0  0  0  0  0  0  0  0  0  0  0  0
    2.8118   10.5867   -1.8066 H   0  0  0  0  0  0  0  0  0  0  0  0
    2.9940    8.9475   -2.5958 H   0  0  0  0  0  0  0  0  0  0  0  0
    3.6090    9.9039   -4.6702 H   0  0  0  0  0  0  0  0  0  0  0  0
    3.1534   11.5666   -4.1092 H   0  0  0  0  0  0  0  0  0  0  0  0
    4.7575   10.2895   -2.3863 H   0  0  0  0  0  0  0  0  0  0  0  0
    5.5312    9.6646   -5.8891 H   0  0  0  0  0  0  0  0  0  0  0  0
    5.4998   11.4407   -6.1563 H   0  0  0  0  0  0  0  0  0  0  0  0
    7.0654   10.5600   -6.1563 H   0  0  0  0  0  0  0  0  0  0  0  0
    7.4552   10.5894   -2.5330 H   0  0  0  0  0  0  0  0  0  0  0  0
    7.8990    9.5889   -3.9574 H   0  0  0  0  0  0  0  0  0  0  0  0
    8.2397   11.3526   -3.9574 H   0  0  0  0  0  0  0  0  0  0  0  0
    0.5051   11.7796   -3.7138 H   0  0  0  0  0  0  0  0  0  0  0  0
   -1.6419   11.2198   -2.7558 H   0  0  0  0  0  0  0  0  0  0  0  0
   -0.9077   10.1531   -1.5396 H   0  0  0  0  0  0  0  0  0  0  0  0
   -1.9181   12.7821   -1.0500 H   0  0  0  0  0  0  0  0  0  0  0  0
   -0.8676   11.9061    0.0601 H   0  0  0  0  0  0  0  0  0  0  0  0
   -0.9072   14.9708   -2.1073 H   0  0  0  0  0  0  0  0  0  0  0  0
    0.4857   14.4712   -3.1256 H   0  0  0  0  0  0  0  0  0  0  0  0
   -1.0226   13.4956   -3.1256 H   0  0  0  0  0  0  0  0  0  0  0  0
    0.9439   13.4133    0.6262 H   0  0  0  0  0  0  0  0  0  0  0  0
   -1.2896   14.6663    0.3368 H   0  0  0  0  0  0  0  0  0  0  0  0
    0.0142   15.2925    1.4754 H   0  0  0  0  0  0  0  0  0  0  0  0
   -1.2186   17.1007    0.0085 H   0  0  0  0  0  0  0  0  0  0  0  0
    1.8208   15.8560   -2.3398 H   0  0  0  0  0  0  0  0  0  0  0  0
    3.1899   17.5090   -0.1289 H   0  0  0  0  0  0  0  0  0  0  0  0
    4.0016   16.6512   -1.5130 H   0  0  0  0  0  0  0  0  0  0  0  0
    3.8186   19.0882   -1.8989 H   0  0  0  0  0  0  0  0  0  0  0  0
    2.8955   18.1101   -3.1062 H   0  0  0  0  0  0  0  0  0  0  0  0
    1.5568   19.9911   -2.4535 H   0  0  0  0  0  0  0  0  0  0  0  0
    2.6320   19.3840   -0.0090 H   0  0  0  0  0  0  0  0  0  0  0  0
   -0.6559   17.1730   -3.3203 H   0  0  0  0  0  0  0  0  0  0  0  0
   -0.3079   18.8755   -3.7753 H   0  0  0  0  0  0  0  0  0  0  0  0
    1.0128   17.6580   -3.7753 H   0  0  0  0  0  0  0  0  0  0  0  0
   -0.8036   19.1673   -0.1820 H   0  0  0  0  0  0  0  0  0  0  0  0
   -0.6994   20.1953   -1.6513 H   0  0  0  0  0  0  0  0  0  0  0  0
   -1.7406   18.7316   -1.6513 H   0  0  0  0  0  0  0  0  0  0  0  0
    2.1011   14.8762    1.7070 H   0  0  0  0  0  0  0  0  0  0  0  0
    3.7254   14.6555    0.9723 H   0  0  0  0  0  0  0  0  0  0  0  0
    2.9524   16.2769    0.9723 H   0  0  0  0  0  0  0  0  0  0  0  0
    3.8373   14.5987   -1.7688 H   0  0  0  0  0  0  0  0  0  0  0  0
    3.5445   13.2896   -0.4901 H   0  0  0  0  0  0  0  0  0  0  0  0
    2.1718   13.5918   -3.1747 H   0  0  0  0  0  0  0  0  0  0  0  0
    3.2844   12.2810   -2.6168 H   0  0  0  0  0  0  0  0  0  0  0  0
    1.5785   11.7942    0.4001 H   0  0  0  0  0  0  0  0  0  0  0  0
    1.4060   10.3322   -0.6292 H   0  0  0  0  0  0  0  0  0  0  0  0
    2.9479   11.2538   -0.6292 H   0  0  0  0  0  0  0  0  0  0  0  0
  1  2  1  0
  2  3  1  0
  3  4  1  0
  4  5  1  0
  5  6  1  0
  6  7  1  0
  7  8  1  0
  7  9  1  0
  2 10  1  0
 10 11  1  0
 11 12  1  0
 12 13  1  0
 13 14  1  6
 13 15  1  0
 15 16  1  0
 16 17  1  0
 17 18  2  0
 18 19  1  0
 19 20  1  0
 20 21  1  0
 21 22  1  0
 22 23  1  0
 22 24  1  0
 24 25  1  0
 24 26  1  0
 19 27  1  0
 27 28  1  1
 27 29  1  0
 29 30  1  0
 30 31  1  0
 31 32  1  1
  7  5  1  0
 31 10  1  0
 31 13  1  0
 27 15  1  0
 24 18  1  0
  1 33  1  0
  1 34  1  0
  1 35  1  0
  2 36  1  6
  3 37  1  0
  3 38  1  0
  4 39  1  0
  4 40  1  0
  5 41  1  1
  8 42  1  0
  8 43  1  0
  8 44  1  0
  9 45  1  0
  9 46  1  0
  9 47  1  0
 10 48  1  6
 11 49  1  0
 11 50  1  0
 12 51  1  0
 12 52  1  0
 14 53  1  0
 14 54  1  0
 14 55  1  0
 15 56  1  1
 16 57  1  0
 16 58  1  0
 17 59  1  0
 19 60  1  6
 20 61  1  0
 20 62  1  0
 21 63  1  0
 21 64  1  0
 22 65  1  6
 23 66  1  0
 25 67  1  0
 25 68  1  0
 25 69  1  0
 26 70  1  0
 26 71  1  0
 26 72  1  0
 28 73  1  0
 28 74  1  0
 28 75  1  0
 29 76  1  0
 29 77  1  0
 30 78  1  0
 30 79  1  0
 32 80  1  0
 32 81  1  0
 32 82  1  0
M  END
>  <meeko>  (8) 
{"is_sidechain": [false], "intermolecular_energy": 2.731, "internal_energy": -0.839}

$$$$
EPH_relaxed_0001_pdb2pqr_Repair_74_r2_0001_out
     RDKit          3D

 82 86  0  0  0  0  0  0  0  0999 V2000
    2.4110   19.5050   -0.7490 C   0  0  0  0  0  0  0  0  0  0  0  0
    2.3990   18.5660   -1.9590 C   0  0  2  0  0  0  0  0  0  0  0  0
    1.0460   18.5870   -2.6970 C   0  0  0  0  0  0  0  0  0  0  0  0
    0.1140   19.7140   -2.2410 C   0  0  0  0  0  0  0  0  0  0  0  0
   -1.1170   19.1790   -1.5740 C   0  0  2  0  0  0  0  0  0  0  0  0
   -2.0500   20.1800   -1.1470 O   0  0  0  0  0  0  0  0  0  0  0  0
   -1.4370   19.4010   -0.1070 C   0  0  0  0  0  0  0  0  0  0  0  0
   -0.5220   20.1850    0.7810 C   0  0  0  0  0  0  0  0  0  0  0  0
   -2.3780   18.4550    0.5720 C   0  0  0  0  0  0  0  0  0  0  0  0
    2.7300   17.1460   -1.5180 C   0  0  1  0  0  0  0  0  0  0  0  0
    3.5300   17.1040   -0.1880 C   0  0  0  0  0  0  0  0  0  0  0  0
    3.0600   15.8390    0.5760 C   0  0  0  0  0  0  0  0  0  0  0  0
    2.2620   15.0250   -0.4690 C   0  0  1  0  0  0  0  0  0  0  0  0
    3.3460   14.2720   -1.3030 C   0  0  0  0  0  0  0  0  0  0  0  0
    1.1840   14.0440    0.0960 C   0  0  2  0  0  0  0  0  0  0  0  0
    1.7310   12.9140    0.9840 C   0  0  0  0  0  0  0  0  0  0  0  0
    2.0930   11.6560    0.2660 C   0  0  0  0  0  0  0  0  0  0  0  0
    1.7220   11.3370   -0.9880 C   0  0  0  0  0  0  0  0  0  0  0  0
    0.7740   12.2440   -1.7830 C   0  0  1  0  0  0  0  0  0  0  0  0
   -0.3280   11.3810   -2.4520 C   0  0  0  0  0  0  0  0  0  0  0  0
    0.2470   10.2510   -3.3000 C   0  0  0  0  0  0  0  0  0  0  0  0
    1.1380    9.3380   -2.4610 C   0  0  2  0  0  0  0  0  0  0  0  0
    0.3250    8.6560   -1.5020 O   0  0  0  0  0  0  0  0  0  0  0  0
    2.2800   10.0990   -1.7310 C   0  0  0  0  0  0  0  0  0  0  0  0
    3.3270   10.5830   -2.7650 C   0  0  0  0  0  0  0  0  0  0  0  0
    3.0150    9.0870   -0.8110 C   0  0  0  0  0  0  0  0  0  0  0  0
    0.1790   13.4880   -0.9940 C   0  0  1  0  0  0  0  0  0  0  0  0
   -1.1140   13.0670   -0.2320 C   0  0  0  0  0  0  0  0  0  0  0  0
   -0.2540   14.5940   -2.0270 C   0  0  0  0  0  0  0  0  0  0  0  0
    0.8260   15.6060   -2.4550 C   0  0  0  0  0  0  0  0  0  0  0  0
    1.5410   16.1930   -1.2350 C   0  0  2  0  0  0  0  0  0  0  0  0
    0.4800   16.9760   -0.3890 C   0  0  0  0  0  0  0  0  0  0  0  0
    2.4034   18.9106    0.1765 H   0  0  0  0  0  0  0  0  0  0  0  0
    3.3172   20.1279   -0.7773 H   0  0  0  0  0  0  0  0  0  0  0  0
    1.5210   20.1509   -0.7773 H   0  0  0  0  0  0  0  0  0  0  0  0
    3.1643   18.9242   -2.6633 H   0  0  0  0  0  0  0  0  0  0  0  0
    1.2390   18.7098   -3.7729 H   0  0  0  0  0  0  0  0  0  0  0  0
    0.5395   17.6379   -2.4674 H   0  0  0  0  0  0  0  0  0  0  0  0
    0.6536   20.3574   -1.5304 H   0  0  0  0  0  0  0  0  0  0  0  0
   -0.1970   20.2828   -3.1297 H   0  0  0  0  0  0  0  0  0  0  0  0
   -1.0865   18.2706   -2.1935 H   0  0  0  0  0  0  0  0  0  0  0  0
   -0.7651   19.9767    1.8334 H   0  0  0  0  0  0  0  0  0  0  0  0
    0.5201   19.8952    0.5811 H   0  0  0  0  0  0  0  0  0  0  0  0
   -0.6486   21.2592    0.5811 H   0  0  0  0  0  0  0  0  0  0  0  0
   -2.2768   18.5568    1.6626 H   0  0  0  0  0  0  0  0  0  0  0  0
   -3.4111   18.6900    0.2761 H   0  0  0  0  0  0  0  0  0  0  0  0
   -2.1376   17.4232    0.2761 H   0  0  0  0  0  0  0  0  0  0  0  0
    3.2845   16.8030   -2.4040 H   0  0  0  0  0  0  0  0  0  0  0  0
    4.6083   17.0422   -0.3962 H   0  0  0  0  0  0  0  0  0  0  0  0
    3.3558   18.0127    0.4070 H   0  0  0  0  0  0  0  0  0  0  0  0
    3.9231   15.2625    0.9404 H   0  0  0  0  0  0  0  0  0  0  0  0
    2.4557   16.0871    1.4610 H   0  0  0  0  0  0  0  0  0  0  0  0
    4.0556   13.7791   -0.6221 H   0  0  0  0  0  0  0  0  0  0  0  0
    2.8607   13.5155   -1.9372 H   0  0  0  0  0  0  0  0  0  0  0  0
    3.8855   14.9908   -1.9372 H   0  0  0  0  0  0  0  0  0  0  0  0
    0.6018   14.6940    0.7657 H   0  0  0  0  0  0  0  0  0  0  0  0
    2.6328   13.2870    1.4915 H   0  0  0  0  0  0  0  0  0  0  0  0
    0.9159   12.6471    1.6727 H   0  0  0  0  0  0  0  0  0  0  0  0
    2.7154   10.9284    0.8075 H   0  0  0  0  0  0  0  0  0  0  0  0
    1.3916   12.7262   -2.5550 H   0  0  0  0  0  0  0  0  0  0  0  0
   -0.9601   10.9443   -1.6648 H   0  0  0  0  0  0  0  0  0  0  0  0
   -0.9065   12.0372   -3.1189 H   0  0  0  0  0  0  0  0  0  0  0  0
   -0.5799    9.6598   -3.7203 H   0  0  0  0  0  0  0  0  0  0  0  0
    0.8540   10.6904   -4.1053 H   0  0  0  0  0  0  0  0  0  0  0  0
    1.6229    8.6283   -3.1474 H   0  0  0  0  0  0  0  0  0  0  0  0
   -0.2800    8.0720   -1.9910 H   0  0  0  0  0  0  0  0  0  0  0  0
    4.2032   10.9880   -2.2375 H   0  0  0  0  0  0  0  0  0  0  0  0
    3.6375    9.7371   -3.3959 H   0  0  0  0  0  0  0  0  0  0  0  0
    2.8838   11.3676   -3.3959 H   0  0  0  0  0  0  0  0  0  0  0  0
    2.8275    9.3452    0.2417 H   0  0  0  0  0  0  0  0  0  0  0  0
    2.6424    8.0716   -1.0115 H   0  0  0  0  0  0  0  0  0  0  0  0
    4.0958    9.1272   -1.0115 H   0  0  0  0  0  0  0  0  0  0  0  0
   -0.9361   13.1249    0.8520 H   0  0  0  0  0  0  0  0  0  0  0  0
   -1.9373   13.7435   -0.5051 H   0  0  0  0  0  0  0  0  0  0  0  0
   -1.3811   12.0355   -0.5051 H   0  0  0  0  0  0  0  0  0  0  0  0
   -0.6082   14.0819   -2.9338 H   0  0  0  0  0  0  0  0  0  0  0  0
   -1.0175   15.1908   -1.5065 H   0  0  0  0  0  0  0  0  0  0  0  0
    1.5630   15.0972   -3.0938 H   0  0  0  0  0  0  0  0  0  0  0  0
    0.3405   16.4256   -3.0050 H   0  0  0  0  0  0  0  0  0  0  0  0
    0.6823   16.8267    0.6819 H   0  0  0  0  0  0  0  0  0  0  0  0
    0.5397   18.0482   -0.6274 H   0  0  0  0  0  0  0  0  0  0  0  0
   -0.5269   16.6029   -0.6274 H   0  0  0  0  0  0  0  0  0  0  0  0
  1  2  1  0
  2  3  1  0
  3  4  1  0
  4  5  1  0
  5  6  1  0
  6  7  1  0
  7  8  1  0
  7  9  1  0
  2 10  1  0
 10 11  1  0
 11 12  1  0
 12 13  1  0
 13 14  1  6
 13 15  1  0
 15 16  1  0
 16 17  1  0
 17 18  2  0
 18 19  1  0
 19 20  1  0
 20 21  1  0
 21 22  1  0
 22 23  1  0
 22 24  1  0
 24 25  1  0
 24 26  1  0
 19 27  1  0
 27 28  1  1
 27 29  1  0
 29 30  1  0
 30 31  1  0
 31 32  1  1
  7  5  1  0
 31 10  1  0
 31 13  1  0
 27 15  1  0
 24 18  1  0
  1 33  1  0
  1 34  1  0
  1 35  1  0
  2 36  1  6
  3 37  1  0
  3 38  1  0
  4 39  1  0
  4 40  1  0
  5 41  1  6
  8 42  1  0
  8 43  1  0
  8 44  1  0
  9 45  1  0
  9 46  1  0
  9 47  1  0
 10 48  1  6
 11 49  1  0
 11 50  1  0
 12 51  1  0
 12 52  1  0
 14 53  1  0
 14 54  1  0
 14 55  1  0
 15 56  1  1
 16 57  1  0
 16 58  1  0
 17 59  1  0
 19 60  1  6
 20 61  1  0
 20 62  1  0
 21 63  1  0
 21 64  1  0
 22 65  1  6
 23 66  1  0
 25 67  1  0
 25 68  1  0
 25 69  1  0
 26 70  1  0
 26 71  1  0
 26 72  1  0
 28 73  1  0
 28 74  1  0
 28 75  1  0
 29 76  1  0
 29 77  1  0
 30 78  1  0
 30 79  1  0
 32 80  1  0
 32 81  1  0
 32 82  1  0
M  END
>  <meeko>  (9) 
{"is_sidechain": [false], "intermolecular_energy": 2.731, "internal_energy": -0.839}

$$$$
EPH_relaxed_0001_pdb2pqr_Repair_74_r2_0001_out
     RDKit          3D

 82 86  0  0  0  0  0  0  0  0999 V2000
    3.7130   17.4480    0.3170 C   0  0  0  0  0  0  0  0  0  0  0  0
    2.6910   17.4340   -0.8230 C   0  0  2  0  0  0  0  0  0  0  0  0
    1.9430   18.7770   -0.9480 C   0  0  0  0  0  0  0  0  0  0  0  0
    1.5210   19.3740    0.3970 C   0  0  0  0  0  0  0  0  0  0  0  0
    0.2330   20.1320    0.2880 C   0  0  2  0  0  0  0  0  0  0  0  0
   -0.5310   20.1920    1.5000 O   0  0  0  0  0  0  0  0  0  0  0  0
   -1.1330   19.4820    0.4050 C   0  0  0  0  0  0  0  0  0  0  0  0
   -1.2790   18.0110    0.6410 C   0  0  0  0  0  0  0  0  0  0  0  0
   -2.3130   20.1830   -0.1920 C   0  0  0  0  0  0  0  0  0  0  0  0
    1.6940   16.3000   -0.6140 C   0  0  1  0  0  0  0  0  0  0  0  0
    0.2330   16.8050   -0.4820 C   0  0  0  0  0  0  0  0  0  0  0  0
   -0.6720   15.7350   -1.1440 C   0  0  0  0  0  0  0  0  0  0  0  0
    0.2510   14.5080   -1.3350 C   0  0  1  0  0  0  0  0  0  0  0  0
    0.2780   13.8060    0.0590 C   0  0  0  0  0  0  0  0  0  0  0  0
   -0.1470   13.5140   -2.4750 C   0  0  2  0  0  0  0  0  0  0  0  0
   -1.5100   12.8240   -2.2920 C   0  0  0  0  0  0  0  0  0  0  0  0
   -1.4730   11.5250   -1.5560 C   0  0  0  0  0  0  0  0  0  0  0  0
   -0.3690   10.7960   -1.3110 C   0  0  0  0  0  0  0  0  0  0  0  0
    0.9940   11.2170   -1.8760 C   0  0  1  0  0  0  0  0  0  0  0  0
    1.6970    9.9840   -2.5020 C   0  0  0  0  0  0  0  0  0  0  0  0
    1.8050    8.8150   -1.5280 C   0  0  0  0  0  0  0  0  0  0  0  0
    0.4260    8.3880   -1.0320 C   0  0  2  0  0  0  0  0  0  0  0  0
   -0.3100    7.8410   -2.1310 O   0  0  0  0  0  0  0  0  0  0  0  0
   -0.3810    9.5510   -0.3900 C   0  0  0  0  0  0  0  0  0  0  0  0
    0.2580    9.9420    0.9650 C   0  0  0  0  0  0  0  0  0  0  0  0
   -1.8030    9.0210   -0.0630 C   0  0  0  0  0  0  0  0  0  0  0  0
    0.9830   12.4720   -2.8500 C   0  0  1  0  0  0  0  0  0  0  0  0
    0.6950   12.0100   -4.3110 C   0  0  0  0  0  0  0  0  0  0  0  0
    2.4160   13.1240   -2.8650 C   0  0  0  0  0  0  0  0  0  0  0  0
    2.7080   14.1850   -1.7880 C   0  0  0  0  0  0  0  0  0  0  0  0
    1.5900   15.2310   -1.7300 C   0  0  2  0  0  0  0  0  0  0  0  0
    1.5540   15.9690   -3.1110 C   0  0  0  0  0  0  0  0  0  0  0  0
    3.1856   17.4408    1.2823 H   0  0  0  0  0  0  0  0  0  0  0  0
    4.3561   16.5586    0.2438 H   0  0  0  0  0  0  0  0  0  0  0  0
    4.3315   18.3547    0.2438 H   0  0  0  0  0  0  0  0  0  0  0  0
    3.2434   17.2747   -1.7608 H   0  0  0  0  0  0  0  0  0  0  0  0
    2.6029   19.4961   -1.4554 H   0  0  0  0  0  0  0  0  0  0  0  0
    1.0215   18.5801   -1.5155 H   0  0  0  0  0  0  0  0  0  0  0  0
    1.3943   18.5589    1.1247 H   0  0  0  0  0  0  0  0  0  0  0  0
    2.3044   20.0746    0.7218 H   0  0  0  0  0  0  0  0  0  0  0  0
    0.6668   20.8069   -0.4646 H   0  0  0  0  0  0  0  0  0  0  0  0
   -1.2986   17.8134    1.7229 H   0  0  0  0  0  0  0  0  0  0  0  0
   -2.2166   17.6580    0.1867 H   0  0  0  0  0  0  0  0  0  0  0  0
   -0.4291   17.4806    0.1867 H   0  0  0  0  0  0  0  0  0  0  0  0
   -2.9577   20.5660    0.6128 H   0  0  0  0  0  0  0  0  0  0  0  0
   -1.9655   21.0213   -0.8138 H   0  0  0  0  0  0  0  0  0  0  0  0
   -2.8830   19.4769   -0.8138 H   0  0  0  0  0  0  0  0  0  0  0  0
    2.1133   15.8518    0.2989 H   0  0  0  0  0  0  0  0  0  0  0  0
   -0.0329   16.9220    0.5790 H   0  0  0  0  0  0  0  0  0  0  0  0
    0.1081   17.7836   -0.9686 H   0  0  0  0  0  0  0  0  0  0  0  0
   -1.5202   15.4849   -0.4897 H   0  0  0  0  0  0  0  0  0  0  0  0
   -1.1046   16.0837   -2.0934 H   0  0  0  0  0  0  0  0  0  0  0  0
    0.2487   14.5666    0.8532 H   0  0  0  0  0  0  0  0  0  0  0  0
   -0.5953   13.1439    0.1531 H   0  0  0  0  0  0  0  0  0  0  0  0
    1.1996   13.2129    0.1531 H   0  0  0  0  0  0  0  0  0  0  0  0
   -0.2644   14.1823   -3.3408 H   0  0  0  0  0  0  0  0  0  0  0  0
   -2.1668   13.5104   -1.7375 H   0  0  0  0  0  0  0  0  0  0  0  0
   -1.8715   12.5903   -3.3043 H   0  0  0  0  0  0  0  0  0  0  0  0
   -2.4296   11.1308   -1.1825 H   0  0  0  0  0  0  0  0  0  0  0  0
    1.5778   11.5858   -1.0197 H   0  0  0  0  0  0  0  0  0  0  0  0
    1.1214    9.6585   -3.3810 H   0  0  0  0  0  0  0  0  0  0  0  0
    2.7187   10.2857   -2.7761 H   0  0  0  0  0  0  0  0  0  0  0  0
    2.2833    7.9653   -2.0372 H   0  0  0  0  0  0  0  0  0  0  0  0
    2.4057    9.1333   -0.6632 H   0  0  0  0  0  0  0  0  0  0  0  0
    0.5771    7.6375   -0.2421 H   0  0  0  0  0  0  0  0  0  0  0  0
    0.2530    7.1740   -2.5590 H   0  0  0  0  0  0  0  0  0  0  0  0
   -0.3649    9.5609    1.7877 H   0  0  0  0  0  0  0  0  0  0  0  0
    1.2652    9.5054    1.0350 H   0  0  0  0  0  0  0  0  0  0  0  0
    0.3276   11.0376    1.0350 H   0  0  0  0  0  0  0  0  0  0  0  0
   -1.9342    8.9721    1.0281 H   0  0  0  0  0  0  0  0  0  0  0  0
   -2.5549    9.6993   -0.4927 H   0  0  0  0  0  0  0  0  0  0  0  0
   -1.9275    8.0161   -0.4927 H   0  0  0  0  0  0  0  0  0  0  0  0
    0.1132   11.0767   -4.2925 H   0  0  0  0  0  0  0  0  0  0  0  0
    0.1221   12.7888   -4.8357 H   0  0  0  0  0  0  0  0  0  0  0  0
    1.6465   11.8386   -4.8357 H   0  0  0  0  0  0  0  0  0  0  0  0
    3.1510   12.3148   -2.7426 H   0  0  0  0  0  0  0  0  0  0  0  0
    2.4772   13.6619   -3.8226 H   0  0  0  0  0  0  0  0  0  0  0  0
    2.7891   13.6906   -0.8087 H   0  0  0  0  0  0  0  0  0  0  0  0
    3.6500   14.6928   -2.0427 H   0  0  0  0  0  0  0  0  0  0  0  0
    1.5010   17.0551   -2.9450 H   0  0  0  0  0  0  0  0  0  0  0  0
    2.4649   15.7289   -3.6789 H   0  0  0  0  0  0  0  0  0  0  0  0
    0.6708   15.6413   -3.6789 H   0  0  0  0  0  0  0  0  0  0  0  0
  1  2  1  0
  2  3  1  0
  3  4  1  0
  4  5  1  0
  5  6  1  0
  6  7  1  0
  7  8  1  0
  7  9  1  0
  2 10  1  0
 10 11  1  0
 11 12  1  0
 12 13  1  0
 13 14  1  1
 13 15  1  0
 15 16  1  0
 16 17  1  0
 17 18  2  0
 18 19  1  0
 19 20  1  0
 20 21  1  0
 21 22  1  0
 22 23  1  0
 22 24  1  0
 24 25  1  0
 24 26  1  0
 19 27  1  0
 27 28  1  6
 27 29  1  0
 29 30  1  0
 30 31  1  0
 31 32  1  6
  7  5  1  0
 31 10  1  0
 31 13  1  0
 27 15  1  0
 24 18  1  0
  1 33  1  0
  1 34  1  0
  1 35  1  0
  2 36  1  6
  3 37  1  0
  3 38  1  0
  4 39  1  0
  4 40  1  0
  5 41  1  6
  8 42  1  0
  8 43  1  0
  8 44  1  0
  9 45  1  0
  9 46  1  0
  9 47  1  0
 10 48  1  1
 11 49  1  0
 11 50  1  0
 12 51  1  0
 12 52  1  0
 14 53  1  0
 14 54  1  0
 14 55  1  0
 15 56  1  6
 16 57  1  0
 16 58  1  0
 17 59  1  0
 19 60  1  1
 20 61  1  0
 20 62  1  0
 21 63  1  0
 21 64  1  0
 22 65  1  1
 23 66  1  0
 25 67  1  0
 25 68  1  0
 25 69  1  0
 26 70  1  0
 26 71  1  0
 26 72  1  0
 28 73  1  0
 28 74  1  0
 28 75  1  0
 29 76  1  0
 29 77  1  0
 30 78  1  0
 30 79  1  0
 32 80  1  0
 32 81  1  0
 32 82  1  0
M  END
>  <meeko>  (10) 
{"is_sidechain": [false], "intermolecular_energy": 2.731, "internal_energy": -0.839}

$$$$
EPH_relaxed_0001_pdb2pqr_Repair_74_r2_0001_out
     RDKit          3D

 82 86  0  0  0  0  0  0  0  0999 V2000
   -0.9950   16.4370   -5.9670 C   0  0  0  0  0  0  0  0  0  0  0  0
    0.1330   15.7600   -6.7500 C   0  0  2  0  0  0  0  0  0  0  0  0
   -0.2350   15.5480   -8.2330 C   0  0  0  0  0  0  0  0  0  0  0  0
    0.4380   16.5430   -9.1820 C   0  0  0  0  0  0  0  0  0  0  0  0
    1.8470   16.1400   -9.4980 C   0  0  2  0  0  0  0  0  0  0  0  0
    2.3640   16.6810  -10.7210 O   0  0  0  0  0  0  0  0  0  0  0  0
    2.2210   15.2520  -10.6700 C   0  0  0  0  0  0  0  0  0  0  0  0
    1.1820   14.7110  -11.6010 C   0  0  0  0  0  0  0  0  0  0  0  0
    3.5240   14.5170  -10.6230 C   0  0  0  0  0  0  0  0  0  0  0  0
    0.4850   14.4250   -6.1050 C   0  0  1  0  0  0  0  0  0  0  0  0
    1.7010   13.7370   -6.7800 C   0  0  0  0  0  0  0  0  0  0  0  0
    2.4800   13.0030   -5.6580 C   0  0  0  0  0  0  0  0  0  0  0  0
    1.5180   13.0120   -4.4470 C   0  0  1  0  0  0  0  0  0  0  0  0
    0.5320   11.8310   -4.7080 C   0  0  0  0  0  0  0  0  0  0  0  0
    2.1840   12.9060   -3.0360 C   0  0  2  0  0  0  0  0  0  0  0  0
    2.9620   11.6040   -2.7770 C   0  0  0  0  0  0  0  0  0  0  0  0
    2.1650   10.4940   -2.1740 C   0  0  0  0  0  0  0  0  0  0  0  0
    0.9580   10.6250   -1.5920 C   0  0  0  0  0  0  0  0  0  0  0  0
    0.3170   12.0060   -1.4090 C   0  0  1  0  0  0  0  0  0  0  0  0
   -0.2330   12.1350    0.0350 C   0  0  0  0  0  0  0  0  0  0  0  0
   -1.1820   10.9980    0.4040 C   0  0  0  0  0  0  0  0  0  0  0  0
   -0.4900    9.6440    0.2650 C   0  0  2  0  0  0  0  0  0  0  0  0
    0.5430    9.5520    1.2510 O   0  0  0  0  0  0  0  0  0  0  0  0
    0.1130    9.4060   -1.1470 C   0  0  0  0  0  0  0  0  0  0  0  0
   -1.0290    9.2060   -2.1740 C   0  0  0  0  0  0  0  0  0  0  0  0
    0.9020    8.0690   -1.1100 C   0  0  0  0  0  0  0  0  0  0  0  0
    1.2130   13.2480   -1.8340 C   0  0  1  0  0  0  0  0  0  0  0  0
    2.1180   13.6840   -0.6410 C   0  0  0  0  0  0  0  0  0  0  0  0
    0.2770   14.4730   -2.1510 C   0  0  0  0  0  0  0  0  0  0  0  0
   -0.2530   14.5880   -3.5940 C   0  0  0  0  0  0  0  0  0  0  0  0
    0.8850   14.4420   -4.6080 C   0  0  2  0  0  0  0  0  0  0  0  0
    1.8820   15.6290   -4.3840 C   0  0  0  0  0  0  0  0  0  0  0  0
   -0.8104   16.3262   -4.8883 H   0  0  0  0  0  0  0  0  0  0  0  0
   -1.0304   17.5057   -6.2251 H   0  0  0  0  0  0  0  0  0  0  0  0
   -1.9548   15.9655   -6.2251 H   0  0  0  0  0  0  0  0  0  0  0  0
    1.0053   16.4295   -6.7188 H   0  0  0  0  0  0  0  0  0  0  0  0
    0.0676   14.5313   -8.5241 H   0  0  0  0  0  0  0  0  0  0  0  0
   -1.3204   15.7039   -8.3205 H   0  0  0  0  0  0  0  0  0  0  0  0
   -0.1383   16.5890  -10.1179 H   0  0  0  0  0  0  0  0  0  0  0  0
    0.4645   17.5252   -8.6874 H   0  0  0  0  0  0  0  0  0  0  0  0
    2.0986   16.0940   -8.4282 H   0  0  0  0  0  0  0  0  0  0  0  0
    0.3551   14.2804  -11.0172 H   0  0  0  0  0  0  0  0  0  0  0  0
    0.7988   15.5241  -12.2351 H   0  0  0  0  0  0  0  0  0  0  0  0
    1.6284   13.9308  -12.2351 H   0  0  0  0  0  0  0  0  0  0  0  0
    3.8148   14.3529   -9.5749 H   0  0  0  0  0  0  0  0  0  0  0  0
    3.4161   13.5467  -11.1298 H   0  0  0  0  0  0  0  0  0  0  0  0
    4.2987   15.1112  -11.1298 H   0  0  0  0  0  0  0  0  0  0  0  0
   -0.4735   13.9006   -6.2324 H   0  0  0  0  0  0  0  0  0  0  0  0
    1.3566   13.0160   -7.5360 H   0  0  0  0  0  0  0  0  0  0  0  0
    2.3405   14.4745   -7.2871 H   0  0  0  0  0  0  0  0  0  0  0  0
    2.7157   11.9717   -5.9593 H   0  0  0  0  0  0  0  0  0  0  0  0
    3.4413   13.4872   -5.4314 H   0  0  0  0  0  0  0  0  0  0  0  0
    0.1892   11.4203   -3.7468 H   0  0  0  0  0  0  0  0  0  0  0  0
   -0.3335   12.1957   -5.2806 H   0  0  0  0  0  0  0  0  0  0  0  0
    1.0453   11.0445   -5.2806 H   0  0  0  0  0  0  0  0  0  0  0  0
    2.9409   13.7033   -3.0723 H   0  0  0  0  0  0  0  0  0  0  0  0
    3.3635   11.2509   -3.7383 H   0  0  0  0  0  0  0  0  0  0  0  0
    3.7395   11.8554   -2.0406 H   0  0  0  0  0  0  0  0  0  0  0  0
    2.6008    9.4846   -2.2083 H   0  0  0  0  0  0  0  0  0  0  0  0
   -0.5128   12.0535   -2.1296 H   0  0  0  0  0  0  0  0  0  0  0  0
    0.6141   12.1290    0.7367 H   0  0  0  0  0  0  0  0  0  0  0  0
   -0.8005   13.0755    0.0932 H   0  0  0  0  0  0  0  0  0  0  0  0
   -1.5126   11.1283    1.4450 H   0  0  0  0  0  0  0  0  0  0  0  0
   -2.0439   11.0240   -0.2789 H   0  0  0  0  0  0  0  0  0  0  0  0
   -1.2533    8.8662    0.4146 H   0  0  0  0  0  0  0  0  0  0  0  0
    1.1660    8.8640    0.9610 H   0  0  0  0  0  0  0  0  0  0  0  0
   -1.9767    9.0400   -1.6408 H   0  0  0  0  0  0  0  0  0  0  0  0
   -1.1156   10.1026   -2.8053 H   0  0  0  0  0  0  0  0  0  0  0  0
   -0.8057    8.3333   -2.8053 H   0  0  0  0  0  0  0  0  0  0  0  0
    1.0757    7.7746   -0.0645 H   0  0  0  0  0  0  0  0  0  0  0  0
    0.3211    7.2862   -1.6197 H   0  0  0  0  0  0  0  0  0  0  0  0
    1.8681    8.1991   -1.6197 H   0  0  0  0  0  0  0  0  0  0  0  0
    1.6161   13.4422    0.3075 H   0  0  0  0  0  0  0  0  0  0  0  0
    3.0779   13.1495   -0.6945 H   0  0  0  0  0  0  0  0  0  0  0  0
    2.2983   14.7678   -0.6945 H   0  0  0  0  0  0  0  0  0  0  0  0
   -0.5931   14.4090   -1.4811 H   0  0  0  0  0  0  0  0  0  0  0  0
    0.9075   15.3624   -2.0043 H   0  0  0  0  0  0  0  0  0  0  0  0
   -0.9952   13.7953   -3.7692 H   0  0  0  0  0  0  0  0  0  0  0  0
   -0.7120   15.5795   -3.7216 H   0  0  0  0  0  0  0  0  0  0  0  0
    2.0200   15.7933   -3.3051 H   0  0  0  0  0  0  0  0  0  0  0  0
    2.8508   15.3860   -4.8448 H   0  0  0  0  0  0  0  0  0  0  0  0
    1.4754   16.5413   -4.8448 H   0  0  0  0  0  0  0  0  0  0  0  0
  1  2  1  0
  2  3  1  0
  3  4  1  0
  4  5  1  0
  5  6  1  0
  6  7  1  0
  7  8  1  0
  7  9  1  0
  2 10  1  0
 10 11  1  0
 11 12  1  0
 12 13  1  0
 13 14  1  6
 13 15  1  0
 15 16  1  0
 16 17  1  0
 17 18  2  0
 18 19  1  0
 19 20  1  0
 20 21  1  0
 21 22  1  0
 22 23  1  0
 22 24  1  0
 24 25  1  0
 24 26  1  0
 19 27  1  0
 27 28  1  1
 27 29  1  0
 29 30  1  0
 30 31  1  0
 31 32  1  6
  7  5  1  0
 31 10  1  0
 31 13  1  0
 27 15  1  0
 24 18  1  0
  1 33  1  0
  1 34  1  0
  1 35  1  0
  2 36  1  6
  3 37  1  0
  3 38  1  0
  4 39  1  0
  4 40  1  0
  5 41  1  1
  8 42  1  0
  8 43  1  0
  8 44  1  0
  9 45  1  0
  9 46  1  0
  9 47  1  0
 10 48  1  1
 11 49  1  0
 11 50  1  0
 12 51  1  0
 12 52  1  0
 14 53  1  0
 14 54  1  0
 14 55  1  0
 15 56  1  6
 16 57  1  0
 16 58  1  0
 17 59  1  0
 19 60  1  6
 20 61  1  0
 20 62  1  0
 21 63  1  0
 21 64  1  0
 22 65  1  1
 23 66  1  0
 25 67  1  0
 25 68  1  0
 25 69  1  0
 26 70  1  0
 26 71  1  0
 26 72  1  0
 28 73  1  0
 28 74  1  0
 28 75  1  0
 29 76  1  0
 29 77  1  0
 30 78  1  0
 30 79  1  0
 32 80  1  0
 32 81  1  0
 32 82  1  0
M  END
>  <meeko>  (11) 
{"is_sidechain": [false], "intermolecular_energy": 2.731, "internal_energy": -0.839}

$$$$
EPH_relaxed_0001_pdb2pqr_Repair_74_r2_0001_out
     RDKit          3D

 82 86  0  0  0  0  0  0  0  0999 V2000
    0.1750    9.3680   -2.4550 C   0  0  0  0  0  0  0  0  0  0  0  0
    1.2200   10.3980   -2.8930 C   0  0  2  0  0  0  0  0  0  0  0  0
    2.6330    9.7870   -2.9900 C   0  0  0  0  0  0  0  0  0  0  0  0
    3.5710   10.5510   -3.9280 C   0  0  0  0  0  0  0  0  0  0  0  0
    4.9490   10.6770   -3.3520 C   0  0  2  0  0  0  0  0  0  0  0  0
    5.6070   11.9180   -3.6370 O   0  0  0  0  0  0  0  0  0  0  0  0
    6.2070   10.7390   -4.1980 C   0  0  0  0  0  0  0  0  0  0  0  0
    6.1460   10.6780   -5.6920 C   0  0  0  0  0  0  0  0  0  0  0  0
    7.5130   10.3700   -3.5660 C   0  0  0  0  0  0  0  0  0  0  0  0
    1.2270   11.5750   -1.9250 C   0  0  1  0  0  0  0  0  0  0  0  0
    2.3020   11.4300   -0.8150 C   0  0  0  0  0  0  0  0  0  0  0  0
    2.8270   12.8570   -0.5110 C   0  0  0  0  0  0  0  0  0  0  0  0
    1.8170   13.8000   -1.2050 C   0  0  1  0  0  0  0  0  0  0  0  0
    0.6130   13.8960   -0.2160 C   0  0  0  0  0  0  0  0  0  0  0  0
    2.3520   15.2150   -1.6020 C   0  0  2  0  0  0  0  0  0  0  0  0
    2.8050   16.0950   -0.4240 C   0  0  0  0  0  0  0  0  0  0  0  0
    1.7460   16.9690    0.1640 C   0  0  0  0  0  0  0  0  0  0  0  0
    0.5640   17.2590   -0.4100 C   0  0  0  0  0  0  0  0  0  0  0  0
    0.2330   16.7650   -1.8250 C   0  0  1  0  0  0  0  0  0  0  0  0
   -0.3660   17.9310   -2.6540 C   0  0  0  0  0  0  0  0  0  0  0  0
   -1.5630   18.5820   -1.9680 C   0  0  0  0  0  0  0  0  0  0  0  0
   -1.1800   19.1120   -0.5890 C   0  0  2  0  0  0  0  0  0  0  0  0
   -0.2580   20.1940   -0.7510 O   0  0  0  0  0  0  0  0  0  0  0  0
   -0.5560   18.0270    0.3330 C   0  0  0  0  0  0  0  0  0  0  0  0
   -1.6460   17.0110    0.7540 C   0  0  0  0  0  0  0  0  0  0  0  0
   -0.0850   18.7240    1.6390 C   0  0  0  0  0  0  0  0  0  0  0  0
    1.4060   16.0120   -2.5890 C   0  0  1  0  0  0  0  0  0  0  0  0
    2.3070   17.0470   -3.3300 C   0  0  0  0  0  0  0  0  0  0  0  0
    0.7850   15.0870   -3.7010 C   0  0  0  0  0  0  0  0  0  0  0  0
    0.3870   13.6610   -3.2750 C   0  0  0  0  0  0  0  0  0  0  0  0
    1.5260   12.9780   -2.5130 C   0  0  2  0  0  0  0  0  0  0  0  0
    2.7440   12.8470   -3.4900 C   0  0  0  0  0  0  0  0  0  0  0  0
    0.1360    9.3296   -1.3564 H   0  0  0  0  0  0  0  0  0  0  0  0
   -0.8113    9.6569   -2.8470 H   0  0  0  0  0  0  0  0  0  0  0  0
    0.4496    8.3776   -2.8470 H   0  0  0  0  0  0  0  0  0  0  0  0
    0.9409   10.7453   -3.8987 H   0  0  0  0  0  0  0  0  0  0  0  0
    3.0780    9.7799   -1.9841 H   0  0  0  0  0  0  0  0  0  0  0  0
    2.5177    8.7749   -3.4052 H   0  0  0  0  0  0  0  0  0  0  0  0
    3.6327   10.0136   -4.8858 H   0  0  0  0  0  0  0  0  0  0  0  0
    3.1646   11.5633   -4.0695 H   0  0  0  0  0  0  0  0  0  0  0  0
    4.6700   10.0546   -2.4890 H   0  0  0  0  0  0  0  0  0  0  0  0
    5.3989    9.9309   -5.9983 H   0  0  0  0  0  0  0  0  0  0  0  0
    5.8620   11.6642   -6.0880 H   0  0  0  0  0  0  0  0  0  0  0  0
    7.1322   10.3940   -6.0880 H   0  0  0  0  0  0  0  0  0  0  0  0
    7.4115   10.3987   -2.4711 H   0  0  0  0  0  0  0  0  0  0  0  0
    7.7993    9.3558   -3.8813 H   0  0  0  0  0  0  0  0  0  0  0  0
    8.2877   11.0844   -3.8813 H   0  0  0  0  0  0  0  0  0  0  0  0
    0.1864   11.5287   -1.5715 H   0  0  0  0  0  0  0  0  0  0  0  0
    1.8559   10.9900    0.0891 H   0  0  0  0  0  0  0  0  0  0  0  0
    3.1193   10.7697   -1.1407 H   0  0  0  0  0  0  0  0  0  0  0  0
    2.8477   13.0404    0.5734 H   0  0  0  0  0  0  0  0  0  0  0  0
    3.8552   13.0089   -0.8713 H   0  0  0  0  0  0  0  0  0  0  0  0
    0.9852   13.8663    0.8187 H   0  0  0  0  0  0  0  0  0  0  0  0
    0.0741   14.8400   -0.3849 H   0  0  0  0  0  0  0  0  0  0  0  0
   -0.0687   13.0494   -0.3849 H   0  0  0  0  0  0  0  0  0  0  0  0
    3.2667   14.9729   -2.1629 H   0  0  0  0  0  0  0  0  0  0  0  0
    3.1791   15.4328    0.3707 H   0  0  0  0  0  0  0  0  0  0  0  0
    3.5701   16.7741   -0.8282 H   0  0  0  0  0  0  0  0  0  0  0  0
    1.9496   17.4131    1.1496 H   0  0  0  0  0  0  0  0  0  0  0  0
   -0.5181   15.9709   -1.7016 H   0  0  0  0  0  0  0  0  0  0  0  0
    0.4125   18.6936   -2.8035 H   0  0  0  0  0  0  0  0  0  0  0  0
   -0.7149   17.5155   -3.6109 H   0  0  0  0  0  0  0  0  0  0  0  0
   -1.9226   19.4169   -2.5874 H   0  0  0  0  0  0  0  0  0  0  0  0
   -2.3521   17.8254   -1.8464 H   0  0  0  0  0  0  0  0  0  0  0  0
   -2.1043   19.4480   -0.0963 H   0  0  0  0  0  0  0  0  0  0  0  0
   -0.0300   20.5220    0.1360 H   0  0  0  0  0  0  0  0  0  0  0  0
   -1.6978   16.9627    1.8517 H   0  0  0  0  0  0  0  0  0  0  0  0
   -2.6196   17.3313    0.3547 H   0  0  0  0  0  0  0  0  0  0  0  0
   -1.3949   16.0173    0.3547 H   0  0  0  0  0  0  0  0  0  0  0  0
   -0.4620   18.1661    2.5088 H   0  0  0  0  0  0  0  0  0  0  0  0
    1.0144   18.7468    1.6665 H   0  0  0  0  0  0  0  0  0  0  0  0
   -0.4739   19.7526    1.6665 H   0  0  0  0  0  0  0  0  0  0  0  0
    2.8424   17.6620   -2.5917 H   0  0  0  0  0  0  0  0  0  0  0  0
    3.0345   16.5148   -3.9605 H   0  0  0  0  0  0  0  0  0  0  0  0
    1.6796   17.6942   -3.9605 H   0  0  0  0  0  0  0  0  0  0  0  0
   -0.1188   15.5851   -4.0818 H   0  0  0  0  0  0  0  0  0  0  0  0
    1.5849   14.9530   -4.4441 H   0  0  0  0  0  0  0  0  0  0  0  0
   -0.4994   13.7137   -2.6257 H   0  0  0  0  0  0  0  0  0  0  0  0
    0.1682   13.0734   -4.1788 H   0  0  0  0  0  0  0  0  0  0  0  0
    3.6720   12.7472   -2.9078 H   0  0  0  0  0  0  0  0  0  0  0  0
    2.6115   11.9579   -4.1240 H   0  0  0  0  0  0  0  0  0  0  0  0
    2.8036   13.7439   -4.1240 H   0  0  0  0  0  0  0  0  0  0  0  0
  1  2  1  0
  2  3  1  0
  3  4  1  0
  4  5  1  0
  5  6  1  0
  6  7  1  0
  7  8  1  0
  7  9  1  0
  2 10  1  0
 10 11  1  0
 11 12  1  0
 12 13  1  0
 13 14  1  1
 13 15  1  0
 15 16  1  0
 16 17  1  0
 17 18  2  0
 18 19  1  0
 19 20  1  0
 20 21  1  0
 21 22  1  0
 22 23  1  0
 22 24  1  0
 24 25  1  0
 24 26  1  0
 19 27  1  0
 27 28  1  6
 27 29  1  0
 29 30  1  0
 30 31  1  0
 31 32  1  6
  7  5  1  0
 31 10  1  0
 31 13  1  0
 27 15  1  0
 24 18  1  0
  1 33  1  0
  1 34  1  0
  1 35  1  0
  2 36  1  6
  3 37  1  0
  3 38  1  0
  4 39  1  0
  4 40  1  0
  5 41  1  1
  8 42  1  0
  8 43  1  0
  8 44  1  0
  9 45  1  0
  9 46  1  0
  9 47  1  0
 10 48  1  1
 11 49  1  0
 11 50  1  0
 12 51  1  0
 12 52  1  0
 14 53  1  0
 14 54  1  0
 14 55  1  0
 15 56  1  6
 16 57  1  0
 16 58  1  0
 17 59  1  0
 19 60  1  1
 20 61  1  0
 20 62  1  0
 21 63  1  0
 21 64  1  0
 22 65  1  1
 23 66  1  0
 25 67  1  0
 25 68  1  0
 25 69  1  0
 26 70  1  0
 26 71  1  0
 26 72  1  0
 28 73  1  0
 28 74  1  0
 28 75  1  0
 29 76  1  0
 29 77  1  0
 30 78  1  0
 30 79  1  0
 32 80  1  0
 32 81  1  0
 32 82  1  0
M  END
>  <meeko>  (12) 
{"is_sidechain": [false], "intermolecular_energy": 2.731, "internal_energy": -0.839}

$$$$
EPH_relaxed_0001_pdb2pqr_Repair_74_r2_0001_out
     RDKit          3D

 82 86  0  0  0  0  0  0  0  0999 V2000
    2.5050   17.8260   -3.5230 C   0  0  0  0  0  0  0  0  0  0  0  0
    2.2910   17.7990   -2.0070 C   0  0  2  0  0  0  0  0  0  0  0  0
    3.2390   18.7650   -1.2690 C   0  0  0  0  0  0  0  0  0  0  0  0
    2.5340   19.6560   -0.2440 C   0  0  0  0  0  0  0  0  0  0  0  0
    2.7350   19.1580    1.1550 C   0  0  2  0  0  0  0  0  0  0  0  0
    2.8000   20.1850    2.1530 O   0  0  0  0  0  0  0  0  0  0  0  0
    3.9960   19.4120    1.9610 C   0  0  0  0  0  0  0  0  0  0  0  0
    5.1400   20.1910    1.3930 C   0  0  0  0  0  0  0  0  0  0  0  0
    4.3120   18.4960    3.1020 C   0  0  0  0  0  0  0  0  0  0  0  0
    2.4790   16.3810   -1.4820 C   0  0  1  0  0  0  0  0  0  0  0  0
    3.1830   16.3440   -0.0990 C   0  0  0  0  0  0  0  0  0  0  0  0
    2.5660   15.1590    0.6860 C   0  0  0  0  0  0  0  0  0  0  0  0
    1.7780   14.3560   -0.3750 C   0  0  1  0  0  0  0  0  0  0  0  0
    2.8520   13.4830   -1.0970 C   0  0  0  0  0  0  0  0  0  0  0  0
    0.5900   13.4880    0.1560 C   0  0  2  0  0  0  0  0  0  0  0  0
    0.9870   12.3650    1.1300 C   0  0  0  0  0  0  0  0  0  0  0  0
    1.2960   11.0500    0.4950 C   0  0  0  0  0  0  0  0  0  0  0  0
    0.9850   10.6980   -0.7670 C   0  0  0  0  0  0  0  0  0  0  0  0
    0.1660   11.6330   -1.6660 C   0  0  1  0  0  0  0  0  0  0  0  0
   -0.9540   10.8230   -2.3710 C   0  0  0  0  0  0  0  0  0  0  0  0
   -0.4140    9.6120   -3.1260 C   0  0  0  0  0  0  0  0  0  0  0  0
    0.3450    8.6780   -2.1870 C   0  0  2  0  0  0  0  0  0  0  0  0
   -0.5820    8.1070   -1.2570 O   0  0  0  0  0  0  0  0  0  0  0  0
    1.4920    9.3860   -1.4130 C   0  0  0  0  0  0  0  0  0  0  0  0
    2.6400    9.7380   -2.3920 C   0  0  0  0  0  0  0  0  0  0  0  0
    2.0830    8.3690   -0.4000 C   0  0  0  0  0  0  0  0  0  0  0  0
   -0.3800   12.9560   -0.9760 C   0  0  1  0  0  0  0  0  0  0  0  0
   -1.7510   12.6720   -0.2890 C   0  0  0  0  0  0  0  0  0  0  0  0
   -0.6560   14.0390   -2.0850 C   0  0  0  0  0  0  0  0  0  0  0  0
    0.5260   14.9440   -2.4810 C   0  0  0  0  0  0  0  0  0  0  0  0
    1.2030   15.5360   -1.2410 C   0  0  2  0  0  0  0  0  0  0  0  0
    0.1530   16.4370   -0.5070 C   0  0  0  0  0  0  0  0  0  0  0  0
    3.5749   17.9610   -3.7399 H   0  0  0  0  0  0  0  0  0  0  0  0
    2.1593   16.8771   -3.9591 H   0  0  0  0  0  0  0  0  0  0  0  0
    1.9345   18.6593   -3.9591 H   0  0  0  0  0  0  0  0  0  0  0  0
    1.2618   18.1346   -1.8116 H   0  0  0  0  0  0  0  0  0  0  0  0
    4.0021   18.1703   -0.7455 H   0  0  0  0  0  0  0  0  0  0  0  0
    3.6740   19.4312   -2.0286 H   0  0  0  0  0  0  0  0  0  0  0  0
    2.9382   20.6762   -0.3207 H   0  0  0  0  0  0  0  0  0  0  0  0
    1.4558   19.6416   -0.4614 H   0  0  0  0  0  0  0  0  0  0  0  0
    2.1739   18.2383    0.9330 H   0  0  0  0  0  0  0  0  0  0  0  0
    5.7458   20.6035    2.2132 H   0  0  0  0  0  0  0  0  0  0  0  0
    5.7632   19.5287    0.7741 H   0  0  0  0  0  0  0  0  0  0  0  0
    4.7521   21.0135    0.7741 H   0  0  0  0  0  0  0  0  0  0  0  0
    4.1316   19.0189    4.0528 H   0  0  0  0  0  0  0  0  0  0  0  0
    3.6693   17.6051    3.0458 H   0  0  0  0  0  0  0  0  0  0  0  0
    5.3673   18.1909    3.0458 H   0  0  0  0  0  0  0  0  0  0  0  0
    3.0620   15.9540   -2.3113 H   0  0  0  0  0  0  0  0  0  0  0  0
    4.2645   16.1902   -0.2286 H   0  0  0  0  0  0  0  0  0  0  0  0
    3.0416   17.2917    0.4413 H   0  0  0  0  0  0  0  0  0  0  0  0
    3.3550   14.5383    1.1357 H   0  0  0  0  0  0  0  0  0  0  0  0
    1.9256   15.4959    1.5145 H   0  0  0  0  0  0  0  0  0  0  0  0
    3.4765   12.9754   -0.3471 H   0  0  0  0  0  0  0  0  0  0  0  0
    2.3517   12.7323   -1.7263 H   0  0  0  0  0  0  0  0  0  0  0  0
    3.4847   14.1262   -1.7263 H   0  0  0  0  0  0  0  0  0  0  0  0
    0.0166   14.2121    0.7534 H   0  0  0  0  0  0  0  0  0  0  0  0
    1.8796   12.6939    1.6823 H   0  0  0  0  0  0  0  0  0  0  0  0
    0.1099   12.1945    1.7716 H   0  0  0  0  0  0  0  0  0  0  0  0
    1.8224   10.3053    1.1101 H   0  0  0  0  0  0  0  0  0  0  0  0
    0.8688   12.0282   -2.4143 H   0  0  0  0  0  0  0  0  0  0  0  0
   -1.6688   10.4746   -1.6110 H   0  0  0  0  0  0  0  0  0  0  0  0
   -1.4345   11.4868   -3.1049 H   0  0  0  0  0  0  0  0  0  0  0  0
   -1.2549    9.0642   -3.5765 H   0  0  0  0  0  0  0  0  0  0  0  0
    0.2774    9.9640   -3.9058 H   0  0  0  0  0  0  0  0  0  0  0  0
    0.8177    7.9009   -2.8057 H   0  0  0  0  0  0  0  0  0  0  0  0
   -0.0930    7.9040   -0.4420 H   0  0  0  0  0  0  0  0  0  0  0  0
    3.5383   10.0134   -1.8199 H   0  0  0  0  0  0  0  0  0  0  0  0
    2.8617    8.8666   -3.0256 H   0  0  0  0  0  0  0  0  0  0  0  0
    2.3351   10.5839   -3.0256 H   0  0  0  0  0  0  0  0  0  0  0  0
    1.8826    8.7139    0.6251 H   0  0  0  0  0  0  0  0  0  0  0  0
    1.6161    7.3849   -0.5536 H   0  0  0  0  0  0  0  0  0  0  0  0
    3.1692    8.2875   -0.5536 H   0  0  0  0  0  0  0  0  0  0  0  0
   -1.6260   12.6979    0.8036 H   0  0  0  0  0  0  0  0  0  0  0  0
   -2.4792   13.4384   -0.5930 H   0  0  0  0  0  0  0  0  0  0  0  0
   -2.1148   11.6794   -0.5930 H   0  0  0  0  0  0  0  0  0  0  0  0
   -0.9887   13.5107   -2.9907 H   0  0  0  0  0  0  0  0  0  0  0  0
   -1.4031   14.7167   -1.6461 H   0  0  0  0  0  0  0  0  0  0  0  0
    1.2614   14.3499   -3.0433 H   0  0  0  0  0  0  0  0  0  0  0  0
    0.1438   15.7694   -3.0995 H   0  0  0  0  0  0  0  0  0  0  0  0
    0.2760   16.3314    0.5810 H   0  0  0  0  0  0  0  0  0  0  0  0
    0.3076   17.4878   -0.7932 H   0  0  0  0  0  0  0  0  0  0  0  0
   -0.8621   16.1246   -0.7932 H   0  0  0  0  0  0  0  0  0  0  0  0
  1  2  1  0
  2  3  1  0
  3  4  1  0
  4  5  1  0
  5  6  1  0
  6  7  1  0
  7  8  1  0
  7  9  1  0
  2 10  1  0
 10 11  1  0
 11 12  1  0
 12 13  1  0
 13 14  1  6
 13 15  1  0
 15 16  1  0
 16 17  1  0
 17 18  2  0
 18 19  1  0
 19 20  1  0
 20 21  1  0
 21 22  1  0
 22 23  1  0
 22 24  1  0
 24 25  1  0
 24 26  1  0
 19 27  1  0
 27 28  1  1
 27 29  1  0
 29 30  1  0
 30 31  1  0
 31 32  1  1
  7  5  1  0
 31 10  1  0
 31 13  1  0
 27 15  1  0
 24 18  1  0
  1 33  1  0
  1 34  1  0
  1 35  1  0
  2 36  1  6
  3 37  1  0
  3 38  1  0
  4 39  1  0
  4 40  1  0
  5 41  1  1
  8 42  1  0
  8 43  1  0
  8 44  1  0
  9 45  1  0
  9 46  1  0
  9 47  1  0
 10 48  1  6
 11 49  1  0
 11 50  1  0
 12 51  1  0
 12 52  1  0
 14 53  1  0
 14 54  1  0
 14 55  1  0
 15 56  1  1
 16 57  1  0
 16 58  1  0
 17 59  1  0
 19 60  1  6
 20 61  1  0
 20 62  1  0
 21 63  1  0
 21 64  1  0
 22 65  1  6
 23 66  1  0
 25 67  1  0
 25 68  1  0
 25 69  1  0
 26 70  1  0
 26 71  1  0
 26 72  1  0
 28 73  1  0
 28 74  1  0
 28 75  1  0
 29 76  1  0
 29 77  1  0
 30 78  1  0
 30 79  1  0
 32 80  1  0
 32 81  1  0
 32 82  1  0
M  END
>  <meeko>  (13) 
{"is_sidechain": [false], "intermolecular_energy": 2.731, "internal_energy": -0.839}

$$$$
EPH_relaxed_0001_pdb2pqr_Repair_74_r2_0001_out
     RDKit          3D

 82 86  0  0  0  0  0  0  0  0999 V2000
  -15.2870    8.4240    0.2670 C   0  0  0  0  0  0  0  0  0  0  0  0
  -14.4580    8.9070   -0.9260 C   0  0  2  0  0  0  0  0  0  0  0  0
  -14.7420    8.0880   -2.2010 C   0  0  0  0  0  0  0  0  0  0  0  0
  -14.6880    8.9140   -3.4890 C   0  0  0  0  0  0  0  0  0  0  0  0
  -15.2870   10.2750   -3.3000 C   0  0  2  0  0  0  0  0  0  0  0  0
  -14.9110   11.2370   -4.2930 O   0  0  0  0  0  0  0  0  0  0  0  0
  -14.4730   11.5070   -2.9520 C   0  0  0  0  0  0  0  0  0  0  0  0
  -12.9900   11.4360   -2.7700 C   0  0  0  0  0  0  0  0  0  0  0  0
  -15.1700   12.6670   -2.3120 C   0  0  0  0  0  0  0  0  0  0  0  0
  -12.9740    8.8450   -0.5870 C   0  0  1  0  0  0  0  0  0  0  0  0
  -12.7010    9.0090    0.9320 C   0  0  0  0  0  0  0  0  0  0  0  0
  -11.4830    8.1100    1.2680 C   0  0  0  0  0  0  0  0  0  0  0  0
  -10.8940    7.7230   -0.1090 C   0  0  1  0  0  0  0  0  0  0  0  0
  -10.0300    8.9500   -0.5350 C   0  0  0  0  0  0  0  0  0  0  0  0
  -10.0720    6.3930   -0.1590 C   0  0  2  0  0  0  0  0  0  0  0  0
   -8.8040    6.3770    0.7120 C   0  0  0  0  0  0  0  0  0  0  0  0
   -7.5580    6.8430    0.0340 C   0  0  0  0  0  0  0  0  0  0  0  0
   -7.3980    6.9880   -1.2940 C   0  0  0  0  0  0  0  0  0  0  0  0
   -8.5080    6.5770   -2.2710 C   0  0  1  0  0  0  0  0  0  0  0  0
   -7.8950    5.7520   -3.4330 C   0  0  0  0  0  0  0  0  0  0  0  0
   -6.7480    6.4810   -4.1260 C   0  0  0  0  0  0  0  0  0  0  0  0
   -5.6390    6.8220   -3.1340 C   0  0  2  0  0  0  0  0  0  0  0  0
   -5.0370    5.6050   -2.6800 O   0  0  0  0  0  0  0  0  0  0  0  0
   -6.1400    7.6440   -1.9140 C   0  0  0  0  0  0  0  0  0  0  0  0
   -6.5120    9.0770   -2.3700 C   0  0  0  0  0  0  0  0  0  0  0  0
   -4.9540    7.7980   -0.9230 C   0  0  0  0  0  0  0  0  0  0  0  0
   -9.7750    5.8700   -1.6220 C   0  0  1  0  0  0  0  0  0  0  0  0
   -9.5250    4.3350   -1.5040 C   0  0  0  0  0  0  0  0  0  0  0  0
  -11.0100    6.0460   -2.5830 C   0  0  0  0  0  0  0  0  0  0  0  0
  -11.8520    7.3240   -2.4040 C   0  0  0  0  0  0  0  0  0  0  0  0
  -12.2190    7.5370   -0.9330 C   0  0  2  0  0  0  0  0  0  0  0  0
  -13.1080    6.3280   -0.4810 C   0  0  0  0  0  0  0  0  0  0  0  0
  -14.7873    8.7152    1.2027 H   0  0  0  0  0  0  0  0  0  0  0  0
  -16.2868    8.8809    0.2278 H   0  0  0  0  0  0  0  0  0  0  0  0
  -15.3826    7.3289    0.2278 H   0  0  0  0  0  0  0  0  0  0  0  0
  -14.7493    9.9477   -1.1310 H   0  0  0  0  0  0  0  0  0  0  0  0
  -13.9933    7.2852   -2.2718 H   0  0  0  0  0  0  0  0  0  0  0  0
  -15.7673    7.6997   -2.1114 H   0  0  0  0  0  0  0  0  0  0  0  0
  -13.6379    9.0262   -3.7968 H   0  0  0  0  0  0  0  0  0  0  0  0
  -15.2702    8.3869   -4.2592 H   0  0  0  0  0  0  0  0  0  0  0  0
  -16.1934    9.8397   -2.8540 H   0  0  0  0  0  0  0  0  0  0  0  0
  -12.7525   11.4246   -1.6960 H   0  0  0  0  0  0  0  0  0  0  0  0
  -12.6064   10.5185   -3.2401 H   0  0  0  0  0  0  0  0  0  0  0  0
  -12.5205   12.3127   -3.2401 H   0  0  0  0  0  0  0  0  0  0  0  0
  -15.1124   12.5711   -1.2177 H   0  0  0  0  0  0  0  0  0  0  0  0
  -14.6850   13.6037   -2.6240 H   0  0  0  0  0  0  0  0  0  0  0  0
  -16.2248   12.6786   -2.6240 H   0  0  0  0  0  0  0  0  0  0  0  0
  -12.6069    9.6691   -1.2163 H   0  0  0  0  0  0  0  0  0  0  0  0
  -12.4718   10.0595    1.1643 H   0  0  0  0  0  0  0  0  0  0  0  0
  -13.5811    8.7189    1.5247 H   0  0  0  0  0  0  0  0  0  0  0  0
  -10.7438    8.6643    1.8649 H   0  0  0  0  0  0  0  0  0  0  0  0
  -11.7654    7.2296    1.8640 H   0  0  0  0  0  0  0  0  0  0  0  0
   -9.6639    9.4700    0.3625 H   0  0  0  0  0  0  0  0  0  0  0  0
   -9.1741    8.6055   -1.1340 H   0  0  0  0  0  0  0  0  0  0  0  0
  -10.6428    9.6397   -1.1340 H   0  0  0  0  0  0  0  0  0  0  0  0
  -10.7613    5.6716    0.3040 H   0  0  0  0  0  0  0  0  0  0  0  0
   -8.9810    7.0268    1.5817 H   0  0  0  0  0  0  0  0  0  0  0  0
   -8.6303    5.3236    0.9768 H   0  0  0  0  0  0  0  0  0  0  0  0
   -6.6981    7.0886    0.6745 H   0  0  0  0  0  0  0  0  0  0  0  0
   -8.9324    7.5135   -2.6619 H   0  0  0  0  0  0  0  0  0  0  0  0
   -7.5160    4.8016   -3.0291 H   0  0  0  0  0  0  0  0  0  0  0  0
   -8.6860    5.5877   -4.1796 H   0  0  0  0  0  0  0  0  0  0  0  0
   -6.3375    5.8362   -4.9171 H   0  0  0  0  0  0  0  0  0  0  0  0
   -7.1353    7.4171   -4.5547 H   0  0  0  0  0  0  0  0  0  0  0  0
   -4.9087    7.4548   -3.6596 H   0  0  0  0  0  0  0  0  0  0  0  0
   -4.0780    5.6820   -2.8180 H   0  0  0  0  0  0  0  0  0  0  0  0
   -6.6768    9.7117   -1.4868 H   0  0  0  0  0  0  0  0  0  0  0  0
   -5.6924    9.4941   -2.9735 H   0  0  0  0  0  0  0  0  0  0  0  0
   -7.4310    9.0428   -2.9735 H   0  0  0  0  0  0  0  0  0  0  0  0
   -5.3302    7.7491    0.1095 H   0  0  0  0  0  0  0  0  0  0  0  0
   -4.2303    6.9863   -1.0883 H   0  0  0  0  0  0  0  0  0  0  0  0
   -4.4616    8.7676   -1.0883 H   0  0  0  0  0  0  0  0  0  0  0  0
   -9.4788    4.0516   -0.4421 H   0  0  0  0  0  0  0  0  0  0  0  0
  -10.3464    3.7910   -1.9933 H   0  0  0  0  0  0  0  0  0  0  0  0
   -8.5735    4.0798   -1.9933 H   0  0  0  0  0  0  0  0  0  0  0  0
  -10.6318    6.0384   -3.6159 H   0  0  0  0  0  0  0  0  0  0  0  0
  -11.6887    5.2166   -2.3349 H   0  0  0  0  0  0  0  0  0  0  0  0
  -11.2729    8.1891   -2.7593 H   0  0  0  0  0  0  0  0  0  0  0  0
  -12.7799    7.2169   -2.9850 H   0  0  0  0  0  0  0  0  0  0  0  0
  -13.1388    6.2861    0.6178 H   0  0  0  0  0  0  0  0  0  0  0  0
  -14.1282    6.4567   -0.8718 H   0  0  0  0  0  0  0  0  0  0  0  0
  -12.6810    5.3926   -0.8718 H   0  0  0  0  0  0  0  0  0  0  0  0
  1  2  1  0
  2  3  1  0
  3  4  1  0
  4  5  1  0
  5  6  1  0
  6  7  1  0
  7  8  1  0
  7  9  1  0
  2 10  1  0
 10 11  1  0
 11 12  1  0
 12 13  1  0
 13 14  1  6
 13 15  1  0
 15 16  1  0
 16 17  1  0
 17 18  2  0
 18 19  1  0
 19 20  1  0
 20 21  1  0
 21 22  1  0
 22 23  1  0
 22 24  1  0
 24 25  1  0
 24 26  1  0
 19 27  1  0
 27 28  1  1
 27 29  1  0
 29 30  1  0
 30 31  1  0
 31 32  1  1
  7  5  1  0
 31 10  1  0
 31 13  1  0
 27 15  1  0
 24 18  1  0
  1 33  1  0
  1 34  1  0
  1 35  1  0
  2 36  1  6
  3 37  1  0
  3 38  1  0
  4 39  1  0
  4 40  1  0
  5 41  1  1
  8 42  1  0
  8 43  1  0
  8 44  1  0
  9 45  1  0
  9 46  1  0
  9 47  1  0
 10 48  1  6
 11 49  1  0
 11 50  1  0
 12 51  1  0
 12 52  1  0
 14 53  1  0
 14 54  1  0
 14 55  1  0
 15 56  1  1
 16 57  1  0
 16 58  1  0
 17 59  1  0
 19 60  1  6
 20 61  1  0
 20 62  1  0
 21 63  1  0
 21 64  1  0
 22 65  1  6
 23 66  1  0
 25 67  1  0
 25 68  1  0
 25 69  1  0
 26 70  1  0
 26 71  1  0
 26 72  1  0
 28 73  1  0
 28 74  1  0
 28 75  1  0
 29 76  1  0
 29 77  1  0
 30 78  1  0
 30 79  1  0
 32 80  1  0
 32 81  1  0
 32 82  1  0
M  END
>  <meeko>  (14) 
{"is_sidechain": [false], "intermolecular_energy": 2.731, "internal_energy": -0.839}

$$$$
EPH_relaxed_0001_pdb2pqr_Repair_74_r2_0001_out
     RDKit          3D

 82 86  0  0  0  0  0  0  0  0999 V2000
   -2.1330    7.7370   -2.4770 C   0  0  0  0  0  0  0  0  0  0  0  0
   -2.2390    8.3580   -1.0810 C   0  0  2  0  0  0  0  0  0  0  0  0
   -3.6800    8.3150   -0.5350 C   0  0  0  0  0  0  0  0  0  0  0  0
   -4.6950    7.7300   -1.5210 C   0  0  0  0  0  0  0  0  0  0  0  0
   -5.8560    7.0990   -0.8130 C   0  0  2  0  0  0  0  0  0  0  0  0
   -6.4690    6.0120   -1.5190 O   0  0  0  0  0  0  0  0  0  0  0  0
   -7.2850    7.1770   -1.3150 C   0  0  0  0  0  0  0  0  0  0  0  0
   -7.6300    7.9050   -2.5760 C   0  0  0  0  0  0  0  0  0  0  0  0
   -8.4000    6.9680   -0.3380 C   0  0  0  0  0  0  0  0  0  0  0  0
   -1.7360    9.7960   -1.1120 C   0  0  1  0  0  0  0  0  0  0  0  0
   -1.3570   10.3270    0.2960 C   0  0  0  0  0  0  0  0  0  0  0  0
   -0.1440   11.2740    0.1050 C   0  0  0  0  0  0  0  0  0  0  0  0
   -0.0750   11.5170   -1.4200 C   0  0  1  0  0  0  0  0  0  0  0  0
   -1.1420   12.6220   -1.6990 C   0  0  0  0  0  0  0  0  0  0  0  0
    1.3250   11.9090   -1.9950 C   0  0  2  0  0  0  0  0  0  0  0  0
    1.9000   13.2340   -1.4660 C   0  0  0  0  0  0  0  0  0  0  0  0
    1.5470   14.4460   -2.2630 C   0  0  0  0  0  0  0  0  0  0  0  0
    1.0390   14.4420   -3.5100 C   0  0  0  0  0  0  0  0  0  0  0  0
    0.8640   13.1290   -4.2840 C   0  0  1  0  0  0  0  0  0  0  0  0
    1.4070   13.3020   -5.7260 C   0  0  0  0  0  0  0  0  0  0  0  0
    0.7840   14.4930   -6.4480 C   0  0  0  0  0  0  0  0  0  0  0  0
    1.0300   15.7870   -5.6770 C   0  0  2  0  0  0  0  0  0  0  0  0
    2.4310   16.0780   -5.6990 O   0  0  0  0  0  0  0  0  0  0  0  0
    0.5320   15.7290   -4.2060 C   0  0  0  0  0  0  0  0  0  0  0  0
   -1.0170   15.7170   -4.1810 C   0  0  0  0  0  0  0  0  0  0  0  0
    0.9670   17.0420   -3.5010 C   0  0  0  0  0  0  0  0  0  0  0  0
    1.4250   11.8240   -3.5720 C   0  0  1  0  0  0  0  0  0  0  0  0
    2.9360   11.6400   -3.9130 C   0  0  0  0  0  0  0  0  0  0  0  0
    0.6830   10.5620   -4.1520 C   0  0  0  0  0  0  0  0  0  0  0  0
   -0.6350   10.1550   -3.4650 C   0  0  0  0  0  0  0  0  0  0  0  0
   -0.4620   10.0860   -1.9450 C   0  0  2  0  0  0  0  0  0  0  0  0
    0.5890    8.9670   -1.6330 C   0  0  0  0  0  0  0  0  0  0  0  0
   -1.9486    6.6565   -2.3846 H   0  0  0  0  0  0  0  0  0  0  0  0
   -3.0725    7.9031   -3.0245 H   0  0  0  0  0  0  0  0  0  0  0  0
   -1.3018    8.2054   -3.0245 H   0  0  0  0  0  0  0  0  0  0  0  0
   -1.6114    7.7598   -0.4040 H   0  0  0  0  0  0  0  0  0  0  0  0
   -3.6876    7.6999    0.3769 H   0  0  0  0  0  0  0  0  0  0  0  0
   -3.9818    9.3551   -0.3424 H   0  0  0  0  0  0  0  0  0  0  0  0
   -5.0683    8.5368   -2.1689 H   0  0  0  0  0  0  0  0  0  0  0  0
   -4.1897    6.9518   -2.1118 H   0  0  0  0  0  0  0  0  0  0  0  0
   -5.4057    7.3152    0.1671 H   0  0  0  0  0  0  0  0  0  0  0  0
   -8.0888    8.8732   -2.3266 H   0  0  0  0  0  0  0  0  0  0  0  0
   -6.7158    8.0731   -3.1642 H   0  0  0  0  0  0  0  0  0  0  0  0
   -8.3390    7.3039   -3.1642 H   0  0  0  0  0  0  0  0  0  0  0  0
   -8.0079    7.0415    0.6871 H   0  0  0  0  0  0  0  0  0  0  0  0
   -9.1711    7.7372   -0.4916 H   0  0  0  0  0  0  0  0  0  0  0  0
   -8.8402    5.9717   -0.4916 H   0  0  0  0  0  0  0  0  0  0  0  0
   -2.6063   10.2858   -1.5731 H   0  0  0  0  0  0  0  0  0  0  0  0
   -2.2026   10.8780    0.7334 H   0  0  0  0  0  0  0  0  0  0  0  0
   -1.1088    9.4994    0.9768 H   0  0  0  0  0  0  0  0  0  0  0  0
   -0.3022   12.2207    0.6423 H   0  0  0  0  0  0  0  0  0  0  0  0
    0.7875   10.8436    0.5013 H   0  0  0  0  0  0  0  0  0  0  0  0
   -1.5213   13.0148   -0.7441 H   0  0  0  0  0  0  0  0  0  0  0  0
   -0.6821   13.4387   -2.2747 H   0  0  0  0  0  0  0  0  0  0  0  0
   -1.9743   12.1910   -2.2747 H   0  0  0  0  0  0  0  0  0  0  0  0
    1.9752   11.1191   -1.5910 H   0  0  0  0  0  0  0  0  0  0  0  0
    1.5280   13.3809   -0.4413 H   0  0  0  0  0  0  0  0  0  0  0  0
    2.9940   13.1372   -1.5280 H   0  0  0  0  0  0  0  0  0  0  0  0
    1.7163   15.4253   -1.7916 H   0  0  0  0  0  0  0  0  0  0  0  0
   -0.2184   12.9355   -4.3139 H   0  0  0  0  0  0  0  0  0  0  0  0
    2.4959   13.4498   -5.6772 H   0  0  0  0  0  0  0  0  0  0  0  0
    1.1459   12.3954   -6.2916 H   0  0  0  0  0  0  0  0  0  0  0  0
    1.2300   14.5803   -7.4497 H   0  0  0  0  0  0  0  0  0  0  0  0
   -0.3012   14.3298   -6.5234 H   0  0  0  0  0  0  0  0  0  0  0  0
    0.4513   16.5803   -6.1727 H   0  0  0  0  0  0  0  0  0  0  0  0
    2.8980   15.2560   -5.9240 H   0  0  0  0  0  0  0  0  0  0  0  0
   -1.3669   15.7143   -3.1381 H   0  0  0  0  0  0  0  0  0  0  0  0
   -1.3989   16.6122   -4.6936 H   0  0  0  0  0  0  0  0  0  0  0  0
   -1.3850   14.8160   -4.6936 H   0  0  0  0  0  0  0  0  0  0  0  0
    0.9216   16.9050   -2.4105 H   0  0  0  0  0  0  0  0  0  0  0  0
    1.9964   17.2932   -3.7965 H   0  0  0  0  0  0  0  0  0  0  0  0
    0.2912   17.8581   -3.7965 H   0  0  0  0  0  0  0  0  0  0  0  0
    3.5162   11.5693   -2.9811 H   0  0  0  0  0  0  0  0  0  0  0  0
    3.0701   10.7189   -4.4992 H   0  0  0  0  0  0  0  0  0  0  0  0
    3.2872   12.5020   -4.4992 H   0  0  0  0  0  0  0  0  0  0  0  0
    0.4584   10.7647   -5.2096 H   0  0  0  0  0  0  0  0  0  0  0  0
    1.3695    9.7199   -3.9801 H   0  0  0  0  0  0  0  0  0  0  0  0
   -1.4104   10.8972   -3.7056 H   0  0  0  0  0  0  0  0  0  0  0  0
   -0.9282    9.1597   -3.8303 H   0  0  0  0  0  0  0  0  0  0  0  0
    0.6936    8.8556   -0.5437 H   0  0  0  0  0  0  0  0  0  0  0  0
    0.2510    8.0149   -2.0681 H   0  0  0  0  0  0  0  0  0  0  0  0
    1.5604    9.2447   -2.0681 H   0  0  0  0  0  0  0  0  0  0  0  0
  1  2  1  0
  2  3  1  0
  3  4  1  0
  4  5  1  0
  5  6  1  0
  6  7  1  0
  7  8  1  0
  7  9  1  0
  2 10  1  0
 10 11  1  0
 11 12  1  0
 12 13  1  0
 13 14  1  6
 13 15  1  0
 15 16  1  0
 16 17  1  0
 17 18  2  0
 18 19  1  0
 19 20  1  0
 20 21  1  0
 21 22  1  0
 22 23  1  0
 22 24  1  0
 24 25  1  0
 24 26  1  0
 19 27  1  0
 27 28  1  1
 27 29  1  0
 29 30  1  0
 30 31  1  0
 31 32  1  6
  7  5  1  0
 31 10  1  0
 31 13  1  0
 27 15  1  0
 24 18  1  0
  1 33  1  0
  1 34  1  0
  1 35  1  0
  2 36  1  1
  3 37  1  0
  3 38  1  0
  4 39  1  0
  4 40  1  0
  5 41  1  1
  8 42  1  0
  8 43  1  0
  8 44  1  0
  9 45  1  0
  9 46  1  0
  9 47  1  0
 10 48  1  6
 11 49  1  0
 11 50  1  0
 12 51  1  0
 12 52  1  0
 14 53  1  0
 14 54  1  0
 14 55  1  0
 15 56  1  1
 16 57  1  0
 16 58  1  0
 17 59  1  0
 19 60  1  6
 20 61  1  0
 20 62  1  0
 21 63  1  0
 21 64  1  0
 22 65  1  6
 23 66  1  0
 25 67  1  0
 25 68  1  0
 25 69  1  0
 26 70  1  0
 26 71  1  0
 26 72  1  0
 28 73  1  0
 28 74  1  0
 28 75  1  0
 29 76  1  0
 29 77  1  0
 30 78  1  0
 30 79  1  0
 32 80  1  0
 32 81  1  0
 32 82  1  0
M  END
>  <meeko>  (15) 
{"is_sidechain": [false], "intermolecular_energy": 2.731, "internal_energy": -0.839}

$$$$
EPH_relaxed_0001_pdb2pqr_Repair_74_r2_0001_out
     RDKit          3D

 82 86  0  0  0  0  0  0  0  0999 V2000
   -4.1020    7.1420   -3.5830 C   0  0  0  0  0  0  0  0  0  0  0  0
   -4.0110    7.2160   -2.0560 C   0  0  2  0  0  0  0  0  0  0  0  0
   -5.3770    6.9780   -1.3810 C   0  0  0  0  0  0  0  0  0  0  0  0
   -6.5500    6.9360   -2.3640 C   0  0  0  0  0  0  0  0  0  0  0  0
   -7.8320    7.3650   -1.7150 C   0  0  2  0  0  0  0  0  0  0  0  0
   -8.4420    6.3720   -0.8810 O   0  0  0  0  0  0  0  0  0  0  0  0
   -9.1820    6.7590   -2.0500 C   0  0  0  0  0  0  0  0  0  0  0  0
   -9.3190    5.6740   -3.0710 C   0  0  0  0  0  0  0  0  0  0  0  0
  -10.4160    7.5510   -1.7470 C   0  0  0  0  0  0  0  0  0  0  0  0
   -3.4500    8.5680   -1.6330 C   0  0  1  0  0  0  0  0  0  0  0  0
   -4.1170    9.1160   -0.3440 C   0  0  0  0  0  0  0  0  0  0  0  0
   -3.0180    9.8760    0.4410 C   0  0  0  0  0  0  0  0  0  0  0  0
   -1.8530   10.0270   -0.5660 C   0  0  1  0  0  0  0  0  0  0  0  0
   -2.2450   11.2510   -1.4520 C   0  0  0  0  0  0  0  0  0  0  0  0
   -0.4250   10.1920    0.0490 C   0  0  2  0  0  0  0  0  0  0  0  0
   -0.2270   11.4530    0.9080 C   0  0  0  0  0  0  0  0  0  0  0  0
    0.2560   12.6580    0.1720 C   0  0  0  0  0  0  0  0  0  0  0  0
    0.7920   12.6570   -1.0630 C   0  0  0  0  0  0  0  0  0  0  0  0
    1.0450   11.3420   -1.8110 C   0  0  1  0  0  0  0  0  0  0  0  0
    2.4690   11.3620   -2.4270 C   0  0  0  0  0  0  0  0  0  0  0  0
    2.7100   12.5870   -3.3030 C   0  0  0  0  0  0  0  0  0  0  0  0
    2.5050   13.8750   -2.5090 C   0  0  2  0  0  0  0  0  0  0  0  0
    3.5270   13.9690   -1.5130 O   0  0  0  0  0  0  0  0  0  0  0  0
    1.1080   13.9620   -1.8340 C   0  0  0  0  0  0  0  0  0  0  0  0
    0.0180   14.1640   -2.9170 C   0  0  0  0  0  0  0  0  0  0  0  0
    1.0830   15.2390   -0.9510 C   0  0  0  0  0  0  0  0  0  0  0  0
    0.7530   10.0110   -0.9920 C   0  0  1  0  0  0  0  0  0  0  0  0
    2.0140    9.6050   -0.1700 C   0  0  0  0  0  0  0  0  0  0  0  0
    0.4840    8.8340   -2.0020 C   0  0  0  0  0  0  0  0  0  0  0  0
   -0.9690    8.6480   -2.4800 C   0  0  0  0  0  0  0  0  0  0  0  0
   -1.9390    8.6370   -1.2950 C   0  0  2  0  0  0  0  0  0  0  0  0
   -1.5840    7.4030   -0.3980 C   0  0  0  0  0  0  0  0  0  0  0  0
   -4.9261    6.4719   -3.8692 H   0  0  0  0  0  0  0  0  0  0  0  0
   -4.2893    8.1473   -3.9883 H   0  0  0  0  0  0  0  0  0  0  0  0
   -3.1560    6.7537   -3.9883 H   0  0  0  0  0  0  0  0  0  0  0  0
   -3.3348    6.4136   -1.7258 H   0  0  0  0  0  0  0  0  0  0  0  0
   -5.3375    6.0176   -0.8462 H   0  0  0  0  0  0  0  0  0  0  0  0
   -5.5541    7.8276   -0.7052 H   0  0  0  0  0  0  0  0  0  0  0  0
   -6.3338    7.6097   -3.2063 H   0  0  0  0  0  0  0  0  0  0  0  0
   -6.6708    5.8989   -2.7103 H   0  0  0  0  0  0  0  0  0  0  0  0
   -7.4838    8.4070   -1.6609 H   0  0  0  0  0  0  0  0  0  0  0  0
   -9.4412    4.7059   -2.5631 H   0  0  0  0  0  0  0  0  0  0  0  0
  -10.1993    5.8717   -3.7003 H   0  0  0  0  0  0  0  0  0  0  0  0
   -8.4172    5.6467   -3.7003 H   0  0  0  0  0  0  0  0  0  0  0  0
  -10.5416    7.6316   -0.6572 H   0  0  0  0  0  0  0  0  0  0  0  0
  -10.3214    8.5575   -2.1806 H   0  0  0  0  0  0  0  0  0  0  0  0
  -11.2916    7.0458   -2.1806 H   0  0  0  0  0  0  0  0  0  0  0  0
   -3.6590    9.1467   -2.5448 H   0  0  0  0  0  0  0  0  0  0  0  0
   -4.9382    9.8001   -0.6041 H   0  0  0  0  0  0  0  0  0  0  0  0
   -4.5395    8.2991    0.2595 H   0  0  0  0  0  0  0  0  0  0  0  0
   -3.3828   10.8623    0.7635 H   0  0  0  0  0  0  0  0  0  0  0  0
   -2.7138    9.3436    1.3542 H   0  0  0  0  0  0  0  0  0  0  0  0
   -2.5166   12.0991   -0.8062 H   0  0  0  0  0  0  0  0  0  0  0  0
   -1.3920   11.5322   -2.0870 H   0  0  0  0  0  0  0  0  0  0  0  0
   -3.1027   10.9843   -2.0870 H   0  0  0  0  0  0  0  0  0  0  0  0
   -0.3681    9.3433    0.7465 H   0  0  0  0  0  0  0  0  0  0  0  0
   -1.1925   11.7029    1.3720 H   0  0  0  0  0  0  0  0  0  0  0  0
    0.5608   11.2049    1.6345 H   0  0  0  0  0  0  0  0  0  0  0  0
    0.1665   13.6288    0.6815 H   0  0  0  0  0  0  0  0  0  0  0  0
    0.2924   11.2984   -2.6121 H   0  0  0  0  0  0  0  0  0  0  0  0
    3.2064   11.3616   -1.6107 H   0  0  0  0  0  0  0  0  0  0  0  0
    2.5698   10.4709   -3.0640 H   0  0  0  0  0  0  0  0  0  0  0  0
    3.7414   12.5595   -3.6843 H   0  0  0  0  0  0  0  0  0  0  0  0
    1.9914   12.5699   -4.1356 H   0  0  0  0  0  0  0  0  0  0  0  0
    2.5632   14.7135   -3.2185 H   0  0  0  0  0  0  0  0  0  0  0  0
    3.6210   14.9070   -1.2760 H   0  0  0  0  0  0  0  0  0  0  0  0
   -0.9525   14.3439   -2.4314 H   0  0  0  0  0  0  0  0  0  0  0  0
    0.2801   15.0289   -3.5442 H   0  0  0  0  0  0  0  0  0  0  0  0
   -0.0472   13.2627   -3.5442 H   0  0  0  0  0  0  0  0  0  0  0  0
    1.0886   14.9509    0.1106 H   0  0  0  0  0  0  0  0  0  0  0  0
    1.9693   15.8530   -1.1690 H   0  0  0  0  0  0  0  0  0  0  0  0
    0.1734   15.8178   -1.1690 H   0  0  0  0  0  0  0  0  0  0  0  0
    1.7901    9.6771    0.9046 H   0  0  0  0  0  0  0  0  0  0  0  0
    2.2956    8.5708   -0.4173 H   0  0  0  0  0  0  0  0  0  0  0  0
    2.8461   10.2806   -0.4173 H   0  0  0  0  0  0  0  0  0  0  0  0
    1.1071    9.0095   -2.8913 H   0  0  0  0  0  0  0  0  0  0  0  0
    0.7239    7.9161   -1.4453 H   0  0  0  0  0  0  0  0  0  0  0  0
   -1.2345    9.4753   -3.1546 H   0  0  0  0  0  0  0  0  0  0  0  0
   -1.0450    7.6839   -3.0042 H   0  0  0  0  0  0  0  0  0  0  0  0
   -1.6651    7.6849    0.6622 H   0  0  0  0  0  0  0  0  0  0  0  0
   -2.2819    6.5804   -0.6131 H   0  0  0  0  0  0  0  0  0  0  0  0
   -0.5557    7.0771   -0.6131 H   0  0  0  0  0  0  0  0  0  0  0  0
  1  2  1  0
  2  3  1  0
  3  4  1  0
  4  5  1  0
  5  6  1  0
  6  7  1  0
  7  8  1  0
  7  9  1  0
  2 10  1  0
 10 11  1  0
 11 12  1  0
 12 13  1  0
 13 14  1  6
 13 15  1  0
 15 16  1  0
 16 17  1  0
 17 18  2  0
 18 19  1  0
 19 20  1  0
 20 21  1  0
 21 22  1  0
 22 23  1  0
 22 24  1  0
 24 25  1  0
 24 26  1  0
 19 27  1  0
 27 28  1  1
 27 29  1  0
 29 30  1  0
 30 31  1  0
 31 32  1  1
  7  5  1  0
 31 10  1  0
 31 13  1  0
 27 15  1  0
 24 18  1  0
  1 33  1  0
  1 34  1  0
  1 35  1  0
  2 36  1  1
  3 37  1  0
  3 38  1  0
  4 39  1  0
  4 40  1  0
  5 41  1  1
  8 42  1  0
  8 43  1  0
  8 44  1  0
  9 45  1  0
  9 46  1  0
  9 47  1  0
 10 48  1  6
 11 49  1  0
 11 50  1  0
 12 51  1  0
 12 52  1  0
 14 53  1  0
 14 54  1  0
 14 55  1  0
 15 56  1  1
 16 57  1  0
 16 58  1  0
 17 59  1  0
 19 60  1  6
 20 61  1  0
 20 62  1  0
 21 63  1  0
 21 64  1  0
 22 65  1  6
 23 66  1  0
 25 67  1  0
 25 68  1  0
 25 69  1  0
 26 70  1  0
 26 71  1  0
 26 72  1  0
 28 73  1  0
 28 74  1  0
 28 75  1  0
 29 76  1  0
 29 77  1  0
 30 78  1  0
 30 79  1  0
 32 80  1  0
 32 81  1  0
 32 82  1  0
M  END
>  <meeko>  (16) 
{"is_sidechain": [false], "intermolecular_energy": 2.731, "internal_energy": -0.839}

$$$$
EPH_relaxed_0001_pdb2pqr_Repair_74_r2_0001_out
     RDKit          3D

 82 86  0  0  0  0  0  0  0  0999 V2000
    0.7350    9.4020   -0.0210 C   0  0  0  0  0  0  0  0  0  0  0  0
   -0.4540   10.3660   -0.0600 C   0  0  2  0  0  0  0  0  0  0  0  0
   -1.1110   10.4210   -1.4530 C   0  0  0  0  0  0  0  0  0  0  0  0
   -0.2680    9.7780   -2.5580 C   0  0  0  0  0  0  0  0  0  0  0  0
   -0.1210   10.6850   -3.7420 C   0  0  2  0  0  0  0  0  0  0  0  0
    0.4710   10.0720   -4.8950 O   0  0  0  0  0  0  0  0  0  0  0  0
    1.2200   11.1380   -4.2880 C   0  0  0  0  0  0  0  0  0  0  0  0
    2.5060   10.6970   -3.6620 C   0  0  0  0  0  0  0  0  0  0  0  0
    1.2720   12.3850   -5.1150 C   0  0  0  0  0  0  0  0  0  0  0  0
   -0.0060   11.7600    0.3620 C   0  0  1  0  0  0  0  0  0  0  0  0
    1.1100   11.7290    1.4400 C   0  0  0  0  0  0  0  0  0  0  0  0
    2.0420   12.9350    1.1540 C   0  0  0  0  0  0  0  0  0  0  0  0
    1.2580   13.8020    0.1410 C   0  0  1  0  0  0  0  0  0  0  0  0
    0.2530   14.6230    1.0090 C   0  0  0  0  0  0  0  0  0  0  0  0
    2.1130   14.7290   -0.7830 C   0  0  2  0  0  0  0  0  0  0  0  0
    2.9290   15.8080   -0.0510 C   0  0  0  0  0  0  0  0  0  0  0  0
    2.2310   17.1140    0.1400 C   0  0  0  0  0  0  0  0  0  0  0  0
    1.1160   17.5070   -0.5040 C   0  0  0  0  0  0  0  0  0  0  0  0
    0.4960   16.6390   -1.6060 C   0  0  1  0  0  0  0  0  0  0  0  0
    0.1510   17.5260   -2.8310 C   0  0  0  0  0  0  0  0  0  0  0  0
   -0.7290   18.7160   -2.4610 C   0  0  0  0  0  0  0  0  0  0  0  0
   -0.0540   19.5870   -1.4050 C   0  0  2  0  0  0  0  0  0  0  0  0
    1.1060   20.1940   -1.9820 O   0  0  0  0  0  0  0  0  0  0  0  0
    0.3500   18.7990   -0.1280 C   0  0  0  0  0  0  0  0  0  0  0  0
   -0.9220   18.3980    0.6590 C   0  0  0  0  0  0  0  0  0  0  0  0
    1.1460   19.7600    0.7950 C   0  0  0  0  0  0  0  0  0  0  0  0
    1.3160   15.3380   -2.0070 C   0  0  1  0  0  0  0  0  0  0  0  0
    2.3740   15.6900   -3.0970 C   0  0  0  0  0  0  0  0  0  0  0  0
    0.3360   14.2940   -2.6620 C   0  0  0  0  0  0  0  0  0  0  0  0
   -0.3890   13.3270   -1.7060 C   0  0  0  0  0  0  0  0  0  0  0  0
    0.5980   12.6740   -0.7340 C   0  0  2  0  0  0  0  0  0  0  0  0
    1.6080   11.8230   -1.5770 C   0  0  0  0  0  0  0  0  0  0  0  0
    0.9992    9.1878    1.0251 H   0  0  0  0  0  0  0  0  0  0  0  0
    0.4644    8.4652   -0.5300 H   0  0  0  0  0  0  0  0  0  0  0  0
    1.5956    9.8605   -0.5300 H   0  0  0  0  0  0  0  0  0  0  0  0
   -1.2095    9.9896    0.6454 H   0  0  0  0  0  0  0  0  0  0  0  0
   -2.0761    9.8957   -1.4026 H   0  0  0  0  0  0  0  0  0  0  0  0
   -1.2242   11.4839   -1.7129 H   0  0  0  0  0  0  0  0  0  0  0  0
    0.7308    9.5501   -2.1574 H   0  0  0  0  0  0  0  0  0  0  0  0
   -0.7784    8.8617   -2.8893 H   0  0  0  0  0  0  0  0  0  0  0  0
   -1.0275   11.2402   -3.4591 H   0  0  0  0  0  0  0  0  0  0  0  0
    2.4107   10.7297   -2.5666 H   0  0  0  0  0  0  0  0  0  0  0  0
    2.7349    9.6690   -3.9797 H   0  0  0  0  0  0  0  0  0  0  0  0
    3.3175   11.3682   -3.9797 H   0  0  0  0  0  0  0  0  0  0  0  0
    1.3086   13.2627   -4.4530 H   0  0  0  0  0  0  0  0  0  0  0  0
    2.1702   12.3668   -5.7498 H   0  0  0  0  0  0  0  0  0  0  0  0
    0.3754   12.4416   -5.7498 H   0  0  0  0  0  0  0  0  0  0  0  0
   -0.9687   12.1676    0.7041 H   0  0  0  0  0  0  0  0  0  0  0  0
    0.6696   11.8203    2.4439 H   0  0  0  0  0  0  0  0  0  0  0  0
    1.6678   10.7816    1.4039 H   0  0  0  0  0  0  0  0  0  0  0  0
    2.2405   13.4998    2.0768 H   0  0  0  0  0  0  0  0  0  0  0  0
    3.0220   12.6219    0.7647 H   0  0  0  0  0  0  0  0  0  0  0  0
    0.4635   14.4510    2.0749 H   0  0  0  0  0  0  0  0  0  0  0  0
    0.3619   15.6938    0.7818 H   0  0  0  0  0  0  0  0  0  0  0  0
   -0.7745   14.3026    0.7818 H   0  0  0  0  0  0  0  0  0  0  0  0
    2.8515   14.0283   -1.1998 H   0  0  0  0  0  0  0  0  0  0  0  0
    3.1966   15.4170    0.9417 H   0  0  0  0  0  0  0  0  0  0  0  0
    3.7991   16.0181   -0.6903 H   0  0  0  0  0  0  0  0  0  0  0  0
    2.6646   17.8146    0.8688 H   0  0  0  0  0  0  0  0  0  0  0  0
   -0.4258   16.2174   -1.1787 H   0  0  0  0  0  0  0  0  0  0  0  0
    1.0873   17.9022   -3.2690 H   0  0  0  0  0  0  0  0  0  0  0  0
   -0.4091   16.9055   -3.5460 H   0  0  0  0  0  0  0  0  0  0  0  0
   -0.9141   19.3204   -3.3613 H   0  0  0  0  0  0  0  0  0  0  0  0
   -1.6765   18.3373   -2.0500 H   0  0  0  0  0  0  0  0  0  0  0  0
   -0.7840   20.3461   -1.0874 H   0  0  0  0  0  0  0  0  0  0  0  0
    1.7290   19.4830   -2.2100 H   0  0  0  0  0  0  0  0  0  0  0  0
   -0.7205   18.4615    1.7385 H   0  0  0  0  0  0  0  0  0  0  0  0
   -1.7446   19.0804    0.3988 H   0  0  0  0  0  0  0  0  0  0  0  0
   -1.2045   17.3672    0.3988 H   0  0  0  0  0  0  0  0  0  0  0  0
    0.9406   19.5121    1.8468 H   0  0  0  0  0  0  0  0  0  0  0  0
    2.2224   19.6516    0.5962 H   0  0  0  0  0  0  0  0  0  0  0  0
    0.8391   20.7974    0.5962 H   0  0  0  0  0  0  0  0  0  0  0  0
    3.3107   16.0016   -2.6117 H   0  0  0  0  0  0  0  0  0  0  0  0
    2.5624   14.8061   -3.7241 H   0  0  0  0  0  0  0  0  0  0  0  0
    1.9953   16.5106   -3.7241 H   0  0  0  0  0  0  0  0  0  0  0  0
   -0.4326   14.8579   -3.2109 H   0  0  0  0  0  0  0  0  0  0  0  0
    0.9742   13.6542   -3.2892 H   0  0  0  0  0  0  0  0  0  0  0  0
   -1.1426   13.8861   -1.1320 H   0  0  0  0  0  0  0  0  0  0  0  0
   -0.8678   12.5369   -2.3031 H   0  0  0  0  0  0  0  0  0  0  0  0
    2.2711   11.2643   -0.9001 H   0  0  0  0  0  0  0  0  0  0  0  0
    1.0523   11.1168   -2.2114 H   0  0  0  0  0  0  0  0  0  0  0  0
    2.2097   12.4905   -2.2114 H   0  0  0  0  0  0  0  0  0  0  0  0
  1  2  1  0
  2  3  1  0
  3  4  1  0
  4  5  1  0
  5  6  1  0
  6  7  1  0
  7  8  1  0
  7  9  1  0
  2 10  1  0
 10 11  1  0
 11 12  1  0
 12 13  1  0
 13 14  1  1
 13 15  1  0
 15 16  1  0
 16 17  1  0
 17 18  2  0
 18 19  1  0
 19 20  1  0
 20 21  1  0
 21 22  1  0
 22 23  1  0
 22 24  1  0
 24 25  1  0
 24 26  1  0
 19 27  1  0
 27 28  1  6
 27 29  1  0
 29 30  1  0
 30 31  1  0
 31 32  1  6
  7  5  1  0
 31 10  1  0
 31 13  1  0
 27 15  1  0
 24 18  1  0
  1 33  1  0
  1 34  1  0
  1 35  1  0
  2 36  1  1
  3 37  1  0
  3 38  1  0
  4 39  1  0
  4 40  1  0
  5 41  1  6
  8 42  1  0
  8 43  1  0
  8 44  1  0
  9 45  1  0
  9 46  1  0
  9 47  1  0
 10 48  1  1
 11 49  1  0
 11 50  1  0
 12 51  1  0
 12 52  1  0
 14 53  1  0
 14 54  1  0
 14 55  1  0
 15 56  1  6
 16 57  1  0
 16 58  1  0
 17 59  1  0
 19 60  1  1
 20 61  1  0
 20 62  1  0
 21 63  1  0
 21 64  1  0
 22 65  1  1
 23 66  1  0
 25 67  1  0
 25 68  1  0
 25 69  1  0
 26 70  1  0
 26 71  1  0
 26 72  1  0
 28 73  1  0
 28 74  1  0
 28 75  1  0
 29 76  1  0
 29 77  1  0
 30 78  1  0
 30 79  1  0
 32 80  1  0
 32 81  1  0
 32 82  1  0
M  END
>  <meeko>  (17) 
{"is_sidechain": [false], "intermolecular_energy": 2.731, "internal_energy": -0.839}

$$$$
EPH_relaxed_0001_pdb2pqr_Repair_74_r2_0001_out
     RDKit          3D

 82 86  0  0  0  0  0  0  0  0999 V2000
  -14.1460    5.2970    0.5520 C   0  0  0  0  0  0  0  0  0  0  0  0
  -13.6550    6.7330    0.3490 C   0  0  2  0  0  0  0  0  0  0  0  0
  -14.8110    7.7020    0.0280 C   0  0  0  0  0  0  0  0  0  0  0  0
  -14.4420    9.1780    0.1980 C   0  0  0  0  0  0  0  0  0  0  0  0
  -15.1930   10.0510   -0.7620 C   0  0  2  0  0  0  0  0  0  0  0  0
  -15.0590    9.6800   -2.1400 O   0  0  0  0  0  0  0  0  0  0  0  0
  -14.5170   10.9590   -1.7720 C   0  0  0  0  0  0  0  0  0  0  0  0
  -13.0260   11.0400   -1.8730 C   0  0  0  0  0  0  0  0  0  0  0  0
  -15.2870   12.1200   -2.3190 C   0  0  0  0  0  0  0  0  0  0  0  0
  -12.6160    6.7750   -0.7650 C   0  0  1  0  0  0  0  0  0  0  0  0
  -13.0280    7.7110   -1.9320 C   0  0  0  0  0  0  0  0  0  0  0  0
  -11.7250    8.3580   -2.4690 C   0  0  0  0  0  0  0  0  0  0  0  0
  -10.5870    7.5330   -1.8240 C   0  0  1  0  0  0  0  0  0  0  0  0
  -10.4660    6.2540   -2.7120 C   0  0  0  0  0  0  0  0  0  0  0  0
   -9.2110    8.2590   -1.6680 C   0  0  2  0  0  0  0  0  0  0  0  0
   -8.5450    8.6870   -2.9880 C   0  0  0  0  0  0  0  0  0  0  0  0
   -7.6270    7.6790   -3.5950 C   0  0  0  0  0  0  0  0  0  0  0  0
   -7.1250    6.6000   -2.9670 C   0  0  0  0  0  0  0  0  0  0  0  0
   -7.3960    6.3580   -1.4760 C   0  0  1  0  0  0  0  0  0  0  0  0
   -6.0720    5.9790   -0.7640 C   0  0  0  0  0  0  0  0  0  0  0  0
   -5.3680    4.7990   -1.4270 C   0  0  0  0  0  0  0  0  0  0  0  0
   -5.0630    5.0990   -2.8920 C   0  0  2  0  0  0  0  0  0  0  0  0
   -4.0910    6.1480   -2.9550 O   0  0  0  0  0  0  0  0  0  0  0  0
   -6.3210    5.5030   -3.7100 C   0  0  0  0  0  0  0  0  0  0  0  0
   -7.2390    4.2700   -3.8960 C   0  0  0  0  0  0  0  0  0  0  0  0
   -5.8550    5.9160   -5.1320 C   0  0  0  0  0  0  0  0  0  0  0  0
   -8.1870    7.5110   -0.7200 C   0  0  1  0  0  0  0  0  0  0  0  0
   -7.1890    8.5910   -0.2030 C   0  0  0  0  0  0  0  0  0  0  0  0
   -8.8850    6.9050    0.5540 C   0  0  0  0  0  0  0  0  0  0  0  0
  -10.2930    6.3100    0.3590 C   0  0  0  0  0  0  0  0  0  0  0  0
  -11.2000    7.2850   -0.3980 C   0  0  2  0  0  0  0  0  0  0  0  0
  -11.3580    8.5720    0.4810 C   0  0  0  0  0  0  0  0  0  0  0  0
  -14.2191    5.0832    1.6285 H   0  0  0  0  0  0  0  0  0  0  0  0
  -15.1357    5.1786    0.0866 H   0  0  0  0  0  0  0  0  0  0  0  0
  -13.4360    4.5975    0.0866 H   0  0  0  0  0  0  0  0  0  0  0  0
  -13.1997    7.0635    1.2943 H   0  0  0  0  0  0  0  0  0  0  0  0
  -15.1210    7.5394   -1.0148 H   0  0  0  0  0  0  0  0  0  0  0  0
  -15.6181    7.4879    0.7440 H   0  0  0  0  0  0  0  0  0  0  0  0
  -14.6816    9.4894    1.2254 H   0  0  0  0  0  0  0  0  0  0  0  0
  -13.3669    9.2886   -0.0066 H   0  0  0  0  0  0  0  0  0  0  0  0
  -15.9798   10.2345   -0.0155 H   0  0  0  0  0  0  0  0  0  0  0  0
  -12.5908   11.0636   -0.8630 H   0  0  0  0  0  0  0  0  0  0  0  0
  -12.6469   10.1611   -2.4151 H   0  0  0  0  0  0  0  0  0  0  0  0
  -12.7444   11.9548   -2.4151 H   0  0  0  0  0  0  0  0  0  0  0  0
  -15.6851   12.7203   -1.4877 H   0  0  0  0  0  0  0  0  0  0  0  0
  -14.6224   12.7429   -2.9357 H   0  0  0  0  0  0  0  0  0  0  0  0
  -16.1194   11.7501   -2.9357 H   0  0  0  0  0  0  0  0  0  0  0  0
  -12.5767    5.7057   -1.0201 H   0  0  0  0  0  0  0  0  0  0  0  0
  -13.5185    7.1309   -2.7276 H   0  0  0  0  0  0  0  0  0  0  0  0
  -13.7380    8.4786   -1.5904 H   0  0  0  0  0  0  0  0  0  0  0  0
  -11.6808    8.2898   -3.5660 H   0  0  0  0  0  0  0  0  0  0  0  0
  -11.6572    9.4277   -2.2219 H   0  0  0  0  0  0  0  0  0  0  0  0
  -10.3821    5.3667   -2.0674 H   0  0  0  0  0  0  0  0  0  0  0  0
  -11.3595    6.1627   -3.3471 H   0  0  0  0  0  0  0  0  0  0  0  0
   -9.5712    6.3318   -3.3471 H   0  0  0  0  0  0  0  0  0  0  0  0
   -9.4937    9.1927   -1.1597 H   0  0  0  0  0  0  0  0  0  0  0  0
   -9.3410    8.9036   -3.7157 H   0  0  0  0  0  0  0  0  0  0  0  0
   -7.9209    9.5596   -2.7450 H   0  0  0  0  0  0  0  0  0  0  0  0
   -7.3361    7.8310   -4.6449 H   0  0  0  0  0  0  0  0  0  0  0  0
   -8.1001    5.5143   -1.4275 H   0  0  0  0  0  0  0  0  0  0  0  0
   -5.3987    6.8486   -0.7854 H   0  0  0  0  0  0  0  0  0  0  0  0
   -6.3197    5.6839    0.2663 H   0  0  0  0  0  0  0  0  0  0  0  0
   -4.4254    4.5981   -0.8969 H   0  0  0  0  0  0  0  0  0  0  0  0
   -6.0308    3.9224   -1.3787 H   0  0  0  0  0  0  0  0  0  0  0  0
   -4.6788    4.1731   -3.3449 H   0  0  0  0  0  0  0  0  0  0  0  0
   -4.0230    6.4310   -3.8830 H   0  0  0  0  0  0  0  0  0  0  0  0
   -7.5308    3.8781   -2.9105 H   0  0  0  0  0  0  0  0  0  0  0  0
   -8.1396    4.5643   -4.4548 H   0  0  0  0  0  0  0  0  0  0  0  0
   -6.6988    3.4916   -4.4548 H   0  0  0  0  0  0  0  0  0  0  0  0
   -5.0340    6.6437   -5.0519 H   0  0  0  0  0  0  0  0  0  0  0  0
   -5.5047    5.0263   -5.6759 H   0  0  0  0  0  0  0  0  0  0  0  0
   -6.6961    6.3707   -5.6759 H   0  0  0  0  0  0  0  0  0  0  0  0
   -7.1877    8.5924    0.8970 H   0  0  0  0  0  0  0  0  0  0  0  0
   -6.1779    8.3618   -0.5706 H   0  0  0  0  0  0  0  0  0  0  0  0
   -7.4971    9.5809   -0.5706 H   0  0  0  0  0  0  0  0  0  0  0  0
   -8.2363    6.1048    0.9397 H   0  0  0  0  0  0  0  0  0  0  0  0
   -9.0245    7.7556    1.2373 H   0  0  0  0  0  0  0  0  0  0  0  0
  -10.2122    5.3747   -0.2143 H   0  0  0  0  0  0  0  0  0  0  0  0
  -10.7329    6.1181    1.3488 H   0  0  0  0  0  0  0  0  0  0  0  0
  -11.3241    8.2956    1.5452 H   0  0  0  0  0  0  0  0  0  0  0  0
  -10.5390    9.2715    0.2575 H   0  0  0  0  0  0  0  0  0  0  0  0
  -12.3219    9.0526    0.2575 H   0  0  0  0  0  0  0  0  0  0  0  0
  1  2  1  0
  2  3  1  0
  3  4  1  0
  4  5  1  0
  5  6  1  0
  6  7  1  0
  7  8  1  0
  7  9  1  0
  2 10  1  0
 10 11  1  0
 11 12  1  0
 12 13  1  0
 13 14  1  6
 13 15  1  0
 15 16  1  0
 16 17  1  0
 17 18  2  0
 18 19  1  0
 19 20  1  0
 20 21  1  0
 21 22  1  0
 22 23  1  0
 22 24  1  0
 24 25  1  0
 24 26  1  0
 19 27  1  0
 27 28  1  1
 27 29  1  0
 29 30  1  0
 30 31  1  0
 31 32  1  1
  7  5  1  0
 31 10  1  0
 31 13  1  0
 27 15  1  0
 24 18  1  0
  1 33  1  0
  1 34  1  0
  1 35  1  0
  2 36  1  1
  3 37  1  0
  3 38  1  0
  4 39  1  0
  4 40  1  0
  5 41  1  1
  8 42  1  0
  8 43  1  0
  8 44  1  0
  9 45  1  0
  9 46  1  0
  9 47  1  0
 10 48  1  6
 11 49  1  0
 11 50  1  0
 12 51  1  0
 12 52  1  0
 14 53  1  0
 14 54  1  0
 14 55  1  0
 15 56  1  1
 16 57  1  0
 16 58  1  0
 17 59  1  0
 19 60  1  6
 20 61  1  0
 20 62  1  0
 21 63  1  0
 21 64  1  0
 22 65  1  6
 23 66  1  0
 25 67  1  0
 25 68  1  0
 25 69  1  0
 26 70  1  0
 26 71  1  0
 26 72  1  0
 28 73  1  0
 28 74  1  0
 28 75  1  0
 29 76  1  0
 29 77  1  0
 30 78  1  0
 30 79  1  0
 32 80  1  0
 32 81  1  0
 32 82  1  0
M  END
>  <meeko>  (18) 
{"is_sidechain": [false], "intermolecular_energy": 2.731, "internal_energy": -0.839}

$$$$
EPH_relaxed_0001_pdb2pqr_Repair_74_r2_0001_out
     RDKit          3D

 82 86  0  0  0  0  0  0  0  0999 V2000
   -1.7540   14.7910    0.4620 C   0  0  0  0  0  0  0  0  0  0  0  0
   -0.4140   15.5010    0.2530 C   0  0  2  0  0  0  0  0  0  0  0  0
   -0.4690   16.5170   -0.9050 C   0  0  0  0  0  0  0  0  0  0  0  0
   -0.0600   17.9360   -0.5000 C   0  0  0  0  0  0  0  0  0  0  0  0
    1.3700   17.9940   -0.0540 C   0  0  2  0  0  0  0  0  0  0  0  0
    2.0400   19.2250   -0.3520 O   0  0  0  0  0  0  0  0  0  0  0  0
    2.5440   18.0540   -1.0130 C   0  0  0  0  0  0  0  0  0  0  0  0
    2.3410   18.0570   -2.4960 C   0  0  0  0  0  0  0  0  0  0  0  0
    3.8900   17.6170   -0.5250 C   0  0  0  0  0  0  0  0  0  0  0  0
    0.6830   14.4760   -0.0060 C   0  0  1  0  0  0  0  0  0  0  0  0
    0.8200   13.4440    1.1450 C   0  0  0  0  0  0  0  0  0  0  0  0
    1.2050   12.0920    0.4910 C   0  0  0  0  0  0  0  0  0  0  0  0
    1.6000   12.4590   -0.9590 C   0  0  1  0  0  0  0  0  0  0  0  0
    3.0700   12.9720   -0.8570 C   0  0  0  0  0  0  0  0  0  0  0  0
    1.4570   11.3220   -2.0220 C   0  0  2  0  0  0  0  0  0  0  0  0
    2.3490   10.0900   -1.7840 C   0  0  0  0  0  0  0  0  0  0  0  0
    3.6940   10.1420   -2.4300 C   0  0  0  0  0  0  0  0  0  0  0  0
    4.0630   10.9990   -3.4000 C   0  0  0  0  0  0  0  0  0  0  0  0
    3.0530   11.9770   -4.0140 C   0  0  1  0  0  0  0  0  0  0  0  0
    3.1790   11.9490   -5.5600 C   0  0  0  0  0  0  0  0  0  0  0  0
    4.6050   12.2080   -6.0360 C   0  0  0  0  0  0  0  0  0  0  0  0
    5.5700   11.1810   -5.4500 C   0  0  2  0  0  0  0  0  0  0  0  0
    5.2630    9.8950   -5.9980 O   0  0  0  0  0  0  0  0  0  0  0  0
    5.5250   11.1120   -3.8980 C   0  0  0  0  0  0  0  0  0  0  0  0
    6.1430   12.4010   -3.3020 C   0  0  0  0  0  0  0  0  0  0  0  0
    6.4390    9.9420   -3.4450 C   0  0  0  0  0  0  0  0  0  0  0  0
    1.5500   11.8210   -3.5210 C   0  0  1  0  0  0  0  0  0  0  0  0
    0.8120   10.7580   -4.3910 C   0  0  0  0  0  0  0  0  0  0  0  0
    0.7910   13.1820   -3.7460 C   0  0  0  0  0  0  0  0  0  0  0  0
    0.8700   14.2180   -2.6090 C   0  0  0  0  0  0  0  0  0  0  0  0
    0.5350   13.5770   -1.2590 C   0  0  2  0  0  0  0  0  0  0  0  0
   -0.9460   13.0710   -1.3240 C   0  0  0  0  0  0  0  0  0  0  0  0
   -1.9498   14.6872    1.5394 H   0  0  0  0  0  0  0  0  0  0  0  0
   -2.5580   15.3814   -0.0016 H   0  0  0  0  0  0  0  0  0  0  0  0
   -1.7170   13.7942   -0.0016 H   0  0  0  0  0  0  0  0  0  0  0  0
   -0.1901   16.0608    1.1730 H   0  0  0  0  0  0  0  0  0  0  0  0
    0.2091   16.1739   -1.7003 H   0  0  0  0  0  0  0  0  0  0  0  0
   -1.5160   16.5675   -1.2384 H   0  0  0  0  0  0  0  0  0  0  0  0
   -0.1918   18.6052   -1.3630 H   0  0  0  0  0  0  0  0  0  0  0  0
   -0.6951   18.2492    0.3418 H   0  0  0  0  0  0  0  0  0  0  0  0
    1.1526   17.3437    0.8062 H   0  0  0  0  0  0  0  0  0  0  0  0
    1.2639   18.0729   -2.7186 H   0  0  0  0  0  0  0  0  0  0  0  0
    2.8182   18.9482   -2.9296 H   0  0  0  0  0  0  0  0  0  0  0  0
    2.7917   17.1521   -2.9296 H   0  0  0  0  0  0  0  0  0  0  0  0
    3.8981   17.6144    0.5750 H   0  0  0  0  0  0  0  0  0  0  0  0
    4.1031   16.6035   -0.8957 H   0  0  0  0  0  0  0  0  0  0  0  0
    4.6578   18.3120   -0.8957 H   0  0  0  0  0  0  0  0  0  0  0  0
    1.5421   15.1522   -0.1275 H   0  0  0  0  0  0  0  0  0  0  0  0
    1.6046   13.7620    1.8473 H   0  0  0  0  0  0  0  0  0  0  0  0
   -0.1197   13.3558    1.7099 H   0  0  0  0  0  0  0  0  0  0  0  0
    2.0528   11.6321    1.0200 H   0  0  0  0  0  0  0  0  0  0  0  0
    0.3832   11.3617    0.5276 H   0  0  0  0  0  0  0  0  0  0  0  0
    3.3514   13.0702    0.2018 H   0  0  0  0  0  0  0  0  0  0  0  0
    3.7434   12.2557   -1.3505 H   0  0  0  0  0  0  0  0  0  0  0  0
    3.1515   13.9517   -1.3505 H   0  0  0  0  0  0  0  0  0  0  0  0
    0.4241   10.9788   -1.8627 H   0  0  0  0  0  0  0  0  0  0  0  0
    2.4969    9.9819   -0.6994 H   0  0  0  0  0  0  0  0  0  0  0  0
    1.8232    9.2403   -2.2439 H   0  0  0  0  0  0  0  0  0  0  0  0
    4.4471    9.4187   -2.0839 H   0  0  0  0  0  0  0  0  0  0  0  0
    3.3254   12.9734   -3.6357 H   0  0  0  0  0  0  0  0  0  0  0  0
    2.8607   10.9601   -5.9218 H   0  0  0  0  0  0  0  0  0  0  0  0
    2.5424   12.7513   -5.9612 H   0  0  0  0  0  0  0  0  0  0  0  0
    4.6352   12.1451   -7.1338 H   0  0  0  0  0  0  0  0  0  0  0  0
    4.9112   13.2096   -5.6998 H   0  0  0  0  0  0  0  0  0  0  0  0
    6.5891   11.4952   -5.7197 H   0  0  0  0  0  0  0  0  0  0  0  0
    4.3440    9.9220   -6.3130 H   0  0  0  0  0  0  0  0  0  0  0  0
    6.1168   12.3463   -2.2037 H   0  0  0  0  0  0  0  0  0  0  0  0
    7.1855   12.4978   -3.6395 H   0  0  0  0  0  0  0  0  0  0  0  0
    5.5657   13.2744   -3.6395 H   0  0  0  0  0  0  0  0  0  0  0  0
    6.4686    9.9041   -2.3460 H   0  0  0  0  0  0  0  0  0  0  0  0
    6.0403    8.9935   -3.8340 H   0  0  0  0  0  0  0  0  0  0  0  0
    7.4558   10.0993   -3.8340 H   0  0  0  0  0  0  0  0  0  0  0  0
    0.3085   10.0327   -3.7349 H   0  0  0  0  0  0  0  0  0  0  0  0
    0.0657   11.2579   -5.0259 H   0  0  0  0  0  0  0  0  0  0  0  0
    1.5412   10.2335   -5.0259 H   0  0  0  0  0  0  0  0  0  0  0  0
    1.2066   13.6490   -4.6511 H   0  0  0  0  0  0  0  0  0  0  0  0
   -0.2727   12.9102   -3.8141 H   0  0  0  0  0  0  0  0  0  0  0  0
    1.8888   14.6307   -2.5684 H   0  0  0  0  0  0  0  0  0  0  0  0
    0.1392   15.0153   -2.8096 H   0  0  0  0  0  0  0  0  0  0  0  0
   -1.3334   12.9386   -0.3030 H   0  0  0  0  0  0  0  0  0  0  0  0
   -1.5627   13.8094   -1.8573 H   0  0  0  0  0  0  0  0  0  0  0  0
   -0.9819   12.1096   -1.8573 H   0  0  0  0  0  0  0  0  0  0  0  0
  1  2  1  0
  2  3  1  0
  3  4  1  0
  4  5  1  0
  5  6  1  0
  6  7  1  0
  7  8  1  0
  7  9  1  0
  2 10  1  0
 10 11  1  0
 11 12  1  0
 12 13  1  0
 13 14  1  1
 13 15  1  0
 15 16  1  0
 16 17  1  0
 17 18  2  0
 18 19  1  0
 19 20  1  0
 20 21  1  0
 21 22  1  0
 22 23  1  0
 22 24  1  0
 24 25  1  0
 24 26  1  0
 19 27  1  0
 27 28  1  6
 27 29  1  0
 29 30  1  0
 30 31  1  0
 31 32  1  6
  7  5  1  0
 31 10  1  0
 31 13  1  0
 27 15  1  0
 24 18  1  0
  1 33  1  0
  1 34  1  0
  1 35  1  0
  2 36  1  1
  3 37  1  0
  3 38  1  0
  4 39  1  0
  4 40  1  0
  5 41  1  1
  8 42  1  0
  8 43  1  0
  8 44  1  0
  9 45  1  0
  9 46  1  0
  9 47  1  0
 10 48  1  6
 11 49  1  0
 11 50  1  0
 12 51  1  0
 12 52  1  0
 14 53  1  0
 14 54  1  0
 14 55  1  0
 15 56  1  6
 16 57  1  0
 16 58  1  0
 17 59  1  0
 19 60  1  1
 20 61  1  0
 20 62  1  0
 21 63  1  0
 21 64  1  0
 22 65  1  1
 23 66  1  0
 25 67  1  0
 25 68  1  0
 25 69  1  0
 26 70  1  0
 26 71  1  0
 26 72  1  0
 28 73  1  0
 28 74  1  0
 28 75  1  0
 29 76  1  0
 29 77  1  0
 30 78  1  0
 30 79  1  0
 32 80  1  0
 32 81  1  0
 32 82  1  0
M  END
>  <meeko>  (19) 
{"is_sidechain": [false], "intermolecular_energy": 2.731, "internal_energy": -0.839}

$$$$
EPH_relaxed_0001_pdb2pqr_Repair_74_r2_0001_out
     RDKit          3D

 82 86  0  0  0  0  0  0  0  0999 V2000
    3.1170   14.8260   -7.5350 C   0  0  0  0  0  0  0  0  0  0  0  0
    1.5930   14.8580   -7.3890 C   0  0  2  0  0  0  0  0  0  0  0  0
    0.9710   16.0970   -8.0620 C   0  0  0  0  0  0  0  0  0  0  0  0
    1.8970   16.7780   -9.0740 C   0  0  0  0  0  0  0  0  0  0  0  0
    1.5720   16.3760  -10.4810 C   0  0  2  0  0  0  0  0  0  0  0  0
    0.9940   15.0710  -10.6120 O   0  0  0  0  0  0  0  0  0  0  0  0
    2.2840   15.2570  -11.2170 C   0  0  0  0  0  0  0  0  0  0  0  0
    3.3790   14.4690  -10.5690 C   0  0  0  0  0  0  0  0  0  0  0  0
    2.2540   15.2520  -12.7140 C   0  0  0  0  0  0  0  0  0  0  0  0
    1.2110   14.8190   -5.9140 C   0  0  1  0  0  0  0  0  0  0  0  0
   -0.0400   15.6810   -5.5980 C   0  0  0  0  0  0  0  0  0  0  0  0
   -0.8190   14.9450   -4.4780 C   0  0  0  0  0  0  0  0  0  0  0  0
    0.1660   13.8720   -3.9580 C   0  0  1  0  0  0  0  0  0  0  0  0
    1.1080   14.6360   -2.9750 C   0  0  0  0  0  0  0  0  0  0  0  0
   -0.4740   12.6140   -3.2850 C   0  0  2  0  0  0  0  0  0  0  0  0
   -1.2880   12.8990   -2.0110 C   0  0  0  0  0  0  0  0  0  0  0  0
   -0.5160   12.8420   -0.7340 C   0  0  0  0  0  0  0  0  0  0  0  0
    0.7060   12.2970   -0.5830 C   0  0  0  0  0  0  0  0  0  0  0  0
    1.3950   11.5740   -1.7470 C   0  0  1  0  0  0  0  0  0  0  0  0
    1.9790   10.2270   -1.2470 C   0  0  0  0  0  0  0  0  0  0  0  0
    2.8970   10.3990   -0.0410 C   0  0  0  0  0  0  0  0  0  0  0  0
    2.1590   11.0680    1.1160 C   0  0  2  0  0  0  0  0  0  0  0  0
    1.1440   10.1790    1.5910 O   0  0  0  0  0  0  0  0  0  0  0  0
    1.5200   12.4310    0.7270 C   0  0  0  0  0  0  0  0  0  0  0  0
    2.6340   13.4830    0.5030 C   0  0  0  0  0  0  0  0  0  0  0  0
    0.6880   12.9310    1.9400 C   0  0  0  0  0  0  0  0  0  0  0  0
    0.5320   11.4110   -3.0710 C   0  0  1  0  0  0  0  0  0  0  0  0
   -0.3340   10.1170   -2.9860 C   0  0  0  0  0  0  0  0  0  0  0  0
    1.5010   11.2170   -4.2970 C   0  0  0  0  0  0  0  0  0  0  0  0
    2.0040   12.4950   -4.9940 C   0  0  0  0  0  0  0  0  0  0  0  0
    0.8420   13.4410   -5.3100 C   0  0  2  0  0  0  0  0  0  0  0  0
   -0.1110   12.7090   -6.3150 C   0  0  0  0  0  0  0  0  0  0  0  0
    3.5808   14.8163   -6.5376 H   0  0  0  0  0  0  0  0  0  0  0  0
    3.4136   13.9214   -8.0861 H   0  0  0  0  0  0  0  0  0  0  0  0
    3.4513   15.7173   -8.0861 H   0  0  0  0  0  0  0  0  0  0  0  0
    1.1931   13.9697   -7.8999 H   0  0  0  0  0  0  0  0  0  0  0  0
    0.0548   15.7850   -8.5848 H   0  0  0  0  0  0  0  0  0  0  0  0
    0.7713   16.8291   -7.2657 H   0  0  0  0  0  0  0  0  0  0  0  0
    1.7869   17.8685   -8.9804 H   0  0  0  0  0  0  0  0  0  0  0  0
    2.9295   16.4660   -8.8581 H   0  0  0  0  0  0  0  0  0  0  0  0
    1.3580   17.4197  -10.7548 H   0  0  0  0  0  0  0  0  0  0  0  0
    3.2828   14.5382   -9.4754 H   0  0  0  0  0  0  0  0  0  0  0  0
    3.3049   13.4158  -10.8777 H   0  0  0  0  0  0  0  0  0  0  0  0
    4.3541   14.8738  -10.8777 H   0  0  0  0  0  0  0  0  0  0  0  0
    1.2239   15.0803  -13.0595 H   0  0  0  0  0  0  0  0  0  0  0  0
    2.6104   16.2219  -13.0911 H   0  0  0  0  0  0  0  0  0  0  0  0
    2.9057   14.4501  -13.0911 H   0  0  0  0  0  0  0  0  0  0  0  0
    2.1497   15.1837   -5.4715 H   0  0  0  0  0  0  0  0  0  0  0  0
    0.2655   16.6799   -5.2533 H   0  0  0  0  0  0  0  0  0  0  0  0
   -0.6655   15.8124   -6.4933 H   0  0  0  0  0  0  0  0  0  0  0  0
   -1.0936   15.6427   -3.6731 H   0  0  0  0  0  0  0  0  0  0  0  0
   -1.7593   14.5062   -4.8431 H   0  0  0  0  0  0  0  0  0  0  0  0
    0.8221   14.4041   -1.9384 H   0  0  0  0  0  0  0  0  0  0  0  0
    2.1486   14.3235   -3.1470 H   0  0  0  0  0  0  0  0  0  0  0  0
    1.0171   15.7187   -3.1470 H   0  0  0  0  0  0  0  0  0  0  0  0
   -1.2048   12.2886   -4.0400 H   0  0  0  0  0  0  0  0  0  0  0  0
   -1.7201   13.9065   -2.1021 H   0  0  0  0  0  0  0  0  0  0  0  0
   -2.0415   12.1002   -1.9466 H   0  0  0  0  0  0  0  0  0  0  0  0
   -0.9850   13.2822    0.1583 H   0  0  0  0  0  0  0  0  0  0  0  0
    2.2103   12.2355   -2.0753 H   0  0  0  0  0  0  0  0  0  0  0  0
    1.1470    9.5649   -0.9652 H   0  0  0  0  0  0  0  0  0  0  0  0
    2.5781    9.7990   -2.0642 H   0  0  0  0  0  0  0  0  0  0  0  0
    3.2541    9.4104    0.2834 H   0  0  0  0  0  0  0  0  0  0  0  0
    3.7440   11.0373   -0.3329 H   0  0  0  0  0  0  0  0  0  0  0  0
    2.8993   11.2807    1.9014 H   0  0  0  0  0  0  0  0  0  0  0  0
    0.3260   10.6940    1.6940 H   0  0  0  0  0  0  0  0  0  0  0  0
    3.0069   13.8351    1.4761 H   0  0  0  0  0  0  0  0  0  0  0  0
    3.4599   13.0276   -0.0631 H   0  0  0  0  0  0  0  0  0  0  0  0
    2.2266   14.3336   -0.0631 H   0  0  0  0  0  0  0  0  0  0  0  0
    1.1857   12.6319    2.8743 H   0  0  0  0  0  0  0  0  0  0  0  0
    0.6072   14.0274    1.9023 H   0  0  0  0  0  0  0  0  0  0  0  0
   -0.3180   12.4877    1.9023 H   0  0  0  0  0  0  0  0  0  0  0  0
   -0.5062    9.8597   -1.9305 H   0  0  0  0  0  0  0  0  0  0  0  0
   -1.2998   10.2888   -3.4838 H   0  0  0  0  0  0  0  0  0  0  0  0
    0.1931    9.2897   -3.4838 H   0  0  0  0  0  0  0  0  0  0  0  0
    2.3823   10.6637   -3.9403 H   0  0  0  0  0  0  0  0  0  0  0  0
    0.9029   10.6917   -5.0561 H   0  0  0  0  0  0  0  0  0  0  0  0
    2.7166   13.0090   -4.3322 H   0  0  0  0  0  0  0  0  0  0  0  0
    2.4913   12.2107   -5.9383 H   0  0  0  0  0  0  0  0  0  0  0  0
   -0.8617   12.1324   -5.7547 H   0  0  0  0  0  0  0  0  0  0  0  0
   -0.6173   13.4526   -6.9480 H   0  0  0  0  0  0  0  0  0  0  0  0
    0.4769   12.0280   -6.9480 H   0  0  0  0  0  0  0  0  0  0  0  0
  1  2  1  0
  2  3  1  0
  3  4  1  0
  4  5  1  0
  5  6  1  0
  6  7  1  0
  7  8  1  0
  7  9  1  0
  2 10  1  0
 10 11  1  0
 11 12  1  0
 12 13  1  0
 13 14  1  1
 13 15  1  0
 15 16  1  0
 16 17  1  0
 17 18  2  0
 18 19  1  0
 19 20  1  0
 20 21  1  0
 21 22  1  0
 22 23  1  0
 22 24  1  0
 24 25  1  0
 24 26  1  0
 19 27  1  0
 27 28  1  1
 27 29  1  0
 29 30  1  0
 30 31  1  0
 31 32  1  6
  7  5  1  0
 31 10  1  0
 31 13  1  0
 27 15  1  0
 24 18  1  0
  1 33  1  0
  1 34  1  0
  1 35  1  0
  2 36  1  6
  3 37  1  0
  3 38  1  0
  4 39  1  0
  4 40  1  0
  5 41  1  6
  8 42  1  0
  8 43  1  0
  8 44  1  0
  9 45  1  0
  9 46  1  0
  9 47  1  0
 10 48  1  1
 11 49  1  0
 11 50  1  0
 12 51  1  0
 12 52  1  0
 14 53  1  0
 14 54  1  0
 14 55  1  0
 15 56  1  6
 16 57  1  0
 16 58  1  0
 17 59  1  0
 19 60  1  6
 20 61  1  0
 20 62  1  0
 21 63  1  0
 21 64  1  0
 22 65  1  1
 23 66  1  0
 25 67  1  0
 25 68  1  0
 25 69  1  0
 26 70  1  0
 26 71  1  0
 26 72  1  0
 28 73  1  0
 28 74  1  0
 28 75  1  0
 29 76  1  0
 29 77  1  0
 30 78  1  0
 30 79  1  0
 32 80  1  0
 32 81  1  0
 32 82  1  0
M  END
>  <meeko>  (20) 
{"is_sidechain": [false], "intermolecular_energy": 2.731, "internal_energy": -0.839}

$$$$
