EPH_relaxed_0001_pdb2pqr_Repair_267_r2_0001_out
     RDKit          3D

 82 86  0  0  0  0  0  0  0  0999 V2000
   -1.6900    8.5820   -1.8750 C   0  0  0  0  0  0  0  0  0  0  0  0
   -2.0730    9.1110   -0.4900 C   0  0  2  0  0  0  0  0  0  0  0  0
   -3.5670    9.4820   -0.4020 C   0  0  0  0  0  0  0  0  0  0  0  0
   -4.4950    8.2710   -0.2690 C   0  0  0  0  0  0  0  0  0  0  0  0
   -5.1800    7.9530   -1.5630 C   0  0  2  0  0  0  0  0  0  0  0  0
   -6.3550    8.7320   -1.8260 O   0  0  0  0  0  0  0  0  0  0  0  0
   -6.5570    7.3210   -1.6470 C   0  0  0  0  0  0  0  0  0  0  0  0
   -7.3300    6.9680   -0.4150 C   0  0  0  0  0  0  0  0  0  0  0  0
   -6.9390    6.6030   -2.9040 C   0  0  0  0  0  0  0  0  0  0  0  0
   -1.2140   10.3210   -0.1400 C   0  0  1  0  0  0  0  0  0  0  0  0
   -0.1770   10.0150    0.9740 C   0  0  0  0  0  0  0  0  0  0  0  0
    1.0900   10.8460    0.6450 C   0  0  0  0  0  0  0  0  0  0  0  0
    0.6300   11.8440   -0.4430 C   0  0  1  0  0  0  0  0  0  0  0  0
   -0.0750   12.9950    0.3400 C   0  0  0  0  0  0  0  0  0  0  0  0
    1.7440   12.3910   -1.3940 C   0  0  2  0  0  0  0  0  0  0  0  0
    2.8490   13.2090   -0.7020 C   0  0  0  0  0  0  0  0  0  0  0  0
    2.5960   14.6770   -0.6140 C   0  0  0  0  0  0  0  0  0  0  0  0
    1.6680   15.3550   -1.3160 C   0  0  0  0  0  0  0  0  0  0  0  0
    0.8200   14.6510   -2.3830 C   0  0  1  0  0  0  0  0  0  0  0  0
    0.7850   15.5170   -3.6700 C   0  0  0  0  0  0  0  0  0  0  0  0
    0.3200   16.9450   -3.4020 C   0  0  0  0  0  0  0  0  0  0  0  0
    1.2220   17.6300   -2.3790 C   0  0  2  0  0  0  0  0  0  0  0  0
    2.5210   17.8030   -2.9540 O   0  0  0  0  0  0  0  0  0  0  0  0
    1.3420   16.8440   -1.0440 C   0  0  0  0  0  0  0  0  0  0  0  0
   -0.0000   16.9150   -0.2760 C   0  0  0  0  0  0  0  0  0  0  0  0
    2.3900   17.5680   -0.1560 C   0  0  0  0  0  0  0  0  0  0  0  0
    1.1930   13.1350   -2.6770 C   0  0  1  0  0  0  0  0  0  0  0  0
    2.3210   13.0640   -3.7520 C   0  0  0  0  0  0  0  0  0  0  0  0
   -0.0580   12.4090   -3.2990 C   0  0  0  0  0  0  0  0  0  0  0  0
   -1.0610   11.7850   -2.3100 C   0  0  0  0  0  0  0  0  0  0  0  0
   -0.3400   10.9230   -1.2680 C   0  0  2  0  0  0  0  0  0  0  0  0
    0.3600    9.7440   -2.0250 C   0  0  0  0  0  0  0  0  0  0  0  0
   -1.0482    7.6955   -1.7643 H   0  0  0  0  0  0  0  0  0  0  0  0
   -2.6008    8.3085   -2.4278 H   0  0  0  0  0  0  0  0  0  0  0  0
   -1.1458    9.3619   -2.4278 H   0  0  0  0  0  0  0  0  0  0  0  0
   -1.8908    8.3035    0.2344 H   0  0  0  0  0  0  0  0  0  0  0  0
   -3.7130   10.1295    0.4752 H   0  0  0  0  0  0  0  0  0  0  0  0
   -3.8292    9.9861   -1.3439 H   0  0  0  0  0  0  0  0  0  0  0  0
   -3.9011    7.3994    0.0436 H   0  0  0  0  0  0  0  0  0  0  0  0
   -5.2665    8.5106    0.4776 H   0  0  0  0  0  0  0  0  0  0  0  0
   -4.2202    7.6968   -2.0354 H   0  0  0  0  0  0  0  0  0  0  0  0
   -6.7428    7.2361    0.4757 H   0  0  0  0  0  0  0  0  0  0  0  0
   -8.2807    7.5212   -0.4076 H   0  0  0  0  0  0  0  0  0  0  0  0
   -7.5346    5.8872   -0.4076 H   0  0  0  0  0  0  0  0  0  0  0  0
   -7.4415    5.6585   -2.6485 H   0  0  0  0  0  0  0  0  0  0  0  0
   -7.6210    7.2334   -3.4935 H   0  0  0  0  0  0  0  0  0  0  0  0
   -6.0352    6.3897   -3.4935 H   0  0  0  0  0  0  0  0  0  0  0  0
   -2.0039   11.0320    0.1438 H   0  0  0  0  0  0  0  0  0  0  0  0
   -0.5779   10.3078    1.9556 H   0  0  0  0  0  0  0  0  0  0  0  0
    0.0545    8.9404    1.0142 H   0  0  0  0  0  0  0  0  0  0  0  0
    1.4459   11.3814    1.5376 H   0  0  0  0  0  0  0  0  0  0  0  0
    1.9259   10.2161    0.3068 H   0  0  0  0  0  0  0  0  0  0  0  0
    0.0312   12.8217    1.4211 H   0  0  0  0  0  0  0  0  0  0  0  0
    0.3893   13.9565    0.0755 H   0  0  0  0  0  0  0  0  0  0  0  0
   -1.1425   13.0182    0.0755 H   0  0  0  0  0  0  0  0  0  0  0  0
    2.2295   11.4679   -1.7437 H   0  0  0  0  0  0  0  0  0  0  0  0
    2.9675   12.8227    0.3211 H   0  0  0  0  0  0  0  0  0  0  0  0
    3.7485   13.0923   -1.3243 H   0  0  0  0  0  0  0  0  0  0  0  0
    3.2206   15.2544    0.0835 H   0  0  0  0  0  0  0  0  0  0  0  0
   -0.1924   14.5679   -1.9609 H   0  0  0  0  0  0  0  0  0  0  0  0
    1.7969   15.5506   -4.1000 H   0  0  0  0  0  0  0  0  0  0  0  0
    0.0656   15.0562   -4.3629 H   0  0  0  0  0  0  0  0  0  0  0  0
    0.3457   17.5144   -4.3428 H   0  0  0  0  0  0  0  0  0  0  0  0
   -0.7035   16.9112   -3.0004 H   0  0  0  0  0  0  0  0  0  0  0  0
    0.7641   18.5991   -2.1315 H   0  0  0  0  0  0  0  0  0  0  0  0
    2.5720   18.7110   -3.2990 H   0  0  0  0  0  0  0  0  0  0  0  0
    0.1960   16.9046    0.8064 H   0  0  0  0  0  0  0  0  0  0  0  0
   -0.5274   17.8423   -0.5443 H   0  0  0  0  0  0  0  0  0  0  0  0
   -0.6223   16.0485   -0.5443 H   0  0  0  0  0  0  0  0  0  0  0  0
    2.1495   17.4018    0.9044 H   0  0  0  0  0  0  0  0  0  0  0  0
    3.3920   17.1686   -0.3717 H   0  0  0  0  0  0  0  0  0  0  0  0
    2.3710   18.6465   -0.3717 H   0  0  0  0  0  0  0  0  0  0  0  0
    3.2995   13.0024   -3.2532 H   0  0  0  0  0  0  0  0  0  0  0  0
    2.1731   12.1734   -4.3804 H   0  0  0  0  0  0  0  0  0  0  0  0
    2.2859   13.9661   -4.3804 H   0  0  0  0  0  0  0  0  0  0  0  0
   -0.6037   13.1469   -3.9054 H   0  0  0  0  0  0  0  0  0  0  0  0
    0.3534   11.5608   -3.8658 H   0  0  0  0  0  0  0  0  0  0  0  0
   -1.6071   12.5895   -1.7958 H   0  0  0  0  0  0  0  0  0  0  0  0
   -1.7571   11.1458   -2.8729 H   0  0  0  0  0  0  0  0  0  0  0  0
    0.7798    9.0370   -1.2943 H   0  0  0  0  0  0  0  0  0  0  0  0
   -0.3764    9.2250   -2.6562 H   0  0  0  0  0  0  0  0  0  0  0  0
    1.1682   10.1420   -2.6562 H   0  0  0  0  0  0  0  0  0  0  0  0
  1  2  1  0
  2  3  1  0
  3  4  1  0
  4  5  1  0
  5  6  1  0
  6  7  1  0
  7  8  1  0
  7  9  1  0
  2 10  1  0
 10 11  1  0
 11 12  1  0
 12 13  1  0
 13 14  1  1
 13 15  1  0
 15 16  1  0
 16 17  1  0
 17 18  2  0
 18 19  1  0
 19 20  1  0
 20 21  1  0
 21 22  1  0
 22 23  1  0
 22 24  1  0
 24 25  1  0
 24 26  1  0
 19 27  1  0
 27 28  1  6
 27 29  1  0
 29 30  1  0
 30 31  1  0
 31 32  1  6
  7  5  1  0
 31 10  1  0
 31 13  1  0
 27 15  1  0
 24 18  1  0
  1 33  1  0
  1 34  1  0
  1 35  1  0
  2 36  1  1
  3 37  1  0
  3 38  1  0
  4 39  1  0
  4 40  1  0
  5 41  1  6
  8 42  1  0
  8 43  1  0
  8 44  1  0
  9 45  1  0
  9 46  1  0
  9 47  1  0
 10 48  1  1
 11 49  1  0
 11 50  1  0
 12 51  1  0
 12 52  1  0
 14 53  1  0
 14 54  1  0
 14 55  1  0
 15 56  1  6
 16 57  1  0
 16 58  1  0
 17 59  1  0
 19 60  1  1
 20 61  1  0
 20 62  1  0
 21 63  1  0
 21 64  1  0
 22 65  1  1
 23 66  1  0
 25 67  1  0
 25 68  1  0
 25 69  1  0
 26 70  1  0
 26 71  1  0
 26 72  1  0
 28 73  1  0
 28 74  1  0
 28 75  1  0
 29 76  1  0
 29 77  1  0
 30 78  1  0
 30 79  1  0
 32 80  1  0
 32 81  1  0
 32 82  1  0
M  END
>  <meeko>  (1) 
{"is_sidechain": [false], "intermolecular_energy": 2.731, "internal_energy": -0.839}

$$$$
EPH_relaxed_0001_pdb2pqr_Repair_267_r2_0001_out
     RDKit          3D

 82 86  0  0  0  0  0  0  0  0999 V2000
    4.2010   17.5710   -0.6380 C   0  0  0  0  0  0  0  0  0  0  0  0
    2.8410   18.1410   -0.2280 C   0  0  2  0  0  0  0  0  0  0  0  0
    2.8930   18.8400    1.1450 C   0  0  0  0  0  0  0  0  0  0  0  0
    4.2480   18.7150    1.8480 C   0  0  0  0  0  0  0  0  0  0  0  0
    4.1940   19.2350    3.2530 C   0  0  2  0  0  0  0  0  0  0  0  0
    5.2090   20.1940    3.5750 O   0  0  0  0  0  0  0  0  0  0  0  0
    5.2630   18.9500    4.2910 C   0  0  0  0  0  0  0  0  0  0  0  0
    6.4610   18.1140    3.9690 C   0  0  0  0  0  0  0  0  0  0  0  0
    4.9030   19.0730    5.7390 C   0  0  0  0  0  0  0  0  0  0  0  0
    1.7970   17.0300   -0.2070 C   0  0  1  0  0  0  0  0  0  0  0  0
    0.3670   17.5480   -0.5180 C   0  0  0  0  0  0  0  0  0  0  0  0
   -0.3510   16.4270   -1.3130 C   0  0  0  0  0  0  0  0  0  0  0  0
    0.5580   15.1870   -1.1470 C   0  0  1  0  0  0  0  0  0  0  0  0
    0.1900   14.6040    0.2530 C   0  0  0  0  0  0  0  0  0  0  0  0
    0.4590   14.1020   -2.2680 C   0  0  2  0  0  0  0  0  0  0  0  0
   -0.9190   13.4320   -2.4080 C   0  0  0  0  0  0  0  0  0  0  0  0
   -1.1140   12.1990   -1.5880 C   0  0  0  0  0  0  0  0  0  0  0  0
   -0.1360   11.4910   -0.9940 C   0  0  0  0  0  0  0  0  0  0  0  0
    1.3390   11.8600   -1.2010 C   0  0  1  0  0  0  0  0  0  0  0  0
    2.1550   10.5780   -1.5110 C   0  0  0  0  0  0  0  0  0  0  0  0
    1.9670    9.4940   -0.4540 C   0  0  0  0  0  0  0  0  0  0  0  0
    0.4950    9.1130   -0.3190 C   0  0  2  0  0  0  0  0  0  0  0  0
    0.0700    8.4780   -1.5290 O   0  0  0  0  0  0  0  0  0  0  0  0
   -0.4270   10.3280   -0.0150 C   0  0  0  0  0  0  0  0  0  0  0  0
   -0.1680   10.8290    1.4270 C   0  0  0  0  0  0  0  0  0  0  0  0
   -1.8970    9.8300   -0.0450 C   0  0  0  0  0  0  0  0  0  0  0  0
    1.6230   13.0300   -2.2380 C   0  0  1  0  0  0  0  0  0  0  0  0
    1.7290   12.4470   -3.6810 C   0  0  0  0  0  0  0  0  0  0  0  0
    3.0220   13.6750   -1.9160 C   0  0  0  0  0  0  0  0  0  0  0  0
    3.0380   14.8230   -0.8880 C   0  0  0  0  0  0  0  0  0  0  0  0
    1.9720   15.8710   -1.2200 C   0  0  2  0  0  0  0  0  0  0  0  0
    2.3290   16.4910   -2.6140 C   0  0  0  0  0  0  0  0  0  0  0  0
    4.7830   17.3271    0.2630 H   0  0  0  0  0  0  0  0  0  0  0  0
    4.0515   16.6598   -1.2358 H   0  0  0  0  0  0  0  0  0  0  0  0
    4.7459   18.3165   -1.2358 H   0  0  0  0  0  0  0  0  0  0  0  0
    2.5626   18.9000   -0.9740 H   0  0  0  0  0  0  0  0  0  0  0  0
    2.6744   19.9082    0.9995 H   0  0  0  0  0  0  0  0  0  0  0  0
    2.1505   18.3436    1.7870 H   0  0  0  0  0  0  0  0  0  0  0  0
    4.5411   17.6550    1.8713 H   0  0  0  0  0  0  0  0  0  0  0  0
    4.9811   19.3146    1.2885 H   0  0  0  0  0  0  0  0  0  0  0  0
    3.0989   19.1334    3.2744 H   0  0  0  0  0  0  0  0  0  0  0  0
    6.9377   17.7813    4.9029 H   0  0  0  0  0  0  0  0  0  0  0  0
    6.1491   17.2364    3.3837 H   0  0  0  0  0  0  0  0  0  0  0  0
    7.1771   18.7095    3.3837 H   0  0  0  0  0  0  0  0  0  0  0  0
    5.7640   18.7788    6.3572 H   0  0  0  0  0  0  0  0  0  0  0  0
    4.6306   20.1152    5.9619 H   0  0  0  0  0  0  0  0  0  0  0  0
    4.0499   18.4154    5.9619 H   0  0  0  0  0  0  0  0  0  0  0  0
    1.9428   16.6589    0.8182 H   0  0  0  0  0  0  0  0  0  0  0  0
   -0.1731   17.7544    0.4178 H   0  0  0  0  0  0  0  0  0  0  0  0
    0.4024   18.4826   -1.0970 H   0  0  0  0  0  0  0  0  0  0  0  0
   -1.3505   16.2344   -0.8960 H   0  0  0  0  0  0  0  0  0  0  0  0
   -0.5013   16.6955   -2.3691 H   0  0  0  0  0  0  0  0  0  0  0  0
    0.6002   15.2538    1.0401 H   0  0  0  0  0  0  0  0  0  0  0  0
   -0.9043   14.5530    0.3529 H   0  0  0  0  0  0  0  0  0  0  0  0
    0.6147   13.5942    0.3529 H   0  0  0  0  0  0  0  0  0  0  0  0
    0.5964   14.6962   -3.1835 H   0  0  0  0  0  0  0  0  0  0  0  0
   -1.6846   14.1634   -2.1098 H   0  0  0  0  0  0  0  0  0  0  0  0
   -0.9986   13.1152   -3.4584 H   0  0  0  0  0  0  0  0  0  0  0  0
   -2.1453   11.8389   -1.4586 H   0  0  0  0  0  0  0  0  0  0  0  0
    1.6785   12.2980   -0.2508 H   0  0  0  0  0  0  0  0  0  0  0  0
    1.8314   10.1810   -2.4845 H   0  0  0  0  0  0  0  0  0  0  0  0
    3.2197   10.8543   -1.5197 H   0  0  0  0  0  0  0  0  0  0  0  0
    2.5441    8.6038   -0.7447 H   0  0  0  0  0  0  0  0  0  0  0  0
    2.3194    9.8819    0.5132 H   0  0  0  0  0  0  0  0  0  0  0  0
    0.4084    8.4306    0.5394 H   0  0  0  0  0  0  0  0  0  0  0  0
    0.0030    7.5240   -1.3520 H   0  0  0  0  0  0  0  0  0  0  0  0
   -0.5502   10.0897    2.1462 H   0  0  0  0  0  0  0  0  0  0  0  0
    0.9129   10.9642    1.5796 H   0  0  0  0  0  0  0  0  0  0  0  0
   -0.6827   11.7891    1.5796 H   0  0  0  0  0  0  0  0  0  0  0  0
   -2.2632    9.7059    0.9848 H   0  0  0  0  0  0  0  0  0  0  0  0
   -2.5229   10.5662   -0.5705 H   0  0  0  0  0  0  0  0  0  0  0  0
   -1.9465    8.8649   -0.5705 H   0  0  0  0  0  0  0  0  0  0  0  0
    1.9255   11.3661   -3.6262 H   0  0  0  0  0  0  0  0  0  0  0  0
    0.7845   12.6212   -4.2172 H   0  0  0  0  0  0  0  0  0  0  0  0
    2.5518   12.9426   -4.2172 H   0  0  0  0  0  0  0  0  0  0  0  0
    3.6762   12.8773   -1.5342 H   0  0  0  0  0  0  0  0  0  0  0  0
    3.3533   14.1303   -2.8610 H   0  0  0  0  0  0  0  0  0  0  0  0
    2.8395   14.4124    0.1130 H   0  0  0  0  0  0  0  0  0  0  0  0
    4.0258   15.3061   -0.9171 H   0  0  0  0  0  0  0  0  0  0  0  0
    2.8730   17.4357   -2.4667 H   0  0  0  0  0  0  0  0  0  0  0  0
    2.9607   15.7881   -3.1770 H   0  0  0  0  0  0  0  0  0  0  0  0
    1.4040   16.6845   -3.1770 H   0  0  0  0  0  0  0  0  0  0  0  0
  1  2  1  0
  2  3  1  0
  3  4  1  0
  4  5  1  0
  5  6  1  0
  6  7  1  0
  7  8  1  0
  7  9  1  0
  2 10  1  0
 10 11  1  0
 11 12  1  0
 12 13  1  0
 13 14  1  1
 13 15  1  0
 15 16  1  0
 16 17  1  0
 17 18  2  0
 18 19  1  0
 19 20  1  0
 20 21  1  0
 21 22  1  0
 22 23  1  0
 22 24  1  0
 24 25  1  0
 24 26  1  0
 19 27  1  0
 27 28  1  6
 27 29  1  0
 29 30  1  0
 30 31  1  0
 31 32  1  6
  7  5  1  0
 31 10  1  0
 31 13  1  0
 27 15  1  0
 24 18  1  0
  1 33  1  0
  1 34  1  0
  1 35  1  0
  2 36  1  6
  3 37  1  0
  3 38  1  0
  4 39  1  0
  4 40  1  0
  5 41  1  1
  8 42  1  0
  8 43  1  0
  8 44  1  0
  9 45  1  0
  9 46  1  0
  9 47  1  0
 10 48  1  1
 11 49  1  0
 11 50  1  0
 12 51  1  0
 12 52  1  0
 14 53  1  0
 14 54  1  0
 14 55  1  0
 15 56  1  6
 16 57  1  0
 16 58  1  0
 17 59  1  0
 19 60  1  1
 20 61  1  0
 20 62  1  0
 21 63  1  0
 21 64  1  0
 22 65  1  1
 23 66  1  0
 25 67  1  0
 25 68  1  0
 25 69  1  0
 26 70  1  0
 26 71  1  0
 26 72  1  0
 28 73  1  0
 28 74  1  0
 28 75  1  0
 29 76  1  0
 29 77  1  0
 30 78  1  0
 30 79  1  0
 32 80  1  0
 32 81  1  0
 32 82  1  0
M  END
>  <meeko>  (2) 
{"is_sidechain": [false], "intermolecular_energy": 2.731, "internal_energy": -0.839}

$$$$
EPH_relaxed_0001_pdb2pqr_Repair_267_r2_0001_out
     RDKit          3D

 82 86  0  0  0  0  0  0  0  0999 V2000
    2.5160   18.0360   -2.5380 C   0  0  0  0  0  0  0  0  0  0  0  0
    1.1750   17.6990   -1.8810 C   0  0  2  0  0  0  0  0  0  0  0  0
    1.2480   17.7690   -0.3420 C   0  0  0  0  0  0  0  0  0  0  0  0
    0.8840   19.1420    0.2290 C   0  0  0  0  0  0  0  0  0  0  0  0
   -0.5630   19.2160    0.6140 C   0  0  2  0  0  0  0  0  0  0  0  0
   -1.4150   18.2950   -0.0800 O   0  0  0  0  0  0  0  0  0  0  0  0
   -1.6550   19.6900   -0.3260 C   0  0  0  0  0  0  0  0  0  0  0  0
   -1.3470   20.1230   -1.7250 C   0  0  0  0  0  0  0  0  0  0  0  0
   -2.9360   20.1940    0.2610 C   0  0  0  0  0  0  0  0  0  0  0  0
    0.7160   16.3130   -2.3180 C   0  0  1  0  0  0  0  0  0  0  0  0
    0.8250   16.1030   -3.8520 C   0  0  0  0  0  0  0  0  0  0  0  0
    1.2120   14.6190   -4.0740 C   0  0  0  0  0  0  0  0  0  0  0  0
    0.9880   13.9470   -2.6990 C   0  0  1  0  0  0  0  0  0  0  0  0
   -0.5460   13.6690   -2.6330 C   0  0  0  0  0  0  0  0  0  0  0  0
    1.8220   12.6550   -2.4170 C   0  0  2  0  0  0  0  0  0  0  0  0
    1.5370   11.4750   -3.3630 C   0  0  0  0  0  0  0  0  0  0  0  0
    0.4620   10.5420   -2.9130 C   0  0  0  0  0  0  0  0  0  0  0  0
   -0.0490   10.4790   -1.6690 C   0  0  0  0  0  0  0  0  0  0  0  0
    0.5260   11.3410   -0.5370 C   0  0  1  0  0  0  0  0  0  0  0  0
    0.7300   10.4650    0.7270 C   0  0  0  0  0  0  0  0  0  0  0  0
   -0.5400    9.7300    1.1410 C   0  0  0  0  0  0  0  0  0  0  0  0
   -1.0480    8.8390    0.0100 C   0  0  2  0  0  0  0  0  0  0  0  0
   -0.1060    7.7840   -0.2060 O   0  0  0  0  0  0  0  0  0  0  0  0
   -1.2820    9.6110   -1.3190 C   0  0  0  0  0  0  0  0  0  0  0  0
   -2.5080   10.5450   -1.1700 C   0  0  0  0  0  0  0  0  0  0  0  0
   -1.6560    8.5740   -2.4130 C   0  0  0  0  0  0  0  0  0  0  0  0
    1.8150   12.1960   -0.9030 C   0  0  1  0  0  0  0  0  0  0  0  0
    3.1000   11.3380   -0.6910 C   0  0  0  0  0  0  0  0  0  0  0  0
    1.9240   13.4120    0.0910 C   0  0  0  0  0  0  0  0  0  0  0  0
    1.1750   14.7000   -0.3020 C   0  0  0  0  0  0  0  0  0  0  0  0
    1.4870   15.0960   -1.7480 C   0  0  2  0  0  0  0  0  0  0  0  0
    3.0200   15.4030   -1.8400 C   0  0  0  0  0  0  0  0  0  0  0  0
    3.2689   18.2252   -1.7586 H   0  0  0  0  0  0  0  0  0  0  0  0
    2.8403   17.1914   -3.1637 H   0  0  0  0  0  0  0  0  0  0  0  0
    2.4025   18.9335   -3.1637 H   0  0  0  0  0  0  0  0  0  0  0  0
    0.4460   18.4536   -2.2114 H   0  0  0  0  0  0  0  0  0  0  0  0
    0.5524   17.0247    0.0730 H   0  0  0  0  0  0  0  0  0  0  0  0
    2.2925   17.5700   -0.0601 H   0  0  0  0  0  0  0  0  0  0  0  0
    1.5002   19.3324    1.1201 H   0  0  0  0  0  0  0  0  0  0  0  0
    1.0713   19.8975   -0.5483 H   0  0  0  0  0  0  0  0  0  0  0  0
   -0.2992   19.5027    1.6427 H   0  0  0  0  0  0  0  0  0  0  0  0
   -0.7096   21.0191   -1.6995 H   0  0  0  0  0  0  0  0  0  0  0  0
   -0.8206   19.3135   -2.2519 H   0  0  0  0  0  0  0  0  0  0  0  0
   -2.2844   20.3547   -2.2519 H   0  0  0  0  0  0  0  0  0  0  0  0
   -2.8713   20.1685    1.3588 H   0  0  0  0  0  0  0  0  0  0  0  0
   -3.1103   21.2277   -0.0722 H   0  0  0  0  0  0  0  0  0  0  0  0
   -3.7680   19.5562   -0.0722 H   0  0  0  0  0  0  0  0  0  0  0  0
   -0.3108   16.3264   -1.9237 H   0  0  0  0  0  0  0  0  0  0  0  0
   -0.1403   16.3188   -4.3334 H   0  0  0  0  0  0  0  0  0  0  0  0
    1.5760   16.7767   -4.2904 H   0  0  0  0  0  0  0  0  0  0  0  0
    0.5689   14.1604   -4.8396 H   0  0  0  0  0  0  0  0  0  0  0  0
    2.2469   14.5066   -4.4294 H   0  0  0  0  0  0  0  0  0  0  0  0
   -0.8633   13.6115   -1.5813 H   0  0  0  0  0  0  0  0  0  0  0  0
   -1.0882   14.4835   -3.1356 H   0  0  0  0  0  0  0  0  0  0  0  0
   -0.7679   12.7160   -3.1356 H   0  0  0  0  0  0  0  0  0  0  0  0
    2.8470   12.9817   -2.6465 H   0  0  0  0  0  0  0  0  0  0  0  0
    1.2432   11.8860   -4.3401 H   0  0  0  0  0  0  0  0  0  0  0  0
    2.4620   10.8805   -3.3951 H   0  0  0  0  0  0  0  0  0  0  0  0
    0.0527    9.8472   -3.6611 H   0  0  0  0  0  0  0  0  0  0  0  0
   -0.2247   12.1191   -0.3345 H   0  0  0  0  0  0  0  0  0  0  0  0
    1.5147    9.7229    0.5186 H   0  0  0  0  0  0  0  0  0  0  0  0
    1.0133   11.1331    1.5537 H   0  0  0  0  0  0  0  0  0  0  0  0
   -0.3244    9.1066    2.0213 H   0  0  0  0  0  0  0  0  0  0  0  0
   -1.3151   10.4739    1.3771 H   0  0  0  0  0  0  0  0  0  0  0  0
   -2.0258    8.4403    0.3183 H   0  0  0  0  0  0  0  0  0  0  0  0
   -0.4100    7.2700   -0.9730 H   0  0  0  0  0  0  0  0  0  0  0  0
   -2.7189   10.7057   -0.1024 H   0  0  0  0  0  0  0  0  0  0  0  0
   -2.2937   11.5108   -1.6509 H   0  0  0  0  0  0  0  0  0  0  0  0
   -3.3823   10.0820   -1.6509 H   0  0  0  0  0  0  0  0  0  0  0  0
   -1.9921    7.6420   -1.9352 H   0  0  0  0  0  0  0  0  0  0  0  0
   -2.4653    8.9775   -3.0393 H   0  0  0  0  0  0  0  0  0  0  0  0
   -0.7755    8.3681   -3.0393 H   0  0  0  0  0  0  0  0  0  0  0  0
    3.2849   11.2146    0.3863 H   0  0  0  0  0  0  0  0  0  0  0  0
    2.9620   10.3502   -1.1549 H   0  0  0  0  0  0  0  0  0  0  0  0
    3.9595   11.8441   -1.1549 H   0  0  0  0  0  0  0  0  0  0  0  0
    1.5313   13.0825    1.0642 H   0  0  0  0  0  0  0  0  0  0  0  0
    2.9889   13.6876    0.0929 H   0  0  0  0  0  0  0  0  0  0  0  0
    0.0926   14.5321   -0.2004 H   0  0  0  0  0  0  0  0  0  0  0  0
    1.5026   15.5129    0.3627 H   0  0  0  0  0  0  0  0  0  0  0  0
    3.4386   15.4868   -0.8262 H   0  0  0  0  0  0  0  0  0  0  0  0
    3.5254   14.5882   -2.3792 H   0  0  0  0  0  0  0  0  0  0  0  0
    3.1727   16.3496   -2.3792 H   0  0  0  0  0  0  0  0  0  0  0  0
  1  2  1  0
  2  3  1  0
  3  4  1  0
  4  5  1  0
  5  6  1  0
  6  7  1  0
  7  8  1  0
  7  9  1  0
  2 10  1  0
 10 11  1  0
 11 12  1  0
 12 13  1  0
 13 14  1  1
 13 15  1  0
 15 16  1  0
 16 17  1  0
 17 18  2  0
 18 19  1  0
 19 20  1  0
 20 21  1  0
 21 22  1  0
 22 23  1  0
 22 24  1  0
 24 25  1  0
 24 26  1  0
 19 27  1  0
 27 28  1  6
 27 29  1  0
 29 30  1  0
 30 31  1  0
 31 32  1  1
  7  5  1  0
 31 10  1  0
 31 13  1  0
 27 15  1  0
 24 18  1  0
  1 33  1  0
  1 34  1  0
  1 35  1  0
  2 36  1  6
  3 37  1  0
  3 38  1  0
  4 39  1  0
  4 40  1  0
  5 41  1  1
  8 42  1  0
  8 43  1  0
  8 44  1  0
  9 45  1  0
  9 46  1  0
  9 47  1  0
 10 48  1  1
 11 49  1  0
 11 50  1  0
 12 51  1  0
 12 52  1  0
 14 53  1  0
 14 54  1  0
 14 55  1  0
 15 56  1  6
 16 57  1  0
 16 58  1  0
 17 59  1  0
 19 60  1  1
 20 61  1  0
 20 62  1  0
 21 63  1  0
 21 64  1  0
 22 65  1  1
 23 66  1  0
 25 67  1  0
 25 68  1  0
 25 69  1  0
 26 70  1  0
 26 71  1  0
 26 72  1  0
 28 73  1  0
 28 74  1  0
 28 75  1  0
 29 76  1  0
 29 77  1  0
 30 78  1  0
 30 79  1  0
 32 80  1  0
 32 81  1  0
 32 82  1  0
M  END
>  <meeko>  (3) 
{"is_sidechain": [false], "intermolecular_energy": 2.731, "internal_energy": -0.839}

$$$$
EPH_relaxed_0001_pdb2pqr_Repair_267_r2_0001_out
     RDKit          3D

 82 86  0  0  0  0  0  0  0  0999 V2000
    0.4200   18.3910   -0.0120 C   0  0  0  0  0  0  0  0  0  0  0  0
    1.5080   17.3400   -0.2500 C   0  0  2  0  0  0  0  0  0  0  0  0
    2.7080   17.9130   -1.0300 C   0  0  0  0  0  0  0  0  0  0  0  0
    3.9410   18.1740   -0.1600 C   0  0  0  0  0  0  0  0  0  0  0  0
    3.5610   18.6410    1.2130 C   0  0  2  0  0  0  0  0  0  0  0  0
    3.8170   20.0280    1.4660 O   0  0  0  0  0  0  0  0  0  0  0  0
    4.5710   19.0920    2.2520 C   0  0  0  0  0  0  0  0  0  0  0  0
    6.0390   19.0970    1.9630 C   0  0  0  0  0  0  0  0  0  0  0  0
    4.1750   19.0600    3.6950 C   0  0  0  0  0  0  0  0  0  0  0  0
    0.9250   16.1460   -0.9950 C   0  0  1  0  0  0  0  0  0  0  0  0
    0.7820   16.4050   -2.5190 C   0  0  0  0  0  0  0  0  0  0  0  0
    1.0620   15.0550   -3.2300 C   0  0  0  0  0  0  0  0  0  0  0  0
    1.0270   14.0030   -2.0970 C   0  0  1  0  0  0  0  0  0  0  0  0
   -0.4890   13.7120   -1.8660 C   0  0  0  0  0  0  0  0  0  0  0  0
    1.8350   12.6890   -2.3490 C   0  0  2  0  0  0  0  0  0  0  0  0
    1.3520   11.8440   -3.5410 C   0  0  0  0  0  0  0  0  0  0  0  0
    0.3210   10.8150   -3.2170 C   0  0  0  0  0  0  0  0  0  0  0  0
    0.0090   10.3820   -1.9810 C   0  0  0  0  0  0  0  0  0  0  0  0
    0.7920   10.8690   -0.7550 C   0  0  1  0  0  0  0  0  0  0  0  0
    1.1530    9.6560    0.1430 C   0  0  0  0  0  0  0  0  0  0  0  0
   -0.0690    8.8260    0.5230 C   0  0  0  0  0  0  0  0  0  0  0  0
   -0.7880    8.3120   -0.7210 C   0  0  2  0  0  0  0  0  0  0  0  0
    0.0610    7.3730   -1.3890 O   0  0  0  0  0  0  0  0  0  0  0  0
   -1.1920    9.4440   -1.7070 C   0  0  0  0  0  0  0  0  0  0  0  0
   -2.3360   10.2860   -1.0910 C   0  0  0  0  0  0  0  0  0  0  0  0
   -1.7790    8.7800   -2.9810 C   0  0  0  0  0  0  0  0  0  0  0  0
    2.0450   11.7990   -1.0570 C   0  0  1  0  0  0  0  0  0  0  0  0
    3.3070   10.9220   -1.3210 C   0  0  0  0  0  0  0  0  0  0  0  0
    2.3630   12.6630    0.2200 C   0  0  0  0  0  0  0  0  0  0  0  0
    1.6210   14.0070    0.3520 C   0  0  0  0  0  0  0  0  0  0  0  0
    1.7200   14.8170   -0.9440 C   0  0  2  0  0  0  0  0  0  0  0  0
    3.2320   15.1440   -1.1900 C   0  0  0  0  0  0  0  0  0  0  0  0
    0.2754   18.5307    1.0695 H   0  0  0  0  0  0  0  0  0  0  0  0
    0.7255   19.3446   -0.4673 H   0  0  0  0  0  0  0  0  0  0  0  0
   -0.5225   18.0527   -0.4673 H   0  0  0  0  0  0  0  0  0  0  0  0
    1.8773   17.0183    0.7349 H   0  0  0  0  0  0  0  0  0  0  0  0
    2.9842   17.1964   -1.8175 H   0  0  0  0  0  0  0  0  0  0  0  0
    2.3915   18.8843   -1.4379 H   0  0  0  0  0  0  0  0  0  0  0  0
    4.5194   17.2425   -0.0725 H   0  0  0  0  0  0  0  0  0  0  0  0
    4.5377   18.9645   -0.6386 H   0  0  0  0  0  0  0  0  0  0  0  0
    2.7312   17.9201    1.2543 H   0  0  0  0  0  0  0  0  0  0  0  0
    6.5991   19.0989    2.9097 H   0  0  0  0  0  0  0  0  0  0  0  0
    6.3017   18.1997    1.3834 H   0  0  0  0  0  0  0  0  0  0  0  0
    6.2955   19.9960    1.3834 H   0  0  0  0  0  0  0  0  0  0  0  0
    5.0746   19.1327    4.3238 H   0  0  0  0  0  0  0  0  0  0  0  0
    3.5073   19.9071    3.9109 H   0  0  0  0  0  0  0  0  0  0  0  0
    3.6520   18.1167    3.9109 H   0  0  0  0  0  0  0  0  0  0  0  0
   -0.0251   16.0361   -0.4516 H   0  0  0  0  0  0  0  0  0  0  0  0
   -0.2361   16.7512   -2.7506 H   0  0  0  0  0  0  0  0  0  0  0  0
    1.4843   17.1819   -2.8554 H   0  0  0  0  0  0  0  0  0  0  0  0
    0.2864   14.8432   -3.9807 H   0  0  0  0  0  0  0  0  0  0  0  0
    2.0218   15.0577   -3.7674 H   0  0  0  0  0  0  0  0  0  0  0  0
   -0.6944   13.6726   -0.7861 H   0  0  0  0  0  0  0  0  0  0  0  0
   -1.0898   14.5112   -2.3246 H   0  0  0  0  0  0  0  0  0  0  0  0
   -0.7512   12.7471   -2.3246 H   0  0  0  0  0  0  0  0  0  0  0  0
    2.8249   13.0728   -2.6367 H   0  0  0  0  0  0  0  0  0  0  0  0
    0.9267   12.5267   -4.2914 H   0  0  0  0  0  0  0  0  0  0  0  0
    2.2328   11.2902   -3.8980 H   0  0  0  0  0  0  0  0  0  0  0  0
   -0.2309   10.3727   -4.0595 H   0  0  0  0  0  0  0  0  0  0  0  0
    0.1175   11.5480   -0.2127 H   0  0  0  0  0  0  0  0  0  0  0  0
    1.8609    9.0131   -0.4006 H   0  0  0  0  0  0  0  0  0  0  0  0
    1.5931   10.0474    1.0721 H   0  0  0  0  0  0  0  0  0  0  0  0
    0.2534    7.9688    1.1323 H   0  0  0  0  0  0  0  0  0  0  0  0
   -0.7628    9.4629    1.0913 H   0  0  0  0  0  0  0  0  0  0  0  0
   -1.7228    7.8368   -0.3890 H   0  0  0  0  0  0  0  0  0  0  0  0
    0.9760    7.5550   -1.1130 H   0  0  0  0  0  0  0  0  0  0  0  0
   -2.2746   10.2408    0.0064 H   0  0  0  0  0  0  0  0  0  0  0  0
   -2.2407   11.3310   -1.4209 H   0  0  0  0  0  0  0  0  0  0  0  0
   -3.3055    9.8844   -1.4209 H   0  0  0  0  0  0  0  0  0  0  0  0
   -2.4816    7.9853   -2.6897 H   0  0  0  0  0  0  0  0  0  0  0  0
   -2.3086    9.5369   -3.5781 H   0  0  0  0  0  0  0  0  0  0  0  0
   -0.9628    8.3472   -3.5781 H   0  0  0  0  0  0  0  0  0  0  0  0
    3.7479   10.6156   -0.3610 H   0  0  0  0  0  0  0  0  0  0  0  0
    3.0191   10.0283   -1.8941 H   0  0  0  0  0  0  0  0  0  0  0  0
    4.0442   11.5034   -1.8941 H   0  0  0  0  0  0  0  0  0  0  0  0
    2.1126   12.0565    1.1029 H   0  0  0  0  0  0  0  0  0  0  0  0
    3.4265   12.9290    0.1300 H   0  0  0  0  0  0  0  0  0  0  0  0
    0.5615   13.8128    0.5750 H   0  0  0  0  0  0  0  0  0  0  0  0
    2.0853   14.5859    1.1639 H   0  0  0  0  0  0  0  0  0  0  0  0
    3.7451   15.2550   -0.2234 H   0  0  0  0  0  0  0  0  0  0  0  0
    3.6962   14.3255   -1.7597 H   0  0  0  0  0  0  0  0  0  0  0  0
    3.3165   16.0812   -1.7597 H   0  0  0  0  0  0  0  0  0  0  0  0
  1  2  1  0
  2  3  1  0
  3  4  1  0
  4  5  1  0
  5  6  1  0
  6  7  1  0
  7  8  1  0
  7  9  1  0
  2 10  1  0
 10 11  1  0
 11 12  1  0
 12 13  1  0
 13 14  1  1
 13 15  1  0
 15 16  1  0
 16 17  1  0
 17 18  2  0
 18 19  1  0
 19 20  1  0
 20 21  1  0
 21 22  1  0
 22 23  1  0
 22 24  1  0
 24 25  1  0
 24 26  1  0
 19 27  1  0
 27 28  1  6
 27 29  1  0
 29 30  1  0
 30 31  1  0
 31 32  1  6
  7  5  1  0
 31 10  1  0
 31 13  1  0
 27 15  1  0
 24 18  1  0
  1 33  1  0
  1 34  1  0
  1 35  1  0
  2 36  1  1
  3 37  1  0
  3 38  1  0
  4 39  1  0
  4 40  1  0
  5 41  1  1
  8 42  1  0
  8 43  1  0
  8 44  1  0
  9 45  1  0
  9 46  1  0
  9 47  1  0
 10 48  1  1
 11 49  1  0
 11 50  1  0
 12 51  1  0
 12 52  1  0
 14 53  1  0
 14 54  1  0
 14 55  1  0
 15 56  1  6
 16 57  1  0
 16 58  1  0
 17 59  1  0
 19 60  1  1
 20 61  1  0
 20 62  1  0
 21 63  1  0
 21 64  1  0
 22 65  1  1
 23 66  1  0
 25 67  1  0
 25 68  1  0
 25 69  1  0
 26 70  1  0
 26 71  1  0
 26 72  1  0
 28 73  1  0
 28 74  1  0
 28 75  1  0
 29 76  1  0
 29 77  1  0
 30 78  1  0
 30 79  1  0
 32 80  1  0
 32 81  1  0
 32 82  1  0
M  END
>  <meeko>  (4) 
{"is_sidechain": [false], "intermolecular_energy": 2.731, "internal_energy": -0.839}

$$$$
EPH_relaxed_0001_pdb2pqr_Repair_267_r2_0001_out
     RDKit          3D

 82 86  0  0  0  0  0  0  0  0999 V2000
    2.1000   18.2030   -2.7510 C   0  0  0  0  0  0  0  0  0  0  0  0
    0.8470   17.7710   -1.9840 C   0  0  2  0  0  0  0  0  0  0  0  0
    1.0530   17.8270   -0.4570 C   0  0  0  0  0  0  0  0  0  0  0  0
    2.4770   18.2100   -0.0410 C   0  0  0  0  0  0  0  0  0  0  0  0
    2.4800   19.3030    0.9840 C   0  0  2  0  0  0  0  0  0  0  0  0
    3.6000   20.1940    0.9050 O   0  0  0  0  0  0  0  0  0  0  0  0
    3.5050   19.4010    2.0990 C   0  0  0  0  0  0  0  0  0  0  0  0
    4.5970   18.3890    2.2460 C   0  0  0  0  0  0  0  0  0  0  0  0
    3.1580   20.1920    3.3220 C   0  0  0  0  0  0  0  0  0  0  0  0
    0.4400   16.3640   -2.4030 C   0  0  1  0  0  0  0  0  0  0  0  0
    0.4900   16.1610   -3.9410 C   0  0  0  0  0  0  0  0  0  0  0  0
    0.9410   14.6970   -4.1840 C   0  0  0  0  0  0  0  0  0  0  0  0
    0.8150   14.0150   -2.8020 C   0  0  1  0  0  0  0  0  0  0  0  0
   -0.6990   13.6590   -2.6680 C   0  0  0  0  0  0  0  0  0  0  0  0
    1.7250   12.7670   -2.5620 C   0  0  2  0  0  0  0  0  0  0  0  0
    1.4570   11.5750   -3.4970 C   0  0  0  0  0  0  0  0  0  0  0  0
    0.4530   10.5880   -3.0010 C   0  0  0  0  0  0  0  0  0  0  0  0
    0.0020   10.4990   -1.7350 C   0  0  0  0  0  0  0  0  0  0  0  0
    0.5830   11.3880   -0.6280 C   0  0  1  0  0  0  0  0  0  0  0  0
    0.8890   10.5240    0.6230 C   0  0  0  0  0  0  0  0  0  0  0  0
   -0.3230    9.7250    1.0920 C   0  0  0  0  0  0  0  0  0  0  0  0
   -0.8360    8.8100   -0.0170 C   0  0  2  0  0  0  0  0  0  0  0  0
    0.1490    7.8050   -0.2770 O   0  0  0  0  0  0  0  0  0  0  0  0
   -1.1680    9.5690   -1.3320 C   0  0  0  0  0  0  0  0  0  0  0  0
   -2.4320   10.4390   -1.1250 C   0  0  0  0  0  0  0  0  0  0  0  0
   -1.5380    8.5150   -2.4100 C   0  0  0  0  0  0  0  0  0  0  0  0
    1.8090   12.3080   -1.0500 C   0  0  1  0  0  0  0  0  0  0  0  0
    3.1440   11.5170   -0.8980 C   0  0  0  0  0  0  0  0  0  0  0  0
    1.9010   13.5280   -0.0580 C   0  0  0  0  0  0  0  0  0  0  0  0
    1.0710   14.7760   -0.4140 C   0  0  0  0  0  0  0  0  0  0  0  0
    1.2970   15.1870   -1.8720 C   0  0  2  0  0  0  0  0  0  0  0  0
    2.8070   15.5730   -2.0320 C   0  0  0  0  0  0  0  0  0  0  0  0
    2.8911   18.4758   -2.0370 H   0  0  0  0  0  0  0  0  0  0  0  0
    2.4472   17.3727   -3.3835 H   0  0  0  0  0  0  0  0  0  0  0  0
    1.8617   19.0709   -3.3835 H   0  0  0  0  0  0  0  0  0  0  0  0
    0.0446   18.4802   -2.2353 H   0  0  0  0  0  0  0  0  0  0  0  0
    0.3576   18.5703   -0.0398 H   0  0  0  0  0  0  0  0  0  0  0  0
    0.8666   16.8142   -0.0702 H   0  0  0  0  0  0  0  0  0  0  0  0
    2.9755   17.3247    0.3805 H   0  0  0  0  0  0  0  0  0  0  0  0
    3.0083   18.5746   -0.9325 H   0  0  0  0  0  0  0  0  0  0  0  0
    1.3805   19.3357    0.9874 H   0  0  0  0  0  0  0  0  0  0  0  0
    4.7899   18.2102    3.3141 H   0  0  0  0  0  0  0  0  0  0  0  0
    4.2915   17.4476    1.7660 H   0  0  0  0  0  0  0  0  0  0  0  0
    5.5125   18.7651    1.7660 H   0  0  0  0  0  0  0  0  0  0  0  0
    3.4133   19.6100    4.2198 H   0  0  0  0  0  0  0  0  0  0  0  0
    3.7254   21.1344    3.3224 H   0  0  0  0  0  0  0  0  0  0  0  0
    2.0804   20.4128    3.3224 H   0  0  0  0  0  0  0  0  0  0  0  0
   -0.5670   16.3247   -1.9621 H   0  0  0  0  0  0  0  0  0  0  0  0
   -0.5056   16.3283   -4.3778 H   0  0  0  0  0  0  0  0  0  0  0  0
    1.1854   16.8720   -4.4111 H   0  0  0  0  0  0  0  0  0  0  0  0
    0.2871   14.2064   -4.9201 H   0  0  0  0  0  0  0  0  0  0  0  0
    1.9628   14.6369   -4.5870 H   0  0  0  0  0  0  0  0  0  0  0  0
   -0.9680   13.5958   -1.6033 H   0  0  0  0  0  0  0  0  0  0  0  0
   -1.3035   14.4395   -3.1532 H   0  0  0  0  0  0  0  0  0  0  0  0
   -0.8924   12.6909   -3.1532 H   0  0  0  0  0  0  0  0  0  0  0  0
    2.7210   13.1443   -2.8371 H   0  0  0  0  0  0  0  0  0  0  0  0
    1.0978   11.9712   -4.4582 H   0  0  0  0  0  0  0  0  0  0  0  0
    2.4086   11.0285   -3.5733 H   0  0  0  0  0  0  0  0  0  0  0  0
    0.0470    9.8727   -3.7314 H   0  0  0  0  0  0  0  0  0  0  0  0
   -0.1970   12.1260   -0.3894 H   0  0  0  0  0  0  0  0  0  0  0  0
    1.7003    9.8228    0.3776 H   0  0  0  0  0  0  0  0  0  0  0  0
    1.1758   11.2053    1.4376 H   0  0  0  0  0  0  0  0  0  0  0  0
   -0.0367    9.1129    1.9600 H   0  0  0  0  0  0  0  0  0  0  0  0
   -1.1232   10.4288    1.3646 H   0  0  0  0  0  0  0  0  0  0  0  0
   -1.7778    8.3622    0.3330 H   0  0  0  0  0  0  0  0  0  0  0  0
    0.3210    7.3380    0.5580 H   0  0  0  0  0  0  0  0  0  0  0  0
   -2.6171   10.5664   -0.0482 H   0  0  0  0  0  0  0  0  0  0  0  0
   -2.2792   11.4242   -1.5899 H   0  0  0  0  0  0  0  0  0  0  0  0
   -3.2977    9.9445   -1.5899 H   0  0  0  0  0  0  0  0  0  0  0  0
   -1.8639    7.5865   -1.9184 H   0  0  0  0  0  0  0  0  0  0  0  0
   -2.3536    8.9033   -3.0378 H   0  0  0  0  0  0  0  0  0  0  0  0
   -0.6587    8.3083   -3.0378 H   0  0  0  0  0  0  0  0  0  0  0  0
    3.3710   11.3825    0.1699 H   0  0  0  0  0  0  0  0  0  0  0  0
    3.0436   10.5325   -1.3783 H   0  0  0  0  0  0  0  0  0  0  0  0
    3.9593   12.0779   -1.3783 H   0  0  0  0  0  0  0  0  0  0  0  0
    1.5694   13.1787    0.9310 H   0  0  0  0  0  0  0  0  0  0  0  0
    2.9497   13.8571   -0.1025 H   0  0  0  0  0  0  0  0  0  0  0  0
    0.0042   14.5535   -0.2641 H   0  0  0  0  0  0  0  0  0  0  0  0
    1.3867   15.6046    0.2370 H   0  0  0  0  0  0  0  0  0  0  0  0
    3.2630   15.6896   -1.0378 H   0  0  0  0  0  0  0  0  0  0  0  0
    3.3315   14.7801   -2.5853 H   0  0  0  0  0  0  0  0  0  0  0  0
    2.8866   16.5204   -2.5853 H   0  0  0  0  0  0  0  0  0  0  0  0
  1  2  1  0
  2  3  1  0
  3  4  1  0
  4  5  1  0
  5  6  1  0
  6  7  1  0
  7  8  1  0
  7  9  1  0
  2 10  1  0
 10 11  1  0
 11 12  1  0
 12 13  1  0
 13 14  1  1
 13 15  1  0
 15 16  1  0
 16 17  1  0
 17 18  2  0
 18 19  1  0
 19 20  1  0
 20 21  1  0
 21 22  1  0
 22 23  1  0
 22 24  1  0
 24 25  1  0
 24 26  1  0
 19 27  1  0
 27 28  1  6
 27 29  1  0
 29 30  1  0
 30 31  1  0
 31 32  1  1
  7  5  1  0
 31 10  1  0
 31 13  1  0
 27 15  1  0
 24 18  1  0
  1 33  1  0
  1 34  1  0
  1 35  1  0
  2 36  1  1
  3 37  1  0
  3 38  1  0
  4 39  1  0
  4 40  1  0
  5 41  1  1
  8 42  1  0
  8 43  1  0
  8 44  1  0
  9 45  1  0
  9 46  1  0
  9 47  1  0
 10 48  1  1
 11 49  1  0
 11 50  1  0
 12 51  1  0
 12 52  1  0
 14 53  1  0
 14 54  1  0
 14 55  1  0
 15 56  1  6
 16 57  1  0
 16 58  1  0
 17 59  1  0
 19 60  1  1
 20 61  1  0
 20 62  1  0
 21 63  1  0
 21 64  1  0
 22 65  1  1
 23 66  1  0
 25 67  1  0
 25 68  1  0
 25 69  1  0
 26 70  1  0
 26 71  1  0
 26 72  1  0
 28 73  1  0
 28 74  1  0
 28 75  1  0
 29 76  1  0
 29 77  1  0
 30 78  1  0
 30 79  1  0
 32 80  1  0
 32 81  1  0
 32 82  1  0
M  END
>  <meeko>  (5) 
{"is_sidechain": [false], "intermolecular_energy": 2.731, "internal_energy": -0.839}

$$$$
EPH_relaxed_0001_pdb2pqr_Repair_267_r2_0001_out
     RDKit          3D

 82 86  0  0  0  0  0  0  0  0999 V2000
   -3.3970    9.3060    0.5080 C   0  0  0  0  0  0  0  0  0  0  0  0
   -2.5670    9.6730   -0.7250 C   0  0  2  0  0  0  0  0  0  0  0  0
   -1.8970    8.4390   -1.3630 C   0  0  0  0  0  0  0  0  0  0  0  0
   -2.8100    7.6680   -2.3190 C   0  0  0  0  0  0  0  0  0  0  0  0
   -4.2480    7.7600   -1.9080 C   0  0  2  0  0  0  0  0  0  0  0  0
   -4.7850    6.5610   -1.3350 O   0  0  0  0  0  0  0  0  0  0  0  0
   -5.3630    6.9810   -2.5820 C   0  0  0  0  0  0  0  0  0  0  0  0
   -5.0870    6.0550   -3.7240 C   0  0  0  0  0  0  0  0  0  0  0  0
   -6.7660    7.4870   -2.4550 C   0  0  0  0  0  0  0  0  0  0  0  0
   -1.5100   10.7060   -0.3520 C   0  0  1  0  0  0  0  0  0  0  0  0
   -0.4130   10.1270    0.5800 C   0  0  0  0  0  0  0  0  0  0  0  0
    0.9170   10.8220    0.1910 C   0  0  0  0  0  0  0  0  0  0  0  0
    0.4900   12.0040   -0.7110 C   0  0  1  0  0  0  0  0  0  0  0  0
    0.0480   13.1260    0.2800 C   0  0  0  0  0  0  0  0  0  0  0  0
    1.5610   12.5200   -1.7270 C   0  0  2  0  0  0  0  0  0  0  0  0
    2.8410   13.0910   -1.0920 C   0  0  0  0  0  0  0  0  0  0  0  0
    2.8130   14.5560   -0.8070 C   0  0  0  0  0  0  0  0  0  0  0  0
    1.9210   15.4330   -1.3060 C   0  0  0  0  0  0  0  0  0  0  0  0
    0.8690   14.9900   -2.3300 C   0  0  1  0  0  0  0  0  0  0  0  0
    0.8190   16.0120   -3.4960 C   0  0  0  0  0  0  0  0  0  0  0  0
    0.5960   17.4410   -3.0120 C   0  0  0  0  0  0  0  0  0  0  0  0
    1.6940   17.8650   -2.0410 C   0  0  2  0  0  0  0  0  0  0  0  0
    2.9340   17.9420   -2.7520 O   0  0  0  0  0  0  0  0  0  0  0  0
    1.8450   16.9040   -0.8290 C   0  0  0  0  0  0  0  0  0  0  0  0
    0.6190   17.0490    0.1060 C   0  0  0  0  0  0  0  0  0  0  0  0
    3.0770   17.3660   -0.0040 C   0  0  0  0  0  0  0  0  0  0  0  0
    0.9860   13.4890   -2.8390 C   0  0  1  0  0  0  0  0  0  0  0  0
    1.9670   13.4110   -4.0480 C   0  0  0  0  0  0  0  0  0  0  0  0
   -0.4180   13.0170   -3.3750 C   0  0  0  0  0  0  0  0  0  0  0  0
   -1.3860   12.4060   -2.3450 C   0  0  0  0  0  0  0  0  0  0  0  0
   -0.6880   11.3310   -1.5060 C   0  0  2  0  0  0  0  0  0  0  0  0
   -0.2510   10.1780   -2.4740 C   0  0  0  0  0  0  0  0  0  0  0  0
   -2.8319    9.5559    1.4181 H   0  0  0  0  0  0  0  0  0  0  0  0
   -4.3409    9.8706    0.4959 H   0  0  0  0  0  0  0  0  0  0  0  0
   -3.6145    8.2278    0.4959 H   0  0  0  0  0  0  0  0  0  0  0  0
   -3.2541   10.0978   -1.4716 H   0  0  0  0  0  0  0  0  0  0  0  0
   -1.0122    8.7752   -1.9234 H   0  0  0  0  0  0  0  0  0  0  0  0
   -1.6389    7.7534   -0.5424 H   0  0  0  0  0  0  0  0  0  0  0  0
   -2.7011    8.0860   -3.3306 H   0  0  0  0  0  0  0  0  0  0  0  0
   -2.5141    6.6088   -2.2958 H   0  0  0  0  0  0  0  0  0  0  0  0
   -4.1349    8.8273   -1.6671 H   0  0  0  0  0  0  0  0  0  0  0  0
   -4.7932    5.0693   -3.3340 H   0  0  0  0  0  0  0  0  0  0  0  0
   -5.9931    5.9508   -4.3389 H   0  0  0  0  0  0  0  0  0  0  0  0
   -4.2717    6.4639   -4.3389 H   0  0  0  0  0  0  0  0  0  0  0  0
   -7.0269    7.5811   -1.3905 H   0  0  0  0  0  0  0  0  0  0  0  0
   -6.8464    8.4708   -2.9406 H   0  0  0  0  0  0  0  0  0  0  0  0
   -7.4558    6.7810   -2.9406 H   0  0  0  0  0  0  0  0  0  0  0  0
   -2.1532   11.4707    0.1079 H   0  0  0  0  0  0  0  0  0  0  0  0
   -0.6581   10.3395    1.6311 H   0  0  0  0  0  0  0  0  0  0  0  0
   -0.3356    9.0354    0.4682 H   0  0  0  0  0  0  0  0  0  0  0  0
    1.4411   11.1866    1.0867 H   0  0  0  0  0  0  0  0  0  0  0  0
    1.6117   10.1381   -0.3185 H   0  0  0  0  0  0  0  0  0  0  0  0
    0.1855   12.7769    1.3140 H   0  0  0  0  0  0  0  0  0  0  0  0
    0.6591   14.0251    0.1122 H   0  0  0  0  0  0  0  0  0  0  0  0
   -1.0121   13.3667    0.1122 H   0  0  0  0  0  0  0  0  0  0  0  0
    1.8673   11.5947   -2.2369 H   0  0  0  0  0  0  0  0  0  0  0  0
    3.0138   12.5633   -0.1424 H   0  0  0  0  0  0  0  0  0  0  0  0
    3.6409   12.9403   -1.8319 H   0  0  0  0  0  0  0  0  0  0  0  0
    3.5861   14.9527   -0.1325 H   0  0  0  0  0  0  0  0  0  0  0  0
   -0.0926   14.9857   -1.7958 H   0  0  0  0  0  0  0  0  0  0  0  0
    1.7724   15.9697   -4.0431 H   0  0  0  0  0  0  0  0  0  0  0  0
   -0.0301   15.7416   -4.1409 H   0  0  0  0  0  0  0  0  0  0  0  0
    0.5996   18.1192   -3.8781 H   0  0  0  0  0  0  0  0  0  0  0  0
   -0.3715   17.4884   -2.4907 H   0  0  0  0  0  0  0  0  0  0  0  0
    1.4103   18.8451   -1.6301 H   0  0  0  0  0  0  0  0  0  0  0  0
    3.6210   17.5440   -2.1890 H   0  0  0  0  0  0  0  0  0  0  0  0
    0.9505   17.0098    1.1541 H   0  0  0  0  0  0  0  0  0  0  0  0
    0.1233   18.0120   -0.0860 H   0  0  0  0  0  0  0  0  0  0  0  0
   -0.0877   16.2282   -0.0860 H   0  0  0  0  0  0  0  0  0  0  0  0
    2.8520   17.2816    1.0694 H   0  0  0  0  0  0  0  0  0  0  0  0
    3.9412   16.7308   -0.2485 H   0  0  0  0  0  0  0  0  0  0  0  0
    3.3104   18.4128   -0.2485 H   0  0  0  0  0  0  0  0  0  0  0  0
    2.9995   13.3289   -3.6777 H   0  0  0  0  0  0  0  0  0  0  0  0
    1.7257   12.5292   -4.6597 H   0  0  0  0  0  0  0  0  0  0  0  0
    1.8680   14.3198   -4.6597 H   0  0  0  0  0  0  0  0  0  0  0  0
   -0.9150   13.8914   -3.8206 H   0  0  0  0  0  0  0  0  0  0  0  0
   -0.1972   12.2023   -4.0804 H   0  0  0  0  0  0  0  0  0  0  0  0
   -1.7514   13.2014   -1.6787 H   0  0  0  0  0  0  0  0  0  0  0  0
   -2.2238   11.9403   -2.8847 H   0  0  0  0  0  0  0  0  0  0  0  0
    0.0782    9.3095   -1.8847 H   0  0  0  0  0  0  0  0  0  0  0  0
   -1.1021    9.8894   -3.1083 H   0  0  0  0  0  0  0  0  0  0  0  0
    0.5776   10.5260   -3.1083 H   0  0  0  0  0  0  0  0  0  0  0  0
  1  2  1  0
  2  3  1  0
  3  4  1  0
  4  5  1  0
  5  6  1  0
  6  7  1  0
  7  8  1  0
  7  9  1  0
  2 10  1  0
 10 11  1  0
 11 12  1  0
 12 13  1  0
 13 14  1  1
 13 15  1  0
 15 16  1  0
 16 17  1  0
 17 18  2  0
 18 19  1  0
 19 20  1  0
 20 21  1  0
 21 22  1  0
 22 23  1  0
 22 24  1  0
 24 25  1  0
 24 26  1  0
 19 27  1  0
 27 28  1  6
 27 29  1  0
 29 30  1  0
 30 31  1  0
 31 32  1  6
  7  5  1  0
 31 10  1  0
 31 13  1  0
 27 15  1  0
 24 18  1  0
  1 33  1  0
  1 34  1  0
  1 35  1  0
  2 36  1  6
  3 37  1  0
  3 38  1  0
  4 39  1  0
  4 40  1  0
  5 41  1  1
  8 42  1  0
  8 43  1  0
  8 44  1  0
  9 45  1  0
  9 46  1  0
  9 47  1  0
 10 48  1  1
 11 49  1  0
 11 50  1  0
 12 51  1  0
 12 52  1  0
 14 53  1  0
 14 54  1  0
 14 55  1  0
 15 56  1  6
 16 57  1  0
 16 58  1  0
 17 59  1  0
 19 60  1  1
 20 61  1  0
 20 62  1  0
 21 63  1  0
 21 64  1  0
 22 65  1  1
 23 66  1  0
 25 67  1  0
 25 68  1  0
 25 69  1  0
 26 70  1  0
 26 71  1  0
 26 72  1  0
 28 73  1  0
 28 74  1  0
 28 75  1  0
 29 76  1  0
 29 77  1  0
 30 78  1  0
 30 79  1  0
 32 80  1  0
 32 81  1  0
 32 82  1  0
M  END
>  <meeko>  (6) 
{"is_sidechain": [false], "intermolecular_energy": 2.731, "internal_energy": -0.839}

$$$$
EPH_relaxed_0001_pdb2pqr_Repair_267_r2_0001_out
     RDKit          3D

 82 86  0  0  0  0  0  0  0  0999 V2000
   -5.0720    5.9540   -1.8970 C   0  0  0  0  0  0  0  0  0  0  0  0
   -5.4360    7.4410   -1.8700 C   0  0  2  0  0  0  0  0  0  0  0  0
   -5.2330    8.0630   -0.4730 C   0  0  0  0  0  0  0  0  0  0  0  0
   -4.1690    9.1630   -0.4380 C   0  0  0  0  0  0  0  0  0  0  0  0
   -2.8110    8.6310   -0.7840 C   0  0  2  0  0  0  0  0  0  0  0  0
   -1.7810    8.9620    0.1570 O   0  0  0  0  0  0  0  0  0  0  0  0
   -1.6370    9.5160   -1.1610 C   0  0  0  0  0  0  0  0  0  0  0  0
   -1.7680   11.0060   -1.2120 C   0  0  0  0  0  0  0  0  0  0  0  0
   -0.5130    8.9170   -1.9470 C   0  0  0  0  0  0  0  0  0  0  0  0
   -6.8790    7.6310   -2.3200 C   0  0  1  0  0  0  0  0  0  0  0  0
   -7.1850    6.9160   -3.6630 C   0  0  0  0  0  0  0  0  0  0  0  0
   -8.6490    6.4110   -3.5780 C   0  0  0  0  0  0  0  0  0  0  0  0
   -9.2380    7.1310   -2.3430 C   0  0  1  0  0  0  0  0  0  0  0  0
   -9.6260    8.5530   -2.8550 C   0  0  0  0  0  0  0  0  0  0  0  0
  -10.4420    6.4220   -1.6390 C   0  0  2  0  0  0  0  0  0  0  0  0
  -11.7020    6.2610   -2.5070 C   0  0  0  0  0  0  0  0  0  0  0  0
  -12.6800    7.3850   -2.4270 C   0  0  0  0  0  0  0  0  0  0  0  0
  -12.6950    8.3430   -1.4810 C   0  0  0  0  0  0  0  0  0  0  0  0
  -11.7170    8.2990   -0.3000 C   0  0  1  0  0  0  0  0  0  0  0  0
  -12.4850    8.5730    1.0190 C   0  0  0  0  0  0  0  0  0  0  0  0
  -13.2840    9.8720    0.9720 C   0  0  0  0  0  0  0  0  0  0  0  0
  -14.2860    9.8540   -0.1790 C   0  0  2  0  0  0  0  0  0  0  0  0
  -15.2790    8.8590    0.0890 O   0  0  0  0  0  0  0  0  0  0  0  0
  -13.6280    9.5760   -1.5600 C   0  0  0  0  0  0  0  0  0  0  0  0
  -12.7810   10.8000   -1.9880 C   0  0  0  0  0  0  0  0  0  0  0  0
  -14.7630    9.4440   -2.6120 C   0  0  0  0  0  0  0  0  0  0  0  0
  -10.7940    7.0080   -0.2120 C   0  0  1  0  0  0  0  0  0  0  0  0
  -11.5360    5.8760    0.5630 C   0  0  0  0  0  0  0  0  0  0  0  0
   -9.5070    7.3510    0.6280 C   0  0  0  0  0  0  0  0  0  0  0  0
   -8.3100    7.9370   -0.1440 C   0  0  0  0  0  0  0  0  0  0  0  0
   -7.9930    7.0970   -1.3840 C   0  0  2  0  0  0  0  0  0  0  0  0
   -7.5770    5.6660   -0.8990 C   0  0  0  0  0  0  0  0  0  0  0  0
   -4.9805    5.5801   -0.8665 H   0  0  0  0  0  0  0  0  0  0  0  0
   -5.8594    5.3932   -2.4219 H   0  0  0  0  0  0  0  0  0  0  0  0
   -4.1146    5.8203   -2.4219 H   0  0  0  0  0  0  0  0  0  0  0  0
   -4.7590    7.9603   -2.5642 H   0  0  0  0  0  0  0  0  0  0  0  0
   -6.1894    8.4943   -0.1426 H   0  0  0  0  0  0  0  0  0  0  0  0
   -4.8846    7.2574    0.1901 H   0  0  0  0  0  0  0  0  0  0  0  0
   -4.4407    9.9452   -1.1622 H   0  0  0  0  0  0  0  0  0  0  0  0
   -4.1285    9.5690    0.5835 H   0  0  0  0  0  0  0  0  0  0  0  0
   -3.2539    7.7474   -1.2668 H   0  0  0  0  0  0  0  0  0  0  0  0
   -1.8032   11.4062   -0.1880 H   0  0  0  0  0  0  0  0  0  0  0  0
   -0.9039   11.4321   -1.7427 H   0  0  0  0  0  0  0  0  0  0  0  0
   -2.6932   11.2748   -1.7427 H   0  0  0  0  0  0  0  0  0  0  0  0
    0.2430    8.5141   -1.2570 H   0  0  0  0  0  0  0  0  0  0  0  0
   -0.9004    8.1057   -2.5808 H   0  0  0  0  0  0  0  0  0  0  0  0
   -0.0556    9.6909   -2.5808 H   0  0  0  0  0  0  0  0  0  0  0  0
   -6.9160    8.7296   -2.3601 H   0  0  0  0  0  0  0  0  0  0  0  0
   -7.0754    7.6205   -4.5007 H   0  0  0  0  0  0  0  0  0  0  0  0
   -6.4888    6.0816   -3.8337 H   0  0  0  0  0  0  0  0  0  0  0  0
   -9.2063    6.6805   -4.4873 H   0  0  0  0  0  0  0  0  0  0  0  0
   -8.7085    5.3161   -3.4907 H   0  0  0  0  0  0  0  0  0  0  0  0
   -9.8068    9.2154   -1.9956 H   0  0  0  0  0  0  0  0  0  0  0  0
   -8.8059    8.9594   -3.4651 H   0  0  0  0  0  0  0  0  0  0  0  0
  -10.5389    8.4866   -3.4651 H   0  0  0  0  0  0  0  0  0  0  0  0
  -10.0569    5.4040   -1.4800 H   0  0  0  0  0  0  0  0  0  0  0  0
  -11.3823    6.1628   -3.5549 H   0  0  0  0  0  0  0  0  0  0  0  0
  -12.2259    5.3743   -2.1207 H   0  0  0  0  0  0  0  0  0  0  0  0
  -13.4542    7.4352   -3.2068 H   0  0  0  0  0  0  0  0  0  0  0  0
  -10.9867    9.1017   -0.4800 H   0  0  0  0  0  0  0  0  0  0  0  0
  -13.1783    7.7391    1.2031 H   0  0  0  0  0  0  0  0  0  0  0  0
  -11.7419    8.6671    1.8246 H   0  0  0  0  0  0  0  0  0  0  0  0
  -13.8273    9.9951    1.9205 H   0  0  0  0  0  0  0  0  0  0  0  0
  -12.5863   10.7082    0.8174 H   0  0  0  0  0  0  0  0  0  0  0  0
  -14.7346   10.8565   -0.2409 H   0  0  0  0  0  0  0  0  0  0  0  0
  -14.8510    8.1440    0.5890 H   0  0  0  0  0  0  0  0  0  0  0  0
  -12.4174   11.3254   -1.0926 H   0  0  0  0  0  0  0  0  0  0  0  0
  -11.9235   10.4609   -2.5877 H   0  0  0  0  0  0  0  0  0  0  0  0
  -13.4006   11.4830   -2.5877 H   0  0  0  0  0  0  0  0  0  0  0  0
  -15.7287    9.3317   -2.0974 H   0  0  0  0  0  0  0  0  0  0  0  0
  -14.7858   10.3455   -3.2418 H   0  0  0  0  0  0  0  0  0  0  0  0
  -14.5783    8.5613   -3.2418 H   0  0  0  0  0  0  0  0  0  0  0  0
  -11.4279    6.0409    1.6452 H   0  0  0  0  0  0  0  0  0  0  0  0
  -12.6028    5.8867    0.2952 H   0  0  0  0  0  0  0  0  0  0  0  0
  -11.1005    4.9020    0.2952 H   0  0  0  0  0  0  0  0  0  0  0  0
   -9.7967    8.0817    1.3975 H   0  0  0  0  0  0  0  0  0  0  0  0
   -9.1528    6.3859    1.0192 H   0  0  0  0  0  0  0  0  0  0  0  0
   -8.5514    8.9635   -0.4569 H   0  0  0  0  0  0  0  0  0  0  0  0
   -7.4306    7.9325    0.5167 H   0  0  0  0  0  0  0  0  0  0  0  0
   -7.5693    5.6394    0.2007 H   0  0  0  0  0  0  0  0  0  0  0  0
   -8.2973    4.9264   -1.2786 H   0  0  0  0  0  0  0  0  0  0  0  0
   -6.5724    5.4278   -1.2786 H   0  0  0  0  0  0  0  0  0  0  0  0
  1  2  1  0
  2  3  1  0
  3  4  1  0
  4  5  1  0
  5  6  1  0
  6  7  1  0
  7  8  1  0
  7  9  1  0
  2 10  1  0
 10 11  1  0
 11 12  1  0
 12 13  1  0
 13 14  1  6
 13 15  1  0
 15 16  1  0
 16 17  1  0
 17 18  2  0
 18 19  1  0
 19 20  1  0
 20 21  1  0
 21 22  1  0
 22 23  1  0
 22 24  1  0
 24 25  1  0
 24 26  1  0
 19 27  1  0
 27 28  1  1
 27 29  1  0
 29 30  1  0
 30 31  1  0
 31 32  1  1
  7  5  1  0
 31 10  1  0
 31 13  1  0
 27 15  1  0
 24 18  1  0
  1 33  1  0
  1 34  1  0
  1 35  1  0
  2 36  1  6
  3 37  1  0
  3 38  1  0
  4 39  1  0
  4 40  1  0
  5 41  1  6
  8 42  1  0
  8 43  1  0
  8 44  1  0
  9 45  1  0
  9 46  1  0
  9 47  1  0
 10 48  1  6
 11 49  1  0
 11 50  1  0
 12 51  1  0
 12 52  1  0
 14 53  1  0
 14 54  1  0
 14 55  1  0
 15 56  1  1
 16 57  1  0
 16 58  1  0
 17 59  1  0
 19 60  1  6
 20 61  1  0
 20 62  1  0
 21 63  1  0
 21 64  1  0
 22 65  1  6
 23 66  1  0
 25 67  1  0
 25 68  1  0
 25 69  1  0
 26 70  1  0
 26 71  1  0
 26 72  1  0
 28 73  1  0
 28 74  1  0
 28 75  1  0
 29 76  1  0
 29 77  1  0
 30 78  1  0
 30 79  1  0
 32 80  1  0
 32 81  1  0
 32 82  1  0
M  END
>  <meeko>  (7) 
{"is_sidechain": [false], "intermolecular_energy": 2.731, "internal_energy": -0.839}

$$$$
EPH_relaxed_0001_pdb2pqr_Repair_267_r2_0001_out
     RDKit          3D

 82 86  0  0  0  0  0  0  0  0999 V2000
    0.4280    8.8420   -2.4940 C   0  0  0  0  0  0  0  0  0  0  0  0
    1.1850    9.9950   -3.1580 C   0  0  2  0  0  0  0  0  0  0  0  0
    2.6810   10.0010   -2.7840 C   0  0  0  0  0  0  0  0  0  0  0  0
    3.5850   10.5850   -3.8720 C   0  0  0  0  0  0  0  0  0  0  0  0
    4.9770   10.8220   -3.3680 C   0  0  2  0  0  0  0  0  0  0  0  0
    5.5810   12.0380   -3.8270 O   0  0  0  0  0  0  0  0  0  0  0  0
    6.2030   10.8180   -4.2620 C   0  0  0  0  0  0  0  0  0  0  0  0
    6.0940   10.5710   -5.7340 C   0  0  0  0  0  0  0  0  0  0  0  0
    7.5410   10.5680   -3.6400 C   0  0  0  0  0  0  0  0  0  0  0  0
    0.5470   11.3250   -2.7740 C   0  0  1  0  0  0  0  0  0  0  0  0
   -0.8370   11.1490   -2.0940 C   0  0  0  0  0  0  0  0  0  0  0  0
   -0.9590   12.2710   -1.0300 C   0  0  0  0  0  0  0  0  0  0  0  0
    0.1970   13.2450   -1.3570 C   0  0  1  0  0  0  0  0  0  0  0  0
   -0.3390   14.1250   -2.5300 C   0  0  0  0  0  0  0  0  0  0  0  0
    0.7200   14.1200   -0.1710 C   0  0  2  0  0  0  0  0  0  0  0  0
   -0.3130   15.0900    0.4290 C   0  0  0  0  0  0  0  0  0  0  0  0
   -0.3470   16.4480   -0.1900 C   0  0  0  0  0  0  0  0  0  0  0  0
    0.6040   16.9680   -0.9880 C   0  0  0  0  0  0  0  0  0  0  0  0
    1.9050   16.2030   -1.2640 C   0  0  1  0  0  0  0  0  0  0  0  0
    3.1130   17.1640   -1.1060 C   0  0  0  0  0  0  0  0  0  0  0  0
    2.9800   18.4180   -1.9650 C   0  0  0  0  0  0  0  0  0  0  0  0
    1.7030   19.1810   -1.6210 C   0  0  2  0  0  0  0  0  0  0  0  0
    1.8190   19.6970   -0.2920 O   0  0  0  0  0  0  0  0  0  0  0  0
    0.4200   18.3120   -1.7350 C   0  0  0  0  0  0  0  0  0  0  0  0
    0.1300   18.0040   -3.2250 C   0  0  0  0  0  0  0  0  0  0  0  0
   -0.7770   19.1590   -1.2270 C   0  0  0  0  0  0  0  0  0  0  0  0
    2.0960   14.8460   -0.4590 C   0  0  1  0  0  0  0  0  0  0  0  0
    2.7440   15.1370    0.9290 C   0  0  0  0  0  0  0  0  0  0  0  0
    3.1080   13.9250   -1.2370 C   0  0  0  0  0  0  0  0  0  0  0  0
    2.5150   12.9960   -2.3140 C   0  0  0  0  0  0  0  0  0  0  0  0
    1.3150   12.2180   -1.7670 C   0  0  2  0  0  0  0  0  0  0  0  0
    1.8270   11.3070   -0.6000 C   0  0  0  0  0  0  0  0  0  0  0  0
    0.4936    8.9419   -1.4005 H   0  0  0  0  0  0  0  0  0  0  0  0
   -0.6276    8.8707   -2.8022 H   0  0  0  0  0  0  0  0  0  0  0  0
    0.8740    7.8849   -2.8022 H   0  0  0  0  0  0  0  0  0  0  0  0
    1.1181    9.8505   -4.2464 H   0  0  0  0  0  0  0  0  0  0  0  0
    2.8079   10.5987   -1.8693 H   0  0  0  0  0  0  0  0  0  0  0  0
    2.9817    8.9521   -2.6451 H   0  0  0  0  0  0  0  0  0  0  0  0
    3.6266    9.8814   -4.7165 H   0  0  0  0  0  0  0  0  0  0  0  0
    3.1643   11.5520   -4.1849 H   0  0  0  0  0  0  0  0  0  0  0  0
    4.7494   10.3018   -2.4259 H   0  0  0  0  0  0  0  0  0  0  0  0
    5.6555    9.5772   -5.9076 H   0  0  0  0  0  0  0  0  0  0  0  0
    5.4515   11.3397   -6.1882 H   0  0  0  0  0  0  0  0  0  0  0  0
    7.0949   10.6145   -6.1882 H   0  0  0  0  0  0  0  0  0  0  0  0
    7.4451   10.5859   -2.5443 H   0  0  0  0  0  0  0  0  0  0  0  0
    7.9157    9.5843   -3.9592 H   0  0  0  0  0  0  0  0  0  0  0  0
    8.2456   11.3500   -3.9592 H   0  0  0  0  0  0  0  0  0  0  0  0
    0.5205   11.8089   -3.7615 H   0  0  0  0  0  0  0  0  0  0  0  0
   -1.6402   11.2450   -2.8394 H   0  0  0  0  0  0  0  0  0  0  0  0
   -0.9262   10.1549   -1.6316 H   0  0  0  0  0  0  0  0  0  0  0  0
   -1.9307   12.7800   -1.1119 H   0  0  0  0  0  0  0  0  0  0  0  0
   -0.8985   11.8810   -0.0032 H   0  0  0  0  0  0  0  0  0  0  0  0
   -0.8702   14.9971   -2.1210 H   0  0  0  0  0  0  0  0  0  0  0  0
    0.5048   14.4662   -3.1477 H   0  0  0  0  0  0  0  0  0  0  0  0
   -1.0293   13.5317   -3.1477 H   0  0  0  0  0  0  0  0  0  0  0  0
    0.9129   13.3691    0.6094 H   0  0  0  0  0  0  0  0  0  0  0  0
   -1.3097   14.6390    0.3140 H   0  0  0  0  0  0  0  0  0  0  0  0
   -0.0160   15.2407    1.4774 H   0  0  0  0  0  0  0  0  0  0  0  0
   -1.2236   17.0770    0.0242 H   0  0  0  0  0  0  0  0  0  0  0  0
    1.8380   15.8542   -2.3051 H   0  0  0  0  0  0  0  0  0  0  0  0
    3.1877   17.4658   -0.0509 H   0  0  0  0  0  0  0  0  0  0  0  0
    4.0131   16.6259   -1.4382 H   0  0  0  0  0  0  0  0  0  0  0  0
    3.8480   19.0699   -1.7874 H   0  0  0  0  0  0  0  0  0  0  0  0
    2.9356   18.1169   -3.0221 H   0  0  0  0  0  0  0  0  0  0  0  0
    1.5962   19.9936   -2.3547 H   0  0  0  0  0  0  0  0  0  0  0  0
    2.4590   19.1420    0.1850 H   0  0  0  0  0  0  0  0  0  0  0  0
   -0.6226   17.2047   -3.2945 H   0  0  0  0  0  0  0  0  0  0  0  0
   -0.2506   18.9100   -3.7194 H   0  0  0  0  0  0  0  0  0  0  0  0
    1.0572   17.6786   -3.7194 H   0  0  0  0  0  0  0  0  0  0  0  0
   -0.7827   19.1630   -0.1270 H   0  0  0  0  0  0  0  0  0  0  0  0
   -0.6796   20.1903   -1.5969 H   0  0  0  0  0  0  0  0  0  0  0  0
   -1.7172   18.7240   -1.5969 H   0  0  0  0  0  0  0  0  0  0  0  0
    2.0542   14.8272    1.7279 H   0  0  0  0  0  0  0  0  0  0  0  0
    3.6854   14.5752    1.0192 H   0  0  0  0  0  0  0  0  0  0  0  0
    2.9495   16.2139    1.0192 H   0  0  0  0  0  0  0  0  0  0  0  0
    3.8424   14.5792   -1.7295 H   0  0  0  0  0  0  0  0  0  0  0  0
    3.5283   13.2515   -0.4756 H   0  0  0  0  0  0  0  0  0  0  0  0
    2.1898   13.6021   -3.1725 H   0  0  0  0  0  0  0  0  0  0  0  0
    3.2886   12.2768   -2.6211 H   0  0  0  0  0  0  0  0  0  0  0  0
    1.5683   11.7673    0.3650 H   0  0  0  0  0  0  0  0  0  0  0  0
    1.3531   10.3170   -0.6728 H   0  0  0  0  0  0  0  0  0  0  0  0
    2.9191   11.1970   -0.6728 H   0  0  0  0  0  0  0  0  0  0  0  0
  1  2  1  0
  2  3  1  0
  3  4  1  0
  4  5  1  0
  5  6  1  0
  6  7  1  0
  7  8  1  0
  7  9  1  0
  2 10  1  0
 10 11  1  0
 11 12  1  0
 12 13  1  0
 13 14  1  6
 13 15  1  0
 15 16  1  0
 16 17  1  0
 17 18  2  0
 18 19  1  0
 19 20  1  0
 20 21  1  0
 21 22  1  0
 22 23  1  0
 22 24  1  0
 24 25  1  0
 24 26  1  0
 19 27  1  0
 27 28  1  1
 27 29  1  0
 29 30  1  0
 30 31  1  0
 31 32  1  1
  7  5  1  0
 31 10  1  0
 31 13  1  0
 27 15  1  0
 24 18  1  0
  1 33  1  0
  1 34  1  0
  1 35  1  0
  2 36  1  6
  3 37  1  0
  3 38  1  0
  4 39  1  0
  4 40  1  0
  5 41  1  1
  8 42  1  0
  8 43  1  0
  8 44  1  0
  9 45  1  0
  9 46  1  0
  9 47  1  0
 10 48  1  6
 11 49  1  0
 11 50  1  0
 12 51  1  0
 12 52  1  0
 14 53  1  0
 14 54  1  0
 14 55  1  0
 15 56  1  1
 16 57  1  0
 16 58  1  0
 17 59  1  0
 19 60  1  6
 20 61  1  0
 20 62  1  0
 21 63  1  0
 21 64  1  0
 22 65  1  6
 23 66  1  0
 25 67  1  0
 25 68  1  0
 25 69  1  0
 26 70  1  0
 26 71  1  0
 26 72  1  0
 28 73  1  0
 28 74  1  0
 28 75  1  0
 29 76  1  0
 29 77  1  0
 30 78  1  0
 30 79  1  0
 32 80  1  0
 32 81  1  0
 32 82  1  0
M  END
>  <meeko>  (8) 
{"is_sidechain": [false], "intermolecular_energy": 2.731, "internal_energy": -0.839}

$$$$
EPH_relaxed_0001_pdb2pqr_Repair_267_r2_0001_out
     RDKit          3D

 82 86  0  0  0  0  0  0  0  0999 V2000
    3.3060   17.8040    0.4070 C   0  0  0  0  0  0  0  0  0  0  0  0
    2.7280   17.2990   -0.9180 C   0  0  2  0  0  0  0  0  0  0  0  0
    2.0870   18.4340   -1.7410 C   0  0  0  0  0  0  0  0  0  0  0  0
    1.8050   19.7010   -0.9280 C   0  0  0  0  0  0  0  0  0  0  0  0
    0.5100   19.6030   -0.1790 C   0  0  2  0  0  0  0  0  0  0  0  0
   -0.3280   18.5090   -0.5750 O   0  0  0  0  0  0  0  0  0  0  0  0
   -0.8460   19.8270   -0.8210 C   0  0  0  0  0  0  0  0  0  0  0  0
   -0.9760   20.1680   -2.2720 C   0  0  0  0  0  0  0  0  0  0  0  0
   -2.0010   20.1940    0.0570 C   0  0  0  0  0  0  0  0  0  0  0  0
    1.7030   16.2030   -0.6540 C   0  0  1  0  0  0  0  0  0  0  0  0
    0.2570   16.7540   -0.5310 C   0  0  0  0  0  0  0  0  0  0  0  0
   -0.6830   15.6830   -1.1410 C   0  0  0  0  0  0  0  0  0  0  0  0
    0.2030   14.4240   -1.2890 C   0  0  1  0  0  0  0  0  0  0  0  0
    0.2240   13.7790    0.1320 C   0  0  0  0  0  0  0  0  0  0  0  0
   -0.2340   13.3970   -2.3830 C   0  0  2  0  0  0  0  0  0  0  0  0
   -1.6130   12.7530   -2.1600 C   0  0  0  0  0  0  0  0  0  0  0  0
   -1.6050   11.4850   -1.3720 C   0  0  0  0  0  0  0  0  0  0  0  0
   -0.5190   10.7360   -1.1060 C   0  0  0  0  0  0  0  0  0  0  0  0
    0.8490   11.0940   -1.7000 C   0  0  1  0  0  0  0  0  0  0  0  0
    1.5120    9.8170   -2.2810 C   0  0  0  0  0  0  0  0  0  0  0  0
    1.5970    8.6860   -1.2600 C   0  0  0  0  0  0  0  0  0  0  0  0
    0.2110    8.3200   -0.7360 C   0  0  2  0  0  0  0  0  0  0  0  0
   -0.5500    7.7490   -1.8050 O   0  0  0  0  0  0  0  0  0  0  0  0
   -0.5570    9.5300   -0.1360 C   0  0  0  0  0  0  0  0  0  0  0  0
    0.1060    9.9580    1.1970 C   0  0  0  0  0  0  0  0  0  0  0  0
   -1.9910    9.0540    0.2260 C   0  0  0  0  0  0  0  0  0  0  0  0
    0.8640   12.3090   -2.7250 C   0  0  1  0  0  0  0  0  0  0  0  0
    0.5490   11.7960   -4.1630 C   0  0  0  0  0  0  0  0  0  0  0  0
    2.3140   12.9190   -2.7790 C   0  0  0  0  0  0  0  0  0  0  0  0
    2.6460   14.0150   -1.7480 C   0  0  0  0  0  0  0  0  0  0  0  0
    1.5580   15.0920   -1.7240 C   0  0  2  0  0  0  0  0  0  0  0  0
    1.5290   15.7740   -3.1350 C   0  0  0  0  0  0  0  0  0  0  0  0
    2.7686   17.3345    1.2441 H   0  0  0  0  0  0  0  0  0  0  0  0
    4.3732   17.5438    0.4644 H   0  0  0  0  0  0  0  0  0  0  0  0
    3.1914   18.8965    0.4644 H   0  0  0  0  0  0  0  0  0  0  0  0
    3.5615   16.8925   -1.5096 H   0  0  0  0  0  0  0  0  0  0  0  0
    2.7691   18.6941   -2.5639 H   0  0  0  0  0  0  0  0  0  0  0  0
    1.1170   18.0611   -2.1016 H   0  0  0  0  0  0  0  0  0  0  0  0
    2.6227   19.8517   -0.2078 H   0  0  0  0  0  0  0  0  0  0  0  0
    1.7336   20.5477   -1.6266 H   0  0  0  0  0  0  0  0  0  0  0  0
    0.9745   20.0187    0.7273 H   0  0  0  0  0  0  0  0  0  0  0  0
   -1.3661   21.1914   -2.3746 H   0  0  0  0  0  0  0  0  0  0  0  0
    0.0105   20.1016   -2.7541 H   0  0  0  0  0  0  0  0  0  0  0  0
   -1.6679   19.4617   -2.7541 H   0  0  0  0  0  0  0  0  0  0  0  0
   -1.7041   20.0997    1.1120 H   0  0  0  0  0  0  0  0  0  0  0  0
   -2.3019   21.2320   -0.1478 H   0  0  0  0  0  0  0  0  0  0  0  0
   -2.8459   19.5201   -0.1478 H   0  0  0  0  0  0  0  0  0  0  0  0
    2.1192   15.7812    0.2727 H   0  0  0  0  0  0  0  0  0  0  0  0
    0.0043   16.9219    0.5263 H   0  0  0  0  0  0  0  0  0  0  0  0
    0.1545   17.7149   -1.0564 H   0  0  0  0  0  0  0  0  0  0  0  0
   -1.5316   15.4838   -0.4701 H   0  0  0  0  0  0  0  0  0  0  0  0
   -1.1141   16.0045   -2.1006 H   0  0  0  0  0  0  0  0  0  0  0  0
    0.1982   14.5712    0.8947 H   0  0  0  0  0  0  0  0  0  0  0  0
   -0.6534   13.1263    0.2514 H   0  0  0  0  0  0  0  0  0  0  0  0
    1.1420   13.1848    0.2514 H   0  0  0  0  0  0  0  0  0  0  0  0
   -0.3426   14.0328   -3.2740 H   0  0  0  0  0  0  0  0  0  0  0  0
   -2.2454   13.4794   -1.6286 H   0  0  0  0  0  0  0  0  0  0  0  0
   -1.9901   12.4881   -3.1588 H   0  0  0  0  0  0  0  0  0  0  0  0
   -2.5686   11.1330   -0.9751 H   0  0  0  0  0  0  0  0  0  0  0  0
    1.4510   11.4802   -0.8643 H   0  0  0  0  0  0  0  0  0  0  0  0
    0.9193    9.4720   -3.1410 H   0  0  0  0  0  0  0  0  0  0  0  0
    2.5389   10.0785   -2.5761 H   0  0  0  0  0  0  0  0  0  0  0  0
    2.0463    7.8028   -1.7375 H   0  0  0  0  0  0  0  0  0  0  0  0
    2.2151    9.0217   -0.4143 H   0  0  0  0  0  0  0  0  0  0  0  0
    0.3483    7.5990    0.0834 H   0  0  0  0  0  0  0  0  0  0  0  0
   -0.3910    8.2870   -2.5990 H   0  0  0  0  0  0  0  0  0  0  0  0
   -0.4868    9.5753    2.0408 H   0  0  0  0  0  0  0  0  0  0  0  0
    1.1249    9.5467    1.2484 H   0  0  0  0  0  0  0  0  0  0  0  0
    0.1507   11.0559    1.2484 H   0  0  0  0  0  0  0  0  0  0  0  0
   -2.1001    9.0178    1.3200 H   0  0  0  0  0  0  0  0  0  0  0  0
   -2.7270    9.7560   -0.1928 H   0  0  0  0  0  0  0  0  0  0  0  0
   -2.1611    8.0512   -0.1928 H   0  0  0  0  0  0  0  0  0  0  0  0
   -0.0257   10.8601   -4.1007 H   0  0  0  0  0  0  0  0  0  0  0  0
   -0.0402   12.5529   -4.7015 H   0  0  0  0  0  0  0  0  0  0  0  0
    1.4906   11.6130   -4.7015 H   0  0  0  0  0  0  0  0  0  0  0  0
    3.0273   12.0950   -2.6300 H   0  0  0  0  0  0  0  0  0  0  0  0
    2.3809   13.4156   -3.7583 H   0  0  0  0  0  0  0  0  0  0  0  0
    2.7230   13.5589   -0.7500 H   0  0  0  0  0  0  0  0  0  0  0  0
    3.5993   14.4855   -2.0307 H   0  0  0  0  0  0  0  0  0  0  0  0
    1.4826   16.8663   -3.0134 H   0  0  0  0  0  0  0  0  0  0  0  0
    2.4394   15.5053   -3.6909 H   0  0  0  0  0  0  0  0  0  0  0  0
    0.6447   15.4290   -3.6909 H   0  0  0  0  0  0  0  0  0  0  0  0
  1  2  1  0
  2  3  1  0
  3  4  1  0
  4  5  1  0
  5  6  1  0
  6  7  1  0
  7  8  1  0
  7  9  1  0
  2 10  1  0
 10 11  1  0
 11 12  1  0
 12 13  1  0
 13 14  1  1
 13 15  1  0
 15 16  1  0
 16 17  1  0
 17 18  2  0
 18 19  1  0
 19 20  1  0
 20 21  1  0
 21 22  1  0
 22 23  1  0
 22 24  1  0
 24 25  1  0
 24 26  1  0
 19 27  1  0
 27 28  1  6
 27 29  1  0
 29 30  1  0
 30 31  1  0
 31 32  1  6
  7  5  1  0
 31 10  1  0
 31 13  1  0
 27 15  1  0
 24 18  1  0
  1 33  1  0
  1 34  1  0
  1 35  1  0
  2 36  1  6
  3 37  1  0
  3 38  1  0
  4 39  1  0
  4 40  1  0
  5 41  1  1
  8 42  1  0
  8 43  1  0
  8 44  1  0
  9 45  1  0
  9 46  1  0
  9 47  1  0
 10 48  1  1
 11 49  1  0
 11 50  1  0
 12 51  1  0
 12 52  1  0
 14 53  1  0
 14 54  1  0
 14 55  1  0
 15 56  1  6
 16 57  1  0
 16 58  1  0
 17 59  1  0
 19 60  1  1
 20 61  1  0
 20 62  1  0
 21 63  1  0
 21 64  1  0
 22 65  1  1
 23 66  1  0
 25 67  1  0
 25 68  1  0
 25 69  1  0
 26 70  1  0
 26 71  1  0
 26 72  1  0
 28 73  1  0
 28 74  1  0
 28 75  1  0
 29 76  1  0
 29 77  1  0
 30 78  1  0
 30 79  1  0
 32 80  1  0
 32 81  1  0
 32 82  1  0
M  END
>  <meeko>  (9) 
{"is_sidechain": [false], "intermolecular_energy": 2.731, "internal_energy": -0.839}

$$$$
EPH_relaxed_0001_pdb2pqr_Repair_267_r2_0001_out
     RDKit          3D

 82 86  0  0  0  0  0  0  0  0999 V2000
   -3.7520    7.2120   -3.3970 C   0  0  0  0  0  0  0  0  0  0  0  0
   -3.7880    7.2960   -1.8690 C   0  0  2  0  0  0  0  0  0  0  0  0
   -5.2100    7.0910   -1.3090 C   0  0  0  0  0  0  0  0  0  0  0  0
   -6.3160    7.3080   -2.3460 C   0  0  0  0  0  0  0  0  0  0  0  0
   -7.6540    7.4990   -1.6970 C   0  0  2  0  0  0  0  0  0  0  0  0
   -8.2280    6.3070   -1.1450 O   0  0  0  0  0  0  0  0  0  0  0  0
   -8.9400    6.9050   -2.2400 C   0  0  0  0  0  0  0  0  0  0  0  0
   -8.9510    6.0750   -3.4850 C   0  0  0  0  0  0  0  0  0  0  0  0
  -10.2410    7.5310   -1.8430 C   0  0  0  0  0  0  0  0  0  0  0  0
   -3.2360    8.6400   -1.4090 C   0  0  1  0  0  0  0  0  0  0  0  0
   -3.8420    9.1040   -0.0580 C   0  0  0  0  0  0  0  0  0  0  0  0
   -2.7180    9.8540    0.7020 C   0  0  0  0  0  0  0  0  0  0  0  0
   -1.6170   10.0860   -0.3590 C   0  0  1  0  0  0  0  0  0  0  0  0
   -2.0870   11.3420   -1.1580 C   0  0  0  0  0  0  0  0  0  0  0  0
   -0.1600   10.2590    0.1830 C   0  0  2  0  0  0  0  0  0  0  0  0
    0.0560   11.4790    1.0940 C   0  0  0  0  0  0  0  0  0  0  0  0
    0.4680   12.7320    0.3940 C   0  0  0  0  0  0  0  0  0  0  0  0
    0.9320   12.8080   -0.8670 C   0  0  0  0  0  0  0  0  0  0  0  0
    1.1730   11.5390   -1.6950 C   0  0  1  0  0  0  0  0  0  0  0  0
    2.5590   11.6280   -2.3870 C   0  0  0  0  0  0  0  0  0  0  0  0
    2.7200   12.9010   -3.2110 C   0  0  0  0  0  0  0  0  0  0  0  0
    2.5300   14.1420   -2.3420 C   0  0  2  0  0  0  0  0  0  0  0  0
    3.6050   14.2140   -1.4000 O   0  0  0  0  0  0  0  0  0  0  0  0
    1.1720   14.1580   -1.5860 C   0  0  0  0  0  0  0  0  0  0  0  0
    0.0180   14.3840   -2.5940 C   0  0  0  0  0  0  0  0  0  0  0  0
    1.1670   15.3880   -0.6390 C   0  0  0  0  0  0  0  0  0  0  0  0
    0.9610   10.1620   -0.9300 C   0  0  1  0  0  0  0  0  0  0  0  0
    2.2760    9.7490   -0.2020 C   0  0  0  0  0  0  0  0  0  0  0  0
    0.6620    9.0300   -1.9830 C   0  0  0  0  0  0  0  0  0  0  0  0
   -0.8100    8.8290   -2.3880 C   0  0  0  0  0  0  0  0  0  0  0  0
   -1.7110    8.7320   -1.1530 C   0  0  2  0  0  0  0  0  0  0  0  0
   -1.2750    7.4650   -0.3410 C   0  0  0  0  0  0  0  0  0  0  0  0
   -3.3356    6.2403   -3.7011 H   0  0  0  0  0  0  0  0  0  0  0  0
   -4.7728    7.3139   -3.7940 H   0  0  0  0  0  0  0  0  0  0  0  0
   -3.1218    8.0214   -3.7940 H   0  0  0  0  0  0  0  0  0  0  0  0
   -3.1591    6.4824   -1.4784 H   0  0  0  0  0  0  0  0  0  0  0  0
   -5.2883    6.0622   -0.9276 H   0  0  0  0  0  0  0  0  0  0  0  0
   -5.3567    7.8429   -0.5197 H   0  0  0  0  0  0  0  0  0  0  0  0
   -6.0771    8.2022   -2.9404 H   0  0  0  0  0  0  0  0  0  0  0  0
   -6.3686    6.4135   -2.9840 H   0  0  0  0  0  0  0  0  0  0  0  0
   -7.3850    8.5205   -1.3901 H   0  0  0  0  0  0  0  0  0  0  0  0
   -8.9651    5.0088   -3.2148 H   0  0  0  0  0  0  0  0  0  0  0  0
   -9.8460    6.3149   -4.0777 H   0  0  0  0  0  0  0  0  0  0  0  0
   -8.0499    6.2911   -4.0777 H   0  0  0  0  0  0  0  0  0  0  0  0
  -10.3118    7.5651   -0.7458 H   0  0  0  0  0  0  0  0  0  0  0  0
  -10.2940    8.5532   -2.2458 H   0  0  0  0  0  0  0  0  0  0  0  0
  -11.0729    6.9346   -2.2458 H   0  0  0  0  0  0  0  0  0  0  0  0
   -3.5098    9.2585   -2.2764 H   0  0  0  0  0  0  0  0  0  0  0  0
   -4.6934    9.7773   -0.2361 H   0  0  0  0  0  0  0  0  0  0  0  0
   -4.2094    8.2468    0.5253 H   0  0  0  0  0  0  0  0  0  0  0  0
   -3.0875   10.8130    1.0942 H   0  0  0  0  0  0  0  0  0  0  0  0
   -2.3491    9.2854    1.5684 H   0  0  0  0  0  0  0  0  0  0  0  0
   -2.3834   12.1342   -0.4547 H   0  0  0  0  0  0  0  0  0  0  0  0
   -1.2632   11.7032   -1.7911 H   0  0  0  0  0  0  0  0  0  0  0  0
   -2.9456   11.0737   -1.7911 H   0  0  0  0  0  0  0  0  0  0  0  0
   -0.0427    9.3781    0.8313 H   0  0  0  0  0  0  0  0  0  0  0  0
   -0.8873   11.6795    1.6231 H   0  0  0  0  0  0  0  0  0  0  0  0
    0.8886   11.2160    1.7630 H   0  0  0  0  0  0  0  0  0  0  0  0
    0.3852   13.6733    0.9571 H   0  0  0  0  0  0  0  0  0  0  0  0
    0.3773   11.5151   -2.4541 H   0  0  0  0  0  0  0  0  0  0  0  0
    3.3412   11.6070   -1.6139 H   0  0  0  0  0  0  0  0  0  0  0  0
    2.6453   10.7727   -3.0733 H   0  0  0  0  0  0  0  0  0  0  0  0
    3.7283   12.9202   -3.6503 H   0  0  0  0  0  0  0  0  0  0  0  0
    1.9554   12.9061   -4.0018 H   0  0  0  0  0  0  0  0  0  0  0  0
    2.5278   15.0156   -3.0104 H   0  0  0  0  0  0  0  0  0  0  0  0
    3.2500   13.9690   -0.5290 H   0  0  0  0  0  0  0  0  0  0  0  0
   -0.9176   14.5672   -2.0452 H   0  0  0  0  0  0  0  0  0  0  0  0
    0.2486   15.2540   -3.2263 H   0  0  0  0  0  0  0  0  0  0  0  0
   -0.0966   13.4912   -3.2263 H   0  0  0  0  0  0  0  0  0  0  0  0
    1.1684   15.0459    0.4064 H   0  0  0  0  0  0  0  0  0  0  0  0
    2.0627   15.9985   -0.8262 H   0  0  0  0  0  0  0  0  0  0  0  0
    0.2664   15.9912   -0.8262 H   0  0  0  0  0  0  0  0  0  0  0  0
    2.1232    9.7970    0.8863 H   0  0  0  0  0  0  0  0  0  0  0  0
    2.5473    8.7224   -0.4893 H   0  0  0  0  0  0  0  0  0  0  0  0
    3.0855   10.4362   -0.4893 H   0  0  0  0  0  0  0  0  0  0  0  0
    1.2288    9.2664   -2.8956 H   0  0  0  0  0  0  0  0  0  0  0  0
    0.9547    8.0923   -1.4881 H   0  0  0  0  0  0  0  0  0  0  0  0
   -1.1335    9.6816   -3.0031 H   0  0  0  0  0  0  0  0  0  0  0  0
   -0.8921    7.8907   -2.9562 H   0  0  0  0  0  0  0  0  0  0  0  0
   -1.3479    7.6767    0.7360 H   0  0  0  0  0  0  0  0  0  0  0  0
   -1.9348    6.6221   -0.5944 H   0  0  0  0  0  0  0  0  0  0  0  0
   -0.2362    7.2066   -0.5944 H   0  0  0  0  0  0  0  0  0  0  0  0
  1  2  1  0
  2  3  1  0
  3  4  1  0
  4  5  1  0
  5  6  1  0
  6  7  1  0
  7  8  1  0
  7  9  1  0
  2 10  1  0
 10 11  1  0
 11 12  1  0
 12 13  1  0
 13 14  1  6
 13 15  1  0
 15 16  1  0
 16 17  1  0
 17 18  2  0
 18 19  1  0
 19 20  1  0
 20 21  1  0
 21 22  1  0
 22 23  1  0
 22 24  1  0
 24 25  1  0
 24 26  1  0
 19 27  1  0
 27 28  1  1
 27 29  1  0
 29 30  1  0
 30 31  1  0
 31 32  1  1
  7  5  1  0
 31 10  1  0
 31 13  1  0
 27 15  1  0
 24 18  1  0
  1 33  1  0
  1 34  1  0
  1 35  1  0
  2 36  1  1
  3 37  1  0
  3 38  1  0
  4 39  1  0
  4 40  1  0
  5 41  1  1
  8 42  1  0
  8 43  1  0
  8 44  1  0
  9 45  1  0
  9 46  1  0
  9 47  1  0
 10 48  1  6
 11 49  1  0
 11 50  1  0
 12 51  1  0
 12 52  1  0
 14 53  1  0
 14 54  1  0
 14 55  1  0
 15 56  1  1
 16 57  1  0
 16 58  1  0
 17 59  1  0
 19 60  1  6
 20 61  1  0
 20 62  1  0
 21 63  1  0
 21 64  1  0
 22 65  1  6
 23 66  1  0
 25 67  1  0
 25 68  1  0
 25 69  1  0
 26 70  1  0
 26 71  1  0
 26 72  1  0
 28 73  1  0
 28 74  1  0
 28 75  1  0
 29 76  1  0
 29 77  1  0
 30 78  1  0
 30 79  1  0
 32 80  1  0
 32 81  1  0
 32 82  1  0
M  END
>  <meeko>  (10) 
{"is_sidechain": [false], "intermolecular_energy": 2.731, "internal_energy": -0.839}

$$$$
EPH_relaxed_0001_pdb2pqr_Repair_267_r2_0001_out
     RDKit          3D

 82 86  0  0  0  0  0  0  0  0999 V2000
   -0.8840   16.3410   -5.8290 C   0  0  0  0  0  0  0  0  0  0  0  0
    0.2070   15.6460   -6.6470 C   0  0  2  0  0  0  0  0  0  0  0  0
   -0.1980   15.4700   -8.1250 C   0  0  0  0  0  0  0  0  0  0  0  0
    0.4470   16.4910   -9.0660 C   0  0  0  0  0  0  0  0  0  0  0  0
    1.8520   16.1090   -9.4190 C   0  0  2  0  0  0  0  0  0  0  0  0
    2.3390   16.6800  -10.6400 O   0  0  0  0  0  0  0  0  0  0  0  0
    2.2100   15.2500  -10.6170 C   0  0  0  0  0  0  0  0  0  0  0  0
    1.1570   14.7190  -11.5390 C   0  0  0  0  0  0  0  0  0  0  0  0
    3.5200   14.5260  -10.6130 C   0  0  0  0  0  0  0  0  0  0  0  0
    0.5350   14.2910   -6.0320 C   0  0  1  0  0  0  0  0  0  0  0  0
    1.8040   13.6460   -6.6500 C   0  0  0  0  0  0  0  0  0  0  0  0
    2.5170   12.8770   -5.5080 C   0  0  0  0  0  0  0  0  0  0  0  0
    1.4780   12.8260   -4.3640 C   0  0  1  0  0  0  0  0  0  0  0  0
    0.5290   11.6440   -4.7370 C   0  0  0  0  0  0  0  0  0  0  0  0
    2.0490   12.6730   -2.9170 C   0  0  2  0  0  0  0  0  0  0  0  0
    2.8280   11.3710   -2.6570 C   0  0  0  0  0  0  0  0  0  0  0  0
    2.0090   10.2290   -2.1530 C   0  0  0  0  0  0  0  0  0  0  0  0
    0.7650   10.3210   -1.6480 C   0  0  0  0  0  0  0  0  0  0  0  0
    0.0920   11.6860   -1.4550 C   0  0  1  0  0  0  0  0  0  0  0  0
   -0.5550   11.7510   -0.0470 C   0  0  0  0  0  0  0  0  0  0  0  0
   -1.5090   10.5880    0.2120 C   0  0  0  0  0  0  0  0  0  0  0  0
   -0.7890    9.2500    0.0690 C   0  0  2  0  0  0  0  0  0  0  0  0
    0.1770    9.1310    1.1170 O   0  0  0  0  0  0  0  0  0  0  0  0
   -0.0900    9.0750   -1.3080 C   0  0  0  0  0  0  0  0  0  0  0  0
   -1.1580    8.9020   -2.4160 C   0  0  0  0  0  0  0  0  0  0  0  0
    0.7150    7.7480   -1.2700 C   0  0  0  0  0  0  0  0  0  0  0  0
    0.9960   12.9550   -1.7700 C   0  0  1  0  0  0  0  0  0  0  0  0
    1.8120   13.3550   -0.5040 C   0  0  0  0  0  0  0  0  0  0  0  0
    0.0640   14.1800   -2.1030 C   0  0  0  0  0  0  0  0  0  0  0  0
   -0.3700   14.3450   -3.5720 C   0  0  0  0  0  0  0  0  0  0  0  0
    0.8350   14.2530   -4.5130 C   0  0  2  0  0  0  0  0  0  0  0  0
    1.7970   15.4440   -4.1760 C   0  0  0  0  0  0  0  0  0  0  0  0
   -0.6779   16.2097   -4.7565 H   0  0  0  0  0  0  0  0  0  0  0  0
   -0.8966   17.4139   -6.0713 H   0  0  0  0  0  0  0  0  0  0  0  0
   -1.8617   15.8989   -6.0713 H   0  0  0  0  0  0  0  0  0  0  0  0
    1.0984   16.2901   -6.6235 H   0  0  0  0  0  0  0  0  0  0  0  0
    0.1004   14.4621   -8.4491 H   0  0  0  0  0  0  0  0  0  0  0  0
   -1.2857   15.6241   -8.1806 H   0  0  0  0  0  0  0  0  0  0  0  0
   -0.1486   16.5513   -9.9888 H   0  0  0  0  0  0  0  0  0  0  0  0
    0.4749   17.4624   -8.5507 H   0  0  0  0  0  0  0  0  0  0  0  0
    2.1258   16.0431   -8.3557 H   0  0  0  0  0  0  0  0  0  0  0  0
    0.3287   14.3013  -10.9478 H   0  0  0  0  0  0  0  0  0  0  0  0
    0.7798   15.5347  -12.1734 H   0  0  0  0  0  0  0  0  0  0  0  0
    1.5887   13.9308  -12.1734 H   0  0  0  0  0  0  0  0  0  0  0  0
    3.8385   14.3500   -9.5749 H   0  0  0  0  0  0  0  0  0  0  0  0
    3.4077   13.5619  -11.1306 H   0  0  0  0  0  0  0  0  0  0  0  0
    4.2766   15.1340  -11.1306 H   0  0  0  0  0  0  0  0  0  0  0  0
   -0.4052   13.7606   -6.2433 H   0  0  0  0  0  0  0  0  0  0  0  0
    1.5221   12.9519   -7.4555 H   0  0  0  0  0  0  0  0  0  0  0  0
    2.4648   14.4113   -7.0831 H   0  0  0  0  0  0  0  0  0  0  0  0
    2.7868   11.8614   -5.8331 H   0  0  0  0  0  0  0  0  0  0  0  0
    3.4540   13.3635   -5.1991 H   0  0  0  0  0  0  0  0  0  0  0  0
    0.1510   11.1731   -3.8176 H   0  0  0  0  0  0  0  0  0  0  0  0
   -0.3167   12.0253   -5.3281 H   0  0  0  0  0  0  0  0  0  0  0  0
    1.0840   10.9007   -5.3281 H   0  0  0  0  0  0  0  0  0  0  0  0
    2.7936   13.4814   -2.8716 H   0  0  0  0  0  0  0  0  0  0  0  0
    3.2981   11.0614   -3.6021 H   0  0  0  0  0  0  0  0  0  0  0  0
    3.5511   11.6022   -1.8610 H   0  0  0  0  0  0  0  0  0  0  0  0
    2.4609    9.2271   -2.1983 H   0  0  0  0  0  0  0  0  0  0  0  0
   -0.6886   11.7515   -2.2272 H   0  0  0  0  0  0  0  0  0  0  0  0
    0.2432   11.7277    0.7095 H   0  0  0  0  0  0  0  0  0  0  0  0
   -1.1390   12.6814    0.0099 H   0  0  0  0  0  0  0  0  0  0  0  0
   -1.9117   10.6730    1.2321 H   0  0  0  0  0  0  0  0  0  0  0  0
   -2.3225   10.6298   -0.5272 H   0  0  0  0  0  0  0  0  0  0  0  0
   -1.5491    8.4579    0.1383 H   0  0  0  0  0  0  0  0  0  0  0  0
    0.0440    9.8770    1.7260 H   0  0  0  0  0  0  0  0  0  0  0  0
   -2.1433    8.7424   -1.9538 H   0  0  0  0  0  0  0  0  0  0  0  0
   -1.1883    9.8070   -3.0406 H   0  0  0  0  0  0  0  0  0  0  0  0
   -0.9010    8.0338   -3.0406 H   0  0  0  0  0  0  0  0  0  0  0  0
    0.8920    7.4563   -0.2242 H   0  0  0  0  0  0  0  0  0  0  0  0
    0.1438    6.9579   -1.7794 H   0  0  0  0  0  0  0  0  0  0  0  0
    1.6796    7.8896   -1.7794 H   0  0  0  0  0  0  0  0  0  0  0  0
    1.2475   13.0783    0.3986 H   0  0  0  0  0  0  0  0  0  0  0  0
    2.7776   12.8281   -0.5085 H   0  0  0  0  0  0  0  0  0  0  0  0
    1.9869   14.4410   -0.5085 H   0  0  0  0  0  0  0  0  0  0  0  0
   -0.8479   14.0787   -1.4962 H   0  0  0  0  0  0  0  0  0  0  0  0
    0.6699   15.0708   -1.8806 H   0  0  0  0  0  0  0  0  0  0  0  0
   -1.0871   13.5507   -3.8268 H   0  0  0  0  0  0  0  0  0  0  0  0
   -0.8338   15.3352   -3.6917 H   0  0  0  0  0  0  0  0  0  0  0  0
    1.8819   15.5491   -3.0843 H   0  0  0  0  0  0  0  0  0  0  0  0
    2.7907   15.2449   -4.6036 H   0  0  0  0  0  0  0  0  0  0  0  0
    1.3934   16.3736   -4.6036 H   0  0  0  0  0  0  0  0  0  0  0  0
  1  2  1  0
  2  3  1  0
  3  4  1  0
  4  5  1  0
  5  6  1  0
  6  7  1  0
  7  8  1  0
  7  9  1  0
  2 10  1  0
 10 11  1  0
 11 12  1  0
 12 13  1  0
 13 14  1  6
 13 15  1  0
 15 16  1  0
 16 17  1  0
 17 18  2  0
 18 19  1  0
 19 20  1  0
 20 21  1  0
 21 22  1  0
 22 23  1  0
 22 24  1  0
 24 25  1  0
 24 26  1  0
 19 27  1  0
 27 28  1  1
 27 29  1  0
 29 30  1  0
 30 31  1  0
 31 32  1  1
  7  5  1  0
 31 10  1  0
 31 13  1  0
 27 15  1  0
 24 18  1  0
  1 33  1  0
  1 34  1  0
  1 35  1  0
  2 36  1  6
  3 37  1  0
  3 38  1  0
  4 39  1  0
  4 40  1  0
  5 41  1  1
  8 42  1  0
  8 43  1  0
  8 44  1  0
  9 45  1  0
  9 46  1  0
  9 47  1  0
 10 48  1  1
 11 49  1  0
 11 50  1  0
 12 51  1  0
 12 52  1  0
 14 53  1  0
 14 54  1  0
 14 55  1  0
 15 56  1  1
 16 57  1  0
 16 58  1  0
 17 59  1  0
 19 60  1  6
 20 61  1  0
 20 62  1  0
 21 63  1  0
 21 64  1  0
 22 65  1  1
 23 66  1  0
 25 67  1  0
 25 68  1  0
 25 69  1  0
 26 70  1  0
 26 71  1  0
 26 72  1  0
 28 73  1  0
 28 74  1  0
 28 75  1  0
 29 76  1  0
 29 77  1  0
 30 78  1  0
 30 79  1  0
 32 80  1  0
 32 81  1  0
 32 82  1  0
M  END
>  <meeko>  (11) 
{"is_sidechain": [false], "intermolecular_energy": 2.731, "internal_energy": -0.839}

$$$$
EPH_relaxed_0001_pdb2pqr_Repair_267_r2_0001_out
     RDKit          3D

 82 86  0  0  0  0  0  0  0  0999 V2000
   -0.2940   15.1040   -7.6190 C   0  0  0  0  0  0  0  0  0  0  0  0
    1.0820   15.0760   -6.9490 C   0  0  2  0  0  0  0  0  0  0  0  0
    2.2290   15.1630   -7.9760 C   0  0  0  0  0  0  0  0  0  0  0  0
    2.2590   16.4800   -8.7560 C   0  0  0  0  0  0  0  0  0  0  0  0
    1.8560   16.2860  -10.1870 C   0  0  2  0  0  0  0  0  0  0  0  0
    1.1950   15.0440  -10.4600 O   0  0  0  0  0  0  0  0  0  0  0  0
    2.4700   15.2360  -11.0940 C   0  0  0  0  0  0  0  0  0  0  0  0
    3.5390   14.3110  -10.6040 C   0  0  0  0  0  0  0  0  0  0  0  0
    2.3830   15.4310  -12.5750 C   0  0  0  0  0  0  0  0  0  0  0  0
    1.2270   13.8110   -6.1120 C   0  0  1  0  0  0  0  0  0  0  0  0
    2.6590   13.2140   -6.1740 C   0  0  0  0  0  0  0  0  0  0  0  0
    2.9510   12.6090   -4.7770 C   0  0  0  0  0  0  0  0  0  0  0  0
    1.5760   12.5790   -4.0690 C   0  0  1  0  0  0  0  0  0  0  0  0
    0.8720   11.2970   -4.6150 C   0  0  0  0  0  0  0  0  0  0  0  0
    1.6030   12.6000   -2.5060 C   0  0  2  0  0  0  0  0  0  0  0  0
    2.2920   11.3910   -1.8480 C   0  0  0  0  0  0  0  0  0  0  0  0
    1.3970   10.2380   -1.5370 C   0  0  0  0  0  0  0  0  0  0  0  0
    0.0520   10.2770   -1.5120 C   0  0  0  0  0  0  0  0  0  0  0  0
   -0.7020   11.5970   -1.7180 C   0  0  1  0  0  0  0  0  0  0  0  0
   -1.8090   11.7360   -0.6400 C   0  0  0  0  0  0  0  0  0  0  0  0
   -2.7430   10.5300   -0.6020 C   0  0  0  0  0  0  0  0  0  0  0  0
   -1.9640    9.2450   -0.3370 C   0  0  2  0  0  0  0  0  0  0  0  0
   -1.4290    9.2960    0.9890 O   0  0  0  0  0  0  0  0  0  0  0  0
   -0.8150    9.0030   -1.3550 C   0  0  0  0  0  0  0  0  0  0  0  0
   -1.4120    8.6490   -2.7400 C   0  0  0  0  0  0  0  0  0  0  0  0
   -0.0210    7.7520   -0.8920 C   0  0  0  0  0  0  0  0  0  0  0  0
    0.2010   12.9000   -1.8370 C   0  0  1  0  0  0  0  0  0  0  0  0
    0.4970   13.4730   -0.4180 C   0  0  0  0  0  0  0  0  0  0  0  0
   -0.6030   14.0140   -2.6070 C   0  0  0  0  0  0  0  0  0  0  0  0
   -0.4940   14.0130   -4.1440 C   0  0  0  0  0  0  0  0  0  0  0  0
    0.9700   13.9320   -4.5890 C   0  0  2  0  0  0  0  0  0  0  0  0
    1.6990   15.2190   -4.0730 C   0  0  0  0  0  0  0  0  0  0  0  0
   -1.0775   15.1199   -6.8470 H   0  0  0  0  0  0  0  0  0  0  0  0
   -0.3784   16.0040   -8.2457 H   0  0  0  0  0  0  0  0  0  0  0  0
   -0.4150   14.2081   -8.2457 H   0  0  0  0  0  0  0  0  0  0  0  0
    1.1522   15.9610   -6.2995 H   0  0  0  0  0  0  0  0  0  0  0  0
    3.1836   15.0550   -7.4402 H   0  0  0  0  0  0  0  0  0  0  0  0
    2.0654   14.3593   -8.7090 H   0  0  0  0  0  0  0  0  0  0  0  0
    1.5647   17.1903   -8.2832 H   0  0  0  0  0  0  0  0  0  0  0  0
    3.2892   16.8653   -8.7390 H   0  0  0  0  0  0  0  0  0  0  0  0
    1.6955   17.3669  -10.3127 H   0  0  0  0  0  0  0  0  0  0  0  0
    3.5441   14.3066   -9.5040 H   0  0  0  0  0  0  0  0  0  0  0  0
    3.3417   13.2940  -10.9739 H   0  0  0  0  0  0  0  0  0  0  0  0
    4.5171   14.6524  -10.9739 H   0  0  0  0  0  0  0  0  0  0  0  0
    1.9435   16.4162  -12.7899 H   0  0  0  0  0  0  0  0  0  0  0  0
    3.3910   15.3760  -13.0119 H   0  0  0  0  0  0  0  0  0  0  0  0
    1.7506   14.6441  -13.0119 H   0  0  0  0  0  0  0  0  0  0  0  0
    0.4457   13.1921   -6.5773 H   0  0  0  0  0  0  0  0  0  0  0  0
    2.7099   12.4305   -6.9445 H   0  0  0  0  0  0  0  0  0  0  0  0
    3.3984   13.9862   -6.4329 H   0  0  0  0  0  0  0  0  0  0  0  0
    3.3610   11.5927   -4.8720 H   0  0  0  0  0  0  0  0  0  0  0  0
    3.6957   13.1935   -4.2169 H   0  0  0  0  0  0  0  0  0  0  0  0
    0.5321   10.6780   -3.7716 H   0  0  0  0  0  0  0  0  0  0  0  0
    0.0067   11.5872   -5.2290 H   0  0  0  0  0  0  0  0  0  0  0  0
    1.5812   10.7225   -5.2290 H   0  0  0  0  0  0  0  0  0  0  0  0
    2.2496   13.4643   -2.2940 H   0  0  0  0  0  0  0  0  0  0  0  0
    3.0791   11.0360   -2.5295 H   0  0  0  0  0  0  0  0  0  0  0  0
    2.6747   11.7484   -0.8806 H   0  0  0  0  0  0  0  0  0  0  0  0
    1.8772    9.2750   -1.3090 H   0  0  0  0  0  0  0  0  0  0  0  0
   -1.1598   11.5325   -2.7161 H   0  0  0  0  0  0  0  0  0  0  0  0
   -1.3308   11.8429    0.3448 H   0  0  0  0  0  0  0  0  0  0  0  0
   -2.4138   12.6190   -0.8942 H   0  0  0  0  0  0  0  0  0  0  0  0
   -3.4838   10.6735    0.1984 H   0  0  0  0  0  0  0  0  0  0  0  0
   -3.2432   10.4424   -1.5778 H   0  0  0  0  0  0  0  0  0  0  0  0
   -2.6651    8.4051   -0.4510 H   0  0  0  0  0  0  0  0  0  0  0  0
   -0.5370    8.9090    0.9620 H   0  0  0  0  0  0  0  0  0  0  0  0
   -2.3508    8.0923   -2.6032 H   0  0  0  0  0  0  0  0  0  0  0  0
   -1.6126    9.5742   -3.3001 H   0  0  0  0  0  0  0  0  0  0  0  0
   -0.6965    8.0291   -3.3001 H   0  0  0  0  0  0  0  0  0  0  0  0
    0.0008    7.7177    0.2072 H   0  0  0  0  0  0  0  0  0  0  0  0
   -0.5089    6.8446   -1.2776 H   0  0  0  0  0  0  0  0  0  0  0  0
    1.0077    7.8072   -1.2776 H   0  0  0  0  0  0  0  0  0  0  0  0
    0.1333   12.7690    0.3449 H   0  0  0  0  0  0  0  0  0  0  0  0
    1.5813   13.6150   -0.2988 H   0  0  0  0  0  0  0  0  0  0  0  0
   -0.0147   14.4394   -0.2988 H   0  0  0  0  0  0  0  0  0  0  0  0
   -1.6657   13.8959   -2.3487 H   0  0  0  0  0  0  0  0  0  0  0  0
   -0.1537   14.9658   -2.2874 H   0  0  0  0  0  0  0  0  0  0  0  0
   -1.0401   13.1455   -4.5431 H   0  0  0  0  0  0  0  0  0  0  0  0
   -0.9262   14.9491   -4.5273 H   0  0  0  0  0  0  0  0  0  0  0  0
    1.7013   15.2230   -2.9730 H   0  0  0  0  0  0  0  0  0  0  0  0
    2.7353   15.2262   -4.4418 H   0  0  0  0  0  0  0  0  0  0  0  0
    1.1723   16.1115   -4.4418 H   0  0  0  0  0  0  0  0  0  0  0  0
  1  2  1  0
  2  3  1  0
  3  4  1  0
  4  5  1  0
  5  6  1  0
  6  7  1  0
  7  8  1  0
  7  9  1  0
  2 10  1  0
 10 11  1  0
 11 12  1  0
 12 13  1  0
 13 14  1  1
 13 15  1  0
 15 16  1  0
 16 17  1  0
 17 18  2  0
 18 19  1  0
 19 20  1  0
 20 21  1  0
 21 22  1  0
 22 23  1  0
 22 24  1  0
 24 25  1  0
 24 26  1  0
 19 27  1  0
 27 28  1  1
 27 29  1  0
 29 30  1  0
 30 31  1  0
 31 32  1  1
  7  5  1  0
 31 10  1  0
 31 13  1  0
 27 15  1  0
 24 18  1  0
  1 33  1  0
  1 34  1  0
  1 35  1  0
  2 36  1  1
  3 37  1  0
  3 38  1  0
  4 39  1  0
  4 40  1  0
  5 41  1  6
  8 42  1  0
  8 43  1  0
  8 44  1  0
  9 45  1  0
  9 46  1  0
  9 47  1  0
 10 48  1  6
 11 49  1  0
 11 50  1  0
 12 51  1  0
 12 52  1  0
 14 53  1  0
 14 54  1  0
 14 55  1  0
 15 56  1  6
 16 57  1  0
 16 58  1  0
 17 59  1  0
 19 60  1  6
 20 61  1  0
 20 62  1  0
 21 63  1  0
 21 64  1  0
 22 65  1  1
 23 66  1  0
 25 67  1  0
 25 68  1  0
 25 69  1  0
 26 70  1  0
 26 71  1  0
 26 72  1  0
 28 73  1  0
 28 74  1  0
 28 75  1  0
 29 76  1  0
 29 77  1  0
 30 78  1  0
 30 79  1  0
 32 80  1  0
 32 81  1  0
 32 82  1  0
M  END
>  <meeko>  (12) 
{"is_sidechain": [false], "intermolecular_energy": 2.731, "internal_energy": -0.839}

$$$$
EPH_relaxed_0001_pdb2pqr_Repair_267_r2_0001_out
     RDKit          3D

 82 86  0  0  0  0  0  0  0  0999 V2000
    0.1800    9.3040   -2.2960 C   0  0  0  0  0  0  0  0  0  0  0  0
    1.1820   10.3500   -2.7940 C   0  0  2  0  0  0  0  0  0  0  0  0
    2.6040    9.7690   -2.9370 C   0  0  0  0  0  0  0  0  0  0  0  0
    3.4980   10.5610   -3.8950 C   0  0  0  0  0  0  0  0  0  0  0  0
    4.8860   10.7220   -3.3520 C   0  0  2  0  0  0  0  0  0  0  0  0
    5.5350   11.9460   -3.7210 O   0  0  0  0  0  0  0  0  0  0  0  0
    6.1280   10.7370   -4.2230 C   0  0  0  0  0  0  0  0  0  0  0  0
    6.0410   10.5890   -5.7100 C   0  0  0  0  0  0  0  0  0  0  0  0
    7.4460   10.4060   -3.5960 C   0  0  0  0  0  0  0  0  0  0  0  0
    1.2010   11.5440   -1.8470 C   0  0  1  0  0  0  0  0  0  0  0  0
    2.2770   11.4100   -0.7370 C   0  0  0  0  0  0  0  0  0  0  0  0
    2.8130   12.8380   -0.4590 C   0  0  0  0  0  0  0  0  0  0  0  0
    1.8090   13.7770   -1.1680 C   0  0  1  0  0  0  0  0  0  0  0  0
    0.6080   13.9000   -0.1790 C   0  0  0  0  0  0  0  0  0  0  0  0
    2.3550   15.1790   -1.5910 C   0  0  2  0  0  0  0  0  0  0  0  0
    2.8180   16.0770   -0.4300 C   0  0  0  0  0  0  0  0  0  0  0  0
    1.7670   16.9700    0.1430 C   0  0  0  0  0  0  0  0  0  0  0  0
    0.5860   17.2590   -0.4340 C   0  0  0  0  0  0  0  0  0  0  0  0
    0.2480   16.7420   -1.8380 C   0  0  1  0  0  0  0  0  0  0  0  0
   -0.3430   17.8980   -2.6870 C   0  0  0  0  0  0  0  0  0  0  0  0
   -1.5330   18.5710   -2.0110 C   0  0  0  0  0  0  0  0  0  0  0  0
   -1.1430   19.1230   -0.6420 C   0  0  2  0  0  0  0  0  0  0  0  0
   -0.2120   20.1940   -0.8250 O   0  0  0  0  0  0  0  0  0  0  0  0
   -0.5260   18.0500    0.2980 C   0  0  0  0  0  0  0  0  0  0  0  0
   -1.6240   17.0500    0.7380 C   0  0  0  0  0  0  0  0  0  0  0  0
   -0.0470   18.7650    1.5900 C   0  0  0  0  0  0  0  0  0  0  0  0
    1.4140   15.9670   -2.5910 C   0  0  1  0  0  0  0  0  0  0  0  0
    2.3220   16.9800   -3.3520 C   0  0  0  0  0  0  0  0  0  0  0  0
    0.7830   15.0260   -3.6850 C   0  0  0  0  0  0  0  0  0  0  0  0
    0.3740   13.6110   -3.2330 C   0  0  0  0  0  0  0  0  0  0  0  0
    1.5100   12.9330   -2.4610 C   0  0  2  0  0  0  0  0  0  0  0  0
    2.7250   12.7750   -3.4370 C   0  0  0  0  0  0  0  0  0  0  0  0
    0.1734    9.2971   -1.1960 H   0  0  0  0  0  0  0  0  0  0  0  0
   -0.8251    9.5532   -2.6672 H   0  0  0  0  0  0  0  0  0  0  0  0
    0.4721    8.3106   -2.6672 H   0  0  0  0  0  0  0  0  0  0  0  0
    0.8543   10.6731   -3.7931 H   0  0  0  0  0  0  0  0  0  0  0  0
    3.0782    9.7626   -1.9445 H   0  0  0  0  0  0  0  0  0  0  0  0
    2.4979    8.7581   -3.3574 H   0  0  0  0  0  0  0  0  0  0  0  0
    3.5506   10.0284   -4.8560 H   0  0  0  0  0  0  0  0  0  0  0  0
    3.0613   11.5625   -4.0230 H   0  0  0  0  0  0  0  0  0  0  0  0
    4.6248   10.1502   -2.4493 H   0  0  0  0  0  0  0  0  0  0  0  0
    5.4976    9.6646   -5.9553 H   0  0  0  0  0  0  0  0  0  0  0  0
    5.5065   11.4520   -6.1337 H   0  0  0  0  0  0  0  0  0  0  0  0
    7.0550   10.5417   -6.1337 H   0  0  0  0  0  0  0  0  0  0  0  0
    7.3475   10.4307   -2.5007 H   0  0  0  0  0  0  0  0  0  0  0  0
    7.7608    9.4009   -3.9132 H   0  0  0  0  0  0  0  0  0  0  0  0
    8.1984   11.1431   -3.9132 H   0  0  0  0  0  0  0  0  0  0  0  0
    0.1610   11.5127   -1.4900 H   0  0  0  0  0  0  0  0  0  0  0  0
    1.8296   10.9890    0.1755 H   0  0  0  0  0  0  0  0  0  0  0  0
    3.0886   10.7380   -1.0527 H   0  0  0  0  0  0  0  0  0  0  0  0
    2.8368   13.0401    0.6220 H   0  0  0  0  0  0  0  0  0  0  0  0
    3.8416   12.9756   -0.8237 H   0  0  0  0  0  0  0  0  0  0  0  0
    0.9796   13.8619    0.8556 H   0  0  0  0  0  0  0  0  0  0  0  0
    0.0904   14.8558   -0.3478 H   0  0  0  0  0  0  0  0  0  0  0  0
   -0.0926   13.0689   -0.3478 H   0  0  0  0  0  0  0  0  0  0  0  0
    3.2665   14.9179   -2.1487 H   0  0  0  0  0  0  0  0  0  0  0  0
    3.1881   15.4266    0.3762 H   0  0  0  0  0  0  0  0  0  0  0  0
    3.5883   16.7420   -0.8477 H   0  0  0  0  0  0  0  0  0  0  0  0
    1.9760   17.4307    1.1198 H   0  0  0  0  0  0  0  0  0  0  0  0
   -0.5089   15.9561   -1.6984 H   0  0  0  0  0  0  0  0  0  0  0  0
    0.4415   18.6514   -2.8516 H   0  0  0  0  0  0  0  0  0  0  0  0
   -0.6971   17.4683   -3.6357 H   0  0  0  0  0  0  0  0  0  0  0  0
   -1.8869   19.3975   -2.6448 H   0  0  0  0  0  0  0  0  0  0  0  0
   -2.3280   17.8232   -1.8743 H   0  0  0  0  0  0  0  0  0  0  0  0
   -2.0637   19.4756   -0.1542 H   0  0  0  0  0  0  0  0  0  0  0  0
   -0.2100   20.4240   -1.7700 H   0  0  0  0  0  0  0  0  0  0  0  0
   -1.6661   17.0116    1.8365 H   0  0  0  0  0  0  0  0  0  0  0  0
   -2.5976   17.3781    0.3450 H   0  0  0  0  0  0  0  0  0  0  0  0
   -1.3881   16.0501    0.3450 H   0  0  0  0  0  0  0  0  0  0  0  0
   -0.4143   18.2168    2.4701 H   0  0  0  0  0  0  0  0  0  0  0  0
    1.0525   18.7925    1.6077 H   0  0  0  0  0  0  0  0  0  0  0  0
   -0.4398   19.7923    1.6077 H   0  0  0  0  0  0  0  0  0  0  0  0
    2.8735   17.5953   -2.6259 H   0  0  0  0  0  0  0  0  0  0  0  0
    3.0354   16.4303   -3.9836 H   0  0  0  0  0  0  0  0  0  0  0  0
    1.6978   17.6293   -3.9836 H   0  0  0  0  0  0  0  0  0  0  0  0
   -0.1174   15.5244   -4.0733 H   0  0  0  0  0  0  0  0  0  0  0  0
    1.5808   14.8717   -4.4264 H   0  0  0  0  0  0  0  0  0  0  0  0
   -0.5105   13.6824   -2.5830 H   0  0  0  0  0  0  0  0  0  0  0  0
    0.1480   13.0090   -4.1255 H   0  0  0  0  0  0  0  0  0  0  0  0
    3.6502   12.6547   -2.8543 H   0  0  0  0  0  0  0  0  0  0  0  0
    2.5732   11.8890   -4.0710 H   0  0  0  0  0  0  0  0  0  0  0  0
    2.8048   13.6703   -4.0710 H   0  0  0  0  0  0  0  0  0  0  0  0
  1  2  1  0
  2  3  1  0
  3  4  1  0
  4  5  1  0
  5  6  1  0
  6  7  1  0
  7  8  1  0
  7  9  1  0
  2 10  1  0
 10 11  1  0
 11 12  1  0
 12 13  1  0
 13 14  1  1
 13 15  1  0
 15 16  1  0
 16 17  1  0
 17 18  2  0
 18 19  1  0
 19 20  1  0
 20 21  1  0
 21 22  1  0
 22 23  1  0
 22 24  1  0
 24 25  1  0
 24 26  1  0
 19 27  1  0
 27 28  1  6
 27 29  1  0
 29 30  1  0
 30 31  1  0
 31 32  1  6
  7  5  1  0
 31 10  1  0
 31 13  1  0
 27 15  1  0
 24 18  1  0
  1 33  1  0
  1 34  1  0
  1 35  1  0
  2 36  1  6
  3 37  1  0
  3 38  1  0
  4 39  1  0
  4 40  1  0
  5 41  1  1
  8 42  1  0
  8 43  1  0
  8 44  1  0
  9 45  1  0
  9 46  1  0
  9 47  1  0
 10 48  1  1
 11 49  1  0
 11 50  1  0
 12 51  1  0
 12 52  1  0
 14 53  1  0
 14 54  1  0
 14 55  1  0
 15 56  1  6
 16 57  1  0
 16 58  1  0
 17 59  1  0
 19 60  1  1
 20 61  1  0
 20 62  1  0
 21 63  1  0
 21 64  1  0
 22 65  1  1
 23 66  1  0
 25 67  1  0
 25 68  1  0
 25 69  1  0
 26 70  1  0
 26 71  1  0
 26 72  1  0
 28 73  1  0
 28 74  1  0
 28 75  1  0
 29 76  1  0
 29 77  1  0
 30 78  1  0
 30 79  1  0
 32 80  1  0
 32 81  1  0
 32 82  1  0
M  END
>  <meeko>  (13) 
{"is_sidechain": [false], "intermolecular_energy": 2.731, "internal_energy": -0.839}

$$$$
EPH_relaxed_0001_pdb2pqr_Repair_267_r2_0001_out
     RDKit          3D

 82 86  0  0  0  0  0  0  0  0999 V2000
   -2.1290    7.8040   -2.1390 C   0  0  0  0  0  0  0  0  0  0  0  0
   -2.2350    8.4630   -0.7620 C   0  0  2  0  0  0  0  0  0  0  0  0
   -3.6810    8.4590   -0.2260 C   0  0  0  0  0  0  0  0  0  0  0  0
   -4.7390    8.2480   -1.3120 C   0  0  0  0  0  0  0  0  0  0  0  0
   -5.9110    7.4660   -0.7990 C   0  0  2  0  0  0  0  0  0  0  0  0
   -5.7810    6.0440   -0.9210 O   0  0  0  0  0  0  0  0  0  0  0  0
   -6.8290    6.6530   -1.6920 C   0  0  0  0  0  0  0  0  0  0  0  0
   -6.6160    6.5810   -3.1720 C   0  0  0  0  0  0  0  0  0  0  0  0
   -8.2050    6.3310   -1.1990 C   0  0  0  0  0  0  0  0  0  0  0  0
   -1.7080    9.8910   -0.8270 C   0  0  1  0  0  0  0  0  0  0  0  0
   -1.2760   10.4330    0.5620 C   0  0  0  0  0  0  0  0  0  0  0  0
   -0.0530   11.3550    0.3220 C   0  0  0  0  0  0  0  0  0  0  0  0
   -0.0260   11.5780   -1.2080 C   0  0  1  0  0  0  0  0  0  0  0  0
   -1.0810   12.6980   -1.4690 C   0  0  0  0  0  0  0  0  0  0  0  0
    1.3620   11.9360   -1.8300 C   0  0  2  0  0  0  0  0  0  0  0  0
    1.9770   13.2580   -1.3360 C   0  0  0  0  0  0  0  0  0  0  0  0
    1.6210   14.4660   -2.1380 C   0  0  0  0  0  0  0  0  0  0  0  0
    1.0760   14.4550   -3.3690 C   0  0  0  0  0  0  0  0  0  0  0  0
    0.8530   13.1350   -4.1200 C   0  0  1  0  0  0  0  0  0  0  0  0
    1.3560   13.2800   -5.5800 C   0  0  0  0  0  0  0  0  0  0  0  0
    0.7320   14.4730   -6.2990 C   0  0  0  0  0  0  0  0  0  0  0  0
    1.0250   15.7720   -5.5530 C   0  0  2  0  0  0  0  0  0  0  0  0
    2.4290   16.0370   -5.6220 O   0  0  0  0  0  0  0  0  0  0  0  0
    0.5700   15.7410   -4.0670 C   0  0  0  0  0  0  0  0  0  0  0  0
   -0.9770   15.7580   -3.9950 C   0  0  0  0  0  0  0  0  0  0  0  0
    1.0500   17.0560   -3.3940 C   0  0  0  0  0  0  0  0  0  0  0  0
    1.4130   11.8290   -3.4080 C   0  0  1  0  0  0  0  0  0  0  0  0
    2.9090   11.6140   -3.7920 C   0  0  0  0  0  0  0  0  0  0  0  0
    0.6310   10.5740   -3.9480 C   0  0  0  0  0  0  0  0  0  0  0  0
   -0.6720   10.2000   -3.2160 C   0  0  0  0  0  0  0  0  0  0  0  0
   -0.4540   10.1480   -1.7010 C   0  0  2  0  0  0  0  0  0  0  0  0
    0.5860    9.0140   -1.4060 C   0  0  0  0  0  0  0  0  0  0  0  0
   -1.9554    6.7247   -2.0166 H   0  0  0  0  0  0  0  0  0  0  0  0
   -3.0645    7.9642   -2.6951 H   0  0  0  0  0  0  0  0  0  0  0  0
   -1.2910    8.2494   -2.6951 H   0  0  0  0  0  0  0  0  0  0  0  0
   -1.6227    7.8723   -0.0648 H   0  0  0  0  0  0  0  0  0  0  0  0
   -3.7753    7.6495    0.5128 H   0  0  0  0  0  0  0  0  0  0  0  0
   -3.8640    9.4509    0.2128 H   0  0  0  0  0  0  0  0  0  0  0  0
   -5.0910    9.2295   -1.6624 H   0  0  0  0  0  0  0  0  0  0  0  0
   -4.2792    7.6784   -2.1330 H   0  0  0  0  0  0  0  0  0  0  0  0
   -6.1130    8.2271   -0.0309 H   0  0  0  0  0  0  0  0  0  0  0  0
   -5.5925    6.2350   -3.3787 H   0  0  0  0  0  0  0  0  0  0  0  0
   -7.3371    5.8767   -3.6124 H   0  0  0  0  0  0  0  0  0  0  0  0
   -6.7619    7.5784   -3.6124 H   0  0  0  0  0  0  0  0  0  0  0  0
   -8.2095    6.3300   -0.0990 H   0  0  0  0  0  0  0  0  0  0  0  0
   -8.9131    7.0877   -1.5678 H   0  0  0  0  0  0  0  0  0  0  0  0
   -8.5038    5.3387   -1.5678 H   0  0  0  0  0  0  0  0  0  0  0  0
   -2.5836   10.3897   -1.2682 H   0  0  0  0  0  0  0  0  0  0  0  0
   -2.0978   11.0048    1.0177 H   0  0  0  0  0  0  0  0  0  0  0  0
   -1.0216    9.6095    1.2455 H   0  0  0  0  0  0  0  0  0  0  0  0
   -0.1777   12.3111    0.8515 H   0  0  0  0  0  0  0  0  0  0  0  0
    0.8823   10.9125    0.6954 H   0  0  0  0  0  0  0  0  0  0  0  0
   -1.4478   13.0874   -0.5078 H   0  0  0  0  0  0  0  0  0  0  0  0
   -0.6156   13.5138   -2.0416 H   0  0  0  0  0  0  0  0  0  0  0  0
   -1.9232   12.2822   -2.0416 H   0  0  0  0  0  0  0  0  0  0  0  0
    2.0094   11.1390   -1.4354 H   0  0  0  0  0  0  0  0  0  0  0  0
    1.6394   13.4246   -0.3024 H   0  0  0  0  0  0  0  0  0  0  0  0
    3.0667   13.1406   -1.4301 H   0  0  0  0  0  0  0  0  0  0  0  0
    1.8209   15.4481   -1.6847 H   0  0  0  0  0  0  0  0  0  0  0  0
   -0.2331   12.9609   -4.1146 H   0  0  0  0  0  0  0  0  0  0  0  0
    2.4483   13.4092   -5.5653 H   0  0  0  0  0  0  0  0  0  0  0  0
    1.0628   12.3710   -6.1257 H   0  0  0  0  0  0  0  0  0  0  0  0
    1.1483   14.5393   -7.3150 H   0  0  0  0  0  0  0  0  0  0  0  0
   -0.3577   14.3287   -6.3392 H   0  0  0  0  0  0  0  0  0  0  0  0
    0.4466   16.5704   -6.0408 H   0  0  0  0  0  0  0  0  0  0  0  0
    2.8860   15.1820   -5.6930 H   0  0  0  0  0  0  0  0  0  0  0  0
   -1.2950   15.7615   -2.9420 H   0  0  0  0  0  0  0  0  0  0  0  0
   -1.3575   16.6604   -4.4959 H   0  0  0  0  0  0  0  0  0  0  0  0
   -1.3772   14.8642   -4.4959 H   0  0  0  0  0  0  0  0  0  0  0  0
    1.0092   16.9443   -2.3004 H   0  0  0  0  0  0  0  0  0  0  0  0
    2.0840   17.2695   -3.7025 H   0  0  0  0  0  0  0  0  0  0  0  0
    0.3967   17.8855   -3.7025 H   0  0  0  0  0  0  0  0  0  0  0  0
    3.5135   11.5271   -2.8771 H   0  0  0  0  0  0  0  0  0  0  0  0
    3.0066   10.6926   -4.3849 H   0  0  0  0  0  0  0  0  0  0  0  0
    3.2621   12.4706   -4.3849 H   0  0  0  0  0  0  0  0  0  0  0  0
    0.3776   10.7674   -5.0008 H   0  0  0  0  0  0  0  0  0  0  0  0
    1.3072    9.7217   -3.7859 H   0  0  0  0  0  0  0  0  0  0  0  0
   -1.4412   10.9528   -3.4432 H   0  0  0  0  0  0  0  0  0  0  0  0
   -0.9936    9.2054   -3.5585 H   0  0  0  0  0  0  0  0  0  0  0  0
    0.6974    8.8925   -0.3184 H   0  0  0  0  0  0  0  0  0  0  0  0
    0.2335    8.0696   -1.8462 H   0  0  0  0  0  0  0  0  0  0  0  0
    1.5573    9.2837   -1.8462 H   0  0  0  0  0  0  0  0  0  0  0  0
  1  2  1  0
  2  3  1  0
  3  4  1  0
  4  5  1  0
  5  6  1  0
  6  7  1  0
  7  8  1  0
  7  9  1  0
  2 10  1  0
 10 11  1  0
 11 12  1  0
 12 13  1  0
 13 14  1  1
 13 15  1  0
 15 16  1  0
 16 17  1  0
 17 18  2  0
 18 19  1  0
 19 20  1  0
 20 21  1  0
 21 22  1  0
 22 23  1  0
 22 24  1  0
 24 25  1  0
 24 26  1  0
 19 27  1  0
 27 28  1  1
 27 29  1  0
 29 30  1  0
 30 31  1  0
 31 32  1  6
  7  5  1  0
 31 10  1  0
 31 13  1  0
 27 15  1  0
 24 18  1  0
  1 33  1  0
  1 34  1  0
  1 35  1  0
  2 36  1  1
  3 37  1  0
  3 38  1  0
  4 39  1  0
  4 40  1  0
  5 41  1  1
  8 42  1  0
  8 43  1  0
  8 44  1  0
  9 45  1  0
  9 46  1  0
  9 47  1  0
 10 48  1  6
 11 49  1  0
 11 50  1  0
 12 51  1  0
 12 52  1  0
 14 53  1  0
 14 54  1  0
 14 55  1  0
 15 56  1  1
 16 57  1  0
 16 58  1  0
 17 59  1  0
 19 60  1  6
 20 61  1  0
 20 62  1  0
 21 63  1  0
 21 64  1  0
 22 65  1  6
 23 66  1  0
 25 67  1  0
 25 68  1  0
 25 69  1  0
 26 70  1  0
 26 71  1  0
 26 72  1  0
 28 73  1  0
 28 74  1  0
 28 75  1  0
 29 76  1  0
 29 77  1  0
 30 78  1  0
 30 79  1  0
 32 80  1  0
 32 81  1  0
 32 82  1  0
M  END
>  <meeko>  (14) 
{"is_sidechain": [false], "intermolecular_energy": 2.731, "internal_energy": -0.839}

$$$$
EPH_relaxed_0001_pdb2pqr_Repair_267_r2_0001_out
     RDKit          3D

 82 86  0  0  0  0  0  0  0  0999 V2000
    2.8440   11.3280   -5.2560 C   0  0  0  0  0  0  0  0  0  0  0  0
    1.7980   11.0360   -4.1770 C   0  0  2  0  0  0  0  0  0  0  0  0
    0.6800   10.1060   -4.6890 C   0  0  0  0  0  0  0  0  0  0  0  0
   -0.3880    9.7910   -3.6380 C   0  0  0  0  0  0  0  0  0  0  0  0
    0.1760    9.0060   -2.4930 C   0  0  2  0  0  0  0  0  0  0  0  0
   -0.6420    7.9120   -2.0570 O   0  0  0  0  0  0  0  0  0  0  0  0
   -0.4500    8.9760   -1.1110 C   0  0  0  0  0  0  0  0  0  0  0  0
   -1.6960    9.7460   -0.8010 C   0  0  0  0  0  0  0  0  0  0  0  0
    0.4090    8.5980    0.0560 C   0  0  0  0  0  0  0  0  0  0  0  0
    1.1970   12.3410   -3.6690 C   0  0  1  0  0  0  0  0  0  0  0  0
   -0.3390   12.2530   -3.4670 C   0  0  0  0  0  0  0  0  0  0  0  0
   -0.6790   13.1330   -2.2360 C   0  0  0  0  0  0  0  0  0  0  0  0
    0.6060   13.9540   -1.9760 C   0  0  1  0  0  0  0  0  0  0  0  0
    0.5410   15.1340   -2.9960 C   0  0  0  0  0  0  0  0  0  0  0  0
    0.8150   14.4650   -0.5140 C   0  0  2  0  0  0  0  0  0  0  0  0
   -0.2590   15.4420   -0.0040 C   0  0  0  0  0  0  0  0  0  0  0  0
    0.0250   16.8870   -0.2510 C   0  0  0  0  0  0  0  0  0  0  0  0
    1.2190   17.4010   -0.5980 C   0  0  0  0  0  0  0  0  0  0  0  0
    2.4660   16.5110   -0.6810 C   0  0  1  0  0  0  0  0  0  0  0  0
    3.6490   17.2090    0.0400 C   0  0  0  0  0  0  0  0  0  0  0  0
    3.9040   18.6190   -0.4840 C   0  0  0  0  0  0  0  0  0  0  0  0
    2.6590   19.4900   -0.3320 C   0  0  2  0  0  0  0  0  0  0  0  0
    2.4050   19.6910    1.0620 O   0  0  0  0  0  0  0  0  0  0  0  0
    1.4000   18.8830   -1.0100 C   0  0  0  0  0  0  0  0  0  0  0  0
    1.5570   18.9440   -2.5500 C   0  0  0  0  0  0  0  0  0  0  0  0
    0.1870   19.7880   -0.6620 C   0  0  0  0  0  0  0  0  0  0  0  0
    2.2730   15.0030   -0.2170 C   0  0  1  0  0  0  0  0  0  0  0  0
    2.4850   14.8890    1.3230 C   0  0  0  0  0  0  0  0  0  0  0  0
    3.3860   14.1130   -0.8860 C   0  0  0  0  0  0  0  0  0  0  0  0
    3.0720   13.5390   -2.2810 C   0  0  0  0  0  0  0  0  0  0  0  0
    1.6950   12.8680   -2.3000 C   0  0  2  0  0  0  0  0  0  0  0  0
    1.7370   11.6620   -1.3000 C   0  0  0  0  0  0  0  0  0  0  0  0
    3.7986   11.5945   -4.7787 H   0  0  0  0  0  0  0  0  0  0  0  0
    2.9840   10.4346   -5.8823 H   0  0  0  0  0  0  0  0  0  0  0  0
    2.5010   12.1647   -5.8823 H   0  0  0  0  0  0  0  0  0  0  0  0
    2.3089   10.5162   -3.3531 H   0  0  0  0  0  0  0  0  0  0  0  0
    0.1908   10.5906   -5.5468 H   0  0  0  0  0  0  0  0  0  0  0  0
    1.1549    9.1517   -4.9608 H   0  0  0  0  0  0  0  0  0  0  0  0
   -0.7998   10.7359   -3.2539 H   0  0  0  0  0  0  0  0  0  0  0  0
   -1.1717    9.1851   -4.1163 H   0  0  0  0  0  0  0  0  0  0  0  0
    1.2035    9.2016   -2.8336 H   0  0  0  0  0  0  0  0  0  0  0  0
   -1.8185    9.8217    0.2895 H   0  0  0  0  0  0  0  0  0  0  0  0
   -1.6203   10.7550   -1.2324 H   0  0  0  0  0  0  0  0  0  0  0  0
   -2.5646    9.2270   -1.2324 H   0  0  0  0  0  0  0  0  0  0  0  0
   -0.1204    8.8310    0.9917 H   0  0  0  0  0  0  0  0  0  0  0  0
    0.6274    7.5206    0.0168 H   0  0  0  0  0  0  0  0  0  0  0  0
    1.3509    9.1648    0.0168 H   0  0  0  0  0  0  0  0  0  0  0  0
    1.5208   13.0180   -4.4732 H   0  0  0  0  0  0  0  0  0  0  0  0
   -0.8607   12.6310   -4.3586 H   0  0  0  0  0  0  0  0  0  0  0  0
   -0.6578   11.2122   -3.3089 H   0  0  0  0  0  0  0  0  0  0  0  0
   -1.5268   13.7983   -2.4565 H   0  0  0  0  0  0  0  0  0  0  0  0
   -0.9741   12.5326   -1.3628 H   0  0  0  0  0  0  0  0  0  0  0  0
    0.4885   16.0877   -2.4505 H   0  0  0  0  0  0  0  0  0  0  0  0
    1.4412   15.1223   -3.6281 H   0  0  0  0  0  0  0  0  0  0  0  0
   -0.3524   15.0235   -3.6281 H   0  0  0  0  0  0  0  0  0  0  0  0
    0.6876   13.5459    0.0767 H   0  0  0  0  0  0  0  0  0  0  0  0
   -1.2086   15.1925   -0.5000 H   0  0  0  0  0  0  0  0  0  0  0  0
   -0.2876   15.3197    1.0888 H   0  0  0  0  0  0  0  0  0  0  0  0
   -0.8130   17.5909   -0.1398 H   0  0  0  0  0  0  0  0  0  0  0  0
    2.6927   16.4036   -1.7520 H   0  0  0  0  0  0  0  0  0  0  0  0
    3.4216   17.2680    1.1146 H   0  0  0  0  0  0  0  0  0  0  0  0
    4.5540   16.6135   -0.1503 H   0  0  0  0  0  0  0  0  0  0  0  0
    4.7309   19.0703    0.0840 H   0  0  0  0  0  0  0  0  0  0  0  0
    4.1608   18.5561   -1.5517 H   0  0  0  0  0  0  0  0  0  0  0  0
    2.8597   20.4441   -0.8413 H   0  0  0  0  0  0  0  0  0  0  0  0
    2.5640   18.8460    1.5150 H   0  0  0  0  0  0  0  0  0  0  0  0
    2.5551   19.3318   -2.8017 H   0  0  0  0  0  0  0  0  0  0  0  0
    1.4390   17.9346   -2.9709 H   0  0  0  0  0  0  0  0  0  0  0  0
    0.7884   19.6089   -2.9709 H   0  0  0  0  0  0  0  0  0  0  0  0
    0.0869   19.8627    0.4309 H   0  0  0  0  0  0  0  0  0  0  0  0
    0.3445   20.7910   -1.0852 H   0  0  0  0  0  0  0  0  0  0  0  0
   -0.7296   19.3513   -1.0852 H   0  0  0  0  0  0  0  0  0  0  0  0
    1.6324   15.3475    1.8454 H   0  0  0  0  0  0  0  0  0  0  0  0
    2.5607   13.8285    1.6052 H   0  0  0  0  0  0  0  0  0  0  0  0
    3.4115   15.4106    1.6052 H   0  0  0  0  0  0  0  0  0  0  0  0
    4.2939   14.7275   -0.9758 H   0  0  0  0  0  0  0  0  0  0  0  0
    3.4857   13.2358   -0.2299 H   0  0  0  0  0  0  0  0  0  0  0  0
    3.0845   14.3559   -3.0175 H   0  0  0  0  0  0  0  0  0  0  0  0
    3.8333   12.7850   -2.5298 H   0  0  0  0  0  0  0  0  0  0  0  0
    1.7238   12.0412   -0.2675 H   0  0  0  0  0  0  0  0  0  0  0  0
    0.8607   11.0179   -1.4653 H   0  0  0  0  0  0  0  0  0  0  0  0
    2.6559   11.0804   -1.4653 H   0  0  0  0  0  0  0  0  0  0  0  0
  1  2  1  0
  2  3  1  0
  3  4  1  0
  4  5  1  0
  5  6  1  0
  6  7  1  0
  7  8  1  0
  7  9  1  0
  2 10  1  0
 10 11  1  0
 11 12  1  0
 12 13  1  0
 13 14  1  6
 13 15  1  0
 15 16  1  0
 16 17  1  0
 17 18  2  0
 18 19  1  0
 19 20  1  0
 20 21  1  0
 21 22  1  0
 22 23  1  0
 22 24  1  0
 24 25  1  0
 24 26  1  0
 19 27  1  0
 27 28  1  1
 27 29  1  0
 29 30  1  0
 30 31  1  0
 31 32  1  1
  7  5  1  0
 31 10  1  0
 31 13  1  0
 27 15  1  0
 24 18  1  0
  1 33  1  0
  1 34  1  0
  1 35  1  0
  2 36  1  1
  3 37  1  0
  3 38  1  0
  4 39  1  0
  4 40  1  0
  5 41  1  1
  8 42  1  0
  8 43  1  0
  8 44  1  0
  9 45  1  0
  9 46  1  0
  9 47  1  0
 10 48  1  6
 11 49  1  0
 11 50  1  0
 12 51  1  0
 12 52  1  0
 14 53  1  0
 14 54  1  0
 14 55  1  0
 15 56  1  1
 16 57  1  0
 16 58  1  0
 17 59  1  0
 19 60  1  6
 20 61  1  0
 20 62  1  0
 21 63  1  0
 21 64  1  0
 22 65  1  6
 23 66  1  0
 25 67  1  0
 25 68  1  0
 25 69  1  0
 26 70  1  0
 26 71  1  0
 26 72  1  0
 28 73  1  0
 28 74  1  0
 28 75  1  0
 29 76  1  0
 29 77  1  0
 30 78  1  0
 30 79  1  0
 32 80  1  0
 32 81  1  0
 32 82  1  0
M  END
>  <meeko>  (15) 
{"is_sidechain": [false], "intermolecular_energy": 2.731, "internal_energy": -0.839}

$$$$
EPH_relaxed_0001_pdb2pqr_Repair_267_r2_0001_out
     RDKit          3D

 82 86  0  0  0  0  0  0  0  0999 V2000
    0.9370   14.8970   -2.6330 C   0  0  0  0  0  0  0  0  0  0  0  0
    1.1990   14.2210   -3.9820 C   0  0  2  0  0  0  0  0  0  0  0  0
    0.4950   14.9500   -5.1440 C   0  0  0  0  0  0  0  0  0  0  0  0
    1.0530   14.5900   -6.5240 C   0  0  0  0  0  0  0  0  0  0  0  0
    0.8360   15.6930   -7.5140 C   0  0  2  0  0  0  0  0  0  0  0  0
    0.4170   15.2570   -8.8140 O   0  0  0  0  0  0  0  0  0  0  0  0
    1.7020   15.8960   -8.7440 C   0  0  0  0  0  0  0  0  0  0  0  0
    2.8510   14.9870   -9.0470 C   0  0  0  0  0  0  0  0  0  0  0  0
    1.7370   17.2520   -9.3780 C   0  0  0  0  0  0  0  0  0  0  0  0
    0.7480   12.7660   -3.9300 C   0  0  1  0  0  0  0  0  0  0  0  0
    1.8800   11.7750   -4.3100 C   0  0  0  0  0  0  0  0  0  0  0  0
    1.6780   10.5090   -3.4380 C   0  0  0  0  0  0  0  0  0  0  0  0
    0.2640   10.6730   -2.8340 C   0  0  1  0  0  0  0  0  0  0  0  0
   -0.7100   10.2050   -3.9600 C   0  0  0  0  0  0  0  0  0  0  0  0
   -0.0050    9.9210   -1.4900 C   0  0  2  0  0  0  0  0  0  0  0  0
    0.0990    8.3880   -1.5680 C   0  0  0  0  0  0  0  0  0  0  0  0
   -1.1740    7.6780   -1.8940 C   0  0  0  0  0  0  0  0  0  0  0  0
   -2.4060    8.2160   -1.8360 C   0  0  0  0  0  0  0  0  0  0  0  0
   -2.6190    9.6430   -1.3140 C   0  0  1  0  0  0  0  0  0  0  0  0
   -3.8010    9.6560   -0.3100 C   0  0  0  0  0  0  0  0  0  0  0  0
   -5.0740    9.0530   -0.8960 C   0  0  0  0  0  0  0  0  0  0  0  0
   -4.8370    7.6150   -1.3490 C   0  0  2  0  0  0  0  0  0  0  0  0
   -4.5820    6.8050   -0.1980 O   0  0  0  0  0  0  0  0  0  0  0  0
   -3.6620    7.4760   -2.3570 C   0  0  0  0  0  0  0  0  0  0  0  0
   -4.0660    8.1000   -3.7160 C   0  0  0  0  0  0  0  0  0  0  0  0
   -3.4390    5.9630   -2.6240 C   0  0  0  0  0  0  0  0  0  0  0  0
   -1.3270   10.3740   -0.7470 C   0  0  1  0  0  0  0  0  0  0  0  0
   -1.1340   10.0200    0.7600 C   0  0  0  0  0  0  0  0  0  0  0  0
   -1.5470   11.9310   -0.8120 C   0  0  0  0  0  0  0  0  0  0  0  0
   -1.1500   12.6340   -2.1250 C   0  0  0  0  0  0  0  0  0  0  0  0
    0.2580   12.2220   -2.5640 C   0  0  2  0  0  0  0  0  0  0  0  0
    1.2620   12.6990   -1.4610 C   0  0  0  0  0  0  0  0  0  0  0  0
    1.2044   14.2071   -1.8191 H   0  0  0  0  0  0  0  0  0  0  0  0
    1.5467   15.8093   -2.5555 H   0  0  0  0  0  0  0  0  0  0  0  0
   -0.1282   15.1602   -2.5555 H   0  0  0  0  0  0  0  0  0  0  0  0
    2.2816   14.2684   -4.1711 H   0  0  0  0  0  0  0  0  0  0  0  0
   -0.5732   14.6881   -5.1221 H   0  0  0  0  0  0  0  0  0  0  0  0
    0.6659   16.0269   -4.9988 H   0  0  0  0  0  0  0  0  0  0  0  0
    2.1326   14.3995   -6.4334 H   0  0  0  0  0  0  0  0  0  0  0  0
    0.5240   13.6958   -6.8853 H   0  0  0  0  0  0  0  0  0  0  0  0
    0.5161   16.3786   -6.7155 H   0  0  0  0  0  0  0  0  0  0  0  0
    3.2973   14.6339   -8.1057 H   0  0  0  0  0  0  0  0  0  0  0  0
    2.4930   14.1250   -9.6291 H   0  0  0  0  0  0  0  0  0  0  0  0
    3.6075   15.5338   -9.6291 H   0  0  0  0  0  0  0  0  0  0  0  0
    1.7569   18.0230   -8.5937 H   0  0  0  0  0  0  0  0  0  0  0  0
    2.6378   17.3414  -10.0030 H   0  0  0  0  0  0  0  0  0  0  0  0
    0.8421   17.3877  -10.0030 H   0  0  0  0  0  0  0  0  0  0  0  0
   -0.0898   12.8074   -4.6416 H   0  0  0  0  0  0  0  0  0  0  0  0
    1.8133   11.5148   -5.3767 H   0  0  0  0  0  0  0  0  0  0  0  0
    2.8703   12.2209   -4.1353 H   0  0  0  0  0  0  0  0  0  0  0  0
    1.7338    9.5998   -4.0546 H   0  0  0  0  0  0  0  0  0  0  0  0
    2.4530   10.4075   -2.6640 H   0  0  0  0  0  0  0  0  0  0  0  0
   -1.6133    9.7710   -3.5065 H   0  0  0  0  0  0  0  0  0  0  0  0
   -0.9906   11.0666   -4.5836 H   0  0  0  0  0  0  0  0  0  0  0  0
   -0.2126    9.4475   -4.5836 H   0  0  0  0  0  0  0  0  0  0  0  0
    0.8396   10.2460   -0.8647 H   0  0  0  0  0  0  0  0  0  0  0  0
    0.8369    8.1364   -2.3441 H   0  0  0  0  0  0  0  0  0  0  0  0
    0.3863    8.0508   -0.5611 H   0  0  0  0  0  0  0  0  0  0  0  0
   -1.0980    6.6265   -2.2080 H   0  0  0  0  0  0  0  0  0  0  0  0
   -2.8703   10.2543   -2.1933 H   0  0  0  0  0  0  0  0  0  0  0  0
   -3.5139    9.0768    0.5800 H   0  0  0  0  0  0  0  0  0  0  0  0
   -4.0140   10.7056   -0.0591 H   0  0  0  0  0  0  0  0  0  0  0  0
   -5.8634    9.0638   -0.1300 H   0  0  0  0  0  0  0  0  0  0  0  0
   -5.3769    9.6509   -1.7683 H   0  0  0  0  0  0  0  0  0  0  0  0
   -5.7432    7.2817   -1.8760 H   0  0  0  0  0  0  0  0  0  0  0  0
   -3.6900    6.4290   -0.2940 H   0  0  0  0  0  0  0  0  0  0  0  0
   -4.6561    9.0115   -3.5400 H   0  0  0  0  0  0  0  0  0  0  0  0
   -3.1605    8.3539   -4.2865 H   0  0  0  0  0  0  0  0  0  0  0  0
   -4.6683    7.3777   -4.2865 H   0  0  0  0  0  0  0  0  0  0  0  0
   -3.3603    5.4292   -1.6654 H   0  0  0  0  0  0  0  0  0  0  0  0
   -4.2879    5.5629   -3.1979 H   0  0  0  0  0  0  0  0  0  0  0  0
   -2.5108    5.8248   -3.1979 H   0  0  0  0  0  0  0  0  0  0  0  0
   -1.5682   10.8164    1.3822 H   0  0  0  0  0  0  0  0  0  0  0  0
   -1.6374    9.0671    0.9802 H   0  0  0  0  0  0  0  0  0  0  0  0
   -0.0603    9.9269    0.9802 H   0  0  0  0  0  0  0  0  0  0  0  0
   -2.6165   12.1235   -0.6415 H   0  0  0  0  0  0  0  0  0  0  0  0
   -0.8761   12.3490   -0.0470 H   0  0  0  0  0  0  0  0  0  0  0  0
   -1.8673   12.3581   -2.9119 H   0  0  0  0  0  0  0  0  0  0  0  0
   -1.1609   13.7211   -1.9577 H   0  0  0  0  0  0  0  0  0  0  0  0
    0.8373   12.4972   -0.4666 H   0  0  0  0  0  0  0  0  0  0  0  0
    2.2124   12.1562   -1.5708 H   0  0  0  0  0  0  0  0  0  0  0  0
    1.4416   13.7787   -1.5708 H   0  0  0  0  0  0  0  0  0  0  0  0
  1  2  1  0
  2  3  1  0
  3  4  1  0
  4  5  1  0
  5  6  1  0
  6  7  1  0
  7  8  1  0
  7  9  1  0
  2 10  1  0
 10 11  1  0
 11 12  1  0
 12 13  1  0
 13 14  1  6
 13 15  1  0
 15 16  1  0
 16 17  1  0
 17 18  2  0
 18 19  1  0
 19 20  1  0
 20 21  1  0
 21 22  1  0
 22 23  1  0
 22 24  1  0
 24 25  1  0
 24 26  1  0
 19 27  1  0
 27 28  1  1
 27 29  1  0
 29 30  1  0
 30 31  1  0
 31 32  1  1
  7  5  1  0
 31 10  1  0
 31 13  1  0
 27 15  1  0
 24 18  1  0
  1 33  1  0
  1 34  1  0
  1 35  1  0
  2 36  1  6
  3 37  1  0
  3 38  1  0
  4 39  1  0
  4 40  1  0
  5 41  1  1
  8 42  1  0
  8 43  1  0
  8 44  1  0
  9 45  1  0
  9 46  1  0
  9 47  1  0
 10 48  1  6
 11 49  1  0
 11 50  1  0
 12 51  1  0
 12 52  1  0
 14 53  1  0
 14 54  1  0
 14 55  1  0
 15 56  1  1
 16 57  1  0
 16 58  1  0
 17 59  1  0
 19 60  1  6
 20 61  1  0
 20 62  1  0
 21 63  1  0
 21 64  1  0
 22 65  1  6
 23 66  1  0
 25 67  1  0
 25 68  1  0
 25 69  1  0
 26 70  1  0
 26 71  1  0
 26 72  1  0
 28 73  1  0
 28 74  1  0
 28 75  1  0
 29 76  1  0
 29 77  1  0
 30 78  1  0
 30 79  1  0
 32 80  1  0
 32 81  1  0
 32 82  1  0
M  END
>  <meeko>  (16) 
{"is_sidechain": [false], "intermolecular_energy": 2.731, "internal_energy": -0.839}

$$$$
EPH_relaxed_0001_pdb2pqr_Repair_267_r2_0001_out
     RDKit          3D

 82 86  0  0  0  0  0  0  0  0999 V2000
   -1.7520   14.8190    0.3980 C   0  0  0  0  0  0  0  0  0  0  0  0
   -0.3950   15.5190    0.2820 C   0  0  2  0  0  0  0  0  0  0  0  0
   -0.3850   16.5860   -0.8300 C   0  0  0  0  0  0  0  0  0  0  0  0
   -0.0030   17.9850   -0.3380 C   0  0  0  0  0  0  0  0  0  0  0  0
    1.4530   18.0710    0.0100 C   0  0  2  0  0  0  0  0  0  0  0  0
    2.1120   19.2540   -0.4620 O   0  0  0  0  0  0  0  0  0  0  0  0
    2.5640   18.0100   -1.0210 C   0  0  0  0  0  0  0  0  0  0  0  0
    2.2680   17.8550   -2.4800 C   0  0  0  0  0  0  0  0  0  0  0  0
    3.9350   17.6110   -0.5720 C   0  0  0  0  0  0  0  0  0  0  0  0
    0.7010   14.4910    0.0280 C   0  0  1  0  0  0  0  0  0  0  0  0
    0.8320   13.4600    1.1800 C   0  0  0  0  0  0  0  0  0  0  0  0
    1.2160   12.1060    0.5290 C   0  0  0  0  0  0  0  0  0  0  0  0
    1.6150   12.4700   -0.9210 C   0  0  1  0  0  0  0  0  0  0  0  0
    3.0860   12.9800   -0.8160 C   0  0  0  0  0  0  0  0  0  0  0  0
    1.4720   11.3320   -1.9830 C   0  0  2  0  0  0  0  0  0  0  0  0
    2.3610   10.0990   -1.7410 C   0  0  0  0  0  0  0  0  0  0  0  0
    3.7070   10.1470   -2.3840 C   0  0  0  0  0  0  0  0  0  0  0  0
    4.0810   11.0020   -3.3540 C   0  0  0  0  0  0  0  0  0  0  0  0
    3.0740   11.9810   -3.9720 C   0  0  1  0  0  0  0  0  0  0  0  0
    3.2030   11.9510   -5.5170 C   0  0  0  0  0  0  0  0  0  0  0  0
    4.6310   12.2060   -5.9900 C   0  0  0  0  0  0  0  0  0  0  0  0
    5.5930   11.1780   -5.4010 C   0  0  2  0  0  0  0  0  0  0  0  0
    5.2840    9.8920   -5.9480 O   0  0  0  0  0  0  0  0  0  0  0  0
    5.5440   11.1110   -3.8490 C   0  0  0  0  0  0  0  0  0  0  0  0
    6.1640   12.3990   -3.2530 C   0  0  0  0  0  0  0  0  0  0  0  0
    6.4550    9.9400   -3.3920 C   0  0  0  0  0  0  0  0  0  0  0  0
    1.5690   11.8290   -3.4820 C   0  0  1  0  0  0  0  0  0  0  0  0
    0.8310   10.7660   -4.3520 C   0  0  0  0  0  0  0  0  0  0  0  0
    0.8140   13.1920   -3.7110 C   0  0  0  0  0  0  0  0  0  0  0  0
    0.8930   14.2290   -2.5750 C   0  0  0  0  0  0  0  0  0  0  0  0
    0.5540   13.5900   -1.2250 C   0  0  2  0  0  0  0  0  0  0  0  0
   -0.9290   13.0880   -1.2920 C   0  0  0  0  0  0  0  0  0  0  0  0
   -2.0071   14.6874    1.4599 H   0  0  0  0  0  0  0  0  0  0  0  0
   -2.5236   15.4316   -0.0913 H   0  0  0  0  0  0  0  0  0  0  0  0
   -1.7001   13.8352   -0.0913 H   0  0  0  0  0  0  0  0  0  0  0  0
   -0.2067   16.0345    1.2353 H   0  0  0  0  0  0  0  0  0  0  0  0
    0.3387   16.2789   -1.5993 H   0  0  0  0  0  0  0  0  0  0  0  0
   -1.4110   16.6520   -1.2211 H   0  0  0  0  0  0  0  0  0  0  0  0
   -0.2239   18.7146   -1.1310 H   0  0  0  0  0  0  0  0  0  0  0  0
   -0.5862   18.2010    0.5693 H   0  0  0  0  0  0  0  0  0  0  0  0
    1.2860   17.5212    0.9480 H   0  0  0  0  0  0  0  0  0  0  0  0
    1.2999   17.3481   -2.6059 H   0  0  0  0  0  0  0  0  0  0  0  0
    2.2266   18.8472   -2.9532 H   0  0  0  0  0  0  0  0  0  0  0  0
    3.0599   17.2559   -2.9532 H   0  0  0  0  0  0  0  0  0  0  0  0
    3.9721   17.6002    0.5273 H   0  0  0  0  0  0  0  0  0  0  0  0
    4.1692   16.6074   -0.9567 H   0  0  0  0  0  0  0  0  0  0  0  0
    4.6712   18.3322   -0.9567 H   0  0  0  0  0  0  0  0  0  0  0  0
    1.5621   15.1651   -0.0911 H   0  0  0  0  0  0  0  0  0  0  0  0
    1.6151   13.7769    1.8844 H   0  0  0  0  0  0  0  0  0  0  0  0
   -0.1099   13.3745    1.7417 H   0  0  0  0  0  0  0  0  0  0  0  0
    2.0617   11.6454    1.0606 H   0  0  0  0  0  0  0  0  0  0  0  0
    0.3928   11.3772    0.5649 H   0  0  0  0  0  0  0  0  0  0  0  0
    3.3657   13.0770    0.2434 H   0  0  0  0  0  0  0  0  0  0  0  0
    3.7588   12.2627   -1.3087 H   0  0  0  0  0  0  0  0  0  0  0  0
    3.1704   13.9599   -1.3087 H   0  0  0  0  0  0  0  0  0  0  0  0
    0.4381   10.9907   -1.8262 H   0  0  0  0  0  0  0  0  0  0  0  0
    2.5064    9.9926   -0.6559 H   0  0  0  0  0  0  0  0  0  0  0  0
    1.8345    9.2495   -2.2006 H   0  0  0  0  0  0  0  0  0  0  0  0
    4.4573    9.4220   -2.0356 H   0  0  0  0  0  0  0  0  0  0  0  0
    3.3479   12.9772   -3.5944 H   0  0  0  0  0  0  0  0  0  0  0  0
    2.8831   10.9626   -5.8784 H   0  0  0  0  0  0  0  0  0  0  0  0
    2.5691   12.7543   -5.9206 H   0  0  0  0  0  0  0  0  0  0  0  0
    4.6634   12.1417   -7.0876 H   0  0  0  0  0  0  0  0  0  0  0  0
    4.9385   13.2072   -5.6538 H   0  0  0  0  0  0  0  0  0  0  0  0
    6.6134   11.4896   -5.6689 H   0  0  0  0  0  0  0  0  0  0  0  0
    5.3460    9.2430   -5.2270 H   0  0  0  0  0  0  0  0  0  0  0  0
    6.1377   12.3443   -2.1547 H   0  0  0  0  0  0  0  0  0  0  0  0
    7.2066   12.4942   -3.5905 H   0  0  0  0  0  0  0  0  0  0  0  0
    5.5881   13.2733   -3.5905 H   0  0  0  0  0  0  0  0  0  0  0  0
    6.4827    9.9044   -2.2929 H   0  0  0  0  0  0  0  0  0  0  0  0
    6.0550    8.9914   -3.7796 H   0  0  0  0  0  0  0  0  0  0  0  0
    7.4728   10.0944   -3.7796 H   0  0  0  0  0  0  0  0  0  0  0  0
    0.3275   10.0407   -3.6959 H   0  0  0  0  0  0  0  0  0  0  0  0
    0.0847   11.2659   -4.9869 H   0  0  0  0  0  0  0  0  0  0  0  0
    1.5602   10.2415   -4.9869 H   0  0  0  0  0  0  0  0  0  0  0  0
    1.2332   13.6568   -4.6156 H   0  0  0  0  0  0  0  0  0  0  0  0
   -0.2503   12.9231   -3.7818 H   0  0  0  0  0  0  0  0  0  0  0  0
    1.9126   14.6396   -2.5329 H   0  0  0  0  0  0  0  0  0  0  0  0
    0.1644   15.0277   -2.7779 H   0  0  0  0  0  0  0  0  0  0  0  0
   -1.3180   12.9563   -0.2715 H   0  0  0  0  0  0  0  0  0  0  0  0
   -1.5430   13.8284   -1.8257 H   0  0  0  0  0  0  0  0  0  0  0  0
   -0.9670   12.1269   -1.8257 H   0  0  0  0  0  0  0  0  0  0  0  0
  1  2  1  0
  2  3  1  0
  3  4  1  0
  4  5  1  0
  5  6  1  0
  6  7  1  0
  7  8  1  0
  7  9  1  0
  2 10  1  0
 10 11  1  0
 11 12  1  0
 12 13  1  0
 13 14  1  1
 13 15  1  0
 15 16  1  0
 16 17  1  0
 17 18  2  0
 18 19  1  0
 19 20  1  0
 20 21  1  0
 21 22  1  0
 22 23  1  0
 22 24  1  0
 24 25  1  0
 24 26  1  0
 19 27  1  0
 27 28  1  6
 27 29  1  0
 29 30  1  0
 30 31  1  0
 31 32  1  6
  7  5  1  0
 31 10  1  0
 31 13  1  0
 27 15  1  0
 24 18  1  0
  1 33  1  0
  1 34  1  0
  1 35  1  0
  2 36  1  1
  3 37  1  0
  3 38  1  0
  4 39  1  0
  4 40  1  0
  5 41  1  1
  8 42  1  0
  8 43  1  0
  8 44  1  0
  9 45  1  0
  9 46  1  0
  9 47  1  0
 10 48  1  6
 11 49  1  0
 11 50  1  0
 12 51  1  0
 12 52  1  0
 14 53  1  0
 14 54  1  0
 14 55  1  0
 15 56  1  6
 16 57  1  0
 16 58  1  0
 17 59  1  0
 19 60  1  1
 20 61  1  0
 20 62  1  0
 21 63  1  0
 21 64  1  0
 22 65  1  1
 23 66  1  0
 25 67  1  0
 25 68  1  0
 25 69  1  0
 26 70  1  0
 26 71  1  0
 26 72  1  0
 28 73  1  0
 28 74  1  0
 28 75  1  0
 29 76  1  0
 29 77  1  0
 30 78  1  0
 30 79  1  0
 32 80  1  0
 32 81  1  0
 32 82  1  0
M  END
>  <meeko>  (17) 
{"is_sidechain": [false], "intermolecular_energy": 2.731, "internal_energy": -0.839}

$$$$
EPH_relaxed_0001_pdb2pqr_Repair_267_r2_0001_out
     RDKit          3D

 82 86  0  0  0  0  0  0  0  0999 V2000
   -0.0890   18.6000   -2.0270 C   0  0  0  0  0  0  0  0  0  0  0  0
    1.0640   18.1840   -1.1100 C   0  0  2  0  0  0  0  0  0  0  0  0
    2.2720   19.1350   -1.2270 C   0  0  0  0  0  0  0  0  0  0  0  0
    2.4240   20.0850   -0.0360 C   0  0  0  0  0  0  0  0  0  0  0  0
    2.7180   19.3420    1.2320 C   0  0  2  0  0  0  0  0  0  0  0  0
    2.9450   20.1750    2.3760 O   0  0  0  0  0  0  0  0  0  0  0  0
    4.0620   19.3870    1.9360 C   0  0  0  0  0  0  0  0  0  0  0  0
    5.2000   20.1940    1.3930 C   0  0  0  0  0  0  0  0  0  0  0  0
    4.4190   18.2730    2.8690 C   0  0  0  0  0  0  0  0  0  0  0  0
    1.4930   16.7560   -1.4300 C   0  0  1  0  0  0  0  0  0  0  0  0
    3.0350   16.5930   -1.4820 C   0  0  0  0  0  0  0  0  0  0  0  0
    3.3550   15.1800   -0.9320 C   0  0  0  0  0  0  0  0  0  0  0  0
    1.9870   14.4580   -0.8940 C   0  0  1  0  0  0  0  0  0  0  0  0
    1.7500   13.9710   -2.3580 C   0  0  0  0  0  0  0  0  0  0  0  0
    1.8520   13.2860    0.1330 C   0  0  2  0  0  0  0  0  0  0  0  0
    2.7990   12.0970   -0.1060 C   0  0  0  0  0  0  0  0  0  0  0  0
    2.2580   11.0170   -0.9830 C   0  0  0  0  0  0  0  0  0  0  0  0
    0.9660   10.8620   -1.3260 C   0  0  0  0  0  0  0  0  0  0  0  0
   -0.1200   11.7720   -0.7370 C   0  0  1  0  0  0  0  0  0  0  0  0
   -1.3190   10.9090   -0.2640 C   0  0  0  0  0  0  0  0  0  0  0  0
   -1.8550    9.9990   -1.3660 C   0  0  0  0  0  0  0  0  0  0  0  0
   -0.7610    9.0690   -1.8850 C   0  0  2  0  0  0  0  0  0  0  0  0
   -0.3980    8.1570   -0.8430 O   0  0  0  0  0  0  0  0  0  0  0  0
    0.5030    9.8260   -2.3800 C   0  0  0  0  0  0  0  0  0  0  0  0
    0.1760   10.5810   -3.6920 C   0  0  0  0  0  0  0  0  0  0  0  0
    1.5810    8.7700   -2.7440 C   0  0  0  0  0  0  0  0  0  0  0  0
    0.3650   12.8020    0.3720 C   0  0  1  0  0  0  0  0  0  0  0  0
    0.3380   12.1240    1.7760 C   0  0  0  0  0  0  0  0  0  0  0  0
   -0.6520   14.0020    0.4390 C   0  0  0  0  0  0  0  0  0  0  0  0
   -0.3960   15.1830   -0.5170 C   0  0  0  0  0  0  0  0  0  0  0  0
    1.0620   15.6450   -0.4400 C   0  0  2  0  0  0  0  0  0  0  0  0
    1.3240   16.1610    1.0160 C   0  0  0  0  0  0  0  0  0  0  0  0
   -0.9495   18.9105   -1.4162 H   0  0  0  0  0  0  0  0  0  0  0  0
    0.2318   19.4391   -2.6619 H   0  0  0  0  0  0  0  0  0  0  0  0
   -0.3778   17.7494   -2.6619 H   0  0  0  0  0  0  0  0  0  0  0  0
    0.6991   18.2400   -0.0738 H   0  0  0  0  0  0  0  0  0  0  0  0
    3.1858   18.5278   -1.3059 H   0  0  0  0  0  0  0  0  0  0  0  0
    2.1052   19.7592   -2.1173 H   0  0  0  0  0  0  0  0  0  0  0  0
    3.2495   20.7829   -0.2398 H   0  0  0  0  0  0  0  0  0  0  0  0
    1.4746   20.6248    0.0953 H   0  0  0  0  0  0  0  0  0  0  0  0
    2.0770   18.5052    0.9175 H   0  0  0  0  0  0  0  0  0  0  0  0
    5.7856   20.6093    2.2265 H   0  0  0  0  0  0  0  0  0  0  0  0
    5.8448   19.5502    0.7768 H   0  0  0  0  0  0  0  0  0  0  0  0
    4.8058   21.0155    0.7768 H   0  0  0  0  0  0  0  0  0  0  0  0
    4.3091   18.6158    3.9084 H   0  0  0  0  0  0  0  0  0  0  0  0
    3.7499   17.4180    2.6922 H   0  0  0  0  0  0  0  0  0  0  0  0
    5.4605   17.9662    2.6922 H   0  0  0  0  0  0  0  0  0  0  0  0
    0.9797   16.6210   -2.3935 H   0  0  0  0  0  0  0  0  0  0  0  0
    3.3907   16.6852   -2.5188 H   0  0  0  0  0  0  0  0  0  0  0  0
    3.5343   17.3709   -0.8857 H   0  0  0  0  0  0  0  0  0  0  0  0
    4.0540   14.6530   -1.5980 H   0  0  0  0  0  0  0  0  0  0  0  0
    3.8358   15.2158    0.0567 H   0  0  0  0  0  0  0  0  0  0  0  0
    1.2687   12.9820   -2.3420 H   0  0  0  0  0  0  0  0  0  0  0  0
    1.0996   14.6869   -2.8818 H   0  0  0  0  0  0  0  0  0  0  0  0
    2.7147   13.9009   -2.8818 H   0  0  0  0  0  0  0  0  0  0  0  0
    2.1898   13.7530    1.0699 H   0  0  0  0  0  0  0  0  0  0  0  0
    3.7186   12.4829   -0.5701 H   0  0  0  0  0  0  0  0  0  0  0  0
    2.9626   11.6356    0.8791 H   0  0  0  0  0  0  0  0  0  0  0  0
    2.9762   10.2860   -1.3827 H   0  0  0  0  0  0  0  0  0  0  0  0
   -0.4373   12.4350   -1.5554 H   0  0  0  0  0  0  0  0  0  0  0  0
   -0.9929   10.2851    0.5812 H   0  0  0  0  0  0  0  0  0  0  0  0
   -2.1291   11.5936    0.0276 H   0  0  0  0  0  0  0  0  0  0  0  0
   -2.6809    9.3941   -0.9636 H   0  0  0  0  0  0  0  0  0  0  0  0
   -2.2077   10.6255   -2.1985 H   0  0  0  0  0  0  0  0  0  0  0  0
   -1.1683    8.5352   -2.7563 H   0  0  0  0  0  0  0  0  0  0  0  0
    0.4840    7.8070   -1.0530 H   0  0  0  0  0  0  0  0  0  0  0  0
   -0.2506   11.5660   -3.4516 H   0  0  0  0  0  0  0  0  0  0  0  0
    1.0973   10.7136   -4.2781 H   0  0  0  0  0  0  0  0  0  0  0  0
   -0.5510    9.9997   -4.2781 H   0  0  0  0  0  0  0  0  0  0  0  0
    2.0093    8.3504   -1.8218 H   0  0  0  0  0  0  0  0  0  0  0  0
    1.1203    7.9641   -3.3341 H   0  0  0  0  0  0  0  0  0  0  0  0
    2.3773    9.2473   -3.3341 H   0  0  0  0  0  0  0  0  0  0  0  0
    0.3688   12.8976    2.5574 H   0  0  0  0  0  0  0  0  0  0  0  0
   -0.5844   11.5338    1.8805 H   0  0  0  0  0  0  0  0  0  0  0  0
    1.2105   11.4623    1.8805 H   0  0  0  0  0  0  0  0  0  0  0  0
   -1.6525   13.6034    0.2152 H   0  0  0  0  0  0  0  0  0  0  0  0
   -0.5383   14.4199    1.4501 H   0  0  0  0  0  0  0  0  0  0  0  0
   -0.6194   14.8672   -1.5467 H   0  0  0  0  0  0  0  0  0  0  0  0
   -1.0452   16.0204   -0.2214 H   0  0  0  0  0  0  0  0  0  0  0  0
    0.9490   15.4224    1.7398 H   0  0  0  0  0  0  0  0  0  0  0  0
    2.4043   16.3048    1.1652 H   0  0  0  0  0  0  0  0  0  0  0  0
    0.8027   17.1180    1.1652 H   0  0  0  0  0  0  0  0  0  0  0  0
  1  2  1  0
  2  3  1  0
  3  4  1  0
  4  5  1  0
  5  6  1  0
  6  7  1  0
  7  8  1  0
  7  9  1  0
  2 10  1  0
 10 11  1  0
 11 12  1  0
 12 13  1  0
 13 14  1  6
 13 15  1  0
 15 16  1  0
 16 17  1  0
 17 18  2  0
 18 19  1  0
 19 20  1  0
 20 21  1  0
 21 22  1  0
 22 23  1  0
 22 24  1  0
 24 25  1  0
 24 26  1  0
 19 27  1  0
 27 28  1  1
 27 29  1  0
 29 30  1  0
 30 31  1  0
 31 32  1  1
  7  5  1  0
 31 10  1  0
 31 13  1  0
 27 15  1  0
 24 18  1  0
  1 33  1  0
  1 34  1  0
  1 35  1  0
  2 36  1  1
  3 37  1  0
  3 38  1  0
  4 39  1  0
  4 40  1  0
  5 41  1  1
  8 42  1  0
  8 43  1  0
  8 44  1  0
  9 45  1  0
  9 46  1  0
  9 47  1  0
 10 48  1  6
 11 49  1  0
 11 50  1  0
 12 51  1  0
 12 52  1  0
 14 53  1  0
 14 54  1  0
 14 55  1  0
 15 56  1  1
 16 57  1  0
 16 58  1  0
 17 59  1  0
 19 60  1  6
 20 61  1  0
 20 62  1  0
 21 63  1  0
 21 64  1  0
 22 65  1  6
 23 66  1  0
 25 67  1  0
 25 68  1  0
 25 69  1  0
 26 70  1  0
 26 71  1  0
 26 72  1  0
 28 73  1  0
 28 74  1  0
 28 75  1  0
 29 76  1  0
 29 77  1  0
 30 78  1  0
 30 79  1  0
 32 80  1  0
 32 81  1  0
 32 82  1  0
M  END
>  <meeko>  (18) 
{"is_sidechain": [false], "intermolecular_energy": 2.731, "internal_energy": -0.839}

$$$$
EPH_relaxed_0001_pdb2pqr_Repair_267_r2_0001_out
     RDKit          3D

 82 86  0  0  0  0  0  0  0  0999 V2000
   -2.3960    7.7700    0.0190 C   0  0  0  0  0  0  0  0  0  0  0  0
   -3.0520    9.1530   -0.0160 C   0  0  2  0  0  0  0  0  0  0  0  0
   -4.5380    9.0810   -0.4220 C   0  0  0  0  0  0  0  0  0  0  0  0
   -4.8940    7.8340   -1.2350 C   0  0  0  0  0  0  0  0  0  0  0  0
   -6.0720    7.1110   -0.6550 C   0  0  2  0  0  0  0  0  0  0  0  0
   -6.5790    6.0440   -1.4670 O   0  0  0  0  0  0  0  0  0  0  0  0
   -7.4630    7.1580   -1.2600 C   0  0  0  0  0  0  0  0  0  0  0  0
   -7.7490    7.9470   -2.4990 C   0  0  0  0  0  0  0  0  0  0  0  0
   -8.6350    6.8430   -0.3840 C   0  0  0  0  0  0  0  0  0  0  0  0
   -2.2930   10.0640   -0.9740 C   0  0  1  0  0  0  0  0  0  0  0  0
   -2.9510   11.4620   -1.1150 C   0  0  0  0  0  0  0  0  0  0  0  0
   -1.7980   12.4830   -1.2970 C   0  0  0  0  0  0  0  0  0  0  0  0
   -0.5510   11.6150   -1.5860 C   0  0  1  0  0  0  0  0  0  0  0  0
   -0.6490   11.2640   -3.1040 C   0  0  0  0  0  0  0  0  0  0  0  0
    0.8320   12.2510   -1.2290 C   0  0  2  0  0  0  0  0  0  0  0  0
    1.1830   13.5290   -2.0100 C   0  0  0  0  0  0  0  0  0  0  0  0
    1.9290   13.3120   -3.2850 C   0  0  0  0  0  0  0  0  0  0  0  0
    2.5490   12.1730   -3.6440 C   0  0  0  0  0  0  0  0  0  0  0  0
    2.6220   10.9790   -2.6840 C   0  0  1  0  0  0  0  0  0  0  0  0
    4.0710   10.4240   -2.6570 C   0  0  0  0  0  0  0  0  0  0  0  0
    4.5930   10.0850   -4.0500 C   0  0  0  0  0  0  0  0  0  0  0  0
    4.5590   11.3110   -4.9590 C   0  0  2  0  0  0  0  0  0  0  0  0
    5.5010   12.2710   -4.4720 O   0  0  0  0  0  0  0  0  0  0  0  0
    3.1510   11.9630   -5.0550 C   0  0  0  0  0  0  0  0  0  0  0  0
    2.2020   11.0370   -5.8550 C   0  0  0  0  0  0  0  0  0  0  0  0
    3.2860   13.2680   -5.8860 C   0  0  0  0  0  0  0  0  0  0  0  0
    2.0360   11.2240   -1.2270 C   0  0  1  0  0  0  0  0  0  0  0  0
    3.1380   11.8320   -0.3050 C   0  0  0  0  0  0  0  0  0  0  0  0
    1.6410    9.8390   -0.5920 C   0  0  0  0  0  0  0  0  0  0  0  0
    0.2200    9.3210   -0.8840 C   0  0  0  0  0  0  0  0  0  0  0  0
   -0.8260   10.4080   -0.6170 C   0  0  2  0  0  0  0  0  0  0  0  0
   -0.7660   10.7650    0.9080 C   0  0  0  0  0  0  0  0  0  0  0  0
   -2.2491    7.4602    1.0642 H   0  0  0  0  0  0  0  0  0  0  0  0
   -3.0453    7.0432   -0.4910 H   0  0  0  0  0  0  0  0  0  0  0  0
   -1.4223    7.8130   -0.4910 H   0  0  0  0  0  0  0  0  0  0  0  0
   -3.0083    9.5661    1.0026 H   0  0  0  0  0  0  0  0  0  0  0  0
   -5.1486    9.0850    0.4930 H   0  0  0  0  0  0  0  0  0  0  0  0
   -4.7383    9.9514   -1.0641 H   0  0  0  0  0  0  0  0  0  0  0  0
   -5.1334    8.1365   -2.2651 H   0  0  0  0  0  0  0  0  0  0  0  0
   -4.0301    7.1534   -1.2144 H   0  0  0  0  0  0  0  0  0  0  0  0
   -5.7057    7.2857    0.3674 H   0  0  0  0  0  0  0  0  0  0  0  0
   -8.1117    8.9476   -2.2210 H   0  0  0  0  0  0  0  0  0  0  0  0
   -6.8284    8.0428   -3.0934 H   0  0  0  0  0  0  0  0  0  0  0  0
   -8.5172    7.4306   -3.0934 H   0  0  0  0  0  0  0  0  0  0  0  0
   -8.3359    6.9234    0.6715 H   0  0  0  0  0  0  0  0  0  0  0  0
   -9.4483    7.5544   -0.5899 H   0  0  0  0  0  0  0  0  0  0  0  0
   -8.9821    5.8197   -0.5899 H   0  0  0  0  0  0  0  0  0  0  0  0
   -2.3230    9.4431   -1.8815 H   0  0  0  0  0  0  0  0  0  0  0  0
   -3.6157   11.4811   -1.9912 H   0  0  0  0  0  0  0  0  0  0  0  0
   -3.5570   11.7044   -0.2295 H   0  0  0  0  0  0  0  0  0  0  0  0
   -2.0059   13.1573   -2.1408 H   0  0  0  0  0  0  0  0  0  0  0  0
   -1.6646   13.1239   -0.4130 H   0  0  0  0  0  0  0  0  0  0  0  0
   -0.9432   10.2103   -3.2184 H   0  0  0  0  0  0  0  0  0  0  0  0
   -1.4015   11.9087   -3.5816 H   0  0  0  0  0  0  0  0  0  0  0  0
    0.3286   11.4257   -3.5816 H   0  0  0  0  0  0  0  0  0  0  0  0
    0.6838   12.5701   -0.1868 H   0  0  0  0  0  0  0  0  0  0  0  0
    0.2441   14.0496   -2.2498 H   0  0  0  0  0  0  0  0  0  0  0  0
    1.8542   14.1088   -1.3594 H   0  0  0  0  0  0  0  0  0  0  0  0
    1.9757   14.1546   -3.9906 H   0  0  0  0  0  0  0  0  0  0  0  0
    1.9384   10.2194   -3.0911 H   0  0  0  0  0  0  0  0  0  0  0  0
    4.7304   11.1812   -2.2078 H   0  0  0  0  0  0  0  0  0  0  0  0
    4.0621    9.4949   -2.0682 H   0  0  0  0  0  0  0  0  0  0  0  0
    5.6296    9.7260   -3.9684 H   0  0  0  0  0  0  0  0  0  0  0  0
    3.9495    9.3068   -4.4862 H   0  0  0  0  0  0  0  0  0  0  0  0
    4.8201   10.9772   -5.9741 H   0  0  0  0  0  0  0  0  0  0  0  0
    6.1410   12.4430   -5.1840 H   0  0  0  0  0  0  0  0  0  0  0  0
    1.5938   10.4436   -5.1564 H   0  0  0  0  0  0  0  0  0  0  0  0
    1.5418   11.6477   -6.4884 H   0  0  0  0  0  0  0  0  0  0  0  0
    2.7963   10.3620   -6.4884 H   0  0  0  0  0  0  0  0  0  0  0  0
    3.3750   14.1281   -5.2061 H   0  0  0  0  0  0  0  0  0  0  0  0
    4.1827   13.2077   -6.5203 H   0  0  0  0  0  0  0  0  0  0  0  0
    2.3959   13.3925   -6.5203 H   0  0  0  0  0  0  0  0  0  0  0  0
    2.8604   11.6788    0.7483 H   0  0  0  0  0  0  0  0  0  0  0  0
    4.0992   11.3365   -0.5066 H   0  0  0  0  0  0  0  0  0  0  0  0
    3.2314   12.9093   -0.5066 H   0  0  0  0  0  0  0  0  0  0  0  0
    2.3523    9.0872   -0.9645 H   0  0  0  0  0  0  0  0  0  0  0  0
    1.6700   10.0022    0.4954 H   0  0  0  0  0  0  0  0  0  0  0  0
    0.1586    9.0139   -1.9385 H   0  0  0  0  0  0  0  0  0  0  0  0
    0.0151    8.4671   -0.2215 H   0  0  0  0  0  0  0  0  0  0  0  0
   -0.9192    9.8534    1.5043 H   0  0  0  0  0  0  0  0  0  0  0  0
    0.2174   11.1972    1.1450 H   0  0  0  0  0  0  0  0  0  0  0  0
   -1.5541   11.4949    1.1450 H   0  0  0  0  0  0  0  0  0  0  0  0
  1  2  1  0
  2  3  1  0
  3  4  1  0
  4  5  1  0
  5  6  1  0
  6  7  1  0
  7  8  1  0
  7  9  1  0
  2 10  1  0
 10 11  1  0
 11 12  1  0
 12 13  1  0
 13 14  1  6
 13 15  1  0
 15 16  1  0
 16 17  1  0
 17 18  2  0
 18 19  1  0
 19 20  1  0
 20 21  1  0
 21 22  1  0
 22 23  1  0
 22 24  1  0
 24 25  1  0
 24 26  1  0
 19 27  1  0
 27 28  1  1
 27 29  1  0
 29 30  1  0
 30 31  1  0
 31 32  1  1
  7  5  1  0
 31 10  1  0
 31 13  1  0
 27 15  1  0
 24 18  1  0
  1 33  1  0
  1 34  1  0
  1 35  1  0
  2 36  1  1
  3 37  1  0
  3 38  1  0
  4 39  1  0
  4 40  1  0
  5 41  1  1
  8 42  1  0
  8 43  1  0
  8 44  1  0
  9 45  1  0
  9 46  1  0
  9 47  1  0
 10 48  1  6
 11 49  1  0
 11 50  1  0
 12 51  1  0
 12 52  1  0
 14 53  1  0
 14 54  1  0
 14 55  1  0
 15 56  1  1
 16 57  1  0
 16 58  1  0
 17 59  1  0
 19 60  1  6
 20 61  1  0
 20 62  1  0
 21 63  1  0
 21 64  1  0
 22 65  1  6
 23 66  1  0
 25 67  1  0
 25 68  1  0
 25 69  1  0
 26 70  1  0
 26 71  1  0
 26 72  1  0
 28 73  1  0
 28 74  1  0
 28 75  1  0
 29 76  1  0
 29 77  1  0
 30 78  1  0
 30 79  1  0
 32 80  1  0
 32 81  1  0
 32 82  1  0
M  END
>  <meeko>  (19) 
{"is_sidechain": [false], "intermolecular_energy": 2.731, "internal_energy": -0.839}

$$$$
