EPH_relaxed_0001_pdb2pqr_Repair_84_r2_0001_out
     RDKit          3D

 82 86  0  0  0  0  0  0  0  0999 V2000
   -1.7100    8.5900   -1.8570 C   0  0  0  0  0  0  0  0  0  0  0  0
   -2.1210    9.1360   -0.4870 C   0  0  2  0  0  0  0  0  0  0  0  0
   -3.6140    9.5160   -0.4370 C   0  0  0  0  0  0  0  0  0  0  0  0
   -4.5490    8.3170   -0.2570 C   0  0  0  0  0  0  0  0  0  0  0  0
   -5.2380    7.9540   -1.5380 C   0  0  2  0  0  0  0  0  0  0  0  0
   -6.2440    8.8830   -1.9600 O   0  0  0  0  0  0  0  0  0  0  0  0
   -6.7020    7.5650   -1.6190 C   0  0  0  0  0  0  0  0  0  0  0  0
   -7.5660    7.5180   -0.3970 C   0  0  0  0  0  0  0  0  0  0  0  0
   -7.1660    6.7640   -2.7950 C   0  0  0  0  0  0  0  0  0  0  0  0
   -1.2640   10.3450   -0.1310 C   0  0  1  0  0  0  0  0  0  0  0  0
   -0.2480   10.0450    1.0040 C   0  0  0  0  0  0  0  0  0  0  0  0
    1.0280   10.8670    0.6920 C   0  0  0  0  0  0  0  0  0  0  0  0
    0.5930   11.8580   -0.4130 C   0  0  1  0  0  0  0  0  0  0  0  0
   -0.1220   13.0190    0.3480 C   0  0  0  0  0  0  0  0  0  0  0  0
    1.7260   12.3930   -1.3470 C   0  0  2  0  0  0  0  0  0  0  0  0
    2.8220   13.2110   -0.6420 C   0  0  0  0  0  0  0  0  0  0  0  0
    2.5730   14.6820   -0.5710 C   0  0  0  0  0  0  0  0  0  0  0  0
    1.6620   15.3570   -1.2950 C   0  0  0  0  0  0  0  0  0  0  0  0
    0.8300   14.6480   -2.3720 C   0  0  1  0  0  0  0  0  0  0  0  0
    0.8230   15.5040   -3.6660 C   0  0  0  0  0  0  0  0  0  0  0  0
    0.3590   16.9360   -3.4190 C   0  0  0  0  0  0  0  0  0  0  0  0
    1.2460   17.6250   -2.3850 C   0  0  2  0  0  0  0  0  0  0  0  0
    2.5560   17.7880   -2.9380 O   0  0  0  0  0  0  0  0  0  0  0  0
    1.3380   16.8500   -1.0420 C   0  0  0  0  0  0  0  0  0  0  0  0
   -0.0180   16.9330   -0.2980 C   0  0  0  0  0  0  0  0  0  0  0  0
    2.3720   17.5770   -0.1410 C   0  0  0  0  0  0  0  0  0  0  0  0
    1.2020   13.1280   -2.6470 C   0  0  1  0  0  0  0  0  0  0  0  0
    2.3500   13.0430   -3.7000 C   0  0  0  0  0  0  0  0  0  0  0  0
   -0.0400   12.4020   -3.2850 C   0  0  0  0  0  0  0  0  0  0  0  0
   -1.0640   11.7900   -2.3100 C   0  0  0  0  0  0  0  0  0  0  0  0
   -0.3670   10.9350   -1.2480 C   0  0  2  0  0  0  0  0  0  0  0  0
    0.3430    9.7460   -1.9820 C   0  0  0  0  0  0  0  0  0  0  0  0
   -1.0534    7.7178   -1.7222 H   0  0  0  0  0  0  0  0  0  0  0  0
   -2.6082    8.2898   -2.4166 H   0  0  0  0  0  0  0  0  0  0  0  0
   -1.1731    9.3701   -2.4166 H   0  0  0  0  0  0  0  0  0  0  0  0
   -1.9595    8.3354    0.2499 H   0  0  0  0  0  0  0  0  0  0  0  0
   -3.7685   10.2063    0.4054 H   0  0  0  0  0  0  0  0  0  0  0  0
   -3.8616    9.9739   -1.4060 H   0  0  0  0  0  0  0  0  0  0  0  0
   -3.9601    7.4543    0.0879 H   0  0  0  0  0  0  0  0  0  0  0  0
   -5.3181    8.5896    0.4807 H   0  0  0  0  0  0  0  0  0  0  0  0
   -4.3250    7.4746   -1.9210 H   0  0  0  0  0  0  0  0  0  0  0  0
   -6.9324    7.5525    0.5016 H   0  0  0  0  0  0  0  0  0  0  0  0
   -8.2489    8.3803   -0.3974 H   0  0  0  0  0  0  0  0  0  0  0  0
   -8.1514    6.5867   -0.3974 H   0  0  0  0  0  0  0  0  0  0  0  0
   -7.6882    5.8626   -2.4417 H   0  0  0  0  0  0  0  0  0  0  0  0
   -7.8526    7.3705   -3.4038 H   0  0  0  0  0  0  0  0  0  0  0  0
   -6.2983    6.4701   -3.4038 H   0  0  0  0  0  0  0  0  0  0  0  0
   -2.0567   11.0605    0.1330 H   0  0  0  0  0  0  0  0  0  0  0  0
   -0.6654   10.3479    1.9756 H   0  0  0  0  0  0  0  0  0  0  0  0
   -0.0216    8.9698    1.0568 H   0  0  0  0  0  0  0  0  0  0  0  0
    1.3696   11.4083    1.5866 H   0  0  0  0  0  0  0  0  0  0  0  0
    1.8672   10.2305    0.3748 H   0  0  0  0  0  0  0  0  0  0  0  0
   -0.0249   12.8613    1.4323 H   0  0  0  0  0  0  0  0  0  0  0  0
    0.3423   13.9778    0.0739 H   0  0  0  0  0  0  0  0  0  0  0  0
   -1.1872   13.0358    0.0739 H   0  0  0  0  0  0  0  0  0  0  0  0
    2.2140   11.4650   -1.6798 H   0  0  0  0  0  0  0  0  0  0  0  0
    2.9203   12.8327    0.3862 H   0  0  0  0  0  0  0  0  0  0  0  0
    3.7325   13.0849   -1.2463 H   0  0  0  0  0  0  0  0  0  0  0  0
    3.1868   15.2628    0.1332 H   0  0  0  0  0  0  0  0  0  0  0  0
   -0.1905   14.5725   -1.9684 H   0  0  0  0  0  0  0  0  0  0  0  0
    1.8431   15.5300   -4.0768 H   0  0  0  0  0  0  0  0  0  0  0  0
    0.1147   15.0405   -4.3685 H   0  0  0  0  0  0  0  0  0  0  0  0
    0.4044   17.4974   -4.3639 H   0  0  0  0  0  0  0  0  0  0  0  0
   -0.6721   16.9105   -3.0366 H   0  0  0  0  0  0  0  0  0  0  0  0
    0.7882   18.5980   -2.1534 H   0  0  0  0  0  0  0  0  0  0  0  0
    2.5040   18.4810   -3.6180 H   0  0  0  0  0  0  0  0  0  0  0  0
    0.1582   16.9222    0.7877 H   0  0  0  0  0  0  0  0  0  0  0  0
   -0.5327   17.8643   -0.5767 H   0  0  0  0  0  0  0  0  0  0  0  0
   -0.6425   16.0714   -0.5767 H   0  0  0  0  0  0  0  0  0  0  0  0
    2.1238   17.4025    0.9163 H   0  0  0  0  0  0  0  0  0  0  0  0
    3.3790   17.1871   -0.3504 H   0  0  0  0  0  0  0  0  0  0  0  0
    2.3459   18.6566   -0.3504 H   0  0  0  0  0  0  0  0  0  0  0  0
    3.3179   12.9713   -3.1823 H   0  0  0  0  0  0  0  0  0  0  0  0
    2.2045   12.1532   -4.3301 H   0  0  0  0  0  0  0  0  0  0  0  0
    2.3371   13.9446   -4.3301 H   0  0  0  0  0  0  0  0  0  0  0  0
   -0.5714   13.1370   -3.9075 H   0  0  0  0  0  0  0  0  0  0  0  0
    0.3785   11.5472   -3.8364 H   0  0  0  0  0  0  0  0  0  0  0  0
   -1.6168   12.6009   -1.8131 H   0  0  0  0  0  0  0  0  0  0  0  0
   -1.7515   11.1485   -2.8808 H   0  0  0  0  0  0  0  0  0  0  0  0
    0.7581    9.0509   -1.2374 H   0  0  0  0  0  0  0  0  0  0  0  0
   -0.3865    9.2159   -2.6119 H   0  0  0  0  0  0  0  0  0  0  0  0
    1.1557   10.1368   -2.6119 H   0  0  0  0  0  0  0  0  0  0  0  0
  1  2  1  0
  2  3  1  0
  3  4  1  0
  4  5  1  0
  5  6  1  0
  6  7  1  0
  7  8  1  0
  7  9  1  0
  2 10  1  0
 10 11  1  0
 11 12  1  0
 12 13  1  0
 13 14  1  1
 13 15  1  0
 15 16  1  0
 16 17  1  0
 17 18  2  0
 18 19  1  0
 19 20  1  0
 20 21  1  0
 21 22  1  0
 22 23  1  0
 22 24  1  0
 24 25  1  0
 24 26  1  0
 19 27  1  0
 27 28  1  6
 27 29  1  0
 29 30  1  0
 30 31  1  0
 31 32  1  6
  7  5  1  0
 31 10  1  0
 31 13  1  0
 27 15  1  0
 24 18  1  0
  1 33  1  0
  1 34  1  0
  1 35  1  0
  2 36  1  1
  3 37  1  0
  3 38  1  0
  4 39  1  0
  4 40  1  0
  5 41  1  6
  8 42  1  0
  8 43  1  0
  8 44  1  0
  9 45  1  0
  9 46  1  0
  9 47  1  0
 10 48  1  1
 11 49  1  0
 11 50  1  0
 12 51  1  0
 12 52  1  0
 14 53  1  0
 14 54  1  0
 14 55  1  0
 15 56  1  6
 16 57  1  0
 16 58  1  0
 17 59  1  0
 19 60  1  1
 20 61  1  0
 20 62  1  0
 21 63  1  0
 21 64  1  0
 22 65  1  1
 23 66  1  0
 25 67  1  0
 25 68  1  0
 25 69  1  0
 26 70  1  0
 26 71  1  0
 26 72  1  0
 28 73  1  0
 28 74  1  0
 28 75  1  0
 29 76  1  0
 29 77  1  0
 30 78  1  0
 30 79  1  0
 32 80  1  0
 32 81  1  0
 32 82  1  0
M  END
>  <meeko>  (1) 
{"is_sidechain": [false], "intermolecular_energy": 2.731, "internal_energy": -0.839}

$$$$
EPH_relaxed_0001_pdb2pqr_Repair_84_r2_0001_out
     RDKit          3D

 82 86  0  0  0  0  0  0  0  0999 V2000
    1.9960   19.6060   -0.6020 C   0  0  0  0  0  0  0  0  0  0  0  0
    2.4070   18.3760    0.2130 C   0  0  2  0  0  0  0  0  0  0  0  0
    3.8500   17.9300   -0.0970 C   0  0  0  0  0  0  0  0  0  0  0  0
    4.8640   18.3390    0.9750 C   0  0  0  0  0  0  0  0  0  0  0  0
    4.1880   18.8090    2.2270 C   0  0  2  0  0  0  0  0  0  0  0  0
    4.3930   20.1940    2.5340 O   0  0  0  0  0  0  0  0  0  0  0  0
    4.9390   19.2500    3.4690 C   0  0  0  0  0  0  0  0  0  0  0  0
    6.4350   19.2400    3.5200 C   0  0  0  0  0  0  0  0  0  0  0  0
    4.2260   19.2220    4.7850 C   0  0  0  0  0  0  0  0  0  0  0  0
    1.4390   17.2290   -0.0540 C   0  0  1  0  0  0  0  0  0  0  0  0
    0.1540   17.6910   -0.7920 C   0  0  0  0  0  0  0  0  0  0  0  0
   -0.2580   16.5340   -1.7380 C   0  0  0  0  0  0  0  0  0  0  0  0
    0.5960   15.3300   -1.2770 C   0  0  1  0  0  0  0  0  0  0  0  0
   -0.1590   14.7530   -0.0380 C   0  0  0  0  0  0  0  0  0  0  0  0
    0.8700   14.2260   -2.3510 C   0  0  2  0  0  0  0  0  0  0  0  0
   -0.3820   13.5060   -2.8800 C   0  0  0  0  0  0  0  0  0  0  0  0
   -0.7770   12.2790   -2.1280 C   0  0  0  0  0  0  0  0  0  0  0  0
   -0.0020   11.6140   -1.2510 C   0  0  0  0  0  0  0  0  0  0  0  0
    1.4550   12.0320   -1.0140 C   0  0  1  0  0  0  0  0  0  0  0  0
    2.3650   10.7760   -1.0350 C   0  0  0  0  0  0  0  0  0  0  0  0
    1.9000    9.7010   -0.0570 C   0  0  0  0  0  0  0  0  0  0  0  0
    0.4670    9.2700   -0.3610 C   0  0  2  0  0  0  0  0  0  0  0  0
    0.4450    8.6030   -1.6270 O   0  0  0  0  0  0  0  0  0  0  0  0
   -0.5390   10.4550   -0.3770 C   0  0  0  0  0  0  0  0  0  0  0  0
   -0.7410   10.9850    1.0640 C   0  0  0  0  0  0  0  0  0  0  0  0
   -1.9170    9.9040   -0.8340 C   0  0  0  0  0  0  0  0  0  0  0  0
    2.0030   13.1970   -1.9470 C   0  0  1  0  0  0  0  0  0  0  0  0
    2.5550   12.5990   -3.2770 C   0  0  0  0  0  0  0  0  0  0  0  0
    3.2210   13.8960   -1.2350 C   0  0  0  0  0  0  0  0  0  0  0  0
    2.8930   15.0580   -0.2780 C   0  0  0  0  0  0  0  0  0  0  0  0
    1.9450   16.0630   -0.9400 C   0  0  2  0  0  0  0  0  0  0  0  0
    2.6850   16.6760   -2.1770 C   0  0  0  0  0  0  0  0  0  0  0  0
    1.7227   20.4238    0.0810 H   0  0  0  0  0  0  0  0  0  0  0  0
    2.8369   19.9234   -1.2361 H   0  0  0  0  0  0  0  0  0  0  0  0
    1.1332   19.3541   -1.2361 H   0  0  0  0  0  0  0  0  0  0  0  0
    2.3689   18.6553    1.2763 H   0  0  0  0  0  0  0  0  0  0  0  0
    3.8630   16.8338   -0.1872 H   0  0  0  0  0  0  0  0  0  0  0  0
    4.1482   18.4312   -1.0297 H   0  0  0  0  0  0  0  0  0  0  0  0
    5.4974   17.4724    1.2157 H   0  0  0  0  0  0  0  0  0  0  0  0
    5.4663   19.1695    0.5781 H   0  0  0  0  0  0  0  0  0  0  0  0
    3.3642   18.0955    2.0777 H   0  0  0  0  0  0  0  0  0  0  0  0
    6.7661   19.2378    4.5690 H   0  0  0  0  0  0  0  0  0  0  0  0
    6.8131   18.3393    3.0142 H   0  0  0  0  0  0  0  0  0  0  0  0
    6.8251   20.1356    3.0142 H   0  0  0  0  0  0  0  0  0  0  0  0
    4.9624   19.2509    5.6017 H   0  0  0  0  0  0  0  0  0  0  0  0
    3.5606   20.0947    4.8602 H   0  0  0  0  0  0  0  0  0  0  0  0
    3.6311   18.2998    4.8602 H   0  0  0  0  0  0  0  0  0  0  0  0
    1.2810   16.8776    0.9763 H   0  0  0  0  0  0  0  0  0  0  0  0
   -0.6483   17.8913   -0.0666 H   0  0  0  0  0  0  0  0  0  0  0  0
    0.3339   18.6179   -1.3563 H   0  0  0  0  0  0  0  0  0  0  0  0
   -1.3303   16.3115   -1.6352 H   0  0  0  0  0  0  0  0  0  0  0  0
   -0.0922   16.7819   -2.7968 H   0  0  0  0  0  0  0  0  0  0  0  0
    0.3176   15.1172    0.8841 H   0  0  0  0  0  0  0  0  0  0  0  0
   -1.2086   15.0813   -0.0626 H   0  0  0  0  0  0  0  0  0  0  0  0
   -0.1179   13.6540   -0.0626 H   0  0  0  0  0  0  0  0  0  0  0  0
    1.2575   14.8106   -3.1984 H   0  0  0  0  0  0  0  0  0  0  0  0
   -1.2231   14.2139   -2.8413 H   0  0  0  0  0  0  0  0  0  0  0  0
   -0.1337   13.1722   -3.8983 H   0  0  0  0  0  0  0  0  0  0  0  0
   -1.7882   11.8841   -2.3056 H   0  0  0  0  0  0  0  0  0  0  0  0
    1.4793   12.4940   -0.0160 H   0  0  0  0  0  0  0  0  0  0  0  0
    2.3608   10.3543   -2.0509 H   0  0  0  0  0  0  0  0  0  0  0  0
    3.3747   11.0897   -0.7315 H   0  0  0  0  0  0  0  0  0  0  0  0
    2.5638    8.8278   -0.1395 H   0  0  0  0  0  0  0  0  0  0  0  0
    1.9337   10.1147    0.9617 H   0  0  0  0  0  0  0  0  0  0  0  0
    0.1462    8.5974    0.4481 H   0  0  0  0  0  0  0  0  0  0  0  0
    0.6620    7.6680   -1.4700 H   0  0  0  0  0  0  0  0  0  0  0  0
   -0.4451   10.2087    1.7850 H   0  0  0  0  0  0  0  0  0  0  0  0
   -0.1214   11.8812    1.2153 H   0  0  0  0  0  0  0  0  0  0  0  0
   -1.7999   11.2415    1.2153 H   0  0  0  0  0  0  0  0  0  0  0  0
   -2.5258    9.6606    0.0493 H   0  0  0  0  0  0  0  0  0  0  0  0
   -2.4341   10.6645   -1.4375 H   0  0  0  0  0  0  0  0  0  0  0  0
   -1.7672    8.9966   -1.4375 H   0  0  0  0  0  0  0  0  0  0  0  0
    3.2848   11.8084   -3.0485 H   0  0  0  0  0  0  0  0  0  0  0  0
    1.7248   12.1742   -3.8604 H   0  0  0  0  0  0  0  0  0  0  0  0
    3.0448   13.3926   -3.8604 H   0  0  0  0  0  0  0  0  0  0  0  0
    3.7532   13.1275   -0.6552 H   0  0  0  0  0  0  0  0  0  0  0  0
    3.8078   14.3493   -2.0475 H   0  0  0  0  0  0  0  0  0  0  0  0
    2.4150   14.6548    0.6270 H   0  0  0  0  0  0  0  0  0  0  0  0
    3.8290   15.5756   -0.0212 H   0  0  0  0  0  0  0  0  0  0  0  0
    3.4889   17.3420   -1.8303 H   0  0  0  0  0  0  0  0  0  0  0  0
    3.1158   15.8666   -2.7847 H   0  0  0  0  0  0  0  0  0  0  0  0
    1.9699   17.2499   -2.7847 H   0  0  0  0  0  0  0  0  0  0  0  0
  1  2  1  0
  2  3  1  0
  3  4  1  0
  4  5  1  0
  5  6  1  0
  6  7  1  0
  7  8  1  0
  7  9  1  0
  2 10  1  0
 10 11  1  0
 11 12  1  0
 12 13  1  0
 13 14  1  1
 13 15  1  0
 15 16  1  0
 16 17  1  0
 17 18  2  0
 18 19  1  0
 19 20  1  0
 20 21  1  0
 21 22  1  0
 22 23  1  0
 22 24  1  0
 24 25  1  0
 24 26  1  0
 19 27  1  0
 27 28  1  6
 27 29  1  0
 29 30  1  0
 30 31  1  0
 31 32  1  6
  7  5  1  0
 31 10  1  0
 31 13  1  0
 27 15  1  0
 24 18  1  0
  1 33  1  0
  1 34  1  0
  1 35  1  0
  2 36  1  1
  3 37  1  0
  3 38  1  0
  4 39  1  0
  4 40  1  0
  5 41  1  1
  8 42  1  0
  8 43  1  0
  8 44  1  0
  9 45  1  0
  9 46  1  0
  9 47  1  0
 10 48  1  1
 11 49  1  0
 11 50  1  0
 12 51  1  0
 12 52  1  0
 14 53  1  0
 14 54  1  0
 14 55  1  0
 15 56  1  6
 16 57  1  0
 16 58  1  0
 17 59  1  0
 19 60  1  1
 20 61  1  0
 20 62  1  0
 21 63  1  0
 21 64  1  0
 22 65  1  1
 23 66  1  0
 25 67  1  0
 25 68  1  0
 25 69  1  0
 26 70  1  0
 26 71  1  0
 26 72  1  0
 28 73  1  0
 28 74  1  0
 28 75  1  0
 29 76  1  0
 29 77  1  0
 30 78  1  0
 30 79  1  0
 32 80  1  0
 32 81  1  0
 32 82  1  0
M  END
>  <meeko>  (2) 
{"is_sidechain": [false], "intermolecular_energy": 2.731, "internal_energy": -0.839}

$$$$
EPH_relaxed_0001_pdb2pqr_Repair_84_r2_0001_out
     RDKit          3D

 82 86  0  0  0  0  0  0  0  0999 V2000
    0.4050   18.4620   -0.0490 C   0  0  0  0  0  0  0  0  0  0  0  0
    1.4890   17.4000   -0.2500 C   0  0  2  0  0  0  0  0  0  0  0  0
    2.7140   17.9550   -1.0040 C   0  0  0  0  0  0  0  0  0  0  0  0
    3.9480   18.1450   -0.1190 C   0  0  0  0  0  0  0  0  0  0  0  0
    3.5780   18.6190    1.2540 C   0  0  2  0  0  0  0  0  0  0  0  0
    3.8270   20.0100    1.4950 O   0  0  0  0  0  0  0  0  0  0  0  0
    4.5940   19.0830    2.2810 C   0  0  0  0  0  0  0  0  0  0  0  0
    6.0600   19.0960    1.9790 C   0  0  0  0  0  0  0  0  0  0  0  0
    4.2110   19.0590    3.7280 C   0  0  0  0  0  0  0  0  0  0  0  0
    0.9130   16.2050   -1.0000 C   0  0  1  0  0  0  0  0  0  0  0  0
    0.7610   16.4710   -2.5210 C   0  0  0  0  0  0  0  0  0  0  0  0
    1.0500   15.1290   -3.2410 C   0  0  0  0  0  0  0  0  0  0  0  0
    1.0290   14.0690   -2.1140 C   0  0  1  0  0  0  0  0  0  0  0  0
   -0.4830   13.7630   -1.8790 C   0  0  0  0  0  0  0  0  0  0  0  0
    1.8490   12.7640   -2.3780 C   0  0  2  0  0  0  0  0  0  0  0  0
    1.3680   11.9220   -3.5730 C   0  0  0  0  0  0  0  0  0  0  0  0
    0.3470   10.8820   -3.2510 C   0  0  0  0  0  0  0  0  0  0  0  0
    0.0450   10.4390   -2.0160 C   0  0  0  0  0  0  0  0  0  0  0  0
    0.8290   10.9250   -0.7910 C   0  0  1  0  0  0  0  0  0  0  0  0
    1.2050    9.7110    0.0990 C   0  0  0  0  0  0  0  0  0  0  0  0
   -0.0070    8.8670    0.4800 C   0  0  0  0  0  0  0  0  0  0  0  0
   -0.7270    8.3540   -0.7650 C   0  0  2  0  0  0  0  0  0  0  0  0
    0.1270    7.4270   -1.4420 O   0  0  0  0  0  0  0  0  0  0  0  0
   -1.1460    9.4880   -1.7420 C   0  0  0  0  0  0  0  0  0  0  0  0
   -2.2950   10.3160   -1.1150 C   0  0  0  0  0  0  0  0  0  0  0  0
   -1.7340    8.8260   -3.0170 C   0  0  0  0  0  0  0  0  0  0  0  0
    2.0720   11.8680   -1.0930 C   0  0  1  0  0  0  0  0  0  0  0  0
    3.3410   11.0050   -1.3670 C   0  0  0  0  0  0  0  0  0  0  0  0
    2.3890   12.7280    0.1880 C   0  0  0  0  0  0  0  0  0  0  0  0
    1.6350   14.0640    0.3320 C   0  0  0  0  0  0  0  0  0  0  0  0
    1.7200   14.8830   -0.9600 C   0  0  2  0  0  0  0  0  0  0  0  0
    3.2280   15.2250   -1.2110 C   0  0  0  0  0  0  0  0  0  0  0  0
    0.2426   18.6211    1.0273 H   0  0  0  0  0  0  0  0  0  0  0  0
    0.7253   19.4056   -0.5149 H   0  0  0  0  0  0  0  0  0  0  0  0
   -0.5318   18.1225   -0.5149 H   0  0  0  0  0  0  0  0  0  0  0  0
    1.8309   17.0839    0.7466 H   0  0  0  0  0  0  0  0  0  0  0  0
    2.9709   17.2543   -1.8121 H   0  0  0  0  0  0  0  0  0  0  0  0
    2.4345   18.9491   -1.3829 H   0  0  0  0  0  0  0  0  0  0  0  0
    4.4770   17.1843   -0.0339 H   0  0  0  0  0  0  0  0  0  0  0  0
    4.5892   18.9083   -0.5840 H   0  0  0  0  0  0  0  0  0  0  0  0
    2.7534   17.8929    1.3077 H   0  0  0  0  0  0  0  0  0  0  0  0
    6.6283   19.1010    2.9208 H   0  0  0  0  0  0  0  0  0  0  0  0
    6.3225   18.2001    1.3971 H   0  0  0  0  0  0  0  0  0  0  0  0
    6.3065   19.9964    1.3971 H   0  0  0  0  0  0  0  0  0  0  0  0
    5.1177   19.1158    4.3483 H   0  0  0  0  0  0  0  0  0  0  0  0
    3.5608   19.9182    3.9495 H   0  0  0  0  0  0  0  0  0  0  0  0
    3.6731   18.1254    3.9495 H   0  0  0  0  0  0  0  0  0  0  0  0
   -0.0339   16.0840   -0.4534 H   0  0  0  0  0  0  0  0  0  0  0  0
   -0.2613   16.8091   -2.7461 H   0  0  0  0  0  0  0  0  0  0  0  0
    1.4548   17.2562   -2.8558 H   0  0  0  0  0  0  0  0  0  0  0  0
    0.2733   14.9150   -3.9899 H   0  0  0  0  0  0  0  0  0  0  0  0
    2.0076   15.1437   -3.7821 H   0  0  0  0  0  0  0  0  0  0  0  0
   -0.6852   13.7221   -0.7985 H   0  0  0  0  0  0  0  0  0  0  0  0
   -1.0930   14.5559   -2.3364 H   0  0  0  0  0  0  0  0  0  0  0  0
   -0.7367   12.7953   -2.3364 H   0  0  0  0  0  0  0  0  0  0  0  0
    2.8342   13.1586   -2.6673 H   0  0  0  0  0  0  0  0  0  0  0  0
    0.9337   12.6056   -4.3174 H   0  0  0  0  0  0  0  0  0  0  0  0
    2.2520   11.3778   -3.9370 H   0  0  0  0  0  0  0  0  0  0  0  0
   -0.2052   10.4403   -4.0936 H   0  0  0  0  0  0  0  0  0  0  0  0
    0.1503   11.5941   -0.2418 H   0  0  0  0  0  0  0  0  0  0  0  0
    1.9168    9.0778   -0.4509 H   0  0  0  0  0  0  0  0  0  0  0  0
    1.6449   10.1020    1.0283 H   0  0  0  0  0  0  0  0  0  0  0  0
    0.3265    8.0091    1.0823 H   0  0  0  0  0  0  0  0  0  0  0  0
   -0.7041    9.4931    1.0561 H   0  0  0  0  0  0  0  0  0  0  0  0
   -1.6561    7.8683   -0.4319 H   0  0  0  0  0  0  0  0  0  0  0  0
   -0.4090    6.6510   -1.6780 H   0  0  0  0  0  0  0  0  0  0  0  0
   -2.2264   10.2666   -0.0183 H   0  0  0  0  0  0  0  0  0  0  0  0
   -2.2122   11.3634   -1.4407 H   0  0  0  0  0  0  0  0  0  0  0  0
   -3.2624    9.9061   -1.4407 H   0  0  0  0  0  0  0  0  0  0  0  0
   -2.4386    8.0328   -2.7266 H   0  0  0  0  0  0  0  0  0  0  0  0
   -2.2616    9.5845   -3.6139 H   0  0  0  0  0  0  0  0  0  0  0  0
   -0.9185    8.3916   -3.6139 H   0  0  0  0  0  0  0  0  0  0  0  0
    3.7902   10.6995   -0.4105 H   0  0  0  0  0  0  0  0  0  0  0  0
    3.0590   10.1106   -1.9419 H   0  0  0  0  0  0  0  0  0  0  0  0
    4.0692   11.5959   -1.9419 H   0  0  0  0  0  0  0  0  0  0  0  0
    2.1493   12.1140    1.0687 H   0  0  0  0  0  0  0  0  0  0  0  0
    3.4494   13.0047    0.0937 H   0  0  0  0  0  0  0  0  0  0  0  0
    0.5785   13.8584    0.5590 H   0  0  0  0  0  0  0  0  0  0  0  0
    2.0978   14.6423    1.1453 H   0  0  0  0  0  0  0  0  0  0  0  0
    3.7430   15.3418   -0.2461 H   0  0  0  0  0  0  0  0  0  0  0  0
    3.6986   14.4108   -1.7816 H   0  0  0  0  0  0  0  0  0  0  0  0
    3.3013   16.1626   -1.7816 H   0  0  0  0  0  0  0  0  0  0  0  0
  1  2  1  0
  2  3  1  0
  3  4  1  0
  4  5  1  0
  5  6  1  0
  6  7  1  0
  7  8  1  0
  7  9  1  0
  2 10  1  0
 10 11  1  0
 11 12  1  0
 12 13  1  0
 13 14  1  1
 13 15  1  0
 15 16  1  0
 16 17  1  0
 17 18  2  0
 18 19  1  0
 19 20  1  0
 20 21  1  0
 21 22  1  0
 22 23  1  0
 22 24  1  0
 24 25  1  0
 24 26  1  0
 19 27  1  0
 27 28  1  6
 27 29  1  0
 29 30  1  0
 30 31  1  0
 31 32  1  6
  7  5  1  0
 31 10  1  0
 31 13  1  0
 27 15  1  0
 24 18  1  0
  1 33  1  0
  1 34  1  0
  1 35  1  0
  2 36  1  1
  3 37  1  0
  3 38  1  0
  4 39  1  0
  4 40  1  0
  5 41  1  1
  8 42  1  0
  8 43  1  0
  8 44  1  0
  9 45  1  0
  9 46  1  0
  9 47  1  0
 10 48  1  1
 11 49  1  0
 11 50  1  0
 12 51  1  0
 12 52  1  0
 14 53  1  0
 14 54  1  0
 14 55  1  0
 15 56  1  6
 16 57  1  0
 16 58  1  0
 17 59  1  0
 19 60  1  1
 20 61  1  0
 20 62  1  0
 21 63  1  0
 21 64  1  0
 22 65  1  1
 23 66  1  0
 25 67  1  0
 25 68  1  0
 25 69  1  0
 26 70  1  0
 26 71  1  0
 26 72  1  0
 28 73  1  0
 28 74  1  0
 28 75  1  0
 29 76  1  0
 29 77  1  0
 30 78  1  0
 30 79  1  0
 32 80  1  0
 32 81  1  0
 32 82  1  0
M  END
>  <meeko>  (3) 
{"is_sidechain": [false], "intermolecular_energy": 2.731, "internal_energy": -0.839}

$$$$
EPH_relaxed_0001_pdb2pqr_Repair_84_r2_0001_out
     RDKit          3D

 82 86  0  0  0  0  0  0  0  0999 V2000
    2.3440   18.0700   -2.6540 C   0  0  0  0  0  0  0  0  0  0  0  0
    1.0410   17.6730   -1.9540 C   0  0  2  0  0  0  0  0  0  0  0  0
    1.1650   17.7340   -0.4190 C   0  0  0  0  0  0  0  0  0  0  0  0
    0.8220   19.1040    0.1720 C   0  0  0  0  0  0  0  0  0  0  0  0
   -0.6240   19.1980    0.5530 C   0  0  2  0  0  0  0  0  0  0  0  0
   -1.4810   18.2620   -0.1150 O   0  0  0  0  0  0  0  0  0  0  0  0
   -1.7130   19.6510   -0.4010 C   0  0  0  0  0  0  0  0  0  0  0  0
   -1.4010   20.0420   -1.8120 C   0  0  0  0  0  0  0  0  0  0  0  0
   -2.9920   20.1790    0.1710 C   0  0  0  0  0  0  0  0  0  0  0  0
    0.6250   16.2730   -2.3880 C   0  0  1  0  0  0  0  0  0  0  0  0
    0.7570   16.0570   -3.9190 C   0  0  0  0  0  0  0  0  0  0  0  0
    1.1850   14.5820   -4.1280 C   0  0  0  0  0  0  0  0  0  0  0  0
    0.9640   13.9130   -2.7510 C   0  0  1  0  0  0  0  0  0  0  0  0
   -0.5630   13.5940   -2.7010 C   0  0  0  0  0  0  0  0  0  0  0  0
    1.8290   12.6450   -2.4520 C   0  0  2  0  0  0  0  0  0  0  0  0
    1.5860   11.4530   -3.3940 C   0  0  0  0  0  0  0  0  0  0  0  0
    0.5320   10.4940   -2.9500 C   0  0  0  0  0  0  0  0  0  0  0  0
    0.0080   10.4250   -1.7110 C   0  0  0  0  0  0  0  0  0  0  0  0
    0.5470   11.3080   -0.5780 C   0  0  1  0  0  0  0  0  0  0  0  0
    0.7610   10.4460    0.6930 C   0  0  0  0  0  0  0  0  0  0  0  0
   -0.4940    9.6790    1.0980 C   0  0  0  0  0  0  0  0  0  0  0  0
   -0.9650    8.7690   -0.0330 C   0  0  2  0  0  0  0  0  0  0  0  0
    0.0070    7.7380   -0.2310 O   0  0  0  0  0  0  0  0  0  0  0  0
   -1.2050    9.5250   -1.3690 C   0  0  0  0  0  0  0  0  0  0  0  0
   -2.4570   10.4270   -1.2400 C   0  0  0  0  0  0  0  0  0  0  0  0
   -1.5390    8.4730   -2.4610 C   0  0  0  0  0  0  0  0  0  0  0  0
    1.8170   12.1950   -0.9350 C   0  0  1  0  0  0  0  0  0  0  0  0
    3.1220   11.3740   -0.7040 C   0  0  0  0  0  0  0  0  0  0  0  0
    1.8820   13.4200    0.0530 C   0  0  0  0  0  0  0  0  0  0  0  0
    1.1040   14.6850   -0.3570 C   0  0  0  0  0  0  0  0  0  0  0  0
    1.4210   15.0800   -1.8020 C   0  0  2  0  0  0  0  0  0  0  0  0
    2.9470   15.4280   -1.8790 C   0  0  0  0  0  0  0  0  0  0  0  0
    3.1094   18.3032   -1.8992 H   0  0  0  0  0  0  0  0  0  0  0  0
    2.6910   17.2368   -3.2828 H   0  0  0  0  0  0  0  0  0  0  0  0
    2.1675   18.9551   -3.2828 H   0  0  0  0  0  0  0  0  0  0  0  0
    0.2702   18.3991   -2.2515 H   0  0  0  0  0  0  0  0  0  0  0  0
    0.4826   16.9880    0.0145 H   0  0  0  0  0  0  0  0  0  0  0  0
    2.2180   17.5323   -0.1732 H   0  0  0  0  0  0  0  0  0  0  0  0
    1.4381   19.2698    1.0681 H   0  0  0  0  0  0  0  0  0  0  0  0
    1.0248   19.8676   -0.5933 H   0  0  0  0  0  0  0  0  0  0  0  0
   -0.3591   19.5132    1.5730 H   0  0  0  0  0  0  0  0  0  0  0  0
   -0.7149   20.9018   -1.8111 H   0  0  0  0  0  0  0  0  0  0  0  0
   -0.9274   19.1956   -2.3309 H   0  0  0  0  0  0  0  0  0  0  0  0
   -2.3315   20.3159   -2.3309 H   0  0  0  0  0  0  0  0  0  0  0  0
   -2.9390   20.1571    1.2695 H   0  0  0  0  0  0  0  0  0  0  0  0
   -3.1456   21.2141   -0.1681 H   0  0  0  0  0  0  0  0  0  0  0  0
   -3.8310   19.5537   -0.1681 H   0  0  0  0  0  0  0  0  0  0  0  0
   -0.4062   16.2616   -2.0054 H   0  0  0  0  0  0  0  0  0  0  0  0
   -0.2080   16.2448   -4.4125 H   0  0  0  0  0  0  0  0  0  0  0  0
    1.4953   16.7474   -4.3528 H   0  0  0  0  0  0  0  0  0  0  0  0
    0.5622   14.1022   -4.8973 H   0  0  0  0  0  0  0  0  0  0  0  0
    2.2261   14.4944   -4.4722 H   0  0  0  0  0  0  0  0  0  0  0  0
   -0.8892   13.5259   -1.6527 H   0  0  0  0  0  0  0  0  0  0  0  0
   -1.1217   14.3948   -3.2075 H   0  0  0  0  0  0  0  0  0  0  0  0
   -0.7543   12.6365   -3.2075 H   0  0  0  0  0  0  0  0  0  0  0  0
    2.8477   12.9969   -2.6720 H   0  0  0  0  0  0  0  0  0  0  0  0
    1.2916   11.8507   -4.3764 H   0  0  0  0  0  0  0  0  0  0  0  0
    2.5269   10.8836   -3.4131 H   0  0  0  0  0  0  0  0  0  0  0  0
    0.1508    9.7833   -3.6980 H   0  0  0  0  0  0  0  0  0  0  0  0
   -0.2272   12.0661   -0.3885 H   0  0  0  0  0  0  0  0  0  0  0  0
    1.5677    9.7242    0.4978 H   0  0  0  0  0  0  0  0  0  0  0  0
    1.0174   11.1263    1.5185 H   0  0  0  0  0  0  0  0  0  0  0  0
   -0.2714    9.0664    1.9841 H   0  0  0  0  0  0  0  0  0  0  0  0
   -1.2914   10.4030    1.3217 H   0  0  0  0  0  0  0  0  0  0  0  0
   -1.9357    8.3471    0.2665 H   0  0  0  0  0  0  0  0  0  0  0  0
   -0.0320    7.4720   -1.1660 H   0  0  0  0  0  0  0  0  0  0  0  0
   -2.6834   10.5901   -0.1760 H   0  0  0  0  0  0  0  0  0  0  0  0
   -2.2635   11.3946   -1.7262 H   0  0  0  0  0  0  0  0  0  0  0  0
   -3.3135    9.9371   -1.7262 H   0  0  0  0  0  0  0  0  0  0  0  0
   -1.8386    7.5294   -1.9816 H   0  0  0  0  0  0  0  0  0  0  0  0
   -2.3636    8.8439   -3.0875 H   0  0  0  0  0  0  0  0  0  0  0  0
   -0.6515    8.3004   -3.0875 H   0  0  0  0  0  0  0  0  0  0  0  0
    3.2989   11.2627    0.3760 H   0  0  0  0  0  0  0  0  0  0  0  0
    3.0157   10.3798   -1.1625 H   0  0  0  0  0  0  0  0  0  0  0  0
    3.9722   11.9002   -1.1625 H   0  0  0  0  0  0  0  0  0  0  0  0
    1.4866   13.0861    1.0236 H   0  0  0  0  0  0  0  0  0  0  0  0
    2.9392   13.7237    0.0658 H   0  0  0  0  0  0  0  0  0  0  0  0
    0.0254   14.4892   -0.2660 H   0  0  0  0  0  0  0  0  0  0  0  0
    1.4031   15.5105    0.3056 H   0  0  0  0  0  0  0  0  0  0  0  0
    3.3537   15.5208   -0.8612 H   0  0  0  0  0  0  0  0  0  0  0  0
    3.4789   14.6281   -2.4149 H   0  0  0  0  0  0  0  0  0  0  0  0
    3.0795   16.3794   -2.4149 H   0  0  0  0  0  0  0  0  0  0  0  0
  1  2  1  0
  2  3  1  0
  3  4  1  0
  4  5  1  0
  5  6  1  0
  6  7  1  0
  7  8  1  0
  7  9  1  0
  2 10  1  0
 10 11  1  0
 11 12  1  0
 12 13  1  0
 13 14  1  1
 13 15  1  0
 15 16  1  0
 16 17  1  0
 17 18  2  0
 18 19  1  0
 19 20  1  0
 20 21  1  0
 21 22  1  0
 22 23  1  0
 22 24  1  0
 24 25  1  0
 24 26  1  0
 19 27  1  0
 27 28  1  6
 27 29  1  0
 29 30  1  0
 30 31  1  0
 31 32  1  1
  7  5  1  0
 31 10  1  0
 31 13  1  0
 27 15  1  0
 24 18  1  0
  1 33  1  0
  1 34  1  0
  1 35  1  0
  2 36  1  6
  3 37  1  0
  3 38  1  0
  4 39  1  0
  4 40  1  0
  5 41  1  1
  8 42  1  0
  8 43  1  0
  8 44  1  0
  9 45  1  0
  9 46  1  0
  9 47  1  0
 10 48  1  1
 11 49  1  0
 11 50  1  0
 12 51  1  0
 12 52  1  0
 14 53  1  0
 14 54  1  0
 14 55  1  0
 15 56  1  6
 16 57  1  0
 16 58  1  0
 17 59  1  0
 19 60  1  1
 20 61  1  0
 20 62  1  0
 21 63  1  0
 21 64  1  0
 22 65  1  1
 23 66  1  0
 25 67  1  0
 25 68  1  0
 25 69  1  0
 26 70  1  0
 26 71  1  0
 26 72  1  0
 28 73  1  0
 28 74  1  0
 28 75  1  0
 29 76  1  0
 29 77  1  0
 30 78  1  0
 30 79  1  0
 32 80  1  0
 32 81  1  0
 32 82  1  0
M  END
>  <meeko>  (4) 
{"is_sidechain": [false], "intermolecular_energy": 2.731, "internal_energy": -0.839}

$$$$
EPH_relaxed_0001_pdb2pqr_Repair_84_r2_0001_out
     RDKit          3D

 82 86  0  0  0  0  0  0  0  0999 V2000
    0.4530    8.7950   -2.3560 C   0  0  0  0  0  0  0  0  0  0  0  0
    1.1930    9.9390   -3.0560 C   0  0  2  0  0  0  0  0  0  0  0  0
    2.6930    9.9630   -2.7030 C   0  0  0  0  0  0  0  0  0  0  0  0
    3.5730   10.5780   -3.7940 C   0  0  0  0  0  0  0  0  0  0  0  0
    4.9730   10.8100   -3.3120 C   0  0  2  0  0  0  0  0  0  0  0  0
    5.5750   12.0240   -3.7820 O   0  0  0  0  0  0  0  0  0  0  0  0
    6.1850   10.8010   -4.2260 C   0  0  0  0  0  0  0  0  0  0  0  0
    6.0520   10.5520   -5.6960 C   0  0  0  0  0  0  0  0  0  0  0  0
    7.5320   10.5470   -3.6250 C   0  0  0  0  0  0  0  0  0  0  0  0
    0.5500   11.2720   -2.6930 C   0  0  1  0  0  0  0  0  0  0  0  0
   -0.8260   11.1030   -1.9960 C   0  0  0  0  0  0  0  0  0  0  0  0
   -0.9440   12.2460   -0.9550 C   0  0  0  0  0  0  0  0  0  0  0  0
    0.2030   13.2190   -1.3130 C   0  0  1  0  0  0  0  0  0  0  0  0
   -0.3500   14.0720   -2.4980 C   0  0  0  0  0  0  0  0  0  0  0  0
    0.7320   14.1220   -0.1510 C   0  0  2  0  0  0  0  0  0  0  0  0
   -0.3000   15.0980    0.4390 C   0  0  0  0  0  0  0  0  0  0  0  0
   -0.3480   16.4430   -0.2070 C   0  0  0  0  0  0  0  0  0  0  0  0
    0.5920   16.9510   -1.0250 C   0  0  0  0  0  0  0  0  0  0  0  0
    1.8950   16.1890   -1.2980 C   0  0  1  0  0  0  0  0  0  0  0  0
    3.0980   17.1600   -1.1720 C   0  0  0  0  0  0  0  0  0  0  0  0
    2.9490   18.3940   -2.0560 C   0  0  0  0  0  0  0  0  0  0  0  0
    1.6710   19.1570   -1.7150 C   0  0  2  0  0  0  0  0  0  0  0  0
    1.7970   19.7010   -0.3980 O   0  0  0  0  0  0  0  0  0  0  0  0
    0.3920   18.2780   -1.7980 C   0  0  0  0  0  0  0  0  0  0  0  0
    0.0890   17.9380   -3.2780 C   0  0  0  0  0  0  0  0  0  0  0  0
   -0.8050   19.1290   -1.2950 C   0  0  0  0  0  0  0  0  0  0  0  0
    2.1010   14.8500   -0.4670 C   0  0  1  0  0  0  0  0  0  0  0  0
    2.7620   15.1730    0.9080 C   0  0  0  0  0  0  0  0  0  0  0  0
    3.1110   13.9180   -1.2370 C   0  0  0  0  0  0  0  0  0  0  0  0
    2.5130   12.9640   -2.2880 C   0  0  0  0  0  0  0  0  0  0  0  0
    1.3230   12.1900   -1.7130 C   0  0  2  0  0  0  0  0  0  0  0  0
    1.8530   11.3070   -0.5330 C   0  0  0  0  0  0  0  0  0  0  0  0
    0.5333    8.9191   -1.2660 H   0  0  0  0  0  0  0  0  0  0  0  0
   -0.6070    8.8100   -2.6497 H   0  0  0  0  0  0  0  0  0  0  0  0
    0.9013    7.8344   -2.6497 H   0  0  0  0  0  0  0  0  0  0  0  0
    1.1130    9.7707   -4.1401 H   0  0  0  0  0  0  0  0  0  0  0  0
    2.8233   10.5485   -1.7809 H   0  0  0  0  0  0  0  0  0  0  0  0
    3.0119    8.9169   -2.5851 H   0  0  0  0  0  0  0  0  0  0  0  0
    3.6014    9.8953   -4.6560 H   0  0  0  0  0  0  0  0  0  0  0  0
    3.1416   11.5501   -4.0749 H   0  0  0  0  0  0  0  0  0  0  0  0
    4.7583   10.2916   -2.3659 H   0  0  0  0  0  0  0  0  0  0  0  0
    5.5396    9.5926   -5.8605 H   0  0  0  0  0  0  0  0  0  0  0  0
    5.4671   11.3633   -6.1539 H   0  0  0  0  0  0  0  0  0  0  0  0
    7.0516   10.5170   -6.1539 H   0  0  0  0  0  0  0  0  0  0  0  0
    7.4528   10.5619   -2.5280 H   0  0  0  0  0  0  0  0  0  0  0  0
    7.9002    9.5636   -3.9527 H   0  0  0  0  0  0  0  0  0  0  0  0
    8.2330   11.3288   -3.9527 H   0  0  0  0  0  0  0  0  0  0  0  0
    0.5097   11.7345   -3.6902 H   0  0  0  0  0  0  0  0  0  0  0  0
   -1.6369   11.1789   -2.7354 H   0  0  0  0  0  0  0  0  0  0  0  0
   -0.9051   10.1184   -1.5119 H   0  0  0  0  0  0  0  0  0  0  0  0
   -1.9193   12.7479   -1.0382 H   0  0  0  0  0  0  0  0  0  0  0  0
   -0.8715   11.8778    0.0790 H   0  0  0  0  0  0  0  0  0  0  0  0
   -0.9081   14.9328   -2.1010 H   0  0  0  0  0  0  0  0  0  0  0  0
    0.4879   14.4307   -3.1139 H   0  0  0  0  0  0  0  0  0  0  0  0
   -1.0194   13.4535   -3.1139 H   0  0  0  0  0  0  0  0  0  0  0  0
    0.9365   13.3881    0.6425 H   0  0  0  0  0  0  0  0  0  0  0  0
   -1.2952   14.6392    0.3432 H   0  0  0  0  0  0  0  0  0  0  0  0
    0.0067   15.2718    1.4810 H   0  0  0  0  0  0  0  0  0  0  0  0
   -1.2257   17.0718    0.0034 H   0  0  0  0  0  0  0  0  0  0  0  0
    1.8214   15.8187   -2.3312 H   0  0  0  0  0  0  0  0  0  0  0  0
    3.1807   17.4848   -0.1243 H   0  0  0  0  0  0  0  0  0  0  0  0
    3.9983   16.6204   -1.5010 H   0  0  0  0  0  0  0  0  0  0  0  0
    3.8150   19.0545   -1.9015 H   0  0  0  0  0  0  0  0  0  0  0  0
    2.8956   18.0701   -3.1059 H   0  0  0  0  0  0  0  0  0  0  0  0
    1.5523   19.9538   -2.4640 H   0  0  0  0  0  0  0  0  0  0  0  0
    1.2210   19.1830    0.1900 H   0  0  0  0  0  0  0  0  0  0  0  0
   -0.6422   17.1175   -3.3234 H   0  0  0  0  0  0  0  0  0  0  0  0
   -0.3235   18.8250   -3.7810 H   0  0  0  0  0  0  0  0  0  0  0  0
    1.0175   17.6299   -3.7810 H   0  0  0  0  0  0  0  0  0  0  0  0
   -0.8138   19.1353   -0.1951 H   0  0  0  0  0  0  0  0  0  0  0  0
   -0.7042   20.1594   -1.6668 H   0  0  0  0  0  0  0  0  0  0  0  0
   -1.7451   18.6953   -1.6668 H   0  0  0  0  0  0  0  0  0  0  0  0
    2.0958   14.8475    1.7206 H   0  0  0  0  0  0  0  0  0  0  0  0
    3.7225   14.6427    0.9867 H   0  0  0  0  0  0  0  0  0  0  0  0
    2.9339   16.2566    0.9867 H   0  0  0  0  0  0  0  0  0  0  0  0
    3.8365   14.5661   -1.7505 H   0  0  0  0  0  0  0  0  0  0  0  0
    3.5427   13.2627   -0.4662 H   0  0  0  0  0  0  0  0  0  0  0  0
    2.1755   13.5504   -3.1553 H   0  0  0  0  0  0  0  0  0  0  0  0
    3.2878   12.2432   -2.5880 H   0  0  0  0  0  0  0  0  0  0  0  0
    1.5750   11.7702    0.4252 H   0  0  0  0  0  0  0  0  0  0  0  0
    1.4081   10.3031   -0.5977 H   0  0  0  0  0  0  0  0  0  0  0  0
    2.9482   11.2275   -0.5977 H   0  0  0  0  0  0  0  0  0  0  0  0
  1  2  1  0
  2  3  1  0
  3  4  1  0
  4  5  1  0
  5  6  1  0
  6  7  1  0
  7  8  1  0
  7  9  1  0
  2 10  1  0
 10 11  1  0
 11 12  1  0
 12 13  1  0
 13 14  1  6
 13 15  1  0
 15 16  1  0
 16 17  1  0
 17 18  2  0
 18 19  1  0
 19 20  1  0
 20 21  1  0
 21 22  1  0
 22 23  1  0
 22 24  1  0
 24 25  1  0
 24 26  1  0
 19 27  1  0
 27 28  1  1
 27 29  1  0
 29 30  1  0
 30 31  1  0
 31 32  1  1
  7  5  1  0
 31 10  1  0
 31 13  1  0
 27 15  1  0
 24 18  1  0
  1 33  1  0
  1 34  1  0
  1 35  1  0
  2 36  1  6
  3 37  1  0
  3 38  1  0
  4 39  1  0
  4 40  1  0
  5 41  1  1
  8 42  1  0
  8 43  1  0
  8 44  1  0
  9 45  1  0
  9 46  1  0
  9 47  1  0
 10 48  1  6
 11 49  1  0
 11 50  1  0
 12 51  1  0
 12 52  1  0
 14 53  1  0
 14 54  1  0
 14 55  1  0
 15 56  1  1
 16 57  1  0
 16 58  1  0
 17 59  1  0
 19 60  1  6
 20 61  1  0
 20 62  1  0
 21 63  1  0
 21 64  1  0
 22 65  1  6
 23 66  1  0
 25 67  1  0
 25 68  1  0
 25 69  1  0
 26 70  1  0
 26 71  1  0
 26 72  1  0
 28 73  1  0
 28 74  1  0
 28 75  1  0
 29 76  1  0
 29 77  1  0
 30 78  1  0
 30 79  1  0
 32 80  1  0
 32 81  1  0
 32 82  1  0
M  END
>  <meeko>  (5) 
{"is_sidechain": [false], "intermolecular_energy": 2.731, "internal_energy": -0.839}

$$$$
EPH_relaxed_0001_pdb2pqr_Repair_84_r2_0001_out
     RDKit          3D

 82 86  0  0  0  0  0  0  0  0999 V2000
    3.2030   18.3410   -3.7850 C   0  0  0  0  0  0  0  0  0  0  0  0
    2.0850   18.1440   -2.7570 C   0  0  2  0  0  0  0  0  0  0  0  0
    2.0270   19.2970   -1.7340 C   0  0  0  0  0  0  0  0  0  0  0  0
    0.7170   20.0870   -1.7700 C   0  0  0  0  0  0  0  0  0  0  0  0
   -0.3890   19.3590   -1.0680 C   0  0  2  0  0  0  0  0  0  0  0  0
   -1.2440   20.1910   -0.2740 O   0  0  0  0  0  0  0  0  0  0  0  0
   -0.4700   19.2140    0.4410 C   0  0  0  0  0  0  0  0  0  0  0  0
    0.5740   19.8030    1.3380 C   0  0  0  0  0  0  0  0  0  0  0  0
   -1.2860   18.0960    1.0100 C   0  0  0  0  0  0  0  0  0  0  0  0
    2.2720   16.8150   -2.0340 C   0  0  1  0  0  0  0  0  0  0  0  0
    2.6270   16.9960   -0.5340 C   0  0  0  0  0  0  0  0  0  0  0  0
    1.9520   15.8270    0.2290 C   0  0  0  0  0  0  0  0  0  0  0  0
    1.5150   14.8390   -0.8770 C   0  0  1  0  0  0  0  0  0  0  0  0
    2.8050   14.0320   -1.2260 C   0  0  0  0  0  0  0  0  0  0  0  0
    0.3200   13.8940   -0.5280 C   0  0  2  0  0  0  0  0  0  0  0  0
    0.5740   12.9250    0.6400 C   0  0  0  0  0  0  0  0  0  0  0  0
    1.1440   11.5990    0.2560 C   0  0  0  0  0  0  0  0  0  0  0  0
    1.1760   11.0930   -0.9910 C   0  0  0  0  0  0  0  0  0  0  0  0
    0.5120   11.8340   -2.1590 C   0  0  1  0  0  0  0  0  0  0  0  0
   -0.3300   10.8350   -2.9950 C   0  0  0  0  0  0  0  0  0  0  0  0
    0.4820    9.6280   -3.4560 C   0  0  0  0  0  0  0  0  0  0  0  0
    1.0780    8.8840   -2.2630 C   0  0  2  0  0  0  0  0  0  0  0  0
    0.0140    8.3010   -1.5050 O   0  0  0  0  0  0  0  0  0  0  0  0
    1.9390    9.7930   -1.3420 C   0  0  0  0  0  0  0  0  0  0  0  0
    3.2500   10.1800   -2.0710 C   0  0  0  0  0  0  0  0  0  0  0  0
    2.3620    8.9550   -0.1060 C   0  0  0  0  0  0  0  0  0  0  0  0
   -0.3010   13.1450   -1.7760 C   0  0  1  0  0  0  0  0  0  0  0  0
   -1.7640   12.7700   -1.3870 C   0  0  0  0  0  0  0  0  0  0  0  0
   -0.4030   14.0750   -3.0420 C   0  0  0  0  0  0  0  0  0  0  0  0
    0.7510   15.0710   -3.2670 C   0  0  0  0  0  0  0  0  0  0  0  0
    1.0580   15.8540   -1.9870 C   0  0  2  0  0  0  0  0  0  0  0  0
   -0.2150   16.6930   -1.6240 C   0  0  0  0  0  0  0  0  0  0  0  0
    4.1562   18.5090   -3.2624 H   0  0  0  0  0  0  0  0  0  0  0  0
    3.2837   17.4432   -4.4155 H   0  0  0  0  0  0  0  0  0  0  0  0
    2.9720   19.2123   -4.4155 H   0  0  0  0  0  0  0  0  0  0  0  0
    1.1302   18.1389   -3.3032 H   0  0  0  0  0  0  0  0  0  0  0  0
    2.1493   18.8734   -0.7262 H   0  0  0  0  0  0  0  0  0  0  0  0
    2.8326   19.9990   -1.9953 H   0  0  0  0  0  0  0  0  0  0  0  0
    0.8729   21.0584   -1.2780 H   0  0  0  0  0  0  0  0  0  0  0  0
    0.4259   20.2203   -2.8224 H   0  0  0  0  0  0  0  0  0  0  0  0
   -0.4556   18.6248   -1.8844 H   0  0  0  0  0  0  0  0  0  0  0  0
    0.2885   19.6419    2.3880 H   0  0  0  0  0  0  0  0  0  0  0  0
    1.5416   19.3177    1.1425 H   0  0  0  0  0  0  0  0  0  0  0  0
    0.6590   20.8822    1.1425 H   0  0  0  0  0  0  0  0  0  0  0  0
   -1.2535   18.1406    2.1086 H   0  0  0  0  0  0  0  0  0  0  0  0
   -2.3276   18.1923    0.6698 H   0  0  0  0  0  0  0  0  0  0  0  0
   -0.8767   17.1333    0.6698 H   0  0  0  0  0  0  0  0  0  0  0  0
    3.0722   16.3804   -2.6511 H   0  0  0  0  0  0  0  0  0  0  0  0
    3.7176   16.9592   -0.3956 H   0  0  0  0  0  0  0  0  0  0  0  0
    2.2748   17.9683   -0.1591 H   0  0  0  0  0  0  0  0  0  0  0  0
    2.6652   15.3491    0.9167 H   0  0  0  0  0  0  0  0  0  0  0  0
    1.1052   16.1648    0.8445 H   0  0  0  0  0  0  0  0  0  0  0  0
    3.3045   13.7195   -0.2971 H   0  0  0  0  0  0  0  0  0  0  0  0
    2.5334   13.1425   -1.8134 H   0  0  0  0  0  0  0  0  0  0  0  0
    3.4860   14.6654   -1.8134 H   0  0  0  0  0  0  0  0  0  0  0  0
   -0.4423   14.6012   -0.1692 H   0  0  0  0  0  0  0  0  0  0  0  0
    1.2757   13.4080    1.3360 H   0  0  0  0  0  0  0  0  0  0  0  0
   -0.4113   12.7163    1.0822 H   0  0  0  0  0  0  0  0  0  0  0  0
    1.5740   10.9839    1.0602 H   0  0  0  0  0  0  0  0  0  0  0  0
    1.3338   12.2335   -2.7714 H   0  0  0  0  0  0  0  0  0  0  0  0
   -1.1701   10.4806   -2.3797 H   0  0  0  0  0  0  0  0  0  0  0  0
   -0.6811   11.3641   -3.8932 H   0  0  0  0  0  0  0  0  0  0  0  0
   -0.1742    8.9448   -4.0152 H   0  0  0  0  0  0  0  0  0  0  0  0
    1.3039    9.9812   -4.0961 H   0  0  0  0  0  0  0  0  0  0  0  0
    1.7527    8.1111   -2.6598 H   0  0  0  0  0  0  0  0  0  0  0  0
   -0.7230    8.1290   -2.1160 H   0  0  0  0  0  0  0  0  0  0  0  0
    4.0284   10.4098   -1.3285 H   0  0  0  0  0  0  0  0  0  0  0  0
    3.5805    9.3411   -2.7011 H   0  0  0  0  0  0  0  0  0  0  0  0
    3.0720   11.0639   -2.7011 H   0  0  0  0  0  0  0  0  0  0  0  0
    2.0898    9.4943    0.8132 H   0  0  0  0  0  0  0  0  0  0  0  0
    1.8462    7.9837   -0.1276 H   0  0  0  0  0  0  0  0  0  0  0  0
    3.4498    8.7931   -0.1276 H   0  0  0  0  0  0  0  0  0  0  0  0
   -1.8574   12.7461   -0.2912 H   0  0  0  0  0  0  0  0  0  0  0  0
   -2.4563   13.5197   -1.7977 H   0  0  0  0  0  0  0  0  0  0  0  0
   -2.0102   11.7797   -1.7977 H   0  0  0  0  0  0  0  0  0  0  0  0
   -0.4598   13.4258   -3.9282 H   0  0  0  0  0  0  0  0  0  0  0  0
   -1.2924   14.6990   -2.8700 H   0  0  0  0  0  0  0  0  0  0  0  0
    1.6501   14.5164   -3.5738 H   0  0  0  0  0  0  0  0  0  0  0  0
    0.4515   15.7832   -4.0500 H   0  0  0  0  0  0  0  0  0  0  0  0
   -0.3123   16.7571   -0.5302 H   0  0  0  0  0  0  0  0  0  0  0  0
   -0.1189   17.7053   -2.0435 H   0  0  0  0  0  0  0  0  0  0  0  0
   -1.1074   16.2055   -2.0435 H   0  0  0  0  0  0  0  0  0  0  0  0
  1  2  1  0
  2  3  1  0
  3  4  1  0
  4  5  1  0
  5  6  1  0
  6  7  1  0
  7  8  1  0
  7  9  1  0
  2 10  1  0
 10 11  1  0
 11 12  1  0
 12 13  1  0
 13 14  1  6
 13 15  1  0
 15 16  1  0
 16 17  1  0
 17 18  2  0
 18 19  1  0
 19 20  1  0
 20 21  1  0
 21 22  1  0
 22 23  1  0
 22 24  1  0
 24 25  1  0
 24 26  1  0
 19 27  1  0
 27 28  1  1
 27 29  1  0
 29 30  1  0
 30 31  1  0
 31 32  1  1
  7  5  1  0
 31 10  1  0
 31 13  1  0
 27 15  1  0
 24 18  1  0
  1 33  1  0
  1 34  1  0
  1 35  1  0
  2 36  1  6
  3 37  1  0
  3 38  1  0
  4 39  1  0
  4 40  1  0
  5 41  1  6
  8 42  1  0
  8 43  1  0
  8 44  1  0
  9 45  1  0
  9 46  1  0
  9 47  1  0
 10 48  1  6
 11 49  1  0
 11 50  1  0
 12 51  1  0
 12 52  1  0
 14 53  1  0
 14 54  1  0
 14 55  1  0
 15 56  1  1
 16 57  1  0
 16 58  1  0
 17 59  1  0
 19 60  1  6
 20 61  1  0
 20 62  1  0
 21 63  1  0
 21 64  1  0
 22 65  1  6
 23 66  1  0
 25 67  1  0
 25 68  1  0
 25 69  1  0
 26 70  1  0
 26 71  1  0
 26 72  1  0
 28 73  1  0
 28 74  1  0
 28 75  1  0
 29 76  1  0
 29 77  1  0
 30 78  1  0
 30 79  1  0
 32 80  1  0
 32 81  1  0
 32 82  1  0
M  END
>  <meeko>  (6) 
{"is_sidechain": [false], "intermolecular_energy": 2.731, "internal_energy": -0.839}

$$$$
EPH_relaxed_0001_pdb2pqr_Repair_84_r2_0001_out
     RDKit          3D

 82 86  0  0  0  0  0  0  0  0999 V2000
   -5.0290    6.1880   -2.4560 C   0  0  0  0  0  0  0  0  0  0  0  0
   -5.5000    7.6100   -2.1390 C   0  0  2  0  0  0  0  0  0  0  0  0
   -5.3020    7.9700   -0.6530 C   0  0  0  0  0  0  0  0  0  0  0  0
   -4.2200    9.0260   -0.4140 C   0  0  0  0  0  0  0  0  0  0  0  0
   -2.8680    8.5410   -0.8420 C   0  0  2  0  0  0  0  0  0  0  0  0
   -1.8120    8.8130    0.0900 O   0  0  0  0  0  0  0  0  0  0  0  0
   -1.7160    9.4680   -1.1850 C   0  0  0  0  0  0  0  0  0  0  0  0
   -1.8660   10.9560   -1.1180 C   0  0  0  0  0  0  0  0  0  0  0  0
   -0.6110    8.9460   -2.0500 C   0  0  0  0  0  0  0  0  0  0  0  0
   -6.9670    7.7690   -2.5220 C   0  0  1  0  0  0  0  0  0  0  0  0
   -7.3210    7.0390   -3.8450 C   0  0  0  0  0  0  0  0  0  0  0  0
   -8.7690    6.5070   -3.6880 C   0  0  0  0  0  0  0  0  0  0  0  0
   -9.3140    7.2240   -2.4310 C   0  0  1  0  0  0  0  0  0  0  0  0
   -9.7530    8.6350   -2.9330 C   0  0  0  0  0  0  0  0  0  0  0  0
  -10.4690    6.4980   -1.6670 C   0  0  2  0  0  0  0  0  0  0  0  0
  -11.7650    6.3060   -2.4740 C   0  0  0  0  0  0  0  0  0  0  0  0
  -12.7600    7.4120   -2.3540 C   0  0  0  0  0  0  0  0  0  0  0  0
  -12.7490    8.3760   -1.4150 C   0  0  0  0  0  0  0  0  0  0  0  0
  -11.7160    8.3590   -0.2810 C   0  0  1  0  0  0  0  0  0  0  0  0
  -12.4270    8.6270    1.0720 C   0  0  0  0  0  0  0  0  0  0  0  0
  -13.2520    9.9100    1.0540 C   0  0  0  0  0  0  0  0  0  0  0  0
  -14.3070    9.8650   -0.0490 C   0  0  2  0  0  0  0  0  0  0  0  0
  -15.2670    8.8540    0.2720 O   0  0  0  0  0  0  0  0  0  0  0  0
  -13.7090    9.5900   -1.4570 C   0  0  0  0  0  0  0  0  0  0  0  0
  -12.9070   10.8270   -1.9320 C   0  0  0  0  0  0  0  0  0  0  0  0
  -14.8890    9.4290   -2.4530 C   0  0  0  0  0  0  0  0  0  0  0  0
  -10.7650    7.0860   -0.2280 C   0  0  1  0  0  0  0  0  0  0  0  0
  -11.4480    5.9460    0.5870 C   0  0  0  0  0  0  0  0  0  0  0  0
   -9.4480    7.4600    0.5480 C   0  0  0  0  0  0  0  0  0  0  0  0
   -8.2990    8.0640   -0.2830 C   0  0  0  0  0  0  0  0  0  0  0  0
   -8.0240    7.2210   -1.5320 C   0  0  2  0  0  0  0  0  0  0  0  0
   -7.5590    5.8020   -1.0580 C   0  0  0  0  0  0  0  0  0  0  0  0
   -4.8487    5.6437   -1.5173 H   0  0  0  0  0  0  0  0  0  0  0  0
   -5.8026    5.6670   -3.0392 H   0  0  0  0  0  0  0  0  0  0  0  0
   -4.0974    6.2318   -3.0392 H   0  0  0  0  0  0  0  0  0  0  0  0
   -4.8835    8.3022   -2.7313 H   0  0  0  0  0  0  0  0  0  0  0  0
   -6.2546    8.3536   -0.2588 H   0  0  0  0  0  0  0  0  0  0  0  0
   -4.9745    7.0530   -0.1412 H   0  0  0  0  0  0  0  0  0  0  0  0
   -4.4720    9.9306   -0.9868 H   0  0  0  0  0  0  0  0  0  0  0  0
   -4.1820    9.2401    0.6643 H   0  0  0  0  0  0  0  0  0  0  0  0
   -3.3162    7.6915   -1.3781 H   0  0  0  0  0  0  0  0  0  0  0  0
   -1.8981   11.2743   -0.0655 H   0  0  0  0  0  0  0  0  0  0  0  0
   -1.0115   11.4336   -1.6196 H   0  0  0  0  0  0  0  0  0  0  0  0
   -2.7987   11.2535   -1.6196 H   0  0  0  0  0  0  0  0  0  0  0  0
    0.2014    8.5622   -1.4153 H   0  0  0  0  0  0  0  0  0  0  0  0
   -0.9949    8.1340   -2.6851 H   0  0  0  0  0  0  0  0  0  0  0  0
   -0.2276    9.7582   -2.6851 H   0  0  0  0  0  0  0  0  0  0  0  0
   -7.0279    8.8664   -2.5670 H   0  0  0  0  0  0  0  0  0  0  0  0
   -7.2644    7.7396   -4.6912 H   0  0  0  0  0  0  0  0  0  0  0  0
   -6.6173    6.2171   -4.0434 H   0  0  0  0  0  0  0  0  0  0  0  0
   -9.3734    6.7595   -4.5717 H   0  0  0  0  0  0  0  0  0  0  0  0
   -8.8028    5.4118   -3.5910 H   0  0  0  0  0  0  0  0  0  0  0  0
   -9.9552    9.2850   -2.0690 H   0  0  0  0  0  0  0  0  0  0  0  0
   -8.9490    9.0741   -3.5419 H   0  0  0  0  0  0  0  0  0  0  0  0
  -10.6642    8.5404   -3.5419 H   0  0  0  0  0  0  0  0  0  0  0  0
  -10.0566    5.4889   -1.5198 H   0  0  0  0  0  0  0  0  0  0  0  0
  -11.4931    6.2069   -3.5353 H   0  0  0  0  0  0  0  0  0  0  0  0
  -12.2525    5.4115   -2.0590 H   0  0  0  0  0  0  0  0  0  0  0  0
  -13.5713    7.4417   -3.0962 H   0  0  0  0  0  0  0  0  0  0  0  0
  -11.0110    9.1744   -0.5004 H   0  0  0  0  0  0  0  0  0  0  0  0
  -13.0947    7.7813    1.2933 H   0  0  0  0  0  0  0  0  0  0  0  0
  -11.6493    8.7403    1.8417 H   0  0  0  0  0  0  0  0  0  0  0  0
  -13.7525   10.0298    2.0262 H   0  0  0  0  0  0  0  0  0  0  0  0
  -12.5783   10.7579    0.8611 H   0  0  0  0  0  0  0  0  0  0  0  0
  -14.7775   10.8582   -0.0965 H   0  0  0  0  0  0  0  0  0  0  0  0
  -14.8100    8.1680    0.7880 H   0  0  0  0  0  0  0  0  0  0  0  0
  -12.5441   11.3867   -1.0573 H   0  0  0  0  0  0  0  0  0  0  0  0
  -12.0500   10.4978   -2.5380 H   0  0  0  0  0  0  0  0  0  0  0  0
  -13.5573   11.4750   -2.5380 H   0  0  0  0  0  0  0  0  0  0  0  0
  -15.8269    9.3010   -1.8927 H   0  0  0  0  0  0  0  0  0  0  0  0
  -14.9595   10.3258   -3.0860 H   0  0  0  0  0  0  0  0  0  0  0  0
  -14.7167    8.5460   -3.0860 H   0  0  0  0  0  0  0  0  0  0  0  0
  -11.3300    6.1430    1.6628 H   0  0  0  0  0  0  0  0  0  0  0  0
  -12.5184    5.9069    0.3366 H   0  0  0  0  0  0  0  0  0  0  0  0
  -10.9775    4.9837    0.3366 H   0  0  0  0  0  0  0  0  0  0  0  0
   -9.7160    8.1906    1.3255 H   0  0  0  0  0  0  0  0  0  0  0  0
   -9.0569    6.5047    0.9279 H   0  0  0  0  0  0  0  0  0  0  0  0
   -8.5746    9.0836   -0.5905 H   0  0  0  0  0  0  0  0  0  0  0  0
   -7.3898    8.0811    0.3359 H   0  0  0  0  0  0  0  0  0  0  0  0
   -7.5479    5.7681    0.0414 H   0  0  0  0  0  0  0  0  0  0  0  0
   -8.2548    5.0411   -1.4413 H   0  0  0  0  0  0  0  0  0  0  0  0
   -6.5478    5.6005   -1.4413 H   0  0  0  0  0  0  0  0  0  0  0  0
  1  2  1  0
  2  3  1  0
  3  4  1  0
  4  5  1  0
  5  6  1  0
  6  7  1  0
  7  8  1  0
  7  9  1  0
  2 10  1  0
 10 11  1  0
 11 12  1  0
 12 13  1  0
 13 14  1  6
 13 15  1  0
 15 16  1  0
 16 17  1  0
 17 18  2  0
 18 19  1  0
 19 20  1  0
 20 21  1  0
 21 22  1  0
 22 23  1  0
 22 24  1  0
 24 25  1  0
 24 26  1  0
 19 27  1  0
 27 28  1  1
 27 29  1  0
 29 30  1  0
 30 31  1  0
 31 32  1  1
  7  5  1  0
 31 10  1  0
 31 13  1  0
 27 15  1  0
 24 18  1  0
  1 33  1  0
  1 34  1  0
  1 35  1  0
  2 36  1  6
  3 37  1  0
  3 38  1  0
  4 39  1  0
  4 40  1  0
  5 41  1  6
  8 42  1  0
  8 43  1  0
  8 44  1  0
  9 45  1  0
  9 46  1  0
  9 47  1  0
 10 48  1  6
 11 49  1  0
 11 50  1  0
 12 51  1  0
 12 52  1  0
 14 53  1  0
 14 54  1  0
 14 55  1  0
 15 56  1  1
 16 57  1  0
 16 58  1  0
 17 59  1  0
 19 60  1  6
 20 61  1  0
 20 62  1  0
 21 63  1  0
 21 64  1  0
 22 65  1  6
 23 66  1  0
 25 67  1  0
 25 68  1  0
 25 69  1  0
 26 70  1  0
 26 71  1  0
 26 72  1  0
 28 73  1  0
 28 74  1  0
 28 75  1  0
 29 76  1  0
 29 77  1  0
 30 78  1  0
 30 79  1  0
 32 80  1  0
 32 81  1  0
 32 82  1  0
M  END
>  <meeko>  (7) 
{"is_sidechain": [false], "intermolecular_energy": 2.731, "internal_energy": -0.839}

$$$$
EPH_relaxed_0001_pdb2pqr_Repair_84_r2_0001_out
     RDKit          3D

 82 86  0  0  0  0  0  0  0  0999 V2000
    1.0150   11.1380   -4.8980 C   0  0  0  0  0  0  0  0  0  0  0  0
    0.7920   10.5290   -3.5110 C   0  0  2  0  0  0  0  0  0  0  0  0
   -0.5560    9.7870   -3.4120 C   0  0  0  0  0  0  0  0  0  0  0  0
   -0.5690    8.6700   -2.3650 C   0  0  0  0  0  0  0  0  0  0  0  0
   -0.0570    9.1470   -1.0400 C   0  0  2  0  0  0  0  0  0  0  0  0
   -0.4450    8.3380    0.0780 O   0  0  0  0  0  0  0  0  0  0  0  0
   -0.9550    9.6810    0.0610 C   0  0  0  0  0  0  0  0  0  0  0  0
   -2.4380    9.7670   -0.1150 C   0  0  0  0  0  0  0  0  0  0  0  0
   -0.3540   10.5680    1.1070 C   0  0  0  0  0  0  0  0  0  0  0  0
    0.8660   11.6180   -2.4470 C   0  0  1  0  0  0  0  0  0  0  0  0
    1.9090   11.3040   -1.3420 C   0  0  0  0  0  0  0  0  0  0  0  0
    2.5290   12.6580   -0.9130 C   0  0  0  0  0  0  0  0  0  0  0  0
    1.6000   13.7270   -1.5360 C   0  0  1  0  0  0  0  0  0  0  0  0
    0.3900   13.8270   -0.5560 C   0  0  0  0  0  0  0  0  0  0  0  0
    2.2420   15.1270   -1.8060 C   0  0  2  0  0  0  0  0  0  0  0  0
    2.7360   15.8710   -0.5530 C   0  0  0  0  0  0  0  0  0  0  0  0
    1.7330   16.7670    0.0940 C   0  0  0  0  0  0  0  0  0  0  0  0
    0.5840   17.1890   -0.4670 C   0  0  0  0  0  0  0  0  0  0  0  0
    0.2430   16.8390   -1.9210 C   0  0  1  0  0  0  0  0  0  0  0  0
   -0.2570   18.1110   -2.6550 C   0  0  0  0  0  0  0  0  0  0  0  0
   -1.4170   18.7880   -1.9300 C   0  0  0  0  0  0  0  0  0  0  0  0
   -1.0200   19.1720   -0.5070 C   0  0  2  0  0  0  0  0  0  0  0  0
   -0.0200   20.1940   -0.5670 O   0  0  0  0  0  0  0  0  0  0  0  0
   -0.4900   17.9720    0.3270 C   0  0  0  0  0  0  0  0  0  0  0  0
   -1.6580   17.0060    0.6480 C   0  0  0  0  0  0  0  0  0  0  0  0
    0.0070   18.5210    1.6920 C   0  0  0  0  0  0  0  0  0  0  0  0
    1.3720   16.0700   -2.7330 C   0  0  1  0  0  0  0  0  0  0  0  0
    2.3570   17.0950   -3.3740 C   0  0  0  0  0  0  0  0  0  0  0  0
    0.7050   15.2880   -3.9250 C   0  0  0  0  0  0  0  0  0  0  0  0
    0.1990   13.8640   -3.6260 C   0  0  0  0  0  0  0  0  0  0  0  0
    1.2740   13.0390   -2.9120 C   0  0  2  0  0  0  0  0  0  0  0  0
    2.4960   12.9030   -3.8830 C   0  0  0  0  0  0  0  0  0  0  0  0
    1.3914   12.1660   -4.7909 H   0  0  0  0  0  0  0  0  0  0  0  0
    1.7503   10.5339   -5.4498 H   0  0  0  0  0  0  0  0  0  0  0  0
    0.0635   11.1516   -5.4498 H   0  0  0  0  0  0  0  0  0  0  0  0
    1.5889    9.7897   -3.3427 H   0  0  0  0  0  0  0  0  0  0  0  0
   -1.3358   10.5173   -3.1502 H   0  0  0  0  0  0  0  0  0  0  0  0
   -0.7346    9.3137   -4.3888 H   0  0  0  0  0  0  0  0  0  0  0  0
   -1.6010    8.3104   -2.2400 H   0  0  0  0  0  0  0  0  0  0  0  0
    0.0897    7.8623   -2.7168 H   0  0  0  0  0  0  0  0  0  0  0  0
    0.8532    9.5483   -1.5095 H   0  0  0  0  0  0  0  0  0  0  0  0
   -2.9233    9.7951    0.8717 H   0  0  0  0  0  0  0  0  0  0  0  0
   -2.6886   10.6812   -0.6731 H   0  0  0  0  0  0  0  0  0  0  0  0
   -2.7926    8.8879   -0.6731 H   0  0  0  0  0  0  0  0  0  0  0  0
   -0.6132   10.1854    2.1052 H   0  0  0  0  0  0  0  0  0  0  0  0
    0.7399   10.5813    0.9921 H   0  0  0  0  0  0  0  0  0  0  0  0
   -0.7472   11.5889    0.9921 H   0  0  0  0  0  0  0  0  0  0  0  0
   -0.1810   11.6179   -2.1095 H   0  0  0  0  0  0  0  0  0  0  0  0
    1.4176   10.8235   -0.4831 H   0  0  0  0  0  0  0  0  0  0  0  0
    2.6826   10.6160   -1.7138 H   0  0  0  0  0  0  0  0  0  0  0  0
    2.5445   12.7481    0.1832 H   0  0  0  0  0  0  0  0  0  0  0  0
    3.5713   12.7645   -1.2480 H   0  0  0  0  0  0  0  0  0  0  0  0
    0.7548   13.7968    0.4813 H   0  0  0  0  0  0  0  0  0  0  0  0
   -0.1450   14.7724   -0.7292 H   0  0  0  0  0  0  0  0  0  0  0  0
   -0.2929   12.9822   -0.7292 H   0  0  0  0  0  0  0  0  0  0  0  0
    3.1471   14.8665   -2.3743 H   0  0  0  0  0  0  0  0  0  0  0  0
    3.0480   15.1197    0.1874 H   0  0  0  0  0  0  0  0  0  0  0  0
    3.5544   16.5241   -0.8901 H   0  0  0  0  0  0  0  0  0  0  0  0
    1.9508   17.1118    1.1156 H   0  0  0  0  0  0  0  0  0  0  0  0
   -0.5641   16.0931   -1.8731 H   0  0  0  0  0  0  0  0  0  0  0  0
    0.5764   18.8250   -2.7304 H   0  0  0  0  0  0  0  0  0  0  0  0
   -0.6180   17.8033   -3.6475 H   0  0  0  0  0  0  0  0  0  0  0  0
   -1.7055   19.6954   -2.4807 H   0  0  0  0  0  0  0  0  0  0  0  0
   -2.2604   18.0835   -1.8817 H   0  0  0  0  0  0  0  0  0  0  0  0
   -1.9265   19.5317    0.0019 H   0  0  0  0  0  0  0  0  0  0  0  0
   -0.3810   20.9270   -1.0940 H   0  0  0  0  0  0  0  0  0  0  0  0
   -1.7688   16.9143    1.7386 H   0  0  0  0  0  0  0  0  0  0  0  0
   -2.5896   17.4010    0.2167 H   0  0  0  0  0  0  0  0  0  0  0  0
   -1.4448   16.0168    0.2167 H   0  0  0  0  0  0  0  0  0  0  0  0
   -0.4874   17.9748    2.5088 H   0  0  0  0  0  0  0  0  0  0  0  0
    1.0961   18.3858    1.7670 H   0  0  0  0  0  0  0  0  0  0  0  0
   -0.2356   19.5913    1.7670 H   0  0  0  0  0  0  0  0  0  0  0  0
    2.8840   17.6434   -2.5793 H   0  0  0  0  0  0  0  0  0  0  0  0
    3.0885   16.5600   -3.9974 H   0  0  0  0  0  0  0  0  0  0  0  0
    1.7933   17.8046   -3.9974 H   0  0  0  0  0  0  0  0  0  0  0  0
   -0.1545   15.8804   -4.2719 H   0  0  0  0  0  0  0  0  0  0  0  0
    1.5060   15.1584   -4.6677 H   0  0  0  0  0  0  0  0  0  0  0  0
   -0.6923   13.9261   -2.9843 H   0  0  0  0  0  0  0  0  0  0  0  0
   -0.0461   13.3716   -4.5786 H   0  0  0  0  0  0  0  0  0  0  0  0
    3.4208   12.8001   -3.2963 H   0  0  0  0  0  0  0  0  0  0  0  0
    2.3632   12.0141   -4.5172 H   0  0  0  0  0  0  0  0  0  0  0  0
    2.5619   13.7994   -4.5172 H   0  0  0  0  0  0  0  0  0  0  0  0
  1  2  1  0
  2  3  1  0
  3  4  1  0
  4  5  1  0
  5  6  1  0
  6  7  1  0
  7  8  1  0
  7  9  1  0
  2 10  1  0
 10 11  1  0
 11 12  1  0
 12 13  1  0
 13 14  1  1
 13 15  1  0
 15 16  1  0
 16 17  1  0
 17 18  2  0
 18 19  1  0
 19 20  1  0
 20 21  1  0
 21 22  1  0
 22 23  1  0
 22 24  1  0
 24 25  1  0
 24 26  1  0
 19 27  1  0
 27 28  1  6
 27 29  1  0
 29 30  1  0
 30 31  1  0
 31 32  1  6
  7  5  1  0
 31 10  1  0
 31 13  1  0
 27 15  1  0
 24 18  1  0
  1 33  1  0
  1 34  1  0
  1 35  1  0
  2 36  1  1
  3 37  1  0
  3 38  1  0
  4 39  1  0
  4 40  1  0
  5 41  1  6
  8 42  1  0
  8 43  1  0
  8 44  1  0
  9 45  1  0
  9 46  1  0
  9 47  1  0
 10 48  1  1
 11 49  1  0
 11 50  1  0
 12 51  1  0
 12 52  1  0
 14 53  1  0
 14 54  1  0
 14 55  1  0
 15 56  1  6
 16 57  1  0
 16 58  1  0
 17 59  1  0
 19 60  1  1
 20 61  1  0
 20 62  1  0
 21 63  1  0
 21 64  1  0
 22 65  1  1
 23 66  1  0
 25 67  1  0
 25 68  1  0
 25 69  1  0
 26 70  1  0
 26 71  1  0
 26 72  1  0
 28 73  1  0
 28 74  1  0
 28 75  1  0
 29 76  1  0
 29 77  1  0
 30 78  1  0
 30 79  1  0
 32 80  1  0
 32 81  1  0
 32 82  1  0
M  END
>  <meeko>  (8) 
{"is_sidechain": [false], "intermolecular_energy": 2.731, "internal_energy": -0.839}

$$$$
EPH_relaxed_0001_pdb2pqr_Repair_84_r2_0001_out
     RDKit          3D

 82 86  0  0  0  0  0  0  0  0999 V2000
    0.2070   17.7700   -2.4740 C   0  0  0  0  0  0  0  0  0  0  0  0
    0.0490   16.9310   -1.2030 C   0  0  2  0  0  0  0  0  0  0  0  0
    0.1100   17.7940    0.0730 C   0  0  0  0  0  0  0  0  0  0  0  0
    0.7730   19.1580   -0.1370 C   0  0  0  0  0  0  0  0  0  0  0  0
    1.8640   19.4040    0.8620 C   0  0  2  0  0  0  0  0  0  0  0  0
    2.9560   20.1940    0.3730 O   0  0  0  0  0  0  0  0  0  0  0  0
    3.2640   18.8360    0.7270 C   0  0  0  0  0  0  0  0  0  0  0  0
    3.6500   17.9770   -0.4350 C   0  0  0  0  0  0  0  0  0  0  0  0
    4.1070   18.7110    1.9590 C   0  0  0  0  0  0  0  0  0  0  0  0
    1.1250   15.8530   -1.1540 C   0  0  1  0  0  0  0  0  0  0  0  0
    1.3770   15.3250    0.2830 C   0  0  0  0  0  0  0  0  0  0  0  0
    1.7100   13.8160    0.1530 C   0  0  0  0  0  0  0  0  0  0  0  0
    1.9640   13.6020   -1.3580 C   0  0  1  0  0  0  0  0  0  0  0  0
    3.4340   14.0740   -1.5880 C   0  0  0  0  0  0  0  0  0  0  0  0
    1.7320   12.1530   -1.8990 C   0  0  2  0  0  0  0  0  0  0  0  0
    2.6510   11.0770   -1.2960 C   0  0  0  0  0  0  0  0  0  0  0  0
    3.9300   10.8450   -2.0320 C   0  0  0  0  0  0  0  0  0  0  0  0
    4.2000   11.2650   -3.2820 C   0  0  0  0  0  0  0  0  0  0  0  0
    3.1290   11.9690   -4.1250 C   0  0  1  0  0  0  0  0  0  0  0  0
    3.1100   11.3600   -5.5520 C   0  0  0  0  0  0  0  0  0  0  0  0
    4.4840   11.3830   -6.2160 C   0  0  0  0  0  0  0  0  0  0  0  0
    5.5080   10.6230   -5.3760 C   0  0  2  0  0  0  0  0  0  0  0  0
    5.1610    9.2350   -5.3710 O   0  0  0  0  0  0  0  0  0  0  0  0
    5.6080   11.1420   -3.9150 C   0  0  0  0  0  0  0  0  0  0  0  0
    6.2690   12.5430   -3.9040 C   0  0  0  0  0  0  0  0  0  0  0  0
    6.5700   10.2020   -3.1390 C   0  0  0  0  0  0  0  0  0  0  0  0
    1.6800   12.0510   -3.4770 C   0  0  1  0  0  0  0  0  0  0  0  0
    0.8730   10.7610   -3.8140 C   0  0  0  0  0  0  0  0  0  0  0  0
    0.8930   13.2500   -4.1280 C   0  0  0  0  0  0  0  0  0  0  0  0
    1.0700   14.6340   -3.4750 C   0  0  0  0  0  0  0  0  0  0  0  0
    0.8680   14.5550   -1.9590 C   0  0  2  0  0  0  0  0  0  0  0  0
   -0.6090   14.1030   -1.6970 C   0  0  0  0  0  0  0  0  0  0  0  0
    0.4042   18.8169   -2.2001 H   0  0  0  0  0  0  0  0  0  0  0  0
    1.0478   17.3817   -3.0675 H   0  0  0  0  0  0  0  0  0  0  0  0
   -0.7175   17.7141   -3.0675 H   0  0  0  0  0  0  0  0  0  0  0  0
   -0.9454   16.4620   -1.2378 H   0  0  0  0  0  0  0  0  0  0  0  0
   -0.9173   17.9586    0.4302 H   0  0  0  0  0  0  0  0  0  0  0  0
    0.7255   17.2465    0.8020 H   0  0  0  0  0  0  0  0  0  0  0  0
    1.2019   19.1938   -1.1493 H   0  0  0  0  0  0  0  0  0  0  0  0
    0.0063   19.9358   -0.0060 H   0  0  0  0  0  0  0  0  0  0  0  0
    1.1406   19.3946    1.6906 H   0  0  0  0  0  0  0  0  0  0  0  0
    4.0749   17.0315   -0.0669 H   0  0  0  0  0  0  0  0  0  0  0  0
    2.7603   17.7657   -1.0464 H   0  0  0  0  0  0  0  0  0  0  0  0
    4.3987   18.5020   -1.0464 H   0  0  0  0  0  0  0  0  0  0  0  0
    3.4696   18.8055    2.8505 H   0  0  0  0  0  0  0  0  0  0  0  0
    4.6034   17.7294    1.9656 H   0  0  0  0  0  0  0  0  0  0  0  0
    4.8669   19.5063    1.9656 H   0  0  0  0  0  0  0  0  0  0  0  0
    1.9641   16.4099   -1.5966 H   0  0  0  0  0  0  0  0  0  0  0  0
    2.2213   15.8612    0.7410 H   0  0  0  0  0  0  0  0  0  0  0  0
    0.4951   15.4813    0.9216 H   0  0  0  0  0  0  0  0  0  0  0  0
    2.6075   13.5645    0.7372 H   0  0  0  0  0  0  0  0  0  0  0  0
    0.9014   13.1756    0.5352 H   0  0  0  0  0  0  0  0  0  0  0  0
    3.9248   14.2316   -0.6163 H   0  0  0  0  0  0  0  0  0  0  0  0
    3.9811   13.3064   -2.1549 H   0  0  0  0  0  0  0  0  0  0  0  0
    3.4320   15.0167   -2.1549 H   0  0  0  0  0  0  0  0  0  0  0  0
    0.7212   11.9227   -1.5312 H   0  0  0  0  0  0  0  0  0  0  0  0
    2.9003   11.3799   -0.2683 H   0  0  0  0  0  0  0  0  0  0  0  0
    2.0912   10.1318   -1.3531 H   0  0  0  0  0  0  0  0  0  0  0  0
    4.7177   10.2835   -1.5083 H   0  0  0  0  0  0  0  0  0  0  0  0
    3.4275   13.0266   -4.1746 H   0  0  0  0  0  0  0  0  0  0  0  0
    2.7677   10.3167   -5.4857 H   0  0  0  0  0  0  0  0  0  0  0  0
    2.4317   11.9701   -6.1666 H   0  0  0  0  0  0  0  0  0  0  0  0
    4.4124   10.9135   -7.2082 H   0  0  0  0  0  0  0  0  0  0  0  0
    4.8121   12.4288   -6.3086 H   0  0  0  0  0  0  0  0  0  0  0  0
    6.4951   10.7839   -5.8339 H   0  0  0  0  0  0  0  0  0  0  0  0
    5.8810    8.7500   -5.8090 H   0  0  0  0  0  0  0  0  0  0  0  0
    6.4223   12.8679   -2.8643 H   0  0  0  0  0  0  0  0  0  0  0  0
    7.2393   12.4947   -4.4199 H   0  0  0  0  0  0  0  0  0  0  0  0
    5.6147   13.2612   -4.4199 H   0  0  0  0  0  0  0  0  0  0  0  0
    6.4265   10.3423   -2.0575 H   0  0  0  0  0  0  0  0  0  0  0  0
    6.3548    9.1565   -3.4049 H   0  0  0  0  0  0  0  0  0  0  0  0
    7.6102   10.4413   -3.4049 H   0  0  0  0  0  0  0  0  0  0  0  0
    0.5642   10.2674   -2.8807 H   0  0  0  0  0  0  0  0  0  0  0  0
   -0.0188   11.0289   -4.3996 H   0  0  0  0  0  0  0  0  0  0  0  0
    1.5040   10.0762   -4.3996 H   0  0  0  0  0  0  0  0  0  0  0  0
    1.2189   13.3322   -5.1754 H   0  0  0  0  0  0  0  0  0  0  0  0
   -0.1704   13.0026   -3.9938 H   0  0  0  0  0  0  0  0  0  0  0  0
    2.0849   15.0033   -3.6840 H   0  0  0  0  0  0  0  0  0  0  0  0
    0.3173   15.3181   -3.8938 H   0  0  0  0  0  0  0  0  0  0  0  0
   -0.7888   14.0480   -0.6132 H   0  0  0  0  0  0  0  0  0  0  0  0
   -1.3004   14.8307   -2.1469 H   0  0  0  0  0  0  0  0  0  0  0  0
   -0.7748   13.1130   -2.1469 H   0  0  0  0  0  0  0  0  0  0  0  0
  1  2  1  0
  2  3  1  0
  3  4  1  0
  4  5  1  0
  5  6  1  0
  6  7  1  0
  7  8  1  0
  7  9  1  0
  2 10  1  0
 10 11  1  0
 11 12  1  0
 12 13  1  0
 13 14  1  1
 13 15  1  0
 15 16  1  0
 16 17  1  0
 17 18  2  0
 18 19  1  0
 19 20  1  0
 20 21  1  0
 21 22  1  0
 22 23  1  0
 22 24  1  0
 24 25  1  0
 24 26  1  0
 19 27  1  0
 27 28  1  1
 27 29  1  0
 29 30  1  0
 30 31  1  0
 31 32  1  6
  7  5  1  0
 31 10  1  0
 31 13  1  0
 27 15  1  0
 24 18  1  0
  1 33  1  0
  1 34  1  0
  1 35  1  0
  2 36  1  6
  3 37  1  0
  3 38  1  0
  4 39  1  0
  4 40  1  0
  5 41  1  1
  8 42  1  0
  8 43  1  0
  8 44  1  0
  9 45  1  0
  9 46  1  0
  9 47  1  0
 10 48  1  6
 11 49  1  0
 11 50  1  0
 12 51  1  0
 12 52  1  0
 14 53  1  0
 14 54  1  0
 14 55  1  0
 15 56  1  1
 16 57  1  0
 16 58  1  0
 17 59  1  0
 19 60  1  6
 20 61  1  0
 20 62  1  0
 21 63  1  0
 21 64  1  0
 22 65  1  6
 23 66  1  0
 25 67  1  0
 25 68  1  0
 25 69  1  0
 26 70  1  0
 26 71  1  0
 26 72  1  0
 28 73  1  0
 28 74  1  0
 28 75  1  0
 29 76  1  0
 29 77  1  0
 30 78  1  0
 30 79  1  0
 32 80  1  0
 32 81  1  0
 32 82  1  0
M  END
>  <meeko>  (9) 
{"is_sidechain": [false], "intermolecular_energy": 2.731, "internal_energy": -0.839}

$$$$
EPH_relaxed_0001_pdb2pqr_Repair_84_r2_0001_out
     RDKit          3D

 82 86  0  0  0  0  0  0  0  0999 V2000
   -0.9140   16.3930   -5.8620 C   0  0  0  0  0  0  0  0  0  0  0  0
    0.1780   15.6940   -6.6760 C   0  0  2  0  0  0  0  0  0  0  0  0
   -0.2290   15.5020   -8.1500 C   0  0  0  0  0  0  0  0  0  0  0  0
    0.4270   16.5040   -9.1050 C   0  0  0  0  0  0  0  0  0  0  0  0
    1.8340   16.1110   -9.4390 C   0  0  2  0  0  0  0  0  0  0  0  0
    2.3410   16.6760  -10.6550 O   0  0  0  0  0  0  0  0  0  0  0  0
    2.2010   15.2470  -10.6310 C   0  0  0  0  0  0  0  0  0  0  0  0
    1.1570   14.7220  -11.5650 C   0  0  0  0  0  0  0  0  0  0  0  0
    3.5060   14.5140  -10.6080 C   0  0  0  0  0  0  0  0  0  0  0  0
    0.5120   14.3450   -6.0480 C   0  0  1  0  0  0  0  0  0  0  0  0
    1.7400   13.6660   -6.7090 C   0  0  0  0  0  0  0  0  0  0  0  0
    2.4920   12.9080   -5.5850 C   0  0  0  0  0  0  0  0  0  0  0  0
    1.5050   12.8980   -4.3940 C   0  0  1  0  0  0  0  0  0  0  0  0
    0.5200   11.7250   -4.6990 C   0  0  0  0  0  0  0  0  0  0  0  0
    2.1390   12.7640   -2.9720 C   0  0  2  0  0  0  0  0  0  0  0  0
    2.9070   11.4540   -2.7200 C   0  0  0  0  0  0  0  0  0  0  0  0
    2.0930   10.3360   -2.1560 C   0  0  0  0  0  0  0  0  0  0  0  0
    0.8750   10.4600   -1.5980 C   0  0  0  0  0  0  0  0  0  0  0  0
    0.2340   11.8400   -1.4030 C   0  0  1  0  0  0  0  0  0  0  0  0
   -0.3470   11.9440    0.0310 C   0  0  0  0  0  0  0  0  0  0  0  0
   -1.3070   10.8040    0.3580 C   0  0  0  0  0  0  0  0  0  0  0  0
   -0.6170    9.4510    0.2090 C   0  0  2  0  0  0  0  0  0  0  0  0
    0.3940    9.3360    1.2150 O   0  0  0  0  0  0  0  0  0  0  0  0
    0.0160    9.2360   -1.1940 C   0  0  0  0  0  0  0  0  0  0  0  0
   -1.1040    9.0590   -2.2490 C   0  0  0  0  0  0  0  0  0  0  0  0
    0.8000    7.8960   -1.1650 C   0  0  0  0  0  0  0  0  0  0  0  0
    1.1430   13.0870   -1.7850 C   0  0  1  0  0  0  0  0  0  0  0  0
    2.0230   13.4970   -0.5650 C   0  0  0  0  0  0  0  0  0  0  0  0
    0.2180   14.3210   -2.0990 C   0  0  0  0  0  0  0  0  0  0  0  0
   -0.2790   14.4650   -3.5510 C   0  0  0  0  0  0  0  0  0  0  0  0
    0.8800   14.3330   -4.5430 C   0  0  2  0  0  0  0  0  0  0  0  0
    1.8750   15.5130   -4.2750 C   0  0  0  0  0  0  0  0  0  0  0  0
   -0.7111   16.2631   -4.7887 H   0  0  0  0  0  0  0  0  0  0  0  0
   -0.9236   17.4655   -6.1062 H   0  0  0  0  0  0  0  0  0  0  0  0
   -1.8920   15.9526   -6.1062 H   0  0  0  0  0  0  0  0  0  0  0  0
    1.0670   16.3417   -6.6609 H   0  0  0  0  0  0  0  0  0  0  0  0
    0.0588   14.4867   -8.4604 H   0  0  0  0  0  0  0  0  0  0  0  0
   -1.3151   15.6663   -8.2078 H   0  0  0  0  0  0  0  0  0  0  0  0
   -0.1608   16.5487  -10.0337 H   0  0  0  0  0  0  0  0  0  0  0  0
    0.4535   17.4849   -8.6080 H   0  0  0  0  0  0  0  0  0  0  0  0
    2.0936   16.0453   -8.3721 H   0  0  0  0  0  0  0  0  0  0  0  0
    0.3226   14.3024  -10.9838 H   0  0  0  0  0  0  0  0  0  0  0  0
    0.7868   15.5412  -12.1990 H   0  0  0  0  0  0  0  0  0  0  0  0
    1.5939   13.9364  -12.1990 H   0  0  0  0  0  0  0  0  0  0  0  0
    3.8118   14.3423   -9.5654 H   0  0  0  0  0  0  0  0  0  0  0  0
    3.3928   13.5475  -11.1209 H   0  0  0  0  0  0  0  0  0  0  0  0
    4.2724   15.1136  -11.1209 H   0  0  0  0  0  0  0  0  0  0  0  0
   -0.4451   13.8263   -6.2056 H   0  0  0  0  0  0  0  0  0  0  0  0
    1.4101   12.9608   -7.4861 H   0  0  0  0  0  0  0  0  0  0  0  0
    2.3927   14.4109   -7.1876 H   0  0  0  0  0  0  0  0  0  0  0  0
    2.7301   11.8816   -5.9008 H   0  0  0  0  0  0  0  0  0  0  0  0
    3.4500   13.3842   -5.3292 H   0  0  0  0  0  0  0  0  0  0  0  0
    0.1585   11.2945   -3.7535 H   0  0  0  0  0  0  0  0  0  0  0  0
   -0.3339   12.1047   -5.2792 H   0  0  0  0  0  0  0  0  0  0  0  0
    1.0417   10.9496   -5.2792 H   0  0  0  0  0  0  0  0  0  0  0  0
    2.8988   13.5595   -2.9772 H   0  0  0  0  0  0  0  0  0  0  0  0
    3.3288   11.1175   -3.6785 H   0  0  0  0  0  0  0  0  0  0  0  0
    3.6686   11.6886   -1.9618 H   0  0  0  0  0  0  0  0  0  0  0  0
    2.5259    9.3257   -2.2006 H   0  0  0  0  0  0  0  0  0  0  0  0
   -0.5797   11.9036   -2.1404 H   0  0  0  0  0  0  0  0  0  0  0  0
    0.4846   11.9220    0.7507 H   0  0  0  0  0  0  0  0  0  0  0  0
   -0.9128   12.8852    0.0943 H   0  0  0  0  0  0  0  0  0  0  0  0
   -1.6597   10.9162    1.3939 H   0  0  0  0  0  0  0  0  0  0  0  0
   -2.1537   10.8457   -0.3430 H   0  0  0  0  0  0  0  0  0  0  0  0
   -1.3867    8.6742    0.3277 H   0  0  0  0  0  0  0  0  0  0  0  0
    1.2400    9.1690    0.7660 H   0  0  0  0  0  0  0  0  0  0  0  0
   -2.0669    8.9068   -1.7395 H   0  0  0  0  0  0  0  0  0  0  0  0
   -1.1605    9.9594   -2.8784 H   0  0  0  0  0  0  0  0  0  0  0  0
   -0.8801    8.1851   -2.8784 H   0  0  0  0  0  0  0  0  0  0  0  0
    0.9753    7.5963   -0.1212 H   0  0  0  0  0  0  0  0  0  0  0  0
    0.2148    7.1177   -1.6766 H   0  0  0  0  0  0  0  0  0  0  0  0
    1.7652    8.0248   -1.6766 H   0  0  0  0  0  0  0  0  0  0  0  0
    1.4944   13.2507    0.3677 H   0  0  0  0  0  0  0  0  0  0  0  0
    2.9771   12.9507   -0.6010 H   0  0  0  0  0  0  0  0  0  0  0  0
    2.2184   14.5789   -0.6010 H   0  0  0  0  0  0  0  0  0  0  0  0
   -0.6671   14.2472   -1.4500 H   0  0  0  0  0  0  0  0  0  0  0  0
    0.8474   15.2054   -1.9210 H   0  0  0  0  0  0  0  0  0  0  0  0
   -1.0203   13.6789   -3.7572 H   0  0  0  0  0  0  0  0  0  0  0  0
   -0.7305   15.4610   -3.6699 H   0  0  0  0  0  0  0  0  0  0  0  0
    1.9935   15.6535   -3.1905 H   0  0  0  0  0  0  0  0  0  0  0  0
    2.8517   15.2780   -4.7232 H   0  0  0  0  0  0  0  0  0  0  0  0
    1.4784   16.4360   -4.7232 H   0  0  0  0  0  0  0  0  0  0  0  0
  1  2  1  0
  2  3  1  0
  3  4  1  0
  4  5  1  0
  5  6  1  0
  6  7  1  0
  7  8  1  0
  7  9  1  0
  2 10  1  0
 10 11  1  0
 11 12  1  0
 12 13  1  0
 13 14  1  6
 13 15  1  0
 15 16  1  0
 16 17  1  0
 17 18  2  0
 18 19  1  0
 19 20  1  0
 20 21  1  0
 21 22  1  0
 22 23  1  0
 22 24  1  0
 24 25  1  0
 24 26  1  0
 19 27  1  0
 27 28  1  1
 27 29  1  0
 29 30  1  0
 30 31  1  0
 31 32  1  6
  7  5  1  0
 31 10  1  0
 31 13  1  0
 27 15  1  0
 24 18  1  0
  1 33  1  0
  1 34  1  0
  1 35  1  0
  2 36  1  6
  3 37  1  0
  3 38  1  0
  4 39  1  0
  4 40  1  0
  5 41  1  1
  8 42  1  0
  8 43  1  0
  8 44  1  0
  9 45  1  0
  9 46  1  0
  9 47  1  0
 10 48  1  1
 11 49  1  0
 11 50  1  0
 12 51  1  0
 12 52  1  0
 14 53  1  0
 14 54  1  0
 14 55  1  0
 15 56  1  6
 16 57  1  0
 16 58  1  0
 17 59  1  0
 19 60  1  6
 20 61  1  0
 20 62  1  0
 21 63  1  0
 21 64  1  0
 22 65  1  1
 23 66  1  0
 25 67  1  0
 25 68  1  0
 25 69  1  0
 26 70  1  0
 26 71  1  0
 26 72  1  0
 28 73  1  0
 28 74  1  0
 28 75  1  0
 29 76  1  0
 29 77  1  0
 30 78  1  0
 30 79  1  0
 32 80  1  0
 32 81  1  0
 32 82  1  0
M  END
>  <meeko>  (10) 
{"is_sidechain": [false], "intermolecular_energy": 2.731, "internal_energy": -0.839}

$$$$
EPH_relaxed_0001_pdb2pqr_Repair_84_r2_0001_out
     RDKit          3D

 82 86  0  0  0  0  0  0  0  0999 V2000
   -0.3300    9.3680   -2.2260 C   0  0  0  0  0  0  0  0  0  0  0  0
    0.8370   10.2580   -2.6630 C   0  0  2  0  0  0  0  0  0  0  0  0
    2.1770    9.4950   -2.6740 C   0  0  0  0  0  0  0  0  0  0  0  0
    3.1430    9.9630   -3.7660 C   0  0  0  0  0  0  0  0  0  0  0  0
    4.4690   10.3660   -3.1970 C   0  0  2  0  0  0  0  0  0  0  0  0
    4.8380   11.7290   -3.4440 O   0  0  0  0  0  0  0  0  0  0  0  0
    5.6710   10.7270   -4.0510 C   0  0  0  0  0  0  0  0  0  0  0  0
    5.6020   10.7020   -5.5460 C   0  0  0  0  0  0  0  0  0  0  0  0
    7.0350   10.6290   -3.4430 C   0  0  0  0  0  0  0  0  0  0  0  0
    0.9370   11.4720   -1.7450 C   0  0  1  0  0  0  0  0  0  0  0  0
    2.0420   11.3160   -0.6670 C   0  0  0  0  0  0  0  0  0  0  0  0
    2.6470   12.7250   -0.4400 C   0  0  0  0  0  0  0  0  0  0  0  0
    1.6600   13.6900   -1.1380 C   0  0  1  0  0  0  0  0  0  0  0  0
    0.4980   13.8860   -0.1140 C   0  0  0  0  0  0  0  0  0  0  0  0
    2.2500   15.0590   -1.6100 C   0  0  2  0  0  0  0  0  0  0  0  0
    2.7870   15.9610   -0.4860 C   0  0  0  0  0  0  0  0  0  0  0  0
    1.7950   16.9100    0.1000 C   0  0  0  0  0  0  0  0  0  0  0  0
    0.6090   17.2370   -0.4460 C   0  0  0  0  0  0  0  0  0  0  0  0
    0.2040   16.7040   -1.8270 C   0  0  1  0  0  0  0  0  0  0  0  0
   -0.3660   17.8660   -2.6830 C   0  0  0  0  0  0  0  0  0  0  0  0
   -1.5040   18.6030   -1.9850 C   0  0  0  0  0  0  0  0  0  0  0  0
   -1.0470   19.1680   -0.6430 C   0  0  2  0  0  0  0  0  0  0  0  0
   -0.0780   20.1940   -0.8800 O   0  0  0  0  0  0  0  0  0  0  0  0
   -0.4450   18.0900    0.3020 C   0  0  0  0  0  0  0  0  0  0  0  0
   -1.5690   17.1490    0.8000 C   0  0  0  0  0  0  0  0  0  0  0  0
    0.1060   18.8130    1.5610 C   0  0  0  0  0  0  0  0  0  0  0  0
    1.3110   15.8640   -2.5980 C   0  0  1  0  0  0  0  0  0  0  0  0
    2.2350   16.8200   -3.4110 C   0  0  0  0  0  0  0  0  0  0  0  0
    0.6060   14.9270   -3.6490 C   0  0  0  0  0  0  0  0  0  0  0  0
    0.1530   13.5410   -3.1510 C   0  0  0  0  0  0  0  0  0  0  0  0
    1.2830   12.8320   -2.4000 C   0  0  2  0  0  0  0  0  0  0  0  0
    2.4580   12.6010   -3.4110 C   0  0  0  0  0  0  0  0  0  0  0  0
   -0.3741    9.3344   -1.1274 H   0  0  0  0  0  0  0  0  0  0  0  0
   -1.2717    9.7793   -2.6183 H   0  0  0  0  0  0  0  0  0  0  0  0
   -0.1825    8.3510   -2.6183 H   0  0  0  0  0  0  0  0  0  0  0  0
    0.6351   10.5859   -3.6934 H   0  0  0  0  0  0  0  0  0  0  0  0
    2.6636    9.6336   -1.6972 H   0  0  0  0  0  0  0  0  0  0  0  0
    1.9445    8.4400   -2.8812 H   0  0  0  0  0  0  0  0  0  0  0  0
    3.2968    9.1420   -4.4817 H   0  0  0  0  0  0  0  0  0  0  0  0
    2.7015   10.8402   -4.2615 H   0  0  0  0  0  0  0  0  0  0  0  0
    4.3449    9.6704   -2.3539 H   0  0  0  0  0  0  0  0  0  0  0  0
    4.6112   10.3430   -5.8614 H   0  0  0  0  0  0  0  0  0  0  0  0
    5.7661   11.7167   -5.9377 H   0  0  0  0  0  0  0  0  0  0  0  0
    6.3780   10.0279   -5.9377 H   0  0  0  0  0  0  0  0  0  0  0  0
    6.9489   10.6352   -2.3464 H   0  0  0  0  0  0  0  0  0  0  0  0
    7.5149    9.6941   -3.7679 H   0  0  0  0  0  0  0  0  0  0  0  0
    7.6437   11.4857   -3.7679 H   0  0  0  0  0  0  0  0  0  0  0  0
   -0.0913   11.4936   -1.3549 H   0  0  0  0  0  0  0  0  0  0  0  0
    1.6072   10.9351    0.2689 H   0  0  0  0  0  0  0  0  0  0  0  0
    2.8134   10.6025   -0.9924 H   0  0  0  0  0  0  0  0  0  0  0  0
    2.7155   12.9498    0.6346 H   0  0  0  0  0  0  0  0  0  0  0  0
    3.6679   12.8103   -0.8407 H   0  0  0  0  0  0  0  0  0  0  0  0
    0.8959   13.8189    0.9093 H   0  0  0  0  0  0  0  0  0  0  0  0
    0.0391   14.8742   -0.2649 H   0  0  0  0  0  0  0  0  0  0  0  0
   -0.2597   13.1030   -0.2649 H   0  0  0  0  0  0  0  0  0  0  0  0
    3.1315   14.7476   -2.1896 H   0  0  0  0  0  0  0  0  0  0  0  0
    3.1559   15.3129    0.3227 H   0  0  0  0  0  0  0  0  0  0  0  0
    3.5696   16.5838   -0.9439 H   0  0  0  0  0  0  0  0  0  0  0  0
    2.0552   17.3819    1.0590 H   0  0  0  0  0  0  0  0  0  0  0  0
   -0.5799   15.9539   -1.6460 H   0  0  0  0  0  0  0  0  0  0  0  0
    0.4434   18.5817   -2.8895 H   0  0  0  0  0  0  0  0  0  0  0  0
   -0.7686   17.4315   -3.6099 H   0  0  0  0  0  0  0  0  0  0  0  0
   -1.8443   19.4294   -2.6263 H   0  0  0  0  0  0  0  0  0  0  0  0
   -2.3241   17.8922   -1.8053 H   0  0  0  0  0  0  0  0  0  0  0  0
   -1.9357   19.5707   -0.1350 H   0  0  0  0  0  0  0  0  0  0  0  0
    0.7990   19.8210   -0.6920 H   0  0  0  0  0  0  0  0  0  0  0  0
   -1.5794   17.1403    1.8999 H   0  0  0  0  0  0  0  0  0  0  0  0
   -2.5396   17.5077    0.4270 H   0  0  0  0  0  0  0  0  0  0  0  0
   -1.3866   16.1304    0.4270 H   0  0  0  0  0  0  0  0  0  0  0  0
   -0.2736   18.3150    2.4654 H   0  0  0  0  0  0  0  0  0  0  0  0
    1.2053   18.7737    1.5547 H   0  0  0  0  0  0  0  0  0  0  0  0
   -0.2234   19.8625    1.5547 H   0  0  0  0  0  0  0  0  0  0  0  0
    2.8284   17.4339   -2.7175 H   0  0  0  0  0  0  0  0  0  0  0  0
    2.9102   16.2262   -4.0447 H   0  0  0  0  0  0  0  0  0  0  0  0
    1.6186   17.4746   -4.0447 H   0  0  0  0  0  0  0  0  0  0  0  0
   -0.2849   15.4547   -4.0203 H   0  0  0  0  0  0  0  0  0  0  0  0
    1.3720   14.7224   -4.4114 H   0  0  0  0  0  0  0  0  0  0  0  0
   -0.7060   13.6646   -2.4751 H   0  0  0  0  0  0  0  0  0  0  0  0
   -0.1268   12.9298   -4.0217 H   0  0  0  0  0  0  0  0  0  0  0  0
    3.3894   12.4179   -2.8551 H   0  0  0  0  0  0  0  0  0  0  0  0
    2.2314   11.7302   -4.0438 H   0  0  0  0  0  0  0  0  0  0  0  0
    2.5779   13.4928   -4.0438 H   0  0  0  0  0  0  0  0  0  0  0  0
  1  2  1  0
  2  3  1  0
  3  4  1  0
  4  5  1  0
  5  6  1  0
  6  7  1  0
  7  8  1  0
  7  9  1  0
  2 10  1  0
 10 11  1  0
 11 12  1  0
 12 13  1  0
 13 14  1  1
 13 15  1  0
 15 16  1  0
 16 17  1  0
 17 18  2  0
 18 19  1  0
 19 20  1  0
 20 21  1  0
 21 22  1  0
 22 23  1  0
 22 24  1  0
 24 25  1  0
 24 26  1  0
 19 27  1  0
 27 28  1  6
 27 29  1  0
 29 30  1  0
 30 31  1  0
 31 32  1  6
  7  5  1  0
 31 10  1  0
 31 13  1  0
 27 15  1  0
 24 18  1  0
  1 33  1  0
  1 34  1  0
  1 35  1  0
  2 36  1  6
  3 37  1  0
  3 38  1  0
  4 39  1  0
  4 40  1  0
  5 41  1  1
  8 42  1  0
  8 43  1  0
  8 44  1  0
  9 45  1  0
  9 46  1  0
  9 47  1  0
 10 48  1  1
 11 49  1  0
 11 50  1  0
 12 51  1  0
 12 52  1  0
 14 53  1  0
 14 54  1  0
 14 55  1  0
 15 56  1  6
 16 57  1  0
 16 58  1  0
 17 59  1  0
 19 60  1  1
 20 61  1  0
 20 62  1  0
 21 63  1  0
 21 64  1  0
 22 65  1  1
 23 66  1  0
 25 67  1  0
 25 68  1  0
 25 69  1  0
 26 70  1  0
 26 71  1  0
 26 72  1  0
 28 73  1  0
 28 74  1  0
 28 75  1  0
 29 76  1  0
 29 77  1  0
 30 78  1  0
 30 79  1  0
 32 80  1  0
 32 81  1  0
 32 82  1  0
M  END
>  <meeko>  (11) 
{"is_sidechain": [false], "intermolecular_energy": 2.731, "internal_energy": -0.839}

$$$$
EPH_relaxed_0001_pdb2pqr_Repair_84_r2_0001_out
     RDKit          3D

 82 86  0  0  0  0  0  0  0  0999 V2000
   -3.7770    7.2270   -3.4380 C   0  0  0  0  0  0  0  0  0  0  0  0
   -3.8460    7.3300   -1.9120 C   0  0  2  0  0  0  0  0  0  0  0  0
   -5.2840    7.1630   -1.3820 C   0  0  0  0  0  0  0  0  0  0  0  0
   -6.3630    7.4900   -2.4170 C   0  0  0  0  0  0  0  0  0  0  0  0
   -7.7050    7.6830   -1.7780 C   0  0  2  0  0  0  0  0  0  0  0  0
   -8.2320    6.5180   -1.1290 O   0  0  0  0  0  0  0  0  0  0  0  0
   -8.9690    7.0000   -2.2640 C   0  0  0  0  0  0  0  0  0  0  0  0
   -8.9530    6.0730   -3.4390 C   0  0  0  0  0  0  0  0  0  0  0  0
  -10.2910    7.6060   -1.9110 C   0  0  0  0  0  0  0  0  0  0  0  0
   -3.2750    8.6680   -1.4550 C   0  0  1  0  0  0  0  0  0  0  0  0
   -3.8840    9.1500   -0.1120 C   0  0  0  0  0  0  0  0  0  0  0  0
   -2.7530    9.8860    0.6530 C   0  0  0  0  0  0  0  0  0  0  0  0
   -1.6410   10.0940   -0.4010 C   0  0  1  0  0  0  0  0  0  0  0  0
   -2.0850   11.3520   -1.2110 C   0  0  0  0  0  0  0  0  0  0  0  0
   -0.1860   10.2460    0.1510 C   0  0  2  0  0  0  0  0  0  0  0  0
    0.0440   11.4690    1.0560 C   0  0  0  0  0  0  0  0  0  0  0  0
    0.4810   12.7110    0.3530 C   0  0  0  0  0  0  0  0  0  0  0  0
    0.9550   12.7710   -0.9060 C   0  0  0  0  0  0  0  0  0  0  0  0
    1.1830   11.4930   -1.7240 C   0  0  1  0  0  0  0  0  0  0  0  0
    2.5750   11.5560   -2.4060 C   0  0  0  0  0  0  0  0  0  0  0  0
    2.7630   12.8220   -3.2360 C   0  0  0  0  0  0  0  0  0  0  0  0
    2.5860   14.0700   -2.3760 C   0  0  2  0  0  0  0  0  0  0  0  0
    3.6550   14.1300   -1.4260 O   0  0  0  0  0  0  0  0  0  0  0  0
    1.2230   14.1130   -1.6310 C   0  0  0  0  0  0  0  0  0  0  0  0
    0.0800   14.3510   -2.6490 C   0  0  0  0  0  0  0  0  0  0  0  0
    1.2310   15.3490   -0.6910 C   0  0  0  0  0  0  0  0  0  0  0  0
    0.9420   10.1240   -0.9530 C   0  0  1  0  0  0  0  0  0  0  0  0
    2.2450    9.6950   -0.2120 C   0  0  0  0  0  0  0  0  0  0  0  0
    0.6330    8.9910   -2.0010 C   0  0  0  0  0  0  0  0  0  0  0  0
   -0.8390    8.8120   -2.4170 C   0  0  0  0  0  0  0  0  0  0  0  0
   -1.7510    8.7370   -1.1880 C   0  0  2  0  0  0  0  0  0  0  0  0
   -1.3420    7.4680   -0.3660 C   0  0  0  0  0  0  0  0  0  0  0  0
   -3.1852    6.3435   -3.7195 H   0  0  0  0  0  0  0  0  0  0  0  0
   -4.7943    7.1319   -3.8455 H   0  0  0  0  0  0  0  0  0  0  0  0
   -3.3019    8.1316   -3.8455 H   0  0  0  0  0  0  0  0  0  0  0  0
   -3.2444    6.5074   -1.4980 H   0  0  0  0  0  0  0  0  0  0  0  0
   -5.4165    6.1195   -1.0600 H   0  0  0  0  0  0  0  0  0  0  0  0
   -5.4062    7.8765   -0.5538 H   0  0  0  0  0  0  0  0  0  0  0  0
   -6.0830    8.4141   -2.9438 H   0  0  0  0  0  0  0  0  0  0  0  0
   -6.4350    6.6436   -3.1159 H   0  0  0  0  0  0  0  0  0  0  0  0
   -7.4740    8.7352   -1.5556 H   0  0  0  0  0  0  0  0  0  0  0  0
   -8.9350    5.0319   -3.0844 H   0  0  0  0  0  0  0  0  0  0  0  0
   -9.8541    6.2374   -4.0481 H   0  0  0  0  0  0  0  0  0  0  0  0
   -8.0581    6.2684   -4.0481 H   0  0  0  0  0  0  0  0  0  0  0  0
  -10.3925    7.6525   -0.8167 H   0  0  0  0  0  0  0  0  0  0  0  0
  -10.3518    8.6219   -2.3284 H   0  0  0  0  0  0  0  0  0  0  0  0
  -11.1004    6.9890   -2.3284 H   0  0  0  0  0  0  0  0  0  0  0  0
   -3.5317    9.2857   -2.3283 H   0  0  0  0  0  0  0  0  0  0  0  0
   -4.7226    9.8364   -0.3009 H   0  0  0  0  0  0  0  0  0  0  0  0
   -4.2705    8.3027    0.4733 H   0  0  0  0  0  0  0  0  0  0  0  0
   -3.1096   10.8530    1.0374 H   0  0  0  0  0  0  0  0  0  0  0  0
   -2.3999    9.3163    1.5252 H   0  0  0  0  0  0  0  0  0  0  0  0
   -2.3684   12.1551   -0.5148 H   0  0  0  0  0  0  0  0  0  0  0  0
   -1.2528   11.6927   -1.8445 H   0  0  0  0  0  0  0  0  0  0  0  0
   -2.9467   11.0949   -1.8445 H   0  0  0  0  0  0  0  0  0  0  0  0
   -0.0890    9.3673    0.8056 H   0  0  0  0  0  0  0  0  0  0  0  0
   -0.8996   11.6880    1.5773 H   0  0  0  0  0  0  0  0  0  0  0  0
    0.8684   11.1963    1.7313 H   0  0  0  0  0  0  0  0  0  0  0  0
    0.4099   13.6568    0.9101 H   0  0  0  0  0  0  0  0  0  0  0  0
    0.3931   11.4768   -2.4894 H   0  0  0  0  0  0  0  0  0  0  0  0
    3.3510   11.5267   -1.6269 H   0  0  0  0  0  0  0  0  0  0  0  0
    2.6523   10.6957   -3.0871 H   0  0  0  0  0  0  0  0  0  0  0  0
    3.7750   12.8227   -3.6672 H   0  0  0  0  0  0  0  0  0  0  0  0
    2.0049   12.8348   -4.0330 H   0  0  0  0  0  0  0  0  0  0  0  0
    2.6026   14.9396   -3.0495 H   0  0  0  0  0  0  0  0  0  0  0  0
    3.5280   14.9310   -0.8900 H   0  0  0  0  0  0  0  0  0  0  0  0
   -0.8578   14.5463   -2.1083 H   0  0  0  0  0  0  0  0  0  0  0  0
    0.3262   15.2172   -3.2808 H   0  0  0  0  0  0  0  0  0  0  0  0
   -0.0400   13.4586   -3.2808 H   0  0  0  0  0  0  0  0  0  0  0  0
    1.2288   15.0131    0.3564 H   0  0  0  0  0  0  0  0  0  0  0  0
    2.1330   15.9489   -0.8818 H   0  0  0  0  0  0  0  0  0  0  0  0
    0.3368   15.9606   -0.8818 H   0  0  0  0  0  0  0  0  0  0  0  0
    2.0833    9.7483    0.8747 H   0  0  0  0  0  0  0  0  0  0  0  0
    2.5046    8.6639   -0.4940 H   0  0  0  0  0  0  0  0  0  0  0  0
    3.0664   10.3701   -0.4940 H   0  0  0  0  0  0  0  0  0  0  0  0
    1.2112    9.2122   -2.9103 H   0  0  0  0  0  0  0  0  0  0  0  0
    0.9060    8.0516   -1.4980 H   0  0  0  0  0  0  0  0  0  0  0  0
   -1.1435    9.6663   -3.0394 H   0  0  0  0  0  0  0  0  0  0  0  0
   -0.9323    7.8722   -2.9809 H   0  0  0  0  0  0  0  0  0  0  0  0
   -1.4132    7.6890    0.7092 H   0  0  0  0  0  0  0  0  0  0  0  0
   -2.0176    6.6364   -0.6150 H   0  0  0  0  0  0  0  0  0  0  0  0
   -0.3079    7.1874   -0.6150 H   0  0  0  0  0  0  0  0  0  0  0  0
  1  2  1  0
  2  3  1  0
  3  4  1  0
  4  5  1  0
  5  6  1  0
  6  7  1  0
  7  8  1  0
  7  9  1  0
  2 10  1  0
 10 11  1  0
 11 12  1  0
 12 13  1  0
 13 14  1  6
 13 15  1  0
 15 16  1  0
 16 17  1  0
 17 18  2  0
 18 19  1  0
 19 20  1  0
 20 21  1  0
 21 22  1  0
 22 23  1  0
 22 24  1  0
 24 25  1  0
 24 26  1  0
 19 27  1  0
 27 28  1  1
 27 29  1  0
 29 30  1  0
 30 31  1  0
 31 32  1  1
  7  5  1  0
 31 10  1  0
 31 13  1  0
 27 15  1  0
 24 18  1  0
  1 33  1  0
  1 34  1  0
  1 35  1  0
  2 36  1  1
  3 37  1  0
  3 38  1  0
  4 39  1  0
  4 40  1  0
  5 41  1  1
  8 42  1  0
  8 43  1  0
  8 44  1  0
  9 45  1  0
  9 46  1  0
  9 47  1  0
 10 48  1  6
 11 49  1  0
 11 50  1  0
 12 51  1  0
 12 52  1  0
 14 53  1  0
 14 54  1  0
 14 55  1  0
 15 56  1  1
 16 57  1  0
 16 58  1  0
 17 59  1  0
 19 60  1  6
 20 61  1  0
 20 62  1  0
 21 63  1  0
 21 64  1  0
 22 65  1  6
 23 66  1  0
 25 67  1  0
 25 68  1  0
 25 69  1  0
 26 70  1  0
 26 71  1  0
 26 72  1  0
 28 73  1  0
 28 74  1  0
 28 75  1  0
 29 76  1  0
 29 77  1  0
 30 78  1  0
 30 79  1  0
 32 80  1  0
 32 81  1  0
 32 82  1  0
M  END
>  <meeko>  (12) 
{"is_sidechain": [false], "intermolecular_energy": 2.731, "internal_energy": -0.839}

$$$$
EPH_relaxed_0001_pdb2pqr_Repair_84_r2_0001_out
     RDKit          3D

 82 86  0  0  0  0  0  0  0  0999 V2000
    2.9040   19.0820   -0.9580 C   0  0  0  0  0  0  0  0  0  0  0  0
    1.3980   18.9520   -0.7120 C   0  0  2  0  0  0  0  0  0  0  0  0
    0.9140   19.8770    0.4230 C   0  0  0  0  0  0  0  0  0  0  0  0
    1.9930   20.1940    1.4620 C   0  0  0  0  0  0  0  0  0  0  0  0
    3.2580   19.4360    1.1950 C   0  0  2  0  0  0  0  0  0  0  0  0
    3.4620   18.2960    2.0400 O   0  0  0  0  0  0  0  0  0  0  0  0
    4.4130   19.3650    2.1770 C   0  0  0  0  0  0  0  0  0  0  0  0
    4.3570   20.0630    3.5000 C   0  0  0  0  0  0  0  0  0  0  0  0
    5.7760   19.0300    1.6560 C   0  0  0  0  0  0  0  0  0  0  0  0
    1.0470   17.5050   -0.3890 C   0  0  1  0  0  0  0  0  0  0  0  0
   -0.2980   17.3710    0.3730 C   0  0  0  0  0  0  0  0  0  0  0  0
   -0.9600   16.0570   -0.1140 C   0  0  0  0  0  0  0  0  0  0  0  0
    0.1610   15.3170   -0.8810 C   0  0  1  0  0  0  0  0  0  0  0  0
    1.0140   14.6230    0.2270 C   0  0  0  0  0  0  0  0  0  0  0  0
   -0.3050   14.2980   -1.9720 C   0  0  2  0  0  0  0  0  0  0  0  0
   -1.1280   13.1100   -1.4470 C   0  0  0  0  0  0  0  0  0  0  0  0
   -0.3350   11.9050   -1.0620 C   0  0  0  0  0  0  0  0  0  0  0  0
    0.9480   11.6730   -1.3970 C   0  0  0  0  0  0  0  0  0  0  0  0
    1.7050   12.6320   -2.3260 C   0  0  1  0  0  0  0  0  0  0  0  0
    2.4610   11.8160   -3.4070 C   0  0  0  0  0  0  0  0  0  0  0  0
    3.3690   10.7480   -2.8050 C   0  0  0  0  0  0  0  0  0  0  0  0
    2.5710    9.7800   -1.9360 C   0  0  2  0  0  0  0  0  0  0  0  0
    1.6840    9.0330   -2.7740 O   0  0  0  0  0  0  0  0  0  0  0  0
    1.7590   10.4890   -0.8160 C   0  0  0  0  0  0  0  0  0  0  0  0
    2.7280   11.0440    0.2570 C   0  0  0  0  0  0  0  0  0  0  0  0
    0.8900    9.4170   -0.1040 C   0  0  0  0  0  0  0  0  0  0  0  0
    0.8480   13.8190   -2.9450 C   0  0  1  0  0  0  0  0  0  0  0  0
    0.1530   13.3450   -4.2580 C   0  0  0  0  0  0  0  0  0  0  0  0
    1.8140   14.9930   -3.3520 C   0  0  0  0  0  0  0  0  0  0  0  0
    2.1410   16.0330   -2.2640 C   0  0  0  0  0  0  0  0  0  0  0  0
    0.8640   16.5340   -1.5830 C   0  0  2  0  0  0  0  0  0  0  0  0
   -0.0050   17.2560   -2.6690 C   0  0  0  0  0  0  0  0  0  0  0  0
    3.4305   19.1275    0.0067 H   0  0  0  0  0  0  0  0  0  0  0  0
    3.2588   18.2111   -1.5287 H   0  0  0  0  0  0  0  0  0  0  0  0
    3.1043   20.0008   -1.5287 H   0  0  0  0  0  0  0  0  0  0  0  0
    0.8840   19.2622   -1.6337 H   0  0  0  0  0  0  0  0  0  0  0  0
    0.5721   20.8230   -0.0221 H   0  0  0  0  0  0  0  0  0  0  0  0
    0.1079   19.3448    0.9493 H   0  0  0  0  0  0  0  0  0  0  0  0
    2.2103   21.2719    1.4331 H   0  0  0  0  0  0  0  0  0  0  0  0
    1.6157   19.8948    2.4510 H   0  0  0  0  0  0  0  0  0  0  0  0
    3.2132   19.6901    0.1257 H   0  0  0  0  0  0  0  0  0  0  0  0
    4.4166   19.3203    4.3092 H   0  0  0  0  0  0  0  0  0  0  0  0
    5.2019   20.7626    3.5815 H   0  0  0  0  0  0  0  0  0  0  0  0
    3.4114   20.6190    3.5815 H   0  0  0  0  0  0  0  0  0  0  0  0
    6.4603   18.8618    2.5007 H   0  0  0  0  0  0  0  0  0  0  0  0
    5.7202   18.1188    1.0423 H   0  0  0  0  0  0  0  0  0  0  0  0
    6.1489   19.8632    1.0423 H   0  0  0  0  0  0  0  0  0  0  0  0
    1.9385   17.2252    0.1915 H   0  0  0  0  0  0  0  0  0  0  0  0
   -0.1161   17.3242    1.4568 H   0  0  0  0  0  0  0  0  0  0  0  0
   -0.9491   18.2362    0.1793 H   0  0  0  0  0  0  0  0  0  0  0  0
   -1.3074   15.4573    0.7402 H   0  0  0  0  0  0  0  0  0  0  0  0
   -1.8434   16.2427   -0.7426 H   0  0  0  0  0  0  0  0  0  0  0  0
    0.6434   14.9246    1.2178 H   0  0  0  0  0  0  0  0  0  0  0  0
    0.9330   13.5310    0.1220 H   0  0  0  0  0  0  0  0  0  0  0  0
    2.0667   14.9244    0.1220 H   0  0  0  0  0  0  0  0  0  0  0  0
   -1.0020   14.8992   -2.5742 H   0  0  0  0  0  0  0  0  0  0  0  0
   -1.6850   13.4477   -0.5606 H   0  0  0  0  0  0  0  0  0  0  0  0
   -1.7739   12.7956   -2.2800 H   0  0  0  0  0  0  0  0  0  0  0  0
   -0.8421   11.1421   -0.4530 H   0  0  0  0  0  0  0  0  0  0  0  0
    2.4258   13.1665   -1.6897 H   0  0  0  0  0  0  0  0  0  0  0  0
    1.7231   11.3251   -4.0585 H   0  0  0  0  0  0  0  0  0  0  0  0
    3.0961   12.5156   -3.9701 H   0  0  0  0  0  0  0  0  0  0  0  0
    3.8528   10.1868   -3.6180 H   0  0  0  0  0  0  0  0  0  0  0  0
    4.1242   11.2428   -2.1767 H   0  0  0  0  0  0  0  0  0  0  0  0
    3.2910    9.1194   -1.4308 H   0  0  0  0  0  0  0  0  0  0  0  0
    0.8870    9.5710   -2.9130 H   0  0  0  0  0  0  0  0  0  0  0  0
    2.3339   10.8183    1.2589 H   0  0  0  0  0  0  0  0  0  0  0  0
    3.7156   10.5746    0.1371 H   0  0  0  0  0  0  0  0  0  0  0  0
    2.8228   12.1333    0.1371 H   0  0  0  0  0  0  0  0  0  0  0  0
    0.9843    9.5333    0.9858 H   0  0  0  0  0  0  0  0  0  0  0  0
   -0.1626    9.5447   -0.3967 H   0  0  0  0  0  0  0  0  0  0  0  0
    1.2328    8.4136   -0.3967 H   0  0  0  0  0  0  0  0  0  0  0  0
   -0.7318   12.7415   -4.0072 H   0  0  0  0  0  0  0  0  0  0  0  0
   -0.1558   14.2216   -4.8465 H   0  0  0  0  0  0  0  0  0  0  0  0
    0.8563   12.7376   -4.8465 H   0  0  0  0  0  0  0  0  0  0  0  0
    2.7635   14.5442   -3.6793 H   0  0  0  0  0  0  0  0  0  0  0  0
    1.2750   15.5518   -4.1312 H   0  0  0  0  0  0  0  0  0  0  0  0
    2.7938   15.5707   -1.5089 H   0  0  0  0  0  0  0  0  0  0  0  0
    2.6451   16.8887   -2.7370 H   0  0  0  0  0  0  0  0  0  0  0  0
   -0.7611   17.8842   -2.1754 H   0  0  0  0  0  0  0  0  0  0  0  0
    0.6420   17.8861   -3.2969 H   0  0  0  0  0  0  0  0  0  0  0  0
   -0.5059   16.5045   -3.2969 H   0  0  0  0  0  0  0  0  0  0  0  0
  1  2  1  0
  2  3  1  0
  3  4  1  0
  4  5  1  0
  5  6  1  0
  6  7  1  0
  7  8  1  0
  7  9  1  0
  2 10  1  0
 10 11  1  0
 11 12  1  0
 12 13  1  0
 13 14  1  1
 13 15  1  0
 15 16  1  0
 16 17  1  0
 17 18  2  0
 18 19  1  0
 19 20  1  0
 20 21  1  0
 21 22  1  0
 22 23  1  0
 22 24  1  0
 24 25  1  0
 24 26  1  0
 19 27  1  0
 27 28  1  6
 27 29  1  0
 29 30  1  0
 30 31  1  0
 31 32  1  6
  7  5  1  0
 31 10  1  0
 31 13  1  0
 27 15  1  0
 24 18  1  0
  1 33  1  0
  1 34  1  0
  1 35  1  0
  2 36  1  6
  3 37  1  0
  3 38  1  0
  4 39  1  0
  4 40  1  0
  5 41  1  6
  8 42  1  0
  8 43  1  0
  8 44  1  0
  9 45  1  0
  9 46  1  0
  9 47  1  0
 10 48  1  1
 11 49  1  0
 11 50  1  0
 12 51  1  0
 12 52  1  0
 14 53  1  0
 14 54  1  0
 14 55  1  0
 15 56  1  6
 16 57  1  0
 16 58  1  0
 17 59  1  0
 19 60  1  1
 20 61  1  0
 20 62  1  0
 21 63  1  0
 21 64  1  0
 22 65  1  1
 23 66  1  0
 25 67  1  0
 25 68  1  0
 25 69  1  0
 26 70  1  0
 26 71  1  0
 26 72  1  0
 28 73  1  0
 28 74  1  0
 28 75  1  0
 29 76  1  0
 29 77  1  0
 30 78  1  0
 30 79  1  0
 32 80  1  0
 32 81  1  0
 32 82  1  0
M  END
>  <meeko>  (13) 
{"is_sidechain": [false], "intermolecular_energy": 2.731, "internal_energy": -0.839}

$$$$
EPH_relaxed_0001_pdb2pqr_Repair_84_r2_0001_out
     RDKit          3D

 82 86  0  0  0  0  0  0  0  0999 V2000
    1.6480   10.7480   -4.8710 C   0  0  0  0  0  0  0  0  0  0  0  0
    0.9160   10.5910   -3.5350 C   0  0  2  0  0  0  0  0  0  0  0  0
   -0.2490    9.5850   -3.6260 C   0  0  0  0  0  0  0  0  0  0  0  0
   -0.1880    8.4750   -2.5740 C   0  0  0  0  0  0  0  0  0  0  0  0
    0.0600    9.0240   -1.2020 C   0  0  2  0  0  0  0  0  0  0  0  0
   -0.3050    8.1450   -0.1300 O   0  0  0  0  0  0  0  0  0  0  0  0
   -1.0500    9.3690   -0.2260 C   0  0  0  0  0  0  0  0  0  0  0  0
   -2.4910    9.1780   -0.5840 C   0  0  0  0  0  0  0  0  0  0  0  0
   -0.7590   10.3400    0.8750 C   0  0  0  0  0  0  0  0  0  0  0  0
    0.4000   11.9450   -3.0620 C   0  0  1  0  0  0  0  0  0  0  0  0
   -1.0280   11.8630   -2.4610 C   0  0  0  0  0  0  0  0  0  0  0  0
   -1.0880   12.8990   -1.3090 C   0  0  0  0  0  0  0  0  0  0  0  0
    0.1780   13.7660   -1.4970 C   0  0  1  0  0  0  0  0  0  0  0  0
   -0.2010   14.7940   -2.6090 C   0  0  0  0  0  0  0  0  0  0  0  0
    0.7260   14.4760   -0.2160 C   0  0  2  0  0  0  0  0  0  0  0  0
   -0.2310   15.4990    0.4220 C   0  0  0  0  0  0  0  0  0  0  0  0
   -0.0900   16.9000   -0.0740 C   0  0  0  0  0  0  0  0  0  0  0  0
    0.9500   17.3790   -0.7810 C   0  0  0  0  0  0  0  0  0  0  0  0
    2.1780   16.5040   -1.0660 C   0  0  1  0  0  0  0  0  0  0  0  0
    3.4690   17.3110   -0.7710 C   0  0  0  0  0  0  0  0  0  0  0  0
    3.5120   18.6400   -1.5210 C   0  0  0  0  0  0  0  0  0  0  0  0
    2.3060   19.5050   -1.1660 C   0  0  2  0  0  0  0  0  0  0  0  0
    2.4040   19.8920    0.2080 O   0  0  0  0  0  0  0  0  0  0  0  0
    0.9470   18.7920   -1.4130 C   0  0  0  0  0  0  0  0  0  0  0  0
    0.7060   18.6440   -2.9350 C   0  0  0  0  0  0  0  0  0  0  0  0
   -0.1810   19.7190   -0.8830 C   0  0  0  0  0  0  0  0  0  0  0  0
    2.1830   15.0710   -0.3780 C   0  0  1  0  0  0  0  0  0  0  0  0
    2.7850   15.1730    1.0570 C   0  0  0  0  0  0  0  0  0  0  0  0
    3.1330   14.1140   -1.1910 C   0  0  0  0  0  0  0  0  0  0  0  0
    2.5050   13.3490   -2.3710 C   0  0  0  0  0  0  0  0  0  0  0  0
    1.2030   12.6620   -1.9470 C   0  0  2  0  0  0  0  0  0  0  0  0
    1.5560   11.6060   -0.8450 C   0  0  0  0  0  0  0  0  0  0  0  0
    2.7079   10.9753   -4.6839 H   0  0  0  0  0  0  0  0  0  0  0  0
    1.5693    9.8126   -5.4444 H   0  0  0  0  0  0  0  0  0  0  0  0
    1.1926   11.5689   -5.4444 H   0  0  0  0  0  0  0  0  0  0  0  0
    1.6385   10.1942   -2.8067 H   0  0  0  0  0  0  0  0  0  0  0  0
   -1.1931   10.1345   -3.4965 H   0  0  0  0  0  0  0  0  0  0  0  0
   -0.1774    9.0989   -4.6102 H   0  0  0  0  0  0  0  0  0  0  0  0
   -1.1446    7.9320   -2.5730 H   0  0  0  0  0  0  0  0  0  0  0  0
    0.6457    7.8049   -2.8308 H   0  0  0  0  0  0  0  0  0  0  0  0
    0.9304    9.5926   -1.5612 H   0  0  0  0  0  0  0  0  0  0  0  0
   -3.0898    9.0986    0.3353 H   0  0  0  0  0  0  0  0  0  0  0  0
   -2.8390   10.0379   -1.1752 H   0  0  0  0  0  0  0  0  0  0  0  0
   -2.6030    8.2572   -1.1752 H   0  0  0  0  0  0  0  0  0  0  0  0
   -0.9067    9.8470    1.8472 H   0  0  0  0  0  0  0  0  0  0  0  0
    0.2822   10.6855    0.7935 H   0  0  0  0  0  0  0  0  0  0  0  0
   -1.4385   11.2012    0.7935 H   0  0  0  0  0  0  0  0  0  0  0  0
    0.4753   12.5102   -4.0027 H   0  0  0  0  0  0  0  0  0  0  0  0
   -1.7769   12.1066   -3.2290 H   0  0  0  0  0  0  0  0  0  0  0  0
   -1.2441   10.8493   -2.0925 H   0  0  0  0  0  0  0  0  0  0  0  0
   -1.9958   13.5152   -1.3880 H   0  0  0  0  0  0  0  0  0  0  0  0
   -1.1222   12.4203   -0.3192 H   0  0  0  0  0  0  0  0  0  0  0  0
   -0.5456   15.7286   -2.1423 H   0  0  0  0  0  0  0  0  0  0  0  0
    0.6805   14.9996   -3.2341 H   0  0  0  0  0  0  0  0  0  0  0  0
   -1.0049   14.3782   -3.2341 H   0  0  0  0  0  0  0  0  0  0  0  0
    0.7985   13.6456    0.5018 H   0  0  0  0  0  0  0  0  0  0  0  0
   -1.2617   15.1702    0.2232 H   0  0  0  0  0  0  0  0  0  0  0  0
    0.0237   15.5279    1.4917 H   0  0  0  0  0  0  0  0  0  0  0  0
   -0.9057   17.6004    0.1582 H   0  0  0  0  0  0  0  0  0  0  0  0
    2.1312   16.2538   -2.1361 H   0  0  0  0  0  0  0  0  0  0  0  0
    3.5193   17.5137    0.3090 H   0  0  0  0  0  0  0  0  0  0  0  0
    4.3246   16.7083   -1.1097 H   0  0  0  0  0  0  0  0  0  0  0  0
    4.4328   19.1771   -1.2496 H   0  0  0  0  0  0  0  0  0  0  0  0
    3.4913   18.4346   -2.6015 H   0  0  0  0  0  0  0  0  0  0  0  0
    2.3240   20.3835   -1.8277 H   0  0  0  0  0  0  0  0  0  0  0  0
    1.5130   20.1380    0.5080 H   0  0  0  0  0  0  0  0  0  0  0  0
   -0.2200   18.0754   -3.1060 H   0  0  0  0  0  0  0  0  0  0  0  0
    0.6133   19.6411   -3.3902 H   0  0  0  0  0  0  0  0  0  0  0  0
    1.5534   18.1104   -3.3902 H   0  0  0  0  0  0  0  0  0  0  0  0
   -0.1739   19.7131    0.2170 H   0  0  0  0  0  0  0  0  0  0  0  0
   -0.0137   20.7441   -1.2453 H   0  0  0  0  0  0  0  0  0  0  0  0
   -1.1542   19.3563   -1.2453 H   0  0  0  0  0  0  0  0  0  0  0  0
    1.9857   15.0376    1.8004 H   0  0  0  0  0  0  0  0  0  0  0  0
    3.5470   14.3912    1.1914 H   0  0  0  0  0  0  0  0  0  0  0  0
    3.2469   16.1622    1.1914 H   0  0  0  0  0  0  0  0  0  0  0  0
    3.9566   14.7239   -1.5906 H   0  0  0  0  0  0  0  0  0  0  0  0
    3.4393   13.3370   -0.4751 H   0  0  0  0  0  0  0  0  0  0  0  0
    2.2901   14.0566   -3.1853 H   0  0  0  0  0  0  0  0  0  0  0  0
    3.2147   12.5791   -2.7080 H   0  0  0  0  0  0  0  0  0  0  0  0
    1.4073   12.0507    0.1500 H   0  0  0  0  0  0  0  0  0  0  0  0
    0.9025   10.7281   -0.9556 H   0  0  0  0  0  0  0  0  0  0  0  0
    2.6061   11.2976   -0.9556 H   0  0  0  0  0  0  0  0  0  0  0  0
  1  2  1  0
  2  3  1  0
  3  4  1  0
  4  5  1  0
  5  6  1  0
  6  7  1  0
  7  8  1  0
  7  9  1  0
  2 10  1  0
 10 11  1  0
 11 12  1  0
 12 13  1  0
 13 14  1  6
 13 15  1  0
 15 16  1  0
 16 17  1  0
 17 18  2  0
 18 19  1  0
 19 20  1  0
 20 21  1  0
 21 22  1  0
 22 23  1  0
 22 24  1  0
 24 25  1  0
 24 26  1  0
 19 27  1  0
 27 28  1  1
 27 29  1  0
 29 30  1  0
 30 31  1  0
 31 32  1  1
  7  5  1  0
 31 10  1  0
 31 13  1  0
 27 15  1  0
 24 18  1  0
  1 33  1  0
  1 34  1  0
  1 35  1  0
  2 36  1  1
  3 37  1  0
  3 38  1  0
  4 39  1  0
  4 40  1  0
  5 41  1  6
  8 42  1  0
  8 43  1  0
  8 44  1  0
  9 45  1  0
  9 46  1  0
  9 47  1  0
 10 48  1  6
 11 49  1  0
 11 50  1  0
 12 51  1  0
 12 52  1  0
 14 53  1  0
 14 54  1  0
 14 55  1  0
 15 56  1  1
 16 57  1  0
 16 58  1  0
 17 59  1  0
 19 60  1  6
 20 61  1  0
 20 62  1  0
 21 63  1  0
 21 64  1  0
 22 65  1  6
 23 66  1  0
 25 67  1  0
 25 68  1  0
 25 69  1  0
 26 70  1  0
 26 71  1  0
 26 72  1  0
 28 73  1  0
 28 74  1  0
 28 75  1  0
 29 76  1  0
 29 77  1  0
 30 78  1  0
 30 79  1  0
 32 80  1  0
 32 81  1  0
 32 82  1  0
M  END
>  <meeko>  (14) 
{"is_sidechain": [false], "intermolecular_energy": 2.731, "internal_energy": -0.839}

$$$$
EPH_relaxed_0001_pdb2pqr_Repair_84_r2_0001_out
     RDKit          3D

 82 86  0  0  0  0  0  0  0  0999 V2000
   -2.2240    7.8150   -2.1350 C   0  0  0  0  0  0  0  0  0  0  0  0
   -2.2790    8.4610   -0.7480 C   0  0  2  0  0  0  0  0  0  0  0  0
   -3.7080    8.4680   -0.1670 C   0  0  0  0  0  0  0  0  0  0  0  0
   -4.7560    9.0490   -1.1190 C   0  0  0  0  0  0  0  0  0  0  0  0
   -6.0270    8.2540   -1.0960 C   0  0  2  0  0  0  0  0  0  0  0  0
   -5.8520    6.8510   -0.8580 O   0  0  0  0  0  0  0  0  0  0  0  0
   -6.3840    7.2150   -2.1420 C   0  0  0  0  0  0  0  0  0  0  0  0
   -5.4680    6.9150   -3.2870 C   0  0  0  0  0  0  0  0  0  0  0  0
   -7.8230    6.8480   -2.3250 C   0  0  0  0  0  0  0  0  0  0  0  0
   -1.7380    9.8840   -0.8150 C   0  0  1  0  0  0  0  0  0  0  0  0
   -1.2800   10.4150    0.5690 C   0  0  0  0  0  0  0  0  0  0  0  0
   -0.0510   11.3250    0.3150 C   0  0  0  0  0  0  0  0  0  0  0  0
   -0.0440   11.5540   -1.2150 C   0  0  1  0  0  0  0  0  0  0  0  0
   -1.0910   12.6860   -1.4560 C   0  0  0  0  0  0  0  0  0  0  0  0
    1.3390   11.9000   -1.8550 C   0  0  2  0  0  0  0  0  0  0  0  0
    1.9750   13.2130   -1.3660 C   0  0  0  0  0  0  0  0  0  0  0  0
    1.6200   14.4280   -2.1570 C   0  0  0  0  0  0  0  0  0  0  0  0
    1.0570   14.4280   -3.3800 C   0  0  0  0  0  0  0  0  0  0  0  0
    0.8090   13.1140   -4.1330 C   0  0  1  0  0  0  0  0  0  0  0  0
    1.2920   13.2590   -5.6000 C   0  0  0  0  0  0  0  0  0  0  0  0
    0.6700   14.4620   -6.3040 C   0  0  0  0  0  0  0  0  0  0  0  0
    0.9880   15.7550   -5.5580 C   0  0  2  0  0  0  0  0  0  0  0  0
    2.3940   16.0050   -5.6460 O   0  0  0  0  0  0  0  0  0  0  0  0
    0.5550   15.7230   -4.0650 C   0  0  0  0  0  0  0  0  0  0  0  0
   -0.9900   15.7550   -3.9700 C   0  0  0  0  0  0  0  0  0  0  0  0
    1.0590   17.0290   -3.3940 C   0  0  0  0  0  0  0  0  0  0  0  0
    1.3650   11.7990   -3.4340 C   0  0  1  0  0  0  0  0  0  0  0  0
    2.8530   11.5700   -3.8410 C   0  0  0  0  0  0  0  0  0  0  0  0
    0.5620   10.5550   -3.9680 C   0  0  0  0  0  0  0  0  0  0  0  0
   -0.7340   10.1910   -3.2190 C   0  0  0  0  0  0  0  0  0  0  0  0
   -0.4950   10.1300   -1.7070 C   0  0  2  0  0  0  0  0  0  0  0  0
    0.5380    8.9840   -1.4320 C   0  0  0  0  0  0  0  0  0  0  0  0
   -2.1311    6.7242   -2.0280 H   0  0  0  0  0  0  0  0  0  0  0  0
   -3.1456    8.0522   -2.6868 H   0  0  0  0  0  0  0  0  0  0  0  0
   -1.3558    8.2045   -2.6868 H   0  0  0  0  0  0  0  0  0  0  0  0
   -1.6519    7.8561   -0.0766 H   0  0  0  0  0  0  0  0  0  0  0  0
   -3.9913    7.4321    0.0710 H   0  0  0  0  0  0  0  0  0  0  0  0
   -3.6898    9.1132    0.7237 H   0  0  0  0  0  0  0  0  0  0  0  0
   -4.9770   10.0835   -0.8175 H   0  0  0  0  0  0  0  0  0  0  0  0
   -4.3484    9.0147   -2.1401 H   0  0  0  0  0  0  0  0  0  0  0  0
   -6.5826    9.1114   -0.6883 H   0  0  0  0  0  0  0  0  0  0  0  0
   -4.4896    6.5946   -2.8996 H   0  0  0  0  0  0  0  0  0  0  0  0
   -5.9001    6.1114   -3.9015 H   0  0  0  0  0  0  0  0  0  0  0  0
   -5.3410    7.8185   -3.9015 H   0  0  0  0  0  0  0  0  0  0  0  0
   -8.2985    6.7267   -1.3405 H   0  0  0  0  0  0  0  0  0  0  0  0
   -8.3361    7.6440   -2.8845 H   0  0  0  0  0  0  0  0  0  0  0  0
   -7.8922    5.9035   -2.8845 H   0  0  0  0  0  0  0  0  0  0  0  0
   -2.6143   10.3950   -1.2404 H   0  0  0  0  0  0  0  0  0  0  0  0
   -2.0888   10.9935    1.0393 H   0  0  0  0  0  0  0  0  0  0  0  0
   -1.0243    9.5858    1.2451 H   0  0  0  0  0  0  0  0  0  0  0  0
   -0.1579   12.2801    0.8501 H   0  0  0  0  0  0  0  0  0  0  0  0
    0.8849   10.8712    0.6730 H   0  0  0  0  0  0  0  0  0  0  0  0
   -1.4457   13.0695   -0.4880 H   0  0  0  0  0  0  0  0  0  0  0  0
   -0.6233   13.5030   -2.0249 H   0  0  0  0  0  0  0  0  0  0  0  0
   -1.9420   12.2833   -2.0249 H   0  0  0  0  0  0  0  0  0  0  0  0
    1.9838   11.0954   -1.4719 H   0  0  0  0  0  0  0  0  0  0  0  0
    1.6552   13.3789   -0.3267 H   0  0  0  0  0  0  0  0  0  0  0  0
    3.0617   13.0844   -1.4780 H   0  0  0  0  0  0  0  0  0  0  0  0
    1.8366   15.4059   -1.7024 H   0  0  0  0  0  0  0  0  0  0  0  0
   -0.2788   12.9521   -4.1128 H   0  0  0  0  0  0  0  0  0  0  0  0
    2.3857   13.3762   -5.6013 H   0  0  0  0  0  0  0  0  0  0  0  0
    0.9814   12.3554   -6.1450 H   0  0  0  0  0  0  0  0  0  0  0  0
    1.0712   14.5281   -7.3261 H   0  0  0  0  0  0  0  0  0  0  0  0
   -0.4217   14.3294   -6.3272 H   0  0  0  0  0  0  0  0  0  0  0  0
    0.4112   16.5612   -6.0349 H   0  0  0  0  0  0  0  0  0  0  0  0
    2.7990   15.2480   -6.1020 H   0  0  0  0  0  0  0  0  0  0  0  0
   -1.2923   15.7613   -2.9124 H   0  0  0  0  0  0  0  0  0  0  0  0
   -1.3691   16.6612   -4.4651 H   0  0  0  0  0  0  0  0  0  0  0  0
   -1.4063   14.8653   -4.4651 H   0  0  0  0  0  0  0  0  0  0  0  0
    1.0166   16.9193   -2.3003 H   0  0  0  0  0  0  0  0  0  0  0  0
    2.0967   17.2232   -3.7031 H   0  0  0  0  0  0  0  0  0  0  0  0
    0.4208   17.8699   -3.7031 H   0  0  0  0  0  0  0  0  0  0  0  0
    3.4703   11.4750   -2.9355 H   0  0  0  0  0  0  0  0  0  0  0  0
    2.9325   10.6490   -4.4373 H   0  0  0  0  0  0  0  0  0  0  0  0
    3.2057   12.4244   -4.4373 H   0  0  0  0  0  0  0  0  0  0  0  0
    0.2953   10.7560   -5.0161 H   0  0  0  0  0  0  0  0  0  0  0  0
    1.2315    9.6950   -3.8194 H   0  0  0  0  0  0  0  0  0  0  0  0
   -1.4987   10.9525   -3.4320 H   0  0  0  0  0  0  0  0  0  0  0  0
   -1.0705    9.2012   -3.5611 H   0  0  0  0  0  0  0  0  0  0  0  0
    0.6578    8.8511   -0.3467 H   0  0  0  0  0  0  0  0  0  0  0  0
    0.1735    8.0469   -1.8782 H   0  0  0  0  0  0  0  0  0  0  0  0
    1.5077    9.2496   -1.8782 H   0  0  0  0  0  0  0  0  0  0  0  0
  1  2  1  0
  2  3  1  0
  3  4  1  0
  4  5  1  0
  5  6  1  0
  6  7  1  0
  7  8  1  0
  7  9  1  0
  2 10  1  0
 10 11  1  0
 11 12  1  0
 12 13  1  0
 13 14  1  1
 13 15  1  0
 15 16  1  0
 16 17  1  0
 17 18  2  0
 18 19  1  0
 19 20  1  0
 20 21  1  0
 21 22  1  0
 22 23  1  0
 22 24  1  0
 24 25  1  0
 24 26  1  0
 19 27  1  0
 27 28  1  6
 27 29  1  0
 29 30  1  0
 30 31  1  0
 31 32  1  6
  7  5  1  0
 31 10  1  0
 31 13  1  0
 27 15  1  0
 24 18  1  0
  1 33  1  0
  1 34  1  0
  1 35  1  0
  2 36  1  1
  3 37  1  0
  3 38  1  0
  4 39  1  0
  4 40  1  0
  5 41  1  1
  8 42  1  0
  8 43  1  0
  8 44  1  0
  9 45  1  0
  9 46  1  0
  9 47  1  0
 10 48  1  6
 11 49  1  0
 11 50  1  0
 12 51  1  0
 12 52  1  0
 14 53  1  0
 14 54  1  0
 14 55  1  0
 15 56  1  1
 16 57  1  0
 16 58  1  0
 17 59  1  0
 19 60  1  6
 20 61  1  0
 20 62  1  0
 21 63  1  0
 21 64  1  0
 22 65  1  6
 23 66  1  0
 25 67  1  0
 25 68  1  0
 25 69  1  0
 26 70  1  0
 26 71  1  0
 26 72  1  0
 28 73  1  0
 28 74  1  0
 28 75  1  0
 29 76  1  0
 29 77  1  0
 30 78  1  0
 30 79  1  0
 32 80  1  0
 32 81  1  0
 32 82  1  0
M  END
>  <meeko>  (15) 
{"is_sidechain": [false], "intermolecular_energy": 2.731, "internal_energy": -0.839}

$$$$
EPH_relaxed_0001_pdb2pqr_Repair_84_r2_0001_out
     RDKit          3D

 82 86  0  0  0  0  0  0  0  0999 V2000
    0.9070    9.5250    0.0350 C   0  0  0  0  0  0  0  0  0  0  0  0
   -0.3170   10.4280    0.2100 C   0  0  2  0  0  0  0  0  0  0  0  0
   -1.2050   10.4520   -1.0510 C   0  0  0  0  0  0  0  0  0  0  0  0
   -0.6620    9.6000   -2.2020 C   0  0  0  0  0  0  0  0  0  0  0  0
   -0.4590   10.4130   -3.4450 C   0  0  2  0  0  0  0  0  0  0  0  0
    0.1770    9.7110   -4.5220 O   0  0  0  0  0  0  0  0  0  0  0  0
    0.9080   10.8160   -3.9660 C   0  0  0  0  0  0  0  0  0  0  0  0
    2.1630   10.4190   -3.2540 C   0  0  0  0  0  0  0  0  0  0  0  0
    1.0050   11.9970   -4.8820 C   0  0  0  0  0  0  0  0  0  0  0  0
    0.1260   11.8420    0.5620 C   0  0  1  0  0  0  0  0  0  0  0  0
    1.2790   11.8660    1.6010 C   0  0  0  0  0  0  0  0  0  0  0  0
    2.1850   13.0710    1.2370 C   0  0  0  0  0  0  0  0  0  0  0  0
    1.3550   13.8890    0.2210 C   0  0  1  0  0  0  0  0  0  0  0  0
    0.3700   14.7310    1.0910 C   0  0  0  0  0  0  0  0  0  0  0  0
    2.1660   14.7900   -0.7670 C   0  0  2  0  0  0  0  0  0  0  0  0
    2.9920   15.9060   -0.1040 C   0  0  0  0  0  0  0  0  0  0  0  0
    2.2840   17.2100    0.0610 C   0  0  0  0  0  0  0  0  0  0  0  0
    1.1430   17.5650   -0.5580 C   0  0  0  0  0  0  0  0  0  0  0  0
    0.4970   16.6480   -1.6050 C   0  0  1  0  0  0  0  0  0  0  0  0
    0.0980   17.4840   -2.8490 C   0  0  0  0  0  0  0  0  0  0  0  0
   -0.7850   18.6770   -2.4940 C   0  0  0  0  0  0  0  0  0  0  0  0
   -0.0840   19.5950   -1.4960 C   0  0  2  0  0  0  0  0  0  0  0  0
    1.0470   20.1940   -2.1350 O   0  0  0  0  0  0  0  0  0  0  0  0
    0.3730   18.8610   -0.2040 C   0  0  0  0  0  0  0  0  0  0  0  0
   -0.8660   18.4750    0.6410 C   0  0  0  0  0  0  0  0  0  0  0  0
    1.1880   19.8660    0.6530 C   0  0  0  0  0  0  0  0  0  0  0  0
    1.3190   15.3420   -1.9850 C   0  0  1  0  0  0  0  0  0  0  0  0
    2.3350   15.6650   -3.1230 C   0  0  0  0  0  0  0  0  0  0  0  0
    0.3310   14.2630   -2.5650 C   0  0  0  0  0  0  0  0  0  0  0  0
   -0.3480   13.3250   -1.5480 C   0  0  0  0  0  0  0  0  0  0  0  0
    0.6800   12.7210   -0.5870 C   0  0  2  0  0  0  0  0  0  0  0  0
    1.6720   11.8510   -1.4320 C   0  0  0  0  0  0  0  0  0  0  0  0
    1.2955    9.2384    1.0234 H   0  0  0  0  0  0  0  0  0  0  0  0
    0.6192    8.6212   -0.5221 H   0  0  0  0  0  0  0  0  0  0  0  0
    1.6856   10.0667   -0.5221 H   0  0  0  0  0  0  0  0  0  0  0  0
   -0.9200   10.0130    1.0310 H   0  0  0  0  0  0  0  0  0  0  0  0
   -2.2025   10.0754   -0.7806 H   0  0  0  0  0  0  0  0  0  0  0  0
   -1.2316   11.4928   -1.4059 H   0  0  0  0  0  0  0  0  0  0  0  0
    0.3017    9.1645   -1.8994 H   0  0  0  0  0  0  0  0  0  0  0  0
   -1.3979    8.8129   -2.4231 H   0  0  0  0  0  0  0  0  0  0  0  0
   -1.3726   10.9920   -3.2447 H   0  0  0  0  0  0  0  0  0  0  0  0
    2.0000   10.4705   -2.1674 H   0  0  0  0  0  0  0  0  0  0  0  0
    2.4348    9.3910   -3.5356 H   0  0  0  0  0  0  0  0  0  0  0  0
    2.9766   11.1036   -3.5356 H   0  0  0  0  0  0  0  0  0  0  0  0
    1.0807   12.9183   -4.2857 H   0  0  0  0  0  0  0  0  0  0  0  0
    1.8979   11.8965   -5.5165 H   0  0  0  0  0  0  0  0  0  0  0  0
    0.1077   12.0436   -5.5165 H   0  0  0  0  0  0  0  0  0  0  0  0
   -0.8304   12.2502    0.9206 H   0  0  0  0  0  0  0  0  0  0  0  0
    0.8722   11.9909    2.6154 H   0  0  0  0  0  0  0  0  0  0  0  0
    1.8476   10.9245    1.5815 H   0  0  0  0  0  0  0  0  0  0  0  0
    2.4084   13.6729    2.1302 H   0  0  0  0  0  0  0  0  0  0  0  0
    3.1548   12.7548    0.8254 H   0  0  0  0  0  0  0  0  0  0  0  0
    0.5780   14.5532    2.1564 H   0  0  0  0  0  0  0  0  0  0  0  0
    0.5025   15.7993    0.8649 H   0  0  0  0  0  0  0  0  0  0  0  0
   -0.6647   14.4339    0.8649 H   0  0  0  0  0  0  0  0  0  0  0  0
    2.8993   14.0835   -1.1830 H   0  0  0  0  0  0  0  0  0  0  0  0
    3.2975   15.5563    0.8932 H   0  0  0  0  0  0  0  0  0  0  0  0
    3.8376   16.1017   -0.7798 H   0  0  0  0  0  0  0  0  0  0  0  0
    2.7333   17.9431    0.7470 H   0  0  0  0  0  0  0  0  0  0  0  0
   -0.4037   16.2315   -1.1304 H   0  0  0  0  0  0  0  0  0  0  0  0
    1.0135   17.8547   -3.3331 H   0  0  0  0  0  0  0  0  0  0  0  0
   -0.4785   16.8300   -3.5198 H   0  0  0  0  0  0  0  0  0  0  0  0
   -1.0092   19.2443   -3.4094 H   0  0  0  0  0  0  0  0  0  0  0  0
   -1.7132   18.3038   -2.0366 H   0  0  0  0  0  0  0  0  0  0  0  0
   -0.8122   20.3574   -1.1823 H   0  0  0  0  0  0  0  0  0  0  0  0
    1.7000   20.3990   -1.4450 H   0  0  0  0  0  0  0  0  0  0  0  0
   -0.6191   18.5519    1.7102 H   0  0  0  0  0  0  0  0  0  0  0  0
   -1.6967   19.1569    0.4065 H   0  0  0  0  0  0  0  0  0  0  0  0
   -1.1624   17.4419    0.4065 H   0  0  0  0  0  0  0  0  0  0  0  0
    1.0198   19.6586    1.7201 H   0  0  0  0  0  0  0  0  0  0  0  0
    2.2585   19.7601    0.4232 H   0  0  0  0  0  0  0  0  0  0  0  0
    0.8633   20.8915    0.4232 H   0  0  0  0  0  0  0  0  0  0  0  0
    3.2952   15.9703   -2.6815 H   0  0  0  0  0  0  0  0  0  0  0  0
    2.4854   14.7704   -3.7451 H   0  0  0  0  0  0  0  0  0  0  0  0
    1.9411   16.4822   -3.7451 H   0  0  0  0  0  0  0  0  0  0  0  0
   -0.4633   14.7965   -3.1076 H   0  0  0  0  0  0  0  0  0  0  0  0
    0.9553   13.6071   -3.1896 H   0  0  0  0  0  0  0  0  0  0  0  0
   -1.0884   13.8971   -0.9696 H   0  0  0  0  0  0  0  0  0  0  0  0
   -0.8367   12.5071   -2.0977 H   0  0  0  0  0  0  0  0  0  0  0  0
    2.3246   11.2786   -0.7564 H   0  0  0  0  0  0  0  0  0  0  0  0
    1.1017   11.1565   -2.0664 H   0  0  0  0  0  0  0  0  0  0  0  0
    2.2861   12.5070   -2.0664 H   0  0  0  0  0  0  0  0  0  0  0  0
  1  2  1  0
  2  3  1  0
  3  4  1  0
  4  5  1  0
  5  6  1  0
  6  7  1  0
  7  8  1  0
  7  9  1  0
  2 10  1  0
 10 11  1  0
 11 12  1  0
 12 13  1  0
 13 14  1  1
 13 15  1  0
 15 16  1  0
 16 17  1  0
 17 18  2  0
 18 19  1  0
 19 20  1  0
 20 21  1  0
 21 22  1  0
 22 23  1  0
 22 24  1  0
 24 25  1  0
 24 26  1  0
 19 27  1  0
 27 28  1  6
 27 29  1  0
 29 30  1  0
 30 31  1  0
 31 32  1  6
  7  5  1  0
 31 10  1  0
 31 13  1  0
 27 15  1  0
 24 18  1  0
  1 33  1  0
  1 34  1  0
  1 35  1  0
  2 36  1  1
  3 37  1  0
  3 38  1  0
  4 39  1  0
  4 40  1  0
  5 41  1  6
  8 42  1  0
  8 43  1  0
  8 44  1  0
  9 45  1  0
  9 46  1  0
  9 47  1  0
 10 48  1  1
 11 49  1  0
 11 50  1  0
 12 51  1  0
 12 52  1  0
 14 53  1  0
 14 54  1  0
 14 55  1  0
 15 56  1  6
 16 57  1  0
 16 58  1  0
 17 59  1  0
 19 60  1  1
 20 61  1  0
 20 62  1  0
 21 63  1  0
 21 64  1  0
 22 65  1  1
 23 66  1  0
 25 67  1  0
 25 68  1  0
 25 69  1  0
 26 70  1  0
 26 71  1  0
 26 72  1  0
 28 73  1  0
 28 74  1  0
 28 75  1  0
 29 76  1  0
 29 77  1  0
 30 78  1  0
 30 79  1  0
 32 80  1  0
 32 81  1  0
 32 82  1  0
M  END
>  <meeko>  (16) 
{"is_sidechain": [false], "intermolecular_energy": 2.731, "internal_energy": -0.839}

$$$$
