EPH_relaxed_0001_pdb2pqr_Repair_114_r2_0001_out
     RDKit          3D

 82 86  0  0  0  0  0  0  0  0999 V2000
    0.3880   18.2940   -0.0160 C   0  0  0  0  0  0  0  0  0  0  0  0
    1.4710   17.2380   -0.2550 C   0  0  2  0  0  0  0  0  0  0  0  0
    2.6720   17.8050   -1.0370 C   0  0  0  0  0  0  0  0  0  0  0  0
    3.9110   18.0470   -0.1710 C   0  0  0  0  0  0  0  0  0  0  0  0
    3.5450   18.5390    1.1960 C   0  0  2  0  0  0  0  0  0  0  0  0
    3.7530   19.9430    1.4030 O   0  0  0  0  0  0  0  0  0  0  0  0
    4.5590   19.0580    2.1990 C   0  0  0  0  0  0  0  0  0  0  0  0
    6.0190   19.1090    1.8760 C   0  0  0  0  0  0  0  0  0  0  0  0
    4.1950   19.0540    3.6510 C   0  0  0  0  0  0  0  0  0  0  0  0
    0.8800   16.0470   -1.0000 C   0  0  1  0  0  0  0  0  0  0  0  0
    0.7050   16.3180   -2.5180 C   0  0  0  0  0  0  0  0  0  0  0  0
    0.9790   14.9770   -3.2460 C   0  0  0  0  0  0  0  0  0  0  0  0
    0.9730   13.9150   -2.1220 C   0  0  1  0  0  0  0  0  0  0  0  0
   -0.5360   13.6110   -1.8640 C   0  0  0  0  0  0  0  0  0  0  0  0
    1.7850   12.6080   -2.4030 C   0  0  2  0  0  0  0  0  0  0  0  0
    1.2830   11.7710   -3.5930 C   0  0  0  0  0  0  0  0  0  0  0  0
    0.2650   10.7320   -3.2580 C   0  0  0  0  0  0  0  0  0  0  0  0
   -0.0190   10.2860   -2.0200 C   0  0  0  0  0  0  0  0  0  0  0  0
    0.7860   10.7670   -0.8050 C   0  0  1  0  0  0  0  0  0  0  0  0
    1.1720    9.5490    0.0740 C   0  0  0  0  0  0  0  0  0  0  0  0
   -0.0360    8.7070    0.4710 C   0  0  0  0  0  0  0  0  0  0  0  0
   -0.7770    8.1990   -0.7630 C   0  0  2  0  0  0  0  0  0  0  0  0
    0.0650    7.2720   -1.4570 O   0  0  0  0  0  0  0  0  0  0  0  0
   -1.2080    9.3370   -1.7300 C   0  0  0  0  0  0  0  0  0  0  0  0
   -2.3450   10.1660   -1.0830 C   0  0  0  0  0  0  0  0  0  0  0  0
   -1.8170    8.6810   -2.9990 C   0  0  0  0  0  0  0  0  0  0  0  0
    2.0260   11.7080   -1.1240 C   0  0  1  0  0  0  0  0  0  0  0  0
    3.2890   10.8420   -1.4210 C   0  0  0  0  0  0  0  0  0  0  0  0
    2.3650   12.5620    0.1540 C   0  0  0  0  0  0  0  0  0  0  0  0
    1.6170   13.9000    0.3140 C   0  0  0  0  0  0  0  0  0  0  0  0
    1.6840   14.7230   -0.9770 C   0  0  2  0  0  0  0  0  0  0  0  0
    3.1890   15.0620   -1.2500 C   0  0  0  0  0  0  0  0  0  0  0  0
    0.2446   18.4338    1.0656 H   0  0  0  0  0  0  0  0  0  0  0  0
    0.6978   19.2464   -0.4710 H   0  0  0  0  0  0  0  0  0  0  0  0
   -0.5563   17.9603   -0.4710 H   0  0  0  0  0  0  0  0  0  0  0  0
    1.8409   16.9147    0.7292 H   0  0  0  0  0  0  0  0  0  0  0  0
    2.9373   17.0917   -1.8313 H   0  0  0  0  0  0  0  0  0  0  0  0
    2.3631   18.7822   -1.4367 H   0  0  0  0  0  0  0  0  0  0  0  0
    4.4671   17.1030   -0.0729 H   0  0  0  0  0  0  0  0  0  0  0  0
    4.5252   18.8178   -0.6595 H   0  0  0  0  0  0  0  0  0  0  0  0
    2.7451   17.7883    1.2771 H   0  0  0  0  0  0  0  0  0  0  0  0
    6.6006   19.1293    2.8095 H   0  0  0  0  0  0  0  0  0  0  0  0
    6.2963   18.2200    1.2905 H   0  0  0  0  0  0  0  0  0  0  0  0
    6.2336   20.0152    1.2905 H   0  0  0  0  0  0  0  0  0  0  0  0
    5.1117   19.0641    4.2589 H   0  0  0  0  0  0  0  0  0  0  0  0
    3.5930   19.9456    3.8806 H   0  0  0  0  0  0  0  0  0  0  0  0
    3.6128   18.1494    3.8806 H   0  0  0  0  0  0  0  0  0  0  0  0
   -0.0586   15.9271   -0.4391 H   0  0  0  0  0  0  0  0  0  0  0  0
   -0.3197   16.6596   -2.7262 H   0  0  0  0  0  0  0  0  0  0  0  0
    1.3956   17.1023   -2.8615 H   0  0  0  0  0  0  0  0  0  0  0  0
    0.1899   14.7669   -3.9830 H   0  0  0  0  0  0  0  0  0  0  0  0
    1.9279   14.9905   -3.8023 H   0  0  0  0  0  0  0  0  0  0  0  0
   -0.7224   13.5734   -0.7806 H   0  0  0  0  0  0  0  0  0  0  0  0
   -1.1519   14.4031   -2.3148 H   0  0  0  0  0  0  0  0  0  0  0  0
   -0.7972   12.6422   -2.3148 H   0  0  0  0  0  0  0  0  0  0  0  0
    2.7666   13.0004   -2.7071 H   0  0  0  0  0  0  0  0  0  0  0  0
    0.8382   12.4580   -4.3280 H   0  0  0  0  0  0  0  0  0  0  0  0
    2.1598   11.2262   -3.9730 H   0  0  0  0  0  0  0  0  0  0  0  0
   -0.3009   10.2938   -4.0933 H   0  0  0  0  0  0  0  0  0  0  0  0
    0.1188   11.4366   -0.2424 H   0  0  0  0  0  0  0  0  0  0  0  0
    1.8731    8.9158   -0.4894 H   0  0  0  0  0  0  0  0  0  0  0  0
    1.6274    9.9353    0.9978 H   0  0  0  0  0  0  0  0  0  0  0  0
    0.3048    7.8466    1.0657 H   0  0  0  0  0  0  0  0  0  0  0  0
   -0.7225    9.3338    1.0591 H   0  0  0  0  0  0  0  0  0  0  0  0
   -1.7016    7.7142   -0.4165 H   0  0  0  0  0  0  0  0  0  0  0  0
   -0.4680    6.8580   -2.1560 H   0  0  0  0  0  0  0  0  0  0  0  0
   -2.2641   10.1070    0.0124 H   0  0  0  0  0  0  0  0  0  0  0  0
   -2.2601   11.2156   -1.4010 H   0  0  0  0  0  0  0  0  0  0  0  0
   -3.3184    9.7642   -1.4010 H   0  0  0  0  0  0  0  0  0  0  0  0
   -2.5374    7.9050   -2.7008 H   0  0  0  0  0  0  0  0  0  0  0  0
   -2.3307    9.4477   -3.5975 H   0  0  0  0  0  0  0  0  0  0  0  0
   -1.0143    8.2256   -3.5975 H   0  0  0  0  0  0  0  0  0  0  0  0
    3.7487   10.5268   -0.4727 H   0  0  0  0  0  0  0  0  0  0  0  0
    2.9965    9.9535   -1.9999 H   0  0  0  0  0  0  0  0  0  0  0  0
    4.0124   11.4350   -1.9999 H   0  0  0  0  0  0  0  0  0  0  0  0
    2.1370   11.9457    1.0362 H   0  0  0  0  0  0  0  0  0  0  0  0
    3.4247   12.8359    0.0445 H   0  0  0  0  0  0  0  0  0  0  0  0
    0.5636   13.6967    0.5570 H   0  0  0  0  0  0  0  0  0  0  0  0
    2.0942   14.4745    1.1216 H   0  0  0  0  0  0  0  0  0  0  0  0
    3.7175   15.1811   -0.2927 H   0  0  0  0  0  0  0  0  0  0  0  0
    3.6504   14.2453   -1.8245 H   0  0  0  0  0  0  0  0  0  0  0  0
    3.2557   15.9977   -1.8245 H   0  0  0  0  0  0  0  0  0  0  0  0
  1  2  1  0
  2  3  1  0
  3  4  1  0
  4  5  1  0
  5  6  1  0
  6  7  1  0
  7  8  1  0
  7  9  1  0
  2 10  1  0
 10 11  1  0
 11 12  1  0
 12 13  1  0
 13 14  1  1
 13 15  1  0
 15 16  1  0
 16 17  1  0
 17 18  2  0
 18 19  1  0
 19 20  1  0
 20 21  1  0
 21 22  1  0
 22 23  1  0
 22 24  1  0
 24 25  1  0
 24 26  1  0
 19 27  1  0
 27 28  1  6
 27 29  1  0
 29 30  1  0
 30 31  1  0
 31 32  1  6
  7  5  1  0
 31 10  1  0
 31 13  1  0
 27 15  1  0
 24 18  1  0
  1 33  1  0
  1 34  1  0
  1 35  1  0
  2 36  1  1
  3 37  1  0
  3 38  1  0
  4 39  1  0
  4 40  1  0
  5 41  1  1
  8 42  1  0
  8 43  1  0
  8 44  1  0
  9 45  1  0
  9 46  1  0
  9 47  1  0
 10 48  1  1
 11 49  1  0
 11 50  1  0
 12 51  1  0
 12 52  1  0
 14 53  1  0
 14 54  1  0
 14 55  1  0
 15 56  1  6
 16 57  1  0
 16 58  1  0
 17 59  1  0
 19 60  1  1
 20 61  1  0
 20 62  1  0
 21 63  1  0
 21 64  1  0
 22 65  1  1
 23 66  1  0
 25 67  1  0
 25 68  1  0
 25 69  1  0
 26 70  1  0
 26 71  1  0
 26 72  1  0
 28 73  1  0
 28 74  1  0
 28 75  1  0
 29 76  1  0
 29 77  1  0
 30 78  1  0
 30 79  1  0
 32 80  1  0
 32 81  1  0
 32 82  1  0
M  END
>  <meeko>  (1) 
{"is_sidechain": [false], "intermolecular_energy": 2.731, "internal_energy": -0.839}

$$$$
EPH_relaxed_0001_pdb2pqr_Repair_114_r2_0001_out
     RDKit          3D

 82 86  0  0  0  0  0  0  0  0999 V2000
   -1.7810    8.6620   -1.9760 C   0  0  0  0  0  0  0  0  0  0  0  0
   -1.9450    8.9790   -0.4870 C   0  0  2  0  0  0  0  0  0  0  0  0
   -3.4220    9.1890   -0.0970 C   0  0  0  0  0  0  0  0  0  0  0  0
   -4.4140    8.6190   -1.1140 C   0  0  0  0  0  0  0  0  0  0  0  0
   -5.3710    7.6580   -0.4760 C   0  0  2  0  0  0  0  0  0  0  0  0
   -5.8020    6.5880   -1.3270 O   0  0  0  0  0  0  0  0  0  0  0  0
   -6.8190    7.5110   -0.9050 C   0  0  0  0  0  0  0  0  0  0  0  0
   -7.3920    8.3350   -2.0160 C   0  0  0  0  0  0  0  0  0  0  0  0
   -7.7970    6.9270    0.0660 C   0  0  0  0  0  0  0  0  0  0  0  0
   -1.1300   10.2150   -0.1250 C   0  0  1  0  0  0  0  0  0  0  0  0
   -0.1320    9.9550    1.0340 C   0  0  0  0  0  0  0  0  0  0  0  0
    1.1270   10.8100    0.7410 C   0  0  0  0  0  0  0  0  0  0  0  0
    0.6890   11.7780   -0.3840 C   0  0  1  0  0  0  0  0  0  0  0  0
   -0.0750   12.9250    0.3500 C   0  0  0  0  0  0  0  0  0  0  0  0
    1.8270   12.3350   -1.2990 C   0  0  2  0  0  0  0  0  0  0  0  0
    2.8830   13.1910   -0.5790 C   0  0  0  0  0  0  0  0  0  0  0  0
    2.5920   14.6540   -0.5290 C   0  0  0  0  0  0  0  0  0  0  0  0
    1.6780   15.2960   -1.2800 C   0  0  0  0  0  0  0  0  0  0  0  0
    0.8900   14.5540   -2.3670 C   0  0  1  0  0  0  0  0  0  0  0  0
    0.8870   15.3950   -3.6700 C   0  0  0  0  0  0  0  0  0  0  0  0
    0.3780   16.8160   -3.4470 C   0  0  0  0  0  0  0  0  0  0  0  0
    1.2220   17.5410   -2.4030 C   0  0  2  0  0  0  0  0  0  0  0  0
    2.5390   17.7350   -2.9280 O   0  0  0  0  0  0  0  0  0  0  0  0
    1.3070   16.7820   -1.0490 C   0  0  0  0  0  0  0  0  0  0  0  0
   -0.0670   16.8340   -0.3360 C   0  0  0  0  0  0  0  0  0  0  0  0
    2.3000   17.5470   -0.1340 C   0  0  0  0  0  0  0  0  0  0  0  0
    1.3110   13.0420   -2.6180 C   0  0  1  0  0  0  0  0  0  0  0  0
    2.4830   12.9790   -3.6440 C   0  0  0  0  0  0  0  0  0  0  0  0
    0.1030   12.2740   -3.2740 C   0  0  0  0  0  0  0  0  0  0  0  0
   -0.9240   11.6440   -2.3150 C   0  0  0  0  0  0  0  0  0  0  0  0
   -0.2260   10.8190   -1.2290 C   0  0  2  0  0  0  0  0  0  0  0  0
    0.5320    9.6430   -1.9350 C   0  0  0  0  0  0  0  0  0  0  0  0
   -1.2783    7.6903   -2.0908 H   0  0  0  0  0  0  0  0  0  0  0  0
   -2.7711    8.6213   -2.4534 H   0  0  0  0  0  0  0  0  0  0  0  0
   -1.1757    9.4467   -2.4534 H   0  0  0  0  0  0  0  0  0  0  0  0
   -1.5744    8.1111    0.0782 H   0  0  0  0  0  0  0  0  0  0  0  0
   -3.5983    8.6993    0.8721 H   0  0  0  0  0  0  0  0  0  0  0  0
   -3.5923   10.2750   -0.0557 H   0  0  0  0  0  0  0  0  0  0  0  0
   -4.9844    9.4478   -1.5588 H   0  0  0  0  0  0  0  0  0  0  0  0
   -3.8438    8.0761   -1.8822 H   0  0  0  0  0  0  0  0  0  0  0  0
   -4.9049    7.8108    0.5086 H   0  0  0  0  0  0  0  0  0  0  0  0
   -7.9717    9.1686   -1.5929 H   0  0  0  0  0  0  0  0  0  0  0  0
   -6.5753    8.7337   -2.6357 H   0  0  0  0  0  0  0  0  0  0  0  0
   -8.0500    7.7081   -2.6357 H   0  0  0  0  0  0  0  0  0  0  0  0
   -7.4589    7.1289    1.0931 H   0  0  0  0  0  0  0  0  0  0  0  0
   -8.7859    7.3826   -0.0908 H   0  0  0  0  0  0  0  0  0  0  0  0
   -7.8649    5.8403   -0.0908 H   0  0  0  0  0  0  0  0  0  0  0  0
   -1.9477   10.9107    0.1148 H   0  0  0  0  0  0  0  0  0  0  0  0
   -0.5790   10.2554    1.9932 H   0  0  0  0  0  0  0  0  0  0  0  0
    0.1233    8.8873    1.1030 H   0  0  0  0  0  0  0  0  0  0  0  0
    1.4335   11.3695    1.6371 H   0  0  0  0  0  0  0  0  0  0  0  0
    1.9903   10.1943    0.4486 H   0  0  0  0  0  0  0  0  0  0  0  0
    0.0159   12.7886    1.4377 H   0  0  0  0  0  0  0  0  0  0  0  0
    0.3580   13.8951    0.0647 H   0  0  0  0  0  0  0  0  0  0  0  0
   -1.1370   12.8993    0.0647 H   0  0  0  0  0  0  0  0  0  0  0  0
    2.3483   11.4181   -1.6113 H   0  0  0  0  0  0  0  0  0  0  0  0
    2.9688   12.8260    0.4551 H   0  0  0  0  0  0  0  0  0  0  0  0
    3.8097   13.0849   -1.1621 H   0  0  0  0  0  0  0  0  0  0  0  0
    3.1739   15.2589    0.1820 H   0  0  0  0  0  0  0  0  0  0  0  0
   -0.1366   14.4552   -1.9844 H   0  0  0  0  0  0  0  0  0  0  0  0
    1.9144   15.4454   -4.0597 H   0  0  0  0  0  0  0  0  0  0  0  0
    0.2077   14.9046   -4.3828 H   0  0  0  0  0  0  0  0  0  0  0  0
    0.4272   17.3690   -4.3966 H   0  0  0  0  0  0  0  0  0  0  0  0
   -0.6594   16.7641   -3.0848 H   0  0  0  0  0  0  0  0  0  0  0  0
    0.7317   18.5032   -2.1936 H   0  0  0  0  0  0  0  0  0  0  0  0
    2.8210   16.8970   -3.3320 H   0  0  0  0  0  0  0  0  0  0  0  0
    0.0848   16.8283    0.7535 H   0  0  0  0  0  0  0  0  0  0  0  0
   -0.5968   17.7528   -0.6275 H   0  0  0  0  0  0  0  0  0  0  0  0
   -0.6648   15.9578   -0.6275 H   0  0  0  0  0  0  0  0  0  0  0  0
    2.0502   17.3546    0.9198 H   0  0  0  0  0  0  0  0  0  0  0  0
    3.3249   17.2028   -0.3366 H   0  0  0  0  0  0  0  0  0  0  0  0
    2.2287   18.6258   -0.3366 H   0  0  0  0  0  0  0  0  0  0  0  0
    3.4402   12.9275   -3.1045 H   0  0  0  0  0  0  0  0  0  0  0  0
    2.3697   12.0857   -4.2757 H   0  0  0  0  0  0  0  0  0  0  0  0
    2.4661   13.8794   -4.2757 H   0  0  0  0  0  0  0  0  0  0  0  0
   -0.4352   12.9870   -3.9159 H   0  0  0  0  0  0  0  0  0  0  0  0
    0.5572   11.4253   -3.8063 H   0  0  0  0  0  0  0  0  0  0  0  0
   -1.5095   12.4441   -1.8385 H   0  0  0  0  0  0  0  0  0  0  0  0
   -1.5814   10.9780   -2.8932 H   0  0  0  0  0  0  0  0  0  0  0  0
    0.9625    8.9752   -1.1743 H   0  0  0  0  0  0  0  0  0  0  0  0
   -0.1721    9.0776   -2.5631 H   0  0  0  0  0  0  0  0  0  0  0  0
    1.3377   10.0508   -2.5631 H   0  0  0  0  0  0  0  0  0  0  0  0
  1  2  1  0
  2  3  1  0
  3  4  1  0
  4  5  1  0
  5  6  1  0
  6  7  1  0
  7  8  1  0
  7  9  1  0
  2 10  1  0
 10 11  1  0
 11 12  1  0
 12 13  1  0
 13 14  1  1
 13 15  1  0
 15 16  1  0
 16 17  1  0
 17 18  2  0
 18 19  1  0
 19 20  1  0
 20 21  1  0
 21 22  1  0
 22 23  1  0
 22 24  1  0
 24 25  1  0
 24 26  1  0
 19 27  1  0
 27 28  1  6
 27 29  1  0
 29 30  1  0
 30 31  1  0
 31 32  1  6
  7  5  1  0
 31 10  1  0
 31 13  1  0
 27 15  1  0
 24 18  1  0
  1 33  1  0
  1 34  1  0
  1 35  1  0
  2 36  1  1
  3 37  1  0
  3 38  1  0
  4 39  1  0
  4 40  1  0
  5 41  1  1
  8 42  1  0
  8 43  1  0
  8 44  1  0
  9 45  1  0
  9 46  1  0
  9 47  1  0
 10 48  1  1
 11 49  1  0
 11 50  1  0
 12 51  1  0
 12 52  1  0
 14 53  1  0
 14 54  1  0
 14 55  1  0
 15 56  1  6
 16 57  1  0
 16 58  1  0
 17 59  1  0
 19 60  1  1
 20 61  1  0
 20 62  1  0
 21 63  1  0
 21 64  1  0
 22 65  1  1
 23 66  1  0
 25 67  1  0
 25 68  1  0
 25 69  1  0
 26 70  1  0
 26 71  1  0
 26 72  1  0
 28 73  1  0
 28 74  1  0
 28 75  1  0
 29 76  1  0
 29 77  1  0
 30 78  1  0
 30 79  1  0
 32 80  1  0
 32 81  1  0
 32 82  1  0
M  END
>  <meeko>  (2) 
{"is_sidechain": [false], "intermolecular_energy": 2.731, "internal_energy": -0.839}

$$$$
EPH_relaxed_0001_pdb2pqr_Repair_114_r2_0001_out
     RDKit          3D

 82 86  0  0  0  0  0  0  0  0999 V2000
    4.2540   17.5770   -0.6270 C   0  0  0  0  0  0  0  0  0  0  0  0
    2.9010   18.1470   -0.1920 C   0  0  2  0  0  0  0  0  0  0  0  0
    2.9760   18.8360    1.1850 C   0  0  0  0  0  0  0  0  0  0  0  0
    4.3360   18.6870    1.8740 C   0  0  0  0  0  0  0  0  0  0  0  0
    4.3420   19.3230    3.2310 C   0  0  2  0  0  0  0  0  0  0  0  0
    5.4530   20.1940    3.4790 O   0  0  0  0  0  0  0  0  0  0  0  0
    5.3780   19.0140    4.2950 C   0  0  0  0  0  0  0  0  0  0  0  0
    6.4810   18.0330    4.0490 C   0  0  0  0  0  0  0  0  0  0  0  0
    5.0390   19.2920    5.7270 C   0  0  0  0  0  0  0  0  0  0  0  0
    1.8550   17.0400   -0.1650 C   0  0  1  0  0  0  0  0  0  0  0  0
    0.4200   17.5660   -0.4330 C   0  0  0  0  0  0  0  0  0  0  0  0
   -0.3210   16.4610   -1.2280 C   0  0  0  0  0  0  0  0  0  0  0  0
    0.5880   15.2150   -1.1040 C   0  0  1  0  0  0  0  0  0  0  0  0
    0.2510   14.6110    0.2950 C   0  0  0  0  0  0  0  0  0  0  0  0
    0.4580   14.1490   -2.2400 C   0  0  2  0  0  0  0  0  0  0  0  0
   -0.9250   13.4850   -2.3570 C   0  0  0  0  0  0  0  0  0  0  0  0
   -1.1050   12.2400   -1.5530 C   0  0  0  0  0  0  0  0  0  0  0  0
   -0.1150   11.5200   -0.9940 C   0  0  0  0  0  0  0  0  0  0  0  0
    1.3560   11.8880   -1.2290 C   0  0  1  0  0  0  0  0  0  0  0  0
    2.1600   10.6080   -1.5790 C   0  0  0  0  0  0  0  0  0  0  0  0
    1.9930    9.5080   -0.5350 C   0  0  0  0  0  0  0  0  0  0  0  0
    0.5230    9.1300   -0.3710 C   0  0  2  0  0  0  0  0  0  0  0  0
    0.0680    8.5150   -1.5810 O   0  0  0  0  0  0  0  0  0  0  0  0
   -0.3870   10.3420   -0.0270 C   0  0  0  0  0  0  0  0  0  0  0  0
   -0.0930   10.8200    1.4170 C   0  0  0  0  0  0  0  0  0  0  0  0
   -1.8600    9.8490   -0.0290 C   0  0  0  0  0  0  0  0  0  0  0  0
    1.6190   13.0730   -2.2540 C   0  0  1  0  0  0  0  0  0  0  0  0
    1.6890   12.5130   -3.7080 C   0  0  0  0  0  0  0  0  0  0  0  0
    3.0280   13.7090   -1.9550 C   0  0  0  0  0  0  0  0  0  0  0  0
    3.0720   14.8400   -0.9100 C   0  0  0  0  0  0  0  0  0  0  0  0
    2.0020   15.8960   -1.2000 C   0  0  2  0  0  0  0  0  0  0  0  0
    2.3270   16.5380   -2.5920 C   0  0  0  0  0  0  0  0  0  0  0  0
    4.8495   17.3261    0.2632 H   0  0  0  0  0  0  0  0  0  0  0  0
    4.0935   16.6700   -1.2283 H   0  0  0  0  0  0  0  0  0  0  0  0
    4.7909   18.3254   -1.2283 H   0  0  0  0  0  0  0  0  0  0  0  0
    2.6128   18.9123   -0.9277 H   0  0  0  0  0  0  0  0  0  0  0  0
    2.7712   19.9081    1.0486 H   0  0  0  0  0  0  0  0  0  0  0  0
    2.2326   18.3460    1.8309 H   0  0  0  0  0  0  0  0  0  0  0  0
    4.5662   17.6167    1.9808 H   0  0  0  0  0  0  0  0  0  0  0  0
    5.0916   19.1926    1.2548 H   0  0  0  0  0  0  0  0  0  0  0  0
    3.2424   19.3384    3.2544 H   0  0  0  0  0  0  0  0  0  0  0  0
    6.8786   17.6793    5.0117 H   0  0  0  0  0  0  0  0  0  0  0  0
    6.0907   17.1782    3.4772 H   0  0  0  0  0  0  0  0  0  0  0  0
    7.2844   18.5204    3.4772 H   0  0  0  0  0  0  0  0  0  0  0  0
    5.7228   18.7312    6.3812 H   0  0  0  0  0  0  0  0  0  0  0  0
    5.1421   20.3690    5.9258 H   0  0  0  0  0  0  0  0  0  0  0  0
    4.0031   18.9800    5.9258 H   0  0  0  0  0  0  0  0  0  0  0  0
    2.0245   16.6525    0.8505 H   0  0  0  0  0  0  0  0  0  0  0  0
   -0.0966   17.7587    0.5189 H   0  0  0  0  0  0  0  0  0  0  0  0
    0.4447   18.5095   -0.9980 H   0  0  0  0  0  0  0  0  0  0  0  0
   -1.3107   16.2648   -0.7899 H   0  0  0  0  0  0  0  0  0  0  0  0
   -0.4962   16.7470   -2.2756 H   0  0  0  0  0  0  0  0  0  0  0  0
    0.6248   15.2810    1.0833 H   0  0  0  0  0  0  0  0  0  0  0  0
   -0.8390   14.5008    0.3939 H   0  0  0  0  0  0  0  0  0  0  0  0
    0.7297   13.6256    0.3939 H   0  0  0  0  0  0  0  0  0  0  0  0
    0.5746   14.7572   -3.1491 H   0  0  0  0  0  0  0  0  0  0  0  0
   -1.6807   14.2138   -2.0287 H   0  0  0  0  0  0  0  0  0  0  0  0
   -1.0303   13.1849   -3.4100 H   0  0  0  0  0  0  0  0  0  0  0  0
   -2.1341   11.8808   -1.4050 H   0  0  0  0  0  0  0  0  0  0  0  0
    1.7195   12.3096   -0.2803 H   0  0  0  0  0  0  0  0  0  0  0  0
    1.8118   10.2277   -2.5507 H   0  0  0  0  0  0  0  0  0  0  0  0
    3.2252   10.8808   -1.6089 H   0  0  0  0  0  0  0  0  0  0  0  0
    2.5596    8.6205   -0.8534 H   0  0  0  0  0  0  0  0  0  0  0  0
    2.3697    9.8792    0.4295 H   0  0  0  0  0  0  0  0  0  0  0  0
    0.4538    8.4352    0.4790 H   0  0  0  0  0  0  0  0  0  0  0  0
    0.8230    8.0470   -1.9750 H   0  0  0  0  0  0  0  0  0  0  0  0
   -0.5298   10.1097    2.1344 H   0  0  0  0  0  0  0  0  0  0  0  0
    0.9948   10.8743    1.5709 H   0  0  0  0  0  0  0  0  0  0  0  0
   -0.5352   11.8154    1.5709 H   0  0  0  0  0  0  0  0  0  0  0  0
   -2.2090    9.7322    1.0076 H   0  0  0  0  0  0  0  0  0  0  0  0
   -2.4921   10.5845   -0.5480 H   0  0  0  0  0  0  0  0  0  0  0  0
   -1.9220    8.8811   -0.5480 H   0  0  0  0  0  0  0  0  0  0  0  0
    1.8254   11.4220   -3.6746 H   0  0  0  0  0  0  0  0  0  0  0  0
    0.7543   12.7496   -4.2375 H   0  0  0  0  0  0  0  0  0  0  0  0
    2.5367   12.9724   -4.2375 H   0  0  0  0  0  0  0  0  0  0  0  0
    3.6884   12.9035   -1.6015 H   0  0  0  0  0  0  0  0  0  0  0  0
    3.3384   14.1783   -2.9002 H   0  0  0  0  0  0  0  0  0  0  0  0
    2.8959   14.4141    0.0888 H   0  0  0  0  0  0  0  0  0  0  0  0
    4.0604   15.3207   -0.9548 H   0  0  0  0  0  0  0  0  0  0  0  0
    2.8191   17.5102   -2.4415 H   0  0  0  0  0  0  0  0  0  0  0  0
    2.9963   15.8716   -3.1558 H   0  0  0  0  0  0  0  0  0  0  0  0
    1.3937   16.6829   -3.1558 H   0  0  0  0  0  0  0  0  0  0  0  0
  1  2  1  0
  2  3  1  0
  3  4  1  0
  4  5  1  0
  5  6  1  0
  6  7  1  0
  7  8  1  0
  7  9  1  0
  2 10  1  0
 10 11  1  0
 11 12  1  0
 12 13  1  0
 13 14  1  1
 13 15  1  0
 15 16  1  0
 16 17  1  0
 17 18  2  0
 18 19  1  0
 19 20  1  0
 20 21  1  0
 21 22  1  0
 22 23  1  0
 22 24  1  0
 24 25  1  0
 24 26  1  0
 19 27  1  0
 27 28  1  6
 27 29  1  0
 29 30  1  0
 30 31  1  0
 31 32  1  6
  7  5  1  0
 31 10  1  0
 31 13  1  0
 27 15  1  0
 24 18  1  0
  1 33  1  0
  1 34  1  0
  1 35  1  0
  2 36  1  6
  3 37  1  0
  3 38  1  0
  4 39  1  0
  4 40  1  0
  5 41  1  1
  8 42  1  0
  8 43  1  0
  8 44  1  0
  9 45  1  0
  9 46  1  0
  9 47  1  0
 10 48  1  1
 11 49  1  0
 11 50  1  0
 12 51  1  0
 12 52  1  0
 14 53  1  0
 14 54  1  0
 14 55  1  0
 15 56  1  6
 16 57  1  0
 16 58  1  0
 17 59  1  0
 19 60  1  1
 20 61  1  0
 20 62  1  0
 21 63  1  0
 21 64  1  0
 22 65  1  1
 23 66  1  0
 25 67  1  0
 25 68  1  0
 25 69  1  0
 26 70  1  0
 26 71  1  0
 26 72  1  0
 28 73  1  0
 28 74  1  0
 28 75  1  0
 29 76  1  0
 29 77  1  0
 30 78  1  0
 30 79  1  0
 32 80  1  0
 32 81  1  0
 32 82  1  0
M  END
>  <meeko>  (3) 
{"is_sidechain": [false], "intermolecular_energy": 2.731, "internal_energy": -0.839}

$$$$
EPH_relaxed_0001_pdb2pqr_Repair_114_r2_0001_out
     RDKit          3D

 82 86  0  0  0  0  0  0  0  0999 V2000
    2.3780   17.9290   -2.6940 C   0  0  0  0  0  0  0  0  0  0  0  0
    1.1100   17.5330   -1.9340 C   0  0  2  0  0  0  0  0  0  0  0  0
    1.3160   17.5630   -0.4060 C   0  0  0  0  0  0  0  0  0  0  0  0
    1.0530   18.9330    0.2240 C   0  0  0  0  0  0  0  0  0  0  0  0
   -0.3750   19.0810    0.6540 C   0  0  2  0  0  0  0  0  0  0  0  0
   -1.2950   18.2080   -0.0150 O   0  0  0  0  0  0  0  0  0  0  0  0
   -1.4700   19.6140   -0.2510 C   0  0  0  0  0  0  0  0  0  0  0  0
   -1.1840   20.0360   -1.6580 C   0  0  0  0  0  0  0  0  0  0  0  0
   -2.7050   20.1820    0.3780 C   0  0  0  0  0  0  0  0  0  0  0  0
    0.6530   16.1470   -2.3710 C   0  0  1  0  0  0  0  0  0  0  0  0
    0.7380   15.9470   -3.9080 C   0  0  0  0  0  0  0  0  0  0  0  0
    1.1310   14.4660   -4.1450 C   0  0  0  0  0  0  0  0  0  0  0  0
    0.9350   13.7850   -2.7700 C   0  0  1  0  0  0  0  0  0  0  0  0
   -0.5960   13.4960   -2.6800 C   0  0  0  0  0  0  0  0  0  0  0  0
    1.7820   12.4970   -2.5100 C   0  0  2  0  0  0  0  0  0  0  0  0
    1.4890   11.3210   -3.4580 C   0  0  0  0  0  0  0  0  0  0  0  0
    0.4280   10.3780   -2.9950 C   0  0  0  0  0  0  0  0  0  0  0  0
   -0.0610   10.3050   -1.7430 C   0  0  0  0  0  0  0  0  0  0  0  0
    0.5260   11.1640   -0.6160 C   0  0  1  0  0  0  0  0  0  0  0  0
    0.7580   10.2820    0.6390 C   0  0  0  0  0  0  0  0  0  0  0  0
   -0.5000    9.5360    1.0700 C   0  0  0  0  0  0  0  0  0  0  0  0
   -1.0210    8.6480   -0.0570 C   0  0  2  0  0  0  0  0  0  0  0  0
   -0.0750    7.6010   -0.2940 O   0  0  0  0  0  0  0  0  0  0  0  0
   -1.2830    9.4250   -1.3770 C   0  0  0  0  0  0  0  0  0  0  0  0
   -2.5120   10.3500   -1.2020 C   0  0  0  0  0  0  0  0  0  0  0  0
   -1.6680    8.3930   -2.4710 C   0  0  0  0  0  0  0  0  0  0  0  0
    1.8030   12.0300   -0.9980 C   0  0  1  0  0  0  0  0  0  0  0  0
    3.0970   11.1800   -0.8130 C   0  0  0  0  0  0  0  0  0  0  0  0
    1.9210   13.2410    0.0010 C   0  0  0  0  0  0  0  0  0  0  0  0
    1.1570   14.5260   -0.3720 C   0  0  0  0  0  0  0  0  0  0  0  0
    1.4420   14.9320   -1.8210 C   0  0  2  0  0  0  0  0  0  0  0  0
    2.9710   15.2510   -1.9370 C   0  0  0  0  0  0  0  0  0  0  0  0
    3.1734   18.1774   -1.9759 H   0  0  0  0  0  0  0  0  0  0  0  0
    2.7037   17.0898   -3.3262 H   0  0  0  0  0  0  0  0  0  0  0  0
    2.1683   18.8044   -3.3262 H   0  0  0  0  0  0  0  0  0  0  0  0
    0.3337   18.2735   -2.1772 H   0  0  0  0  0  0  0  0  0  0  0  0
    0.6312   16.8335    0.0510 H   0  0  0  0  0  0  0  0  0  0  0  0
    2.3728   17.3212   -0.2195 H   0  0  0  0  0  0  0  0  0  0  0  0
    1.7040   19.0521    1.1027 H   0  0  0  0  0  0  0  0  0  0  0  0
    1.2651   19.7040   -0.5314 H   0  0  0  0  0  0  0  0  0  0  0  0
   -0.0648   19.3503    1.6744 H   0  0  0  0  0  0  0  0  0  0  0  0
   -0.5669   20.9466   -1.6494 H   0  0  0  0  0  0  0  0  0  0  0  0
   -0.6440   19.2319   -2.1794 H   0  0  0  0  0  0  0  0  0  0  0  0
   -2.1309   20.2397   -2.1794 H   0  0  0  0  0  0  0  0  0  0  0  0
   -2.6116   20.1391    1.4732 H   0  0  0  0  0  0  0  0  0  0  0  0
   -2.8299   21.2280    0.0614 H   0  0  0  0  0  0  0  0  0  0  0  0
   -3.5805   19.5961    0.0614 H   0  0  0  0  0  0  0  0  0  0  0  0
   -0.3672   16.1507   -1.9596 H   0  0  0  0  0  0  0  0  0  0  0  0
   -0.2364   16.1593   -4.3721 H   0  0  0  0  0  0  0  0  0  0  0  0
    1.4771   16.6282   -4.3548 H   0  0  0  0  0  0  0  0  0  0  0  0
    0.4779   14.0074   -4.9020 H   0  0  0  0  0  0  0  0  0  0  0  0
    2.1604   14.3624   -4.5187 H   0  0  0  0  0  0  0  0  0  0  0  0
   -0.8969   13.4392   -1.6235 H   0  0  0  0  0  0  0  0  0  0  0  0
   -1.1517   14.3051   -3.1765 H   0  0  0  0  0  0  0  0  0  0  0  0
   -0.8185   12.5400   -3.1765 H   0  0  0  0  0  0  0  0  0  0  0  0
    2.8011   12.8308   -2.7551 H   0  0  0  0  0  0  0  0  0  0  0  0
    1.1757   11.7358   -4.4274 H   0  0  0  0  0  0  0  0  0  0  0  0
    2.4173   10.7331   -3.5098 H   0  0  0  0  0  0  0  0  0  0  0  0
    0.0107    9.6844   -3.7399 H   0  0  0  0  0  0  0  0  0  0  0  0
   -0.2272   11.9351   -0.3966 H   0  0  0  0  0  0  0  0  0  0  0  0
    1.5440    9.5465    0.4127 H   0  0  0  0  0  0  0  0  0  0  0  0
    1.0514   10.9469    1.4648 H   0  0  0  0  0  0  0  0  0  0  0  0
   -0.2655    8.9092    1.9430 H   0  0  0  0  0  0  0  0  0  0  0  0
   -1.2760   10.2734    1.3231 H   0  0  0  0  0  0  0  0  0  0  0  0
   -1.9909    8.2409    0.2649 H   0  0  0  0  0  0  0  0  0  0  0  0
   -0.2540    7.2380   -1.1780 H   0  0  0  0  0  0  0  0  0  0  0  0
   -2.7094   10.4986   -0.1301 H   0  0  0  0  0  0  0  0  0  0  0  0
   -2.3098   11.3219   -1.6758 H   0  0  0  0  0  0  0  0  0  0  0  0
   -3.3900    9.8867   -1.6758 H   0  0  0  0  0  0  0  0  0  0  0  0
   -2.0144    7.4645   -1.9936 H   0  0  0  0  0  0  0  0  0  0  0  0
   -2.4727    8.8056   -3.0973 H   0  0  0  0  0  0  0  0  0  0  0  0
   -0.7897    8.1777   -3.0973 H   0  0  0  0  0  0  0  0  0  0  0  0
    3.2984   11.0477    0.2603 H   0  0  0  0  0  0  0  0  0  0  0  0
    2.9596   10.1957   -1.2844 H   0  0  0  0  0  0  0  0  0  0  0  0
    3.9458   11.6970   -1.2844 H   0  0  0  0  0  0  0  0  0  0  0  0
    1.5470   12.9034    0.9789 H   0  0  0  0  0  0  0  0  0  0  0  0
    2.9840   13.5236   -0.0134 H   0  0  0  0  0  0  0  0  0  0  0  0
    0.0777   14.3503   -0.2532 H   0  0  0  0  0  0  0  0  0  0  0  0
    1.4903   15.3374    0.2917 H   0  0  0  0  0  0  0  0  0  0  0  0
    3.4041   15.3414   -0.9299 H   0  0  0  0  0  0  0  0  0  0  0  0
    3.4748   14.4386   -2.4813 H   0  0  0  0  0  0  0  0  0  0  0  0
    3.1079   16.1971   -2.4813 H   0  0  0  0  0  0  0  0  0  0  0  0
  1  2  1  0
  2  3  1  0
  3  4  1  0
  4  5  1  0
  5  6  1  0
  6  7  1  0
  7  8  1  0
  7  9  1  0
  2 10  1  0
 10 11  1  0
 11 12  1  0
 12 13  1  0
 13 14  1  1
 13 15  1  0
 15 16  1  0
 16 17  1  0
 17 18  2  0
 18 19  1  0
 19 20  1  0
 20 21  1  0
 21 22  1  0
 22 23  1  0
 22 24  1  0
 24 25  1  0
 24 26  1  0
 19 27  1  0
 27 28  1  6
 27 29  1  0
 29 30  1  0
 30 31  1  0
 31 32  1  1
  7  5  1  0
 31 10  1  0
 31 13  1  0
 27 15  1  0
 24 18  1  0
  1 33  1  0
  1 34  1  0
  1 35  1  0
  2 36  1  1
  3 37  1  0
  3 38  1  0
  4 39  1  0
  4 40  1  0
  5 41  1  1
  8 42  1  0
  8 43  1  0
  8 44  1  0
  9 45  1  0
  9 46  1  0
  9 47  1  0
 10 48  1  1
 11 49  1  0
 11 50  1  0
 12 51  1  0
 12 52  1  0
 14 53  1  0
 14 54  1  0
 14 55  1  0
 15 56  1  6
 16 57  1  0
 16 58  1  0
 17 59  1  0
 19 60  1  1
 20 61  1  0
 20 62  1  0
 21 63  1  0
 21 64  1  0
 22 65  1  1
 23 66  1  0
 25 67  1  0
 25 68  1  0
 25 69  1  0
 26 70  1  0
 26 71  1  0
 26 72  1  0
 28 73  1  0
 28 74  1  0
 28 75  1  0
 29 76  1  0
 29 77  1  0
 30 78  1  0
 30 79  1  0
 32 80  1  0
 32 81  1  0
 32 82  1  0
M  END
>  <meeko>  (4) 
{"is_sidechain": [false], "intermolecular_energy": 2.731, "internal_energy": -0.839}

$$$$
EPH_relaxed_0001_pdb2pqr_Repair_114_r2_0001_out
     RDKit          3D

 82 86  0  0  0  0  0  0  0  0999 V2000
    3.8890   17.9230    0.6700 C   0  0  0  0  0  0  0  0  0  0  0  0
    2.7420   18.4130   -0.2190 C   0  0  2  0  0  0  0  0  0  0  0  0
    2.0330   19.6460    0.3750 C   0  0  0  0  0  0  0  0  0  0  0  0
    0.7380   19.3130    1.1200 C   0  0  0  0  0  0  0  0  0  0  0  0
   -0.4450   20.0040    0.5120 C   0  0  2  0  0  0  0  0  0  0  0  0
   -1.5520   20.1930    1.4040 O   0  0  0  0  0  0  0  0  0  0  0  0
   -1.7830   19.3260    0.2820 C   0  0  0  0  0  0  0  0  0  0  0  0
   -2.0060   17.8940    0.6550 C   0  0  0  0  0  0  0  0  0  0  0  0
   -2.7090   19.9010   -0.7440 C   0  0  0  0  0  0  0  0  0  0  0  0
    1.7360   17.2880   -0.4350 C   0  0  1  0  0  0  0  0  0  0  0  0
    0.5040   17.7400   -1.2640 C   0  0  0  0  0  0  0  0  0  0  0  0
    0.0800   16.5270   -2.1320 C   0  0  0  0  0  0  0  0  0  0  0  0
    0.8600   15.3300   -1.5380 C   0  0  1  0  0  0  0  0  0  0  0  0
    0.0300   14.8900   -0.2920 C   0  0  0  0  0  0  0  0  0  0  0  0
    1.1300   14.1320   -2.5050 C   0  0  2  0  0  0  0  0  0  0  0  0
   -0.1300   13.4220   -3.0310 C   0  0  0  0  0  0  0  0  0  0  0  0
   -0.6110   12.2780   -2.2000 C   0  0  0  0  0  0  0  0  0  0  0  0
    0.0980   11.6580   -1.2390 C   0  0  0  0  0  0  0  0  0  0  0  0
    1.5610   12.0340   -0.9720 C   0  0  1  0  0  0  0  0  0  0  0  0
    2.4130   10.7440   -0.8500 C   0  0  0  0  0  0  0  0  0  0  0  0
    1.8610    9.7730    0.1900 C   0  0  0  0  0  0  0  0  0  0  0  0
    0.4250    9.3770   -0.1420 C   0  0  2  0  0  0  0  0  0  0  0  0
    0.4260    8.6100   -1.3500 O   0  0  0  0  0  0  0  0  0  0  0  0
   -0.5260   10.5970   -0.2990 C   0  0  0  0  0  0  0  0  0  0  0  0
   -0.7640   11.2530    1.0840 C   0  0  0  0  0  0  0  0  0  0  0  0
   -1.9070   10.0680   -0.7710 C   0  0  0  0  0  0  0  0  0  0  0  0
    2.1970   13.0940   -1.9700 C   0  0  1  0  0  0  0  0  0  0  0  0
    2.7770   12.3660   -3.2210 C   0  0  0  0  0  0  0  0  0  0  0  0
    3.4150   13.7990   -1.2630 C   0  0  0  0  0  0  0  0  0  0  0  0
    3.1000   15.0480   -0.4180 C   0  0  0  0  0  0  0  0  0  0  0  0
    2.2250   16.0330   -1.2000 C   0  0  2  0  0  0  0  0  0  0  0  0
    3.0430   16.5110   -2.4480 C   0  0  0  0  0  0  0  0  0  0  0  0
    3.6100   18.0422    1.7273 H   0  0  0  0  0  0  0  0  0  0  0  0
    4.0875   16.8615    0.4606 H   0  0  0  0  0  0  0  0  0  0  0  0
    4.7932   18.5134    0.4606 H   0  0  0  0  0  0  0  0  0  0  0  0
    3.1762   18.7148   -1.1836 H   0  0  0  0  0  0  0  0  0  0  0  0
    2.7216   20.1370    1.0784 H   0  0  0  0  0  0  0  0  0  0  0  0
    1.7597   20.2966   -0.4688 H   0  0  0  0  0  0  0  0  0  0  0  0
    0.5743   18.2259    1.0818 H   0  0  0  0  0  0  0  0  0  0  0  0
    0.8412   19.6600    2.1587 H   0  0  0  0  0  0  0  0  0  0  0  0
    0.2085   20.5907   -0.1503 H   0  0  0  0  0  0  0  0  0  0  0  0
   -2.0209   17.7986    1.7508 H   0  0  0  0  0  0  0  0  0  0  0  0
   -2.9680   17.5536    0.2442 H   0  0  0  0  0  0  0  0  0  0  0  0
   -1.1931   17.2772    0.2442 H   0  0  0  0  0  0  0  0  0  0  0  0
   -3.5397   20.4168   -0.2401 H   0  0  0  0  0  0  0  0  0  0  0  0
   -2.1601   20.6174   -1.3729 H   0  0  0  0  0  0  0  0  0  0  0  0
   -3.1077   19.0913   -1.3729 H   0  0  0  0  0  0  0  0  0  0  0  0
    1.5211   17.0293    0.6123 H   0  0  0  0  0  0  0  0  0  0  0  0
   -0.3177   18.0316   -0.5933 H   0  0  0  0  0  0  0  0  0  0  0  0
    0.7478   18.6094   -1.8922 H   0  0  0  0  0  0  0  0  0  0  0  0
   -1.0045   16.3580   -2.0598 H   0  0  0  0  0  0  0  0  0  0  0  0
    0.3003   16.6802   -3.1988 H   0  0  0  0  0  0  0  0  0  0  0  0
    0.5666   15.1745    0.6251 H   0  0  0  0  0  0  0  0  0  0  0  0
   -0.9515   15.3862   -0.3114 H   0  0  0  0  0  0  0  0  0  0  0  0
   -0.1102   13.7991   -0.3114 H   0  0  0  0  0  0  0  0  0  0  0  0
    1.5793   14.6298   -3.3770 H   0  0  0  0  0  0  0  0  0  0  0  0
   -0.9396   14.1645   -3.0885 H   0  0  0  0  0  0  0  0  0  0  0  0
    0.1460   12.9949   -4.0064 H   0  0  0  0  0  0  0  0  0  0  0  0
   -1.6307   11.9114   -2.3895 H   0  0  0  0  0  0  0  0  0  0  0  0
    1.5663   12.5761   -0.0148 H   0  0  0  0  0  0  0  0  0  0  0  0
    2.4316   10.2402   -1.8277 H   0  0  0  0  0  0  0  0  0  0  0  0
    3.4220   11.0401   -0.5273 H   0  0  0  0  0  0  0  0  0  0  0  0
    2.4885    8.8698    0.2081 H   0  0  0  0  0  0  0  0  0  0  0  0
    1.8707   10.2677    1.1724 H   0  0  0  0  0  0  0  0  0  0  0  0
    0.0416    8.7867    0.7033 H   0  0  0  0  0  0  0  0  0  0  0  0
   -0.3220    7.9900   -1.3050 H   0  0  0  0  0  0  0  0  0  0  0  0
   -0.5046   10.5379    1.8785 H   0  0  0  0  0  0  0  0  0  0  0  0
   -0.1339   12.1498    1.1778 H   0  0  0  0  0  0  0  0  0  0  0  0
   -1.8225   11.5372    1.1778 H   0  0  0  0  0  0  0  0  0  0  0  0
   -2.5277    9.8303    0.1055 H   0  0  0  0  0  0  0  0  0  0  0  0
   -2.4072   10.8382   -1.3765 H   0  0  0  0  0  0  0  0  0  0  0  0
   -1.7647    9.1607   -1.3765 H   0  0  0  0  0  0  0  0  0  0  0  0
    3.4319   11.5440   -2.8961 H   0  0  0  0  0  0  0  0  0  0  0  0
    1.9517   11.9605   -3.8247 H   0  0  0  0  0  0  0  0  0  0  0  0
    3.3566   13.0798   -3.8247 H   0  0  0  0  0  0  0  0  0  0  0  0
    3.8885   13.0597   -0.6003 H   0  0  0  0  0  0  0  0  0  0  0  0
    4.0540   14.1597   -2.0825 H   0  0  0  0  0  0  0  0  0  0  0  0
    2.5682   14.7404    0.4945 H   0  0  0  0  0  0  0  0  0  0  0  0
    4.0467   15.5464   -0.1625 H   0  0  0  0  0  0  0  0  0  0  0  0
    3.9476   17.0396   -2.1130 H   0  0  0  0  0  0  0  0  0  0  0  0
    3.3310   15.6390   -3.0536 H   0  0  0  0  0  0  0  0  0  0  0  0
    2.4247   17.1899   -3.0536 H   0  0  0  0  0  0  0  0  0  0  0  0
  1  2  1  0
  2  3  1  0
  3  4  1  0
  4  5  1  0
  5  6  1  0
  6  7  1  0
  7  8  1  0
  7  9  1  0
  2 10  1  0
 10 11  1  0
 11 12  1  0
 12 13  1  0
 13 14  1  1
 13 15  1  0
 15 16  1  0
 16 17  1  0
 17 18  2  0
 18 19  1  0
 19 20  1  0
 20 21  1  0
 21 22  1  0
 22 23  1  0
 22 24  1  0
 24 25  1  0
 24 26  1  0
 19 27  1  0
 27 28  1  6
 27 29  1  0
 29 30  1  0
 30 31  1  0
 31 32  1  6
  7  5  1  0
 31 10  1  0
 31 13  1  0
 27 15  1  0
 24 18  1  0
  1 33  1  0
  1 34  1  0
  1 35  1  0
  2 36  1  6
  3 37  1  0
  3 38  1  0
  4 39  1  0
  4 40  1  0
  5 41  1  6
  8 42  1  0
  8 43  1  0
  8 44  1  0
  9 45  1  0
  9 46  1  0
  9 47  1  0
 10 48  1  1
 11 49  1  0
 11 50  1  0
 12 51  1  0
 12 52  1  0
 14 53  1  0
 14 54  1  0
 14 55  1  0
 15 56  1  6
 16 57  1  0
 16 58  1  0
 17 59  1  0
 19 60  1  1
 20 61  1  0
 20 62  1  0
 21 63  1  0
 21 64  1  0
 22 65  1  1
 23 66  1  0
 25 67  1  0
 25 68  1  0
 25 69  1  0
 26 70  1  0
 26 71  1  0
 26 72  1  0
 28 73  1  0
 28 74  1  0
 28 75  1  0
 29 76  1  0
 29 77  1  0
 30 78  1  0
 30 79  1  0
 32 80  1  0
 32 81  1  0
 32 82  1  0
M  END
>  <meeko>  (5) 
{"is_sidechain": [false], "intermolecular_energy": 2.731, "internal_energy": -0.839}

$$$$
EPH_relaxed_0001_pdb2pqr_Repair_114_r2_0001_out
     RDKit          3D

 82 86  0  0  0  0  0  0  0  0999 V2000
   -1.0900   10.4090   -2.4380 C   0  0  0  0  0  0  0  0  0  0  0  0
   -0.3480   10.1680   -1.1210 C   0  0  2  0  0  0  0  0  0  0  0  0
   -1.2060    9.3890   -0.1040 C   0  0  0  0  0  0  0  0  0  0  0  0
   -2.7130    9.5290   -0.3360 C   0  0  0  0  0  0  0  0  0  0  0  0
   -3.3660    8.1970   -0.5560 C   0  0  2  0  0  0  0  0  0  0  0  0
   -3.8140    7.9640   -1.8970 O   0  0  0  0  0  0  0  0  0  0  0  0
   -4.8370    8.0320   -0.8910 C   0  0  0  0  0  0  0  0  0  0  0  0
   -5.7450    9.2140   -1.0240 C   0  0  0  0  0  0  0  0  0  0  0  0
   -5.4910    6.7160   -0.6070 C   0  0  0  0  0  0  0  0  0  0  0  0
    0.0910   11.4980   -0.5210 C   0  0  1  0  0  0  0  0  0  0  0  0
    1.2360   11.3380    0.5150 C   0  0  0  0  0  0  0  0  0  0  0  0
    2.1430   12.5880    0.3760 C   0  0  0  0  0  0  0  0  0  0  0  0
    1.3200   13.5730   -0.4870 C   0  0  1  0  0  0  0  0  0  0  0  0
    0.3270   14.2480    0.5120 C   0  0  0  0  0  0  0  0  0  0  0  0
    2.1370   14.6340   -1.2940 C   0  0  2  0  0  0  0  0  0  0  0  0
    2.9560   15.6150   -0.4380 C   0  0  0  0  0  0  0  0  0  0  0  0
    2.2460   16.8700   -0.0510 C   0  0  0  0  0  0  0  0  0  0  0  0
    1.1090   17.3280   -0.6060 C   0  0  0  0  0  0  0  0  0  0  0  0
    0.4720   16.6110   -1.8030 C   0  0  1  0  0  0  0  0  0  0  0  0
    0.0810   17.6530   -2.8840 C   0  0  0  0  0  0  0  0  0  0  0  0
   -0.8050   18.7650   -2.3310 C   0  0  0  0  0  0  0  0  0  0  0  0
   -0.1140   19.4920   -1.1810 C   0  0  2  0  0  0  0  0  0  0  0  0
    1.0220   20.1940   -1.6960 O   0  0  0  0  0  0  0  0  0  0  0  0
    0.3340   18.5420   -0.0350 C   0  0  0  0  0  0  0  0  0  0  0  0
   -0.9100   18.0130    0.7190 C   0  0  0  0  0  0  0  0  0  0  0  0
    1.1420   19.3800    0.9920 C   0  0  0  0  0  0  0  0  0  0  0  0
    1.2990   15.3920   -2.4010 C   0  0  1  0  0  0  0  0  0  0  0  0
    2.3220   15.9110   -3.4570 C   0  0  0  0  0  0  0  0  0  0  0  0
    0.3160   14.4320   -3.1700 C   0  0  0  0  0  0  0  0  0  0  0  0
   -0.3690   13.3300   -2.3400 C   0  0  0  0  0  0  0  0  0  0  0  0
    0.6530   12.5660   -1.4930 C   0  0  2  0  0  0  0  0  0  0  0  0
    1.6520   11.8580   -2.4710 C   0  0  0  0  0  0  0  0  0  0  0  0
   -2.1164   10.7424   -2.2249 H   0  0  0  0  0  0  0  0  0  0  0  0
   -0.5660   11.1831   -3.0178 H   0  0  0  0  0  0  0  0  0  0  0  0
   -1.1209    9.4747   -3.0178 H   0  0  0  0  0  0  0  0  0  0  0  0
    0.5350    9.5523   -1.3473 H   0  0  0  0  0  0  0  0  0  0  0  0
   -0.9418    8.3233   -0.1707 H   0  0  0  0  0  0  0  0  0  0  0  0
   -0.9925    9.8127    0.8884 H   0  0  0  0  0  0  0  0  0  0  0  0
   -3.1664   10.0073    0.5447 H   0  0  0  0  0  0  0  0  0  0  0  0
   -2.8660   10.1393   -1.2383 H   0  0  0  0  0  0  0  0  0  0  0  0
   -2.7260    7.7306    0.2075 H   0  0  0  0  0  0  0  0  0  0  0  0
   -6.0236    9.5767   -0.0236 H   0  0  0  0  0  0  0  0  0  0  0  0
   -5.2272   10.0142   -1.5731 H   0  0  0  0  0  0  0  0  0  0  0  0
   -6.6517    8.9199   -1.5731 H   0  0  0  0  0  0  0  0  0  0  0  0
   -5.5636    6.5698    0.4808 H   0  0  0  0  0  0  0  0  0  0  0  0
   -6.4993    6.7052   -1.0466 H   0  0  0  0  0  0  0  0  0  0  0  0
   -4.8907    5.9058   -1.0466 H   0  0  0  0  0  0  0  0  0  0  0  0
   -0.8685   11.8368   -0.1031 H   0  0  0  0  0  0  0  0  0  0  0  0
    0.8213   11.2821    1.5323 H   0  0  0  0  0  0  0  0  0  0  0  0
    1.8058   10.4146    0.3345 H   0  0  0  0  0  0  0  0  0  0  0  0
    2.3586   13.0231    1.3630 H   0  0  0  0  0  0  0  0  0  0  0  0
    3.1163   12.3489   -0.0773 H   0  0  0  0  0  0  0  0  0  0  0  0
    0.6425   14.0336    1.5437 H   0  0  0  0  0  0  0  0  0  0  0  0
    0.3245   15.3357    0.3479 H   0  0  0  0  0  0  0  0  0  0  0  0
   -0.6853   13.8501    0.3479 H   0  0  0  0  0  0  0  0  0  0  0  0
    2.8744   14.0122   -1.8229 H   0  0  0  0  0  0  0  0  0  0  0  0
    3.2536   15.0946    0.4843 H   0  0  0  0  0  0  0  0  0  0  0  0
    3.8065   15.9266   -1.0621 H   0  0  0  0  0  0  0  0  0  0  0  0
    2.6899   17.4712    0.7562 H   0  0  0  0  0  0  0  0  0  0  0  0
   -0.4322   16.1185   -1.4160 H   0  0  0  0  0  0  0  0  0  0  0  0
    0.9996   18.1025   -3.2891 H   0  0  0  0  0  0  0  0  0  0  0  0
   -0.4901   17.1274   -3.6634 H   0  0  0  0  0  0  0  0  0  0  0  0
   -1.0219   19.4852   -3.1337 H   0  0  0  0  0  0  0  0  0  0  0  0
   -1.7363   18.3171   -1.9541 H   0  0  0  0  0  0  0  0  0  0  0  0
   -0.8459   20.1867   -0.7432 H   0  0  0  0  0  0  0  0  0  0  0  0
    1.2930   20.8450   -1.0270 H   0  0  0  0  0  0  0  0  0  0  0  0
   -0.7398   18.0854    1.8033 H   0  0  0  0  0  0  0  0  0  0  0  0
   -1.7886   18.6154    0.4447 H   0  0  0  0  0  0  0  0  0  0  0  0
   -1.0857   16.9623    0.4447 H   0  0  0  0  0  0  0  0  0  0  0  0
    0.8566   19.0840    2.0123 H   0  0  0  0  0  0  0  0  0  0  0  0
    2.2175   19.2015    0.8457 H   0  0  0  0  0  0  0  0  0  0  0  0
    0.9244   20.4483    0.8457 H   0  0  0  0  0  0  0  0  0  0  0  0
    3.1890   16.3508   -2.9423 H   0  0  0  0  0  0  0  0  0  0  0  0
    2.6557   15.0732   -4.0868 H   0  0  0  0  0  0  0  0  0  0  0  0
    1.8430   16.6751   -4.0868 H   0  0  0  0  0  0  0  0  0  0  0  0
   -0.4749   15.0531   -3.6158 H   0  0  0  0  0  0  0  0  0  0  0  0
    0.9456   13.8965   -3.8959 H   0  0  0  0  0  0  0  0  0  0  0  0
   -1.1144   13.7911   -1.6753 H   0  0  0  0  0  0  0  0  0  0  0  0
   -0.8528   12.6219   -3.0288 H   0  0  0  0  0  0  0  0  0  0  0  0
    2.4138   11.3181   -1.8895 H   0  0  0  0  0  0  0  0  0  0  0  0
    1.1024   11.1467   -3.1050 H   0  0  0  0  0  0  0  0  0  0  0  0
    2.1410   12.6122   -3.1050 H   0  0  0  0  0  0  0  0  0  0  0  0
  1  2  1  0
  2  3  1  0
  3  4  1  0
  4  5  1  0
  5  6  1  0
  6  7  1  0
  7  8  1  0
  7  9  1  0
  2 10  1  0
 10 11  1  0
 11 12  1  0
 12 13  1  0
 13 14  1  1
 13 15  1  0
 15 16  1  0
 16 17  1  0
 17 18  2  0
 18 19  1  0
 19 20  1  0
 20 21  1  0
 21 22  1  0
 22 23  1  0
 22 24  1  0
 24 25  1  0
 24 26  1  0
 19 27  1  0
 27 28  1  6
 27 29  1  0
 29 30  1  0
 30 31  1  0
 31 32  1  6
  7  5  1  0
 31 10  1  0
 31 13  1  0
 27 15  1  0
 24 18  1  0
  1 33  1  0
  1 34  1  0
  1 35  1  0
  2 36  1  6
  3 37  1  0
  3 38  1  0
  4 39  1  0
  4 40  1  0
  5 41  1  1
  8 42  1  0
  8 43  1  0
  8 44  1  0
  9 45  1  0
  9 46  1  0
  9 47  1  0
 10 48  1  1
 11 49  1  0
 11 50  1  0
 12 51  1  0
 12 52  1  0
 14 53  1  0
 14 54  1  0
 14 55  1  0
 15 56  1  6
 16 57  1  0
 16 58  1  0
 17 59  1  0
 19 60  1  1
 20 61  1  0
 20 62  1  0
 21 63  1  0
 21 64  1  0
 22 65  1  1
 23 66  1  0
 25 67  1  0
 25 68  1  0
 25 69  1  0
 26 70  1  0
 26 71  1  0
 26 72  1  0
 28 73  1  0
 28 74  1  0
 28 75  1  0
 29 76  1  0
 29 77  1  0
 30 78  1  0
 30 79  1  0
 32 80  1  0
 32 81  1  0
 32 82  1  0
M  END
>  <meeko>  (6) 
{"is_sidechain": [false], "intermolecular_energy": 2.731, "internal_energy": -0.839}

$$$$
EPH_relaxed_0001_pdb2pqr_Repair_114_r2_0001_out
     RDKit          3D

 82 86  0  0  0  0  0  0  0  0999 V2000
    0.4430    8.8830   -2.4240 C   0  0  0  0  0  0  0  0  0  0  0  0
    1.2010   10.0300   -3.0970 C   0  0  2  0  0  0  0  0  0  0  0  0
    2.6980   10.0320   -2.7290 C   0  0  0  0  0  0  0  0  0  0  0  0
    3.6010   10.6050   -3.8240 C   0  0  0  0  0  0  0  0  0  0  0  0
    4.9980   10.8280   -3.3310 C   0  0  2  0  0  0  0  0  0  0  0  0
    5.6050   12.0470   -3.7800 O   0  0  0  0  0  0  0  0  0  0  0  0
    6.2150   10.8290   -4.2370 C   0  0  0  0  0  0  0  0  0  0  0  0
    6.0910   10.6020   -5.7110 C   0  0  0  0  0  0  0  0  0  0  0  0
    7.5590   10.5650   -3.6310 C   0  0  0  0  0  0  0  0  0  0  0  0
    0.5690   11.3640   -2.7160 C   0  0  1  0  0  0  0  0  0  0  0  0
   -0.8090   11.1970   -2.0220 C   0  0  0  0  0  0  0  0  0  0  0  0
   -0.9180   12.3260   -0.9660 C   0  0  0  0  0  0  0  0  0  0  0  0
    0.2370   13.2950   -1.3100 C   0  0  1  0  0  0  0  0  0  0  0  0
   -0.3070   14.1680   -2.4840 C   0  0  0  0  0  0  0  0  0  0  0  0
    0.7730   14.1770   -0.1360 C   0  0  2  0  0  0  0  0  0  0  0  0
   -0.2530   15.1540    0.4670 C   0  0  0  0  0  0  0  0  0  0  0  0
   -0.2890   16.5080   -0.1610 C   0  0  0  0  0  0  0  0  0  0  0  0
    0.6560   17.0190   -0.9720 C   0  0  0  0  0  0  0  0  0  0  0  0
    1.9530   16.2500   -1.2540 C   0  0  1  0  0  0  0  0  0  0  0  0
    3.1650   17.2090   -1.1140 C   0  0  0  0  0  0  0  0  0  0  0  0
    3.0270   18.4560   -1.9810 C   0  0  0  0  0  0  0  0  0  0  0  0
    1.7550   19.2250   -1.6310 C   0  0  2  0  0  0  0  0  0  0  0  0
    1.8840   19.7510   -0.3060 O   0  0  0  0  0  0  0  0  0  0  0  0
    0.4690   18.3580   -1.7270 C   0  0  0  0  0  0  0  0  0  0  0  0
    0.1650   18.0410   -3.2120 C   0  0  0  0  0  0  0  0  0  0  0  0
   -0.7220   19.2120   -1.2130 C   0  0  0  0  0  0  0  0  0  0  0  0
    2.1480   14.8980   -0.4410 C   0  0  1  0  0  0  0  0  0  0  0  0
    2.8100   15.1970    0.9390 C   0  0  0  0  0  0  0  0  0  0  0  0
    3.1500   13.9680   -1.2220 C   0  0  0  0  0  0  0  0  0  0  0  0
    2.5450   13.0340   -2.2870 C   0  0  0  0  0  0  0  0  0  0  0  0
    1.3480   12.2620   -1.7230 C   0  0  2  0  0  0  0  0  0  0  0  0
    1.8700   11.3580   -0.5540 C   0  0  0  0  0  0  0  0  0  0  0  0
    0.5128    8.9887   -1.3313 H   0  0  0  0  0  0  0  0  0  0  0  0
   -0.6136    8.9132   -2.7285 H   0  0  0  0  0  0  0  0  0  0  0  0
    0.8850    7.9229   -2.7285 H   0  0  0  0  0  0  0  0  0  0  0  0
    1.1291    9.8812   -4.1845 H   0  0  0  0  0  0  0  0  0  0  0  0
    2.8308   10.6351   -1.8187 H   0  0  0  0  0  0  0  0  0  0  0  0
    2.9946    8.9826   -2.5848 H   0  0  0  0  0  0  0  0  0  0  0  0
    3.6292    9.8999   -4.6678 H   0  0  0  0  0  0  0  0  0  0  0  0
    3.1884   11.5761   -4.1349 H   0  0  0  0  0  0  0  0  0  0  0  0
    4.7764   10.2970   -2.3935 H   0  0  0  0  0  0  0  0  0  0  0  0
    5.5709    9.6499   -5.8929 H   0  0  0  0  0  0  0  0  0  0  0  0
    5.5173   11.4252   -6.1618 H   0  0  0  0  0  0  0  0  0  0  0  0
    7.0937   10.5640   -6.1618 H   0  0  0  0  0  0  0  0  0  0  0  0
    7.4763   10.5812   -2.5342 H   0  0  0  0  0  0  0  0  0  0  0  0
    7.9208    9.5786   -3.9568 H   0  0  0  0  0  0  0  0  0  0  0  0
    8.2670   11.3412   -3.9568 H   0  0  0  0  0  0  0  0  0  0  0  0
    0.5341   11.8402   -3.7069 H   0  0  0  0  0  0  0  0  0  0  0  0
   -1.6188   11.2899   -2.7607 H   0  0  0  0  0  0  0  0  0  0  0  0
   -0.8966   10.2066   -1.5515 H   0  0  0  0  0  0  0  0  0  0  0  0
   -1.8892   12.8368   -1.0425 H   0  0  0  0  0  0  0  0  0  0  0  0
   -0.8486   11.9429    0.0628 H   0  0  0  0  0  0  0  0  0  0  0  0
   -0.8473   15.0351   -2.0763 H   0  0  0  0  0  0  0  0  0  0  0  0
    0.5337   14.5171   -3.1015 H   0  0  0  0  0  0  0  0  0  0  0  0
   -0.9908   13.5671   -3.1015 H   0  0  0  0  0  0  0  0  0  0  0  0
    0.9719   13.4308    0.6474 H   0  0  0  0  0  0  0  0  0  0  0  0
   -1.2517   14.7047    0.3638 H   0  0  0  0  0  0  0  0  0  0  0  0
    0.0534   15.3109    1.5118 H   0  0  0  0  0  0  0  0  0  0  0  0
   -1.1614   17.1414    0.0575 H   0  0  0  0  0  0  0  0  0  0  0  0
    1.8761   15.8948   -2.2922 H   0  0  0  0  0  0  0  0  0  0  0  0
    3.2500   17.5186   -0.0619 H   0  0  0  0  0  0  0  0  0  0  0  0
    4.0609   16.6662   -1.4498 H   0  0  0  0  0  0  0  0  0  0  0  0
    3.8982   19.1071   -1.8166 H   0  0  0  0  0  0  0  0  0  0  0  0
    2.9719   18.1468   -3.0352 H   0  0  0  0  0  0  0  0  0  0  0  0
    1.6438   20.0326   -2.3695 H   0  0  0  0  0  0  0  0  0  0  0  0
    1.4200   20.6050   -0.2820 H   0  0  0  0  0  0  0  0  0  0  0  0
   -0.5953   17.2482   -3.2695 H   0  0  0  0  0  0  0  0  0  0  0  0
   -0.2110   18.9465   -3.7107 H   0  0  0  0  0  0  0  0  0  0  0  0
    1.0854   17.7032   -3.7107 H   0  0  0  0  0  0  0  0  0  0  0  0
   -0.7242   19.2136   -0.1130 H   0  0  0  0  0  0  0  0  0  0  0  0
   -0.6193   20.2435   -1.5810 H   0  0  0  0  0  0  0  0  0  0  0  0
   -1.6660   18.7837   -1.5810 H   0  0  0  0  0  0  0  0  0  0  0  0
    2.1293   14.8895    1.7465 H   0  0  0  0  0  0  0  0  0  0  0  0
    3.7535   14.6376    1.0219 H   0  0  0  0  0  0  0  0  0  0  0  0
    3.0141   16.2747    1.0219 H   0  0  0  0  0  0  0  0  0  0  0  0
    3.8822   14.6164   -1.7254 H   0  0  0  0  0  0  0  0  0  0  0  0
    3.5744   13.2982   -0.4597 H   0  0  0  0  0  0  0  0  0  0  0  0
    2.2129   13.6353   -3.1461 H   0  0  0  0  0  0  0  0  0  0  0  0
    3.3139   12.3112   -2.5972 H   0  0  0  0  0  0  0  0  0  0  0  0
    1.6053   11.8164    0.4103 H   0  0  0  0  0  0  0  0  0  0  0  0
    1.4077   10.3624   -0.6259 H   0  0  0  0  0  0  0  0  0  0  0  0
    2.9633   11.2607   -0.6259 H   0  0  0  0  0  0  0  0  0  0  0  0
  1  2  1  0
  2  3  1  0
  3  4  1  0
  4  5  1  0
  5  6  1  0
  6  7  1  0
  7  8  1  0
  7  9  1  0
  2 10  1  0
 10 11  1  0
 11 12  1  0
 12 13  1  0
 13 14  1  6
 13 15  1  0
 15 16  1  0
 16 17  1  0
 17 18  2  0
 18 19  1  0
 19 20  1  0
 20 21  1  0
 21 22  1  0
 22 23  1  0
 22 24  1  0
 24 25  1  0
 24 26  1  0
 19 27  1  0
 27 28  1  1
 27 29  1  0
 29 30  1  0
 30 31  1  0
 31 32  1  1
  7  5  1  0
 31 10  1  0
 31 13  1  0
 27 15  1  0
 24 18  1  0
  1 33  1  0
  1 34  1  0
  1 35  1  0
  2 36  1  6
  3 37  1  0
  3 38  1  0
  4 39  1  0
  4 40  1  0
  5 41  1  1
  8 42  1  0
  8 43  1  0
  8 44  1  0
  9 45  1  0
  9 46  1  0
  9 47  1  0
 10 48  1  6
 11 49  1  0
 11 50  1  0
 12 51  1  0
 12 52  1  0
 14 53  1  0
 14 54  1  0
 14 55  1  0
 15 56  1  1
 16 57  1  0
 16 58  1  0
 17 59  1  0
 19 60  1  6
 20 61  1  0
 20 62  1  0
 21 63  1  0
 21 64  1  0
 22 65  1  6
 23 66  1  0
 25 67  1  0
 25 68  1  0
 25 69  1  0
 26 70  1  0
 26 71  1  0
 26 72  1  0
 28 73  1  0
 28 74  1  0
 28 75  1  0
 29 76  1  0
 29 77  1  0
 30 78  1  0
 30 79  1  0
 32 80  1  0
 32 81  1  0
 32 82  1  0
M  END
>  <meeko>  (7) 
{"is_sidechain": [false], "intermolecular_energy": 2.731, "internal_energy": -0.839}

$$$$
EPH_relaxed_0001_pdb2pqr_Repair_114_r2_0001_out
     RDKit          3D

 82 86  0  0  0  0  0  0  0  0999 V2000
    0.2430   17.7940   -2.5490 C   0  0  0  0  0  0  0  0  0  0  0  0
    0.0580   16.9690   -1.2730 C   0  0  2  0  0  0  0  0  0  0  0  0
    0.1070   17.8430   -0.0040 C   0  0  0  0  0  0  0  0  0  0  0  0
    0.8460   19.1690   -0.1980 C   0  0  0  0  0  0  0  0  0  0  0  0
    1.8880   19.3840    0.8580 C   0  0  2  0  0  0  0  0  0  0  0  0
    2.9980   20.1940    0.4480 O   0  0  0  0  0  0  0  0  0  0  0  0
    3.2970   18.8260    0.7680 C   0  0  0  0  0  0  0  0  0  0  0  0
    3.7400   18.0100   -0.4050 C   0  0  0  0  0  0  0  0  0  0  0  0
    4.0820   18.6600    2.0320 C   0  0  0  0  0  0  0  0  0  0  0  0
    1.1240   15.8820   -1.1980 C   0  0  1  0  0  0  0  0  0  0  0  0
    1.3420   15.3580    0.2460 C   0  0  0  0  0  0  0  0  0  0  0  0
    1.6640   13.8450    0.1300 C   0  0  0  0  0  0  0  0  0  0  0  0
    1.9470   13.6220   -1.3740 C   0  0  1  0  0  0  0  0  0  0  0  0
    3.4250   14.0800   -1.5780 C   0  0  0  0  0  0  0  0  0  0  0  0
    1.7130   12.1730   -1.9130 C   0  0  2  0  0  0  0  0  0  0  0  0
    2.6100   11.0910   -1.2880 C   0  0  0  0  0  0  0  0  0  0  0  0
    3.9010   10.8450   -1.9970 C   0  0  0  0  0  0  0  0  0  0  0  0
    4.1990   11.2570   -3.2430 C   0  0  0  0  0  0  0  0  0  0  0  0
    3.1510   11.9660   -4.1100 C   0  0  1  0  0  0  0  0  0  0  0  0
    3.1550   11.3500   -5.5340 C   0  0  0  0  0  0  0  0  0  0  0  0
    4.5420   11.3580   -6.1710 C   0  0  0  0  0  0  0  0  0  0  0  0
    5.5420   10.5930   -5.3080 C   0  0  2  0  0  0  0  0  0  0  0  0
    5.1830    9.2080   -5.3040 O   0  0  0  0  0  0  0  0  0  0  0  0
    5.6180   11.1190   -3.8470 C   0  0  0  0  0  0  0  0  0  0  0  0
    6.2920   12.5130   -3.8300 C   0  0  0  0  0  0  0  0  0  0  0  0
    6.5560   10.1740   -3.0490 C   0  0  0  0  0  0  0  0  0  0  0  0
    1.6910   12.0640   -3.4920 C   0  0  1  0  0  0  0  0  0  0  0  0
    0.8790   10.7780   -3.8380 C   0  0  0  0  0  0  0  0  0  0  0  0
    0.9270   13.2660   -4.1640 C   0  0  0  0  0  0  0  0  0  0  0  0
    1.1040   14.6510   -3.5140 C   0  0  0  0  0  0  0  0  0  0  0  0
    0.8710   14.5810   -2.0020 C   0  0  2  0  0  0  0  0  0  0  0  0
   -0.6150   14.1440   -1.7660 C   0  0  0  0  0  0  0  0  0  0  0  0
    0.4765   18.8352   -2.2818 H   0  0  0  0  0  0  0  0  0  0  0  0
    1.0691   17.3733   -3.1411 H   0  0  0  0  0  0  0  0  0  0  0  0
   -0.6836   17.7664   -3.1411 H   0  0  0  0  0  0  0  0  0  0  0  0
   -0.9401   16.5088   -1.3184 H   0  0  0  0  0  0  0  0  0  0  0  0
   -0.9252   18.0629    0.3062 H   0  0  0  0  0  0  0  0  0  0  0  0
    0.6619   17.2742    0.7566 H   0  0  0  0  0  0  0  0  0  0  0  0
    1.3337   19.1641   -1.1840 H   0  0  0  0  0  0  0  0  0  0  0  0
    0.1112   19.9843   -0.1250 H   0  0  0  0  0  0  0  0  0  0  0  0
    1.1270   19.3433    1.6512 H   0  0  0  0  0  0  0  0  0  0  0  0
    4.2366   17.0954   -0.0488 H   0  0  0  0  0  0  0  0  0  0  0  0
    2.8653   17.7388   -1.0143 H   0  0  0  0  0  0  0  0  0  0  0  0
    4.4439   18.5958   -1.0143 H   0  0  0  0  0  0  0  0  0  0  0  0
    3.4176   18.8005    2.8974 H   0  0  0  0  0  0  0  0  0  0  0  0
    4.5168   17.6501    2.0637 H   0  0  0  0  0  0  0  0  0  0  0  0
    4.8884   19.4075    2.0637 H   0  0  0  0  0  0  0  0  0  0  0  0
    1.9764   16.4297   -1.6264 H   0  0  0  0  0  0  0  0  0  0  0  0
    2.1816   15.8887    0.7187 H   0  0  0  0  0  0  0  0  0  0  0  0
    0.4485   15.5250    0.8655 H   0  0  0  0  0  0  0  0  0  0  0  0
    2.5469   13.5882    0.7338 H   0  0  0  0  0  0  0  0  0  0  0  0
    0.8421   13.2136    0.4985 H   0  0  0  0  0  0  0  0  0  0  0  0
    3.9017   14.2277   -0.5977 H   0  0  0  0  0  0  0  0  0  0  0  0
    3.9733   13.3096   -2.1400 H   0  0  0  0  0  0  0  0  0  0  0  0
    3.4416   15.0254   -2.1400 H   0  0  0  0  0  0  0  0  0  0  0  0
    0.6933   11.9540   -1.5634 H   0  0  0  0  0  0  0  0  0  0  0  0
    2.8413   11.3953   -0.2566 H   0  0  0  0  0  0  0  0  0  0  0  0
    2.0430   10.1507   -1.3532 H   0  0  0  0  0  0  0  0  0  0  0  0
    4.6734   10.2794   -1.4552 H   0  0  0  0  0  0  0  0  0  0  0  0
    3.4595   13.0207   -4.1583 H   0  0  0  0  0  0  0  0  0  0  0  0
    2.8026   10.3100   -5.4693 H   0  0  0  0  0  0  0  0  0  0  0  0
    2.4942   11.9627   -6.1648 H   0  0  0  0  0  0  0  0  0  0  0  0
    4.4858   10.8847   -7.1624 H   0  0  0  0  0  0  0  0  0  0  0  0
    4.8812   12.4005   -6.2617 H   0  0  0  0  0  0  0  0  0  0  0  0
    6.5395   10.7425   -5.7469 H   0  0  0  0  0  0  0  0  0  0  0  0
    4.7880    9.0100   -4.4380 H   0  0  0  0  0  0  0  0  0  0  0  0
    6.4466   12.8328   -2.7889 H   0  0  0  0  0  0  0  0  0  0  0  0
    7.2627   12.4573   -4.3445 H   0  0  0  0  0  0  0  0  0  0  0  0
    5.6455   13.2392   -4.3445 H   0  0  0  0  0  0  0  0  0  0  0  0
    6.4020   10.3292   -1.9709 H   0  0  0  0  0  0  0  0  0  0  0  0
    6.3279    9.1289   -3.3053 H   0  0  0  0  0  0  0  0  0  0  0  0
    7.6028   10.3943   -3.3053 H   0  0  0  0  0  0  0  0  0  0  0  0
    0.5653   10.2812   -2.9081 H   0  0  0  0  0  0  0  0  0  0  0  0
   -0.0099   11.0525   -4.4250 H   0  0  0  0  0  0  0  0  0  0  0  0
    1.5090   10.0934   -4.4250 H   0  0  0  0  0  0  0  0  0  0  0  0
    1.2736   13.3402   -5.2053 H   0  0  0  0  0  0  0  0  0  0  0  0
   -0.1410   13.0285   -4.0497 H   0  0  0  0  0  0  0  0  0  0  0  0
    2.1263   15.0098   -3.7043 H   0  0  0  0  0  0  0  0  0  0  0  0
    0.3664   15.3402   -3.9509 H   0  0  0  0  0  0  0  0  0  0  0  0
   -0.8129   14.0858   -0.6855 H   0  0  0  0  0  0  0  0  0  0  0  0
   -1.2911   14.8814   -2.2234 H   0  0  0  0  0  0  0  0  0  0  0  0
   -0.7843   13.1580   -2.2234 H   0  0  0  0  0  0  0  0  0  0  0  0
  1  2  1  0
  2  3  1  0
  3  4  1  0
  4  5  1  0
  5  6  1  0
  6  7  1  0
  7  8  1  0
  7  9  1  0
  2 10  1  0
 10 11  1  0
 11 12  1  0
 12 13  1  0
 13 14  1  1
 13 15  1  0
 15 16  1  0
 16 17  1  0
 17 18  2  0
 18 19  1  0
 19 20  1  0
 20 21  1  0
 21 22  1  0
 22 23  1  0
 22 24  1  0
 24 25  1  0
 24 26  1  0
 19 27  1  0
 27 28  1  1
 27 29  1  0
 29 30  1  0
 30 31  1  0
 31 32  1  6
  7  5  1  0
 31 10  1  0
 31 13  1  0
 27 15  1  0
 24 18  1  0
  1 33  1  0
  1 34  1  0
  1 35  1  0
  2 36  1  6
  3 37  1  0
  3 38  1  0
  4 39  1  0
  4 40  1  0
  5 41  1  1
  8 42  1  0
  8 43  1  0
  8 44  1  0
  9 45  1  0
  9 46  1  0
  9 47  1  0
 10 48  1  6
 11 49  1  0
 11 50  1  0
 12 51  1  0
 12 52  1  0
 14 53  1  0
 14 54  1  0
 14 55  1  0
 15 56  1  1
 16 57  1  0
 16 58  1  0
 17 59  1  0
 19 60  1  6
 20 61  1  0
 20 62  1  0
 21 63  1  0
 21 64  1  0
 22 65  1  6
 23 66  1  0
 25 67  1  0
 25 68  1  0
 25 69  1  0
 26 70  1  0
 26 71  1  0
 26 72  1  0
 28 73  1  0
 28 74  1  0
 28 75  1  0
 29 76  1  0
 29 77  1  0
 30 78  1  0
 30 79  1  0
 32 80  1  0
 32 81  1  0
 32 82  1  0
M  END
>  <meeko>  (8) 
{"is_sidechain": [false], "intermolecular_energy": 2.731, "internal_energy": -0.839}

$$$$
EPH_relaxed_0001_pdb2pqr_Repair_114_r2_0001_out
     RDKit          3D

 82 86  0  0  0  0  0  0  0  0999 V2000
   -0.7910   16.3530   -5.7840 C   0  0  0  0  0  0  0  0  0  0  0  0
    0.2480   15.6230   -6.6390 C   0  0  2  0  0  0  0  0  0  0  0  0
   -0.2150   15.4570   -8.1000 C   0  0  0  0  0  0  0  0  0  0  0  0
    0.4170   16.4660   -9.0640 C   0  0  0  0  0  0  0  0  0  0  0  0
    1.8290   16.0960   -9.4050 C   0  0  2  0  0  0  0  0  0  0  0  0
    2.3350   16.7060  -10.6000 O   0  0  0  0  0  0  0  0  0  0  0  0
    2.2070   15.2750  -10.6230 C   0  0  0  0  0  0  0  0  0  0  0  0
    1.1710   14.7730  -11.5790 C   0  0  0  0  0  0  0  0  0  0  0  0
    3.5190   14.5530  -10.6200 C   0  0  0  0  0  0  0  0  0  0  0  0
    0.5540   14.2590   -6.0320 C   0  0  1  0  0  0  0  0  0  0  0  0
    1.8190   13.6020   -6.6450 C   0  0  0  0  0  0  0  0  0  0  0  0
    2.5140   12.8160   -5.5040 C   0  0  0  0  0  0  0  0  0  0  0  0
    1.4650   12.7690   -4.3680 C   0  0  1  0  0  0  0  0  0  0  0  0
    0.5040   11.6020   -4.7570 C   0  0  0  0  0  0  0  0  0  0  0  0
    2.0240   12.5970   -2.9180 C   0  0  2  0  0  0  0  0  0  0  0  0
    2.7830   11.2840   -2.6630 C   0  0  0  0  0  0  0  0  0  0  0  0
    1.9460   10.1480   -2.1730 C   0  0  0  0  0  0  0  0  0  0  0  0
    0.7000   10.2520   -1.6770 C   0  0  0  0  0  0  0  0  0  0  0  0
    0.0430   11.6250   -1.4790 C   0  0  1  0  0  0  0  0  0  0  0  0
   -0.6140   11.6860   -0.0750 C   0  0  0  0  0  0  0  0  0  0  0  0
   -1.5840   10.5340    0.1680 C   0  0  0  0  0  0  0  0  0  0  0  0
   -0.8810    9.1880    0.0190 C   0  0  2  0  0  0  0  0  0  0  0  0
    0.0760    9.0490    1.0740 O   0  0  0  0  0  0  0  0  0  0  0  0
   -0.1740    9.0150   -1.3540 C   0  0  0  0  0  0  0  0  0  0  0  0
   -1.2350    8.8640   -2.4710 C   0  0  0  0  0  0  0  0  0  0  0  0
    0.6140    7.6770   -1.3200 C   0  0  0  0  0  0  0  0  0  0  0  0
    0.9650   12.8840   -1.7770 C   0  0  1  0  0  0  0  0  0  0  0  0
    1.7770   13.2630   -0.5010 C   0  0  0  0  0  0  0  0  0  0  0  0
    0.0520   14.1240   -2.1060 C   0  0  0  0  0  0  0  0  0  0  0  0
   -0.3690   14.3060   -3.5770 C   0  0  0  0  0  0  0  0  0  0  0  0
    0.8420   14.2050   -4.5100 C   0  0  2  0  0  0  0  0  0  0  0  0
    1.8160   15.3800   -4.1570 C   0  0  0  0  0  0  0  0  0  0  0  0
   -0.5659   16.1949   -4.7190 H   0  0  0  0  0  0  0  0  0  0  0  0
   -0.7605   17.4292   -6.0093 H   0  0  0  0  0  0  0  0  0  0  0  0
   -1.7932   15.9595   -6.0093 H   0  0  0  0  0  0  0  0  0  0  0  0
    1.1594   16.2388   -6.6496 H   0  0  0  0  0  0  0  0  0  0  0  0
    0.0498   14.4434   -8.4353 H   0  0  0  0  0  0  0  0  0  0  0  0
   -1.3006   15.6336   -8.1155 H   0  0  0  0  0  0  0  0  0  0  0  0
   -0.1773   16.4958   -9.9892 H   0  0  0  0  0  0  0  0  0  0  0  0
    0.4291   17.4498   -8.5720 H   0  0  0  0  0  0  0  0  0  0  0  0
    2.0859   15.9970   -8.3400 H   0  0  0  0  0  0  0  0  0  0  0  0
    0.3209   14.3611  -11.0154 H   0  0  0  0  0  0  0  0  0  0  0  0
    0.8236   15.6027  -12.2122 H   0  0  0  0  0  0  0  0  0  0  0  0
    1.6069   13.9862  -12.2122 H   0  0  0  0  0  0  0  0  0  0  0  0
    3.8384   14.3772   -9.5822 H   0  0  0  0  0  0  0  0  0  0  0  0
    3.4081   13.5889  -11.1378 H   0  0  0  0  0  0  0  0  0  0  0  0
    4.2742   15.1626  -11.1378 H   0  0  0  0  0  0  0  0  0  0  0  0
   -0.3915   13.7430   -6.2548 H   0  0  0  0  0  0  0  0  0  0  0  0
    1.5340   12.9173   -7.4574 H   0  0  0  0  0  0  0  0  0  0  0  0
    2.4927   14.3620   -7.0676 H   0  0  0  0  0  0  0  0  0  0  0  0
    2.7740   11.7997   -5.8348 H   0  0  0  0  0  0  0  0  0  0  0  0
    3.4545   13.2886   -5.1843 H   0  0  0  0  0  0  0  0  0  0  0  0
    0.1140   11.1284   -3.8440 H   0  0  0  0  0  0  0  0  0  0  0  0
   -0.3329   11.9986   -5.3506 H   0  0  0  0  0  0  0  0  0  0  0  0
    1.0537   10.8567   -5.3506 H   0  0  0  0  0  0  0  0  0  0  0  0
    2.7796   13.3943   -2.8602 H   0  0  0  0  0  0  0  0  0  0  0  0
    3.2554   10.9756   -3.6073 H   0  0  0  0  0  0  0  0  0  0  0  0
    3.5032   11.4998   -1.8600 H   0  0  0  0  0  0  0  0  0  0  0  0
    2.3859    9.1410   -2.2219 H   0  0  0  0  0  0  0  0  0  0  0  0
   -0.7302   11.7079   -2.2570 H   0  0  0  0  0  0  0  0  0  0  0  0
    0.1783   11.6464    0.6870 H   0  0  0  0  0  0  0  0  0  0  0  0
   -1.1871   12.6230   -0.0152 H   0  0  0  0  0  0  0  0  0  0  0  0
   -1.9924   10.6160    1.1861 H   0  0  0  0  0  0  0  0  0  0  0  0
   -2.3917   10.5924   -0.5765 H   0  0  0  0  0  0  0  0  0  0  0  0
   -1.6515    8.4050    0.0756 H   0  0  0  0  0  0  0  0  0  0  0  0
   -0.0090    8.1480    1.4310 H   0  0  0  0  0  0  0  0  0  0  0  0
   -2.2272    8.7228   -2.0176 H   0  0  0  0  0  0  0  0  0  0  0  0
   -1.2424    9.7701   -3.0946 H   0  0  0  0  0  0  0  0  0  0  0  0
   -0.9893    7.9918   -3.0946 H   0  0  0  0  0  0  0  0  0  0  0  0
    0.7885    7.3807   -0.2751 H   0  0  0  0  0  0  0  0  0  0  0  0
    0.0319    6.8956   -1.8304 H   0  0  0  0  0  0  0  0  0  0  0  0
    1.5797    7.8071   -1.8304 H   0  0  0  0  0  0  0  0  0  0  0  0
    1.1989   12.9932    0.3951 H   0  0  0  0  0  0  0  0  0  0  0  0
    2.7324   12.7177   -0.4989 H   0  0  0  0  0  0  0  0  0  0  0  0
    1.9726   14.3455   -0.4989 H   0  0  0  0  0  0  0  0  0  0  0  0
   -0.8655   14.0301   -1.5065 H   0  0  0  0  0  0  0  0  0  0  0  0
    0.6677   15.0049   -1.8717 H   0  0  0  0  0  0  0  0  0  0  0  0
   -1.0947   13.5233   -3.8432 H   0  0  0  0  0  0  0  0  0  0  0  0
   -0.8188   15.3032   -3.6925 H   0  0  0  0  0  0  0  0  0  0  0  0
    1.8948   15.4751   -3.0640 H   0  0  0  0  0  0  0  0  0  0  0  0
    2.8100   15.1718   -4.5796 H   0  0  0  0  0  0  0  0  0  0  0  0
    1.4271   16.3182   -4.5796 H   0  0  0  0  0  0  0  0  0  0  0  0
  1  2  1  0
  2  3  1  0
  3  4  1  0
  4  5  1  0
  5  6  1  0
  6  7  1  0
  7  8  1  0
  7  9  1  0
  2 10  1  0
 10 11  1  0
 11 12  1  0
 12 13  1  0
 13 14  1  6
 13 15  1  0
 15 16  1  0
 16 17  1  0
 17 18  2  0
 18 19  1  0
 19 20  1  0
 20 21  1  0
 21 22  1  0
 22 23  1  0
 22 24  1  0
 24 25  1  0
 24 26  1  0
 19 27  1  0
 27 28  1  1
 27 29  1  0
 29 30  1  0
 30 31  1  0
 31 32  1  1
  7  5  1  0
 31 10  1  0
 31 13  1  0
 27 15  1  0
 24 18  1  0
  1 33  1  0
  1 34  1  0
  1 35  1  0
  2 36  1  6
  3 37  1  0
  3 38  1  0
  4 39  1  0
  4 40  1  0
  5 41  1  1
  8 42  1  0
  8 43  1  0
  8 44  1  0
  9 45  1  0
  9 46  1  0
  9 47  1  0
 10 48  1  1
 11 49  1  0
 11 50  1  0
 12 51  1  0
 12 52  1  0
 14 53  1  0
 14 54  1  0
 14 55  1  0
 15 56  1  1
 16 57  1  0
 16 58  1  0
 17 59  1  0
 19 60  1  6
 20 61  1  0
 20 62  1  0
 21 63  1  0
 21 64  1  0
 22 65  1  1
 23 66  1  0
 25 67  1  0
 25 68  1  0
 25 69  1  0
 26 70  1  0
 26 71  1  0
 26 72  1  0
 28 73  1  0
 28 74  1  0
 28 75  1  0
 29 76  1  0
 29 77  1  0
 30 78  1  0
 30 79  1  0
 32 80  1  0
 32 81  1  0
 32 82  1  0
M  END
>  <meeko>  (9) 
{"is_sidechain": [false], "intermolecular_energy": 2.731, "internal_energy": -0.839}

$$$$
EPH_relaxed_0001_pdb2pqr_Repair_114_r2_0001_out
     RDKit          3D

 82 86  0  0  0  0  0  0  0  0999 V2000
   -2.3540    7.8370   -2.2770 C   0  0  0  0  0  0  0  0  0  0  0  0
   -2.3210    8.4190   -0.8610 C   0  0  2  0  0  0  0  0  0  0  0  0
   -3.7120    8.4050   -0.1950 C   0  0  0  0  0  0  0  0  0  0  0  0
   -4.8600    8.1390   -1.1720 C   0  0  0  0  0  0  0  0  0  0  0  0
   -5.9150    7.2660   -0.5640 C   0  0  2  0  0  0  0  0  0  0  0  0
   -6.4160    6.2400   -1.4300 O   0  0  0  0  0  0  0  0  0  0  0  0
   -7.3590    7.2490   -1.0320 C   0  0  0  0  0  0  0  0  0  0  0  0
   -7.8260    8.1220   -2.1540 C   0  0  0  0  0  0  0  0  0  0  0  0
   -8.4110    6.7530   -0.0890 C   0  0  0  0  0  0  0  0  0  0  0  0
   -1.7750    9.8410   -0.8960 C   0  0  1  0  0  0  0  0  0  0  0  0
   -1.3440   10.3510    0.5050 C   0  0  0  0  0  0  0  0  0  0  0  0
   -0.1080   11.2610    0.2880 C   0  0  0  0  0  0  0  0  0  0  0  0
   -0.0700   11.5130   -1.2370 C   0  0  1  0  0  0  0  0  0  0  0  0
   -1.1090   12.6510   -1.4820 C   0  0  0  0  0  0  0  0  0  0  0  0
    1.3260   11.8650   -1.8460 C   0  0  2  0  0  0  0  0  0  0  0  0
    1.9550   13.1690   -1.3240 C   0  0  0  0  0  0  0  0  0  0  0  0
    1.6190   14.3960   -2.1040 C   0  0  0  0  0  0  0  0  0  0  0  0
    1.0800   14.4150   -3.3370 C   0  0  0  0  0  0  0  0  0  0  0  0
    0.8440   13.1140   -4.1140 C   0  0  1  0  0  0  0  0  0  0  0  0
    1.3560   13.2800   -5.5690 C   0  0  0  0  0  0  0  0  0  0  0  0
    0.7510   14.4940   -6.2680 C   0  0  0  0  0  0  0  0  0  0  0  0
    1.0560   15.7750   -5.4960 C   0  0  2  0  0  0  0  0  0  0  0  0
    2.4650   16.0230   -5.5530 O   0  0  0  0  0  0  0  0  0  0  0  0
    0.5950   15.7220   -4.0130 C   0  0  0  0  0  0  0  0  0  0  0  0
   -0.9520   15.7570   -3.9480 C   0  0  0  0  0  0  0  0  0  0  0  0
    1.0880   17.0170   -3.3120 C   0  0  0  0  0  0  0  0  0  0  0  0
    1.3830   11.7870   -3.4250 C   0  0  1  0  0  0  0  0  0  0  0  0
    2.8780   11.5600   -3.8060 C   0  0  0  0  0  0  0  0  0  0  0  0
    0.5880   10.5530   -3.9930 C   0  0  0  0  0  0  0  0  0  0  0  0
   -0.7240   10.1820   -3.2750 C   0  0  0  0  0  0  0  0  0  0  0  0
   -0.5140   10.0980   -1.7600 C   0  0  2  0  0  0  0  0  0  0  0  0
    0.5100    8.9450   -1.4810 C   0  0  0  0  0  0  0  0  0  0  0  0
   -2.4162    6.7402   -2.2213 H   0  0  0  0  0  0  0  0  0  0  0  0
   -3.2315    8.2272   -2.8135 H   0  0  0  0  0  0  0  0  0  0  0  0
   -1.4381    8.1255   -2.8135 H   0  0  0  0  0  0  0  0  0  0  0  0
   -1.6589    7.7815   -0.2566 H   0  0  0  0  0  0  0  0  0  0  0  0
   -3.7210    7.6182    0.5737 H   0  0  0  0  0  0  0  0  0  0  0  0
   -3.8758    9.4072    0.2278 H   0  0  0  0  0  0  0  0  0  0  0  0
   -5.3137    9.0992   -1.4587 H   0  0  0  0  0  0  0  0  0  0  0  0
   -4.4491    7.6190   -2.0500 H   0  0  0  0  0  0  0  0  0  0  0  0
   -5.4637    7.3753    0.4332 H   0  0  0  0  0  0  0  0  0  0  0  0
   -8.3072    9.0216   -1.7427 H   0  0  0  0  0  0  0  0  0  0  0  0
   -6.9651    8.4167   -2.7720 H   0  0  0  0  0  0  0  0  0  0  0  0
   -8.5490    7.5694   -2.7720 H   0  0  0  0  0  0  0  0  0  0  0  0
   -8.0778    6.9101    0.9475 H   0  0  0  0  0  0  0  0  0  0  0  0
   -9.3470    7.3046   -0.2609 H   0  0  0  0  0  0  0  0  0  0  0  0
   -8.5810    5.6799   -0.2609 H   0  0  0  0  0  0  0  0  0  0  0  0
   -2.6416   10.3600   -1.3315 H   0  0  0  0  0  0  0  0  0  0  0  0
   -2.1607   10.9250    0.9671 H   0  0  0  0  0  0  0  0  0  0  0  0
   -1.1044    9.5119    1.1746 H   0  0  0  0  0  0  0  0  0  0  0  0
   -0.2228   12.2084    0.8351 H   0  0  0  0  0  0  0  0  0  0  0  0
    0.8195   10.7987    0.6570 H   0  0  0  0  0  0  0  0  0  0  0  0
   -1.4630   13.0387   -0.5153 H   0  0  0  0  0  0  0  0  0  0  0  0
   -0.6350   13.4639   -2.0517 H   0  0  0  0  0  0  0  0  0  0  0  0
   -1.9615   12.2527   -2.0517 H   0  0  0  0  0  0  0  0  0  0  0  0
    1.9618   11.0527   -1.4640 H   0  0  0  0  0  0  0  0  0  0  0  0
    1.6141   13.3202   -0.2891 H   0  0  0  0  0  0  0  0  0  0  0  0
    3.0435   13.0393   -1.4150 H   0  0  0  0  0  0  0  0  0  0  0  0
    1.8296   15.3667   -1.6314 H   0  0  0  0  0  0  0  0  0  0  0  0
   -0.2444   12.9548   -4.1170 H   0  0  0  0  0  0  0  0  0  0  0  0
    2.4498   13.3948   -5.5468 H   0  0  0  0  0  0  0  0  0  0  0  0
    1.0538   12.3853   -6.1331 H   0  0  0  0  0  0  0  0  0  0  0  0
    1.1736   14.5744   -7.2804 H   0  0  0  0  0  0  0  0  0  0  0  0
   -0.3402   14.3641   -6.3164 H   0  0  0  0  0  0  0  0  0  0  0  0
    0.4891   16.5890   -5.9713 H   0  0  0  0  0  0  0  0  0  0  0  0
    2.6190   16.6870   -6.2460 H   0  0  0  0  0  0  0  0  0  0  0  0
   -1.2747   15.7643   -2.8964 H   0  0  0  0  0  0  0  0  0  0  0  0
   -1.3197   16.6637   -4.4507 H   0  0  0  0  0  0  0  0  0  0  0  0
   -1.3603   14.8679   -4.4507 H   0  0  0  0  0  0  0  0  0  0  0  0
    1.0378   16.8852   -2.2211 H   0  0  0  0  0  0  0  0  0  0  0  0
    2.1271   17.2220   -3.6092 H   0  0  0  0  0  0  0  0  0  0  0  0
    0.4483   17.8611   -3.6092 H   0  0  0  0  0  0  0  0  0  0  0  0
    3.4800   11.4686   -2.8899 H   0  0  0  0  0  0  0  0  0  0  0  0
    2.9694   10.6377   -4.3984 H   0  0  0  0  0  0  0  0  0  0  0  0
    3.2391   12.4136   -4.3984 H   0  0  0  0  0  0  0  0  0  0  0  0
    0.3429   10.7698   -5.0432 H   0  0  0  0  0  0  0  0  0  0  0  0
    1.2523    9.6890   -3.8437 H   0  0  0  0  0  0  0  0  0  0  0  0
   -1.4822   10.9491   -3.4914 H   0  0  0  0  0  0  0  0  0  0  0  0
   -1.0572    9.1987   -3.6384 H   0  0  0  0  0  0  0  0  0  0  0  0
    0.6270    8.8133   -0.3952 H   0  0  0  0  0  0  0  0  0  0  0  0
    0.1394    8.0098   -1.9260 H   0  0  0  0  0  0  0  0  0  0  0  0
    1.4824    9.2026   -1.9260 H   0  0  0  0  0  0  0  0  0  0  0  0
  1  2  1  0
  2  3  1  0
  3  4  1  0
  4  5  1  0
  5  6  1  0
  6  7  1  0
  7  8  1  0
  7  9  1  0
  2 10  1  0
 10 11  1  0
 11 12  1  0
 12 13  1  0
 13 14  1  1
 13 15  1  0
 15 16  1  0
 16 17  1  0
 17 18  2  0
 18 19  1  0
 19 20  1  0
 20 21  1  0
 21 22  1  0
 22 23  1  0
 22 24  1  0
 24 25  1  0
 24 26  1  0
 19 27  1  0
 27 28  1  1
 27 29  1  0
 29 30  1  0
 30 31  1  0
 31 32  1  6
  7  5  1  0
 31 10  1  0
 31 13  1  0
 27 15  1  0
 24 18  1  0
  1 33  1  0
  1 34  1  0
  1 35  1  0
  2 36  1  1
  3 37  1  0
  3 38  1  0
  4 39  1  0
  4 40  1  0
  5 41  1  1
  8 42  1  0
  8 43  1  0
  8 44  1  0
  9 45  1  0
  9 46  1  0
  9 47  1  0
 10 48  1  6
 11 49  1  0
 11 50  1  0
 12 51  1  0
 12 52  1  0
 14 53  1  0
 14 54  1  0
 14 55  1  0
 15 56  1  1
 16 57  1  0
 16 58  1  0
 17 59  1  0
 19 60  1  6
 20 61  1  0
 20 62  1  0
 21 63  1  0
 21 64  1  0
 22 65  1  6
 23 66  1  0
 25 67  1  0
 25 68  1  0
 25 69  1  0
 26 70  1  0
 26 71  1  0
 26 72  1  0
 28 73  1  0
 28 74  1  0
 28 75  1  0
 29 76  1  0
 29 77  1  0
 30 78  1  0
 30 79  1  0
 32 80  1  0
 32 81  1  0
 32 82  1  0
M  END
>  <meeko>  (10) 
{"is_sidechain": [false], "intermolecular_energy": 2.731, "internal_energy": -0.839}

$$$$
EPH_relaxed_0001_pdb2pqr_Repair_114_r2_0001_out
     RDKit          3D

 82 86  0  0  0  0  0  0  0  0999 V2000
    3.4260   18.5960   -2.3680 C   0  0  0  0  0  0  0  0  0  0  0  0
    2.2110   17.7110   -2.6610 C   0  0  2  0  0  0  0  0  0  0  0  0
    0.8880   18.3850   -2.2430 C   0  0  0  0  0  0  0  0  0  0  0  0
    0.9850   19.1720   -0.9340 C   0  0  0  0  0  0  0  0  0  0  0  0
   -0.2820   19.9160   -0.6390 C   0  0  2  0  0  0  0  0  0  0  0  0
   -0.5050   20.1940    0.7490 O   0  0  0  0  0  0  0  0  0  0  0  0
   -1.4500   19.3130    0.1190 C   0  0  0  0  0  0  0  0  0  0  0  0
   -1.4050   17.9070    0.6300 C   0  0  0  0  0  0  0  0  0  0  0  0
   -2.8080   19.9160   -0.0610 C   0  0  0  0  0  0  0  0  0  0  0  0
    2.3600   16.3710   -1.9510 C   0  0  1  0  0  0  0  0  0  0  0  0
    2.8740   16.5210   -0.4940 C   0  0  0  0  0  0  0  0  0  0  0  0
    2.1850   15.4100    0.3400 C   0  0  0  0  0  0  0  0  0  0  0  0
    1.5640   14.4620   -0.7110 C   0  0  1  0  0  0  0  0  0  0  0  0
    2.7440   13.5530   -1.1790 C   0  0  0  0  0  0  0  0  0  0  0  0
    0.3360   13.6160   -0.2390 C   0  0  2  0  0  0  0  0  0  0  0  0
    0.6250   12.6290    0.9040 C   0  0  0  0  0  0  0  0  0  0  0  0
    1.0460   11.2620    0.4760 C   0  0  0  0  0  0  0  0  0  0  0  0
    0.9130   10.7560   -0.7650 C   0  0  0  0  0  0  0  0  0  0  0  0
    0.2000   11.5490   -1.8670 C   0  0  1  0  0  0  0  0  0  0  0  0
   -0.7980   10.6220   -2.6090 C   0  0  0  0  0  0  0  0  0  0  0  0
   -0.1350    9.3540   -3.1390 C   0  0  0  0  0  0  0  0  0  0  0  0
    0.5130    8.5630   -2.0060 C   0  0  2  0  0  0  0  0  0  0  0  0
   -0.5150    8.0680   -1.1420 O   0  0  0  0  0  0  0  0  0  0  0  0
    1.5310    9.3980   -1.1800 C   0  0  0  0  0  0  0  0  0  0  0  0
    2.7900    9.6790   -2.0370 C   0  0  0  0  0  0  0  0  0  0  0  0
    2.0050    8.5270    0.0150 C   0  0  0  0  0  0  0  0  0  0  0  0
   -0.4630   12.9210   -1.4150 C   0  0  1  0  0  0  0  0  0  0  0  0
   -1.9060   12.6660   -0.8820 C   0  0  0  0  0  0  0  0  0  0  0  0
   -0.6130   13.8580   -2.6720 C   0  0  0  0  0  0  0  0  0  0  0  0
    0.5900   14.7570   -3.0160 C   0  0  0  0  0  0  0  0  0  0  0  0
    1.0830   15.5120   -1.7780 C   0  0  2  0  0  0  0  0  0  0  0  0
   -0.0760   16.4510   -1.2980 C   0  0  0  0  0  0  0  0  0  0  0  0
    3.5565   18.6911   -1.2799 H   0  0  0  0  0  0  0  0  0  0  0  0
    4.3259   18.1403   -2.8068 H   0  0  0  0  0  0  0  0  0  0  0  0
    3.2683   19.5923   -2.8068 H   0  0  0  0  0  0  0  0  0  0  0  0
    2.1718   17.5523   -3.7488 H   0  0  0  0  0  0  0  0  0  0  0  0
    0.5830   19.0766   -3.0422 H   0  0  0  0  0  0  0  0  0  0  0  0
    0.1549   17.5811   -2.0811 H   0  0  0  0  0  0  0  0  0  0  0  0
    1.1866   18.4709   -0.1107 H   0  0  0  0  0  0  0  0  0  0  0  0
    1.7980   19.9061   -1.0348 H   0  0  0  0  0  0  0  0  0  0  0  0
   -0.2215   20.4457   -1.6012 H   0  0  0  0  0  0  0  0  0  0  0  0
   -1.4053   17.9165    1.7300 H   0  0  0  0  0  0  0  0  0  0  0  0
   -2.2860   17.3569    0.2678 H   0  0  0  0  0  0  0  0  0  0  0  0
   -0.4906   17.4143    0.2678 H   0  0  0  0  0  0  0  0  0  0  0  0
   -3.2547   20.1143    0.9245 H   0  0  0  0  0  0  0  0  0  0  0  0
   -2.7192   20.8593   -0.6199 H   0  0  0  0  0  0  0  0  0  0  0  0
   -3.4482   19.2176   -0.6199 H   0  0  0  0  0  0  0  0  0  0  0  0
    3.0578   15.8737   -2.6407 H   0  0  0  0  0  0  0  0  0  0  0  0
    3.9664   16.3956   -0.4629 H   0  0  0  0  0  0  0  0  0  0  0  0
    2.6399   17.5183   -0.0933 H   0  0  0  0  0  0  0  0  0  0  0  0
    2.9213   14.8755    0.9582 H   0  0  0  0  0  0  0  0  0  0  0  0
    1.4327   15.8146    1.0331 H   0  0  0  0  0  0  0  0  0  0  0  0
    3.2674   13.1498   -0.2995 H   0  0  0  0  0  0  0  0  0  0  0  0
    2.3499   12.7229   -1.7836 H   0  0  0  0  0  0  0  0  0  0  0  0
    3.4461   14.1459   -1.7836 H   0  0  0  0  0  0  0  0  0  0  0  0
   -0.3278   14.3819    0.1885 H   0  0  0  0  0  0  0  0  0  0  0  0
    1.4283   13.0533    1.5243 H   0  0  0  0  0  0  0  0  0  0  0  0
   -0.3259   12.4998    1.4417 H   0  0  0  0  0  0  0  0  0  0  0  0
    1.5031   10.6138    1.2382 H   0  0  0  0  0  0  0  0  0  0  0  0
    0.9869   11.8813   -2.5601 H   0  0  0  0  0  0  0  0  0  0  0  0
   -1.5991   10.3360   -1.9115 H   0  0  0  0  0  0  0  0  0  0  0  0
   -1.1924   11.1785   -3.4720 H   0  0  0  0  0  0  0  0  0  0  0  0
   -0.8958    8.7268   -3.6267 H   0  0  0  0  0  0  0  0  0  0  0  0
    0.6460    9.6406   -3.8586 H   0  0  0  0  0  0  0  0  0  0  0  0
    1.0800    7.7383   -2.4624 H   0  0  0  0  0  0  0  0  0  0  0  0
   -0.1880    7.2480   -0.7350 H   0  0  0  0  0  0  0  0  0  0  0  0
    3.6482    9.8705   -1.3761 H   0  0  0  0  0  0  0  0  0  0  0  0
    3.0037    8.8064   -2.6718 H   0  0  0  0  0  0  0  0  0  0  0  0
    2.6124   10.5596   -2.6718 H   0  0  0  0  0  0  0  0  0  0  0  0
    1.7354    9.0224    0.9594 H   0  0  0  0  0  0  0  0  0  0  0  0
    1.5188    7.5415   -0.0340 H   0  0  0  0  0  0  0  0  0  0  0  0
    3.0966    8.4001   -0.0340 H   0  0  0  0  0  0  0  0  0  0  0  0
   -1.8962   12.6677    0.2180 H   0  0  0  0  0  0  0  0  0  0  0  0
   -2.5762   13.4596   -1.2440 H   0  0  0  0  0  0  0  0  0  0  0  0
   -2.2636   11.6908   -1.2440 H   0  0  0  0  0  0  0  0  0  0  0  0
   -0.8090   13.2164   -3.5438 H   0  0  0  0  0  0  0  0  0  0  0  0
   -1.4276   14.5521   -2.4179 H   0  0  0  0  0  0  0  0  0  0  0  0
    1.4070   14.1314   -3.4048 H   0  0  0  0  0  0  0  0  0  0  0  0
    0.2739   15.4914   -3.7714 H   0  0  0  0  0  0  0  0  0  0  0  0
   -0.1004   16.4707   -0.1984 H   0  0  0  0  0  0  0  0  0  0  0  0
    0.0948   17.4686   -1.6793 H   0  0  0  0  0  0  0  0  0  0  0  0
   -1.0360   16.0729   -1.6793 H   0  0  0  0  0  0  0  0  0  0  0  0
  1  2  1  0
  2  3  1  0
  3  4  1  0
  4  5  1  0
  5  6  1  0
  6  7  1  0
  7  8  1  0
  7  9  1  0
  2 10  1  0
 10 11  1  0
 11 12  1  0
 12 13  1  0
 13 14  1  6
 13 15  1  0
 15 16  1  0
 16 17  1  0
 17 18  2  0
 18 19  1  0
 19 20  1  0
 20 21  1  0
 21 22  1  0
 22 23  1  0
 22 24  1  0
 24 25  1  0
 24 26  1  0
 19 27  1  0
 27 28  1  1
 27 29  1  0
 29 30  1  0
 30 31  1  0
 31 32  1  1
  7  5  1  0
 31 10  1  0
 31 13  1  0
 27 15  1  0
 24 18  1  0
  1 33  1  0
  1 34  1  0
  1 35  1  0
  2 36  1  6
  3 37  1  0
  3 38  1  0
  4 39  1  0
  4 40  1  0
  5 41  1  6
  8 42  1  0
  8 43  1  0
  8 44  1  0
  9 45  1  0
  9 46  1  0
  9 47  1  0
 10 48  1  6
 11 49  1  0
 11 50  1  0
 12 51  1  0
 12 52  1  0
 14 53  1  0
 14 54  1  0
 14 55  1  0
 15 56  1  1
 16 57  1  0
 16 58  1  0
 17 59  1  0
 19 60  1  6
 20 61  1  0
 20 62  1  0
 21 63  1  0
 21 64  1  0
 22 65  1  6
 23 66  1  0
 25 67  1  0
 25 68  1  0
 25 69  1  0
 26 70  1  0
 26 71  1  0
 26 72  1  0
 28 73  1  0
 28 74  1  0
 28 75  1  0
 29 76  1  0
 29 77  1  0
 30 78  1  0
 30 79  1  0
 32 80  1  0
 32 81  1  0
 32 82  1  0
M  END
>  <meeko>  (11) 
{"is_sidechain": [false], "intermolecular_energy": 2.731, "internal_energy": -0.839}

$$$$
EPH_relaxed_0001_pdb2pqr_Repair_114_r2_0001_out
     RDKit          3D

 82 86  0  0  0  0  0  0  0  0999 V2000
    2.9240   11.4140   -5.3690 C   0  0  0  0  0  0  0  0  0  0  0  0
    1.9050   11.1090   -4.2670 C   0  0  2  0  0  0  0  0  0  0  0  0
    0.7850   10.1690   -4.7560 C   0  0  0  0  0  0  0  0  0  0  0  0
   -0.2900    9.8920   -3.7010 C   0  0  0  0  0  0  0  0  0  0  0  0
    0.2380    9.0510   -2.5790 C   0  0  2  0  0  0  0  0  0  0  0  0
   -0.6320    7.9890   -2.1660 O   0  0  0  0  0  0  0  0  0  0  0  0
   -0.3830    9.0180   -1.1950 C   0  0  0  0  0  0  0  0  0  0  0  0
   -1.5860    9.8420   -0.8590 C   0  0  0  0  0  0  0  0  0  0  0  0
    0.4600    8.5690   -0.0420 C   0  0  0  0  0  0  0  0  0  0  0  0
    1.3030   12.4070   -3.7430 C   0  0  1  0  0  0  0  0  0  0  0  0
   -0.2400   12.3320   -3.5910 C   0  0  0  0  0  0  0  0  0  0  0  0
   -0.6090   13.1820   -2.3480 C   0  0  0  0  0  0  0  0  0  0  0  0
    0.6760   13.9800   -2.0260 C   0  0  1  0  0  0  0  0  0  0  0  0
    0.6560   15.1880   -3.0140 C   0  0  0  0  0  0  0  0  0  0  0  0
    0.8440   14.4500   -0.5440 C   0  0  2  0  0  0  0  0  0  0  0  0
   -0.2350   15.4250   -0.0420 C   0  0  0  0  0  0  0  0  0  0  0  0
    0.0730   16.8730   -0.2400 C   0  0  0  0  0  0  0  0  0  0  0  0
    1.2830   17.3820   -0.5350 C   0  0  0  0  0  0  0  0  0  0  0  0
    2.5220   16.4800   -0.6030 C   0  0  1  0  0  0  0  0  0  0  0  0
    3.6890   17.1440    0.1730 C   0  0  0  0  0  0  0  0  0  0  0  0
    3.9760   18.5640   -0.3040 C   0  0  0  0  0  0  0  0  0  0  0  0
    2.7370   19.4460   -0.1670 C   0  0  2  0  0  0  0  0  0  0  0  0
    2.4410   19.6120    1.2230 O   0  0  0  0  0  0  0  0  0  0  0  0
    1.4920   18.8720   -0.9010 C   0  0  0  0  0  0  0  0  0  0  0  0
    1.6990   18.9730   -2.4320 C   0  0  0  0  0  0  0  0  0  0  0  0
    0.2790   19.7810   -0.5660 C   0  0  0  0  0  0  0  0  0  0  0  0
    2.2980   14.9620   -0.1870 C   0  0  1  0  0  0  0  0  0  0  0  0
    2.4600   14.8040    1.3550 C   0  0  0  0  0  0  0  0  0  0  0  0
    3.4220   14.0770   -0.8450 C   0  0  0  0  0  0  0  0  0  0  0  0
    3.1460   13.5450   -2.2640 C   0  0  0  0  0  0  0  0  0  0  0  0
    1.7630   12.8910   -2.3440 C   0  0  2  0  0  0  0  0  0  0  0  0
    1.7600   11.6580   -1.3770 C   0  0  0  0  0  0  0  0  0  0  0  0
    3.8828   11.7010   -4.9126 H   0  0  0  0  0  0  0  0  0  0  0  0
    3.0681   10.5196   -5.9929 H   0  0  0  0  0  0  0  0  0  0  0  0
    2.5530   12.2405   -5.9929 H   0  0  0  0  0  0  0  0  0  0  0  0
    2.4391   10.5923   -3.4559 H   0  0  0  0  0  0  0  0  0  0  0  0
    0.3026   10.6292   -5.6309 H   0  0  0  0  0  0  0  0  0  0  0  0
    1.2564    9.2045   -4.9958 H   0  0  0  0  0  0  0  0  0  0  0  0
   -0.6437   10.8501   -3.2924 H   0  0  0  0  0  0  0  0  0  0  0  0
   -1.1111    9.3423   -4.1844 H   0  0  0  0  0  0  0  0  0  0  0  0
    1.2726    9.2031   -2.9202 H   0  0  0  0  0  0  0  0  0  0  0  0
   -1.6887    9.9123    0.2339 H   0  0  0  0  0  0  0  0  0  0  0  0
   -1.4693   10.8507   -1.2820 H   0  0  0  0  0  0  0  0  0  0  0  0
   -2.4844    9.3687   -1.2820 H   0  0  0  0  0  0  0  0  0  0  0  0
   -0.0385    8.8345    0.9020 H   0  0  0  0  0  0  0  0  0  0  0  0
    0.5967    7.4786   -0.0904 H   0  0  0  0  0  0  0  0  0  0  0  0
    1.4411    9.0640   -0.0904 H   0  0  0  0  0  0  0  0  0  0  0  0
    1.6598   13.1012   -4.5181 H   0  0  0  0  0  0  0  0  0  0  0  0
   -0.7292   12.7401   -4.4877 H   0  0  0  0  0  0  0  0  0  0  0  0
   -0.5749   11.2911   -3.4712 H   0  0  0  0  0  0  0  0  0  0  0  0
   -1.4421   13.8630   -2.5766 H   0  0  0  0  0  0  0  0  0  0  0  0
   -0.9383   12.5619   -1.5012 H   0  0  0  0  0  0  0  0  0  0  0  0
    0.6404   16.1282   -2.4433 H   0  0  0  0  0  0  0  0  0  0  0  0
    1.5548   15.1585   -3.6475 H   0  0  0  0  0  0  0  0  0  0  0  0
   -0.2413   15.1287   -3.6475 H   0  0  0  0  0  0  0  0  0  0  0  0
    0.6876   13.5174    0.0180 H   0  0  0  0  0  0  0  0  0  0  0  0
   -1.1707   15.2004   -0.5749 H   0  0  0  0  0  0  0  0  0  0  0  0
   -0.3006   15.2733    1.0455 H   0  0  0  0  0  0  0  0  0  0  0  0
   -0.7602   17.5836   -0.1358 H   0  0  0  0  0  0  0  0  0  0  0  0
    2.7811   16.3989   -1.6690 H   0  0  0  0  0  0  0  0  0  0  0  0
    3.4285   17.1768    1.2412 H   0  0  0  0  0  0  0  0  0  0  0  0
    4.5929   16.5430   -0.0052 H   0  0  0  0  0  0  0  0  0  0  0  0
    4.7898   18.9897    0.3014 H   0  0  0  0  0  0  0  0  0  0  0  0
    4.2651   18.5266   -1.3647 H   0  0  0  0  0  0  0  0  0  0  0  0
    2.9648   20.4111   -0.6431 H   0  0  0  0  0  0  0  0  0  0  0  0
    1.8160   18.9120    1.4770 H   0  0  0  0  0  0  0  0  0  0  0  0
    2.6697   19.4466   -2.6403 H   0  0  0  0  0  0  0  0  0  0  0  0
    1.6810   17.9649   -2.8717 H   0  0  0  0  0  0  0  0  0  0  0  0
    0.8933   19.5793   -2.8717 H   0  0  0  0  0  0  0  0  0  0  0  0
    0.1716   19.8615    0.5258 H   0  0  0  0  0  0  0  0  0  0  0  0
    0.4415   20.7815   -0.9932 H   0  0  0  0  0  0  0  0  0  0  0  0
   -0.6357   19.3441   -0.9932 H   0  0  0  0  0  0  0  0  0  0  0  0
    1.7635   15.4833    1.8684 H   0  0  0  0  0  0  0  0  0  0  0  0
    2.2383   13.7656    1.6425 H   0  0  0  0  0  0  0  0  0  0  0  0
    3.4925   15.0516    1.6425 H   0  0  0  0  0  0  0  0  0  0  0  0
    4.3391   14.6828   -0.8893 H   0  0  0  0  0  0  0  0  0  0  0  0
    3.4912   13.1812   -0.2104 H   0  0  0  0  0  0  0  0  0  0  0  0
    3.1905   14.3814   -2.9770 H   0  0  0  0  0  0  0  0  0  0  0  0
    3.9066   12.7893   -2.5098 H   0  0  0  0  0  0  0  0  0  0  0  0
    1.7609   12.0095   -0.3347 H   0  0  0  0  0  0  0  0  0  0  0  0
    0.8604   11.0517   -1.5588 H   0  0  0  0  0  0  0  0  0  0  0  0
    2.6567   11.0473   -1.5588 H   0  0  0  0  0  0  0  0  0  0  0  0
  1  2  1  0
  2  3  1  0
  3  4  1  0
  4  5  1  0
  5  6  1  0
  6  7  1  0
  7  8  1  0
  7  9  1  0
  2 10  1  0
 10 11  1  0
 11 12  1  0
 12 13  1  0
 13 14  1  6
 13 15  1  0
 15 16  1  0
 16 17  1  0
 17 18  2  0
 18 19  1  0
 19 20  1  0
 20 21  1  0
 21 22  1  0
 22 23  1  0
 22 24  1  0
 24 25  1  0
 24 26  1  0
 19 27  1  0
 27 28  1  1
 27 29  1  0
 29 30  1  0
 30 31  1  0
 31 32  1  1
  7  5  1  0
 31 10  1  0
 31 13  1  0
 27 15  1  0
 24 18  1  0
  1 33  1  0
  1 34  1  0
  1 35  1  0
  2 36  1  1
  3 37  1  0
  3 38  1  0
  4 39  1  0
  4 40  1  0
  5 41  1  1
  8 42  1  0
  8 43  1  0
  8 44  1  0
  9 45  1  0
  9 46  1  0
  9 47  1  0
 10 48  1  6
 11 49  1  0
 11 50  1  0
 12 51  1  0
 12 52  1  0
 14 53  1  0
 14 54  1  0
 14 55  1  0
 15 56  1  1
 16 57  1  0
 16 58  1  0
 17 59  1  0
 19 60  1  6
 20 61  1  0
 20 62  1  0
 21 63  1  0
 21 64  1  0
 22 65  1  6
 23 66  1  0
 25 67  1  0
 25 68  1  0
 25 69  1  0
 26 70  1  0
 26 71  1  0
 26 72  1  0
 28 73  1  0
 28 74  1  0
 28 75  1  0
 29 76  1  0
 29 77  1  0
 30 78  1  0
 30 79  1  0
 32 80  1  0
 32 81  1  0
 32 82  1  0
M  END
>  <meeko>  (12) 
{"is_sidechain": [false], "intermolecular_energy": 2.731, "internal_energy": -0.839}

$$$$
EPH_relaxed_0001_pdb2pqr_Repair_114_r2_0001_out
     RDKit          3D

 82 86  0  0  0  0  0  0  0  0999 V2000
   -0.2920    8.7160    0.2650 C   0  0  0  0  0  0  0  0  0  0  0  0
   -1.1850    9.7430    0.9680 C   0  0  2  0  0  0  0  0  0  0  0  0
   -2.5460    9.9080    0.2630 C   0  0  0  0  0  0  0  0  0  0  0  0
   -2.8660    8.7850   -0.7290 C   0  0  0  0  0  0  0  0  0  0  0  0
   -2.4280    9.1330   -2.1190 C   0  0  2  0  0  0  0  0  0  0  0  0
   -2.4860    8.0480   -3.0540 O   0  0  0  0  0  0  0  0  0  0  0  0
   -1.1780    8.5690   -2.7690 C   0  0  0  0  0  0  0  0  0  0  0  0
   -0.2860    7.6110   -2.0430 C   0  0  0  0  0  0  0  0  0  0  0  0
   -0.5650    9.3180   -3.9110 C   0  0  0  0  0  0  0  0  0  0  0  0
   -0.4710   11.0880    1.0430 C   0  0  1  0  0  0  0  0  0  0  0  0
    0.6220   11.1230    2.1440 C   0  0  0  0  0  0  0  0  0  0  0  0
    1.7710   12.0140    1.6050 C   0  0  0  0  0  0  0  0  0  0  0  0
    1.1660   12.7250    0.3720 C   0  0  1  0  0  0  0  0  0  0  0  0
    0.3460   13.9170    0.9570 C   0  0  0  0  0  0  0  0  0  0  0  0
    2.1820   13.2030   -0.7170 C   0  0  2  0  0  0  0  0  0  0  0  0
    3.1960   14.2590   -0.2440 C   0  0  0  0  0  0  0  0  0  0  0  0
    2.7690   15.6780   -0.4210 C   0  0  0  0  0  0  0  0  0  0  0  0
    1.7490   16.0970   -1.1930 C   0  0  0  0  0  0  0  0  0  0  0  0
    0.9660   15.1100   -2.0680 C   0  0  1  0  0  0  0  0  0  0  0  0
    0.7950   15.7020   -3.4920 C   0  0  0  0  0  0  0  0  0  0  0  0
    0.1660   17.0920   -3.4750 C   0  0  0  0  0  0  0  0  0  0  0  0
    1.0040   18.0600   -2.6430 C   0  0  2  0  0  0  0  0  0  0  0  0
    2.2580   18.2670   -3.3020 O   0  0  0  0  0  0  0  0  0  0  0  0
    1.2520   17.5640   -1.1910 C   0  0  0  0  0  0  0  0  0  0  0  0
   -0.0700   17.6280   -0.3870 C   0  0  0  0  0  0  0  0  0  0  0  0
    2.2250   18.5610   -0.5060 C   0  0  0  0  0  0  0  0  0  0  0  0
    1.5130   13.6180   -2.0900 C   0  0  1  0  0  0  0  0  0  0  0  0
    2.6150   13.4710   -3.1840 C   0  0  0  0  0  0  0  0  0  0  0  0
    0.3450   12.6470   -2.5030 C   0  0  0  0  0  0  0  0  0  0  0  0
   -0.5510   12.1150   -1.3680 C   0  0  0  0  0  0  0  0  0  0  0  0
    0.2950   11.5580   -0.2190 C   0  0  2  0  0  0  0  0  0  0  0  0
    1.1140   10.3430   -0.7730 C   0  0  0  0  0  0  0  0  0  0  0  0
    0.2341    8.1110    1.0181 H   0  0  0  0  0  0  0  0  0  0  0  0
   -0.9122    8.0604   -0.3640 H   0  0  0  0  0  0  0  0  0  0  0  0
    0.4434    9.2391   -0.3640 H   0  0  0  0  0  0  0  0  0  0  0  0
   -1.3823    9.3696    1.9837 H   0  0  0  0  0  0  0  0  0  0  0  0
   -3.3342    9.9288    1.0301 H   0  0  0  0  0  0  0  0  0  0  0  0
   -2.4976   10.8429   -0.3145 H   0  0  0  0  0  0  0  0  0  0  0  0
   -2.3469    7.8690   -0.4103 H   0  0  0  0  0  0  0  0  0  0  0  0
   -3.9559    8.6366   -0.7396 H   0  0  0  0  0  0  0  0  0  0  0  0
   -2.7992   10.1620   -2.0034 H   0  0  0  0  0  0  0  0  0  0  0  0
   -0.4103    7.7445   -0.9582 H   0  0  0  0  0  0  0  0  0  0  0  0
   -0.5534    6.5802   -2.3186 H   0  0  0  0  0  0  0  0  0  0  0  0
    0.7612    7.8043   -2.3186 H   0  0  0  0  0  0  0  0  0  0  0  0
    0.0862   10.1137   -3.5202 H   0  0  0  0  0  0  0  0  0  0  0  0
    0.0296    8.6265   -4.5260 H   0  0  0  0  0  0  0  0  0  0  0  0
   -1.3604    9.7642   -4.5260 H   0  0  0  0  0  0  0  0  0  0  0  0
   -1.3340   11.7452    1.2253 H   0  0  0  0  0  0  0  0  0  0  0  0
    0.2128   11.5519    3.0706 H   0  0  0  0  0  0  0  0  0  0  0  0
    0.9828   10.1098    2.3750 H   0  0  0  0  0  0  0  0  0  0  0  0
    2.0818   12.7480    2.3631 H   0  0  0  0  0  0  0  0  0  0  0  0
    2.6685   11.4305    1.3520 H   0  0  0  0  0  0  0  0  0  0  0  0
    0.3737   13.8768    2.0559 H   0  0  0  0  0  0  0  0  0  0  0  0
    0.7831   14.8662    0.6137 H   0  0  0  0  0  0  0  0  0  0  0  0
   -0.6968   13.8482    0.6137 H   0  0  0  0  0  0  0  0  0  0  0  0
    2.7674   12.2919   -0.9099 H   0  0  0  0  0  0  0  0  0  0  0  0
    3.3857   14.0923    0.8266 H   0  0  0  0  0  0  0  0  0  0  0  0
    4.0874   14.1288   -0.8753 H   0  0  0  0  0  0  0  0  0  0  0  0
    3.3356   16.4463    0.1255 H   0  0  0  0  0  0  0  0  0  0  0  0
   -0.0184   14.9960   -1.5904 H   0  0  0  0  0  0  0  0  0  0  0  0
    1.7846   15.7684   -3.9677 H   0  0  0  0  0  0  0  0  0  0  0  0
    0.1211   15.0369   -4.0519 H   0  0  0  0  0  0  0  0  0  0  0  0
    0.0982   17.4691   -4.5061 H   0  0  0  0  0  0  0  0  0  0  0  0
   -0.8353   17.0188   -3.0256 H   0  0  0  0  0  0  0  0  0  0  0  0
    0.4383   18.9998   -2.5605 H   0  0  0  0  0  0  0  0  0  0  0  0
    2.6090   17.3940   -3.5470 H   0  0  0  0  0  0  0  0  0  0  0  0
    0.1548   17.6171    0.6897 H   0  0  0  0  0  0  0  0  0  0  0  0
   -0.6085   18.5533   -0.6398 H   0  0  0  0  0  0  0  0  0  0  0  0
   -0.6953   16.7591   -0.6398 H   0  0  0  0  0  0  0  0  0  0  0  0
    2.1352   18.4690    0.5865 H   0  0  0  0  0  0  0  0  0  0  0  0
    3.2574   18.3329   -0.8095 H   0  0  0  0  0  0  0  0  0  0  0  0
    1.9719   19.5875   -0.8095 H   0  0  0  0  0  0  0  0  0  0  0  0
    3.5951   13.3403   -2.7020 H   0  0  0  0  0  0  0  0  0  0  0  0
    2.3948   12.5943   -3.8108 H   0  0  0  0  0  0  0  0  0  0  0  0
    2.6323   14.3748   -3.8108 H   0  0  0  0  0  0  0  0  0  0  0  0
   -0.3008   13.1860   -3.2118 H   0  0  0  0  0  0  0  0  0  0  0  0
    0.8430   11.7579   -2.9170 H   0  0  0  0  0  0  0  0  0  0  0  0
   -1.1774   12.9359   -0.9889 H   0  0  0  0  0  0  0  0  0  0  0  0
   -1.1792   11.3048   -1.7667 H   0  0  0  0  0  0  0  0  0  0  0  0
    1.5107    9.7545    0.0674 H   0  0  0  0  0  0  0  0  0  0  0  0
    0.4585    9.7087   -1.3877 H   0  0  0  0  0  0  0  0  0  0  0  0
    1.9479   10.7127   -1.3877 H   0  0  0  0  0  0  0  0  0  0  0  0
  1  2  1  0
  2  3  1  0
  3  4  1  0
  4  5  1  0
  5  6  1  0
  6  7  1  0
  7  8  1  0
  7  9  1  0
  2 10  1  0
 10 11  1  0
 11 12  1  0
 12 13  1  0
 13 14  1  1
 13 15  1  0
 15 16  1  0
 16 17  1  0
 17 18  2  0
 18 19  1  0
 19 20  1  0
 20 21  1  0
 21 22  1  0
 22 23  1  0
 22 24  1  0
 24 25  1  0
 24 26  1  0
 19 27  1  0
 27 28  1  6
 27 29  1  0
 29 30  1  0
 30 31  1  0
 31 32  1  6
  7  5  1  0
 31 10  1  0
 31 13  1  0
 27 15  1  0
 24 18  1  0
  1 33  1  0
  1 34  1  0
  1 35  1  0
  2 36  1  1
  3 37  1  0
  3 38  1  0
  4 39  1  0
  4 40  1  0
  5 41  1  6
  8 42  1  0
  8 43  1  0
  8 44  1  0
  9 45  1  0
  9 46  1  0
  9 47  1  0
 10 48  1  1
 11 49  1  0
 11 50  1  0
 12 51  1  0
 12 52  1  0
 14 53  1  0
 14 54  1  0
 14 55  1  0
 15 56  1  6
 16 57  1  0
 16 58  1  0
 17 59  1  0
 19 60  1  1
 20 61  1  0
 20 62  1  0
 21 63  1  0
 21 64  1  0
 22 65  1  1
 23 66  1  0
 25 67  1  0
 25 68  1  0
 25 69  1  0
 26 70  1  0
 26 71  1  0
 26 72  1  0
 28 73  1  0
 28 74  1  0
 28 75  1  0
 29 76  1  0
 29 77  1  0
 30 78  1  0
 30 79  1  0
 32 80  1  0
 32 81  1  0
 32 82  1  0
M  END
>  <meeko>  (13) 
{"is_sidechain": [false], "intermolecular_energy": 2.731, "internal_energy": -0.839}

$$$$
EPH_relaxed_0001_pdb2pqr_Repair_114_r2_0001_out
     RDKit          3D

 82 86  0  0  0  0  0  0  0  0999 V2000
   -1.2990    9.3180   -0.4830 C   0  0  0  0  0  0  0  0  0  0  0  0
   -0.5090   10.1620   -1.4880 C   0  0  2  0  0  0  0  0  0  0  0  0
    0.6940    9.3940   -2.0710 C   0  0  0  0  0  0  0  0  0  0  0  0
    1.4450   10.1640   -3.1610 C   0  0  0  0  0  0  0  0  0  0  0  0
    2.9230    9.9190   -3.0950 C   0  0  2  0  0  0  0  0  0  0  0  0
    3.6940   11.0360   -2.6330 O   0  0  0  0  0  0  0  0  0  0  0  0
    3.9280   10.6200   -3.9890 C   0  0  0  0  0  0  0  0  0  0  0  0
    3.4950   11.6200   -5.0150 C   0  0  0  0  0  0  0  0  0  0  0  0
    5.2650    9.9810   -4.2020 C   0  0  0  0  0  0  0  0  0  0  0  0
   -0.0340   11.4500   -0.8260 C   0  0  1  0  0  0  0  0  0  0  0  0
    1.1480   11.2170    0.1530 C   0  0  0  0  0  0  0  0  0  0  0  0
    2.0610   12.4670    0.0560 C   0  0  0  0  0  0  0  0  0  0  0  0
    1.2150   13.5090   -0.7130 C   0  0  1  0  0  0  0  0  0  0  0  0
    0.2690   14.1290    0.3630 C   0  0  0  0  0  0  0  0  0  0  0  0
    2.0110   14.6110   -1.4850 C   0  0  2  0  0  0  0  0  0  0  0  0
    2.8730   15.5320   -0.6040 C   0  0  0  0  0  0  0  0  0  0  0  0
    2.1900   16.7660   -0.1130 C   0  0  0  0  0  0  0  0  0  0  0  0
    1.0370   17.2660   -0.5950 C   0  0  0  0  0  0  0  0  0  0  0  0
    0.3470   16.6280   -1.8070 C   0  0  1  0  0  0  0  0  0  0  0  0
   -0.0740   17.7380   -2.8060 C   0  0  0  0  0  0  0  0  0  0  0  0
   -0.9280   18.8200   -2.1520 C   0  0  0  0  0  0  0  0  0  0  0  0
   -0.1850   19.4700   -0.9880 C   0  0  2  0  0  0  0  0  0  0  0  0
    0.9360   20.1940   -1.5030 O   0  0  0  0  0  0  0  0  0  0  0  0
    0.2970   18.4480    0.0790 C   0  0  0  0  0  0  0  0  0  0  0  0
   -0.9230   17.8830    0.8480 C   0  0  0  0  0  0  0  0  0  0  0  0
    1.1510   19.2160    1.1240 C   0  0  0  0  0  0  0  0  0  0  0  0
    1.1390   15.4420   -2.5100 C   0  0  1  0  0  0  0  0  0  0  0  0
    2.1260   16.0170   -3.5720 C   0  0  0  0  0  0  0  0  0  0  0  0
    0.1180   14.5390   -3.2980 C   0  0  0  0  0  0  0  0  0  0  0  0
   -0.5460   13.3930   -2.5110 C   0  0  0  0  0  0  0  0  0  0  0  0
    0.5000   12.5710   -1.7520 C   0  0  2  0  0  0  0  0  0  0  0  0
    1.4530   11.9170   -2.8090 C   0  0  0  0  0  0  0  0  0  0  0  0
   -1.0231    9.6127    0.5402 H   0  0  0  0  0  0  0  0  0  0  0  0
   -2.3763    9.4814   -0.6338 H   0  0  0  0  0  0  0  0  0  0  0  0
   -1.0649    8.2538   -0.6338 H   0  0  0  0  0  0  0  0  0  0  0  0
   -1.1843   10.4011   -2.3228 H   0  0  0  0  0  0  0  0  0  0  0  0
    1.3964    9.1758   -1.2531 H   0  0  0  0  0  0  0  0  0  0  0  0
    0.2971    8.4804   -2.5376 H   0  0  0  0  0  0  0  0  0  0  0  0
    1.0739    9.8418   -4.1451 H   0  0  0  0  0  0  0  0  0  0  0  0
    1.2683   11.2385   -3.0055 H   0  0  0  0  0  0  0  0  0  0  0  0
    2.7606    8.8568   -2.8597 H   0  0  0  0  0  0  0  0  0  0  0  0
    3.1064   12.5174   -4.5113 H   0  0  0  0  0  0  0  0  0  0  0  0
    4.3544   11.8957   -5.6439 H   0  0  0  0  0  0  0  0  0  0  0  0
    2.7060   11.1819   -5.6439 H   0  0  0  0  0  0  0  0  0  0  0  0
    5.7256    9.7609   -3.2276 H   0  0  0  0  0  0  0  0  0  0  0  0
    5.1386    9.0460   -4.7674 H   0  0  0  0  0  0  0  0  0  0  0  0
    5.9132   10.6667   -4.7674 H   0  0  0  0  0  0  0  0  0  0  0  0
   -0.9730   11.7709   -0.3514 H   0  0  0  0  0  0  0  0  0  0  0  0
    0.7721   11.1011    1.1802 H   0  0  0  0  0  0  0  0  0  0  0  0
    1.7013   10.3022   -0.1058 H   0  0  0  0  0  0  0  0  0  0  0  0
    2.3179   12.8391    1.0588 H   0  0  0  0  0  0  0  0  0  0  0  0
    3.0142   12.2494   -0.4481 H   0  0  0  0  0  0  0  0  0  0  0  0
    0.6447   13.8828    1.3671 H   0  0  0  0  0  0  0  0  0  0  0  0
    0.2402   15.2217    0.2400 H   0  0  0  0  0  0  0  0  0  0  0  0
   -0.7444   13.7193    0.2400 H   0  0  0  0  0  0  0  0  0  0  0  0
    2.7209   14.0163   -2.0786 H   0  0  0  0  0  0  0  0  0  0  0  0
    3.2021   14.9540    0.2721 H   0  0  0  0  0  0  0  0  0  0  0  0
    3.7013   15.8753   -1.2412 H   0  0  0  0  0  0  0  0  0  0  0  0
    2.6698   17.3125    0.7123 H   0  0  0  0  0  0  0  0  0  0  0  0
   -0.5465   16.1190   -1.4165 H   0  0  0  0  0  0  0  0  0  0  0  0
    0.8331   18.2051   -3.2170 H   0  0  0  0  0  0  0  0  0  0  0  0
   -0.6789   17.2660   -3.5943 H   0  0  0  0  0  0  0  0  0  0  0  0
   -1.1694   19.5896   -2.9000 H   0  0  0  0  0  0  0  0  0  0  0  0
   -1.8484   18.3567   -1.7670 H   0  0  0  0  0  0  0  0  0  0  0  0
   -0.8920   20.1424   -0.4800 H   0  0  0  0  0  0  0  0  0  0  0  0
    1.5530   19.5470   -1.8870 H   0  0  0  0  0  0  0  0  0  0  0  0
   -0.7446   17.9656    1.9303 H   0  0  0  0  0  0  0  0  0  0  0  0
   -1.8229   18.4560    0.5799 H   0  0  0  0  0  0  0  0  0  0  0  0
   -1.0680   16.8261    0.5799 H   0  0  0  0  0  0  0  0  0  0  0  0
    0.8337   18.9307    2.1379 H   0  0  0  0  0  0  0  0  0  0  0  0
    2.2127   18.9629    0.9872 H   0  0  0  0  0  0  0  0  0  0  0  0
    1.0116   20.2985    0.9872 H   0  0  0  0  0  0  0  0  0  0  0  0
    2.9682   16.5076   -3.0621 H   0  0  0  0  0  0  0  0  0  0  0  0
    2.5051   15.1984   -4.2014 H   0  0  0  0  0  0  0  0  0  0  0  0
    1.6008   16.7505   -4.2014 H   0  0  0  0  0  0  0  0  0  0  0  0
   -0.6830   15.1924   -3.6740 H   0  0  0  0  0  0  0  0  0  0  0  0
    0.7140   14.0445   -4.0792 H   0  0  0  0  0  0  0  0  0  0  0  0
   -1.2612   13.8179   -1.7913 H   0  0  0  0  0  0  0  0  0  0  0  0
   -1.0625   12.7321   -3.2227 H   0  0  0  0  0  0  0  0  0  0  0  0
    2.2532   11.3679   -2.2911 H   0  0  0  0  0  0  0  0  0  0  0  0
    0.8794   11.2214   -3.4391 H   0  0  0  0  0  0  0  0  0  0  0  0
    1.8958   12.7024   -3.4391 H   0  0  0  0  0  0  0  0  0  0  0  0
  1  2  1  0
  2  3  1  0
  3  4  1  0
  4  5  1  0
  5  6  1  0
  6  7  1  0
  7  8  1  0
  7  9  1  0
  2 10  1  0
 10 11  1  0
 11 12  1  0
 12 13  1  0
 13 14  1  1
 13 15  1  0
 15 16  1  0
 16 17  1  0
 17 18  2  0
 18 19  1  0
 19 20  1  0
 20 21  1  0
 21 22  1  0
 22 23  1  0
 22 24  1  0
 24 25  1  0
 24 26  1  0
 19 27  1  0
 27 28  1  6
 27 29  1  0
 29 30  1  0
 30 31  1  0
 31 32  1  6
  7  5  1  0
 31 10  1  0
 31 13  1  0
 27 15  1  0
 24 18  1  0
  1 33  1  0
  1 34  1  0
  1 35  1  0
  2 36  1  6
  3 37  1  0
  3 38  1  0
  4 39  1  0
  4 40  1  0
  5 41  1  1
  8 42  1  0
  8 43  1  0
  8 44  1  0
  9 45  1  0
  9 46  1  0
  9 47  1  0
 10 48  1  1
 11 49  1  0
 11 50  1  0
 12 51  1  0
 12 52  1  0
 14 53  1  0
 14 54  1  0
 14 55  1  0
 15 56  1  6
 16 57  1  0
 16 58  1  0
 17 59  1  0
 19 60  1  1
 20 61  1  0
 20 62  1  0
 21 63  1  0
 21 64  1  0
 22 65  1  1
 23 66  1  0
 25 67  1  0
 25 68  1  0
 25 69  1  0
 26 70  1  0
 26 71  1  0
 26 72  1  0
 28 73  1  0
 28 74  1  0
 28 75  1  0
 29 76  1  0
 29 77  1  0
 30 78  1  0
 30 79  1  0
 32 80  1  0
 32 81  1  0
 32 82  1  0
M  END
>  <meeko>  (14) 
{"is_sidechain": [false], "intermolecular_energy": 2.731, "internal_energy": -0.839}

$$$$
EPH_relaxed_0001_pdb2pqr_Repair_114_r2_0001_out
     RDKit          3D

 82 86  0  0  0  0  0  0  0  0999 V2000
    0.4970   18.4090   -2.2720 C   0  0  0  0  0  0  0  0  0  0  0  0
    1.3290   17.7690   -1.1580 C   0  0  2  0  0  0  0  0  0  0  0  0
    2.6500   18.5250   -0.9120 C   0  0  0  0  0  0  0  0  0  0  0  0
    2.5360   19.6400    0.1310 C   0  0  0  0  0  0  0  0  0  0  0  0
    2.8900   19.1540    1.5040 C   0  0  2  0  0  0  0  0  0  0  0  0
    3.1290   20.1920    2.4630 O   0  0  0  0  0  0  0  0  0  0  0  0
    4.2530   19.3580    2.1380 C   0  0  0  0  0  0  0  0  0  0  0  0
    5.3510   20.0720    1.4140 C   0  0  0  0  0  0  0  0  0  0  0  0
    4.6680   18.4460    3.2500 C   0  0  0  0  0  0  0  0  0  0  0  0
    1.6180   16.3110   -1.4980 C   0  0  1  0  0  0  0  0  0  0  0  0
    3.1180   16.0560   -1.8040 C   0  0  0  0  0  0  0  0  0  0  0  0
    3.4490   14.6390   -1.2680 C   0  0  0  0  0  0  0  0  0  0  0  0
    2.0710   14.0010   -0.9750 C   0  0  1  0  0  0  0  0  0  0  0  0
    1.5610   13.4950   -2.3610 C   0  0  0  0  0  0  0  0  0  0  0  0
    2.0500   12.8640    0.0980 C   0  0  2  0  0  0  0  0  0  0  0  0
    2.8760   11.6160   -0.2570 C   0  0  0  0  0  0  0  0  0  0  0  0
    2.1350   10.5490   -0.9940 C   0  0  0  0  0  0  0  0  0  0  0  0
    0.7960   10.4630   -1.1070 C   0  0  0  0  0  0  0  0  0  0  0  0
   -0.1220   11.4500   -0.3740 C   0  0  1  0  0  0  0  0  0  0  0  0
   -1.2680   10.6710    0.3230 C   0  0  0  0  0  0  0  0  0  0  0  0
   -2.0320    9.7680   -0.6400 C   0  0  0  0  0  0  0  0  0  0  0  0
   -1.0960    8.7630   -1.3050 C   0  0  2  0  0  0  0  0  0  0  0  0
   -0.6100    7.8560   -0.3100 O   0  0  0  0  0  0  0  0  0  0  0  0
    0.1040    9.4320   -2.0320 C   0  0  0  0  0  0  0  0  0  0  0  0
   -0.4000   10.1730   -3.2950 C   0  0  0  0  0  0  0  0  0  0  0  0
    1.0450    8.3050   -2.5370 C   0  0  0  0  0  0  0  0  0  0  0  0
    0.6010   12.4750    0.6020 C   0  0  1  0  0  0  0  0  0  0  0  0
    0.7770   11.8340    2.0120 C   0  0  0  0  0  0  0  0  0  0  0  0
   -0.3220   13.7350    0.7990 C   0  0  0  0  0  0  0  0  0  0  0  0
   -0.1700   14.8760   -0.2260 C   0  0  0  0  0  0  0  0  0  0  0  0
    1.3030   15.2520   -0.4120 C   0  0  2  0  0  0  0  0  0  0  0  0
    1.8380   15.7860    0.9600 C   0  0  0  0  0  0  0  0  0  0  0  0
   -0.3006   19.0225   -1.8276 H   0  0  0  0  0  0  0  0  0  0  0  0
    1.1444   19.0441   -2.8945 H   0  0  0  0  0  0  0  0  0  0  0  0
    0.0492   17.6203   -2.8945 H   0  0  0  0  0  0  0  0  0  0  0  0
    0.7398   17.8250   -0.2308 H   0  0  0  0  0  0  0  0  0  0  0  0
    3.4045   17.8026   -0.5671 H   0  0  0  0  0  0  0  0  0  0  0  0
    2.9294   19.0018   -1.8631 H   0  0  0  0  0  0  0  0  0  0  0  0
    3.2188   20.4571   -0.1448 H   0  0  0  0  0  0  0  0  0  0  0  0
    1.4923   19.9870    0.1489 H   0  0  0  0  0  0  0  0  0  0  0  0
    2.2631   18.2594    1.3747 H   0  0  0  0  0  0  0  0  0  0  0  0
    6.0406   20.5205    2.1443 H   0  0  0  0  0  0  0  0  0  0  0  0
    5.8993   19.3572    0.7828 H   0  0  0  0  0  0  0  0  0  0  0  0
    4.9201   20.8631    0.7828 H   0  0  0  0  0  0  0  0  0  0  0  0
    4.4506   18.9239    4.2166 H   0  0  0  0  0  0  0  0  0  0  0  0
    4.1117   17.5000    3.1753 H   0  0  0  0  0  0  0  0  0  0  0  0
    5.7467   18.2440    3.1753 H   0  0  0  0  0  0  0  0  0  0  0  0
    0.9411   16.1832   -2.3556 H   0  0  0  0  0  0  0  0  0  0  0  0
    3.2966   16.1021   -2.8884 H   0  0  0  0  0  0  0  0  0  0  0  0
    3.7534   16.8171   -1.3275 H   0  0  0  0  0  0  0  0  0  0  0  0
    3.9942   14.0553   -2.0243 H   0  0  0  0  0  0  0  0  0  0  0  0
    4.0924   14.6701   -0.3763 H   0  0  0  0  0  0  0  0  0  0  0  0
    0.7876   12.7277   -2.2093 H   0  0  0  0  0  0  0  0  0  0  0  0
    1.1354   14.3380   -2.9252 H   0  0  0  0  0  0  0  0  0  0  0  0
    2.4006   13.0628   -2.9252 H   0  0  0  0  0  0  0  0  0  0  0  0
    2.5682   13.3324    0.9478 H   0  0  0  0  0  0  0  0  0  0  0  0
    3.7229   11.9354   -0.8821 H   0  0  0  0  0  0  0  0  0  0  0  0
    3.1796   11.1693    0.7013 H   0  0  0  0  0  0  0  0  0  0  0  0
    2.7333    9.7679   -1.4858 H   0  0  0  0  0  0  0  0  0  0  0  0
   -0.5376   12.1117   -1.1482 H   0  0  0  0  0  0  0  0  0  0  0  0
   -0.8370   10.0498    1.1219 H   0  0  0  0  0  0  0  0  0  0  0  0
   -1.9785   11.4095    0.7228 H   0  0  0  0  0  0  0  0  0  0  0  0
   -2.8082    9.2229   -0.0830 H   0  0  0  0  0  0  0  0  0  0  0  0
   -2.4870   10.3940   -1.4217 H   0  0  0  0  0  0  0  0  0  0  0  0
   -1.6751    8.2336   -2.0760 H   0  0  0  0  0  0  0  0  0  0  0  0
    0.1950    8.2430    0.0720 H   0  0  0  0  0  0  0  0  0  0  0  0
   -0.9950   11.0478   -2.9939 H   0  0  0  0  0  0  0  0  0  0  0  0
    0.4612   10.5039   -3.8941 H   0  0  0  0  0  0  0  0  0  0  0  0
   -1.0241    9.4936   -3.8941 H   0  0  0  0  0  0  0  0  0  0  0  0
    1.4834    7.7799   -1.6756 H   0  0  0  0  0  0  0  0  0  0  0  0
    0.4697    7.5927   -3.1466 H   0  0  0  0  0  0  0  0  0  0  0  0
    1.8486    8.7440   -3.1466 H   0  0  0  0  0  0  0  0  0  0  0  0
    0.5700   12.5878    2.7859 H   0  0  0  0  0  0  0  0  0  0  0  0
    0.0765   10.9931    2.1225 H   0  0  0  0  0  0  0  0  0  0  0  0
    1.8087   11.4687    2.1225 H   0  0  0  0  0  0  0  0  0  0  0  0
   -1.3663   13.3914    0.7618 H   0  0  0  0  0  0  0  0  0  0  0  0
   -0.0133   14.1699    1.7611 H   0  0  0  0  0  0  0  0  0  0  0  0
   -0.5830   14.5496   -1.1919 H   0  0  0  0  0  0  0  0  0  0  0  0
   -0.7130   15.7572    0.1464 H   0  0  0  0  0  0  0  0  0  0  0  0
    1.3203   15.2693    1.7816 H   0  0  0  0  0  0  0  0  0  0  0  0
    2.9192   15.5962    1.0309 H   0  0  0  0  0  0  0  0  0  0  0  0
    1.6502   16.8675    1.0309 H   0  0  0  0  0  0  0  0  0  0  0  0
  1  2  1  0
  2  3  1  0
  3  4  1  0
  4  5  1  0
  5  6  1  0
  6  7  1  0
  7  8  1  0
  7  9  1  0
  2 10  1  0
 10 11  1  0
 11 12  1  0
 12 13  1  0
 13 14  1  6
 13 15  1  0
 15 16  1  0
 16 17  1  0
 17 18  2  0
 18 19  1  0
 19 20  1  0
 20 21  1  0
 21 22  1  0
 22 23  1  0
 22 24  1  0
 24 25  1  0
 24 26  1  0
 19 27  1  0
 27 28  1  1
 27 29  1  0
 29 30  1  0
 30 31  1  0
 31 32  1  1
  7  5  1  0
 31 10  1  0
 31 13  1  0
 27 15  1  0
 24 18  1  0
  1 33  1  0
  1 34  1  0
  1 35  1  0
  2 36  1  1
  3 37  1  0
  3 38  1  0
  4 39  1  0
  4 40  1  0
  5 41  1  1
  8 42  1  0
  8 43  1  0
  8 44  1  0
  9 45  1  0
  9 46  1  0
  9 47  1  0
 10 48  1  6
 11 49  1  0
 11 50  1  0
 12 51  1  0
 12 52  1  0
 14 53  1  0
 14 54  1  0
 14 55  1  0
 15 56  1  1
 16 57  1  0
 16 58  1  0
 17 59  1  0
 19 60  1  6
 20 61  1  0
 20 62  1  0
 21 63  1  0
 21 64  1  0
 22 65  1  6
 23 66  1  0
 25 67  1  0
 25 68  1  0
 25 69  1  0
 26 70  1  0
 26 71  1  0
 26 72  1  0
 28 73  1  0
 28 74  1  0
 28 75  1  0
 29 76  1  0
 29 77  1  0
 30 78  1  0
 30 79  1  0
 32 80  1  0
 32 81  1  0
 32 82  1  0
M  END
>  <meeko>  (15) 
{"is_sidechain": [false], "intermolecular_energy": 2.731, "internal_energy": -0.839}

$$$$
EPH_relaxed_0001_pdb2pqr_Repair_114_r2_0001_out
     RDKit          3D

 82 86  0  0  0  0  0  0  0  0999 V2000
   -3.1040    7.3180   -2.9580 C   0  0  0  0  0  0  0  0  0  0  0  0
   -3.6350    7.6830   -1.5690 C   0  0  2  0  0  0  0  0  0  0  0  0
   -5.1710    7.8220   -1.5530 C   0  0  0  0  0  0  0  0  0  0  0  0
   -5.9010    6.5320   -1.1690 C   0  0  0  0  0  0  0  0  0  0  0  0
   -7.3330    6.7920   -0.8080 C   0  0  2  0  0  0  0  0  0  0  0  0
   -8.1840    5.6400   -0.8660 O   0  0  0  0  0  0  0  0  0  0  0  0
   -8.4770    6.6920   -1.8000 C   0  0  0  0  0  0  0  0  0  0  0  0
   -8.2400    6.3210   -3.2300 C   0  0  0  0  0  0  0  0  0  0  0  0
   -9.7480    7.4250   -1.5020 C   0  0  0  0  0  0  0  0  0  0  0  0
   -2.9900    8.9780   -1.0900 C   0  0  1  0  0  0  0  0  0  0  0  0
   -3.4880    9.4080    0.3160 C   0  0  0  0  0  0  0  0  0  0  0  0
   -2.2830   10.0700    1.0330 C   0  0  0  0  0  0  0  0  0  0  0  0
   -1.2400   10.2980   -0.0860 C   0  0  1  0  0  0  0  0  0  0  0  0
   -1.6970   11.6100   -0.7990 C   0  0  0  0  0  0  0  0  0  0  0  0
    0.2540   10.3790    0.3680 C   0  0  2  0  0  0  0  0  0  0  0  0
    0.5870   11.5460    1.3140 C   0  0  0  0  0  0  0  0  0  0  0  0
    1.0150   12.8080    0.6430 C   0  0  0  0  0  0  0  0  0  0  0  0
    1.4030   12.9190   -0.6410 C   0  0  0  0  0  0  0  0  0  0  0  0
    1.5300   11.6790   -1.5350 C   0  0  1  0  0  0  0  0  0  0  0  0
    2.8730   11.7350   -2.3100 C   0  0  0  0  0  0  0  0  0  0  0  0
    3.0450   13.0350   -3.0890 C   0  0  0  0  0  0  0  0  0  0  0  0
    2.9700   14.2430   -2.1580 C   0  0  2  0  0  0  0  0  0  0  0  0
    4.1040   14.2220   -1.2850 O   0  0  0  0  0  0  0  0  0  0  0  0
    1.6640   14.2880   -1.3170 C   0  0  0  0  0  0  0  0  0  0  0  0
    0.4620   14.6120   -2.2380 C   0  0  0  0  0  0  0  0  0  0  0  0
    1.7790   15.4730   -0.3200 C   0  0  0  0  0  0  0  0  0  0  0  0
    1.2980   10.2800   -0.8170 C   0  0  1  0  0  0  0  0  0  0  0  0
    2.6340    9.7740   -0.1930 C   0  0  0  0  0  0  0  0  0  0  0  0
    0.8790    9.2120   -1.8950 C   0  0  0  0  0  0  0  0  0  0  0  0
   -0.6240    9.0980   -2.2130 C   0  0  0  0  0  0  0  0  0  0  0  0
   -1.4490    8.9880   -0.9280 C   0  0  2  0  0  0  0  0  0  0  0  0
   -1.0270    7.6660   -0.2000 C   0  0  0  0  0  0  0  0  0  0  0  0
   -2.2016    6.6977   -2.8542 H   0  0  0  0  0  0  0  0  0  0  0  0
   -3.8733    6.7569   -3.5088 H   0  0  0  0  0  0  0  0  0  0  0  0
   -2.8557    8.2372   -3.5088 H   0  0  0  0  0  0  0  0  0  0  0  0
   -3.3705    6.8615   -0.8869 H   0  0  0  0  0  0  0  0  0  0  0  0
   -5.4416    8.6034   -0.8276 H   0  0  0  0  0  0  0  0  0  0  0  0
   -5.4819    8.0750   -2.5774 H   0  0  0  0  0  0  0  0  0  0  0  0
   -5.8686    5.8369   -2.0209 H   0  0  0  0  0  0  0  0  0  0  0  0
   -5.3983    6.1019   -0.2902 H   0  0  0  0  0  0  0  0  0  0  0  0
   -7.0361    7.5807   -0.1010 H   0  0  0  0  0  0  0  0  0  0  0  0
   -7.6483    5.3948   -3.2753 H   0  0  0  0  0  0  0  0  0  0  0  0
   -9.2056    6.1642   -3.7330 H   0  0  0  0  0  0  0  0  0  0  0  0
   -7.6918    7.1312   -3.7330 H   0  0  0  0  0  0  0  0  0  0  0  0
   -9.8805    7.5014   -0.4127 H   0  0  0  0  0  0  0  0  0  0  0  0
   -9.7000    8.4341   -1.9372 H   0  0  0  0  0  0  0  0  0  0  0  0
  -10.5974    6.8780   -1.9372 H   0  0  0  0  0  0  0  0  0  0  0  0
   -3.2857    9.6467   -1.9118 H   0  0  0  0  0  0  0  0  0  0  0  0
   -4.3147   10.1274    0.2216 H   0  0  0  0  0  0  0  0  0  0  0  0
   -3.8604    8.5434    0.8851 H   0  0  0  0  0  0  0  0  0  0  0  0
   -2.5796   11.0265    1.4881 H   0  0  0  0  0  0  0  0  0  0  0  0
   -1.8894    9.4464    1.8492 H   0  0  0  0  0  0  0  0  0  0  0  0
   -1.9601   12.3652   -0.0437 H   0  0  0  0  0  0  0  0  0  0  0  0
   -0.8783   11.9899   -1.4278 H   0  0  0  0  0  0  0  0  0  0  0  0
   -2.5746   11.3990   -1.4278 H   0  0  0  0  0  0  0  0  0  0  0  0
    0.3666    9.4653    0.9701 H   0  0  0  0  0  0  0  0  0  0  0  0
   -0.3101   11.7660    1.9113 H   0  0  0  0  0  0  0  0  0  0  0  0
    1.4463   11.2145    1.9154 H   0  0  0  0  0  0  0  0  0  0  0  0
    1.0133   13.7258    1.2493 H   0  0  0  0  0  0  0  0  0  0  0  0
    0.6886   11.7261   -2.2419 H   0  0  0  0  0  0  0  0  0  0  0  0
    3.6996   11.6433   -1.5901 H   0  0  0  0  0  0  0  0  0  0  0  0
    2.8745   10.9083   -3.0356 H   0  0  0  0  0  0  0  0  0  0  0  0
    4.0239   13.0273   -3.5906 H   0  0  0  0  0  0  0  0  0  0  0  0
    2.2344   13.1109   -3.8287 H   0  0  0  0  0  0  0  0  0  0  0  0
    2.9688   15.1454   -2.7870 H   0  0  0  0  0  0  0  0  0  0  0  0
    4.8850   14.4640   -1.8110 H   0  0  0  0  0  0  0  0  0  0  0  0
   -0.4182   14.8492   -1.6223 H   0  0  0  0  0  0  0  0  0  0  0  0
    0.7089   15.4756   -2.8729 H   0  0  0  0  0  0  0  0  0  0  0  0
    0.2414   13.7413   -2.8729 H   0  0  0  0  0  0  0  0  0  0  0  0
    1.7418   15.0901    0.7105 H   0  0  0  0  0  0  0  0  0  0  0  0
    2.7323   15.9974   -0.4821 H   0  0  0  0  0  0  0  0  0  0  0  0
    0.9444   16.1709   -0.4821 H   0  0  0  0  0  0  0  0  0  0  0  0
    2.5600    9.8020    0.9042 H   0  0  0  0  0  0  0  0  0  0  0  0
    2.8242    8.7416   -0.5214 H   0  0  0  0  0  0  0  0  0  0  0  0
    3.4604   10.4214   -0.5214 H   0  0  0  0  0  0  0  0  0  0  0  0
    1.3991    9.4627   -2.8313 H   0  0  0  0  0  0  0  0  0  0  0  0
    1.1554    8.2403   -1.4597 H   0  0  0  0  0  0  0  0  0  0  0  0
   -0.9428    9.9914   -2.7700 H   0  0  0  0  0  0  0  0  0  0  0  0
   -0.7877    8.1912   -2.8137 H   0  0  0  0  0  0  0  0  0  0  0  0
   -1.0748    7.8157    0.8887 H   0  0  0  0  0  0  0  0  0  0  0  0
   -1.7106    6.8541   -0.4889 H   0  0  0  0  0  0  0  0  0  0  0  0
    0.0006    7.4003   -0.4889 H   0  0  0  0  0  0  0  0  0  0  0  0
  1  2  1  0
  2  3  1  0
  3  4  1  0
  4  5  1  0
  5  6  1  0
  6  7  1  0
  7  8  1  0
  7  9  1  0
  2 10  1  0
 10 11  1  0
 11 12  1  0
 12 13  1  0
 13 14  1  6
 13 15  1  0
 15 16  1  0
 16 17  1  0
 17 18  2  0
 18 19  1  0
 19 20  1  0
 20 21  1  0
 21 22  1  0
 22 23  1  0
 22 24  1  0
 24 25  1  0
 24 26  1  0
 19 27  1  0
 27 28  1  1
 27 29  1  0
 29 30  1  0
 30 31  1  0
 31 32  1  1
  7  5  1  0
 31 10  1  0
 31 13  1  0
 27 15  1  0
 24 18  1  0
  1 33  1  0
  1 34  1  0
  1 35  1  0
  2 36  1  1
  3 37  1  0
  3 38  1  0
  4 39  1  0
  4 40  1  0
  5 41  1  1
  8 42  1  0
  8 43  1  0
  8 44  1  0
  9 45  1  0
  9 46  1  0
  9 47  1  0
 10 48  1  6
 11 49  1  0
 11 50  1  0
 12 51  1  0
 12 52  1  0
 14 53  1  0
 14 54  1  0
 14 55  1  0
 15 56  1  1
 16 57  1  0
 16 58  1  0
 17 59  1  0
 19 60  1  6
 20 61  1  0
 20 62  1  0
 21 63  1  0
 21 64  1  0
 22 65  1  6
 23 66  1  0
 25 67  1  0
 25 68  1  0
 25 69  1  0
 26 70  1  0
 26 71  1  0
 26 72  1  0
 28 73  1  0
 28 74  1  0
 28 75  1  0
 29 76  1  0
 29 77  1  0
 30 78  1  0
 30 79  1  0
 32 80  1  0
 32 81  1  0
 32 82  1  0
M  END
>  <meeko>  (16) 
{"is_sidechain": [false], "intermolecular_energy": 2.731, "internal_energy": -0.839}

$$$$
EPH_relaxed_0001_pdb2pqr_Repair_114_r2_0001_out
     RDKit          3D

 82 86  0  0  0  0  0  0  0  0999 V2000
    3.3210   18.3240   -3.7610 C   0  0  0  0  0  0  0  0  0  0  0  0
    2.1330   18.0110   -2.8460 C   0  0  2  0  0  0  0  0  0  0  0  0
    1.9070   19.1130   -1.7920 C   0  0  0  0  0  0  0  0  0  0  0  0
    1.6840   18.5730   -0.3760 C   0  0  0  0  0  0  0  0  0  0  0  0
    2.0660   19.5800    0.6670 C   0  0  2  0  0  0  0  0  0  0  0  0
    3.3450   20.1940    0.4660 O   0  0  0  0  0  0  0  0  0  0  0  0
    3.2110   19.3800    1.6420 C   0  0  0  0  0  0  0  0  0  0  0  0
    4.0470   18.1390    1.6210 C   0  0  0  0  0  0  0  0  0  0  0  0
    3.2080   20.1620    2.9190 C   0  0  0  0  0  0  0  0  0  0  0  0
    2.3470   16.6680   -2.1590 C   0  0  1  0  0  0  0  0  0  0  0  0
    2.9180   16.8150   -0.7230 C   0  0  0  0  0  0  0  0  0  0  0  0
    2.2940   15.6780    0.1260 C   0  0  0  0  0  0  0  0  0  0  0  0
    1.6530   14.7250   -0.9100 C   0  0  1  0  0  0  0  0  0  0  0  0
    2.8360   13.8530   -1.4370 C   0  0  0  0  0  0  0  0  0  0  0  0
    0.4690   13.8420   -0.3960 C   0  0  2  0  0  0  0  0  0  0  0  0
    0.8320   12.8500    0.7230 C   0  0  0  0  0  0  0  0  0  0  0  0
    1.2690   11.5000    0.2610 C   0  0  0  0  0  0  0  0  0  0  0  0
    1.0980   11.0040   -0.9790 C   0  0  0  0  0  0  0  0  0  0  0  0
    0.3180   11.7900   -2.0410 C   0  0  1  0  0  0  0  0  0  0  0  0
   -0.6860   10.8440   -2.7520 C   0  0  0  0  0  0  0  0  0  0  0  0
   -0.0130    9.6000   -3.3240 C   0  0  0  0  0  0  0  0  0  0  0  0
    0.7030    8.8140   -2.2280 C   0  0  2  0  0  0  0  0  0  0  0  0
   -0.2750    8.2830   -1.3280 O   0  0  0  0  0  0  0  0  0  0  0  0
    1.7330    9.6670   -1.4350 C   0  0  0  0  0  0  0  0  0  0  0  0
    2.9470    9.9900   -2.3410 C   0  0  0  0  0  0  0  0  0  0  0  0
    2.2790    8.7970   -0.2720 C   0  0  0  0  0  0  0  0  0  0  0  0
   -0.3600   13.1390   -1.5460 C   0  0  1  0  0  0  0  0  0  0  0  0
   -1.7720   12.8390   -0.9560 C   0  0  0  0  0  0  0  0  0  0  0  0
   -0.5880   14.0840   -2.7840 C   0  0  0  0  0  0  0  0  0  0  0  0
    0.5760   15.0180   -3.1680 C   0  0  0  0  0  0  0  0  0  0  0  0
    1.1010   15.7730   -1.9430 C   0  0  2  0  0  0  0  0  0  0  0  0
   -0.0600   16.6760   -1.4040 C   0  0  0  0  0  0  0  0  0  0  0  0
    4.2044   18.5567   -3.1483 H   0  0  0  0  0  0  0  0  0  0  0  0
    3.5347   17.4515   -4.3959 H   0  0  0  0  0  0  0  0  0  0  0  0
    3.0770   19.1885   -4.3959 H   0  0  0  0  0  0  0  0  0  0  0  0
    1.2319   17.9668   -3.4753 H   0  0  0  0  0  0  0  0  0  0  0  0
    2.7908   19.7678   -1.7790 H   0  0  0  0  0  0  0  0  0  0  0  0
    0.9913   19.6504   -2.0795 H   0  0  0  0  0  0  0  0  0  0  0  0
    0.6206   18.3194   -0.2544 H   0  0  0  0  0  0  0  0  0  0  0  0
    2.3183   17.6841   -0.2437 H   0  0  0  0  0  0  0  0  0  0  0  0
    1.0133   19.8635    0.8131 H   0  0  0  0  0  0  0  0  0  0  0  0
    4.2600   17.8229    2.6528 H   0  0  0  0  0  0  0  0  0  0  0  0
    3.5029   17.3392    1.0974 H   0  0  0  0  0  0  0  0  0  0  0  0
    4.9927   18.3428    1.0974 H   0  0  0  0  0  0  0  0  0  0  0  0
    3.2107   19.4691    3.7733 H   0  0  0  0  0  0  0  0  0  0  0  0
    4.1037   20.7991    2.9609 H   0  0  0  0  0  0  0  0  0  0  0  0
    2.3074   20.7923    2.9609 H   0  0  0  0  0  0  0  0  0  0  0  0
    3.0281   16.1976   -2.8834 H   0  0  0  0  0  0  0  0  0  0  0  0
    4.0136   16.7177   -0.7394 H   0  0  0  0  0  0  0  0  0  0  0  0
    2.6752   17.8014   -0.3009 H   0  0  0  0  0  0  0  0  0  0  0  0
    3.0693   15.1562    0.7062 H   0  0  0  0  0  0  0  0  0  0  0  0
    1.5618   16.0552    0.8551 H   0  0  0  0  0  0  0  0  0  0  0  0
    3.3956   13.4405   -0.5845 H   0  0  0  0  0  0  0  0  0  0  0  0
    2.4400   13.0291   -2.0489 H   0  0  0  0  0  0  0  0  0  0  0  0
    3.5058   14.4750   -2.0489 H   0  0  0  0  0  0  0  0  0  0  0  0
   -0.1957   14.5849    0.0691 H   0  0  0  0  0  0  0  0  0  0  0  0
    1.6499   13.2883    1.3137 H   0  0  0  0  0  0  0  0  0  0  0  0
   -0.0912   12.6903    1.2994 H   0  0  0  0  0  0  0  0  0  0  0  0
    1.7736   10.8555    0.9958 H   0  0  0  0  0  0  0  0  0  0  0  0
    1.0657   12.1509   -2.7626 H   0  0  0  0  0  0  0  0  0  0  0  0
   -1.4493   10.5293   -2.0251 H   0  0  0  0  0  0  0  0  0  0  0  0
   -1.1306   11.3989   -3.5913 H   0  0  0  0  0  0  0  0  0  0  0  0
   -0.7770    8.9580   -3.7868 H   0  0  0  0  0  0  0  0  0  0  0  0
    0.7293    9.9151   -4.0721 H   0  0  0  0  0  0  0  0  0  0  0  0
    1.2720    8.0097   -2.7172 H   0  0  0  0  0  0  0  0  0  0  0  0
   -0.4930    8.9790   -0.6850 H   0  0  0  0  0  0  0  0  0  0  0  0
    3.8206   10.2224   -1.7143 H   0  0  0  0  0  0  0  0  0  0  0  0
    3.1722    9.1205   -2.9761 H   0  0  0  0  0  0  0  0  0  0  0  0
    2.7103   10.8564   -2.9761 H   0  0  0  0  0  0  0  0  0  0  0  0
    1.9948    9.2498    0.6893 H   0  0  0  0  0  0  0  0  0  0  0  0
    1.8539    7.7848   -0.3404 H   0  0  0  0  0  0  0  0  0  0  0  0
    3.3754    8.7396   -0.3404 H   0  0  0  0  0  0  0  0  0  0  0  0
   -1.7202   12.8500    0.1427 H   0  0  0  0  0  0  0  0  0  0  0  0
   -2.4826   13.6062   -1.2973 H   0  0  0  0  0  0  0  0  0  0  0  0
   -2.1092   11.8492   -1.2973 H   0  0  0  0  0  0  0  0  0  0  0  0
   -0.8043   13.4466   -3.6540 H   0  0  0  0  0  0  0  0  0  0  0  0
   -1.4091   14.7535   -2.4881 H   0  0  0  0  0  0  0  0  0  0  0  0
    1.3918   14.4181   -3.5977 H   0  0  0  0  0  0  0  0  0  0  0  0
    0.2095   15.7515   -3.9012 H   0  0  0  0  0  0  0  0  0  0  0  0
   -0.0501   16.6683   -0.3041 H   0  0  0  0  0  0  0  0  0  0  0  0
    0.0788   17.7059   -1.7647 H   0  0  0  0  0  0  0  0  0  0  0  0
   -1.0240   16.2880   -1.7647 H   0  0  0  0  0  0  0  0  0  0  0  0
  1  2  1  0
  2  3  1  0
  3  4  1  0
  4  5  1  0
  5  6  1  0
  6  7  1  0
  7  8  1  0
  7  9  1  0
  2 10  1  0
 10 11  1  0
 11 12  1  0
 12 13  1  0
 13 14  1  6
 13 15  1  0
 15 16  1  0
 16 17  1  0
 17 18  2  0
 18 19  1  0
 19 20  1  0
 20 21  1  0
 21 22  1  0
 22 23  1  0
 22 24  1  0
 24 25  1  0
 24 26  1  0
 19 27  1  0
 27 28  1  1
 27 29  1  0
 29 30  1  0
 30 31  1  0
 31 32  1  1
  7  5  1  0
 31 10  1  0
 31 13  1  0
 27 15  1  0
 24 18  1  0
  1 33  1  0
  1 34  1  0
  1 35  1  0
  2 36  1  6
  3 37  1  0
  3 38  1  0
  4 39  1  0
  4 40  1  0
  5 41  1  1
  8 42  1  0
  8 43  1  0
  8 44  1  0
  9 45  1  0
  9 46  1  0
  9 47  1  0
 10 48  1  6
 11 49  1  0
 11 50  1  0
 12 51  1  0
 12 52  1  0
 14 53  1  0
 14 54  1  0
 14 55  1  0
 15 56  1  1
 16 57  1  0
 16 58  1  0
 17 59  1  0
 19 60  1  6
 20 61  1  0
 20 62  1  0
 21 63  1  0
 21 64  1  0
 22 65  1  6
 23 66  1  0
 25 67  1  0
 25 68  1  0
 25 69  1  0
 26 70  1  0
 26 71  1  0
 26 72  1  0
 28 73  1  0
 28 74  1  0
 28 75  1  0
 29 76  1  0
 29 77  1  0
 30 78  1  0
 30 79  1  0
 32 80  1  0
 32 81  1  0
 32 82  1  0
M  END
>  <meeko>  (17) 
{"is_sidechain": [false], "intermolecular_energy": 2.731, "internal_energy": -0.839}

$$$$
EPH_relaxed_0001_pdb2pqr_Repair_114_r2_0001_out
     RDKit          3D

 82 86  0  0  0  0  0  0  0  0999 V2000
    4.2280   18.9700   -0.3160 C   0  0  0  0  0  0  0  0  0  0  0  0
    2.7040   19.0470   -0.4450 C   0  0  2  0  0  0  0  0  0  0  0  0
    2.0770   19.9710    0.6170 C   0  0  0  0  0  0  0  0  0  0  0  0
    2.4990   19.6370    2.0500 C   0  0  0  0  0  0  0  0  0  0  0  0
    3.9900   19.6070    2.1970 C   0  0  2  0  0  0  0  0  0  0  0  0
    4.5000   18.4620    2.8920 O   0  0  0  0  0  0  0  0  0  0  0  0
    4.7030   19.7330    3.5300 C   0  0  0  0  0  0  0  0  0  0  0  0
    3.9430   19.9010    4.8080 C   0  0  0  0  0  0  0  0  0  0  0  0
    6.1310   20.1820    3.5380 C   0  0  0  0  0  0  0  0  0  0  0  0
    2.1020   17.6500   -0.3410 C   0  0  1  0  0  0  0  0  0  0  0  0
    0.9060   17.5870    0.6460 C   0  0  0  0  0  0  0  0  0  0  0  0
   -0.1000   16.5610    0.0650 C   0  0  0  0  0  0  0  0  0  0  0  0
    0.6890   15.8280   -1.0460 C   0  0  1  0  0  0  0  0  0  0  0  0
    1.5410   14.7580   -0.2950 C   0  0  0  0  0  0  0  0  0  0  0  0
   -0.1630   15.1890   -2.1910 C   0  0  2  0  0  0  0  0  0  0  0  0
   -1.1280   14.0780   -1.7430 C   0  0  0  0  0  0  0  0  0  0  0  0
   -0.5660   12.6950   -1.7710 C   0  0  0  0  0  0  0  0  0  0  0  0
    0.5610   12.3210   -2.4050 C   0  0  0  0  0  0  0  0  0  0  0  0
    1.3450   13.3170   -3.2690 C   0  0  1  0  0  0  0  0  0  0  0  0
    1.7150   12.6500   -4.6200 C   0  0  0  0  0  0  0  0  0  0  0  0
    2.4530   11.3280   -4.4380 C   0  0  0  0  0  0  0  0  0  0  0  0
    1.6170   10.3440   -3.6230 C   0  0  2  0  0  0  0  0  0  0  0  0
    0.4620    9.9810   -4.3850 O   0  0  0  0  0  0  0  0  0  0  0  0
    1.1770   10.9100   -2.2440 C   0  0  0  0  0  0  0  0  0  0  0  0
    2.4080   11.0210   -1.3100 C   0  0  0  0  0  0  0  0  0  0  0  0
    0.2250    9.8760   -1.5850 C   0  0  0  0  0  0  0  0  0  0  0  0
    0.6790   14.7480   -3.4560 C   0  0  1  0  0  0  0  0  0  0  0  0
   -0.3090   14.7210   -4.6620 C   0  0  0  0  0  0  0  0  0  0  0  0
    1.7990   15.7920   -3.8240 C   0  0  0  0  0  0  0  0  0  0  0  0
    2.5220   16.4780   -2.6490 C   0  0  0  0  0  0  0  0  0  0  0  0
    1.5160   17.0290   -1.6330 C   0  0  2  0  0  0  0  0  0  0  0  0
    0.6590   18.1250   -2.3550 C   0  0  0  0  0  0  0  0  0  0  0  0
    4.5056   18.9560    0.7483 H   0  0  0  0  0  0  0  0  0  0  0  0
    4.5912   18.0524   -0.8018 H   0  0  0  0  0  0  0  0  0  0  0  0
    4.6818   19.8464   -0.8018 H   0  0  0  0  0  0  0  0  0  0  0  0
    2.4772   19.4771   -1.4317 H   0  0  0  0  0  0  0  0  0  0  0  0
    2.3787   21.0060    0.3985 H   0  0  0  0  0  0  0  0  0  0  0  0
    0.9874   19.8308    0.5619 H   0  0  0  0  0  0  0  0  0  0  0  0
    2.0893   20.3994    2.7289 H   0  0  0  0  0  0  0  0  0  0  0  0
    2.1103   18.6382    2.2975 H   0  0  0  0  0  0  0  0  0  0  0  0
    4.1179   20.1334    1.2396 H   0  0  0  0  0  0  0  0  0  0  0  0
    4.6216   19.7510    5.6606 H   0  0  0  0  0  0  0  0  0  0  0  0
    3.5182   20.9147    4.8514 H   0  0  0  0  0  0  0  0  0  0  0  0
    3.1305   19.1608    4.8514 H   0  0  0  0  0  0  0  0  0  0  0  0
    6.4755   20.2903    4.5770 H   0  0  0  0  0  0  0  0  0  0  0  0
    6.7528   19.4360    3.0214 H   0  0  0  0  0  0  0  0  0  0  0  0
    6.2140   21.1496    3.0214 H   0  0  0  0  0  0  0  0  0  0  0  0
    2.9940   17.0887   -0.0258 H   0  0  0  0  0  0  0  0  0  0  0  0
    1.2505   17.2596    1.6381 H   0  0  0  0  0  0  0  0  0  0  0  0
    0.4383   18.5757    0.7632 H   0  0  0  0  0  0  0  0  0  0  0  0
   -0.4254   15.8534    0.8418 H   0  0  0  0  0  0  0  0  0  0  0  0
   -1.0120   17.0418   -0.3185 H   0  0  0  0  0  0  0  0  0  0  0  0
    1.4303   14.8970    0.7905 H   0  0  0  0  0  0  0  0  0  0  0  0
    1.1941   13.7519   -0.5731 H   0  0  0  0  0  0  0  0  0  0  0  0
    2.5993   14.8708   -0.5731 H   0  0  0  0  0  0  0  0  0  0  0  0
   -0.7999   16.0279   -2.5082 H   0  0  0  0  0  0  0  0  0  0  0  0
   -1.4422   14.2963   -0.7117 H   0  0  0  0  0  0  0  0  0  0  0  0
   -1.9562   14.0844   -2.4669 H   0  0  0  0  0  0  0  0  0  0  0  0
   -1.1200   11.9155   -1.2274 H   0  0  0  0  0  0  0  0  0  0  0  0
    2.2601   13.5537   -2.7064 H   0  0  0  0  0  0  0  0  0  0  0  0
    0.7902   12.4624   -5.1853 H   0  0  0  0  0  0  0  0  0  0  0  0
    2.3867   13.3356   -5.1574 H   0  0  0  0  0  0  0  0  0  0  0  0
    2.6598   10.8921   -5.4265 H   0  0  0  0  0  0  0  0  0  0  0  0
    3.3921   11.5215   -3.8988 H   0  0  0  0  0  0  0  0  0  0  0  0
    2.2477    9.4671   -3.4149 H   0  0  0  0  0  0  0  0  0  0  0  0
    0.1720    9.1040   -4.0790 H   0  0  0  0  0  0  0  0  0  0  0  0
    2.0766   10.9911   -0.2615 H   0  0  0  0  0  0  0  0  0  0  0  0
    3.0914   10.1808   -1.5026 H   0  0  0  0  0  0  0  0  0  0  0  0
    2.9301   11.9699   -1.5026 H   0  0  0  0  0  0  0  0  0  0  0  0
    0.2983    9.9557   -0.4903 H   0  0  0  0  0  0  0  0  0  0  0  0
   -0.8097   10.0782   -1.8988 H   0  0  0  0  0  0  0  0  0  0  0  0
    0.5118    8.8615   -1.8988 H   0  0  0  0  0  0  0  0  0  0  0  0
   -1.3432   14.6927   -4.2882 H   0  0  0  0  0  0  0  0  0  0  0  0
   -0.1650   15.6234   -5.2743 H   0  0  0  0  0  0  0  0  0  0  0  0
   -0.1159   13.8278   -5.2743 H   0  0  0  0  0  0  0  0  0  0  0  0
    2.5590   15.2679   -4.4221 H   0  0  0  0  0  0  0  0  0  0  0  0
    1.2751   16.6022   -4.3522 H   0  0  0  0  0  0  0  0  0  0  0  0
    3.1730   15.7452   -2.1498 H   0  0  0  0  0  0  0  0  0  0  0  0
    3.1166   17.3152   -3.0435 H   0  0  0  0  0  0  0  0  0  0  0  0
    0.1643   18.7577   -1.6034 H   0  0  0  0  0  0  0  0  0  0  0  0
    1.3132   18.7465   -2.9842 H   0  0  0  0  0  0  0  0  0  0  0  0
   -0.1019   17.6400   -2.9842 H   0  0  0  0  0  0  0  0  0  0  0  0
  1  2  1  0
  2  3  1  0
  3  4  1  0
  4  5  1  0
  5  6  1  0
  6  7  1  0
  7  8  1  0
  7  9  1  0
  2 10  1  0
 10 11  1  0
 11 12  1  0
 12 13  1  0
 13 14  1  1
 13 15  1  0
 15 16  1  0
 16 17  1  0
 17 18  2  0
 18 19  1  0
 19 20  1  0
 20 21  1  0
 21 22  1  0
 22 23  1  0
 22 24  1  0
 24 25  1  0
 24 26  1  0
 19 27  1  0
 27 28  1  6
 27 29  1  0
 29 30  1  0
 30 31  1  0
 31 32  1  6
  7  5  1  0
 31 10  1  0
 31 13  1  0
 27 15  1  0
 24 18  1  0
  1 33  1  0
  1 34  1  0
  1 35  1  0
  2 36  1  6
  3 37  1  0
  3 38  1  0
  4 39  1  0
  4 40  1  0
  5 41  1  6
  8 42  1  0
  8 43  1  0
  8 44  1  0
  9 45  1  0
  9 46  1  0
  9 47  1  0
 10 48  1  1
 11 49  1  0
 11 50  1  0
 12 51  1  0
 12 52  1  0
 14 53  1  0
 14 54  1  0
 14 55  1  0
 15 56  1  6
 16 57  1  0
 16 58  1  0
 17 59  1  0
 19 60  1  1
 20 61  1  0
 20 62  1  0
 21 63  1  0
 21 64  1  0
 22 65  1  1
 23 66  1  0
 25 67  1  0
 25 68  1  0
 25 69  1  0
 26 70  1  0
 26 71  1  0
 26 72  1  0
 28 73  1  0
 28 74  1  0
 28 75  1  0
 29 76  1  0
 29 77  1  0
 30 78  1  0
 30 79  1  0
 32 80  1  0
 32 81  1  0
 32 82  1  0
M  END
>  <meeko>  (18) 
{"is_sidechain": [false], "intermolecular_energy": 2.731, "internal_energy": -0.839}

$$$$
