EPH_relaxed_0001_pdb2pqr_Repair_133_r2_0001_out
     RDKit          3D

 82 86  0  0  0  0  0  0  0  0999 V2000
   -1.5970    8.5920   -1.8160 C   0  0  0  0  0  0  0  0  0  0  0  0
   -2.0130    9.1580   -0.4550 C   0  0  2  0  0  0  0  0  0  0  0  0
   -3.5050    9.5440   -0.4180 C   0  0  0  0  0  0  0  0  0  0  0  0
   -4.4480    8.3440   -0.2960 C   0  0  0  0  0  0  0  0  0  0  0  0
   -5.0870    8.0050   -1.6090 C   0  0  2  0  0  0  0  0  0  0  0  0
   -6.3580    8.6290   -1.8340 O   0  0  0  0  0  0  0  0  0  0  0  0
   -6.3640    7.1960   -1.7340 C   0  0  0  0  0  0  0  0  0  0  0  0
   -7.0780    6.6730   -0.5260 C   0  0  0  0  0  0  0  0  0  0  0  0
   -6.6470    6.5010   -3.0290 C   0  0  0  0  0  0  0  0  0  0  0  0
   -1.1530   10.3690   -0.1120 C   0  0  1  0  0  0  0  0  0  0  0  0
   -0.1020   10.0630    0.9890 C   0  0  0  0  0  0  0  0  0  0  0  0
    1.1590   10.8980    0.6480 C   0  0  0  0  0  0  0  0  0  0  0  0
    0.6840   11.8980   -0.4330 C   0  0  1  0  0  0  0  0  0  0  0  0
   -0.0150   13.0450    0.3620 C   0  0  0  0  0  0  0  0  0  0  0  0
    1.7860   12.4500   -1.3950 C   0  0  2  0  0  0  0  0  0  0  0  0
    2.8970   13.2680   -0.7140 C   0  0  0  0  0  0  0  0  0  0  0  0
    2.6410   14.7360   -0.6190 C   0  0  0  0  0  0  0  0  0  0  0  0
    1.7040   15.4120   -1.3080 C   0  0  0  0  0  0  0  0  0  0  0  0
    0.8450   14.7100   -2.3680 C   0  0  1  0  0  0  0  0  0  0  0  0
    0.7930   15.5790   -3.6520 C   0  0  0  0  0  0  0  0  0  0  0  0
    0.3280   17.0050   -3.3750 C   0  0  0  0  0  0  0  0  0  0  0  0
    1.2410   17.6900   -2.3610 C   0  0  2  0  0  0  0  0  0  0  0  0
    2.5330   17.8670   -2.9500 O   0  0  0  0  0  0  0  0  0  0  0  0
    1.3780   16.9000   -1.0290 C   0  0  0  0  0  0  0  0  0  0  0  0
    0.0440   16.9670   -0.2450 C   0  0  0  0  0  0  0  0  0  0  0  0
    2.4340   17.6250   -0.1510 C   0  0  0  0  0  0  0  0  0  0  0  0
    1.2190   13.1950   -2.6700 C   0  0  1  0  0  0  0  0  0  0  0  0
    2.3340   13.1290   -3.7580 C   0  0  0  0  0  0  0  0  0  0  0  0
   -0.0380   12.4680   -3.2790 C   0  0  0  0  0  0  0  0  0  0  0  0
   -1.0280   11.8390   -2.2800 C   0  0  0  0  0  0  0  0  0  0  0  0
   -0.2940   10.9760   -1.2490 C   0  0  2  0  0  0  0  0  0  0  0  0
    0.4010    9.8000   -2.0170 C   0  0  0  0  0  0  0  0  0  0  0  0
   -0.9516    7.7139   -1.6662 H   0  0  0  0  0  0  0  0  0  0  0  0
   -2.4940    8.2959   -2.3797 H   0  0  0  0  0  0  0  0  0  0  0  0
   -1.0466    9.3597   -2.3797 H   0  0  0  0  0  0  0  0  0  0  0  0
   -1.8584    8.3673    0.2939 H   0  0  0  0  0  0  0  0  0  0  0  0
   -3.6713   10.2056    0.4449 H   0  0  0  0  0  0  0  0  0  0  0  0
   -3.7335   10.0367   -1.3746 H   0  0  0  0  0  0  0  0  0  0  0  0
   -3.8742    7.4741    0.0563 H   0  0  0  0  0  0  0  0  0  0  0  0
   -5.2449    8.6052    0.4158 H   0  0  0  0  0  0  0  0  0  0  0  0
   -4.1026    7.9082   -2.0902 H   0  0  0  0  0  0  0  0  0  0  0  0
   -6.5779    7.0393    0.3827 H   0  0  0  0  0  0  0  0  0  0  0  0
   -8.1210    7.0223   -0.5367 H   0  0  0  0  0  0  0  0  0  0  0  0
   -7.0595    5.5732   -0.5367 H   0  0  0  0  0  0  0  0  0  0  0  0
   -7.0547    5.4997   -2.8263 H   0  0  0  0  0  0  0  0  0  0  0  0
   -7.3790    7.0850   -3.6062 H   0  0  0  0  0  0  0  0  0  0  0  0
   -5.7153    6.4076   -3.6062 H   0  0  0  0  0  0  0  0  0  0  0  0
   -1.9412   11.0772    0.1832 H   0  0  0  0  0  0  0  0  0  0  0  0
   -0.4922   10.3520    1.9760 H   0  0  0  0  0  0  0  0  0  0  0  0
    0.1329    8.9889    1.0232 H   0  0  0  0  0  0  0  0  0  0  0  0
    1.5235   11.4321    1.5379 H   0  0  0  0  0  0  0  0  0  0  0  0
    1.9928   10.2711    0.2990 H   0  0  0  0  0  0  0  0  0  0  0  0
    0.0957   12.8634    1.4412 H   0  0  0  0  0  0  0  0  0  0  0  0
    0.4503   14.0074    0.1025 H   0  0  0  0  0  0  0  0  0  0  0  0
   -1.0836   13.0726    0.1025 H   0  0  0  0  0  0  0  0  0  0  0  0
    2.2698   11.5289   -1.7521 H   0  0  0  0  0  0  0  0  0  0  0  0
    3.0285   12.8791    0.3065 H   0  0  0  0  0  0  0  0  0  0  0  0
    3.7896   13.1550   -1.3469 H   0  0  0  0  0  0  0  0  0  0  0  0
    3.2719   15.3134    0.0728 H   0  0  0  0  0  0  0  0  0  0  0  0
   -0.1628   14.6246   -1.9355 H   0  0  0  0  0  0  0  0  0  0  0  0
    1.7997   15.6160   -4.0937 H   0  0  0  0  0  0  0  0  0  0  0  0
    0.0666   15.1183   -4.3376 H   0  0  0  0  0  0  0  0  0  0  0  0
    0.3409   17.5767   -4.3147 H   0  0  0  0  0  0  0  0  0  0  0  0
   -0.6905   16.9677   -2.9611 H   0  0  0  0  0  0  0  0  0  0  0  0
    0.7844   18.6579   -2.1066 H   0  0  0  0  0  0  0  0  0  0  0  0
    2.4070   17.9760   -3.9080 H   0  0  0  0  0  0  0  0  0  0  0  0
    0.2525   16.9565    0.8350 H   0  0  0  0  0  0  0  0  0  0  0  0
   -0.4889   17.8930   -0.5066 H   0  0  0  0  0  0  0  0  0  0  0  0
   -0.5790   16.0990   -0.5066 H   0  0  0  0  0  0  0  0  0  0  0  0
    2.1999   17.4643    0.9117 H   0  0  0  0  0  0  0  0  0  0  0  0
    3.4334   17.2217   -0.3714 H   0  0  0  0  0  0  0  0  0  0  0  0
    2.4167   18.7026   -0.3714 H   0  0  0  0  0  0  0  0  0  0  0  0
    3.3186   13.0707   -3.2709 H   0  0  0  0  0  0  0  0  0  0  0  0
    2.1819   12.2383   -4.3853 H   0  0  0  0  0  0  0  0  0  0  0  0
    2.2881   14.0314   -4.3853 H   0  0  0  0  0  0  0  0  0  0  0  0
   -0.5924   13.2064   -3.8768 H   0  0  0  0  0  0  0  0  0  0  0  0
    0.3685   11.6222   -3.8529 H   0  0  0  0  0  0  0  0  0  0  0  0
   -1.5699   12.6410   -1.7573 H   0  0  0  0  0  0  0  0  0  0  0  0
   -1.7288   11.1996   -2.8368 H   0  0  0  0  0  0  0  0  0  0  0  0
    0.8222    9.0873   -1.2927 H   0  0  0  0  0  0  0  0  0  0  0  0
   -0.3389    9.2867   -2.6487 H   0  0  0  0  0  0  0  0  0  0  0  0
    1.2075   10.2006   -2.6487 H   0  0  0  0  0  0  0  0  0  0  0  0
  1  2  1  0
  2  3  1  0
  3  4  1  0
  4  5  1  0
  5  6  1  0
  6  7  1  0
  7  8  1  0
  7  9  1  0
  2 10  1  0
 10 11  1  0
 11 12  1  0
 12 13  1  0
 13 14  1  1
 13 15  1  0
 15 16  1  0
 16 17  1  0
 17 18  2  0
 18 19  1  0
 19 20  1  0
 20 21  1  0
 21 22  1  0
 22 23  1  0
 22 24  1  0
 24 25  1  0
 24 26  1  0
 19 27  1  0
 27 28  1  6
 27 29  1  0
 29 30  1  0
 30 31  1  0
 31 32  1  6
  7  5  1  0
 31 10  1  0
 31 13  1  0
 27 15  1  0
 24 18  1  0
  1 33  1  0
  1 34  1  0
  1 35  1  0
  2 36  1  1
  3 37  1  0
  3 38  1  0
  4 39  1  0
  4 40  1  0
  5 41  1  6
  8 42  1  0
  8 43  1  0
  8 44  1  0
  9 45  1  0
  9 46  1  0
  9 47  1  0
 10 48  1  1
 11 49  1  0
 11 50  1  0
 12 51  1  0
 12 52  1  0
 14 53  1  0
 14 54  1  0
 14 55  1  0
 15 56  1  6
 16 57  1  0
 16 58  1  0
 17 59  1  0
 19 60  1  1
 20 61  1  0
 20 62  1  0
 21 63  1  0
 21 64  1  0
 22 65  1  1
 23 66  1  0
 25 67  1  0
 25 68  1  0
 25 69  1  0
 26 70  1  0
 26 71  1  0
 26 72  1  0
 28 73  1  0
 28 74  1  0
 28 75  1  0
 29 76  1  0
 29 77  1  0
 30 78  1  0
 30 79  1  0
 32 80  1  0
 32 81  1  0
 32 82  1  0
M  END
>  <meeko>  (1) 
{"is_sidechain": [false], "intermolecular_energy": 2.731, "internal_energy": -0.839}

$$$$
EPH_relaxed_0001_pdb2pqr_Repair_133_r2_0001_out
     RDKit          3D

 82 86  0  0  0  0  0  0  0  0999 V2000
    1.9560   19.6590   -0.6020 C   0  0  0  0  0  0  0  0  0  0  0  0
    2.3810   18.4310    0.2070 C   0  0  2  0  0  0  0  0  0  0  0  0
    3.8240   17.9940   -0.1150 C   0  0  0  0  0  0  0  0  0  0  0  0
    4.7910   18.1480    1.0630 C   0  0  0  0  0  0  0  0  0  0  0  0
    4.1890   18.9580    2.1710 C   0  0  2  0  0  0  0  0  0  0  0  0
    4.9680   20.0930    2.5740 O   0  0  0  0  0  0  0  0  0  0  0  0
    4.7970   19.0600    3.5580 C   0  0  0  0  0  0  0  0  0  0  0  0
    6.0610   18.3410    3.9100 C   0  0  0  0  0  0  0  0  0  0  0  0
    3.9130   19.4550    4.6990 C   0  0  0  0  0  0  0  0  0  0  0  0
    1.4180   17.2780   -0.0530 C   0  0  1  0  0  0  0  0  0  0  0  0
    0.1260   17.7330   -0.7840 C   0  0  0  0  0  0  0  0  0  0  0  0
   -0.2850   16.5730   -1.7280 C   0  0  0  0  0  0  0  0  0  0  0  0
    0.5780   15.3740   -1.2710 C   0  0  1  0  0  0  0  0  0  0  0  0
   -0.1660   14.7940   -0.0270 C   0  0  0  0  0  0  0  0  0  0  0  0
    0.8530   14.2710   -2.3450 C   0  0  2  0  0  0  0  0  0  0  0  0
   -0.3980   13.5430   -2.8670 C   0  0  0  0  0  0  0  0  0  0  0  0
   -0.7830   12.3150   -2.1120 C   0  0  0  0  0  0  0  0  0  0  0  0
    0.0010   11.6550   -1.2390 C   0  0  0  0  0  0  0  0  0  0  0  0
    1.4570   12.0820   -1.0110 C   0  0  1  0  0  0  0  0  0  0  0  0
    2.3730   10.8300   -1.0350 C   0  0  0  0  0  0  0  0  0  0  0  0
    1.9190    9.7530   -0.0540 C   0  0  0  0  0  0  0  0  0  0  0  0
    0.4880    9.3140   -0.3500 C   0  0  2  0  0  0  0  0  0  0  0  0
    0.4620    8.6460   -1.6150 O   0  0  0  0  0  0  0  0  0  0  0  0
   -0.5250   10.4930   -0.3610 C   0  0  0  0  0  0  0  0  0  0  0  0
   -0.7220   11.0240    1.0810 C   0  0  0  0  0  0  0  0  0  0  0  0
   -1.9030    9.9350   -0.8100 C   0  0  0  0  0  0  0  0  0  0  0  0
    1.9930   13.2480   -1.9470 C   0  0  1  0  0  0  0  0  0  0  0  0
    2.5410   12.6520   -3.2790 C   0  0  0  0  0  0  0  0  0  0  0  0
    3.2110   13.9550   -1.2420 C   0  0  0  0  0  0  0  0  0  0  0  0
    2.8820   15.1150   -0.2840 C   0  0  0  0  0  0  0  0  0  0  0  0
    1.9250   16.1140   -0.9410 C   0  0  2  0  0  0  0  0  0  0  0  0
    2.6560   16.7310   -2.1830 C   0  0  0  0  0  0  0  0  0  0  0  0
    1.6749   20.4711    0.0846 H   0  0  0  0  0  0  0  0  0  0  0  0
    2.7926   19.9879   -1.2360 H   0  0  0  0  0  0  0  0  0  0  0  0
    1.0951   19.4004   -1.2360 H   0  0  0  0  0  0  0  0  0  0  0  0
    2.3497   18.7092    1.2708 H   0  0  0  0  0  0  0  0  0  0  0  0
    3.8077   16.9358   -0.4150 H   0  0  0  0  0  0  0  0  0  0  0  0
    4.1878   18.6521   -0.9179 H   0  0  0  0  0  0  0  0  0  0  0  0
    5.0452   17.1497    1.4486 H   0  0  0  0  0  0  0  0  0  0  0  0
    5.6891   18.6718    0.7037 H   0  0  0  0  0  0  0  0  0  0  0  0
    3.1723   18.7177    1.8268 H   0  0  0  0  0  0  0  0  0  0  0  0
    6.1587   18.2854    5.0042 H   0  0  0  0  0  0  0  0  0  0  0  0
    6.0327   17.3238    3.4923 H   0  0  0  0  0  0  0  0  0  0  0  0
    6.9209   18.8852    3.4923 H   0  0  0  0  0  0  0  0  0  0  0  0
    4.4184   19.2292    5.6496 H   0  0  0  0  0  0  0  0  0  0  0  0
    3.7018   20.5331    4.6431 H   0  0  0  0  0  0  0  0  0  0  0  0
    2.9690   18.8931    4.6431 H   0  0  0  0  0  0  0  0  0  0  0  0
    1.2683   16.9261    0.9784 H   0  0  0  0  0  0  0  0  0  0  0  0
   -0.6733   17.9290   -0.0542 H   0  0  0  0  0  0  0  0  0  0  0  0
    0.2975   18.6609   -1.3493 H   0  0  0  0  0  0  0  0  0  0  0  0
   -1.3556   16.3447   -1.6194 H   0  0  0  0  0  0  0  0  0  0  0  0
   -0.1263   16.8214   -2.7878 H   0  0  0  0  0  0  0  0  0  0  0  0
    0.3110   15.1658    0.8918 H   0  0  0  0  0  0  0  0  0  0  0  0
   -1.2188   15.1121   -0.0482 H   0  0  0  0  0  0  0  0  0  0  0  0
   -0.1144   13.6954   -0.0482 H   0  0  0  0  0  0  0  0  0  0  0  0
    1.2336   14.8581   -3.1938 H   0  0  0  0  0  0  0  0  0  0  0  0
   -1.2427   14.2464   -2.8252 H   0  0  0  0  0  0  0  0  0  0  0  0
   -0.1524   13.2090   -3.8859 H   0  0  0  0  0  0  0  0  0  0  0  0
   -1.7933   11.9150   -2.2833 H   0  0  0  0  0  0  0  0  0  0  0  0
    1.4849   12.5466   -0.0143 H   0  0  0  0  0  0  0  0  0  0  0  0
    2.3658   10.4074   -2.0506 H   0  0  0  0  0  0  0  0  0  0  0  0
    3.3823   11.1494   -0.7361 H   0  0  0  0  0  0  0  0  0  0  0  0
    2.5873    8.8834   -0.1394 H   0  0  0  0  0  0  0  0  0  0  0  0
    1.9555   10.1676    0.9642 H   0  0  0  0  0  0  0  0  0  0  0  0
    0.1761    8.6399    0.4613 H   0  0  0  0  0  0  0  0  0  0  0  0
    0.7710    7.7350   -1.4730 H   0  0  0  0  0  0  0  0  0  0  0  0
   -0.4329   10.2446    1.8014 H   0  0  0  0  0  0  0  0  0  0  0  0
   -0.0944   11.9146    1.2327 H   0  0  0  0  0  0  0  0  0  0  0  0
   -1.7786   11.2898    1.2327 H   0  0  0  0  0  0  0  0  0  0  0  0
   -2.5063    9.6907    0.0768 H   0  0  0  0  0  0  0  0  0  0  0  0
   -2.4265   10.6920   -1.4124 H   0  0  0  0  0  0  0  0  0  0  0  0
   -1.7523    9.0270   -1.4124 H   0  0  0  0  0  0  0  0  0  0  0  0
    3.2697   11.8594   -3.0536 H   0  0  0  0  0  0  0  0  0  0  0  0
    1.7088   12.2301   -3.8617 H   0  0  0  0  0  0  0  0  0  0  0  0
    3.0311   13.4459   -3.8617 H   0  0  0  0  0  0  0  0  0  0  0  0
    3.7511   13.1900   -0.6649 H   0  0  0  0  0  0  0  0  0  0  0  0
    3.7901   14.4116   -2.0582 H   0  0  0  0  0  0  0  0  0  0  0  0
    2.4113   14.7095    0.6238 H   0  0  0  0  0  0  0  0  0  0  0  0
    3.8165   15.6379   -0.0325 H   0  0  0  0  0  0  0  0  0  0  0  0
    3.4549   17.4053   -1.8407 H   0  0  0  0  0  0  0  0  0  0  0  0
    3.0923   15.9240   -2.7899 H   0  0  0  0  0  0  0  0  0  0  0  0
    1.9337   17.2967   -2.7899 H   0  0  0  0  0  0  0  0  0  0  0  0
  1  2  1  0
  2  3  1  0
  3  4  1  0
  4  5  1  0
  5  6  1  0
  6  7  1  0
  7  8  1  0
  7  9  1  0
  2 10  1  0
 10 11  1  0
 11 12  1  0
 12 13  1  0
 13 14  1  1
 13 15  1  0
 15 16  1  0
 16 17  1  0
 17 18  2  0
 18 19  1  0
 19 20  1  0
 20 21  1  0
 21 22  1  0
 22 23  1  0
 22 24  1  0
 24 25  1  0
 24 26  1  0
 19 27  1  0
 27 28  1  6
 27 29  1  0
 29 30  1  0
 30 31  1  0
 31 32  1  6
  7  5  1  0
 31 10  1  0
 31 13  1  0
 27 15  1  0
 24 18  1  0
  1 33  1  0
  1 34  1  0
  1 35  1  0
  2 36  1  1
  3 37  1  0
  3 38  1  0
  4 39  1  0
  4 40  1  0
  5 41  1  1
  8 42  1  0
  8 43  1  0
  8 44  1  0
  9 45  1  0
  9 46  1  0
  9 47  1  0
 10 48  1  1
 11 49  1  0
 11 50  1  0
 12 51  1  0
 12 52  1  0
 14 53  1  0
 14 54  1  0
 14 55  1  0
 15 56  1  6
 16 57  1  0
 16 58  1  0
 17 59  1  0
 19 60  1  1
 20 61  1  0
 20 62  1  0
 21 63  1  0
 21 64  1  0
 22 65  1  1
 23 66  1  0
 25 67  1  0
 25 68  1  0
 25 69  1  0
 26 70  1  0
 26 71  1  0
 26 72  1  0
 28 73  1  0
 28 74  1  0
 28 75  1  0
 29 76  1  0
 29 77  1  0
 30 78  1  0
 30 79  1  0
 32 80  1  0
 32 81  1  0
 32 82  1  0
M  END
>  <meeko>  (2) 
{"is_sidechain": [false], "intermolecular_energy": 2.731, "internal_energy": -0.839}

$$$$
EPH_relaxed_0001_pdb2pqr_Repair_133_r2_0001_out
     RDKit          3D

 82 86  0  0  0  0  0  0  0  0999 V2000
    0.4240   18.4200    0.0100 C   0  0  0  0  0  0  0  0  0  0  0  0
    1.5120   17.3670   -0.2230 C   0  0  2  0  0  0  0  0  0  0  0  0
    2.7190   17.9390   -0.9930 C   0  0  0  0  0  0  0  0  0  0  0  0
    3.9480   18.1860   -0.1150 C   0  0  0  0  0  0  0  0  0  0  0  0
    3.5650   18.6440    1.2600 C   0  0  2  0  0  0  0  0  0  0  0  0
    3.8190   20.0310    1.5210 O   0  0  0  0  0  0  0  0  0  0  0  0
    4.5710   19.0900    2.3040 C   0  0  0  0  0  0  0  0  0  0  0  0
    6.0400   19.0980    2.0190 C   0  0  0  0  0  0  0  0  0  0  0  0
    4.1710   19.0490    3.7460 C   0  0  0  0  0  0  0  0  0  0  0  0
    0.9300   16.1760   -0.9760 C   0  0  1  0  0  0  0  0  0  0  0  0
    0.7850   16.4450   -2.4980 C   0  0  0  0  0  0  0  0  0  0  0  0
    1.0670   15.1010   -3.2180 C   0  0  0  0  0  0  0  0  0  0  0  0
    1.0360   14.0410   -2.0920 C   0  0  1  0  0  0  0  0  0  0  0  0
   -0.4790   13.7450   -1.8620 C   0  0  0  0  0  0  0  0  0  0  0  0
    1.8470   12.7310   -2.3540 C   0  0  2  0  0  0  0  0  0  0  0  0
    1.3650   11.8930   -3.5510 C   0  0  0  0  0  0  0  0  0  0  0  0
    0.3370   10.8590   -3.2330 C   0  0  0  0  0  0  0  0  0  0  0  0
    0.0270   10.4170   -2.0000 C   0  0  0  0  0  0  0  0  0  0  0  0
    0.8110   10.8970   -0.7720 C   0  0  1  0  0  0  0  0  0  0  0  0
    1.1770    9.6800    0.1180 C   0  0  0  0  0  0  0  0  0  0  0  0
   -0.0430    8.8440    0.4940 C   0  0  0  0  0  0  0  0  0  0  0  0
   -0.7620    8.3360   -0.7530 C   0  0  2  0  0  0  0  0  0  0  0  0
    0.0880    7.4040   -1.4280 O   0  0  0  0  0  0  0  0  0  0  0  0
   -1.1710    9.4740   -1.7300 C   0  0  0  0  0  0  0  0  0  0  0  0
   -2.3160   10.3090   -1.1070 C   0  0  0  0  0  0  0  0  0  0  0  0
   -1.7580    8.8170   -3.0080 C   0  0  0  0  0  0  0  0  0  0  0  0
    2.0610   11.8330   -1.0690 C   0  0  1  0  0  0  0  0  0  0  0  0
    3.3250   10.9610   -1.3400 C   0  0  0  0  0  0  0  0  0  0  0  0
    2.3790   12.6890    0.2130 C   0  0  0  0  0  0  0  0  0  0  0  0
    1.6340   14.0300    0.3560 C   0  0  0  0  0  0  0  0  0  0  0  0
    1.7280   14.8500   -0.9350 C   0  0  2  0  0  0  0  0  0  0  0  0
    3.2400   15.1820   -1.1810 C   0  0  0  0  0  0  0  0  0  0  0  0
    0.2769   18.5623    1.0908 H   0  0  0  0  0  0  0  0  0  0  0  0
    0.7315   19.3723   -0.4467 H   0  0  0  0  0  0  0  0  0  0  0  0
   -0.5177   18.0815   -0.4467 H   0  0  0  0  0  0  0  0  0  0  0  0
    1.8744   17.0420    0.7634 H   0  0  0  0  0  0  0  0  0  0  0  0
    2.9952   17.2268   -1.7845 H   0  0  0  0  0  0  0  0  0  0  0  0
    2.4102   18.9150   -1.3956 H   0  0  0  0  0  0  0  0  0  0  0  0
    4.5207   17.2505   -0.0323 H   0  0  0  0  0  0  0  0  0  0  0  0
    4.5508   18.9775   -0.5842 H   0  0  0  0  0  0  0  0  0  0  0  0
    2.7364   17.9214    1.2955 H   0  0  0  0  0  0  0  0  0  0  0  0
    6.5975   19.1010    2.9673 H   0  0  0  0  0  0  0  0  0  0  0  0
    6.3061   18.2013    1.4401 H   0  0  0  0  0  0  0  0  0  0  0  0
    6.2963   19.9976    1.4401 H   0  0  0  0  0  0  0  0  0  0  0  0
    5.0668   19.1408    4.3778 H   0  0  0  0  0  0  0  0  0  0  0  0
    3.4846   19.8815    3.9599 H   0  0  0  0  0  0  0  0  0  0  0  0
    3.6677   18.0946    3.9599 H   0  0  0  0  0  0  0  0  0  0  0  0
   -0.0194   16.0603   -0.4326 H   0  0  0  0  0  0  0  0  0  0  0  0
   -0.2340   16.7906   -2.7263 H   0  0  0  0  0  0  0  0  0  0  0  0
    1.4853   17.2257   -2.8298 H   0  0  0  0  0  0  0  0  0  0  0  0
    0.2908   14.8925   -3.9690 H   0  0  0  0  0  0  0  0  0  0  0  0
    2.0261   15.1095   -3.7565 H   0  0  0  0  0  0  0  0  0  0  0  0
   -0.6849   13.7048   -0.7822 H   0  0  0  0  0  0  0  0  0  0  0  0
   -1.0822   14.5423   -2.3208 H   0  0  0  0  0  0  0  0  0  0  0  0
   -0.7377   12.7793   -2.3208 H   0  0  0  0  0  0  0  0  0  0  0  0
    2.8355   13.1196   -2.6403 H   0  0  0  0  0  0  0  0  0  0  0  0
    0.9371   12.5797   -4.2962 H   0  0  0  0  0  0  0  0  0  0  0  0
    2.2469   11.3439   -3.9127 H   0  0  0  0  0  0  0  0  0  0  0  0
   -0.2142   10.4208   -4.0781 H   0  0  0  0  0  0  0  0  0  0  0  0
    0.1346   11.5699   -0.2245 H   0  0  0  0  0  0  0  0  0  0  0  0
    1.8863    9.0425   -0.4302 H   0  0  0  0  0  0  0  0  0  0  0  0
    1.6174   10.0667    1.0489 H   0  0  0  0  0  0  0  0  0  0  0  0
    0.2823    7.9838    1.0975 H   0  0  0  0  0  0  0  0  0  0  0  0
   -0.7380    9.4753    1.0671 H   0  0  0  0  0  0  0  0  0  0  0  0
   -1.6949    7.8552   -0.4235 H   0  0  0  0  0  0  0  0  0  0  0  0
   -0.4810    6.7990   -1.9330 H   0  0  0  0  0  0  0  0  0  0  0  0
   -2.2500   10.2609   -0.0100 H   0  0  0  0  0  0  0  0  0  0  0  0
   -2.2266   11.3554   -1.4341 H   0  0  0  0  0  0  0  0  0  0  0  0
   -3.2850    9.9041   -1.4341 H   0  0  0  0  0  0  0  0  0  0  0  0
   -2.4655    8.0251   -2.7212 H   0  0  0  0  0  0  0  0  0  0  0  0
   -2.2820    9.5786   -3.6042 H   0  0  0  0  0  0  0  0  0  0  0  0
   -0.9425    8.3818   -3.6042 H   0  0  0  0  0  0  0  0  0  0  0  0
    3.7706   10.6536   -0.3824 H   0  0  0  0  0  0  0  0  0  0  0  0
    3.0380   10.0678   -1.9144 H   0  0  0  0  0  0  0  0  0  0  0  0
    4.0581   11.5464   -1.9144 H   0  0  0  0  0  0  0  0  0  0  0  0
    2.1319   12.0758    1.0922 H   0  0  0  0  0  0  0  0  0  0  0  0
    3.4416   12.9586    0.1225 H   0  0  0  0  0  0  0  0  0  0  0  0
    0.5755   13.8315    0.5799 H   0  0  0  0  0  0  0  0  0  0  0  0
    2.0988   14.6043    1.1709 H   0  0  0  0  0  0  0  0  0  0  0  0
    3.7527   15.2946   -0.2143 H   0  0  0  0  0  0  0  0  0  0  0  0
    3.7068   14.3650   -1.7507 H   0  0  0  0  0  0  0  0  0  0  0  0
    3.3216   16.1195   -1.7507 H   0  0  0  0  0  0  0  0  0  0  0  0
  1  2  1  0
  2  3  1  0
  3  4  1  0
  4  5  1  0
  5  6  1  0
  6  7  1  0
  7  8  1  0
  7  9  1  0
  2 10  1  0
 10 11  1  0
 11 12  1  0
 12 13  1  0
 13 14  1  1
 13 15  1  0
 15 16  1  0
 16 17  1  0
 17 18  2  0
 18 19  1  0
 19 20  1  0
 20 21  1  0
 21 22  1  0
 22 23  1  0
 22 24  1  0
 24 25  1  0
 24 26  1  0
 19 27  1  0
 27 28  1  6
 27 29  1  0
 29 30  1  0
 30 31  1  0
 31 32  1  6
  7  5  1  0
 31 10  1  0
 31 13  1  0
 27 15  1  0
 24 18  1  0
  1 33  1  0
  1 34  1  0
  1 35  1  0
  2 36  1  1
  3 37  1  0
  3 38  1  0
  4 39  1  0
  4 40  1  0
  5 41  1  1
  8 42  1  0
  8 43  1  0
  8 44  1  0
  9 45  1  0
  9 46  1  0
  9 47  1  0
 10 48  1  1
 11 49  1  0
 11 50  1  0
 12 51  1  0
 12 52  1  0
 14 53  1  0
 14 54  1  0
 14 55  1  0
 15 56  1  6
 16 57  1  0
 16 58  1  0
 17 59  1  0
 19 60  1  1
 20 61  1  0
 20 62  1  0
 21 63  1  0
 21 64  1  0
 22 65  1  1
 23 66  1  0
 25 67  1  0
 25 68  1  0
 25 69  1  0
 26 70  1  0
 26 71  1  0
 26 72  1  0
 28 73  1  0
 28 74  1  0
 28 75  1  0
 29 76  1  0
 29 77  1  0
 30 78  1  0
 30 79  1  0
 32 80  1  0
 32 81  1  0
 32 82  1  0
M  END
>  <meeko>  (3) 
{"is_sidechain": [false], "intermolecular_energy": 2.731, "internal_energy": -0.839}

$$$$
EPH_relaxed_0001_pdb2pqr_Repair_133_r2_0001_out
     RDKit          3D

 82 86  0  0  0  0  0  0  0  0999 V2000
    2.3330   18.0210   -2.6830 C   0  0  0  0  0  0  0  0  0  0  0  0
    1.0480   17.6250   -1.9500 C   0  0  2  0  0  0  0  0  0  0  0  0
    1.2170   17.6670   -0.4180 C   0  0  0  0  0  0  0  0  0  0  0  0
    0.8980   19.0310    0.1990 C   0  0  0  0  0  0  0  0  0  0  0  0
   -0.5450   19.1400    0.5870 C   0  0  2  0  0  0  0  0  0  0  0  0
   -1.4250   18.2590   -0.1240 O   0  0  0  0  0  0  0  0  0  0  0  0
   -1.6240   19.6650   -0.3420 C   0  0  0  0  0  0  0  0  0  0  0  0
   -1.3050   20.1170   -1.7320 C   0  0  0  0  0  0  0  0  0  0  0  0
   -2.8890   20.1940    0.2580 C   0  0  0  0  0  0  0  0  0  0  0  0
    0.6090   16.2320   -2.3880 C   0  0  1  0  0  0  0  0  0  0  0  0
    0.6920   16.0350   -3.9250 C   0  0  0  0  0  0  0  0  0  0  0  0
    1.1040   14.5600   -4.1650 C   0  0  0  0  0  0  0  0  0  0  0  0
    0.9220   13.8750   -2.7900 C   0  0  1  0  0  0  0  0  0  0  0  0
   -0.6050   13.5650   -2.6960 C   0  0  0  0  0  0  0  0  0  0  0  0
    1.7870   12.5990   -2.5340 C   0  0  2  0  0  0  0  0  0  0  0  0
    1.5080   11.4200   -3.4820 C   0  0  0  0  0  0  0  0  0  0  0  0
    0.4610   10.4610   -3.0170 C   0  0  0  0  0  0  0  0  0  0  0  0
   -0.0230   10.3810   -1.7640 C   0  0  0  0  0  0  0  0  0  0  0  0
    0.5560   11.2460   -0.6380 C   0  0  1  0  0  0  0  0  0  0  0  0
    0.8040   10.3670    0.6160 C   0  0  0  0  0  0  0  0  0  0  0  0
   -0.4430    9.6030    1.0500 C   0  0  0  0  0  0  0  0  0  0  0  0
   -0.9550    8.7090   -0.0770 C   0  0  2  0  0  0  0  0  0  0  0  0
    0.0040    7.6760   -0.3180 O   0  0  0  0  0  0  0  0  0  0  0  0
   -1.2310    9.4840   -1.3950 C   0  0  0  0  0  0  0  0  0  0  0  0
   -2.4730   10.3920   -1.2150 C   0  0  0  0  0  0  0  0  0  0  0  0
   -1.6060    8.4480   -2.4890 C   0  0  0  0  0  0  0  0  0  0  0  0
    1.8200   12.1300   -1.0230 C   0  0  1  0  0  0  0  0  0  0  0  0
    3.1260   11.2980   -0.8430 C   0  0  0  0  0  0  0  0  0  0  0  0
    1.9240   13.3420   -0.0230 C   0  0  0  0  0  0  0  0  0  0  0  0
    1.1420   14.6160   -0.3920 C   0  0  0  0  0  0  0  0  0  0  0  0
    1.4160   15.0280   -1.8420 C   0  0  2  0  0  0  0  0  0  0  0  0
    2.9410   15.3670   -1.9620 C   0  0  0  0  0  0  0  0  0  0  0  0
    3.1150   18.2620   -1.9479 H   0  0  0  0  0  0  0  0  0  0  0  0
    2.6680   17.1844   -3.3138 H   0  0  0  0  0  0  0  0  0  0  0  0
    2.1390   18.9010   -3.3138 H   0  0  0  0  0  0  0  0  0  0  0  0
    0.2743   18.3600   -2.2166 H   0  0  0  0  0  0  0  0  0  0  0  0
    0.5440   16.9189    0.0263 H   0  0  0  0  0  0  0  0  0  0  0  0
    2.2758   17.4577   -0.2055 H   0  0  0  0  0  0  0  0  0  0  0  0
    1.5197   19.1709    1.0956 H   0  0  0  0  0  0  0  0  0  0  0  0
    1.1103   19.8055   -0.5528 H   0  0  0  0  0  0  0  0  0  0  0  0
   -0.2716   19.3980    1.6208 H   0  0  0  0  0  0  0  0  0  0  0  0
   -0.6712   21.0150   -1.6892 H   0  0  0  0  0  0  0  0  0  0  0  0
   -0.7708   19.3163   -2.2644 H   0  0  0  0  0  0  0  0  0  0  0  0
   -2.2384   20.3520   -2.2644 H   0  0  0  0  0  0  0  0  0  0  0  0
   -2.8153   20.1632    1.3551 H   0  0  0  0  0  0  0  0  0  0  0  0
   -3.0442   21.2324   -0.0701 H   0  0  0  0  0  0  0  0  0  0  0  0
   -3.7372   19.5752   -0.0701 H   0  0  0  0  0  0  0  0  0  0  0  0
   -0.4099   16.2210   -1.9737 H   0  0  0  0  0  0  0  0  0  0  0  0
   -0.2866   16.2348   -4.3859 H   0  0  0  0  0  0  0  0  0  0  0  0
    1.4206   16.7266   -4.3731 H   0  0  0  0  0  0  0  0  0  0  0  0
    0.4545   14.0934   -4.9202 H   0  0  0  0  0  0  0  0  0  0  0  0
    2.1334   14.4707   -4.5424 H   0  0  0  0  0  0  0  0  0  0  0  0
   -0.9025   13.5046   -1.6387 H   0  0  0  0  0  0  0  0  0  0  0  0
   -1.1730   14.3662   -3.1915 H   0  0  0  0  0  0  0  0  0  0  0  0
   -0.8156   12.6058   -3.1915 H   0  0  0  0  0  0  0  0  0  0  0  0
    2.8001   12.9484   -2.7820 H   0  0  0  0  0  0  0  0  0  0  0  0
    1.1863   11.8312   -4.4502 H   0  0  0  0  0  0  0  0  0  0  0  0
    2.4443   10.8453   -3.5365 H   0  0  0  0  0  0  0  0  0  0  0  0
    0.0516    9.7619   -3.7611 H   0  0  0  0  0  0  0  0  0  0  0  0
   -0.2075   12.0060   -0.4156 H   0  0  0  0  0  0  0  0  0  0  0  0
    1.5997    9.6427    0.3873 H   0  0  0  0  0  0  0  0  0  0  0  0
    1.0905   11.0355    1.4413 H   0  0  0  0  0  0  0  0  0  0  0  0
   -0.1974    8.9785    1.9216 H   0  0  0  0  0  0  0  0  0  0  0  0
   -1.2283   10.3293    1.3063 H   0  0  0  0  0  0  0  0  0  0  0  0
   -1.9182    8.2881    0.2472 H   0  0  0  0  0  0  0  0  0  0  0  0
    0.7130    7.7730    0.3410 H   0  0  0  0  0  0  0  0  0  0  0  0
   -2.6697   10.5358   -0.1423 H   0  0  0  0  0  0  0  0  0  0  0  0
   -2.2856   11.3675   -1.6874 H   0  0  0  0  0  0  0  0  0  0  0  0
   -3.3457    9.9174   -1.6874 H   0  0  0  0  0  0  0  0  0  0  0  0
   -1.9433    7.5162   -2.0114 H   0  0  0  0  0  0  0  0  0  0  0  0
   -2.4147    8.8526   -3.1153 H   0  0  0  0  0  0  0  0  0  0  0  0
   -0.7257    8.2412   -3.1153 H   0  0  0  0  0  0  0  0  0  0  0  0
    3.3322   11.1667    0.2295 H   0  0  0  0  0  0  0  0  0  0  0  0
    3.0011   10.3126   -1.3157 H   0  0  0  0  0  0  0  0  0  0  0  0
    3.9662   11.8276   -1.3157 H   0  0  0  0  0  0  0  0  0  0  0  0
    1.5575   12.9983    0.9556 H   0  0  0  0  0  0  0  0  0  0  0  0
    2.9829   13.6393   -0.0404 H   0  0  0  0  0  0  0  0  0  0  0  0
    0.0656   14.4255   -0.2695 H   0  0  0  0  0  0  0  0  0  0  0  0
    1.4671   15.4311    0.2712 H   0  0  0  0  0  0  0  0  0  0  0  0
    3.3754   15.4636   -0.9560 H   0  0  0  0  0  0  0  0  0  0  0  0
    3.4540   14.5610   -2.5071 H   0  0  0  0  0  0  0  0  0  0  0  0
    3.0642   16.3145   -2.5071 H   0  0  0  0  0  0  0  0  0  0  0  0
  1  2  1  0
  2  3  1  0
  3  4  1  0
  4  5  1  0
  5  6  1  0
  6  7  1  0
  7  8  1  0
  7  9  1  0
  2 10  1  0
 10 11  1  0
 11 12  1  0
 12 13  1  0
 13 14  1  1
 13 15  1  0
 15 16  1  0
 16 17  1  0
 17 18  2  0
 18 19  1  0
 19 20  1  0
 20 21  1  0
 21 22  1  0
 22 23  1  0
 22 24  1  0
 24 25  1  0
 24 26  1  0
 19 27  1  0
 27 28  1  6
 27 29  1  0
 29 30  1  0
 30 31  1  0
 31 32  1  1
  7  5  1  0
 31 10  1  0
 31 13  1  0
 27 15  1  0
 24 18  1  0
  1 33  1  0
  1 34  1  0
  1 35  1  0
  2 36  1  1
  3 37  1  0
  3 38  1  0
  4 39  1  0
  4 40  1  0
  5 41  1  1
  8 42  1  0
  8 43  1  0
  8 44  1  0
  9 45  1  0
  9 46  1  0
  9 47  1  0
 10 48  1  1
 11 49  1  0
 11 50  1  0
 12 51  1  0
 12 52  1  0
 14 53  1  0
 14 54  1  0
 14 55  1  0
 15 56  1  6
 16 57  1  0
 16 58  1  0
 17 59  1  0
 19 60  1  1
 20 61  1  0
 20 62  1  0
 21 63  1  0
 21 64  1  0
 22 65  1  1
 23 66  1  0
 25 67  1  0
 25 68  1  0
 25 69  1  0
 26 70  1  0
 26 71  1  0
 26 72  1  0
 28 73  1  0
 28 74  1  0
 28 75  1  0
 29 76  1  0
 29 77  1  0
 30 78  1  0
 30 79  1  0
 32 80  1  0
 32 81  1  0
 32 82  1  0
M  END
>  <meeko>  (4) 
{"is_sidechain": [false], "intermolecular_energy": 2.731, "internal_energy": -0.839}

$$$$
EPH_relaxed_0001_pdb2pqr_Repair_133_r2_0001_out
     RDKit          3D

 82 86  0  0  0  0  0  0  0  0999 V2000
   -3.4650    9.3250    0.3830 C   0  0  0  0  0  0  0  0  0  0  0  0
   -2.5890    9.6870   -0.8190 C   0  0  2  0  0  0  0  0  0  0  0  0
   -1.8920    8.4520   -1.4230 C   0  0  0  0  0  0  0  0  0  0  0  0
   -2.7920    7.6270   -2.3460 C   0  0  0  0  0  0  0  0  0  0  0  0
   -4.2260    7.6810   -1.9150 C   0  0  2  0  0  0  0  0  0  0  0  0
   -4.7540    6.4390   -1.4320 O   0  0  0  0  0  0  0  0  0  0  0  0
   -5.3450    6.9530   -2.6360 C   0  0  0  0  0  0  0  0  0  0  0  0
   -5.0780    6.1180   -3.8500 C   0  0  0  0  0  0  0  0  0  0  0  0
   -6.7490    7.4410   -2.4580 C   0  0  0  0  0  0  0  0  0  0  0  0
   -1.5500   10.7250   -0.4110 C   0  0  1  0  0  0  0  0  0  0  0  0
   -0.4820   10.1520    0.5580 C   0  0  0  0  0  0  0  0  0  0  0  0
    0.8570   10.8530    0.2140 C   0  0  0  0  0  0  0  0  0  0  0  0
    0.4550   12.0320   -0.7040 C   0  0  1  0  0  0  0  0  0  0  0  0
   -0.0250   13.1520    0.2710 C   0  0  0  0  0  0  0  0  0  0  0  0
    1.5580   12.5520   -1.6830 C   0  0  2  0  0  0  0  0  0  0  0  0
    2.8130   13.1290   -1.0050 C   0  0  0  0  0  0  0  0  0  0  0  0
    2.7690   14.5940   -0.7230 C   0  0  0  0  0  0  0  0  0  0  0  0
    1.8910   15.4660   -1.2520 C   0  0  0  0  0  0  0  0  0  0  0  0
    0.8760   15.0180   -2.3120 C   0  0  1  0  0  0  0  0  0  0  0  0
    0.8610   16.0380   -3.4800 C   0  0  0  0  0  0  0  0  0  0  0  0
    0.6160   17.4670   -3.0050 C   0  0  0  0  0  0  0  0  0  0  0  0
    1.6790   17.8970   -1.9970 C   0  0  2  0  0  0  0  0  0  0  0  0
    2.9420   17.9780   -2.6650 O   0  0  0  0  0  0  0  0  0  0  0  0
    1.7930   16.9380   -0.7800 C   0  0  0  0  0  0  0  0  0  0  0  0
    0.5350   17.0780    0.1130 C   0  0  0  0  0  0  0  0  0  0  0  0
    2.9940   17.4050    0.0860 C   0  0  0  0  0  0  0  0  0  0  0  0
    1.0170   13.5170   -2.8140 C   0  0  1  0  0  0  0  0  0  0  0  0
    2.0390   13.4420   -3.9890 C   0  0  0  0  0  0  0  0  0  0  0  0
   -0.3650   13.0390   -3.3980 C   0  0  0  0  0  0  0  0  0  0  0  0
   -1.3660   12.4240   -2.4000 C   0  0  0  0  0  0  0  0  0  0  0  0
   -0.6910   11.3530   -1.5380 C   0  0  2  0  0  0  0  0  0  0  0  0
   -0.2170   10.2010   -2.4880 C   0  0  0  0  0  0  0  0  0  0  0  0
   -2.9222    9.5493    1.3131 H   0  0  0  0  0  0  0  0  0  0  0  0
   -4.3942    9.9128    0.3498 H   0  0  0  0  0  0  0  0  0  0  0  0
   -3.7081    8.2527    0.3498 H   0  0  0  0  0  0  0  0  0  0  0  0
   -3.2476   10.1054   -1.5943 H   0  0  0  0  0  0  0  0  0  0  0  0
   -1.0210    8.7933   -2.0017 H   0  0  0  0  0  0  0  0  0  0  0  0
   -1.6091    7.8001   -0.5834 H   0  0  0  0  0  0  0  0  0  0  0  0
   -2.7121    8.0231   -3.3691 H   0  0  0  0  0  0  0  0  0  0  0  0
   -2.4599    6.5793   -2.3019 H   0  0  0  0  0  0  0  0  0  0  0  0
   -4.1134    8.7267   -1.5928 H   0  0  0  0  0  0  0  0  0  0  0  0
   -4.7565    5.1127   -3.5401 H   0  0  0  0  0  0  0  0  0  0  0  0
   -5.9961    6.0404   -4.4508 H   0  0  0  0  0  0  0  0  0  0  0  0
   -4.2852    6.5875   -4.4508 H   0  0  0  0  0  0  0  0  0  0  0  0
   -6.9764    7.5200   -1.3847 H   0  0  0  0  0  0  0  0  0  0  0  0
   -6.8563    8.4291   -2.9293 H   0  0  0  0  0  0  0  0  0  0  0  0
   -7.4460    6.7324   -2.9293 H   0  0  0  0  0  0  0  0  0  0  0  0
   -2.2122   11.4867    0.0263 H   0  0  0  0  0  0  0  0  0  0  0  0
   -0.7636   10.3639    1.6000 H   0  0  0  0  0  0  0  0  0  0  0  0
   -0.3955    9.0608    0.4494 H   0  0  0  0  0  0  0  0  0  0  0  0
    1.3483   11.2213    1.1267 H   0  0  0  0  0  0  0  0  0  0  0  0
    1.5723   10.1720   -0.2703 H   0  0  0  0  0  0  0  0  0  0  0  0
    0.1175   12.8196    1.3099 H   0  0  0  0  0  0  0  0  0  0  0  0
    0.5601   14.0667    0.0952 H   0  0  0  0  0  0  0  0  0  0  0  0
   -1.0909   13.3591    0.0952 H   0  0  0  0  0  0  0  0  0  0  0  0
    1.8862   11.6279   -2.1813 H   0  0  0  0  0  0  0  0  0  0  0  0
    2.9552   12.6031   -0.0494 H   0  0  0  0  0  0  0  0  0  0  0  0
    3.6386   12.9808   -1.7167 H   0  0  0  0  0  0  0  0  0  0  0  0
    3.5175   14.9948   -0.0237 H   0  0  0  0  0  0  0  0  0  0  0  0
   -0.1036   15.0113   -1.8116 H   0  0  0  0  0  0  0  0  0  0  0  0
    1.8323   15.9991   -3.9948 H   0  0  0  0  0  0  0  0  0  0  0  0
    0.0353   15.7634   -4.1528 H   0  0  0  0  0  0  0  0  0  0  0  0
    0.6463   18.1444   -3.8711 H   0  0  0  0  0  0  0  0  0  0  0  0
   -0.3687   17.5106   -2.5167 H   0  0  0  0  0  0  0  0  0  0  0  0
    1.3771   18.8764   -1.5974 H   0  0  0  0  0  0  0  0  0  0  0  0
    3.6360   17.9740   -1.9840 H   0  0  0  0  0  0  0  0  0  0  0  0
    0.8314   17.0450    1.1718 H   0  0  0  0  0  0  0  0  0  0  0  0
    0.0395   18.0368   -0.0993 H   0  0  0  0  0  0  0  0  0  0  0  0
   -0.1592   16.2516   -0.0993 H   0  0  0  0  0  0  0  0  0  0  0  0
    2.7385   17.3056    1.1513 H   0  0  0  0  0  0  0  0  0  0  0  0
    3.8727   16.7830   -0.1399 H   0  0  0  0  0  0  0  0  0  0  0  0
    3.2217   18.4572   -0.1399 H   0  0  0  0  0  0  0  0  0  0  0  0
    3.0589   13.3672   -3.5837 H   0  0  0  0  0  0  0  0  0  0  0  0
    1.8239   12.5572   -4.6062 H   0  0  0  0  0  0  0  0  0  0  0  0
    1.9553   14.3487   -4.6062 H   0  0  0  0  0  0  0  0  0  0  0  0
   -0.8500   13.9109   -3.8611 H   0  0  0  0  0  0  0  0  0  0  0  0
   -0.1168   12.2251   -4.0951 H   0  0  0  0  0  0  0  0  0  0  0  0
   -1.7572   13.2180   -1.7469 H   0  0  0  0  0  0  0  0  0  0  0  0
   -2.1837   11.9548   -2.9668 H   0  0  0  0  0  0  0  0  0  0  0  0
    0.1332    9.3498   -1.8857 H   0  0  0  0  0  0  0  0  0  0  0  0
   -1.0563    9.8804   -3.1227 H   0  0  0  0  0  0  0  0  0  0  0  0
    0.6049   10.5639   -3.1227 H   0  0  0  0  0  0  0  0  0  0  0  0
  1  2  1  0
  2  3  1  0
  3  4  1  0
  4  5  1  0
  5  6  1  0
  6  7  1  0
  7  8  1  0
  7  9  1  0
  2 10  1  0
 10 11  1  0
 11 12  1  0
 12 13  1  0
 13 14  1  1
 13 15  1  0
 15 16  1  0
 16 17  1  0
 17 18  2  0
 18 19  1  0
 19 20  1  0
 20 21  1  0
 21 22  1  0
 22 23  1  0
 22 24  1  0
 24 25  1  0
 24 26  1  0
 19 27  1  0
 27 28  1  6
 27 29  1  0
 29 30  1  0
 30 31  1  0
 31 32  1  6
  7  5  1  0
 31 10  1  0
 31 13  1  0
 27 15  1  0
 24 18  1  0
  1 33  1  0
  1 34  1  0
  1 35  1  0
  2 36  1  6
  3 37  1  0
  3 38  1  0
  4 39  1  0
  4 40  1  0
  5 41  1  1
  8 42  1  0
  8 43  1  0
  8 44  1  0
  9 45  1  0
  9 46  1  0
  9 47  1  0
 10 48  1  1
 11 49  1  0
 11 50  1  0
 12 51  1  0
 12 52  1  0
 14 53  1  0
 14 54  1  0
 14 55  1  0
 15 56  1  6
 16 57  1  0
 16 58  1  0
 17 59  1  0
 19 60  1  1
 20 61  1  0
 20 62  1  0
 21 63  1  0
 21 64  1  0
 22 65  1  1
 23 66  1  0
 25 67  1  0
 25 68  1  0
 25 69  1  0
 26 70  1  0
 26 71  1  0
 26 72  1  0
 28 73  1  0
 28 74  1  0
 28 75  1  0
 29 76  1  0
 29 77  1  0
 30 78  1  0
 30 79  1  0
 32 80  1  0
 32 81  1  0
 32 82  1  0
M  END
>  <meeko>  (5) 
{"is_sidechain": [false], "intermolecular_energy": 2.731, "internal_energy": -0.839}

$$$$
EPH_relaxed_0001_pdb2pqr_Repair_133_r2_0001_out
     RDKit          3D

 82 86  0  0  0  0  0  0  0  0999 V2000
    3.6260   17.9690    0.8580 C   0  0  0  0  0  0  0  0  0  0  0  0
    2.6680   18.3550   -0.2730 C   0  0  2  0  0  0  0  0  0  0  0  0
    1.9240   19.6730    0.0200 C   0  0  0  0  0  0  0  0  0  0  0  0
    0.7690   19.5190    1.0130 C   0  0  0  0  0  0  0  0  0  0  0  0
   -0.4990   20.1190    0.4850 C   0  0  2  0  0  0  0  0  0  0  0  0
   -1.5680   20.1940    1.4380 O   0  0  0  0  0  0  0  0  0  0  0  0
   -1.7860   19.3330    0.3090 C   0  0  0  0  0  0  0  0  0  0  0  0
   -1.8670   17.8800    0.6580 C   0  0  0  0  0  0  0  0  0  0  0  0
   -2.8120   19.8470   -0.6520 C   0  0  0  0  0  0  0  0  0  0  0  0
    1.6650   17.2320   -0.5100 C   0  0  1  0  0  0  0  0  0  0  0  0
    0.4570   17.6820   -1.3730 C   0  0  0  0  0  0  0  0  0  0  0  0
    0.0520   16.4660   -2.2460 C   0  0  0  0  0  0  0  0  0  0  0  0
    0.8140   15.2710   -1.6260 C   0  0  1  0  0  0  0  0  0  0  0  0
   -0.0490   14.8380   -0.4000 C   0  0  0  0  0  0  0  0  0  0  0  0
    1.1050   14.0680   -2.5810 C   0  0  2  0  0  0  0  0  0  0  0  0
   -0.1430   13.3580   -3.1360 C   0  0  0  0  0  0  0  0  0  0  0  0
   -0.6480   12.2200   -2.3130 C   0  0  0  0  0  0  0  0  0  0  0  0
    0.0340   11.6020   -1.3310 C   0  0  0  0  0  0  0  0  0  0  0  0
    1.4910   11.9750   -1.0280 C   0  0  1  0  0  0  0  0  0  0  0  0
    2.3370   10.6840   -0.8780 C   0  0  0  0  0  0  0  0  0  0  0  0
    1.7560    9.7190    0.1510 C   0  0  0  0  0  0  0  0  0  0  0  0
    0.3270    9.3260   -0.2160 C   0  0  2  0  0  0  0  0  0  0  0  0
    0.3570    8.5520   -1.4200 O   0  0  0  0  0  0  0  0  0  0  0  0
   -0.6160   10.5470   -0.4020 C   0  0  0  0  0  0  0  0  0  0  0  0
   -0.8880   11.2090    0.9710 C   0  0  0  0  0  0  0  0  0  0  0  0
   -1.9860   10.0190   -0.9080 C   0  0  0  0  0  0  0  0  0  0  0  0
    2.1560   13.0300   -2.0140 C   0  0  1  0  0  0  0  0  0  0  0  0
    2.7660   12.2940   -3.2460 C   0  0  0  0  0  0  0  0  0  0  0  0
    3.3560   13.7350   -1.2790 C   0  0  0  0  0  0  0  0  0  0  0  0
    3.0230   14.9890   -0.4480 C   0  0  0  0  0  0  0  0  0  0  0  0
    2.1710   15.9720   -1.2570 C   0  0  2  0  0  0  0  0  0  0  0  0
    3.0220   16.4420   -2.4860 C   0  0  0  0  0  0  0  0  0  0  0  0
    3.1450   18.1628    1.8281 H   0  0  0  0  0  0  0  0  0  0  0  0
    3.8748   16.9004    0.7791 H   0  0  0  0  0  0  0  0  0  0  0  0
    4.5462   18.5666    0.7791 H   0  0  0  0  0  0  0  0  0  0  0  0
    3.2718   18.5118   -1.1790 H   0  0  0  0  0  0  0  0  0  0  0  0
    2.6443   20.3940    0.4340 H   0  0  0  0  0  0  0  0  0  0  0  0
    1.4880   20.0146   -0.9304 H   0  0  0  0  0  0  0  0  0  0  0  0
    0.6041   18.4485    1.2049 H   0  0  0  0  0  0  0  0  0  0  0  0
    1.0395   20.0480    1.9387 H   0  0  0  0  0  0  0  0  0  0  0  0
    0.0655   20.7731   -0.1957 H   0  0  0  0  0  0  0  0  0  0  0  0
   -1.8734   17.7655    1.7520 H   0  0  0  0  0  0  0  0  0  0  0  0
   -2.7903   17.4532    0.2393 H   0  0  0  0  0  0  0  0  0  0  0  0
   -0.9968   17.3533    0.2393 H   0  0  0  0  0  0  0  0  0  0  0  0
   -3.6587   20.2712   -0.0923 H   0  0  0  0  0  0  0  0  0  0  0  0
   -2.3634   20.6268   -1.2850 H   0  0  0  0  0  0  0  0  0  0  0  0
   -3.1680   19.0208   -1.2850 H   0  0  0  0  0  0  0  0  0  0  0  0
    1.4219   16.9795    0.5327 H   0  0  0  0  0  0  0  0  0  0  0  0
   -0.3811   17.9792   -0.7255 H   0  0  0  0  0  0  0  0  0  0  0  0
    0.7200   18.5472   -1.9993 H   0  0  0  0  0  0  0  0  0  0  0  0
   -1.0344   16.2998   -2.2006 H   0  0  0  0  0  0  0  0  0  0  0  0
    0.2991   16.6133   -3.3077 H   0  0  0  0  0  0  0  0  0  0  0  0
    0.4765   15.1016    0.5297 H   0  0  0  0  0  0  0  0  0  0  0  0
   -1.0187   15.3563   -0.4328 H   0  0  0  0  0  0  0  0  0  0  0  0
   -0.2131   13.7508   -0.4328 H   0  0  0  0  0  0  0  0  0  0  0  0
    1.5766   14.5610   -3.4439 H   0  0  0  0  0  0  0  0  0  0  0  0
   -0.9490   14.1020   -3.2181 H   0  0  0  0  0  0  0  0  0  0  0  0
    0.1573   12.9254   -4.1017 H   0  0  0  0  0  0  0  0  0  0  0  0
   -1.6635   11.8555   -2.5271 H   0  0  0  0  0  0  0  0  0  0  0  0
    1.4723   12.5207   -0.0731 H   0  0  0  0  0  0  0  0  0  0  0  0
    2.3804   10.1758   -1.8526 H   0  0  0  0  0  0  0  0  0  0  0  0
    3.3378   10.9796   -0.5301 H   0  0  0  0  0  0  0  0  0  0  0  0
    2.3800    8.8139    0.1884 H   0  0  0  0  0  0  0  0  0  0  0  0
    1.7424   10.2174    1.1315 H   0  0  0  0  0  0  0  0  0  0  0  0
   -0.0802    8.7414    0.6221 H   0  0  0  0  0  0  0  0  0  0  0  0
    0.1960    9.1580   -2.1630 H   0  0  0  0  0  0  0  0  0  0  0  0
   -0.6029   10.5151    1.7755 H   0  0  0  0  0  0  0  0  0  0  0  0
   -0.2964   12.1324    1.0565 H   0  0  0  0  0  0  0  0  0  0  0  0
   -1.9579   11.4498    1.0565 H   0  0  0  0  0  0  0  0  0  0  0  0
   -2.6248    9.7728   -0.0470 H   0  0  0  0  0  0  0  0  0  0  0  0
   -2.4748   10.7932   -1.5177 H   0  0  0  0  0  0  0  0  0  0  0  0
   -1.8288    9.1170   -1.5177 H   0  0  0  0  0  0  0  0  0  0  0  0
    3.4323   11.4901   -2.8999 H   0  0  0  0  0  0  0  0  0  0  0  0
    1.9565   11.8632   -3.8536 H   0  0  0  0  0  0  0  0  0  0  0  0
    3.3395   13.0095   -3.8536 H   0  0  0  0  0  0  0  0  0  0  0  0
    3.8100   12.9975   -0.6008 H   0  0  0  0  0  0  0  0  0  0  0  0
    4.0167   14.0905   -2.0834 H   0  0  0  0  0  0  0  0  0  0  0  0
    2.4673   14.6872    0.4521 H   0  0  0  0  0  0  0  0  0  0  0  0
    3.9642   15.4862   -0.1705 H   0  0  0  0  0  0  0  0  0  0  0  0
    3.9331   16.9452   -2.1302 H   0  0  0  0  0  0  0  0  0  0  0  0
    3.2993   15.5691   -3.0953 H   0  0  0  0  0  0  0  0  0  0  0  0
    2.4309   17.1416   -3.0953 H   0  0  0  0  0  0  0  0  0  0  0  0
  1  2  1  0
  2  3  1  0
  3  4  1  0
  4  5  1  0
  5  6  1  0
  6  7  1  0
  7  8  1  0
  7  9  1  0
  2 10  1  0
 10 11  1  0
 11 12  1  0
 12 13  1  0
 13 14  1  1
 13 15  1  0
 15 16  1  0
 16 17  1  0
 17 18  2  0
 18 19  1  0
 19 20  1  0
 20 21  1  0
 21 22  1  0
 22 23  1  0
 22 24  1  0
 24 25  1  0
 24 26  1  0
 19 27  1  0
 27 28  1  6
 27 29  1  0
 29 30  1  0
 30 31  1  0
 31 32  1  6
  7  5  1  0
 31 10  1  0
 31 13  1  0
 27 15  1  0
 24 18  1  0
  1 33  1  0
  1 34  1  0
  1 35  1  0
  2 36  1  6
  3 37  1  0
  3 38  1  0
  4 39  1  0
  4 40  1  0
  5 41  1  6
  8 42  1  0
  8 43  1  0
  8 44  1  0
  9 45  1  0
  9 46  1  0
  9 47  1  0
 10 48  1  1
 11 49  1  0
 11 50  1  0
 12 51  1  0
 12 52  1  0
 14 53  1  0
 14 54  1  0
 14 55  1  0
 15 56  1  6
 16 57  1  0
 16 58  1  0
 17 59  1  0
 19 60  1  1
 20 61  1  0
 20 62  1  0
 21 63  1  0
 21 64  1  0
 22 65  1  1
 23 66  1  0
 25 67  1  0
 25 68  1  0
 25 69  1  0
 26 70  1  0
 26 71  1  0
 26 72  1  0
 28 73  1  0
 28 74  1  0
 28 75  1  0
 29 76  1  0
 29 77  1  0
 30 78  1  0
 30 79  1  0
 32 80  1  0
 32 81  1  0
 32 82  1  0
M  END
>  <meeko>  (6) 
{"is_sidechain": [false], "intermolecular_energy": 2.731, "internal_energy": -0.839}

$$$$
EPH_relaxed_0001_pdb2pqr_Repair_133_r2_0001_out
     RDKit          3D

 82 86  0  0  0  0  0  0  0  0999 V2000
    3.2020   17.9110    0.5100 C   0  0  0  0  0  0  0  0  0  0  0  0
    3.0070   17.0520   -0.7420 C   0  0  2  0  0  0  0  0  0  0  0  0
    2.6260   17.8980   -1.9730 C   0  0  0  0  0  0  0  0  0  0  0  0
    1.8730   19.1850   -1.6270 C   0  0  0  0  0  0  0  0  0  0  0  0
    0.3880   18.9870   -1.6710 C   0  0  2  0  0  0  0  0  0  0  0  0
   -0.3730   20.1940   -1.8110 O   0  0  0  0  0  0  0  0  0  0  0  0
   -0.5530   19.4700   -0.5830 C   0  0  0  0  0  0  0  0  0  0  0  0
   -0.0440   20.1880    0.6270 C   0  0  0  0  0  0  0  0  0  0  0  0
   -1.8960   18.8200   -0.4580 C   0  0  0  0  0  0  0  0  0  0  0  0
    1.9400   15.9940   -0.4860 C   0  0  1  0  0  0  0  0  0  0  0  0
    0.5400   16.6100   -0.2240 C   0  0  0  0  0  0  0  0  0  0  0  0
   -0.4990   15.6390   -0.8410 C   0  0  0  0  0  0  0  0  0  0  0  0
    0.3020   14.3500   -1.1400 C   0  0  1  0  0  0  0  0  0  0  0  0
    0.3780   13.5990    0.2270 C   0  0  0  0  0  0  0  0  0  0  0  0
   -0.2640   13.4310   -2.2720 C   0  0  2  0  0  0  0  0  0  0  0  0
   -1.6610   12.8460   -2.0000 C   0  0  0  0  0  0  0  0  0  0  0  0
   -1.6750   11.5240   -1.3070 C   0  0  0  0  0  0  0  0  0  0  0  0
   -0.6180   10.7010   -1.1710 C   0  0  0  0  0  0  0  0  0  0  0  0
    0.7270   11.0300   -1.8320 C   0  0  1  0  0  0  0  0  0  0  0  0
    1.2750    9.7670   -2.5470 C   0  0  0  0  0  0  0  0  0  0  0  0
    1.3620    8.5600   -1.6180 C   0  0  0  0  0  0  0  0  0  0  0  0
   -0.0060    8.2290   -1.0260 C   0  0  2  0  0  0  0  0  0  0  0  0
   -0.8670    7.7810   -2.0770 O   0  0  0  0  0  0  0  0  0  0  0  0
   -0.6620    9.4290   -0.2880 C   0  0  0  0  0  0  0  0  0  0  0  0
    0.1110    9.7200    1.0220 C   0  0  0  0  0  0  0  0  0  0  0  0
   -2.0930    9.0040    0.1370 C   0  0  0  0  0  0  0  0  0  0  0  0
    0.7440   12.3160   -2.7660 C   0  0  1  0  0  0  0  0  0  0  0  0
    0.3060   11.9290   -4.2120 C   0  0  0  0  0  0  0  0  0  0  0  0
    2.2200   12.8510   -2.8770 C   0  0  0  0  0  0  0  0  0  0  0  0
    2.6820   13.8470   -1.7970 C   0  0  0  0  0  0  0  0  0  0  0  0
    1.6610   14.9760   -1.6200 C   0  0  2  0  0  0  0  0  0  0  0  0
    1.5790   15.7620   -2.9730 C   0  0  0  0  0  0  0  0  0  0  0  0
    3.0609   17.2896    1.4066 H   0  0  0  0  0  0  0  0  0  0  0  0
    4.2185   18.3315    0.5115 H   0  0  0  0  0  0  0  0  0  0  0  0
    2.4667   18.7292    0.5115 H   0  0  0  0  0  0  0  0  0  0  0  0
    3.9683   16.5644   -0.9616 H   0  0  0  0  0  0  0  0  0  0  0  0
    3.5487   18.1686   -2.5073 H   0  0  0  0  0  0  0  0  0  0  0  0
    1.9494   17.2852   -2.5868 H   0  0  0  0  0  0  0  0  0  0  0  0
    2.1602   19.5049   -0.6145 H   0  0  0  0  0  0  0  0  0  0  0  0
    2.1394   19.9491   -2.3721 H   0  0  0  0  0  0  0  0  0  0  0  0
    0.5091   18.0099   -2.1615 H   0  0  0  0  0  0  0  0  0  0  0  0
   -0.4043   19.6797    1.5336 H   0  0  0  0  0  0  0  0  0  0  0  0
    1.0560   20.1866    0.6185 H   0  0  0  0  0  0  0  0  0  0  0  0
   -0.4094   21.2255    0.6185 H   0  0  0  0  0  0  0  0  0  0  0  0
   -2.1470   18.6985    0.6061 H   0  0  0  0  0  0  0  0  0  0  0  0
   -2.6551   19.4504   -0.9441 H   0  0  0  0  0  0  0  0  0  0  0  0
   -1.8726   17.8335   -0.9441 H   0  0  0  0  0  0  0  0  0  0  0  0
    2.3911   15.4819    0.3767 H   0  0  0  0  0  0  0  0  0  0  0  0
    0.3675   16.7119    0.8576 H   0  0  0  0  0  0  0  0  0  0  0  0
    0.4592   17.6114   -0.6720 H   0  0  0  0  0  0  0  0  0  0  0  0
   -1.3113   15.4349   -0.1279 H   0  0  0  0  0  0  0  0  0  0  0  0
   -0.9741   16.0537   -1.7423 H   0  0  0  0  0  0  0  0  0  0  0  0
    0.3044   14.3259    1.0493 H   0  0  0  0  0  0  0  0  0  0  0  0
   -0.4520   12.8806    0.2973 H   0  0  0  0  0  0  0  0  0  0  0  0
    1.3351   13.0615    0.2973 H   0  0  0  0  0  0  0  0  0  0  0  0
   -0.3932   14.1362   -3.1062 H   0  0  0  0  0  0  0  0  0  0  0  0
   -2.2140   13.5630   -1.3754 H   0  0  0  0  0  0  0  0  0  0  0  0
   -2.1175   12.6772   -2.9865 H   0  0  0  0  0  0  0  0  0  0  0  0
   -2.6294   11.1943   -0.8706 H   0  0  0  0  0  0  0  0  0  0  0  0
    1.4046   11.3201   -1.0155 H   0  0  0  0  0  0  0  0  0  0  0  0
    0.6077    9.5191   -3.3856 H   0  0  0  0  0  0  0  0  0  0  0  0
    2.2936    9.9953   -2.8939 H   0  0  0  0  0  0  0  0  0  0  0  0
    1.7275    7.6927   -2.1874 H   0  0  0  0  0  0  0  0  0  0  0  0
    2.0527    8.7982   -0.7957 H   0  0  0  0  0  0  0  0  0  0  0  0
    0.1431    7.4420   -0.2720 H   0  0  0  0  0  0  0  0  0  0  0  0
   -1.7830    7.8700   -1.7650 H   0  0  0  0  0  0  0  0  0  0  0  0
   -0.5270    9.4798    1.8853 H   0  0  0  0  0  0  0  0  0  0  0  0
    1.0210    9.1029    1.0556 H   0  0  0  0  0  0  0  0  0  0  0  0
    0.3881   10.7840    1.0556 H   0  0  0  0  0  0  0  0  0  0  0  0
   -2.1588    8.9844    1.2349 H   0  0  0  0  0  0  0  0  0  0  0  0
   -2.8229    9.7241   -0.2613 H   0  0  0  0  0  0  0  0  0  0  0  0
   -2.3115    8.0022   -0.2613 H   0  0  0  0  0  0  0  0  0  0  0  0
   -0.5175   11.2014   -4.1633 H   0  0  0  0  0  0  0  0  0  0  0  0
   -0.0314   12.8294   -4.7463 H   0  0  0  0  0  0  0  0  0  0  0  0
    1.1580   11.4833   -4.7463 H   0  0  0  0  0  0  0  0  0  0  0  0
    2.8927   11.9816   -2.8372 H   0  0  0  0  0  0  0  0  0  0  0  0
    2.2507   13.4157   -3.8205 H   0  0  0  0  0  0  0  0  0  0  0  0
    2.7983   13.3139   -0.8419 H   0  0  0  0  0  0  0  0  0  0  0  0
    3.6401   14.2864   -2.1116 H   0  0  0  0  0  0  0  0  0  0  0  0
    1.4669   16.8366   -2.7666 H   0  0  0  0  0  0  0  0  0  0  0  0
    2.4996   15.5938   -3.5511 H   0  0  0  0  0  0  0  0  0  0  0  0
    0.7130   15.4074   -3.5511 H   0  0  0  0  0  0  0  0  0  0  0  0
  1  2  1  0
  2  3  1  0
  3  4  1  0
  4  5  1  0
  5  6  1  0
  6  7  1  0
  7  8  1  0
  7  9  1  0
  2 10  1  0
 10 11  1  0
 11 12  1  0
 12 13  1  0
 13 14  1  1
 13 15  1  0
 15 16  1  0
 16 17  1  0
 17 18  2  0
 18 19  1  0
 19 20  1  0
 20 21  1  0
 21 22  1  0
 22 23  1  0
 22 24  1  0
 24 25  1  0
 24 26  1  0
 19 27  1  0
 27 28  1  6
 27 29  1  0
 29 30  1  0
 30 31  1  0
 31 32  1  6
  7  5  1  0
 31 10  1  0
 31 13  1  0
 27 15  1  0
 24 18  1  0
  1 33  1  0
  1 34  1  0
  1 35  1  0
  2 36  1  6
  3 37  1  0
  3 38  1  0
  4 39  1  0
  4 40  1  0
  5 41  1  6
  8 42  1  0
  8 43  1  0
  8 44  1  0
  9 45  1  0
  9 46  1  0
  9 47  1  0
 10 48  1  1
 11 49  1  0
 11 50  1  0
 12 51  1  0
 12 52  1  0
 14 53  1  0
 14 54  1  0
 14 55  1  0
 15 56  1  6
 16 57  1  0
 16 58  1  0
 17 59  1  0
 19 60  1  1
 20 61  1  0
 20 62  1  0
 21 63  1  0
 21 64  1  0
 22 65  1  1
 23 66  1  0
 25 67  1  0
 25 68  1  0
 25 69  1  0
 26 70  1  0
 26 71  1  0
 26 72  1  0
 28 73  1  0
 28 74  1  0
 28 75  1  0
 29 76  1  0
 29 77  1  0
 30 78  1  0
 30 79  1  0
 32 80  1  0
 32 81  1  0
 32 82  1  0
M  END
>  <meeko>  (7) 
{"is_sidechain": [false], "intermolecular_energy": 2.731, "internal_energy": -0.839}

$$$$
EPH_relaxed_0001_pdb2pqr_Repair_133_r2_0001_out
     RDKit          3D

 82 86  0  0  0  0  0  0  0  0999 V2000
   -5.1640    5.8250   -1.7510 C   0  0  0  0  0  0  0  0  0  0  0  0
   -5.4580    7.3260   -1.8110 C   0  0  2  0  0  0  0  0  0  0  0  0
   -5.2320    8.0170   -0.4510 C   0  0  0  0  0  0  0  0  0  0  0  0
   -4.1990    9.1460   -0.4980 C   0  0  0  0  0  0  0  0  0  0  0  0
   -2.8290    8.6300   -0.8230 C   0  0  2  0  0  0  0  0  0  0  0  0
   -1.8210    8.9610    0.1400 O   0  0  0  0  0  0  0  0  0  0  0  0
   -1.6570    9.5290   -1.1700 C   0  0  0  0  0  0  0  0  0  0  0  0
   -1.8010   11.0180   -1.2100 C   0  0  0  0  0  0  0  0  0  0  0  0
   -0.5130    8.9470   -1.9400 C   0  0  0  0  0  0  0  0  0  0  0  0
   -6.8890    7.5570   -2.2810 C   0  0  1  0  0  0  0  0  0  0  0  0
   -7.1960    6.8540   -3.6310 C   0  0  0  0  0  0  0  0  0  0  0  0
   -8.6730    6.3880   -3.5670 C   0  0  0  0  0  0  0  0  0  0  0  0
   -9.2610    7.1210   -2.3380 C   0  0  1  0  0  0  0  0  0  0  0  0
   -9.6020    8.5550   -2.8520 C   0  0  0  0  0  0  0  0  0  0  0  0
  -10.4930    6.4440   -1.6540 C   0  0  2  0  0  0  0  0  0  0  0  0
  -11.7440    6.3190   -2.5400 C   0  0  0  0  0  0  0  0  0  0  0  0
  -12.6930    7.4700   -2.4700 C   0  0  0  0  0  0  0  0  0  0  0  0
  -12.6950    8.4250   -1.5220 C   0  0  0  0  0  0  0  0  0  0  0  0
  -11.7350    8.3520   -0.3280 C   0  0  1  0  0  0  0  0  0  0  0  0
  -12.5140    8.6440    0.9820 C   0  0  0  0  0  0  0  0  0  0  0  0
  -13.2770    9.9640    0.9270 C   0  0  0  0  0  0  0  0  0  0  0  0
  -14.2620    9.9760   -0.2390 C   0  0  2  0  0  0  0  0  0  0  0  0
  -15.2860    9.0080    0.0130 O   0  0  0  0  0  0  0  0  0  0  0  0
  -13.5930    9.6840   -1.6110 C   0  0  0  0  0  0  0  0  0  0  0  0
  -12.7070   10.8850   -2.0240 C   0  0  0  0  0  0  0  0  0  0  0  0
  -14.7150    9.5850   -2.6790 C   0  0  0  0  0  0  0  0  0  0  0  0
  -10.8490    7.0360   -0.2300 C   0  0  1  0  0  0  0  0  0  0  0  0
  -11.6320    5.9220    0.5310 C   0  0  0  0  0  0  0  0  0  0  0  0
   -9.5660    7.3420    0.6290 C   0  0  0  0  0  0  0  0  0  0  0  0
   -8.3420    7.8970   -0.1240 C   0  0  0  0  0  0  0  0  0  0  0  0
   -8.0300    7.0510   -1.3630 C   0  0  2  0  0  0  0  0  0  0  0  0
   -7.6610    5.6080   -0.8760 C   0  0  0  0  0  0  0  0  0  0  0  0
   -5.1014    5.5053   -0.7003 H   0  0  0  0  0  0  0  0  0  0  0  0
   -5.9711    5.2729   -2.2548 H   0  0  0  0  0  0  0  0  0  0  0  0
   -4.2083    5.6181   -2.2548 H   0  0  0  0  0  0  0  0  0  0  0  0
   -4.7543    7.7724   -2.5290 H   0  0  0  0  0  0  0  0  0  0  0  0
   -6.1903    8.4371   -0.1115 H   0  0  0  0  0  0  0  0  0  0  0  0
   -4.8414    7.2526    0.2368 H   0  0  0  0  0  0  0  0  0  0  0  0
   -4.4987    9.8718   -1.2683 H   0  0  0  0  0  0  0  0  0  0  0  0
   -4.1613    9.6183    0.4947 H   0  0  0  0  0  0  0  0  0  0  0  0
   -3.2543    7.7469   -1.3223 H   0  0  0  0  0  0  0  0  0  0  0  0
   -1.8390   11.4104   -0.1831 H   0  0  0  0  0  0  0  0  0  0  0  0
   -0.9410   11.4555   -1.7382 H   0  0  0  0  0  0  0  0  0  0  0  0
   -2.7289   11.2826   -1.7382 H   0  0  0  0  0  0  0  0  0  0  0  0
    0.2428    8.5625   -1.2393 H   0  0  0  0  0  0  0  0  0  0  0  0
   -0.8778    8.1249   -2.5733 H   0  0  0  0  0  0  0  0  0  0  0  0
   -0.0633    9.7259   -2.5733 H   0  0  0  0  0  0  0  0  0  0  0  0
   -6.8949    8.6564   -2.3182 H   0  0  0  0  0  0  0  0  0  0  0  0
   -7.0567    7.5578   -4.4648 H   0  0  0  0  0  0  0  0  0  0  0  0
   -6.5199    6.0020   -3.7953 H   0  0  0  0  0  0  0  0  0  0  0  0
   -9.2103    6.6738   -4.4833 H   0  0  0  0  0  0  0  0  0  0  0  0
   -8.7621    5.2949   -3.4826 H   0  0  0  0  0  0  0  0  0  0  0  0
   -9.7611    9.2240   -1.9935 H   0  0  0  0  0  0  0  0  0  0  0  0
   -8.7688    8.9335   -3.4624 H   0  0  0  0  0  0  0  0  0  0  0  0
  -10.5164    8.5179   -3.4624 H   0  0  0  0  0  0  0  0  0  0  0  0
  -10.1384    5.4153   -1.4926 H   0  0  0  0  0  0  0  0  0  0  0  0
  -11.4123    6.2150   -3.5836 H   0  0  0  0  0  0  0  0  0  0  0  0
  -12.2969    5.4455   -2.1642 H   0  0  0  0  0  0  0  0  0  0  0  0
  -13.4547    7.5433   -3.2602 H   0  0  0  0  0  0  0  0  0  0  0  0
  -10.9808    9.1349   -0.4964 H   0  0  0  0  0  0  0  0  0  0  0  0
  -13.2319    7.8286    1.1545 H   0  0  0  0  0  0  0  0  0  0  0  0
  -11.7799    8.7164    1.7980 H   0  0  0  0  0  0  0  0  0  0  0  0
  -13.8309   10.0992    1.8677 H   0  0  0  0  0  0  0  0  0  0  0  0
  -12.5548   10.7816    0.7852 H   0  0  0  0  0  0  0  0  0  0  0  0
  -14.6814   10.9907   -0.3054 H   0  0  0  0  0  0  0  0  0  0  0  0
  -15.1010    8.6020    0.8770 H   0  0  0  0  0  0  0  0  0  0  0  0
  -12.3330   11.3920   -1.1223 H   0  0  0  0  0  0  0  0  0  0  0  0
  -11.8566   10.5249   -2.6216 H   0  0  0  0  0  0  0  0  0  0  0  0
  -13.3021   11.5913   -2.6216 H   0  0  0  0  0  0  0  0  0  0  0  0
  -15.6909    9.4989   -2.1787 H   0  0  0  0  0  0  0  0  0  0  0  0
  -14.7036   10.4876   -3.3076 H   0  0  0  0  0  0  0  0  0  0  0  0
  -14.5457    8.6983   -3.3076 H   0  0  0  0  0  0  0  0  0  0  0  0
  -11.5251    6.0741    1.6152 H   0  0  0  0  0  0  0  0  0  0  0  0
  -12.6963    5.9696    0.2572 H   0  0  0  0  0  0  0  0  0  0  0  0
  -11.2267    4.9367    0.2572 H   0  0  0  0  0  0  0  0  0  0  0  0
   -9.8470    8.0787    1.3960 H   0  0  0  0  0  0  0  0  0  0  0  0
   -9.2438    6.3667    1.0226 H   0  0  0  0  0  0  0  0  0  0  0  0
   -8.5506    8.9306   -0.4373 H   0  0  0  0  0  0  0  0  0  0  0  0
   -7.4727    7.8666    0.5493 H   0  0  0  0  0  0  0  0  0  0  0  0
   -7.6545    5.5826    0.2237 H   0  0  0  0  0  0  0  0  0  0  0  0
   -8.4049    4.8917   -1.2549 H   0  0  0  0  0  0  0  0  0  0  0  0
   -6.6646    5.3367   -1.2549 H   0  0  0  0  0  0  0  0  0  0  0  0
  1  2  1  0
  2  3  1  0
  3  4  1  0
  4  5  1  0
  5  6  1  0
  6  7  1  0
  7  8  1  0
  7  9  1  0
  2 10  1  0
 10 11  1  0
 11 12  1  0
 12 13  1  0
 13 14  1  6
 13 15  1  0
 15 16  1  0
 16 17  1  0
 17 18  2  0
 18 19  1  0
 19 20  1  0
 20 21  1  0
 21 22  1  0
 22 23  1  0
 22 24  1  0
 24 25  1  0
 24 26  1  0
 19 27  1  0
 27 28  1  1
 27 29  1  0
 29 30  1  0
 30 31  1  0
 31 32  1  1
  7  5  1  0
 31 10  1  0
 31 13  1  0
 27 15  1  0
 24 18  1  0
  1 33  1  0
  1 34  1  0
  1 35  1  0
  2 36  1  6
  3 37  1  0
  3 38  1  0
  4 39  1  0
  4 40  1  0
  5 41  1  6
  8 42  1  0
  8 43  1  0
  8 44  1  0
  9 45  1  0
  9 46  1  0
  9 47  1  0
 10 48  1  6
 11 49  1  0
 11 50  1  0
 12 51  1  0
 12 52  1  0
 14 53  1  0
 14 54  1  0
 14 55  1  0
 15 56  1  1
 16 57  1  0
 16 58  1  0
 17 59  1  0
 19 60  1  6
 20 61  1  0
 20 62  1  0
 21 63  1  0
 21 64  1  0
 22 65  1  6
 23 66  1  0
 25 67  1  0
 25 68  1  0
 25 69  1  0
 26 70  1  0
 26 71  1  0
 26 72  1  0
 28 73  1  0
 28 74  1  0
 28 75  1  0
 29 76  1  0
 29 77  1  0
 30 78  1  0
 30 79  1  0
 32 80  1  0
 32 81  1  0
 32 82  1  0
M  END
>  <meeko>  (8) 
{"is_sidechain": [false], "intermolecular_energy": 2.731, "internal_energy": -0.839}

$$$$
EPH_relaxed_0001_pdb2pqr_Repair_133_r2_0001_out
     RDKit          3D

 82 86  0  0  0  0  0  0  0  0999 V2000
    0.4480    8.8010   -2.3710 C   0  0  0  0  0  0  0  0  0  0  0  0
    1.1850    9.9460   -3.0720 C   0  0  2  0  0  0  0  0  0  0  0  0
    2.6870    9.9670   -2.7250 C   0  0  0  0  0  0  0  0  0  0  0  0
    3.5590   10.6150   -3.8040 C   0  0  0  0  0  0  0  0  0  0  0  0
    4.9590   10.8460   -3.3220 C   0  0  2  0  0  0  0  0  0  0  0  0
    5.5690   12.0480   -3.8080 O   0  0  0  0  0  0  0  0  0  0  0  0
    6.1730   10.8150   -4.2310 C   0  0  0  0  0  0  0  0  0  0  0  0
    6.0430   10.5450   -5.6970 C   0  0  0  0  0  0  0  0  0  0  0  0
    7.5170   10.5620   -3.6220 C   0  0  0  0  0  0  0  0  0  0  0  0
    0.5450   11.2790   -2.7030 C   0  0  1  0  0  0  0  0  0  0  0  0
   -0.8300   11.1090   -2.0050 C   0  0  0  0  0  0  0  0  0  0  0  0
   -0.9450   12.2480   -0.9590 C   0  0  0  0  0  0  0  0  0  0  0  0
    0.2030   13.2210   -1.3140 C   0  0  1  0  0  0  0  0  0  0  0  0
   -0.3490   14.0790   -2.4950 C   0  0  0  0  0  0  0  0  0  0  0  0
    0.7350   14.1170   -0.1490 C   0  0  2  0  0  0  0  0  0  0  0  0
   -0.2950   15.0930    0.4460 C   0  0  0  0  0  0  0  0  0  0  0  0
   -0.3410   16.4400   -0.1940 C   0  0  0  0  0  0  0  0  0  0  0  0
    0.5990   16.9510   -1.0110 C   0  0  0  0  0  0  0  0  0  0  0  0
    1.9000   16.1870   -1.2880 C   0  0  1  0  0  0  0  0  0  0  0  0
    3.1060   17.1550   -1.1600 C   0  0  0  0  0  0  0  0  0  0  0  0
    2.9580   18.3930   -2.0380 C   0  0  0  0  0  0  0  0  0  0  0  0
    1.6820   19.1570   -1.6930 C   0  0  2  0  0  0  0  0  0  0  0  0
    1.8100   19.6960   -0.3730 O   0  0  0  0  0  0  0  0  0  0  0  0
    0.4010   18.2810   -1.7780 C   0  0  0  0  0  0  0  0  0  0  0  0
    0.0970   17.9480   -3.2600 C   0  0  0  0  0  0  0  0  0  0  0  0
   -0.7940   19.1320   -1.2710 C   0  0  0  0  0  0  0  0  0  0  0  0
    2.1050   14.8440   -0.4630 C   0  0  1  0  0  0  0  0  0  0  0  0
    2.7670   15.1600    0.9120 C   0  0  0  0  0  0  0  0  0  0  0  0
    3.1120   13.9140   -1.2380 C   0  0  0  0  0  0  0  0  0  0  0  0
    2.5110   12.9650   -2.2930 C   0  0  0  0  0  0  0  0  0  0  0  0
    1.3200   12.1910   -1.7190 C   0  0  2  0  0  0  0  0  0  0  0  0
    1.8500   11.3020   -0.5430 C   0  0  0  0  0  0  0  0  0  0  0  0
    0.5285    8.9260   -1.2811 H   0  0  0  0  0  0  0  0  0  0  0  0
   -0.6121    8.8134   -2.6642 H   0  0  0  0  0  0  0  0  0  0  0  0
    0.8983    7.8412   -2.6642 H   0  0  0  0  0  0  0  0  0  0  0  0
    1.0993    9.7811   -4.1562 H   0  0  0  0  0  0  0  0  0  0  0  0
    2.8192   10.5283   -1.7883 H   0  0  0  0  0  0  0  0  0  0  0  0
    3.0110    8.9196   -2.6360 H   0  0  0  0  0  0  0  0  0  0  0  0
    3.5892    9.9536   -4.6824 H   0  0  0  0  0  0  0  0  0  0  0  0
    3.1194   11.5905   -4.0593 H   0  0  0  0  0  0  0  0  0  0  0  0
    4.7382   10.3434   -2.3687 H   0  0  0  0  0  0  0  0  0  0  0  0
    5.5704    9.5633   -5.8485 H   0  0  0  0  0  0  0  0  0  0  0  0
    5.4223   11.3262   -6.1601 H   0  0  0  0  0  0  0  0  0  0  0  0
    7.0408   10.5470   -6.1601 H   0  0  0  0  0  0  0  0  0  0  0  0
    7.4316   10.5781   -2.5254 H   0  0  0  0  0  0  0  0  0  0  0  0
    7.8873    9.5784   -3.9465 H   0  0  0  0  0  0  0  0  0  0  0  0
    8.2196   11.3437   -3.9465 H   0  0  0  0  0  0  0  0  0  0  0  0
    0.5051   11.7461   -3.6981 H   0  0  0  0  0  0  0  0  0  0  0  0
   -1.6418   11.1891   -2.7429 H   0  0  0  0  0  0  0  0  0  0  0  0
   -0.9098   10.1225   -1.5249 H   0  0  0  0  0  0  0  0  0  0  0  0
   -1.9196   12.7517   -1.0389 H   0  0  0  0  0  0  0  0  0  0  0  0
   -0.8717   11.8753    0.0733 H   0  0  0  0  0  0  0  0  0  0  0  0
   -0.9033   14.9406   -2.0945 H   0  0  0  0  0  0  0  0  0  0  0  0
    0.4889   14.4365   -3.1115 H   0  0  0  0  0  0  0  0  0  0  0  0
   -1.0217   13.4646   -3.1115 H   0  0  0  0  0  0  0  0  0  0  0  0
    0.9392   13.3791    0.6408 H   0  0  0  0  0  0  0  0  0  0  0  0
   -1.2911   14.6365    0.3491 H   0  0  0  0  0  0  0  0  0  0  0  0
    0.0130   15.2619    1.4884 H   0  0  0  0  0  0  0  0  0  0  0  0
   -1.2176   17.0691    0.0200 H   0  0  0  0  0  0  0  0  0  0  0  0
    1.8232   15.8208   -2.3224 H   0  0  0  0  0  0  0  0  0  0  0  0
    3.1916   17.4749   -0.1110 H   0  0  0  0  0  0  0  0  0  0  0  0
    4.0045   16.6149   -1.4932 H   0  0  0  0  0  0  0  0  0  0  0  0
    3.8253   19.0513   -1.8813 H   0  0  0  0  0  0  0  0  0  0  0  0
    2.9027   18.0735   -3.0891 H   0  0  0  0  0  0  0  0  0  0  0  0
    1.5645   19.9567   -2.4391 H   0  0  0  0  0  0  0  0  0  0  0  0
    2.6940   19.4610   -0.0440 H   0  0  0  0  0  0  0  0  0  0  0  0
   -0.6439   17.1364   -3.3089 H   0  0  0  0  0  0  0  0  0  0  0  0
   -0.3038   18.8411   -3.7617 H   0  0  0  0  0  0  0  0  0  0  0  0
    1.0228   17.6300   -3.7617 H   0  0  0  0  0  0  0  0  0  0  0  0
   -0.8004   19.1365   -0.1710 H   0  0  0  0  0  0  0  0  0  0  0  0
   -0.6933   20.1629   -1.6413 H   0  0  0  0  0  0  0  0  0  0  0  0
   -1.7353   18.6997   -1.6413 H   0  0  0  0  0  0  0  0  0  0  0  0
    2.0970   14.8402    1.7237 H   0  0  0  0  0  0  0  0  0  0  0  0
    3.7225   14.6209    0.9914 H   0  0  0  0  0  0  0  0  0  0  0  0
    2.9487   16.2420    0.9914 H   0  0  0  0  0  0  0  0  0  0  0  0
    3.8380   14.5631   -1.7495 H   0  0  0  0  0  0  0  0  0  0  0  0
    3.5434   13.2546   -0.4705 H   0  0  0  0  0  0  0  0  0  0  0  0
    2.1735   13.5555   -3.1576 H   0  0  0  0  0  0  0  0  0  0  0  0
    3.2841   12.2441   -2.5974 H   0  0  0  0  0  0  0  0  0  0  0  0
    1.5754   11.7626    0.4174 H   0  0  0  0  0  0  0  0  0  0  0  0
    1.4019   10.2997   -0.6103 H   0  0  0  0  0  0  0  0  0  0  0  0
    2.9448   11.2195   -0.6103 H   0  0  0  0  0  0  0  0  0  0  0  0
  1  2  1  0
  2  3  1  0
  3  4  1  0
  4  5  1  0
  5  6  1  0
  6  7  1  0
  7  8  1  0
  7  9  1  0
  2 10  1  0
 10 11  1  0
 11 12  1  0
 12 13  1  0
 13 14  1  6
 13 15  1  0
 15 16  1  0
 16 17  1  0
 17 18  2  0
 18 19  1  0
 19 20  1  0
 20 21  1  0
 21 22  1  0
 22 23  1  0
 22 24  1  0
 24 25  1  0
 24 26  1  0
 19 27  1  0
 27 28  1  1
 27 29  1  0
 29 30  1  0
 30 31  1  0
 31 32  1  1
  7  5  1  0
 31 10  1  0
 31 13  1  0
 27 15  1  0
 24 18  1  0
  1 33  1  0
  1 34  1  0
  1 35  1  0
  2 36  1  6
  3 37  1  0
  3 38  1  0
  4 39  1  0
  4 40  1  0
  5 41  1  1
  8 42  1  0
  8 43  1  0
  8 44  1  0
  9 45  1  0
  9 46  1  0
  9 47  1  0
 10 48  1  6
 11 49  1  0
 11 50  1  0
 12 51  1  0
 12 52  1  0
 14 53  1  0
 14 54  1  0
 14 55  1  0
 15 56  1  1
 16 57  1  0
 16 58  1  0
 17 59  1  0
 19 60  1  6
 20 61  1  0
 20 62  1  0
 21 63  1  0
 21 64  1  0
 22 65  1  6
 23 66  1  0
 25 67  1  0
 25 68  1  0
 25 69  1  0
 26 70  1  0
 26 71  1  0
 26 72  1  0
 28 73  1  0
 28 74  1  0
 28 75  1  0
 29 76  1  0
 29 77  1  0
 30 78  1  0
 30 79  1  0
 32 80  1  0
 32 81  1  0
 32 82  1  0
M  END
>  <meeko>  (9) 
{"is_sidechain": [false], "intermolecular_energy": 2.731, "internal_energy": -0.839}

$$$$
EPH_relaxed_0001_pdb2pqr_Repair_133_r2_0001_out
     RDKit          3D

 82 86  0  0  0  0  0  0  0  0999 V2000
   -4.0330    7.3870   -3.6090 C   0  0  0  0  0  0  0  0  0  0  0  0
   -3.6480    7.2790   -2.1310 C   0  0  2  0  0  0  0  0  0  0  0  0
   -4.8240    6.7950   -1.2590 C   0  0  0  0  0  0  0  0  0  0  0  0
   -6.0990    6.5000   -2.0530 C   0  0  0  0  0  0  0  0  0  0  0  0
   -7.2870    6.3380   -1.1540 C   0  0  2  0  0  0  0  0  0  0  0  0
   -8.3750    5.5990   -1.7270 O   0  0  0  0  0  0  0  0  0  0  0  0
   -8.6350    6.9800   -1.4250 C   0  0  0  0  0  0  0  0  0  0  0  0
   -8.8640    7.8340   -2.6330 C   0  0  0  0  0  0  0  0  0  0  0  0
   -9.5760    7.1790   -0.2780 C   0  0  0  0  0  0  0  0  0  0  0  0
   -3.1440    8.6250   -1.6250 C   0  0  1  0  0  0  0  0  0  0  0  0
   -3.8210    9.0560   -0.2970 C   0  0  0  0  0  0  0  0  0  0  0  0
   -2.7480    9.8140    0.5270 C   0  0  0  0  0  0  0  0  0  0  0  0
   -1.6040   10.0840   -0.4780 C   0  0  1  0  0  0  0  0  0  0  0  0
   -2.0610   11.3440   -1.2780 C   0  0  0  0  0  0  0  0  0  0  0  0
   -0.1780   10.2750    0.1340 C   0  0  2  0  0  0  0  0  0  0  0  0
   -0.0270   11.4840    1.0730 C   0  0  0  0  0  0  0  0  0  0  0  0
    0.3920   12.7560    0.4130 C   0  0  0  0  0  0  0  0  0  0  0  0
    0.9120   12.8610   -0.8240 C   0  0  0  0  0  0  0  0  0  0  0  0
    1.2170   11.6100   -1.6590 C   0  0  1  0  0  0  0  0  0  0  0  0
    2.6310   11.7370   -2.2840 C   0  0  0  0  0  0  0  0  0  0  0  0
    2.8050   13.0270   -3.0800 C   0  0  0  0  0  0  0  0  0  0  0  0
    2.5510   14.2490   -2.2010 C   0  0  2  0  0  0  0  0  0  0  0  0
    3.5790   14.3250   -1.2090 O   0  0  0  0  0  0  0  0  0  0  0  0
    1.1590   14.2270   -1.5100 C   0  0  0  0  0  0  0  0  0  0  0  0
    0.0490   14.4480   -2.5670 C   0  0  0  0  0  0  0  0  0  0  0  0
    1.0860   15.4410   -0.5440 C   0  0  0  0  0  0  0  0  0  0  0  0
    0.9950   10.2170   -0.9270 C   0  0  1  0  0  0  0  0  0  0  0  0
    2.2840    9.8170   -0.1440 C   0  0  0  0  0  0  0  0  0  0  0  0
    0.7680    9.0970   -2.0100 C   0  0  0  0  0  0  0  0  0  0  0  0
   -0.6800    8.8750   -2.4870 C   0  0  0  0  0  0  0  0  0  0  0  0
   -1.6350    8.7420   -1.2960 C   0  0  2  0  0  0  0  0  0  0  0  0
   -1.2130    7.4690   -0.4850 C   0  0  0  0  0  0  0  0  0  0  0  0
   -5.0891    7.6833   -3.6921 H   0  0  0  0  0  0  0  0  0  0  0  0
   -3.4007    8.1424   -4.0984 H   0  0  0  0  0  0  0  0  0  0  0  0
   -3.8858    6.4129   -4.0984 H   0  0  0  0  0  0  0  0  0  0  0  0
   -2.8472    6.5290   -2.0517 H   0  0  0  0  0  0  0  0  0  0  0  0
   -4.5165    5.8744   -0.7415 H   0  0  0  0  0  0  0  0  0  0  0  0
   -5.0623    7.6102   -0.5600 H   0  0  0  0  0  0  0  0  0  0  0  0
   -6.2877    7.3327   -2.7465 H   0  0  0  0  0  0  0  0  0  0  0  0
   -5.9518    5.5570   -2.5999 H   0  0  0  0  0  0  0  0  0  0  0  0
   -6.6414    6.3259   -0.2635 H   0  0  0  0  0  0  0  0  0  0  0  0
   -9.1368    8.8515   -2.3163 H   0  0  0  0  0  0  0  0  0  0  0  0
   -7.9442    7.8716   -3.2351 H   0  0  0  0  0  0  0  0  0  0  0  0
   -9.6792    7.4064   -3.2351 H   0  0  0  0  0  0  0  0  0  0  0  0
   -9.0290    7.0633    0.6693 H   0  0  0  0  0  0  0  0  0  0  0  0
  -10.0094    8.1887   -0.3302 H   0  0  0  0  0  0  0  0  0  0  0  0
  -10.3811    6.4312   -0.3302 H   0  0  0  0  0  0  0  0  0  0  0  0
   -3.3889    9.2516   -2.4953 H   0  0  0  0  0  0  0  0  0  0  0  0
   -4.6757    9.7166   -0.5046 H   0  0  0  0  0  0  0  0  0  0  0  0
   -4.1989    8.1829    0.2551 H   0  0  0  0  0  0  0  0  0  0  0  0
   -3.1537   10.7592    0.9168 H   0  0  0  0  0  0  0  0  0  0  0  0
   -2.4088    9.2381    1.4006 H   0  0  0  0  0  0  0  0  0  0  0  0
   -2.3496   12.1397   -0.5754 H   0  0  0  0  0  0  0  0  0  0  0  0
   -1.2334   11.6964   -1.9112 H   0  0  0  0  0  0  0  0  0  0  0  0
   -2.9221   11.0839   -1.9112 H   0  0  0  0  0  0  0  0  0  0  0  0
   -0.0749    9.3861    0.7737 H   0  0  0  0  0  0  0  0  0  0  0  0
   -0.9971   11.6581    1.5615 H   0  0  0  0  0  0  0  0  0  0  0  0
    0.7797   11.2253    1.7747 H   0  0  0  0  0  0  0  0  0  0  0  0
    0.2650   13.6862    0.9863 H   0  0  0  0  0  0  0  0  0  0  0  0
    0.4586   11.5829   -2.4553 H   0  0  0  0  0  0  0  0  0  0  0  0
    3.3768   11.7181   -1.4757 H   0  0  0  0  0  0  0  0  0  0  0  0
    2.7658   10.8950   -2.9789 H   0  0  0  0  0  0  0  0  0  0  0  0
    3.8319   13.0725   -3.4718 H   0  0  0  0  0  0  0  0  0  0  0  0
    2.0779   13.0310   -3.9054 H   0  0  0  0  0  0  0  0  0  0  0  0
    2.5634   15.1339   -2.8543 H   0  0  0  0  0  0  0  0  0  0  0  0
    4.0900   15.1350   -1.3770 H   0  0  0  0  0  0  0  0  0  0  0  0
   -0.9081   14.6385   -2.0593 H   0  0  0  0  0  0  0  0  0  0  0  0
    0.3087   15.3121   -3.1962 H   0  0  0  0  0  0  0  0  0  0  0  0
   -0.0421   13.5504   -3.1962 H   0  0  0  0  0  0  0  0  0  0  0  0
    1.1075   15.0837    0.4961 H   0  0  0  0  0  0  0  0  0  0  0  0
    1.9459   16.1034   -0.7220 H   0  0  0  0  0  0  0  0  0  0  0  0
    0.1529   15.9956   -0.7220 H   0  0  0  0  0  0  0  0  0  0  0  0
    2.0899    9.8772    0.9371 H   0  0  0  0  0  0  0  0  0  0  0  0
    2.5692    8.7881   -0.4085 H   0  0  0  0  0  0  0  0  0  0  0  0
    3.1016   10.5037   -0.4085 H   0  0  0  0  0  0  0  0  0  0  0  0
    1.3722    9.3589   -2.8912 H   0  0  0  0  0  0  0  0  0  0  0  0
    1.0557    8.1570   -1.5165 H   0  0  0  0  0  0  0  0  0  0  0  0
   -0.9910    9.7310   -3.1039 H   0  0  0  0  0  0  0  0  0  0  0  0
   -0.7178    7.9447   -3.0727 H   0  0  0  0  0  0  0  0  0  0  0  0
   -1.2831    7.6806    0.5922 H   0  0  0  0  0  0  0  0  0  0  0  0
   -1.8824    6.6339   -0.7390 H   0  0  0  0  0  0  0  0  0  0  0  0
   -0.1773    7.1991   -0.7390 H   0  0  0  0  0  0  0  0  0  0  0  0
  1  2  1  0
  2  3  1  0
  3  4  1  0
  4  5  1  0
  5  6  1  0
  6  7  1  0
  7  8  1  0
  7  9  1  0
  2 10  1  0
 10 11  1  0
 11 12  1  0
 12 13  1  0
 13 14  1  6
 13 15  1  0
 15 16  1  0
 16 17  1  0
 17 18  2  0
 18 19  1  0
 19 20  1  0
 20 21  1  0
 21 22  1  0
 22 23  1  0
 22 24  1  0
 24 25  1  0
 24 26  1  0
 19 27  1  0
 27 28  1  1
 27 29  1  0
 29 30  1  0
 30 31  1  0
 31 32  1  1
  7  5  1  0
 31 10  1  0
 31 13  1  0
 27 15  1  0
 24 18  1  0
  1 33  1  0
  1 34  1  0
  1 35  1  0
  2 36  1  6
  3 37  1  0
  3 38  1  0
  4 39  1  0
  4 40  1  0
  5 41  1  1
  8 42  1  0
  8 43  1  0
  8 44  1  0
  9 45  1  0
  9 46  1  0
  9 47  1  0
 10 48  1  6
 11 49  1  0
 11 50  1  0
 12 51  1  0
 12 52  1  0
 14 53  1  0
 14 54  1  0
 14 55  1  0
 15 56  1  1
 16 57  1  0
 16 58  1  0
 17 59  1  0
 19 60  1  6
 20 61  1  0
 20 62  1  0
 21 63  1  0
 21 64  1  0
 22 65  1  6
 23 66  1  0
 25 67  1  0
 25 68  1  0
 25 69  1  0
 26 70  1  0
 26 71  1  0
 26 72  1  0
 28 73  1  0
 28 74  1  0
 28 75  1  0
 29 76  1  0
 29 77  1  0
 30 78  1  0
 30 79  1  0
 32 80  1  0
 32 81  1  0
 32 82  1  0
M  END
>  <meeko>  (10) 
{"is_sidechain": [false], "intermolecular_energy": 2.731, "internal_energy": -0.839}

$$$$
EPH_relaxed_0001_pdb2pqr_Repair_133_r2_0001_out
     RDKit          3D

 82 86  0  0  0  0  0  0  0  0999 V2000
    3.4280   18.7070   -1.8340 C   0  0  0  0  0  0  0  0  0  0  0  0
    1.9220   18.7250   -1.5580 C   0  0  2  0  0  0  0  0  0  0  0  0
    1.5260   19.8430   -0.5740 C   0  0  0  0  0  0  0  0  0  0  0  0
    1.6810   19.4520    0.8980 C   0  0  0  0  0  0  0  0  0  0  0  0
    2.8280   20.1680    1.5440 C   0  0  2  0  0  0  0  0  0  0  0  0
    4.0360   20.1820    0.7730 O   0  0  0  0  0  0  0  0  0  0  0  0
    4.0880   19.4710    2.0210 C   0  0  0  0  0  0  0  0  0  0  0  0
    4.2660   17.9920    1.8720 C   0  0  0  0  0  0  0  0  0  0  0  0
    4.9270   20.1430    3.0630 C   0  0  0  0  0  0  0  0  0  0  0  0
    1.4770   17.3720   -1.0160 C   0  0  1  0  0  0  0  0  0  0  0  0
    0.2150   17.4740   -0.1180 C   0  0  0  0  0  0  0  0  0  0  0  0
   -0.6140   16.1870   -0.3630 C   0  0  0  0  0  0  0  0  0  0  0  0
    0.3450   15.2450   -1.1280 C   0  0  1  0  0  0  0  0  0  0  0  0
    1.2460   14.6060   -0.0250 C   0  0  0  0  0  0  0  0  0  0  0  0
   -0.3270   14.1560   -2.0270 C   0  0  2  0  0  0  0  0  0  0  0  0
   -1.1940   13.1330   -1.2730 C   0  0  0  0  0  0  0  0  0  0  0  0
   -0.4780   11.9080   -0.8100 C   0  0  0  0  0  0  0  0  0  0  0  0
    0.7350   11.5040   -1.2330 C   0  0  0  0  0  0  0  0  0  0  0  0
    1.4720   12.2580   -2.3470 C   0  0  1  0  0  0  0  0  0  0  0  0
    2.0290   11.2420   -3.3790 C   0  0  0  0  0  0  0  0  0  0  0  0
    2.8950   10.1660   -2.7310 C   0  0  0  0  0  0  0  0  0  0  0  0
    2.1100    9.4000   -1.6690 C   0  0  2  0  0  0  0  0  0  0  0  0
    1.0720    8.6530   -2.3130 O   0  0  0  0  0  0  0  0  0  0  0  0
    1.4920   10.3210   -0.5810 C   0  0  0  0  0  0  0  0  0  0  0  0
    2.6170   10.8980    0.3130 C   0  0  0  0  0  0  0  0  0  0  0  0
    0.6100    9.4400    0.3460 C   0  0  0  0  0  0  0  0  0  0  0  0
    0.6650   13.4430   -3.0330 C   0  0  1  0  0  0  0  0  0  0  0  0
   -0.2070   12.8880   -4.2000 C   0  0  0  0  0  0  0  0  0  0  0  0
    1.6860   14.4510   -3.6820 C   0  0  0  0  0  0  0  0  0  0  0  0
    2.2230   15.5760   -2.7760 C   0  0  0  0  0  0  0  0  0  0  0  0
    1.0780   16.2880   -2.0490 C   0  0  2  0  0  0  0  0  0  0  0  0
    0.1670   16.9590   -3.1330 C   0  0  0  0  0  0  0  0  0  0  0  0
    3.9756   18.7005   -0.8800 H   0  0  0  0  0  0  0  0  0  0  0  0
    3.6844   17.8057   -2.4101 H   0  0  0  0  0  0  0  0  0  0  0  0
    3.7059   19.6019   -2.4101 H   0  0  0  0  0  0  0  0  0  0  0  0
    1.4129   18.9290   -2.5115 H   0  0  0  0  0  0  0  0  0  0  0  0
    2.1623   20.7188   -0.7694 H   0  0  0  0  0  0  0  0  0  0  0  0
    0.4591   20.0534   -0.7396 H   0  0  0  0  0  0  0  0  0  0  0  0
    0.7547   19.7065    1.4339 H   0  0  0  0  0  0  0  0  0  0  0  0
    1.8804   18.3713    0.9465 H   0  0  0  0  0  0  0  0  0  0  0  0
    2.1409   20.8698    2.0393 H   0  0  0  0  0  0  0  0  0  0  0  0
    4.3219   17.5273    2.8674 H   0  0  0  0  0  0  0  0  0  0  0  0
    3.4117   17.5737    1.3195 H   0  0  0  0  0  0  0  0  0  0  0  0
    5.1951   17.7883    1.3195 H   0  0  0  0  0  0  0  0  0  0  0  0
    4.5691   19.8563    4.0629 H   0  0  0  0  0  0  0  0  0  0  0  0
    5.9757   19.8322    2.9459 H   0  0  0  0  0  0  0  0  0  0  0  0
    4.8527   21.2342    2.9459 H   0  0  0  0  0  0  0  0  0  0  0  0
    2.3964   17.0720   -0.4919 H   0  0  0  0  0  0  0  0  0  0  0  0
    0.5076   17.5403    0.9403 H   0  0  0  0  0  0  0  0  0  0  0  0
   -0.3706   18.3730   -0.3607 H   0  0  0  0  0  0  0  0  0  0  0  0
   -0.9219   15.7358    0.5918 H   0  0  0  0  0  0  0  0  0  0  0  0
   -1.5385   16.3869   -0.9246 H   0  0  0  0  0  0  0  0  0  0  0  0
    0.8599   14.8798    0.9679 H   0  0  0  0  0  0  0  0  0  0  0  0
    1.2369   13.5113   -0.1328 H   0  0  0  0  0  0  0  0  0  0  0  0
    2.2761   14.9765   -0.1328 H   0  0  0  0  0  0  0  0  0  0  0  0
   -1.0253   14.7498   -2.6351 H   0  0  0  0  0  0  0  0  0  0  0  0
   -1.6185   13.6327   -0.3898 H   0  0  0  0  0  0  0  0  0  0  0  0
   -1.9523   12.7887   -1.9916 H   0  0  0  0  0  0  0  0  0  0  0  0
   -0.9838   11.2823   -0.0599 H   0  0  0  0  0  0  0  0  0  0  0  0
    2.3030   12.7873   -1.8578 H   0  0  0  0  0  0  0  0  0  0  0  0
    1.1832   10.7555   -3.8869 H   0  0  0  0  0  0  0  0  0  0  0  0
    2.6609   11.7977   -4.0874 H   0  0  0  0  0  0  0  0  0  0  0  0
    3.2342    9.4622   -3.5054 H   0  0  0  0  0  0  0  0  0  0  0  0
    3.7561   10.6517   -2.2488 H   0  0  0  0  0  0  0  0  0  0  0  0
    2.8169    8.7345   -1.1519 H   0  0  0  0  0  0  0  0  0  0  0  0
    0.2880    9.2240   -2.3660 H   0  0  0  0  0  0  0  0  0  0  0  0
    2.3506   10.7614    1.3715 H   0  0  0  0  0  0  0  0  0  0  0  0
    3.5597   10.3721    0.1013 H   0  0  0  0  0  0  0  0  0  0  0  0
    2.7399   11.9704    0.1013 H   0  0  0  0  0  0  0  0  0  0  0  0
    0.8397    9.6694    1.3970 H   0  0  0  0  0  0  0  0  0  0  0  0
   -0.4518    9.6488    0.1487 H   0  0  0  0  0  0  0  0  0  0  0  0
    0.8176    8.3779    0.1487 H   0  0  0  0  0  0  0  0  0  0  0  0
   -1.0670   12.3406   -3.7868 H   0  0  0  0  0  0  0  0  0  0  0  0
   -0.5669   13.7236   -4.8183 H   0  0  0  0  0  0  0  0  0  0  0  0
    0.3976   12.2082   -4.8183 H   0  0  0  0  0  0  0  0  0  0  0  0
    2.5492   13.8684   -4.0362 H   0  0  0  0  0  0  0  0  0  0  0  0
    1.1201   14.9642   -4.4734 H   0  0  0  0  0  0  0  0  0  0  0  0
    2.9076   15.1429   -2.0319 H   0  0  0  0  0  0  0  0  0  0  0  0
    2.7504   16.3098   -3.4032 H   0  0  0  0  0  0  0  0  0  0  0  0
   -0.6239   17.5415   -2.6378 H   0  0  0  0  0  0  0  0  0  0  0  0
    0.7753   17.6264   -3.7611 H   0  0  0  0  0  0  0  0  0  0  0  0
   -0.2900   16.1801   -3.7611 H   0  0  0  0  0  0  0  0  0  0  0  0
  1  2  1  0
  2  3  1  0
  3  4  1  0
  4  5  1  0
  5  6  1  0
  6  7  1  0
  7  8  1  0
  7  9  1  0
  2 10  1  0
 10 11  1  0
 11 12  1  0
 12 13  1  0
 13 14  1  1
 13 15  1  0
 15 16  1  0
 16 17  1  0
 17 18  2  0
 18 19  1  0
 19 20  1  0
 20 21  1  0
 21 22  1  0
 22 23  1  0
 22 24  1  0
 24 25  1  0
 24 26  1  0
 19 27  1  0
 27 28  1  6
 27 29  1  0
 29 30  1  0
 30 31  1  0
 31 32  1  6
  7  5  1  0
 31 10  1  0
 31 13  1  0
 27 15  1  0
 24 18  1  0
  1 33  1  0
  1 34  1  0
  1 35  1  0
  2 36  1  6
  3 37  1  0
  3 38  1  0
  4 39  1  0
  4 40  1  0
  5 41  1  1
  8 42  1  0
  8 43  1  0
  8 44  1  0
  9 45  1  0
  9 46  1  0
  9 47  1  0
 10 48  1  1
 11 49  1  0
 11 50  1  0
 12 51  1  0
 12 52  1  0
 14 53  1  0
 14 54  1  0
 14 55  1  0
 15 56  1  6
 16 57  1  0
 16 58  1  0
 17 59  1  0
 19 60  1  1
 20 61  1  0
 20 62  1  0
 21 63  1  0
 21 64  1  0
 22 65  1  1
 23 66  1  0
 25 67  1  0
 25 68  1  0
 25 69  1  0
 26 70  1  0
 26 71  1  0
 26 72  1  0
 28 73  1  0
 28 74  1  0
 28 75  1  0
 29 76  1  0
 29 77  1  0
 30 78  1  0
 30 79  1  0
 32 80  1  0
 32 81  1  0
 32 82  1  0
M  END
>  <meeko>  (11) 
{"is_sidechain": [false], "intermolecular_energy": 2.731, "internal_energy": -0.839}

$$$$
EPH_relaxed_0001_pdb2pqr_Repair_133_r2_0001_out
     RDKit          3D

 82 86  0  0  0  0  0  0  0  0999 V2000
    0.5720   18.4930   -2.7430 C   0  0  0  0  0  0  0  0  0  0  0  0
    0.7900   17.6690   -1.4710 C   0  0  2  0  0  0  0  0  0  0  0  0
    1.9190   18.2430   -0.5930 C   0  0  0  0  0  0  0  0  0  0  0  0
    1.4170   19.0770    0.5880 C   0  0  0  0  0  0  0  0  0  0  0  0
    0.1890   19.8590    0.2330 C   0  0  2  0  0  0  0  0  0  0  0  0
   -0.6520   20.1920    1.3450 O   0  0  0  0  0  0  0  0  0  0  0  0
   -1.2190   19.3110    0.3620 C   0  0  0  0  0  0  0  0  0  0  0  0
   -1.4730   17.9230    0.8630 C   0  0  0  0  0  0  0  0  0  0  0  0
   -2.3090   19.9360   -0.4520 C   0  0  0  0  0  0  0  0  0  0  0  0
    1.0980   16.2210   -1.8360 C   0  0  1  0  0  0  0  0  0  0  0  0
    2.5350   16.0390   -2.3920 C   0  0  0  0  0  0  0  0  0  0  0  0
    3.0320   14.6550   -1.9020 C   0  0  0  0  0  0  0  0  0  0  0  0
    1.7630   13.9510   -1.3690 C   0  0  1  0  0  0  0  0  0  0  0  0
    1.0530   13.3870   -2.6390 C   0  0  0  0  0  0  0  0  0  0  0  0
    1.9890   12.8400   -0.2920 C   0  0  2  0  0  0  0  0  0  0  0  0
    2.8110   11.6290   -0.7680 C   0  0  0  0  0  0  0  0  0  0  0  0
    2.0160   10.5080   -1.3510 C   0  0  0  0  0  0  0  0  0  0  0  0
    0.6850   10.3480   -1.2320 C   0  0  0  0  0  0  0  0  0  0  0  0
   -0.1480   11.3010   -0.3660 C   0  0  1  0  0  0  0  0  0  0  0  0
   -1.1120   10.4780    0.5290 C   0  0  0  0  0  0  0  0  0  0  0  0
   -1.9780    9.5140   -0.2770 C   0  0  0  0  0  0  0  0  0  0  0  0
   -1.1140    8.5460   -1.0800 C   0  0  2  0  0  0  0  0  0  0  0  0
   -0.4160    7.6890   -0.1710 O   0  0  0  0  0  0  0  0  0  0  0  0
   -0.0950    9.2610   -2.0110 C   0  0  0  0  0  0  0  0  0  0  0  0
   -0.8490    9.9450   -3.1780 C   0  0  0  0  0  0  0  0  0  0  0  0
    0.8070    8.1740   -2.6550 C   0  0  0  0  0  0  0  0  0  0  0  0
    0.6720   12.3850    0.4580 C   0  0  1  0  0  0  0  0  0  0  0  0
    1.1220   11.7870    1.8250 C   0  0  0  0  0  0  0  0  0  0  0  0
   -0.2740   13.5990    0.7940 C   0  0  0  0  0  0  0  0  0  0  0  0
   -0.3630   14.7220   -0.2570 C   0  0  0  0  0  0  0  0  0  0  0  0
    1.0330   15.1720   -0.6990 C   0  0  2  0  0  0  0  0  0  0  0  0
    1.7630   15.7650    0.5540 C   0  0  0  0  0  0  0  0  0  0  0  0
    0.2994   19.5232   -2.4703 H   0  0  0  0  0  0  0  0  0  0  0  0
    1.4982   18.5036   -3.3363 H   0  0  0  0  0  0  0  0  0  0  0  0
   -0.2383   18.0442   -3.3363 H   0  0  0  0  0  0  0  0  0  0  0  0
   -0.1392   17.7148   -0.8841 H   0  0  0  0  0  0  0  0  0  0  0  0
    2.5125   17.4049   -0.1988 H   0  0  0  0  0  0  0  0  0  0  0  0
    2.5125   18.9143   -1.2311 H   0  0  0  0  0  0  0  0  0  0  0  0
    1.1810   18.4035    1.4251 H   0  0  0  0  0  0  0  0  0  0  0  0
    2.2082   19.7890    0.8655 H   0  0  0  0  0  0  0  0  0  0  0  0
    0.7155   20.3516   -0.5977 H   0  0  0  0  0  0  0  0  0  0  0  0
   -1.4727   17.9244    1.9630 H   0  0  0  0  0  0  0  0  0  0  0  0
   -2.4499   17.5741    0.4970 H   0  0  0  0  0  0  0  0  0  0  0  0
   -0.6830   17.2508    0.4970 H   0  0  0  0  0  0  0  0  0  0  0  0
   -3.0651   20.3696    0.2190 H   0  0  0  0  0  0  0  0  0  0  0  0
   -1.8846   20.7280   -1.0866 H   0  0  0  0  0  0  0  0  0  0  0  0
   -2.7781   19.1697   -1.0866 H   0  0  0  0  0  0  0  0  0  0  0  0
    0.2926   16.0381   -2.5625 H   0  0  0  0  0  0  0  0  0  0  0  0
    2.5224   16.0695   -3.4915 H   0  0  0  0  0  0  0  0  0  0  0  0
    3.1987   16.8435   -2.0423 H   0  0  0  0  0  0  0  0  0  0  0  0
    3.4727   14.0843   -2.7327 H   0  0  0  0  0  0  0  0  0  0  0  0
    3.8149   14.7409   -1.1341 H   0  0  0  0  0  0  0  0  0  0  0  0
    0.2253   12.7295   -2.3348 H   0  0  0  0  0  0  0  0  0  0  0  0
    0.6580   14.2202   -3.2387 H   0  0  0  0  0  0  0  0  0  0  0  0
    1.7753   12.8137   -3.2387 H   0  0  0  0  0  0  0  0  0  0  0  0
    2.6161   13.3555    0.4503 H   0  0  0  0  0  0  0  0  0  0  0  0
    3.5184   11.9785   -1.5344 H   0  0  0  0  0  0  0  0  0  0  0  0
    3.2994   11.2212    0.1293 H   0  0  0  0  0  0  0  0  0  0  0  0
    2.5647    9.7482   -1.9268 H   0  0  0  0  0  0  0  0  0  0  0  0
   -0.7261   11.9214   -1.0666 H   0  0  0  0  0  0  0  0  0  0  0  0
   -0.5161    9.8986    1.2496 H   0  0  0  0  0  0  0  0  0  0  0  0
   -1.7836   11.1862    1.0363 H   0  0  0  0  0  0  0  0  0  0  0  0
   -2.6156    8.9407    0.4121 H   0  0  0  0  0  0  0  0  0  0  0  0
   -2.5948   10.0972   -0.9766 H   0  0  0  0  0  0  0  0  0  0  0  0
   -1.7850    7.9698   -1.7341 H   0  0  0  0  0  0  0  0  0  0  0  0
   -0.8770    7.7280    0.6840 H   0  0  0  0  0  0  0  0  0  0  0  0
   -1.6064   10.6320   -2.7726 H   0  0  0  0  0  0  0  0  0  0  0  0
   -0.1347   10.5096   -3.7952 H   0  0  0  0  0  0  0  0  0  0  0  0
   -1.3416    9.1792   -3.7952 H   0  0  0  0  0  0  0  0  0  0  0  0
    1.2948    7.5862   -1.8635 H   0  0  0  0  0  0  0  0  0  0  0  0
    0.1915    7.5093   -3.2789 H   0  0  0  0  0  0  0  0  0  0  0  0
    1.5739    8.6563   -3.2789 H   0  0  0  0  0  0  0  0  0  0  0  0
    0.6809   12.3732    2.6446 H   0  0  0  0  0  0  0  0  0  0  0  0
    0.7837   10.7428    1.8976 H   0  0  0  0  0  0  0  0  0  0  0  0
    2.2190   11.8229    1.8976 H   0  0  0  0  0  0  0  0  0  0  0  0
   -1.2884   13.1997    0.9410 H   0  0  0  0  0  0  0  0  0  0  0  0
    0.1688   14.0714    1.6832 H   0  0  0  0  0  0  0  0  0  0  0  0
   -0.9158   14.3519   -1.1330 H   0  0  0  0  0  0  0  0  0  0  0  0
   -0.8826   15.5815    0.1916 H   0  0  0  0  0  0  0  0  0  0  0  0
    1.2901   15.3808    1.4698 H   0  0  0  0  0  0  0  0  0  0  0  0
    2.8220   15.4681    0.5360 H   0  0  0  0  0  0  0  0  0  0  0  0
    1.6895   16.8624    0.5360 H   0  0  0  0  0  0  0  0  0  0  0  0
  1  2  1  0
  2  3  1  0
  3  4  1  0
  4  5  1  0
  5  6  1  0
  6  7  1  0
  7  8  1  0
  7  9  1  0
  2 10  1  0
 10 11  1  0
 11 12  1  0
 12 13  1  0
 13 14  1  6
 13 15  1  0
 15 16  1  0
 16 17  1  0
 17 18  2  0
 18 19  1  0
 19 20  1  0
 20 21  1  0
 21 22  1  0
 22 23  1  0
 22 24  1  0
 24 25  1  0
 24 26  1  0
 19 27  1  0
 27 28  1  1
 27 29  1  0
 29 30  1  0
 30 31  1  0
 31 32  1  1
  7  5  1  0
 31 10  1  0
 31 13  1  0
 27 15  1  0
 24 18  1  0
  1 33  1  0
  1 34  1  0
  1 35  1  0
  2 36  1  1
  3 37  1  0
  3 38  1  0
  4 39  1  0
  4 40  1  0
  5 41  1  6
  8 42  1  0
  8 43  1  0
  8 44  1  0
  9 45  1  0
  9 46  1  0
  9 47  1  0
 10 48  1  6
 11 49  1  0
 11 50  1  0
 12 51  1  0
 12 52  1  0
 14 53  1  0
 14 54  1  0
 14 55  1  0
 15 56  1  1
 16 57  1  0
 16 58  1  0
 17 59  1  0
 19 60  1  6
 20 61  1  0
 20 62  1  0
 21 63  1  0
 21 64  1  0
 22 65  1  6
 23 66  1  0
 25 67  1  0
 25 68  1  0
 25 69  1  0
 26 70  1  0
 26 71  1  0
 26 72  1  0
 28 73  1  0
 28 74  1  0
 28 75  1  0
 29 76  1  0
 29 77  1  0
 30 78  1  0
 30 79  1  0
 32 80  1  0
 32 81  1  0
 32 82  1  0
M  END
>  <meeko>  (12) 
{"is_sidechain": [false], "intermolecular_energy": 2.731, "internal_energy": -0.839}

$$$$
EPH_relaxed_0001_pdb2pqr_Repair_133_r2_0001_out
     RDKit          3D

 82 86  0  0  0  0  0  0  0  0999 V2000
    2.9470   18.3750   -3.2860 C   0  0  0  0  0  0  0  0  0  0  0  0
    2.1120   18.1290   -2.0260 C   0  0  2  0  0  0  0  0  0  0  0  0
    2.4150   19.1590   -0.9180 C   0  0  0  0  0  0  0  0  0  0  0  0
    3.6770   18.8420   -0.1110 C   0  0  0  0  0  0  0  0  0  0  0  0
    3.4150   18.8820    1.3640 C   0  0  2  0  0  0  0  0  0  0  0  0
    3.1970   20.1940    1.8980 O   0  0  0  0  0  0  0  0  0  0  0  0
    4.3690   19.5070    2.3660 C   0  0  0  0  0  0  0  0  0  0  0  0
    5.6560   20.1340    1.9310 C   0  0  0  0  0  0  0  0  0  0  0  0
    4.2840   19.0780    3.7970 C   0  0  0  0  0  0  0  0  0  0  0  0
    2.3600   16.7180   -1.5060 C   0  0  1  0  0  0  0  0  0  0  0  0
    2.9890   16.7050   -0.0870 C   0  0  0  0  0  0  0  0  0  0  0  0
    2.4050   15.4730    0.6500 C   0  0  0  0  0  0  0  0  0  0  0  0
    1.7260   14.6380   -0.4620 C   0  0  1  0  0  0  0  0  0  0  0  0
    2.8890   13.8430   -1.1330 C   0  0  0  0  0  0  0  0  0  0  0  0
    0.5680   13.6920   -0.0060 C   0  0  2  0  0  0  0  0  0  0  0  0
    0.9800   12.5820    0.9760 C   0  0  0  0  0  0  0  0  0  0  0  0
    1.4040   11.2970    0.3440 C   0  0  0  0  0  0  0  0  0  0  0  0
    1.1830   10.9450   -0.9360 C   0  0  0  0  0  0  0  0  0  0  0  0
    0.3570   11.8410   -1.8680 C   0  0  1  0  0  0  0  0  0  0  0  0
   -0.6710   10.9740   -2.6420 C   0  0  0  0  0  0  0  0  0  0  0  0
   -0.0170    9.8100   -3.3800 C   0  0  0  0  0  0  0  0  0  0  0  0
    0.7460    8.9100   -2.4110 C   0  0  2  0  0  0  0  0  0  0  0  0
   -0.1910    8.2700   -1.5400 O   0  0  0  0  0  0  0  0  0  0  0  0
    1.8050    9.6750   -1.5690 C   0  0  0  0  0  0  0  0  0  0  0  0
    2.9790   10.1110   -2.4790 C   0  0  0  0  0  0  0  0  0  0  0  0
    2.4020    8.6820   -0.5350 C   0  0  0  0  0  0  0  0  0  0  0  0
   -0.3060   13.1180   -1.1950 C   0  0  1  0  0  0  0  0  0  0  0  0
   -1.6910   12.7400   -0.5870 C   0  0  0  0  0  0  0  0  0  0  0  0
   -0.5880   14.1980   -2.3060 C   0  0  0  0  0  0  0  0  0  0  0  0
    0.5550   15.1790   -2.6260 C   0  0  0  0  0  0  0  0  0  0  0  0
    1.1270   15.7930   -1.3450 C   0  0  2  0  0  0  0  0  0  0  0  0
   -0.0150   16.6180   -0.6590 C   0  0  0  0  0  0  0  0  0  0  0  0
    3.9654   18.6750   -2.9982 H   0  0  0  0  0  0  0  0  0  0  0  0
    2.9915   17.4518   -3.8824 H   0  0  0  0  0  0  0  0  0  0  0  0
    2.4839   19.1749   -3.8824 H   0  0  0  0  0  0  0  0  0  0  0  0
    1.0536   18.2432   -2.3029 H   0  0  0  0  0  0  0  0  0  0  0  0
    2.5414   20.1461   -1.3867 H   0  0  0  0  0  0  0  0  0  0  0  0
    1.5692   19.1331   -0.2152 H   0  0  0  0  0  0  0  0  0  0  0  0
    4.0313   17.8368   -0.3832 H   0  0  0  0  0  0  0  0  0  0  0  0
    4.4351   19.6036   -0.3459 H   0  0  0  0  0  0  0  0  0  0  0  0
    2.9228   17.8989    1.3274 H   0  0  0  0  0  0  0  0  0  0  0  0
    6.2424   20.4197    2.8167 H   0  0  0  0  0  0  0  0  0  0  0  0
    6.2292   19.4142    1.3283 H   0  0  0  0  0  0  0  0  0  0  0  0
    5.4425   21.0291    1.3283 H   0  0  0  0  0  0  0  0  0  0  0  0
    4.4559   19.9458    4.4508 H   0  0  0  0  0  0  0  0  0  0  0  0
    3.2858   18.6610    3.9961 H   0  0  0  0  0  0  0  0  0  0  0  0
    5.0478   18.3119    3.9961 H   0  0  0  0  0  0  0  0  0  0  0  0
    3.0135   16.3393   -2.3057 H   0  0  0  0  0  0  0  0  0  0  0  0
    4.0834   16.6199   -0.1586 H   0  0  0  0  0  0  0  0  0  0  0  0
    2.7600   17.6344    0.4549 H   0  0  0  0  0  0  0  0  0  0  0  0
    3.2056   14.8954    1.1352 H   0  0  0  0  0  0  0  0  0  0  0  0
    1.7012   15.7582    1.4459 H   0  0  0  0  0  0  0  0  0  0  0  0
    3.5305   13.4045   -0.3544 H   0  0  0  0  0  0  0  0  0  0  0  0
    2.4714   13.0406   -1.7588 H   0  0  0  0  0  0  0  0  0  0  0  0
    3.4850   14.5235   -1.7588 H   0  0  0  0  0  0  0  0  0  0  0  0
   -0.0797   14.3715    0.5674 H   0  0  0  0  0  0  0  0  0  0  0  0
    1.8193   12.9569    1.5802 H   0  0  0  0  0  0  0  0  0  0  0  0
    0.0817   12.3491    1.5667 H   0  0  0  0  0  0  0  0  0  0  0  0
    1.9424   10.5775    0.9783 H   0  0  0  0  0  0  0  0  0  0  0  0
    1.0733   12.2893   -2.5722 H   0  0  0  0  0  0  0  0  0  0  0  0
   -1.4025   10.5711   -1.9260 H   0  0  0  0  0  0  0  0  0  0  0  0
   -1.1519   11.6176   -3.3933 H   0  0  0  0  0  0  0  0  0  0  0  0
   -0.7966    9.2188   -3.8827 H   0  0  0  0  0  0  0  0  0  0  0  0
    0.6928   10.2151   -4.1162 H   0  0  0  0  0  0  0  0  0  0  0  0
    1.2972    8.1715   -3.0117 H   0  0  0  0  0  0  0  0  0  0  0  0
   -0.6390    8.9650   -1.0280 H   0  0  0  0  0  0  0  0  0  0  0  0
    3.8286   10.4265   -1.8555 H   0  0  0  0  0  0  0  0  0  0  0  0
    3.2840    9.2662   -3.1140 H   0  0  0  0  0  0  0  0  0  0  0  0
    2.6586   10.9501   -3.1140 H   0  0  0  0  0  0  0  0  0  0  0  0
    2.1872    9.0394    0.4829 H   0  0  0  0  0  0  0  0  0  0  0  0
    1.9511    7.6889   -0.6777 H   0  0  0  0  0  0  0  0  0  0  0  0
    3.4906    8.6144   -0.6777 H   0  0  0  0  0  0  0  0  0  0  0  0
   -1.6266   12.7576    0.5110 H   0  0  0  0  0  0  0  0  0  0  0  0
   -2.4483   13.4643   -0.9215 H   0  0  0  0  0  0  0  0  0  0  0  0
   -1.9753   11.7314   -0.9215 H   0  0  0  0  0  0  0  0  0  0  0  0
   -0.8374   13.6633   -3.2344 H   0  0  0  0  0  0  0  0  0  0  0  0
   -1.3986   14.8222   -1.9018 H   0  0  0  0  0  0  0  0  0  0  0  0
    1.3548   14.6393   -3.1543 H   0  0  0  0  0  0  0  0  0  0  0  0
    0.1558   15.9887   -3.2544 H   0  0  0  0  0  0  0  0  0  0  0  0
    0.0858   16.5452    0.4339 H   0  0  0  0  0  0  0  0  0  0  0  0
    0.0597   17.6720   -0.9647 H   0  0  0  0  0  0  0  0  0  0  0  0
   -0.9922   16.2159   -0.9647 H   0  0  0  0  0  0  0  0  0  0  0  0
  1  2  1  0
  2  3  1  0
  3  4  1  0
  4  5  1  0
  5  6  1  0
  6  7  1  0
  7  8  1  0
  7  9  1  0
  2 10  1  0
 10 11  1  0
 11 12  1  0
 12 13  1  0
 13 14  1  6
 13 15  1  0
 15 16  1  0
 16 17  1  0
 17 18  2  0
 18 19  1  0
 19 20  1  0
 20 21  1  0
 21 22  1  0
 22 23  1  0
 22 24  1  0
 24 25  1  0
 24 26  1  0
 19 27  1  0
 27 28  1  1
 27 29  1  0
 29 30  1  0
 30 31  1  0
 31 32  1  1
  7  5  1  0
 31 10  1  0
 31 13  1  0
 27 15  1  0
 24 18  1  0
  1 33  1  0
  1 34  1  0
  1 35  1  0
  2 36  1  6
  3 37  1  0
  3 38  1  0
  4 39  1  0
  4 40  1  0
  5 41  1  1
  8 42  1  0
  8 43  1  0
  8 44  1  0
  9 45  1  0
  9 46  1  0
  9 47  1  0
 10 48  1  6
 11 49  1  0
 11 50  1  0
 12 51  1  0
 12 52  1  0
 14 53  1  0
 14 54  1  0
 14 55  1  0
 15 56  1  1
 16 57  1  0
 16 58  1  0
 17 59  1  0
 19 60  1  6
 20 61  1  0
 20 62  1  0
 21 63  1  0
 21 64  1  0
 22 65  1  6
 23 66  1  0
 25 67  1  0
 25 68  1  0
 25 69  1  0
 26 70  1  0
 26 71  1  0
 26 72  1  0
 28 73  1  0
 28 74  1  0
 28 75  1  0
 29 76  1  0
 29 77  1  0
 30 78  1  0
 30 79  1  0
 32 80  1  0
 32 81  1  0
 32 82  1  0
M  END
>  <meeko>  (13) 
{"is_sidechain": [false], "intermolecular_energy": 2.731, "internal_energy": -0.839}

$$$$
EPH_relaxed_0001_pdb2pqr_Repair_133_r2_0001_out
     RDKit          3D

 82 86  0  0  0  0  0  0  0  0999 V2000
    0.3150    9.8900   -4.7120 C   0  0  0  0  0  0  0  0  0  0  0  0
    1.3630   10.5900   -3.8420 C   0  0  2  0  0  0  0  0  0  0  0  0
    1.7540    9.7460   -2.6130 C   0  0  0  0  0  0  0  0  0  0  0  0
    0.7080    8.6970   -2.2280 C   0  0  0  0  0  0  0  0  0  0  0  0
   -0.1670    9.1710   -1.1070 C   0  0  2  0  0  0  0  0  0  0  0  0
   -0.7130    8.1260   -0.2910 O   0  0  0  0  0  0  0  0  0  0  0  0
   -1.6590    8.9060   -1.0400 C   0  0  0  0  0  0  0  0  0  0  0  0
   -2.3640    8.1400   -2.1150 C   0  0  0  0  0  0  0  0  0  0  0  0
   -2.5080    9.8020   -0.1920 C   0  0  0  0  0  0  0  0  0  0  0  0
    0.8430   11.9510   -3.3960 C   0  0  1  0  0  0  0  0  0  0  0  0
   -0.6740   11.9340   -3.0700 C   0  0  0  0  0  0  0  0  0  0  0  0
   -0.8900   12.9180   -1.8920 C   0  0  0  0  0  0  0  0  0  0  0  0
    0.4350   13.7110   -1.7980 C   0  0  1  0  0  0  0  0  0  0  0  0
    0.3240   14.8090   -2.9010 C   0  0  0  0  0  0  0  0  0  0  0  0
    0.7740   14.3270   -0.4020 C   0  0  2  0  0  0  0  0  0  0  0  0
   -0.2270   15.3780    0.1080 C   0  0  0  0  0  0  0  0  0  0  0  0
    0.0780   16.7880   -0.2750 C   0  0  0  0  0  0  0  0  0  0  0  0
    1.2560   17.2310   -0.7530 C   0  0  0  0  0  0  0  0  0  0  0  0
    2.4660   16.2940   -0.8590 C   0  0  1  0  0  0  0  0  0  0  0  0
    3.7220   17.0030   -0.2900 C   0  0  0  0  0  0  0  0  0  0  0  0
    3.9750   18.3590   -0.9430 C   0  0  0  0  0  0  0  0  0  0  0  0
    2.7730   19.2820   -0.7660 C   0  0  2  0  0  0  0  0  0  0  0  0
    2.6360   19.6000    0.6220 O   0  0  0  0  0  0  0  0  0  0  0  0
    1.4460   18.6690   -1.2950 C   0  0  0  0  0  0  0  0  0  0  0  0
    1.4820   18.6050   -2.8420 C   0  0  0  0  0  0  0  0  0  0  0  0
    0.2920   19.6410   -0.9280 C   0  0  0  0  0  0  0  0  0  0  0  0
    2.2660   14.8340   -0.2620 C   0  0  1  0  0  0  0  0  0  0  0  0
    2.5970   14.8330    1.2620 C   0  0  0  0  0  0  0  0  0  0  0  0
    3.2970   13.8560   -0.9410 C   0  0  0  0  0  0  0  0  0  0  0  0
    2.8560   13.1860   -2.2560 C   0  0  0  0  0  0  0  0  0  0  0  0
    1.4630   12.5650   -2.1160 C   0  0  2  0  0  0  0  0  0  0  0  0
    1.5490   11.4400   -1.0280 C   0  0  0  0  0  0  0  0  0  0  0  0
   -0.4259    9.3952   -4.0668 H   0  0  0  0  0  0  0  0  0  0  0  0
   -0.1898   10.6329   -5.3470 H   0  0  0  0  0  0  0  0  0  0  0  0
    0.8079    9.1392   -5.3470 H   0  0  0  0  0  0  0  0  0  0  0  0
    2.2678   10.7206   -4.4538 H   0  0  0  0  0  0  0  0  0  0  0  0
    2.6994    9.2288   -2.8336 H   0  0  0  0  0  0  0  0  0  0  0  0
    1.8424   10.4384   -1.7629 H   0  0  0  0  0  0  0  0  0  0  0  0
    0.0791    8.4824   -3.1046 H   0  0  0  0  0  0  0  0  0  0  0  0
    1.2370    7.7933   -1.8911 H   0  0  0  0  0  0  0  0  0  0  0  0
    0.4235   10.0935   -1.0052 H   0  0  0  0  0  0  0  0  0  0  0  0
   -3.0413    7.4041   -1.6569 H   0  0  0  0  0  0  0  0  0  0  0  0
   -2.9453    8.8346   -2.7391 H   0  0  0  0  0  0  0  0  0  0  0  0
   -1.6236    7.6182   -2.7391 H   0  0  0  0  0  0  0  0  0  0  0  0
   -2.3119    9.5951    0.8704 H   0  0  0  0  0  0  0  0  0  0  0  0
   -2.2659   10.8523   -0.4118 H   0  0  0  0  0  0  0  0  0  0  0  0
   -3.5698    9.6168   -0.4118 H   0  0  0  0  0  0  0  0  0  0  0  0
    1.1220   12.5510   -4.2747 H   0  0  0  0  0  0  0  0  0  0  0  0
   -1.2534   12.2597   -3.9465 H   0  0  0  0  0  0  0  0  0  0  0  0
   -1.0093   10.9206   -2.8043 H   0  0  0  0  0  0  0  0  0  0  0  0
   -1.7329   13.5935   -2.0998 H   0  0  0  0  0  0  0  0  0  0  0  0
   -1.1326   12.3982   -0.9534 H   0  0  0  0  0  0  0  0  0  0  0  0
    0.2242   15.7964   -2.4267 H   0  0  0  0  0  0  0  0  0  0  0  0
    1.2284   14.7927   -3.5270 H   0  0  0  0  0  0  0  0  0  0  0  0
   -0.5588   14.6120   -3.5270 H   0  0  0  0  0  0  0  0  0  0  0  0
    0.6668   13.4622    0.2692 H   0  0  0  0  0  0  0  0  0  0  0  0
   -1.2197   15.1243   -0.2923 H   0  0  0  0  0  0  0  0  0  0  0  0
   -0.1723   15.3425    1.2061 H   0  0  0  0  0  0  0  0  0  0  0  0
   -0.7277   17.5275   -0.1567 H   0  0  0  0  0  0  0  0  0  0  0  0
    2.6042   16.0959   -1.9322 H   0  0  0  0  0  0  0  0  0  0  0  0
    3.5831   17.1526    0.7909 H   0  0  0  0  0  0  0  0  0  0  0  0
    4.5913   16.3631   -0.5018 H   0  0  0  0  0  0  0  0  0  0  0  0
    4.8571   18.8235   -0.4781 H   0  0  0  0  0  0  0  0  0  0  0  0
    4.1438   18.2046   -2.0190 H   0  0  0  0  0  0  0  0  0  0  0  0
    2.9610   20.1859   -1.3640 H   0  0  0  0  0  0  0  0  0  0  0  0
    3.3600   20.2050    0.8580 H   0  0  0  0  0  0  0  0  0  0  0  0
    1.9984   17.6870   -3.1591 H   0  0  0  0  0  0  0  0  0  0  0  0
    0.4538   18.6010   -3.2328 H   0  0  0  0  0  0  0  0  0  0  0  0
    2.0194   19.4816   -3.2328 H   0  0  0  0  0  0  0  0  0  0  0  0
    0.2070   19.7126    0.1664 H   0  0  0  0  0  0  0  0  0  0  0  0
    0.5044   20.6364   -1.3452 H   0  0  0  0  0  0  0  0  0  0  0  0
   -0.6528   19.2625   -1.3452 H   0  0  0  0  0  0  0  0  0  0  0  0
    1.6614   14.8358    1.8404 H   0  0  0  0  0  0  0  0  0  0  0  0
    3.1788   13.9331    1.5103 H   0  0  0  0  0  0  0  0  0  0  0  0
    3.1843   15.7294    1.5103 H   0  0  0  0  0  0  0  0  0  0  0  0
    4.2119   14.4298   -1.1503 H   0  0  0  0  0  0  0  0  0  0  0  0
    3.4245   13.0301   -0.2257 H   0  0  0  0  0  0  0  0  0  0  0  0
    2.8342   13.9418   -3.0550 H   0  0  0  0  0  0  0  0  0  0  0  0
    3.5724   12.3877   -2.4997 H   0  0  0  0  0  0  0  0  0  0  0  0
    1.5142   11.8946   -0.0269 H   0  0  0  0  0  0  0  0  0  0  0  0
    0.7010   10.7495   -1.1468 H   0  0  0  0  0  0  0  0  0  0  0  0
    2.4921   10.8864   -1.1468 H   0  0  0  0  0  0  0  0  0  0  0  0
  1  2  1  0
  2  3  1  0
  3  4  1  0
  4  5  1  0
  5  6  1  0
  6  7  1  0
  7  8  1  0
  7  9  1  0
  2 10  1  0
 10 11  1  0
 11 12  1  0
 12 13  1  0
 13 14  1  6
 13 15  1  0
 15 16  1  0
 16 17  1  0
 17 18  2  0
 18 19  1  0
 19 20  1  0
 20 21  1  0
 21 22  1  0
 22 23  1  0
 22 24  1  0
 24 25  1  0
 24 26  1  0
 19 27  1  0
 27 28  1  1
 27 29  1  0
 29 30  1  0
 30 31  1  0
 31 32  1  1
  7  5  1  0
 31 10  1  0
 31 13  1  0
 27 15  1  0
 24 18  1  0
  1 33  1  0
  1 34  1  0
  1 35  1  0
  2 36  1  6
  3 37  1  0
  3 38  1  0
  4 39  1  0
  4 40  1  0
  5 41  1  1
  8 42  1  0
  8 43  1  0
  8 44  1  0
  9 45  1  0
  9 46  1  0
  9 47  1  0
 10 48  1  6
 11 49  1  0
 11 50  1  0
 12 51  1  0
 12 52  1  0
 14 53  1  0
 14 54  1  0
 14 55  1  0
 15 56  1  1
 16 57  1  0
 16 58  1  0
 17 59  1  0
 19 60  1  6
 20 61  1  0
 20 62  1  0
 21 63  1  0
 21 64  1  0
 22 65  1  6
 23 66  1  0
 25 67  1  0
 25 68  1  0
 25 69  1  0
 26 70  1  0
 26 71  1  0
 26 72  1  0
 28 73  1  0
 28 74  1  0
 28 75  1  0
 29 76  1  0
 29 77  1  0
 30 78  1  0
 30 79  1  0
 32 80  1  0
 32 81  1  0
 32 82  1  0
M  END
>  <meeko>  (14) 
{"is_sidechain": [false], "intermolecular_energy": 2.731, "internal_energy": -0.839}

$$$$
EPH_relaxed_0001_pdb2pqr_Repair_133_r2_0001_out
     RDKit          3D

 82 86  0  0  0  0  0  0  0  0999 V2000
   -0.1280    9.3190   -4.2390 C   0  0  0  0  0  0  0  0  0  0  0  0
    0.0850    9.5330   -2.7380 C   0  0  2  0  0  0  0  0  0  0  0  0
   -0.6750    8.4930   -1.8900 C   0  0  0  0  0  0  0  0  0  0  0  0
   -2.1960    8.5580   -2.0530 C   0  0  0  0  0  0  0  0  0  0  0  0
   -2.7410    7.3070   -2.6730 C   0  0  2  0  0  0  0  0  0  0  0  0
   -3.7850    7.5200   -3.6320 O   0  0  0  0  0  0  0  0  0  0  0  0
   -4.1550    6.8060   -2.4410 C   0  0  0  0  0  0  0  0  0  0  0  0
   -5.1110    7.5470   -1.5600 C   0  0  0  0  0  0  0  0  0  0  0  0
   -4.4470    5.3560   -2.6740 C   0  0  0  0  0  0  0  0  0  0  0  0
   -0.3490   10.9410   -2.3460 C   0  0  1  0  0  0  0  0  0  0  0  0
   -1.5650   10.9450   -1.3820 C   0  0  0  0  0  0  0  0  0  0  0  0
   -1.3670   12.1430   -0.4180 C   0  0  0  0  0  0  0  0  0  0  0  0
   -0.2340   12.9770   -1.0600 C   0  0  1  0  0  0  0  0  0  0  0  0
   -0.9360   13.8230   -2.1680 C   0  0  0  0  0  0  0  0  0  0  0  0
    0.5980   13.8760   -0.0880 C   0  0  2  0  0  0  0  0  0  0  0  0
   -0.2020   14.9790    0.6270 C   0  0  0  0  0  0  0  0  0  0  0  0
   -0.2590   16.2890   -0.0870 C   0  0  0  0  0  0  0  0  0  0  0  0
    0.5380   16.6600   -1.1060 C   0  0  0  0  0  0  0  0  0  0  0  0
    1.6860   15.7570   -1.5770 C   0  0  1  0  0  0  0  0  0  0  0  0
    2.9720   16.6050   -1.7560 C   0  0  0  0  0  0  0  0  0  0  0  0
    2.7590   17.8050   -2.6750 C   0  0  0  0  0  0  0  0  0  0  0  0
    1.6500   18.7090   -2.1420 C   0  0  2  0  0  0  0  0  0  0  0  0
    2.0870   19.3000   -0.9150 O   0  0  0  0  0  0  0  0  0  0  0  0
    0.3070   17.9610   -1.9130 C   0  0  0  0  0  0  0  0  0  0  0  0
   -0.3180   17.5820   -3.2780 C   0  0  0  0  0  0  0  0  0  0  0  0
   -0.6830   18.9520   -1.2430 C   0  0  0  0  0  0  0  0  0  0  0  0
    1.9350   14.4450   -0.7150 C   0  0  1  0  0  0  0  0  0  0  0  0
    2.8860   14.7660    0.4780 C   0  0  0  0  0  0  0  0  0  0  0  0
    2.6800   13.3800   -1.6030 C   0  0  0  0  0  0  0  0  0  0  0  0
    1.7990   12.4420   -2.4500 C   0  0  0  0  0  0  0  0  0  0  0  0
    0.6850   11.8210   -1.6010 C   0  0  2  0  0  0  0  0  0  0  0  0
    1.3610   10.9460   -0.4910 C   0  0  0  0  0  0  0  0  0  0  0  0
   -0.8963    8.5471   -4.3939 H   0  0  0  0  0  0  0  0  0  0  0  0
   -0.4570   10.2617   -4.7007 H   0  0  0  0  0  0  0  0  0  0  0  0
    0.8162    8.9945   -4.7007 H   0  0  0  0  0  0  0  0  0  0  0  0
    1.1585    9.4049   -2.5349 H   0  0  0  0  0  0  0  0  0  0  0  0
   -0.3367    7.4892   -2.1865 H   0  0  0  0  0  0  0  0  0  0  0  0
   -0.4552    8.7159   -0.8355 H   0  0  0  0  0  0  0  0  0  0  0  0
   -2.6551    8.6944   -1.0628 H   0  0  0  0  0  0  0  0  0  0  0  0
   -2.4339    9.4018   -2.7174 H   0  0  0  0  0  0  0  0  0  0  0  0
   -1.7611    6.8132   -2.5955 H   0  0  0  0  0  0  0  0  0  0  0  0
   -4.8627    7.3545   -0.5058 H   0  0  0  0  0  0  0  0  0  0  0  0
   -5.0363    8.6255   -1.7633 H   0  0  0  0  0  0  0  0  0  0  0  0
   -6.1368    7.2057   -1.7633 H   0  0  0  0  0  0  0  0  0  0  0  0
   -4.5504    4.8427   -1.7066 H   0  0  0  0  0  0  0  0  0  0  0  0
   -5.3830    5.2573   -3.2433 H   0  0  0  0  0  0  0  0  0  0  0  0
   -3.6221    4.9027   -3.2433 H   0  0  0  0  0  0  0  0  0  0  0  0
   -0.5483   11.3577   -3.3443 H   0  0  0  0  0  0  0  0  0  0  0  0
   -2.4988   11.0665   -1.9505 H   0  0  0  0  0  0  0  0  0  0  0  0
   -1.6321    9.9978   -0.8267 H   0  0  0  0  0  0  0  0  0  0  0  0
   -2.2901   12.7362   -0.3410 H   0  0  0  0  0  0  0  0  0  0  0  0
   -1.1194   11.8197    0.6039 H   0  0  0  0  0  0  0  0  0  0  0  0
   -1.5710   14.5883   -1.6978 H   0  0  0  0  0  0  0  0  0  0  0  0
   -0.1747   14.3120   -2.7935 H   0  0  0  0  0  0  0  0  0  0  0  0
   -1.5570   13.1649   -2.7935 H   0  0  0  0  0  0  0  0  0  0  0  0
    0.8921   13.1641    0.6973 H   0  0  0  0  0  0  0  0  0  0  0  0
   -1.2329   14.6193    0.7604 H   0  0  0  0  0  0  0  0  0  0  0  0
    0.3231   15.1709    1.5743 H   0  0  0  0  0  0  0  0  0  0  0  0
   -1.0168   17.0124    0.2483 H   0  0  0  0  0  0  0  0  0  0  0  0
    1.3712   15.3471   -2.5480 H   0  0  0  0  0  0  0  0  0  0  0  0
    3.2942   16.9693   -0.7694 H   0  0  0  0  0  0  0  0  0  0  0  0
    3.7345   15.9613   -2.2189 H   0  0  0  0  0  0  0  0  0  0  0  0
    3.6941   18.3809   -2.7380 H   0  0  0  0  0  0  0  0  0  0  0  0
    2.4660   17.4383   -3.6698 H   0  0  0  0  0  0  0  0  0  0  0  0
    1.4549   19.4768   -2.9051 H   0  0  0  0  0  0  0  0  0  0  0  0
    2.6780   20.0390   -1.1380 H   0  0  0  0  0  0  0  0  0  0  0  0
   -1.2478   17.0182   -3.1117 H   0  0  0  0  0  0  0  0  0  0  0  0
   -0.5408   18.4973   -3.8460 H   0  0  0  0  0  0  0  0  0  0  0  0
    0.3906   16.9613   -3.8460 H   0  0  0  0  0  0  0  0  0  0  0  0
   -0.6005   18.8694   -0.1492 H   0  0  0  0  0  0  0  0  0  0  0  0
   -0.4395   19.9791   -1.5526 H   0  0  0  0  0  0  0  0  0  0  0  0
   -1.7103   18.7095   -1.5526 H   0  0  0  0  0  0  0  0  0  0  0  0
    2.3578   14.5877    1.4262 H   0  0  0  0  0  0  0  0  0  0  0  0
    3.7729   14.1174    0.4247 H   0  0  0  0  0  0  0  0  0  0  0  0
    3.1984   15.8194    0.4247 H   0  0  0  0  0  0  0  0  0  0  0  0
    3.3424   13.9256   -2.2912 H   0  0  0  0  0  0  0  0  0  0  0  0
    3.1972   12.7219   -0.8893 H   0  0  0  0  0  0  0  0  0  0  0  0
    1.3471   13.0172   -3.2715 H   0  0  0  0  0  0  0  0  0  0  0  0
    2.4293   11.6330   -2.8476 H   0  0  0  0  0  0  0  0  0  0  0  0
    1.0700   11.3227    0.5007 H   0  0  0  0  0  0  0  0  0  0  0  0
    1.0331    9.9014   -0.5972 H   0  0  0  0  0  0  0  0  0  0  0  0
    2.4546   10.9996   -0.5972 H   0  0  0  0  0  0  0  0  0  0  0  0
  1  2  1  0
  2  3  1  0
  3  4  1  0
  4  5  1  0
  5  6  1  0
  6  7  1  0
  7  8  1  0
  7  9  1  0
  2 10  1  0
 10 11  1  0
 11 12  1  0
 12 13  1  0
 13 14  1  6
 13 15  1  0
 15 16  1  0
 16 17  1  0
 17 18  2  0
 18 19  1  0
 19 20  1  0
 20 21  1  0
 21 22  1  0
 22 23  1  0
 22 24  1  0
 24 25  1  0
 24 26  1  0
 19 27  1  0
 27 28  1  1
 27 29  1  0
 29 30  1  0
 30 31  1  0
 31 32  1  1
  7  5  1  0
 31 10  1  0
 31 13  1  0
 27 15  1  0
 24 18  1  0
  1 33  1  0
  1 34  1  0
  1 35  1  0
  2 36  1  6
  3 37  1  0
  3 38  1  0
  4 39  1  0
  4 40  1  0
  5 41  1  6
  8 42  1  0
  8 43  1  0
  8 44  1  0
  9 45  1  0
  9 46  1  0
  9 47  1  0
 10 48  1  6
 11 49  1  0
 11 50  1  0
 12 51  1  0
 12 52  1  0
 14 53  1  0
 14 54  1  0
 14 55  1  0
 15 56  1  1
 16 57  1  0
 16 58  1  0
 17 59  1  0
 19 60  1  6
 20 61  1  0
 20 62  1  0
 21 63  1  0
 21 64  1  0
 22 65  1  6
 23 66  1  0
 25 67  1  0
 25 68  1  0
 25 69  1  0
 26 70  1  0
 26 71  1  0
 26 72  1  0
 28 73  1  0
 28 74  1  0
 28 75  1  0
 29 76  1  0
 29 77  1  0
 30 78  1  0
 30 79  1  0
 32 80  1  0
 32 81  1  0
 32 82  1  0
M  END
>  <meeko>  (15) 
{"is_sidechain": [false], "intermolecular_energy": 2.731, "internal_energy": -0.839}

$$$$
EPH_relaxed_0001_pdb2pqr_Repair_133_r2_0001_out
     RDKit          3D

 82 86  0  0  0  0  0  0  0  0999 V2000
    0.8760   14.9300   -2.5480 C   0  0  0  0  0  0  0  0  0  0  0  0
    1.1650   14.2600   -3.8940 C   0  0  2  0  0  0  0  0  0  0  0  0
    0.4730   14.9860   -5.0650 C   0  0  0  0  0  0  0  0  0  0  0  0
    1.0730   14.6570   -6.4340 C   0  0  0  0  0  0  0  0  0  0  0  0
    0.8260   15.7530   -7.4260 C   0  0  2  0  0  0  0  0  0  0  0  0
    0.3560   15.3080   -8.7050 O   0  0  0  0  0  0  0  0  0  0  0  0
    1.6470   15.9400   -8.6890 C   0  0  0  0  0  0  0  0  0  0  0  0
    2.7780   15.0210   -9.0270 C   0  0  0  0  0  0  0  0  0  0  0  0
    1.6660   17.2890   -9.3360 C   0  0  0  0  0  0  0  0  0  0  0  0
    0.7260   12.8010   -3.8530 C   0  0  1  0  0  0  0  0  0  0  0  0
    1.8720   11.8210   -4.2220 C   0  0  0  0  0  0  0  0  0  0  0  0
    1.6690   10.5510   -3.3570 C   0  0  0  0  0  0  0  0  0  0  0  0
    0.2460   10.7000   -2.7720 C   0  0  1  0  0  0  0  0  0  0  0  0
   -0.7090   10.2280   -3.9130 C   0  0  0  0  0  0  0  0  0  0  0  0
   -0.0350    9.9400   -1.4340 C   0  0  2  0  0  0  0  0  0  0  0  0
    0.0840    8.4080   -1.5170 C   0  0  0  0  0  0  0  0  0  0  0  0
   -1.1780    7.6890   -1.8630 C   0  0  0  0  0  0  0  0  0  0  0  0
   -2.4160    8.2150   -1.8190 C   0  0  0  0  0  0  0  0  0  0  0  0
   -2.6480    9.6390   -1.2960 C   0  0  1  0  0  0  0  0  0  0  0  0
   -3.8440    9.6380   -0.3070 C   0  0  0  0  0  0  0  0  0  0  0  0
   -5.1030    9.0250   -0.9130 C   0  0  0  0  0  0  0  0  0  0  0  0
   -4.8480    7.5910   -1.3680 C   0  0  2  0  0  0  0  0  0  0  0  0
   -4.6010    6.7790   -0.2160 O   0  0  0  0  0  0  0  0  0  0  0  0
   -3.6580    7.4660   -2.3610 C   0  0  0  0  0  0  0  0  0  0  0  0
   -4.0480    8.0920   -3.7220 C   0  0  0  0  0  0  0  0  0  0  0  0
   -3.4180    5.9560   -2.6300 C   0  0  0  0  0  0  0  0  0  0  0  0
   -1.3700   10.3790   -0.7080 C   0  0  1  0  0  0  0  0  0  0  0  0
   -1.1950   10.0210    0.8000 C   0  0  0  0  0  0  0  0  0  0  0  0
   -1.6030   11.9340   -0.7710 C   0  0  0  0  0  0  0  0  0  0  0  0
   -1.1950   12.6460   -2.0750 C   0  0  0  0  0  0  0  0  0  0  0  0
    0.2220   12.2470   -2.4970 C   0  0  2  0  0  0  0  0  0  0  0  0
    1.2070   12.7290   -1.3780 C   0  0  0  0  0  0  0  0  0  0  0  0
    1.1679   14.2533   -1.7314 H   0  0  0  0  0  0  0  0  0  0  0  0
    1.4509   15.8648   -2.4728 H   0  0  0  0  0  0  0  0  0  0  0  0
   -0.1985   15.1533   -2.4728 H   0  0  0  0  0  0  0  0  0  0  0  0
    2.2500   14.3172   -4.0658 H   0  0  0  0  0  0  0  0  0  0  0  0
   -0.5887   14.6984   -5.0730 H   0  0  0  0  0  0  0  0  0  0  0  0
    0.6146   16.0647   -4.9030 H   0  0  0  0  0  0  0  0  0  0  0  0
    2.1581   14.5149   -6.3227 H   0  0  0  0  0  0  0  0  0  0  0  0
    0.5916   13.7414   -6.8080 H   0  0  0  0  0  0  0  0  0  0  0  0
    0.5403   16.4477   -6.6224 H   0  0  0  0  0  0  0  0  0  0  0  0
    3.2371   14.6480   -8.0996 H   0  0  0  0  0  0  0  0  0  0  0  0
    2.3979   14.1726   -9.6150 H   0  0  0  0  0  0  0  0  0  0  0  0
    3.5307   15.5667   -9.6150 H   0  0  0  0  0  0  0  0  0  0  0  0
    1.6770   18.0680   -8.5594 H   0  0  0  0  0  0  0  0  0  0  0  0
    2.5656   17.3827   -9.9621 H   0  0  0  0  0  0  0  0  0  0  0  0
    0.7694   17.4080   -9.9621 H   0  0  0  0  0  0  0  0  0  0  0  0
   -0.1028   12.8385   -4.5752 H   0  0  0  0  0  0  0  0  0  0  0  0
    1.8215   11.5639   -5.2903 H   0  0  0  0  0  0  0  0  0  0  0  0
    2.8562   12.2746   -4.0333 H   0  0  0  0  0  0  0  0  0  0  0  0
    1.7414    9.6443   -3.9756 H   0  0  0  0  0  0  0  0  0  0  0  0
    2.4341   10.4542   -2.5726 H   0  0  0  0  0  0  0  0  0  0  0  0
   -1.6129    9.7813   -3.4733 H   0  0  0  0  0  0  0  0  0  0  0  0
   -0.9915   11.0902   -4.5349 H   0  0  0  0  0  0  0  0  0  0  0  0
   -0.1956    9.4799   -4.5349 H   0  0  0  0  0  0  0  0  0  0  0  0
    0.7977   10.2693   -0.7952 H   0  0  0  0  0  0  0  0  0  0  0  0
    0.8344    8.1663   -2.2841 H   0  0  0  0  0  0  0  0  0  0  0  0
    0.3611    8.0688   -0.5080 H   0  0  0  0  0  0  0  0  0  0  0  0
   -1.0882    6.6398   -2.1810 H   0  0  0  0  0  0  0  0  0  0  0  0
   -2.8919   10.2510   -2.1769 H   0  0  0  0  0  0  0  0  0  0  0  0
   -3.5637    9.0585    0.5849 H   0  0  0  0  0  0  0  0  0  0  0  0
   -4.0700   10.6846   -0.0548 H   0  0  0  0  0  0  0  0  0  0  0  0
   -5.9030    9.0260   -0.1580 H   0  0  0  0  0  0  0  0  0  0  0  0
   -5.3982    9.6232   -1.7877 H   0  0  0  0  0  0  0  0  0  0  0  0
   -5.7441    7.2517   -1.9082 H   0  0  0  0  0  0  0  0  0  0  0  0
   -4.7010    5.8500   -0.4840 H   0  0  0  0  0  0  0  0  0  0  0  0
   -4.6225    9.0142   -3.5502 H   0  0  0  0  0  0  0  0  0  0  0  0
   -3.1370    8.3282   -4.2914 H   0  0  0  0  0  0  0  0  0  0  0  0
   -4.6616    7.3784   -4.2914 H   0  0  0  0  0  0  0  0  0  0  0  0
   -3.3331    5.4219   -1.6721 H   0  0  0  0  0  0  0  0  0  0  0  0
   -4.2624    5.5471   -3.2042 H   0  0  0  0  0  0  0  0  0  0  0  0
   -2.4884    5.8291   -3.2042 H   0  0  0  0  0  0  0  0  0  0  0  0
   -1.5942   10.8377    1.4194 H   0  0  0  0  0  0  0  0  0  0  0  0
   -1.7406    9.0920    1.0220 H   0  0  0  0  0  0  0  0  0  0  0  0
   -0.1268    9.8809    1.0220 H   0  0  0  0  0  0  0  0  0  0  0  0
   -2.6765   12.1161   -0.6144 H   0  0  0  0  0  0  0  0  0  0  0  0
   -0.9457   12.3549    0.0042 H   0  0  0  0  0  0  0  0  0  0  0  0
   -1.8997   12.3679   -2.8725 H   0  0  0  0  0  0  0  0  0  0  0  0
   -1.2171   13.7323   -1.9033 H   0  0  0  0  0  0  0  0  0  0  0  0
    0.7722   12.5162   -0.3902 H   0  0  0  0  0  0  0  0  0  0  0  0
    2.1649   12.1979   -1.4791 H   0  0  0  0  0  0  0  0  0  0  0  0
    1.3754   13.8113   -1.4791 H   0  0  0  0  0  0  0  0  0  0  0  0
  1  2  1  0
  2  3  1  0
  3  4  1  0
  4  5  1  0
  5  6  1  0
  6  7  1  0
  7  8  1  0
  7  9  1  0
  2 10  1  0
 10 11  1  0
 11 12  1  0
 12 13  1  0
 13 14  1  6
 13 15  1  0
 15 16  1  0
 16 17  1  0
 17 18  2  0
 18 19  1  0
 19 20  1  0
 20 21  1  0
 21 22  1  0
 22 23  1  0
 22 24  1  0
 24 25  1  0
 24 26  1  0
 19 27  1  0
 27 28  1  1
 27 29  1  0
 29 30  1  0
 30 31  1  0
 31 32  1  1
  7  5  1  0
 31 10  1  0
 31 13  1  0
 27 15  1  0
 24 18  1  0
  1 33  1  0
  1 34  1  0
  1 35  1  0
  2 36  1  6
  3 37  1  0
  3 38  1  0
  4 39  1  0
  4 40  1  0
  5 41  1  1
  8 42  1  0
  8 43  1  0
  8 44  1  0
  9 45  1  0
  9 46  1  0
  9 47  1  0
 10 48  1  6
 11 49  1  0
 11 50  1  0
 12 51  1  0
 12 52  1  0
 14 53  1  0
 14 54  1  0
 14 55  1  0
 15 56  1  1
 16 57  1  0
 16 58  1  0
 17 59  1  0
 19 60  1  6
 20 61  1  0
 20 62  1  0
 21 63  1  0
 21 64  1  0
 22 65  1  6
 23 66  1  0
 25 67  1  0
 25 68  1  0
 25 69  1  0
 26 70  1  0
 26 71  1  0
 26 72  1  0
 28 73  1  0
 28 74  1  0
 28 75  1  0
 29 76  1  0
 29 77  1  0
 30 78  1  0
 30 79  1  0
 32 80  1  0
 32 81  1  0
 32 82  1  0
M  END
>  <meeko>  (16) 
{"is_sidechain": [false], "intermolecular_energy": 2.731, "internal_energy": -0.839}

$$$$
EPH_relaxed_0001_pdb2pqr_Repair_133_r2_0001_out
     RDKit          3D

 82 86  0  0  0  0  0  0  0  0999 V2000
    0.7020   18.8930   -2.1690 C   0  0  0  0  0  0  0  0  0  0  0  0
    1.4690   18.1620   -1.0640 C   0  0  2  0  0  0  0  0  0  0  0  0
    2.8070   18.8510   -0.7320 C   0  0  0  0  0  0  0  0  0  0  0  0
    2.6760   20.0030    0.2670 C   0  0  0  0  0  0  0  0  0  0  0  0
    3.6150   19.8430    1.4240 C   0  0  2  0  0  0  0  0  0  0  0  0
    3.4390   18.6350    2.1760 O   0  0  0  0  0  0  0  0  0  0  0  0
    3.1670   19.8610    2.8740 C   0  0  0  0  0  0  0  0  0  0  0  0
    1.7280   20.0440    3.2440 C   0  0  0  0  0  0  0  0  0  0  0  0
    4.1750   20.1890    3.9300 C   0  0  0  0  0  0  0  0  0  0  0  0
    1.7150   16.7140   -1.4730 C   0  0  1  0  0  0  0  0  0  0  0  0
    3.1950   16.4440   -1.8520 C   0  0  0  0  0  0  0  0  0  0  0  0
    3.5200   15.0010   -1.3860 C   0  0  0  0  0  0  0  0  0  0  0  0
    2.1430   14.3770   -1.0620 C   0  0  1  0  0  0  0  0  0  0  0  0
    1.5670   13.9360   -2.4440 C   0  0  0  0  0  0  0  0  0  0  0  0
    2.1430   13.1990   -0.0350 C   0  0  2  0  0  0  0  0  0  0  0  0
    2.9290   11.9500   -0.4730 C   0  0  0  0  0  0  0  0  0  0  0  0
    2.1370   10.9280   -1.2200 C   0  0  0  0  0  0  0  0  0  0  0  0
    0.7940   10.8710   -1.2810 C   0  0  0  0  0  0  0  0  0  0  0  0
   -0.0740   11.8440   -0.4720 C   0  0  1  0  0  0  0  0  0  0  0  0
   -1.2060   11.0580    0.2410 C   0  0  0  0  0  0  0  0  0  0  0  0
   -2.0260   10.2090   -0.7250 C   0  0  0  0  0  0  0  0  0  0  0  0
   -1.1380    9.2150   -1.4680 C   0  0  2  0  0  0  0  0  0  0  0  0
   -0.6300    8.2600   -0.5300 O   0  0  0  0  0  0  0  0  0  0  0  0
    0.0450    9.8910   -2.2170 C   0  0  0  0  0  0  0  0  0  0  0  0
   -0.4960   10.6910   -3.4270 C   0  0  0  0  0  0  0  0  0  0  0  0
    0.9410    8.7680   -2.8050 C   0  0  0  0  0  0  0  0  0  0  0  0
    0.7080   12.8160    0.5130 C   0  0  1  0  0  0  0  0  0  0  0  0
    0.9290   12.1150    1.8880 C   0  0  0  0  0  0  0  0  0  0  0  0
   -0.1810   14.0830    0.7980 C   0  0  0  0  0  0  0  0  0  0  0  0
   -0.0480   15.2610   -0.1860 C   0  0  0  0  0  0  0  0  0  0  0  0
    1.4230   15.6180   -0.4180 C   0  0  2  0  0  0  0  0  0  0  0  0
    2.0240   16.0860    0.9510 C   0  0  0  0  0  0  0  0  0  0  0  0
   -0.0236   19.5845   -1.7159 H   0  0  0  0  0  0  0  0  0  0  0  0
    1.4089   19.4600   -2.7925 H   0  0  0  0  0  0  0  0  0  0  0  0
    0.1696   18.1597   -2.7925 H   0  0  0  0  0  0  0  0  0  0  0  0
    0.8493   18.1915   -0.1557 H   0  0  0  0  0  0  0  0  0  0  0  0
    3.4885   18.0992   -0.3073 H   0  0  0  0  0  0  0  0  0  0  0  0
    3.1877   19.2814   -1.6700 H   0  0  0  0  0  0  0  0  0  0  0  0
    2.9023   20.9485   -0.2476 H   0  0  0  0  0  0  0  0  0  0  0  0
    1.6476   20.0029    0.6575 H   0  0  0  0  0  0  0  0  0  0  0  0
    4.4048   20.3904    0.8887 H   0  0  0  0  0  0  0  0  0  0  0  0
    1.6298   20.0565    4.3395 H   0  0  0  0  0  0  0  0  0  0  0  0
    1.3617   20.9960    2.8322 H   0  0  0  0  0  0  0  0  0  0  0  0
    1.1351   19.2140    2.8322 H   0  0  0  0  0  0  0  0  0  0  0  0
    3.7260   20.0429    4.9235 H   0  0  0  0  0  0  0  0  0  0  0  0
    5.0479   19.5286    3.8214 H   0  0  0  0  0  0  0  0  0  0  0  0
    4.4921   21.2367    3.8214 H   0  0  0  0  0  0  0  0  0  0  0  0
    1.0012   16.6335   -2.3061 H   0  0  0  0  0  0  0  0  0  0  0  0
    3.3290   16.5298   -2.9404 H   0  0  0  0  0  0  0  0  0  0  0  0
    3.8647   17.1738   -1.3736 H   0  0  0  0  0  0  0  0  0  0  0  0
    4.0228   14.4383   -2.1864 H   0  0  0  0  0  0  0  0  0  0  0  0
    4.1995   14.9848   -0.5211 H   0  0  0  0  0  0  0  0  0  0  0  0
    0.7026   13.2742   -2.2866 H   0  0  0  0  0  0  0  0  0  0  0  0
    1.2503   14.8246   -3.0097 H   0  0  0  0  0  0  0  0  0  0  0  0
    2.3422   13.3984   -3.0097 H   0  0  0  0  0  0  0  0  0  0  0  0
    2.7046   13.6240    0.8099 H   0  0  0  0  0  0  0  0  0  0  0  0
    3.7562   12.2783   -1.1195 H   0  0  0  0  0  0  0  0  0  0  0  0
    3.2622   11.4595    0.4535 H   0  0  0  0  0  0  0  0  0  0  0  0
    2.6990   10.1564   -1.7667 H   0  0  0  0  0  0  0  0  0  0  0  0
   -0.5077   12.5435   -1.2017 H   0  0  0  0  0  0  0  0  0  0  0  0
   -0.7551   10.3971    0.9959 H   0  0  0  0  0  0  0  0  0  0  0  0
   -1.8848   11.7921    0.6996 H   0  0  0  0  0  0  0  0  0  0  0  0
   -2.7897    9.6558   -0.1586 H   0  0  0  0  0  0  0  0  0  0  0  0
   -2.4997   10.8747   -1.4616 H   0  0  0  0  0  0  0  0  0  0  0  0
   -1.7581    8.7281   -2.2351 H   0  0  0  0  0  0  0  0  0  0  0  0
   -1.1290    7.4340   -0.6520 H   0  0  0  0  0  0  0  0  0  0  0  0
   -1.0782   11.5519   -3.0666 H   0  0  0  0  0  0  0  0  0  0  0  0
    0.3469   11.0479   -4.0371 H   0  0  0  0  0  0  0  0  0  0  0  0
   -1.1411   10.0416   -4.0371 H   0  0  0  0  0  0  0  0  0  0  0  0
    1.3976    8.1957   -1.9841 H   0  0  0  0  0  0  0  0  0  0  0  0
    0.3281    8.0961   -3.4238 H   0  0  0  0  0  0  0  0  0  0  0  0
    1.7322    9.2164   -3.4238 H   0  0  0  0  0  0  0  0  0  0  0  0
    0.7060   12.8224    2.7003 H   0  0  0  0  0  0  0  0  0  0  0  0
    0.2619   11.2439    1.9669 H   0  0  0  0  0  0  0  0  0  0  0  0
    1.9751   11.7840    1.9669 H   0  0  0  0  0  0  0  0  0  0  0  0
   -1.2325   13.7602    0.7903 H   0  0  0  0  0  0  0  0  0  0  0  0
    0.1747   14.4728    1.7631 H   0  0  0  0  0  0  0  0  0  0  0  0
   -0.5062   14.9813   -1.1461 H   0  0  0  0  0  0  0  0  0  0  0  0
   -0.5578   16.1360    0.2435 H   0  0  0  0  0  0  0  0  0  0  0  0
    1.4496   15.6387    1.7757 H   0  0  0  0  0  0  0  0  0  0  0  0
    3.0740   15.7653    1.0193 H   0  0  0  0  0  0  0  0  0  0  0  0
    1.9704   17.1826    1.0193 H   0  0  0  0  0  0  0  0  0  0  0  0
  1  2  1  0
  2  3  1  0
  3  4  1  0
  4  5  1  0
  5  6  1  0
  6  7  1  0
  7  8  1  0
  7  9  1  0
  2 10  1  0
 10 11  1  0
 11 12  1  0
 12 13  1  0
 13 14  1  6
 13 15  1  0
 15 16  1  0
 16 17  1  0
 17 18  2  0
 18 19  1  0
 19 20  1  0
 20 21  1  0
 21 22  1  0
 22 23  1  0
 22 24  1  0
 24 25  1  0
 24 26  1  0
 19 27  1  0
 27 28  1  1
 27 29  1  0
 29 30  1  0
 30 31  1  0
 31 32  1  1
  7  5  1  0
 31 10  1  0
 31 13  1  0
 27 15  1  0
 24 18  1  0
  1 33  1  0
  1 34  1  0
  1 35  1  0
  2 36  1  1
  3 37  1  0
  3 38  1  0
  4 39  1  0
  4 40  1  0
  5 41  1  1
  8 42  1  0
  8 43  1  0
  8 44  1  0
  9 45  1  0
  9 46  1  0
  9 47  1  0
 10 48  1  6
 11 49  1  0
 11 50  1  0
 12 51  1  0
 12 52  1  0
 14 53  1  0
 14 54  1  0
 14 55  1  0
 15 56  1  1
 16 57  1  0
 16 58  1  0
 17 59  1  0
 19 60  1  6
 20 61  1  0
 20 62  1  0
 21 63  1  0
 21 64  1  0
 22 65  1  6
 23 66  1  0
 25 67  1  0
 25 68  1  0
 25 69  1  0
 26 70  1  0
 26 71  1  0
 26 72  1  0
 28 73  1  0
 28 74  1  0
 28 75  1  0
 29 76  1  0
 29 77  1  0
 30 78  1  0
 30 79  1  0
 32 80  1  0
 32 81  1  0
 32 82  1  0
M  END
>  <meeko>  (17) 
{"is_sidechain": [false], "intermolecular_energy": 2.731, "internal_energy": -0.839}

$$$$
EPH_relaxed_0001_pdb2pqr_Repair_133_r2_0001_out
     RDKit          3D

 82 86  0  0  0  0  0  0  0  0999 V2000
    1.9080   18.5060   -2.1330 C   0  0  0  0  0  0  0  0  0  0  0  0
    2.2510   17.3190   -3.0370 C   0  0  2  0  0  0  0  0  0  0  0  0
    1.2140   17.1270   -4.1620 C   0  0  0  0  0  0  0  0  0  0  0  0
    1.5650   15.9990   -5.1360 C   0  0  0  0  0  0  0  0  0  0  0  0
    0.5500   15.8790   -6.2330 C   0  0  2  0  0  0  0  0  0  0  0  0
    0.4600   14.5760   -6.8250 O   0  0  0  0  0  0  0  0  0  0  0  0
    0.9140   15.6340   -7.6860 C   0  0  0  0  0  0  0  0  0  0  0  0
    2.3400   15.4950   -8.1200 C   0  0  0  0  0  0  0  0  0  0  0  0
   -0.0730   16.0150   -8.7450 C   0  0  0  0  0  0  0  0  0  0  0  0
    2.3580   16.0460   -2.2050 C   0  0  1  0  0  0  0  0  0  0  0  0
    2.9100   16.3090   -0.7790 C   0  0  0  0  0  0  0  0  0  0  0  0
    2.1930   15.3150    0.1700 C   0  0  0  0  0  0  0  0  0  0  0  0
    1.5080   14.3000   -0.7760 C   0  0  1  0  0  0  0  0  0  0  0  0
    2.6370   13.2990   -1.1760 C   0  0  0  0  0  0  0  0  0  0  0  0
    0.2560   13.5580   -0.2030 C   0  0  2  0  0  0  0  0  0  0  0  0
    0.5280   12.6710    1.0240 C   0  0  0  0  0  0  0  0  0  0  0  0
    0.8790   11.2520    0.7200 C   0  0  0  0  0  0  0  0  0  0  0  0
    0.6980   10.6380   -0.4640 C   0  0  0  0  0  0  0  0  0  0  0  0
   -0.0050   11.3550   -1.6240 C   0  0  1  0  0  0  0  0  0  0  0  0
   -1.0570   10.4070   -2.2570 C   0  0  0  0  0  0  0  0  0  0  0  0
   -0.4610    9.0670   -2.6750 C   0  0  0  0  0  0  0  0  0  0  0  0
    0.1770    8.3580   -1.4830 C   0  0  2  0  0  0  0  0  0  0  0  0
   -0.8520    7.9930   -0.5590 O   0  0  0  0  0  0  0  0  0  0  0  0
    1.2480    9.2210   -0.7590 C   0  0  0  0  0  0  0  0  0  0  0  0
    2.4990    9.3630   -1.6610 C   0  0  0  0  0  0  0  0  0  0  0  0
    1.7100    8.4460    0.5050 C   0  0  0  0  0  0  0  0  0  0  0  0
   -0.5980   12.7920   -1.2930 C   0  0  1  0  0  0  0  0  0  0  0  0
   -2.0380   12.6520   -0.7130 C   0  0  0  0  0  0  0  0  0  0  0  0
   -0.7350   13.6120   -2.6310 C   0  0  0  0  0  0  0  0  0  0  0  0
    0.4970   14.4190   -3.0810 C   0  0  0  0  0  0  0  0  0  0  0  0
    1.0490   15.2650   -1.9290 C   0  0  2  0  0  0  0  0  0  0  0  0
   -0.0570   16.2960   -1.5200 C   0  0  0  0  0  0  0  0  0  0  0  0
    1.9959   18.2020   -1.0795 H   0  0  0  0  0  0  0  0  0  0  0  0
    2.6037   19.3338   -2.3350 H   0  0  0  0  0  0  0  0  0  0  0  0
    0.8780   18.8351   -2.3350 H   0  0  0  0  0  0  0  0  0  0  0  0
    3.2188   17.5347   -3.5133 H   0  0  0  0  0  0  0  0  0  0  0  0
    0.2410   16.8988   -3.7023 H   0  0  0  0  0  0  0  0  0  0  0  0
    1.1944   18.0602   -4.7441 H   0  0  0  0  0  0  0  0  0  0  0  0
    2.5491   16.2060   -5.5817 H   0  0  0  0  0  0  0  0  0  0  0  0
    1.5779   15.0528   -4.5752 H   0  0  0  0  0  0  0  0  0  0  0  0
   -0.0956   16.6274   -5.7503 H   0  0  0  0  0  0  0  0  0  0  0  0
    2.9885   15.4318   -7.2337 H   0  0  0  0  0  0  0  0  0  0  0  0
    2.4525   14.5816   -8.7226 H   0  0  0  0  0  0  0  0  0  0  0  0
    2.6268   16.3694   -8.7226 H   0  0  0  0  0  0  0  0  0  0  0  0
   -0.9992   16.3725   -8.2714 H   0  0  0  0  0  0  0  0  0  0  0  0
    0.3509   16.8141   -9.3709 H   0  0  0  0  0  0  0  0  0  0  0  0
   -0.2960   15.1383   -9.3709 H   0  0  0  0  0  0  0  0  0  0  0  0
    3.0187   15.4551   -2.8563 H   0  0  0  0  0  0  0  0  0  0  0  0
    3.9963   16.1377   -0.7560 H   0  0  0  0  0  0  0  0  0  0  0  0
    2.7279   17.3492   -0.4712 H   0  0  0  0  0  0  0  0  0  0  0  0
    2.9191   14.8088    0.8231 H   0  0  0  0  0  0  0  0  0  0  0  0
    1.4748   15.8166    0.8353 H   0  0  0  0  0  0  0  0  0  0  0  0
    3.1010   12.8876   -0.2675 H   0  0  0  0  0  0  0  0  0  0  0  0
    2.2069   12.4800   -1.7712 H   0  0  0  0  0  0  0  0  0  0  0  0
    3.3986   13.8241   -1.7712 H   0  0  0  0  0  0  0  0  0  0  0  0
   -0.3647   14.3895    0.1622 H   0  0  0  0  0  0  0  0  0  0  0  0
    1.3631   13.1148    1.5858 H   0  0  0  0  0  0  0  0  0  0  0  0
   -0.4148   12.6368    1.5897 H   0  0  0  0  0  0  0  0  0  0  0  0
    1.3231   10.6581    1.5324 H   0  0  0  0  0  0  0  0  0  0  0  0
    0.7795   11.5856   -2.3598 H   0  0  0  0  0  0  0  0  0  0  0  0
   -1.8544   10.2241   -1.5217 H   0  0  0  0  0  0  0  0  0  0  0  0
   -1.4452   10.8964   -3.1624 H   0  0  0  0  0  0  0  0  0  0  0  0
   -1.2584    8.4313   -3.0874 H   0  0  0  0  0  0  0  0  0  0  0  0
    0.3159    9.2492   -3.4321 H   0  0  0  0  0  0  0  0  0  0  0  0
    0.6983    7.4691   -1.8679 H   0  0  0  0  0  0  0  0  0  0  0  0
   -0.7620    8.5640    0.2230 H   0  0  0  0  0  0  0  0  0  0  0  0
    3.3953    9.4647   -1.0315 H   0  0  0  0  0  0  0  0  0  0  0  0
    2.5964    8.4701   -2.2961 H   0  0  0  0  0  0  0  0  0  0  0  0
    2.3938   10.2550   -2.2961 H   0  0  0  0  0  0  0  0  0  0  0  0
    1.3869    8.9881    1.4060 H   0  0  0  0  0  0  0  0  0  0  0  0
    1.2637    7.4406    0.5022 H   0  0  0  0  0  0  0  0  0  0  0  0
    2.8067    8.3604    0.5022 H   0  0  0  0  0  0  0  0  0  0  0  0
   -1.9926   12.6564    0.3861 H   0  0  0  0  0  0  0  0  0  0  0  0
   -2.6557   13.4943   -1.0579 H   0  0  0  0  0  0  0  0  0  0  0  0
   -2.4819   11.7065   -1.0579 H   0  0  0  0  0  0  0  0  0  0  0  0
   -0.9779   12.9004   -3.4339 H   0  0  0  0  0  0  0  0  0  0  0  0
   -1.5128   14.3633   -2.4294 H   0  0  0  0  0  0  0  0  0  0  0  0
    1.2776   13.7234   -3.4228 H   0  0  0  0  0  0  0  0  0  0  0  0
    0.1964   15.0919   -3.8977 H   0  0  0  0  0  0  0  0  0  0  0  0
   -0.1178   16.3527   -0.4231 H   0  0  0  0  0  0  0  0  0  0  0  0
    0.1975   17.2866   -1.9248 H   0  0  0  0  0  0  0  0  0  0  0  0
   -1.0274   15.9727   -1.9248 H   0  0  0  0  0  0  0  0  0  0  0  0
  1  2  1  0
  2  3  1  0
  3  4  1  0
  4  5  1  0
  5  6  1  0
  6  7  1  0
  7  8  1  0
  7  9  1  0
  2 10  1  0
 10 11  1  0
 11 12  1  0
 12 13  1  0
 13 14  1  6
 13 15  1  0
 15 16  1  0
 16 17  1  0
 17 18  2  0
 18 19  1  0
 19 20  1  0
 20 21  1  0
 21 22  1  0
 22 23  1  0
 22 24  1  0
 24 25  1  0
 24 26  1  0
 19 27  1  0
 27 28  1  1
 27 29  1  0
 29 30  1  0
 30 31  1  0
 31 32  1  1
  7  5  1  0
 31 10  1  0
 31 13  1  0
 27 15  1  0
 24 18  1  0
  1 33  1  0
  1 34  1  0
  1 35  1  0
  2 36  1  6
  3 37  1  0
  3 38  1  0
  4 39  1  0
  4 40  1  0
  5 41  1  6
  8 42  1  0
  8 43  1  0
  8 44  1  0
  9 45  1  0
  9 46  1  0
  9 47  1  0
 10 48  1  6
 11 49  1  0
 11 50  1  0
 12 51  1  0
 12 52  1  0
 14 53  1  0
 14 54  1  0
 14 55  1  0
 15 56  1  1
 16 57  1  0
 16 58  1  0
 17 59  1  0
 19 60  1  6
 20 61  1  0
 20 62  1  0
 21 63  1  0
 21 64  1  0
 22 65  1  6
 23 66  1  0
 25 67  1  0
 25 68  1  0
 25 69  1  0
 26 70  1  0
 26 71  1  0
 26 72  1  0
 28 73  1  0
 28 74  1  0
 28 75  1  0
 29 76  1  0
 29 77  1  0
 30 78  1  0
 30 79  1  0
 32 80  1  0
 32 81  1  0
 32 82  1  0
M  END
>  <meeko>  (18) 
{"is_sidechain": [false], "intermolecular_energy": 2.731, "internal_energy": -0.839}

$$$$
