EPH_relaxed_0001_pdb2pqr_Repair_193_r2_0001_out
     RDKit          3D

 82 86  0  0  0  0  0  0  0  0999 V2000
   -1.7710    8.6960   -1.7750 C   0  0  0  0  0  0  0  0  0  0  0  0
   -1.7920    9.0710   -0.2910 C   0  0  2  0  0  0  0  0  0  0  0  0
   -3.2270    9.2710    0.2370 C   0  0  0  0  0  0  0  0  0  0  0  0
   -4.3050    9.1260   -0.8400 C   0  0  0  0  0  0  0  0  0  0  0  0
   -4.9260    7.7620   -0.8240 C   0  0  2  0  0  0  0  0  0  0  0  0
   -5.0090    7.1270   -2.1060 O   0  0  0  0  0  0  0  0  0  0  0  0
   -6.2600    7.4420   -1.4730 C   0  0  0  0  0  0  0  0  0  0  0  0
   -7.0540    8.4930   -2.1830 C   0  0  0  0  0  0  0  0  0  0  0  0
   -7.0150    6.2400   -1.0000 C   0  0  0  0  0  0  0  0  0  0  0  0
   -0.9720   10.3340   -0.0620 C   0  0  1  0  0  0  0  0  0  0  0  0
    0.0990   10.1580    1.0470 C   0  0  0  0  0  0  0  0  0  0  0  0
    1.3270   11.0030    0.6210 C   0  0  0  0  0  0  0  0  0  0  0  0
    0.8080   11.8910   -0.5340 C   0  0  1  0  0  0  0  0  0  0  0  0
    0.0780   13.0780    0.1700 C   0  0  0  0  0  0  0  0  0  0  0  0
    1.8810   12.3970   -1.5530 C   0  0  2  0  0  0  0  0  0  0  0  0
    2.9690   13.3070   -0.9570 C   0  0  0  0  0  0  0  0  0  0  0  0
    2.6640   14.7680   -0.9830 C   0  0  0  0  0  0  0  0  0  0  0  0
    1.6970   15.3520   -1.7150 C   0  0  0  0  0  0  0  0  0  0  0  0
    0.8530   14.5340   -2.7010 C   0  0  1  0  0  0  0  0  0  0  0  0
    0.7580   15.2880   -4.0530 C   0  0  0  0  0  0  0  0  0  0  0  0
    0.2470   16.7160   -3.8910 C   0  0  0  0  0  0  0  0  0  0  0  0
    1.1450   17.5150   -2.9500 C   0  0  2  0  0  0  0  0  0  0  0  0
    2.4240   17.6850   -3.5690 O   0  0  0  0  0  0  0  0  0  0  0  0
    1.3230   16.8460   -1.5580 C   0  0  0  0  0  0  0  0  0  0  0  0
   -0.0050   16.9340   -0.7660 C   0  0  0  0  0  0  0  0  0  0  0  0
    2.3620   17.6780   -0.7580 C   0  0  0  0  0  0  0  0  0  0  0  0
    1.2750   13.0120   -2.8790 C   0  0  1  0  0  0  0  0  0  0  0  0
    2.3820   12.8920   -3.9710 C   0  0  0  0  0  0  0  0  0  0  0  0
    0.0390   12.1940   -3.4080 C   0  0  0  0  0  0  0  0  0  0  0  0
   -0.9190   11.6190   -2.3480 C   0  0  0  0  0  0  0  0  0  0  0  0
   -0.1450   10.8720   -1.2570 C   0  0  2  0  0  0  0  0  0  0  0  0
    0.5820    9.6590   -1.9310 C   0  0  0  0  0  0  0  0  0  0  0  0
   -1.7098    7.6024   -1.8760 H   0  0  0  0  0  0  0  0  0  0  0  0
   -2.6908    9.0579   -2.2577 H   0  0  0  0  0  0  0  0  0  0  0  0
   -0.8973    9.1583   -2.2577 H   0  0  0  0  0  0  0  0  0  0  0  0
   -1.3482    8.2339    0.2679 H   0  0  0  0  0  0  0  0  0  0  0  0
   -3.4161    8.5225    1.0206 H   0  0  0  0  0  0  0  0  0  0  0  0
   -3.2889   10.3014    0.6170 H   0  0  0  0  0  0  0  0  0  0  0  0
   -5.0892    9.8766   -0.6625 H   0  0  0  0  0  0  0  0  0  0  0  0
   -3.8309    9.2750   -1.8213 H   0  0  0  0  0  0  0  0  0  0  0  0
   -4.5308    7.5683    0.1841 H   0  0  0  0  0  0  0  0  0  0  0  0
   -7.5452    9.1432   -1.4441 H   0  0  0  0  0  0  0  0  0  0  0  0
   -6.3836    9.0956   -2.8134 H   0  0  0  0  0  0  0  0  0  0  0  0
   -7.8169    8.0128   -2.8134 H   0  0  0  0  0  0  0  0  0  0  0  0
   -7.0256    6.2231    0.0998 H   0  0  0  0  0  0  0  0  0  0  0  0
   -8.0478    6.2843   -1.3760 H   0  0  0  0  0  0  0  0  0  0  0  0
   -6.5267    5.3289   -1.3760 H   0  0  0  0  0  0  0  0  0  0  0  0
   -1.7817   11.0373    0.1823 H   0  0  0  0  0  0  0  0  0  0  0  0
   -0.2914   10.5164    2.0109 H   0  0  0  0  0  0  0  0  0  0  0  0
    0.3712    9.0992    1.1687 H   0  0  0  0  0  0  0  0  0  0  0  0
    1.6813   11.6225    1.4581 H   0  0  0  0  0  0  0  0  0  0  0  0
    2.1784   10.3770    0.3156 H   0  0  0  0  0  0  0  0  0  0  0  0
    0.1515   12.9584    1.2610 H   0  0  0  0  0  0  0  0  0  0  0  0
    0.5491   14.0264   -0.1275 H   0  0  0  0  0  0  0  0  0  0  0  0
   -0.9810   13.0854   -0.1275 H   0  0  0  0  0  0  0  0  0  0  0  0
    2.3939   11.4665   -1.8378 H   0  0  0  0  0  0  0  0  0  0  0  0
    3.1231   13.0107    0.0911 H   0  0  0  0  0  0  0  0  0  0  0  0
    3.8589   13.1710   -1.5892 H   0  0  0  0  0  0  0  0  0  0  0  0
    3.2816   15.4227   -0.3506 H   0  0  0  0  0  0  0  0  0  0  0  0
   -0.1466   14.4522   -2.2491 H   0  0  0  0  0  0  0  0  0  0  0  0
    1.7582   15.3210   -4.5095 H   0  0  0  0  0  0  0  0  0  0  0  0
    0.0412   14.7466   -4.6879 H   0  0  0  0  0  0  0  0  0  0  0  0
    0.2311   17.2062   -4.8756 H   0  0  0  0  0  0  0  0  0  0  0  0
   -0.7654   16.6794   -3.4623 H   0  0  0  0  0  0  0  0  0  0  0  0
    0.6572   18.4847   -2.7716 H   0  0  0  0  0  0  0  0  0  0  0  0
    2.4690   18.5960   -3.9050 H   0  0  0  0  0  0  0  0  0  0  0  0
    0.2098   16.9198    0.3127 H   0  0  0  0  0  0  0  0  0  0  0  0
   -0.5246   17.8685   -1.0241 H   0  0  0  0  0  0  0  0  0  0  0  0
   -0.6434   16.0762   -1.0241 H   0  0  0  0  0  0  0  0  0  0  0  0
    2.1903   17.5405    0.3198 H   0  0  0  0  0  0  0  0  0  0  0  0
    3.3772   17.3403   -1.0136 H   0  0  0  0  0  0  0  0  0  0  0  0
    2.2544   18.7425   -1.0136 H   0  0  0  0  0  0  0  0  0  0  0  0
    3.3642   12.7855   -3.4873 H   0  0  0  0  0  0  0  0  0  0  0  0
    2.1845   12.0100   -4.5980 H   0  0  0  0  0  0  0  0  0  0  0  0
    2.3781   13.7958   -4.5980 H   0  0  0  0  0  0  0  0  0  0  0  0
   -0.5464   12.8597   -4.0593 H   0  0  0  0  0  0  0  0  0  0  0  0
    0.4695   11.3166   -3.9127 H   0  0  0  0  0  0  0  0  0  0  0  0
   -1.4837   12.4435   -1.8882 H   0  0  0  0  0  0  0  0  0  0  0  0
   -1.6026   10.9115   -2.8400 H   0  0  0  0  0  0  0  0  0  0  0  0
    0.9815    8.9924   -1.1526 H   0  0  0  0  0  0  0  0  0  0  0  0
   -0.1329    9.1047   -2.5569 H   0  0  0  0  0  0  0  0  0  0  0  0
    1.4078   10.0282   -2.5569 H   0  0  0  0  0  0  0  0  0  0  0  0
  1  2  1  0
  2  3  1  0
  3  4  1  0
  4  5  1  0
  5  6  1  0
  6  7  1  0
  7  8  1  0
  7  9  1  0
  2 10  1  0
 10 11  1  0
 11 12  1  0
 12 13  1  0
 13 14  1  1
 13 15  1  0
 15 16  1  0
 16 17  1  0
 17 18  2  0
 18 19  1  0
 19 20  1  0
 20 21  1  0
 21 22  1  0
 22 23  1  0
 22 24  1  0
 24 25  1  0
 24 26  1  0
 19 27  1  0
 27 28  1  6
 27 29  1  0
 29 30  1  0
 30 31  1  0
 31 32  1  6
  7  5  1  0
 31 10  1  0
 31 13  1  0
 27 15  1  0
 24 18  1  0
  1 33  1  0
  1 34  1  0
  1 35  1  0
  2 36  1  1
  3 37  1  0
  3 38  1  0
  4 39  1  0
  4 40  1  0
  5 41  1  1
  8 42  1  0
  8 43  1  0
  8 44  1  0
  9 45  1  0
  9 46  1  0
  9 47  1  0
 10 48  1  1
 11 49  1  0
 11 50  1  0
 12 51  1  0
 12 52  1  0
 14 53  1  0
 14 54  1  0
 14 55  1  0
 15 56  1  6
 16 57  1  0
 16 58  1  0
 17 59  1  0
 19 60  1  1
 20 61  1  0
 20 62  1  0
 21 63  1  0
 21 64  1  0
 22 65  1  1
 23 66  1  0
 25 67  1  0
 25 68  1  0
 25 69  1  0
 26 70  1  0
 26 71  1  0
 26 72  1  0
 28 73  1  0
 28 74  1  0
 28 75  1  0
 29 76  1  0
 29 77  1  0
 30 78  1  0
 30 79  1  0
 32 80  1  0
 32 81  1  0
 32 82  1  0
M  END
>  <meeko>  (1) 
{"is_sidechain": [false], "intermolecular_energy": 2.731, "internal_energy": -0.839}

$$$$
EPH_relaxed_0001_pdb2pqr_Repair_193_r2_0001_out
     RDKit          3D

 82 86  0  0  0  0  0  0  0  0999 V2000
    2.0870   18.0490   -3.0390 C   0  0  0  0  0  0  0  0  0  0  0  0
    0.7770   17.6700   -2.3430 C   0  0  2  0  0  0  0  0  0  0  0  0
    0.8680   17.8220   -0.8110 C   0  0  0  0  0  0  0  0  0  0  0  0
    0.9880   19.2750   -0.3430 C   0  0  0  0  0  0  0  0  0  0  0  0
   -0.3450   19.9580   -0.3080 C   0  0  2  0  0  0  0  0  0  0  0  0
   -0.8640   20.1890    1.0090 O   0  0  0  0  0  0  0  0  0  0  0  0
   -1.6160   19.2870    0.1800 C   0  0  0  0  0  0  0  0  0  0  0  0
   -1.6140   17.8710    0.6650 C   0  0  0  0  0  0  0  0  0  0  0  0
   -2.9330   19.8370   -0.2690 C   0  0  0  0  0  0  0  0  0  0  0  0
    0.3930   16.2390   -2.7020 C   0  0  1  0  0  0  0  0  0  0  0  0
    0.4950   15.9580   -4.2250 C   0  0  0  0  0  0  0  0  0  0  0  0
    0.9630   14.4870   -4.3780 C   0  0  0  0  0  0  0  0  0  0  0  0
    0.7960   13.8760   -2.9670 C   0  0  1  0  0  0  0  0  0  0  0  0
   -0.7190   13.5150   -2.8630 C   0  0  0  0  0  0  0  0  0  0  0  0
    1.7060   12.6490   -2.6330 C   0  0  2  0  0  0  0  0  0  0  0  0
    1.4770   11.4080   -3.5140 C   0  0  0  0  0  0  0  0  0  0  0  0
    0.4630   10.4400   -3.0000 C   0  0  0  0  0  0  0  0  0  0  0  0
   -0.0280   10.4130   -1.7470 C   0  0  0  0  0  0  0  0  0  0  0  0
    0.5110   11.3630   -0.6690 C   0  0  1  0  0  0  0  0  0  0  0  0
    0.7810   10.5660    0.6340 C   0  0  0  0  0  0  0  0  0  0  0  0
   -0.4400    9.7820    1.1050 C   0  0  0  0  0  0  0  0  0  0  0  0
   -0.9100    8.8070    0.0280 C   0  0  2  0  0  0  0  0  0  0  0  0
    0.0890    7.7980   -0.1480 O   0  0  0  0  0  0  0  0  0  0  0  0
   -1.2050    9.4950   -1.3340 C   0  0  0  0  0  0  0  0  0  0  0  0
   -2.4800   10.3640   -1.2140 C   0  0  0  0  0  0  0  0  0  0  0  0
   -1.5320    8.3840   -2.3680 C   0  0  0  0  0  0  0  0  0  0  0  0
    1.7440   12.2690   -1.0970 C   0  0  1  0  0  0  0  0  0  0  0  0
    3.0780   11.4980   -0.8620 C   0  0  0  0  0  0  0  0  0  0  0  0
    1.7950   13.5390   -0.1680 C   0  0  0  0  0  0  0  0  0  0  0  0
    0.9690   14.7610   -0.6140 C   0  0  0  0  0  0  0  0  0  0  0  0
    1.2400   15.0980   -2.0830 C   0  0  2  0  0  0  0  0  0  0  0  0
    2.7520   15.4870   -2.2140 C   0  0  0  0  0  0  0  0  0  0  0  0
    2.8536   18.2708   -2.2819 H   0  0  0  0  0  0  0  0  0  0  0  0
    2.4239   17.2115   -3.6676 H   0  0  0  0  0  0  0  0  0  0  0  0
    1.9247   18.9370   -3.6676 H   0  0  0  0  0  0  0  0  0  0  0  0
    0.0009   18.3639   -2.6982 H   0  0  0  0  0  0  0  0  0  0  0  0
   -0.0382   17.3869   -0.3644 H   0  0  0  0  0  0  0  0  0  0  0  0
    1.7839   17.3041   -0.4903 H   0  0  0  0  0  0  0  0  0  0  0  0
    1.4225   19.2893    0.6675 H   0  0  0  0  0  0  0  0  0  0  0  0
    1.6302   19.8129   -1.0560 H   0  0  0  0  0  0  0  0  0  0  0  0
   -0.1111   20.5149   -1.2273 H   0  0  0  0  0  0  0  0  0  0  0  0
   -1.6140   17.8602    1.7649 H   0  0  0  0  0  0  0  0  0  0  0  0
   -2.5114   17.3548    0.2932 H   0  0  0  0  0  0  0  0  0  0  0  0
   -0.7151   17.3574    0.2932 H   0  0  0  0  0  0  0  0  0  0  0  0
   -3.5429   20.0917    0.6103 H   0  0  0  0  0  0  0  0  0  0  0  0
   -2.7661   20.7406   -0.8737 H   0  0  0  0  0  0  0  0  0  0  0  0
   -3.4583   19.0830   -0.8737 H   0  0  0  0  0  0  0  0  0  0  0  0
   -0.6277   16.2136   -2.2928 H   0  0  0  0  0  0  0  0  0  0  0  0
   -0.4867   16.0948   -4.7021 H   0  0  0  0  0  0  0  0  0  0  0  0
    1.2011   16.6495   -4.7079 H   0  0  0  0  0  0  0  0  0  0  0  0
    0.3366   13.9542   -5.1086 H   0  0  0  0  0  0  0  0  0  0  0  0
    1.9976   14.4143   -4.7444 H   0  0  0  0  0  0  0  0  0  0  0  0
   -1.0077   13.4462   -1.8038 H   0  0  0  0  0  0  0  0  0  0  0  0
   -1.3167   14.2959   -3.3560 H   0  0  0  0  0  0  0  0  0  0  0  0
   -0.9003   12.5485   -3.3560 H   0  0  0  0  0  0  0  0  0  0  0  0
    2.7080   13.0201   -2.8945 H   0  0  0  0  0  0  0  0  0  0  0  0
    1.1473   11.7512   -4.5057 H   0  0  0  0  0  0  0  0  0  0  0  0
    2.4341   10.8660   -3.5314 H   0  0  0  0  0  0  0  0  0  0  0  0
    0.0852    9.6849   -3.7051 H   0  0  0  0  0  0  0  0  0  0  0  0
   -0.2806   12.1067   -0.4948 H   0  0  0  0  0  0  0  0  0  0  0  0
    1.6042    9.8597    0.4510 H   0  0  0  0  0  0  0  0  0  0  0  0
    1.0361   11.2906    1.4213 H   0  0  0  0  0  0  0  0  0  0  0  0
   -0.1778    9.2177    2.0121 H   0  0  0  0  0  0  0  0  0  0  0  0
   -1.2535   10.4917    1.3159 H   0  0  0  0  0  0  0  0  0  0  0  0
   -1.8596    8.3696    0.3701 H   0  0  0  0  0  0  0  0  0  0  0  0
   -0.2640    6.9690    0.2170 H   0  0  0  0  0  0  0  0  0  0  0  0
   -2.7156   10.5246   -0.1516 H   0  0  0  0  0  0  0  0  0  0  0  0
   -2.3095   11.3347   -1.7026 H   0  0  0  0  0  0  0  0  0  0  0  0
   -3.3211    9.8504   -1.7026 H   0  0  0  0  0  0  0  0  0  0  0  0
   -1.8042    7.4590   -1.8386 H   0  0  0  0  0  0  0  0  0  0  0  0
   -2.3733    8.7065   -2.9990 H   0  0  0  0  0  0  0  0  0  0  0  0
   -0.6501    8.1993   -2.9990 H   0  0  0  0  0  0  0  0  0  0  0  0
    3.2564   11.3949    0.2185 H   0  0  0  0  0  0  0  0  0  0  0  0
    3.0101   10.4999   -1.3193 H   0  0  0  0  0  0  0  0  0  0  0  0
    3.9090   12.0551   -1.3193 H   0  0  0  0  0  0  0  0  0  0  0  0
    1.4336   13.2383    0.8265 H   0  0  0  0  0  0  0  0  0  0  0  0
    2.8423   13.8741   -0.1967 H   0  0  0  0  0  0  0  0  0  0  0  0
   -0.1007   14.5382   -0.4872 H   0  0  0  0  0  0  0  0  0  0  0  0
    1.2579   15.6244    0.0034 H   0  0  0  0  0  0  0  0  0  0  0  0
    3.1898   15.5996   -1.2112 H   0  0  0  0  0  0  0  0  0  0  0  0
    3.2877   14.6974   -2.7614 H   0  0  0  0  0  0  0  0  0  0  0  0
    2.8401   16.4371   -2.7614 H   0  0  0  0  0  0  0  0  0  0  0  0
  1  2  1  0
  2  3  1  0
  3  4  1  0
  4  5  1  0
  5  6  1  0
  6  7  1  0
  7  8  1  0
  7  9  1  0
  2 10  1  0
 10 11  1  0
 11 12  1  0
 12 13  1  0
 13 14  1  1
 13 15  1  0
 15 16  1  0
 16 17  1  0
 17 18  2  0
 18 19  1  0
 19 20  1  0
 20 21  1  0
 21 22  1  0
 22 23  1  0
 22 24  1  0
 24 25  1  0
 24 26  1  0
 19 27  1  0
 27 28  1  6
 27 29  1  0
 29 30  1  0
 30 31  1  0
 31 32  1  1
  7  5  1  0
 31 10  1  0
 31 13  1  0
 27 15  1  0
 24 18  1  0
  1 33  1  0
  1 34  1  0
  1 35  1  0
  2 36  1  6
  3 37  1  0
  3 38  1  0
  4 39  1  0
  4 40  1  0
  5 41  1  6
  8 42  1  0
  8 43  1  0
  8 44  1  0
  9 45  1  0
  9 46  1  0
  9 47  1  0
 10 48  1  1
 11 49  1  0
 11 50  1  0
 12 51  1  0
 12 52  1  0
 14 53  1  0
 14 54  1  0
 14 55  1  0
 15 56  1  6
 16 57  1  0
 16 58  1  0
 17 59  1  0
 19 60  1  1
 20 61  1  0
 20 62  1  0
 21 63  1  0
 21 64  1  0
 22 65  1  1
 23 66  1  0
 25 67  1  0
 25 68  1  0
 25 69  1  0
 26 70  1  0
 26 71  1  0
 26 72  1  0
 28 73  1  0
 28 74  1  0
 28 75  1  0
 29 76  1  0
 29 77  1  0
 30 78  1  0
 30 79  1  0
 32 80  1  0
 32 81  1  0
 32 82  1  0
M  END
>  <meeko>  (2) 
{"is_sidechain": [false], "intermolecular_energy": 2.731, "internal_energy": -0.839}

$$$$
EPH_relaxed_0001_pdb2pqr_Repair_193_r2_0001_out
     RDKit          3D

 82 86  0  0  0  0  0  0  0  0999 V2000
   -0.2930   18.5230   -2.1990 C   0  0  0  0  0  0  0  0  0  0  0  0
    0.8480   17.5460   -1.9050 C   0  0  2  0  0  0  0  0  0  0  0  0
    2.1670   17.9730   -2.5800 C   0  0  0  0  0  0  0  0  0  0  0  0
    2.8680   19.1390   -1.8780 C   0  0  0  0  0  0  0  0  0  0  0  0
    3.5940   18.6880   -0.6470 C   0  0  2  0  0  0  0  0  0  0  0  0
    2.8010   17.9220    0.2690 O   0  0  0  0  0  0  0  0  0  0  0  0
    3.2700   19.1930    0.7470 C   0  0  0  0  0  0  0  0  0  0  0  0
    2.1820   20.1940    0.9810 C   0  0  0  0  0  0  0  0  0  0  0  0
    4.3200   19.0880    1.8090 C   0  0  0  0  0  0  0  0  0  0  0  0
    0.4610   16.1430   -2.3600 C   0  0  1  0  0  0  0  0  0  0  0  0
    0.6180   15.9470   -3.8910 C   0  0  0  0  0  0  0  0  0  0  0  0
    1.0740   14.4810   -4.1100 C   0  0  0  0  0  0  0  0  0  0  0  0
    0.8450   13.7940   -2.7430 C   0  0  1  0  0  0  0  0  0  0  0  0
   -0.6770   13.4490   -2.7170 C   0  0  0  0  0  0  0  0  0  0  0  0
    1.7270   12.5370   -2.4460 C   0  0  2  0  0  0  0  0  0  0  0  0
    1.5170   11.3510   -3.4040 C   0  0  0  0  0  0  0  0  0  0  0  0
    0.4730   10.3700   -2.9840 C   0  0  0  0  0  0  0  0  0  0  0  0
   -0.0660   10.2790   -1.7540 C   0  0  0  0  0  0  0  0  0  0  0  0
    0.4420   11.1590   -0.6040 C   0  0  1  0  0  0  0  0  0  0  0  0
    0.6530   10.2870    0.6610 C   0  0  0  0  0  0  0  0  0  0  0  0
   -0.5940    9.4940    1.0400 C   0  0  0  0  0  0  0  0  0  0  0  0
   -1.0350    8.5890   -0.1070 C   0  0  2  0  0  0  0  0  0  0  0  0
   -0.0420    7.5770   -0.3030 O   0  0  0  0  0  0  0  0  0  0  0  0
   -1.2690    9.3560   -1.4380 C   0  0  0  0  0  0  0  0  0  0  0  0
   -2.5380   10.2350   -1.3160 C   0  0  0  0  0  0  0  0  0  0  0  0
   -1.5700    8.3100   -2.5460 C   0  0  0  0  0  0  0  0  0  0  0  0
    1.7010   12.0710   -0.9340 C   0  0  1  0  0  0  0  0  0  0  0  0
    3.0170   11.2690   -0.6930 C   0  0  0  0  0  0  0  0  0  0  0  0
    1.7330   13.2850    0.0680 C   0  0  0  0  0  0  0  0  0  0  0  0
    0.9390   14.5420   -0.3390 C   0  0  0  0  0  0  0  0  0  0  0  0
    1.2700   14.9580   -1.7760 C   0  0  2  0  0  0  0  0  0  0  0  0
    2.7900   15.3320   -1.8280 C   0  0  0  0  0  0  0  0  0  0  0  0
   -0.7176   18.8866   -1.2516 H   0  0  0  0  0  0  0  0  0  0  0  0
    0.0935   19.3745   -2.7783 H   0  0  0  0  0  0  0  0  0  0  0  0
   -1.0748   18.0100   -2.7783 H   0  0  0  0  0  0  0  0  0  0  0  0
    1.0165   17.5517   -0.8180 H   0  0  0  0  0  0  0  0  0  0  0  0
    2.8494   17.1102   -2.5858 H   0  0  0  0  0  0  0  0  0  0  0  0
    1.9133   18.3141   -3.5945 H   0  0  0  0  0  0  0  0  0  0  0  0
    3.5910   19.5910   -2.5730 H   0  0  0  0  0  0  0  0  0  0  0  0
    2.1021   19.8689   -1.5768 H   0  0  0  0  0  0  0  0  0  0  0  0
    4.5399   18.6129   -1.2035 H   0  0  0  0  0  0  0  0  0  0  0  0
    2.0348   20.3294    2.0627 H   0  0  0  0  0  0  0  0  0  0  0  0
    2.4639   21.1551    0.5262 H   0  0  0  0  0  0  0  0  0  0  0  0
    1.2477   19.8331    0.5262 H   0  0  0  0  0  0  0  0  0  0  0  0
    3.8451   19.1355    2.8001 H   0  0  0  0  0  0  0  0  0  0  0  0
    4.8538   18.1320    1.7036 H   0  0  0  0  0  0  0  0  0  0  0  0
    5.0325   19.9194    1.7036 H   0  0  0  0  0  0  0  0  0  0  0  0
   -0.5751   16.1090   -1.9922 H   0  0  0  0  0  0  0  0  0  0  0  0
   -0.3430   16.1242   -4.3961 H   0  0  0  0  0  0  0  0  0  0  0  0
    1.3504   16.6547   -4.3067 H   0  0  0  0  0  0  0  0  0  0  0  0
    0.4701   13.9991   -4.8930 H   0  0  0  0  0  0  0  0  0  0  0  0
    2.1210   14.4143   -4.4407 H   0  0  0  0  0  0  0  0  0  0  0  0
   -1.0177   13.3718   -1.6739 H   0  0  0  0  0  0  0  0  0  0  0  0
   -1.2415   14.2420   -3.2294 H   0  0  0  0  0  0  0  0  0  0  0  0
   -0.8444   12.4901   -3.2294 H   0  0  0  0  0  0  0  0  0  0  0  0
    2.7427   12.9074   -2.6488 H   0  0  0  0  0  0  0  0  0  0  0  0
    1.2293   11.7541   -4.3862 H   0  0  0  0  0  0  0  0  0  0  0  0
    2.4676   10.7976   -3.4166 H   0  0  0  0  0  0  0  0  0  0  0  0
    0.1136    9.6612   -3.7445 H   0  0  0  0  0  0  0  0  0  0  0  0
   -0.3475   11.9018   -0.4171 H   0  0  0  0  0  0  0  0  0  0  0  0
    1.4749    9.5814    0.4697 H   0  0  0  0  0  0  0  0  0  0  0  0
    0.8857   10.9628    1.4972 H   0  0  0  0  0  0  0  0  0  0  0  0
   -0.3727    8.8751    1.9221 H   0  0  0  0  0  0  0  0  0  0  0  0
   -1.4065   10.2020    1.2606 H   0  0  0  0  0  0  0  0  0  0  0  0
   -2.0025    8.1477    0.1743 H   0  0  0  0  0  0  0  0  0  0  0  0
    0.4620    7.8100   -1.1010 H   0  0  0  0  0  0  0  0  0  0  0  0
   -2.7713   10.3966   -0.2532 H   0  0  0  0  0  0  0  0  0  0  0  0
   -2.3607   11.2047   -1.8040 H   0  0  0  0  0  0  0  0  0  0  0  0
   -3.3835    9.7281   -1.8040 H   0  0  0  0  0  0  0  0  0  0  0  0
   -1.8457    7.3521   -2.0808 H   0  0  0  0  0  0  0  0  0  0  0  0
   -2.4019    8.6669   -3.1710 H   0  0  0  0  0  0  0  0  0  0  0  0
   -0.6756    8.1702   -3.1710 H   0  0  0  0  0  0  0  0  0  0  0  0
    3.1895   11.1639    0.3883 H   0  0  0  0  0  0  0  0  0  0  0  0
    2.9274   10.2718   -1.1487 H   0  0  0  0  0  0  0  0  0  0  0  0
    3.8622   11.8057   -1.1487 H   0  0  0  0  0  0  0  0  0  0  0  0
    1.3305   12.9338    1.0296 H   0  0  0  0  0  0  0  0  0  0  0  0
    2.7847   13.6058    0.0987 H   0  0  0  0  0  0  0  0  0  0  0  0
   -0.1373   14.3273   -0.2653 H   0  0  0  0  0  0  0  0  0  0  0  0
    1.2144   15.3651    0.3368 H   0  0  0  0  0  0  0  0  0  0  0  0
    3.1793   15.4278   -0.8037 H   0  0  0  0  0  0  0  0  0  0  0  0
    3.3437   14.5433   -2.3584 H   0  0  0  0  0  0  0  0  0  0  0  0
    2.9145   16.2876   -2.3584 H   0  0  0  0  0  0  0  0  0  0  0  0
  1  2  1  0
  2  3  1  0
  3  4  1  0
  4  5  1  0
  5  6  1  0
  6  7  1  0
  7  8  1  0
  7  9  1  0
  2 10  1  0
 10 11  1  0
 11 12  1  0
 12 13  1  0
 13 14  1  1
 13 15  1  0
 15 16  1  0
 16 17  1  0
 17 18  2  0
 18 19  1  0
 19 20  1  0
 20 21  1  0
 21 22  1  0
 22 23  1  0
 22 24  1  0
 24 25  1  0
 24 26  1  0
 19 27  1  0
 27 28  1  1
 27 29  1  0
 29 30  1  0
 30 31  1  0
 31 32  1  1
  7  5  1  0
 31 10  1  0
 31 13  1  0
 27 15  1  0
 24 18  1  0
  1 33  1  0
  1 34  1  0
  1 35  1  0
  2 36  1  1
  3 37  1  0
  3 38  1  0
  4 39  1  0
  4 40  1  0
  5 41  1  6
  8 42  1  0
  8 43  1  0
  8 44  1  0
  9 45  1  0
  9 46  1  0
  9 47  1  0
 10 48  1  6
 11 49  1  0
 11 50  1  0
 12 51  1  0
 12 52  1  0
 14 53  1  0
 14 54  1  0
 14 55  1  0
 15 56  1  6
 16 57  1  0
 16 58  1  0
 17 59  1  0
 19 60  1  1
 20 61  1  0
 20 62  1  0
 21 63  1  0
 21 64  1  0
 22 65  1  1
 23 66  1  0
 25 67  1  0
 25 68  1  0
 25 69  1  0
 26 70  1  0
 26 71  1  0
 26 72  1  0
 28 73  1  0
 28 74  1  0
 28 75  1  0
 29 76  1  0
 29 77  1  0
 30 78  1  0
 30 79  1  0
 32 80  1  0
 32 81  1  0
 32 82  1  0
M  END
>  <meeko>  (3) 
{"is_sidechain": [false], "intermolecular_energy": 2.731, "internal_energy": -0.839}

$$$$
EPH_relaxed_0001_pdb2pqr_Repair_193_r2_0001_out
     RDKit          3D

 82 86  0  0  0  0  0  0  0  0999 V2000
   -5.1790    5.8520   -1.6500 C   0  0  0  0  0  0  0  0  0  0  0  0
   -5.4540    7.3540   -1.7660 C   0  0  2  0  0  0  0  0  0  0  0  0
   -5.2120    8.0940   -0.4350 C   0  0  0  0  0  0  0  0  0  0  0  0
   -4.1680    9.2090   -0.5320 C   0  0  0  0  0  0  0  0  0  0  0  0
   -2.8030    8.6670   -0.8300 C   0  0  2  0  0  0  0  0  0  0  0  0
   -1.8140    8.9560    0.1660 O   0  0  0  0  0  0  0  0  0  0  0  0
   -1.6010    9.5440   -1.1270 C   0  0  0  0  0  0  0  0  0  0  0  0
   -1.7090   11.0370   -1.1420 C   0  0  0  0  0  0  0  0  0  0  0  0
   -0.4500    8.9500   -1.8780 C   0  0  0  0  0  0  0  0  0  0  0  0
   -6.8850    7.5840   -2.2370 C   0  0  1  0  0  0  0  0  0  0  0  0
   -7.1890    6.8870   -3.5900 C   0  0  0  0  0  0  0  0  0  0  0  0
   -8.6660    6.4190   -3.5310 C   0  0  0  0  0  0  0  0  0  0  0  0
   -9.2560    7.1460   -2.3000 C   0  0  1  0  0  0  0  0  0  0  0  0
   -9.5990    8.5810   -2.8070 C   0  0  0  0  0  0  0  0  0  0  0  0
  -10.4880    6.4640   -1.6200 C   0  0  2  0  0  0  0  0  0  0  0  0
  -11.7380    6.3410   -2.5080 C   0  0  0  0  0  0  0  0  0  0  0  0
  -12.6880    7.4900   -2.4340 C   0  0  0  0  0  0  0  0  0  0  0  0
  -12.6930    8.4410   -1.4820 C   0  0  0  0  0  0  0  0  0  0  0  0
  -11.7350    8.3630   -0.2870 C   0  0  1  0  0  0  0  0  0  0  0  0
  -12.5160    8.6480    1.0230 C   0  0  0  0  0  0  0  0  0  0  0  0
  -13.2800    9.9680    0.9730 C   0  0  0  0  0  0  0  0  0  0  0  0
  -14.2640    9.9840   -0.1940 C   0  0  2  0  0  0  0  0  0  0  0  0
  -15.2870    9.0130    0.0520 O   0  0  0  0  0  0  0  0  0  0  0  0
  -13.5930    9.6990   -1.5660 C   0  0  0  0  0  0  0  0  0  0  0  0
  -12.7080   10.9030   -1.9730 C   0  0  0  0  0  0  0  0  0  0  0  0
  -14.7140    9.6030   -2.6360 C   0  0  0  0  0  0  0  0  0  0  0  0
  -10.8470    7.0480   -0.1940 C   0  0  1  0  0  0  0  0  0  0  0  0
  -11.6300    5.9300    0.5610 C   0  0  0  0  0  0  0  0  0  0  0  0
   -9.5650    7.3530    0.6680 C   0  0  0  0  0  0  0  0  0  0  0  0
   -8.3410    7.9130   -0.0810 C   0  0  0  0  0  0  0  0  0  0  0  0
   -8.0260    7.0730   -1.3220 C   0  0  2  0  0  0  0  0  0  0  0  0
   -7.6560    5.6290   -0.8420 C   0  0  0  0  0  0  0  0  0  0  0  0
   -5.1273    5.5696   -0.5881 H   0  0  0  0  0  0  0  0  0  0  0  0
   -5.9895    5.2920   -2.1393 H   0  0  0  0  0  0  0  0  0  0  0  0
   -4.2226    5.6155   -2.1393 H   0  0  0  0  0  0  0  0  0  0  0  0
   -4.7484    7.7639   -2.5037 H   0  0  0  0  0  0  0  0  0  0  0  0
   -6.1636    8.5369   -0.1059 H   0  0  0  0  0  0  0  0  0  0  0  0
   -4.8250    7.3525    0.2794 H   0  0  0  0  0  0  0  0  0  0  0  0
   -4.4597    9.9013   -1.3355 H   0  0  0  0  0  0  0  0  0  0  0  0
   -4.1272    9.7254    0.4384 H   0  0  0  0  0  0  0  0  0  0  0  0
   -3.2351    7.8040   -1.3578 H   0  0  0  0  0  0  0  0  0  0  0  0
   -1.7362   11.4131   -0.1086 H   0  0  0  0  0  0  0  0  0  0  0  0
   -0.8393   11.4623   -1.6642 H   0  0  0  0  0  0  0  0  0  0  0  0
   -2.6309   11.3327   -1.6642 H   0  0  0  0  0  0  0  0  0  0  0  0
    0.2942    8.5660   -1.1647 H   0  0  0  0  0  0  0  0  0  0  0  0
   -0.8111    8.1257   -2.5105 H   0  0  0  0  0  0  0  0  0  0  0  0
    0.0126    9.7219   -2.5105 H   0  0  0  0  0  0  0  0  0  0  0  0
   -6.8929    8.6835   -2.2700 H   0  0  0  0  0  0  0  0  0  0  0  0
   -7.0489    7.5947   -4.4204 H   0  0  0  0  0  0  0  0  0  0  0  0
   -6.5118    6.0363   -3.7567 H   0  0  0  0  0  0  0  0  0  0  0  0
   -9.2021    6.7084   -4.4469 H   0  0  0  0  0  0  0  0  0  0  0  0
   -8.7545    5.3254   -3.4520 H   0  0  0  0  0  0  0  0  0  0  0  0
   -9.7580    9.2461   -1.9454 H   0  0  0  0  0  0  0  0  0  0  0  0
   -8.7669    8.9632   -3.4166 H   0  0  0  0  0  0  0  0  0  0  0  0
  -10.5140    8.5456   -3.4166 H   0  0  0  0  0  0  0  0  0  0  0  0
  -10.1311    5.4355   -1.4628 H   0  0  0  0  0  0  0  0  0  0  0  0
  -11.4051    6.2418   -3.5517 H   0  0  0  0  0  0  0  0  0  0  0  0
  -12.2902    5.4651   -2.1367 H   0  0  0  0  0  0  0  0  0  0  0  0
  -13.4487    7.5658   -3.2250 H   0  0  0  0  0  0  0  0  0  0  0  0
  -10.9815    9.1475   -0.4506 H   0  0  0  0  0  0  0  0  0  0  0  0
  -13.2336    7.8313    1.1906 H   0  0  0  0  0  0  0  0  0  0  0  0
  -11.7832    8.7169    1.8405 H   0  0  0  0  0  0  0  0  0  0  0  0
  -13.8349   10.0988    1.9138 H   0  0  0  0  0  0  0  0  0  0  0  0
  -12.5584   10.7868    0.8355 H   0  0  0  0  0  0  0  0  0  0  0  0
  -14.6850   10.9984   -0.2559 H   0  0  0  0  0  0  0  0  0  0  0  0
  -15.5520    9.0950    0.9840 H   0  0  0  0  0  0  0  0  0  0  0  0
  -12.3371   11.4077   -1.0687 H   0  0  0  0  0  0  0  0  0  0  0  0
  -11.8555   10.5463   -2.5697 H   0  0  0  0  0  0  0  0  0  0  0  0
  -13.3029   11.6102   -2.5697 H   0  0  0  0  0  0  0  0  0  0  0  0
  -15.6908    9.5193   -2.1372 H   0  0  0  0  0  0  0  0  0  0  0  0
  -14.6993   10.5057   -3.2644 H   0  0  0  0  0  0  0  0  0  0  0  0
  -14.5460    8.7160   -3.2644 H   0  0  0  0  0  0  0  0  0  0  0  0
  -11.5261    6.0784    1.6460 H   0  0  0  0  0  0  0  0  0  0  0  0
  -12.6937    5.9768    0.2847 H   0  0  0  0  0  0  0  0  0  0  0  0
  -11.2224    4.9464    0.2847 H   0  0  0  0  0  0  0  0  0  0  0  0
   -9.8482    8.0862    1.4375 H   0  0  0  0  0  0  0  0  0  0  0  0
   -9.2416    6.3766    1.0580 H   0  0  0  0  0  0  0  0  0  0  0  0
   -8.5509    8.9475   -0.3905 H   0  0  0  0  0  0  0  0  0  0  0  0
   -7.4726    7.8814    0.5934 H   0  0  0  0  0  0  0  0  0  0  0  0
   -7.6483    5.5988    0.2576 H   0  0  0  0  0  0  0  0  0  0  0  0
   -8.4000    4.9140   -1.2232 H   0  0  0  0  0  0  0  0  0  0  0  0
   -6.6599    5.3599   -1.2232 H   0  0  0  0  0  0  0  0  0  0  0  0
  1  2  1  0
  2  3  1  0
  3  4  1  0
  4  5  1  0
  5  6  1  0
  6  7  1  0
  7  8  1  0
  7  9  1  0
  2 10  1  0
 10 11  1  0
 11 12  1  0
 12 13  1  0
 13 14  1  6
 13 15  1  0
 15 16  1  0
 16 17  1  0
 17 18  2  0
 18 19  1  0
 19 20  1  0
 20 21  1  0
 21 22  1  0
 22 23  1  0
 22 24  1  0
 24 25  1  0
 24 26  1  0
 19 27  1  0
 27 28  1  1
 27 29  1  0
 29 30  1  0
 30 31  1  0
 31 32  1  1
  7  5  1  0
 31 10  1  0
 31 13  1  0
 27 15  1  0
 24 18  1  0
  1 33  1  0
  1 34  1  0
  1 35  1  0
  2 36  1  6
  3 37  1  0
  3 38  1  0
  4 39  1  0
  4 40  1  0
  5 41  1  6
  8 42  1  0
  8 43  1  0
  8 44  1  0
  9 45  1  0
  9 46  1  0
  9 47  1  0
 10 48  1  6
 11 49  1  0
 11 50  1  0
 12 51  1  0
 12 52  1  0
 14 53  1  0
 14 54  1  0
 14 55  1  0
 15 56  1  1
 16 57  1  0
 16 58  1  0
 17 59  1  0
 19 60  1  6
 20 61  1  0
 20 62  1  0
 21 63  1  0
 21 64  1  0
 22 65  1  6
 23 66  1  0
 25 67  1  0
 25 68  1  0
 25 69  1  0
 26 70  1  0
 26 71  1  0
 26 72  1  0
 28 73  1  0
 28 74  1  0
 28 75  1  0
 29 76  1  0
 29 77  1  0
 30 78  1  0
 30 79  1  0
 32 80  1  0
 32 81  1  0
 32 82  1  0
M  END
>  <meeko>  (4) 
{"is_sidechain": [false], "intermolecular_energy": 2.731, "internal_energy": -0.839}

$$$$
EPH_relaxed_0001_pdb2pqr_Repair_193_r2_0001_out
     RDKit          3D

 82 86  0  0  0  0  0  0  0  0999 V2000
    3.9940   17.9550   -0.4390 C   0  0  0  0  0  0  0  0  0  0  0  0
    2.5720   18.4910   -0.6250 C   0  0  2  0  0  0  0  0  0  0  0  0
    2.1810   19.4970    0.4760 C   0  0  0  0  0  0  0  0  0  0  0  0
    3.3810   20.1180    1.1960 C   0  0  0  0  0  0  0  0  0  0  0  0
    3.7270   19.3670    2.4460 C   0  0  2  0  0  0  0  0  0  0  0  0
    4.0150   20.1940    3.5810 O   0  0  0  0  0  0  0  0  0  0  0  0
    5.1030   19.3970    3.0860 C   0  0  0  0  0  0  0  0  0  0  0  0
    6.2220   20.1940    2.4940 C   0  0  0  0  0  0  0  0  0  0  0  0
    5.4920   18.2750    3.9980 C   0  0  0  0  0  0  0  0  0  0  0  0
    1.5800   17.3330   -0.6500 C   0  0  1  0  0  0  0  0  0  0  0  0
    0.2030   17.7390   -1.2390 C   0  0  0  0  0  0  0  0  0  0  0  0
   -0.3340   16.5060   -2.0100 C   0  0  0  0  0  0  0  0  0  0  0  0
    0.5800   15.3400   -1.5670 C   0  0  1  0  0  0  0  0  0  0  0  0
    0.0090   14.8840   -0.1880 C   0  0  0  0  0  0  0  0  0  0  0  0
    0.7050   14.1430   -2.5650 C   0  0  2  0  0  0  0  0  0  0  0  0
   -0.6060   13.3890   -2.8470 C   0  0  0  0  0  0  0  0  0  0  0  0
   -0.8880   12.2380   -1.9400 C   0  0  0  0  0  0  0  0  0  0  0  0
    0.0050   11.6480   -1.1240 C   0  0  0  0  0  0  0  0  0  0  0  0
    1.4790   12.0720   -1.1320 C   0  0  1  0  0  0  0  0  0  0  0  0
    2.3810   10.8100   -1.1670 C   0  0  0  0  0  0  0  0  0  0  0  0
    2.0610    9.8320   -0.0410 C   0  0  0  0  0  0  0  0  0  0  0  0
    0.6020    9.3880   -0.1010 C   0  0  2  0  0  0  0  0  0  0  0  0
    0.4050    8.6110   -1.2860 O   0  0  0  0  0  0  0  0  0  0  0  0
   -0.4000   10.5760   -0.0820 C   0  0  0  0  0  0  0  0  0  0  0  0
   -0.4000   11.2350    1.3190 C   0  0  0  0  0  0  0  0  0  0  0  0
   -1.8270   10.0000   -0.2910 C   0  0  0  0  0  0  0  0  0  0  0  0
    1.8860   13.1440   -2.2330 C   0  0  1  0  0  0  0  0  0  0  0  0
    2.2480   12.4240   -3.5680 C   0  0  0  0  0  0  0  0  0  0  0  0
    3.1900   13.8920   -1.7650 C   0  0  0  0  0  0  0  0  0  0  0  0
    2.9950   15.1380   -0.8790 C   0  0  0  0  0  0  0  0  0  0  0  0
    1.9610   16.0880   -1.4890 C   0  0  2  0  0  0  0  0  0  0  0  0
    2.5180   16.5810   -2.8680 C   0  0  0  0  0  0  0  0  0  0  0  0
    4.2167   17.8711    0.6350 H   0  0  0  0  0  0  0  0  0  0  0  0
    4.0767   16.9640   -0.9092 H   0  0  0  0  0  0  0  0  0  0  0  0
    4.7103   18.6448   -0.9092 H   0  0  0  0  0  0  0  0  0  0  0  0
    2.5430   19.0267   -1.5853 H   0  0  0  0  0  0  0  0  0  0  0  0
    1.5956   20.3062    0.0151 H   0  0  0  0  0  0  0  0  0  0  0  0
    1.6058   18.9405    1.2306 H   0  0  0  0  0  0  0  0  0  0  0  0
    4.2487   20.1040    0.5200 H   0  0  0  0  0  0  0  0  0  0  0  0
    3.1168   21.1482    1.4770 H   0  0  0  0  0  0  0  0  0  0  0  0
    3.0643   18.5372    2.1592 H   0  0  0  0  0  0  0  0  0  0  0  0
    6.8306   20.6274    3.3013 H   0  0  0  0  0  0  0  0  0  0  0  0
    6.8502   19.5387    1.8727 H   0  0  0  0  0  0  0  0  0  0  0  0
    5.8081   21.0019    1.8727 H   0  0  0  0  0  0  0  0  0  0  0  0
    5.3803   18.5971    5.0438 H   0  0  0  0  0  0  0  0  0  0  0  0
    4.8421   17.4076    3.8101 H   0  0  0  0  0  0  0  0  0  0  0  0
    6.5393   17.9960    3.8101 H   0  0  0  0  0  0  0  0  0  0  0  0
    1.5693   17.0763    0.4196 H   0  0  0  0  0  0  0  0  0  0  0  0
   -0.4901   18.0110   -0.4293 H   0  0  0  0  0  0  0  0  0  0  0  0
    0.2989   18.6100   -1.9040 H   0  0  0  0  0  0  0  0  0  0  0  0
   -1.3806   16.3038   -1.7383 H   0  0  0  0  0  0  0  0  0  0  0  0
   -0.3193   16.6566   -3.0995 H   0  0  0  0  0  0  0  0  0  0  0  0
    0.5909   15.3487    0.6216 H   0  0  0  0  0  0  0  0  0  0  0  0
   -1.0437   15.1928   -0.1068 H   0  0  0  0  0  0  0  0  0  0  0  0
    0.0773   13.7891   -0.1068 H   0  0  0  0  0  0  0  0  0  0  0  0
    0.9679   14.6471   -3.5067 H   0  0  0  0  0  0  0  0  0  0  0  0
   -1.4361   14.1049   -2.7556 H   0  0  0  0  0  0  0  0  0  0  0  0
   -0.5005   12.9626   -3.8555 H   0  0  0  0  0  0  0  0  0  0  0  0
   -1.9126   11.8378   -1.9382 H   0  0  0  0  0  0  0  0  0  0  0  0
    1.6425   12.6214   -0.1932 H   0  0  0  0  0  0  0  0  0  0  0  0
    2.2355   10.2990   -2.1301 H   0  0  0  0  0  0  0  0  0  0  0  0
    3.4224   11.1397   -1.0375 H   0  0  0  0  0  0  0  0  0  0  0  0
    2.7100    8.9490   -0.1361 H   0  0  0  0  0  0  0  0  0  0  0  0
    2.2349   10.3360    0.9212 H   0  0  0  0  0  0  0  0  0  0  0  0
    0.4003    8.7928    0.8018 H   0  0  0  0  0  0  0  0  0  0  0  0
    0.1580    9.2220   -2.0010 H   0  0  0  0  0  0  0  0  0  0  0  0
    0.6371   11.3911    1.6508 H   0  0  0  0  0  0  0  0  0  0  0  0
   -0.9185   12.2038    1.2685 H   0  0  0  0  0  0  0  0  0  0  0  0
   -0.9185   10.5783    2.0331 H   0  0  0  0  0  0  0  0  0  0  0  0
   -2.2933    9.8118    0.6873 H   0  0  0  0  0  0  0  0  0  0  0  0
   -2.4354   10.7230   -0.8542 H   0  0  0  0  0  0  0  0  0  0  0  0
   -1.7630    9.0573   -0.8542 H   0  0  0  0  0  0  0  0  0  0  0  0
    2.7319   11.4615   -3.3459 H   0  0  0  0  0  0  0  0  0  0  0  0
    1.3313   12.2479   -4.1499 H   0  0  0  0  0  0  0  0  0  0  0  0
    2.9361   13.0548   -4.1499 H   0  0  0  0  0  0  0  0  0  0  0  0
    3.8012   13.1734   -1.1992 H   0  0  0  0  0  0  0  0  0  0  0  0
    3.6557   14.2653   -2.6890 H   0  0  0  0  0  0  0  0  0  0  0  0
    2.6497   14.8213    0.1162 H   0  0  0  0  0  0  0  0  0  0  0  0
    3.9559   15.6679   -0.8027 H   0  0  0  0  0  0  0  0  0  0  0  0
    3.3318   17.3013   -2.6984 H   0  0  0  0  0  0  0  0  0  0  0  0
    2.9019   15.7213   -3.4369 H   0  0  0  0  0  0  0  0  0  0  0  0
    1.7113   17.0664   -3.4369 H   0  0  0  0  0  0  0  0  0  0  0  0
  1  2  1  0
  2  3  1  0
  3  4  1  0
  4  5  1  0
  5  6  1  0
  6  7  1  0
  7  8  1  0
  7  9  1  0
  2 10  1  0
 10 11  1  0
 11 12  1  0
 12 13  1  0
 13 14  1  1
 13 15  1  0
 15 16  1  0
 16 17  1  0
 17 18  2  0
 18 19  1  0
 19 20  1  0
 20 21  1  0
 21 22  1  0
 22 23  1  0
 22 24  1  0
 24 25  1  0
 24 26  1  0
 19 27  1  0
 27 28  1  6
 27 29  1  0
 29 30  1  0
 30 31  1  0
 31 32  1  6
  7  5  1  0
 31 10  1  0
 31 13  1  0
 27 15  1  0
 24 18  1  0
  1 33  1  0
  1 34  1  0
  1 35  1  0
  2 36  1  6
  3 37  1  0
  3 38  1  0
  4 39  1  0
  4 40  1  0
  5 41  1  1
  8 42  1  0
  8 43  1  0
  8 44  1  0
  9 45  1  0
  9 46  1  0
  9 47  1  0
 10 48  1  1
 11 49  1  0
 11 50  1  0
 12 51  1  0
 12 52  1  0
 14 53  1  0
 14 54  1  0
 14 55  1  0
 15 56  1  6
 16 57  1  0
 16 58  1  0
 17 59  1  0
 19 60  1  1
 20 61  1  0
 20 62  1  0
 21 63  1  0
 21 64  1  0
 22 65  1  1
 23 66  1  0
 25 67  1  0
 25 68  1  0
 25 69  1  0
 26 70  1  0
 26 71  1  0
 26 72  1  0
 28 73  1  0
 28 74  1  0
 28 75  1  0
 29 76  1  0
 29 77  1  0
 30 78  1  0
 30 79  1  0
 32 80  1  0
 32 81  1  0
 32 82  1  0
M  END
>  <meeko>  (5) 
{"is_sidechain": [false], "intermolecular_energy": 2.731, "internal_energy": -0.839}

$$$$
EPH_relaxed_0001_pdb2pqr_Repair_193_r2_0001_out
     RDKit          3D

 82 86  0  0  0  0  0  0  0  0999 V2000
   -0.8140   16.3310   -5.8200 C   0  0  0  0  0  0  0  0  0  0  0  0
    0.2640   15.6150   -6.6390 C   0  0  2  0  0  0  0  0  0  0  0  0
   -0.1500   15.4380   -8.1140 C   0  0  0  0  0  0  0  0  0  0  0  0
    0.4630   16.4790   -9.0540 C   0  0  0  0  0  0  0  0  0  0  0  0
    1.8610   16.1130   -9.4520 C   0  0  2  0  0  0  0  0  0  0  0  0
    2.3010   16.6870  -10.6890 O   0  0  0  0  0  0  0  0  0  0  0  0
    2.1890   15.2550  -10.6600 C   0  0  0  0  0  0  0  0  0  0  0  0
    1.1130   14.7110  -11.5460 C   0  0  0  0  0  0  0  0  0  0  0  0
    3.5070   14.5460  -10.6970 C   0  0  0  0  0  0  0  0  0  0  0  0
    0.5720   14.2580   -6.0180 C   0  0  1  0  0  0  0  0  0  0  0  0
    1.8280   13.5880   -6.6380 C   0  0  0  0  0  0  0  0  0  0  0  0
    2.5330   12.8150   -5.4950 C   0  0  0  0  0  0  0  0  0  0  0  0
    1.4970   12.7860   -4.3460 C   0  0  1  0  0  0  0  0  0  0  0  0
    0.5280   11.6180   -4.7090 C   0  0  0  0  0  0  0  0  0  0  0  0
    2.0730   12.6310   -2.9010 C   0  0  2  0  0  0  0  0  0  0  0  0
    2.8310   11.3180   -2.6380 C   0  0  0  0  0  0  0  0  0  0  0  0
    1.9960   10.1920   -2.1240 C   0  0  0  0  0  0  0  0  0  0  0  0
    0.7560   10.3070   -1.6140 C   0  0  0  0  0  0  0  0  0  0  0  0
    0.1060   11.6840   -1.4260 C   0  0  1  0  0  0  0  0  0  0  0  0
   -0.5340   11.7660   -0.0150 C   0  0  0  0  0  0  0  0  0  0  0  0
   -1.5050   10.6210    0.2540 C   0  0  0  0  0  0  0  0  0  0  0  0
   -0.8080    9.2700    0.1140 C   0  0  2  0  0  0  0  0  0  0  0  0
    0.1600    9.1410    1.1600 O   0  0  0  0  0  0  0  0  0  0  0  0
   -0.1180    9.0770   -1.2650 C   0  0  0  0  0  0  0  0  0  0  0  0
   -1.1930    8.9150   -2.3670 C   0  0  0  0  0  0  0  0  0  0  0  0
    0.6650    7.7370   -1.2230 C   0  0  0  0  0  0  0  0  0  0  0  0
    1.0290   12.9360   -1.7510 C   0  0  1  0  0  0  0  0  0  0  0  0
    1.8570   13.3290   -0.4900 C   0  0  0  0  0  0  0  0  0  0  0  0
    0.1160   14.1750   -2.0860 C   0  0  0  0  0  0  0  0  0  0  0  0
   -0.3210   14.3390   -3.5540 C   0  0  0  0  0  0  0  0  0  0  0  0
    0.8780   14.2230   -4.5000 C   0  0  2  0  0  0  0  0  0  0  0  0
    1.8600   15.3990   -4.1730 C   0  0  0  0  0  0  0  0  0  0  0  0
   -0.6101   16.1956   -4.7476 H   0  0  0  0  0  0  0  0  0  0  0  0
   -0.8062   17.4040   -6.0621 H   0  0  0  0  0  0  0  0  0  0  0  0
   -1.8000   15.9077   -6.0621 H   0  0  0  0  0  0  0  0  0  0  0  0
    1.1658   16.2447   -6.6225 H   0  0  0  0  0  0  0  0  0  0  0  0
    0.1687   14.4391   -8.4467 H   0  0  0  0  0  0  0  0  0  0  0  0
   -1.2415   15.5669   -8.1594 H   0  0  0  0  0  0  0  0  0  0  0  0
   -0.1578   16.5511   -9.9592 H   0  0  0  0  0  0  0  0  0  0  0  0
    0.4991   17.4413   -8.5224 H   0  0  0  0  0  0  0  0  0  0  0  0
    2.1706   16.0530   -8.3982 H   0  0  0  0  0  0  0  0  0  0  0  0
    0.3013   14.3006  -10.9274 H   0  0  0  0  0  0  0  0  0  0  0  0
    0.7181   15.5178  -12.1810 H   0  0  0  0  0  0  0  0  0  0  0  0
    1.5286   13.9147  -12.1810 H   0  0  0  0  0  0  0  0  0  0  0  0
    3.8524   14.3602   -9.6693 H   0  0  0  0  0  0  0  0  0  0  0  0
    3.3930   13.5875  -11.2244 H   0  0  0  0  0  0  0  0  0  0  0  0
    4.2440   15.1694  -11.2244 H   0  0  0  0  0  0  0  0  0  0  0  0
   -0.3780   13.7425   -6.2225 H   0  0  0  0  0  0  0  0  0  0  0  0
    1.5310   12.8937   -7.4378 H   0  0  0  0  0  0  0  0  0  0  0  0
    2.4993   14.3396   -7.0790 H   0  0  0  0  0  0  0  0  0  0  0  0
    2.7861   11.7936   -5.8155 H   0  0  0  0  0  0  0  0  0  0  0  0
    3.4784   13.2889   -5.1922 H   0  0  0  0  0  0  0  0  0  0  0  0
    0.1463   11.1579   -3.7857 H   0  0  0  0  0  0  0  0  0  0  0  0
   -0.3139   12.0098   -5.2986 H   0  0  0  0  0  0  0  0  0  0  0  0
    1.0686   10.8629   -5.2986 H   0  0  0  0  0  0  0  0  0  0  0  0
    2.8317   13.4266   -2.8629 H   0  0  0  0  0  0  0  0  0  0  0  0
    3.2912   10.9958   -3.5837 H   0  0  0  0  0  0  0  0  0  0  0  0
    3.5615   11.5414   -1.8465 H   0  0  0  0  0  0  0  0  0  0  0  0
    2.4314    9.1827   -2.1657 H   0  0  0  0  0  0  0  0  0  0  0  0
   -0.6764   11.7590   -2.1956 H   0  0  0  0  0  0  0  0  0  0  0  0
    0.2671   11.7333    0.7381 H   0  0  0  0  0  0  0  0  0  0  0  0
   -1.1027   12.7060    0.0397 H   0  0  0  0  0  0  0  0  0  0  0  0
   -1.9012   10.7175    1.2756 H   0  0  0  0  0  0  0  0  0  0  0  0
   -2.3212   10.6728   -0.4816 H   0  0  0  0  0  0  0  0  0  0  0  0
   -1.5801    8.4901    0.1893 H   0  0  0  0  0  0  0  0  0  0  0  0
    0.5890   10.0060    1.2720 H   0  0  0  0  0  0  0  0  0  0  0  0
   -2.1777    8.7666   -1.8997 H   0  0  0  0  0  0  0  0  0  0  0  0
   -1.2164    9.8198   -2.9922 H   0  0  0  0  0  0  0  0  0  0  0  0
   -0.9488    8.0435   -2.9922 H   0  0  0  0  0  0  0  0  0  0  0  0
    0.8358    7.4448   -0.1764 H   0  0  0  0  0  0  0  0  0  0  0  0
    0.0815    6.9553   -1.7314 H   0  0  0  0  0  0  0  0  0  0  0  0
    1.6325    7.8615   -1.7314 H   0  0  0  0  0  0  0  0  0  0  0  0
    1.2939   13.0617    0.4163 H   0  0  0  0  0  0  0  0  0  0  0  0
    2.8158   12.7899   -0.4983 H   0  0  0  0  0  0  0  0  0  0  0  0
    2.0456   14.4127   -0.4983 H   0  0  0  0  0  0  0  0  0  0  0  0
   -0.7949   14.0921   -1.4749 H   0  0  0  0  0  0  0  0  0  0  0  0
    0.7371   15.0569   -1.8703 H   0  0  0  0  0  0  0  0  0  0  0  0
   -1.0517   13.5549   -3.8015 H   0  0  0  0  0  0  0  0  0  0  0  0
   -0.7691   15.3360   -3.6769 H   0  0  0  0  0  0  0  0  0  0  0  0
    1.9511   15.5081   -3.0822 H   0  0  0  0  0  0  0  0  0  0  0  0
    2.8486   15.1817   -4.6036 H   0  0  0  0  0  0  0  0  0  0  0  0
    1.4698   16.3330   -4.6036 H   0  0  0  0  0  0  0  0  0  0  0  0
  1  2  1  0
  2  3  1  0
  3  4  1  0
  4  5  1  0
  5  6  1  0
  6  7  1  0
  7  8  1  0
  7  9  1  0
  2 10  1  0
 10 11  1  0
 11 12  1  0
 12 13  1  0
 13 14  1  6
 13 15  1  0
 15 16  1  0
 16 17  1  0
 17 18  2  0
 18 19  1  0
 19 20  1  0
 20 21  1  0
 21 22  1  0
 22 23  1  0
 22 24  1  0
 24 25  1  0
 24 26  1  0
 19 27  1  0
 27 28  1  1
 27 29  1  0
 29 30  1  0
 30 31  1  0
 31 32  1  1
  7  5  1  0
 31 10  1  0
 31 13  1  0
 27 15  1  0
 24 18  1  0
  1 33  1  0
  1 34  1  0
  1 35  1  0
  2 36  1  6
  3 37  1  0
  3 38  1  0
  4 39  1  0
  4 40  1  0
  5 41  1  1
  8 42  1  0
  8 43  1  0
  8 44  1  0
  9 45  1  0
  9 46  1  0
  9 47  1  0
 10 48  1  1
 11 49  1  0
 11 50  1  0
 12 51  1  0
 12 52  1  0
 14 53  1  0
 14 54  1  0
 14 55  1  0
 15 56  1  6
 16 57  1  0
 16 58  1  0
 17 59  1  0
 19 60  1  6
 20 61  1  0
 20 62  1  0
 21 63  1  0
 21 64  1  0
 22 65  1  1
 23 66  1  0
 25 67  1  0
 25 68  1  0
 25 69  1  0
 26 70  1  0
 26 71  1  0
 26 72  1  0
 28 73  1  0
 28 74  1  0
 28 75  1  0
 29 76  1  0
 29 77  1  0
 30 78  1  0
 30 79  1  0
 32 80  1  0
 32 81  1  0
 32 82  1  0
M  END
>  <meeko>  (6) 
{"is_sidechain": [false], "intermolecular_energy": 2.731, "internal_energy": -0.839}

$$$$
EPH_relaxed_0001_pdb2pqr_Repair_193_r2_0001_out
     RDKit          3D

 82 86  0  0  0  0  0  0  0  0999 V2000
    0.2540    8.5890   -2.4940 C   0  0  0  0  0  0  0  0  0  0  0  0
    0.9980    9.7340   -3.1860 C   0  0  2  0  0  0  0  0  0  0  0  0
    2.5070    9.7200   -2.8690 C   0  0  0  0  0  0  0  0  0  0  0  0
    3.3610   10.4500   -3.9090 C   0  0  0  0  0  0  0  0  0  0  0  0
    4.7390   10.7360   -3.3940 C   0  0  2  0  0  0  0  0  0  0  0  0
    5.3080   11.9670   -3.8580 O   0  0  0  0  0  0  0  0  0  0  0  0
    5.9730   10.7640   -4.2760 C   0  0  0  0  0  0  0  0  0  0  0  0
    5.8870   10.5010   -5.7470 C   0  0  0  0  0  0  0  0  0  0  0  0
    7.3130   10.5630   -3.6390 C   0  0  0  0  0  0  0  0  0  0  0  0
    0.3920   11.0710   -2.7750 C   0  0  1  0  0  0  0  0  0  0  0  0
   -0.9850   10.9130   -2.0770 C   0  0  0  0  0  0  0  0  0  0  0  0
   -1.0690   12.0240   -0.9980 C   0  0  0  0  0  0  0  0  0  0  0  0
    0.1010   12.9790   -1.3300 C   0  0  1  0  0  0  0  0  0  0  0  0
   -0.4350   13.8840   -2.4840 C   0  0  0  0  0  0  0  0  0  0  0  0
    0.6580   13.8280   -0.1410 C   0  0  2  0  0  0  0  0  0  0  0  0
   -0.3470   14.8110    0.4860 C   0  0  0  0  0  0  0  0  0  0  0  0
   -0.3630   16.1770   -0.1150 C   0  0  0  0  0  0  0  0  0  0  0  0
    0.5860   16.6880   -0.9210 C   0  0  0  0  0  0  0  0  0  0  0  0
    1.8680   15.9020   -1.2250 C   0  0  1  0  0  0  0  0  0  0  0  0
    3.0970   16.8370   -1.0730 C   0  0  0  0  0  0  0  0  0  0  0  0
    2.9750   18.1040   -1.9150 C   0  0  0  0  0  0  0  0  0  0  0  0
    1.7190   18.8880   -1.5430 C   0  0  2  0  0  0  0  0  0  0  0  0
    1.8640   19.3840   -0.2090 O   0  0  0  0  0  0  0  0  0  0  0  0
    0.4180   18.0450   -1.6490 C   0  0  0  0  0  0  0  0  0  0  0  0
    0.1000   17.7620   -3.1380 C   0  0  0  0  0  0  0  0  0  0  0  0
   -0.7550   18.9090   -1.1120 C   0  0  0  0  0  0  0  0  0  0  0  0
    2.0430   14.5320   -0.4400 C   0  0  1  0  0  0  0  0  0  0  0  0
    2.7180   14.7920    0.9420 C   0  0  0  0  0  0  0  0  0  0  0  0
    3.0260   13.6000   -1.2450 C   0  0  0  0  0  0  0  0  0  0  0  0
    2.3990   12.6980   -2.3240 C   0  0  0  0  0  0  0  0  0  0  0  0
    1.1920   11.9360   -1.7690 C   0  0  2  0  0  0  0  0  0  0  0  0
    1.7040   11.0000   -0.6210 C   0  0  0  0  0  0  0  0  0  0  0  0
    0.3312    8.7079   -1.4032 H   0  0  0  0  0  0  0  0  0  0  0  0
   -0.8050    8.6076   -2.7908 H   0  0  0  0  0  0  0  0  0  0  0  0
    0.7012    7.6288   -2.7908 H   0  0  0  0  0  0  0  0  0  0  0  0
    0.8868    9.5935   -4.2713 H   0  0  0  0  0  0  0  0  0  0  0  0
    2.6612   10.2024   -1.8925 H   0  0  0  0  0  0  0  0  0  0  0  0
    2.8265    8.6674   -2.8722 H   0  0  0  0  0  0  0  0  0  0  0  0
    3.4401    9.8225   -4.8090 H   0  0  0  0  0  0  0  0  0  0  0  0
    2.8751   11.4098   -4.1385 H   0  0  0  0  0  0  0  0  0  0  0  0
    4.5190   10.2168   -2.4495 H   0  0  0  0  0  0  0  0  0  0  0  0
    5.5492    9.4678   -5.9156 H   0  0  0  0  0  0  0  0  0  0  0  0
    5.1707   11.2001   -6.2032 H   0  0  0  0  0  0  0  0  0  0  0  0
    6.8780   10.6418   -6.2032 H   0  0  0  0  0  0  0  0  0  0  0  0
    7.2048   10.5792   -2.5445 H   0  0  0  0  0  0  0  0  0  0  0  0
    7.7261    9.5928   -3.9523 H   0  0  0  0  0  0  0  0  0  0  0  0
    7.9926   11.3693   -3.9523 H   0  0  0  0  0  0  0  0  0  0  0  0
    0.3606   11.5682   -3.7557 H   0  0  0  0  0  0  0  0  0  0  0  0
   -1.7970   11.0337   -2.8092 H   0  0  0  0  0  0  0  0  0  0  0  0
   -1.0871    9.9151   -1.6256 H   0  0  0  0  0  0  0  0  0  0  0  0
   -2.0315   12.5530   -1.0593 H   0  0  0  0  0  0  0  0  0  0  0  0
   -1.0011   11.6201    0.0229 H   0  0  0  0  0  0  0  0  0  0  0  0
   -0.9515   14.7560   -2.0564 H   0  0  0  0  0  0  0  0  0  0  0  0
    0.4072   14.2245   -3.1043 H   0  0  0  0  0  0  0  0  0  0  0  0
   -1.1383   13.3091   -3.1043 H   0  0  0  0  0  0  0  0  0  0  0  0
    0.8473   13.0629    0.6263 H   0  0  0  0  0  0  0  0  0  0  0  0
   -1.3540   14.3813    0.3799 H   0  0  0  0  0  0  0  0  0  0  0  0
   -0.0318   14.9425    1.5316 H   0  0  0  0  0  0  0  0  0  0  0  0
   -1.2233   16.8207    0.1208 H   0  0  0  0  0  0  0  0  0  0  0  0
    1.7800   15.5683   -2.2695 H   0  0  0  0  0  0  0  0  0  0  0  0
    3.1932   17.1241   -0.0155 H   0  0  0  0  0  0  0  0  0  0  0  0
    3.9817   16.2859   -1.4245 H   0  0  0  0  0  0  0  0  0  0  0  0
    3.8583   18.7367   -1.7432 H   0  0  0  0  0  0  0  0  0  0  0  0
    2.9080   17.8161   -2.9745 H   0  0  0  0  0  0  0  0  0  0  0  0
    1.6181   19.7124   -2.2642 H   0  0  0  0  0  0  0  0  0  0  0  0
    2.1360   20.3160   -0.2700 H   0  0  0  0  0  0  0  0  0  0  0  0
   -0.7202   17.0321   -3.2055 H   0  0  0  0  0  0  0  0  0  0  0  0
   -0.1999   18.6974   -3.6331 H   0  0  0  0  0  0  0  0  0  0  0  0
    0.9942   17.3555   -3.6331 H   0  0  0  0  0  0  0  0  0  0  0  0
   -0.7432   18.9003   -0.0121 H   0  0  0  0  0  0  0  0  0  0  0  0
   -0.6438   19.9425   -1.4717 H   0  0  0  0  0  0  0  0  0  0  0  0
   -1.7091   18.4962   -1.4717 H   0  0  0  0  0  0  0  0  0  0  0  0
    2.0192   14.5228    1.7478 H   0  0  0  0  0  0  0  0  0  0  0  0
    3.6282   14.1801    1.0264 H   0  0  0  0  0  0  0  0  0  0  0  0
    2.9826   15.8564    1.0264 H   0  0  0  0  0  0  0  0  0  0  0  0
    3.7665   14.2456   -1.7399 H   0  0  0  0  0  0  0  0  0  0  0  0
    3.4436   12.9085   -0.4984 H   0  0  0  0  0  0  0  0  0  0  0  0
    2.0729   13.3218   -3.1693 H   0  0  0  0  0  0  0  0  0  0  0  0
    3.1535   11.9680   -2.6523 H   0  0  0  0  0  0  0  0  0  0  0  0
    1.4592   11.4475    0.3536 H   0  0  0  0  0  0  0  0  0  0  0  0
    1.2181   10.0167   -0.7054 H   0  0  0  0  0  0  0  0  0  0  0  0
    2.7940   10.8788   -0.7054 H   0  0  0  0  0  0  0  0  0  0  0  0
  1  2  1  0
  2  3  1  0
  3  4  1  0
  4  5  1  0
  5  6  1  0
  6  7  1  0
  7  8  1  0
  7  9  1  0
  2 10  1  0
 10 11  1  0
 11 12  1  0
 12 13  1  0
 13 14  1  6
 13 15  1  0
 15 16  1  0
 16 17  1  0
 17 18  2  0
 18 19  1  0
 19 20  1  0
 20 21  1  0
 21 22  1  0
 22 23  1  0
 22 24  1  0
 24 25  1  0
 24 26  1  0
 19 27  1  0
 27 28  1  1
 27 29  1  0
 29 30  1  0
 30 31  1  0
 31 32  1  1
  7  5  1  0
 31 10  1  0
 31 13  1  0
 27 15  1  0
 24 18  1  0
  1 33  1  0
  1 34  1  0
  1 35  1  0
  2 36  1  6
  3 37  1  0
  3 38  1  0
  4 39  1  0
  4 40  1  0
  5 41  1  1
  8 42  1  0
  8 43  1  0
  8 44  1  0
  9 45  1  0
  9 46  1  0
  9 47  1  0
 10 48  1  6
 11 49  1  0
 11 50  1  0
 12 51  1  0
 12 52  1  0
 14 53  1  0
 14 54  1  0
 14 55  1  0
 15 56  1  1
 16 57  1  0
 16 58  1  0
 17 59  1  0
 19 60  1  6
 20 61  1  0
 20 62  1  0
 21 63  1  0
 21 64  1  0
 22 65  1  6
 23 66  1  0
 25 67  1  0
 25 68  1  0
 25 69  1  0
 26 70  1  0
 26 71  1  0
 26 72  1  0
 28 73  1  0
 28 74  1  0
 28 75  1  0
 29 76  1  0
 29 77  1  0
 30 78  1  0
 30 79  1  0
 32 80  1  0
 32 81  1  0
 32 82  1  0
M  END
>  <meeko>  (7) 
{"is_sidechain": [false], "intermolecular_energy": 2.731, "internal_energy": -0.839}

$$$$
EPH_relaxed_0001_pdb2pqr_Repair_193_r2_0001_out
     RDKit          3D

 82 86  0  0  0  0  0  0  0  0999 V2000
   -0.2840   15.0590   -7.6940 C   0  0  0  0  0  0  0  0  0  0  0  0
    1.0730   15.0640   -6.9850 C   0  0  2  0  0  0  0  0  0  0  0  0
    2.2470   15.1730   -7.9780 C   0  0  0  0  0  0  0  0  0  0  0  0
    2.2720   16.4890   -8.7600 C   0  0  0  0  0  0  0  0  0  0  0  0
    1.8760   16.2900  -10.1920 C   0  0  2  0  0  0  0  0  0  0  0  0
    1.2170   15.0460  -10.4650 O   0  0  0  0  0  0  0  0  0  0  0  0
    2.4950   15.2370  -11.0930 C   0  0  0  0  0  0  0  0  0  0  0  0
    3.5630   14.3140  -10.5950 C   0  0  0  0  0  0  0  0  0  0  0  0
    2.4160   15.4280  -12.5760 C   0  0  0  0  0  0  0  0  0  0  0  0
    1.2220   13.8060   -6.1380 C   0  0  1  0  0  0  0  0  0  0  0  0
    2.6550   13.2140   -6.1940 C   0  0  0  0  0  0  0  0  0  0  0  0
    2.9490   12.6200   -4.7930 C   0  0  0  0  0  0  0  0  0  0  0  0
    1.5750   12.5900   -4.0850 C   0  0  1  0  0  0  0  0  0  0  0  0
    0.8740   11.3030   -4.6220 C   0  0  0  0  0  0  0  0  0  0  0  0
    1.6010   12.6240   -2.5220 C   0  0  2  0  0  0  0  0  0  0  0  0
    2.2940   11.4230   -1.8560 C   0  0  0  0  0  0  0  0  0  0  0  0
    1.4020   10.2690   -1.5360 C   0  0  0  0  0  0  0  0  0  0  0  0
    0.0570   10.3040   -1.5110 C   0  0  0  0  0  0  0  0  0  0  0  0
   -0.7010   11.6200   -1.7280 C   0  0  1  0  0  0  0  0  0  0  0  0
   -1.8080   11.7630   -0.6510 C   0  0  0  0  0  0  0  0  0  0  0  0
   -2.7390   10.5540   -0.6040 C   0  0  0  0  0  0  0  0  0  0  0  0
   -1.9550    9.2740   -0.3280 C   0  0  2  0  0  0  0  0  0  0  0  0
   -1.4210    9.3360    0.9970 O   0  0  0  0  0  0  0  0  0  0  0  0
   -0.8050    9.0280   -1.3450 C   0  0  0  0  0  0  0  0  0  0  0  0
   -1.4010    8.6610   -2.7260 C   0  0  0  0  0  0  0  0  0  0  0  0
   -0.0080    7.7830   -0.8720 C   0  0  0  0  0  0  0  0  0  0  0  0
    0.1980   12.9240   -1.8560 C   0  0  1  0  0  0  0  0  0  0  0  0
    0.4920   13.5090   -0.4410 C   0  0  0  0  0  0  0  0  0  0  0  0
   -0.6100   14.0300   -2.6340 C   0  0  0  0  0  0  0  0  0  0  0  0
   -0.5000   14.0170   -4.1710 C   0  0  0  0  0  0  0  0  0  0  0  0
    0.9630   13.9380   -4.6160 C   0  0  2  0  0  0  0  0  0  0  0  0
    1.6880   15.2310   -4.1090 C   0  0  0  0  0  0  0  0  0  0  0  0
   -1.0892   15.0560   -6.9446 H   0  0  0  0  0  0  0  0  0  0  0  0
   -0.3722   15.9568   -8.3234 H   0  0  0  0  0  0  0  0  0  0  0  0
   -0.3655   14.1605   -8.3234 H   0  0  0  0  0  0  0  0  0  0  0  0
    1.1046   15.9532   -6.3382 H   0  0  0  0  0  0  0  0  0  0  0  0
    3.1876   15.0861   -7.4144 H   0  0  0  0  0  0  0  0  0  0  0  0
    2.1219   14.3646   -8.7134 H   0  0  0  0  0  0  0  0  0  0  0  0
    1.5714   17.1957   -8.2912 H   0  0  0  0  0  0  0  0  0  0  0  0
    3.2996   16.8809   -8.7394 H   0  0  0  0  0  0  0  0  0  0  0  0
    1.7153   17.3705  -10.3216 H   0  0  0  0  0  0  0  0  0  0  0  0
    3.5636   14.3135   -9.4950 H   0  0  0  0  0  0  0  0  0  0  0  0
    3.3679   13.2956  -10.9620 H   0  0  0  0  0  0  0  0  0  0  0  0
    4.5424   14.6546  -10.9620 H   0  0  0  0  0  0  0  0  0  0  0  0
    2.0041   16.4239  -12.7960 H   0  0  0  0  0  0  0  0  0  0  0  0
    3.4229   15.3435  -13.0107 H   0  0  0  0  0  0  0  0  0  0  0  0
    1.7630   14.6569  -13.0107 H   0  0  0  0  0  0  0  0  0  0  0  0
    0.4435   13.1806   -6.5993 H   0  0  0  0  0  0  0  0  0  0  0  0
    2.7093   12.4252   -6.9588 H   0  0  0  0  0  0  0  0  0  0  0  0
    3.3916   13.9873   -6.4574 H   0  0  0  0  0  0  0  0  0  0  0  0
    3.3626   11.6045   -4.8809 H   0  0  0  0  0  0  0  0  0  0  0  0
    3.6915   13.2112   -4.2371 H   0  0  0  0  0  0  0  0  0  0  0  0
    0.5386   10.6873   -3.7744 H   0  0  0  0  0  0  0  0  0  0  0  0
    0.0059   11.5869   -5.2350 H   0  0  0  0  0  0  0  0  0  0  0  0
    1.5834   10.7277   -5.2350 H   0  0  0  0  0  0  0  0  0  0  0  0
    2.2433   13.4928   -2.3156 H   0  0  0  0  0  0  0  0  0  0  0  0
    3.0818   11.0655   -2.5353 H   0  0  0  0  0  0  0  0  0  0  0  0
    2.6765   11.7886   -0.8916 H   0  0  0  0  0  0  0  0  0  0  0  0
    1.8852    9.3092   -1.3008 H   0  0  0  0  0  0  0  0  0  0  0  0
   -1.1583   11.5473   -2.7258 H   0  0  0  0  0  0  0  0  0  0  0  0
   -1.3299   11.8783    0.3329 H   0  0  0  0  0  0  0  0  0  0  0  0
   -2.4156   12.6422   -0.9115 H   0  0  0  0  0  0  0  0  0  0  0  0
   -3.4808   10.7014    0.1947 H   0  0  0  0  0  0  0  0  0  0  0  0
   -3.2388   10.4569   -1.5791 H   0  0  0  0  0  0  0  0  0  0  0  0
   -2.6533    8.4308   -0.4348 H   0  0  0  0  0  0  0  0  0  0  0  0
   -1.0240    8.4710    1.1960 H   0  0  0  0  0  0  0  0  0  0  0  0
   -2.3298    8.0890   -2.5842 H   0  0  0  0  0  0  0  0  0  0  0  0
   -1.6192    9.5814   -3.2875 H   0  0  0  0  0  0  0  0  0  0  0  0
   -0.6774    8.0518   -3.2875 H   0  0  0  0  0  0  0  0  0  0  0  0
    0.0099    7.7551    0.2275 H   0  0  0  0  0  0  0  0  0  0  0  0
   -0.4909    6.8716   -1.2541 H   0  0  0  0  0  0  0  0  0  0  0  0
    1.0219    7.8400   -1.2541 H   0  0  0  0  0  0  0  0  0  0  0  0
    0.1385   12.8056    0.3273 H   0  0  0  0  0  0  0  0  0  0  0  0
    1.5750   13.6638   -0.3260 H   0  0  0  0  0  0  0  0  0  0  0  0
   -0.0300   14.4704   -0.3260 H   0  0  0  0  0  0  0  0  0  0  0  0
   -1.6724   13.9103   -2.3751 H   0  0  0  0  0  0  0  0  0  0  0  0
   -0.1649   14.9860   -2.3211 H   0  0  0  0  0  0  0  0  0  0  0  0
   -1.0428   13.1443   -4.5631 H   0  0  0  0  0  0  0  0  0  0  0  0
   -0.9351   14.9489   -4.5613 H   0  0  0  0  0  0  0  0  0  0  0  0
    1.6935   15.2409   -3.0091 H   0  0  0  0  0  0  0  0  0  0  0  0
    2.7231   15.2407   -4.4810 H   0  0  0  0  0  0  0  0  0  0  0  0
    1.1564   16.1192   -4.4810 H   0  0  0  0  0  0  0  0  0  0  0  0
  1  2  1  0
  2  3  1  0
  3  4  1  0
  4  5  1  0
  5  6  1  0
  6  7  1  0
  7  8  1  0
  7  9  1  0
  2 10  1  0
 10 11  1  0
 11 12  1  0
 12 13  1  0
 13 14  1  1
 13 15  1  0
 15 16  1  0
 16 17  1  0
 17 18  2  0
 18 19  1  0
 19 20  1  0
 20 21  1  0
 21 22  1  0
 22 23  1  0
 22 24  1  0
 24 25  1  0
 24 26  1  0
 19 27  1  0
 27 28  1  1
 27 29  1  0
 29 30  1  0
 30 31  1  0
 31 32  1  1
  7  5  1  0
 31 10  1  0
 31 13  1  0
 27 15  1  0
 24 18  1  0
  1 33  1  0
  1 34  1  0
  1 35  1  0
  2 36  1  1
  3 37  1  0
  3 38  1  0
  4 39  1  0
  4 40  1  0
  5 41  1  6
  8 42  1  0
  8 43  1  0
  8 44  1  0
  9 45  1  0
  9 46  1  0
  9 47  1  0
 10 48  1  6
 11 49  1  0
 11 50  1  0
 12 51  1  0
 12 52  1  0
 14 53  1  0
 14 54  1  0
 14 55  1  0
 15 56  1  6
 16 57  1  0
 16 58  1  0
 17 59  1  0
 19 60  1  6
 20 61  1  0
 20 62  1  0
 21 63  1  0
 21 64  1  0
 22 65  1  1
 23 66  1  0
 25 67  1  0
 25 68  1  0
 25 69  1  0
 26 70  1  0
 26 71  1  0
 26 72  1  0
 28 73  1  0
 28 74  1  0
 28 75  1  0
 29 76  1  0
 29 77  1  0
 30 78  1  0
 30 79  1  0
 32 80  1  0
 32 81  1  0
 32 82  1  0
M  END
>  <meeko>  (8) 
{"is_sidechain": [false], "intermolecular_energy": 2.731, "internal_energy": -0.839}

$$$$
EPH_relaxed_0001_pdb2pqr_Repair_193_r2_0001_out
     RDKit          3D

 82 86  0  0  0  0  0  0  0  0999 V2000
   -2.2680    7.8360   -2.1620 C   0  0  0  0  0  0  0  0  0  0  0  0
   -2.2150    8.4410   -0.7560 C   0  0  2  0  0  0  0  0  0  0  0  0
   -3.5920    8.4160   -0.0610 C   0  0  0  0  0  0  0  0  0  0  0  0
   -4.7720    8.5220   -1.0300 C   0  0  0  0  0  0  0  0  0  0  0  0
   -5.5260    7.2300   -1.1290 C   0  0  2  0  0  0  0  0  0  0  0  0
   -5.6930    6.7350   -2.4640 O   0  0  0  0  0  0  0  0  0  0  0  0
   -6.8950    7.1070   -1.7700 C   0  0  0  0  0  0  0  0  0  0  0  0
   -7.5920    8.2950   -2.3550 C   0  0  0  0  0  0  0  0  0  0  0  0
   -7.7590    5.9430   -1.3950 C   0  0  0  0  0  0  0  0  0  0  0  0
   -1.6920    9.8710   -0.8250 C   0  0  1  0  0  0  0  0  0  0  0  0
   -1.2630   10.4170    0.5630 C   0  0  0  0  0  0  0  0  0  0  0  0
   -0.0430   11.3420    0.3220 C   0  0  0  0  0  0  0  0  0  0  0  0
   -0.0150   11.5610   -1.2090 C   0  0  1  0  0  0  0  0  0  0  0  0
   -1.0730   12.6780   -1.4730 C   0  0  0  0  0  0  0  0  0  0  0  0
    1.3730   11.9220   -1.8300 C   0  0  2  0  0  0  0  0  0  0  0  0
    1.9830   13.2460   -1.3390 C   0  0  0  0  0  0  0  0  0  0  0  0
    1.6240   14.4510   -2.1450 C   0  0  0  0  0  0  0  0  0  0  0  0
    1.0800   14.4350   -3.3760 C   0  0  0  0  0  0  0  0  0  0  0  0
    0.8620   13.1140   -4.1240 C   0  0  1  0  0  0  0  0  0  0  0  0
    1.3650   13.2560   -5.5840 C   0  0  0  0  0  0  0  0  0  0  0  0
    0.7390   14.4450   -6.3060 C   0  0  0  0  0  0  0  0  0  0  0  0
    1.0270   15.7470   -5.5630 C   0  0  2  0  0  0  0  0  0  0  0  0
    2.4310   16.0160   -5.6310 O   0  0  0  0  0  0  0  0  0  0  0  0
    0.5720   15.7190   -4.0770 C   0  0  0  0  0  0  0  0  0  0  0  0
   -0.9750   15.7310   -4.0070 C   0  0  0  0  0  0  0  0  0  0  0  0
    1.0470   17.0360   -3.4070 C   0  0  0  0  0  0  0  0  0  0  0  0
    1.4250   11.8110   -3.4080 C   0  0  1  0  0  0  0  0  0  0  0  0
    2.9220   11.5990   -3.7900 C   0  0  0  0  0  0  0  0  0  0  0  0
    0.6470   10.5520   -3.9460 C   0  0  0  0  0  0  0  0  0  0  0  0
   -0.6560   10.1760   -3.2140 C   0  0  0  0  0  0  0  0  0  0  0  0
   -0.4390   10.1280   -1.6980 C   0  0  2  0  0  0  0  0  0  0  0  0
    0.6040    8.9980   -1.4000 C   0  0  0  0  0  0  0  0  0  0  0  0
   -2.3638    6.7427   -2.0874 H   0  0  0  0  0  0  0  0  0  0  0  0
   -3.1339    8.2438   -2.7042 H   0  0  0  0  0  0  0  0  0  0  0  0
   -1.3444    8.0870   -2.7042 H   0  0  0  0  0  0  0  0  0  0  0  0
   -1.5308    7.8237   -0.1553 H   0  0  0  0  0  0  0  0  0  0  0  0
   -3.6832    7.4714    0.4953 H   0  0  0  0  0  0  0  0  0  0  0  0
   -3.6361    9.2964    0.5970 H   0  0  0  0  0  0  0  0  0  0  0  0
   -5.4555    9.3073   -0.6748 H   0  0  0  0  0  0  0  0  0  0  0  0
   -4.3761    8.7653   -2.0271 H   0  0  0  0  0  0  0  0  0  0  0  0
   -5.1355    6.9006   -0.1548 H   0  0  0  0  0  0  0  0  0  0  0  0
   -7.9679    8.9358   -1.5438 H   0  0  0  0  0  0  0  0  0  0  0  0
   -6.8855    8.8657   -2.9756 H   0  0  0  0  0  0  0  0  0  0  0  0
   -8.4349    7.9568   -2.9756 H   0  0  0  0  0  0  0  0  0  0  0  0
   -7.8158    5.8665   -0.2991 H   0  0  0  0  0  0  0  0  0  0  0  0
   -8.7692    6.0890   -1.8052 H   0  0  0  0  0  0  0  0  0  0  0  0
   -7.3268    5.0184   -1.8052 H   0  0  0  0  0  0  0  0  0  0  0  0
   -2.5679   10.3671   -1.2685 H   0  0  0  0  0  0  0  0  0  0  0  0
   -2.0869   10.9872    1.0169 H   0  0  0  0  0  0  0  0  0  0  0  0
   -1.0067    9.5958    1.2485 H   0  0  0  0  0  0  0  0  0  0  0  0
   -0.1714   12.2991    0.8488 H   0  0  0  0  0  0  0  0  0  0  0  0
    0.8933   10.9035    0.6976 H   0  0  0  0  0  0  0  0  0  0  0  0
   -1.4421   13.0677   -0.5129 H   0  0  0  0  0  0  0  0  0  0  0  0
   -0.6091   13.4943   -2.0461 H   0  0  0  0  0  0  0  0  0  0  0  0
   -1.9133   12.2591   -2.0461 H   0  0  0  0  0  0  0  0  0  0  0  0
    2.0232   11.1288   -1.4325 H   0  0  0  0  0  0  0  0  0  0  0  0
    1.6437   13.4143   -0.3063 H   0  0  0  0  0  0  0  0  0  0  0  0
    3.0732   13.1317   -1.4312 H   0  0  0  0  0  0  0  0  0  0  0  0
    1.8209   15.4350   -1.6944 H   0  0  0  0  0  0  0  0  0  0  0  0
   -0.2238   12.9376   -4.1195 H   0  0  0  0  0  0  0  0  0  0  0  0
    2.4570   13.3876   -5.5694 H   0  0  0  0  0  0  0  0  0  0  0  0
    1.0739   12.3449   -6.1272 H   0  0  0  0  0  0  0  0  0  0  0  0
    1.1565   14.5100   -7.3216 H   0  0  0  0  0  0  0  0  0  0  0  0
   -0.3503   14.2974   -6.3469 H   0  0  0  0  0  0  0  0  0  0  0  0
    0.4457   16.5416   -6.0537 H   0  0  0  0  0  0  0  0  0  0  0  0
    2.7370   15.7560   -6.5160 H   0  0  0  0  0  0  0  0  0  0  0  0
   -1.2944   15.7335   -2.9544 H   0  0  0  0  0  0  0  0  0  0  0  0
   -1.3578   16.6321   -4.5084 H   0  0  0  0  0  0  0  0  0  0  0  0
   -1.3717   14.8359   -4.5084 H   0  0  0  0  0  0  0  0  0  0  0  0
    1.0073   16.9260   -2.3132 H   0  0  0  0  0  0  0  0  0  0  0  0
    2.0800   17.2530   -3.7165 H   0  0  0  0  0  0  0  0  0  0  0  0
    0.3903   17.8624   -3.7165 H   0  0  0  0  0  0  0  0  0  0  0  0
    3.5255   11.5135   -2.8743 H   0  0  0  0  0  0  0  0  0  0  0  0
    3.0223   10.6777   -4.3826 H   0  0  0  0  0  0  0  0  0  0  0  0
    3.2742   12.4562   -4.3826 H   0  0  0  0  0  0  0  0  0  0  0  0
    0.3940   10.7421   -4.9995 H   0  0  0  0  0  0  0  0  0  0  0  0
    1.3255    9.7020   -3.7813 H   0  0  0  0  0  0  0  0  0  0  0  0
   -1.4271   10.9262   -3.4436 H   0  0  0  0  0  0  0  0  0  0  0  0
   -0.9747    9.1797   -3.5545 H   0  0  0  0  0  0  0  0  0  0  0  0
    0.7143    8.8785   -0.3121 H   0  0  0  0  0  0  0  0  0  0  0  0
    0.2551    8.0518   -1.8393 H   0  0  0  0  0  0  0  0  0  0  0  0
    1.5750    9.2702   -1.8393 H   0  0  0  0  0  0  0  0  0  0  0  0
  1  2  1  0
  2  3  1  0
  3  4  1  0
  4  5  1  0
  5  6  1  0
  6  7  1  0
  7  8  1  0
  7  9  1  0
  2 10  1  0
 10 11  1  0
 11 12  1  0
 12 13  1  0
 13 14  1  1
 13 15  1  0
 15 16  1  0
 16 17  1  0
 17 18  2  0
 18 19  1  0
 19 20  1  0
 20 21  1  0
 21 22  1  0
 22 23  1  0
 22 24  1  0
 24 25  1  0
 24 26  1  0
 19 27  1  0
 27 28  1  1
 27 29  1  0
 29 30  1  0
 30 31  1  0
 31 32  1  6
  7  5  1  0
 31 10  1  0
 31 13  1  0
 27 15  1  0
 24 18  1  0
  1 33  1  0
  1 34  1  0
  1 35  1  0
  2 36  1  1
  3 37  1  0
  3 38  1  0
  4 39  1  0
  4 40  1  0
  5 41  1  1
  8 42  1  0
  8 43  1  0
  8 44  1  0
  9 45  1  0
  9 46  1  0
  9 47  1  0
 10 48  1  6
 11 49  1  0
 11 50  1  0
 12 51  1  0
 12 52  1  0
 14 53  1  0
 14 54  1  0
 14 55  1  0
 15 56  1  1
 16 57  1  0
 16 58  1  0
 17 59  1  0
 19 60  1  6
 20 61  1  0
 20 62  1  0
 21 63  1  0
 21 64  1  0
 22 65  1  6
 23 66  1  0
 25 67  1  0
 25 68  1  0
 25 69  1  0
 26 70  1  0
 26 71  1  0
 26 72  1  0
 28 73  1  0
 28 74  1  0
 28 75  1  0
 29 76  1  0
 29 77  1  0
 30 78  1  0
 30 79  1  0
 32 80  1  0
 32 81  1  0
 32 82  1  0
M  END
>  <meeko>  (9) 
{"is_sidechain": [false], "intermolecular_energy": 2.731, "internal_energy": -0.839}

$$$$
EPH_relaxed_0001_pdb2pqr_Repair_193_r2_0001_out
     RDKit          3D

 82 86  0  0  0  0  0  0  0  0999 V2000
   -3.7940    7.0960   -3.3250 C   0  0  0  0  0  0  0  0  0  0  0  0
   -3.8250    7.2430   -1.8010 C   0  0  2  0  0  0  0  0  0  0  0  0
   -5.2460    7.0700   -1.2290 C   0  0  0  0  0  0  0  0  0  0  0  0
   -6.3530    7.2180   -2.2770 C   0  0  0  0  0  0  0  0  0  0  0  0
   -7.6890    7.4590   -1.6420 C   0  0  2  0  0  0  0  0  0  0  0  0
   -8.3250    6.2860   -1.1200 O   0  0  0  0  0  0  0  0  0  0  0  0
   -8.9930    6.9350   -2.2130 C   0  0  0  0  0  0  0  0  0  0  0  0
   -9.0260    6.1280   -3.4730 C   0  0  0  0  0  0  0  0  0  0  0  0
  -10.2690    7.6130   -1.8220 C   0  0  0  0  0  0  0  0  0  0  0  0
   -3.2630    8.6010   -1.3980 C   0  0  1  0  0  0  0  0  0  0  0  0
   -3.8680    9.1270   -0.0690 C   0  0  0  0  0  0  0  0  0  0  0  0
   -2.7390    9.9000    0.6610 C   0  0  0  0  0  0  0  0  0  0  0  0
   -1.6340   10.0780   -0.4060 C   0  0  1  0  0  0  0  0  0  0  0  0
   -2.0930   11.3020   -1.2590 C   0  0  0  0  0  0  0  0  0  0  0  0
   -0.1780   10.2620    0.1310 C   0  0  2  0  0  0  0  0  0  0  0  0
    0.0470   11.5190    0.9900 C   0  0  0  0  0  0  0  0  0  0  0  0
    0.4700   12.7370    0.2390 C   0  0  0  0  0  0  0  0  0  0  0  0
    0.9370   12.7550   -1.0240 C   0  0  0  0  0  0  0  0  0  0  0  0
    1.1700   11.4500   -1.7950 C   0  0  1  0  0  0  0  0  0  0  0  0
    2.5580   11.4990   -2.4870 C   0  0  0  0  0  0  0  0  0  0  0  0
    2.7310   12.7340   -3.3650 C   0  0  0  0  0  0  0  0  0  0  0  0
    2.5490   14.0120   -2.5500 C   0  0  2  0  0  0  0  0  0  0  0  0
    3.6220   14.1160   -1.6100 O   0  0  0  0  0  0  0  0  0  0  0  0
    1.1890   14.0710   -1.7990 C   0  0  0  0  0  0  0  0  0  0  0  0
    0.0390   14.2630   -2.8190 C   0  0  0  0  0  0  0  0  0  0  0  0
    1.1920   15.3410   -0.9050 C   0  0  0  0  0  0  0  0  0  0  0  0
    0.9450   10.1090   -0.9730 C   0  0  1  0  0  0  0  0  0  0  0  0
    2.2560    9.7170   -0.2250 C   0  0  0  0  0  0  0  0  0  0  0  0
    0.6400    8.9350   -1.9780 C   0  0  0  0  0  0  0  0  0  0  0  0
   -0.8340    8.7280   -2.3780 C   0  0  0  0  0  0  0  0  0  0  0  0
   -1.7370    8.6920   -1.1410 C   0  0  2  0  0  0  0  0  0  0  0  0
   -1.3140    7.4570   -0.2750 C   0  0  0  0  0  0  0  0  0  0  0  0
   -3.5736    6.0509   -3.5882 H   0  0  0  0  0  0  0  0  0  0  0  0
   -4.7719    7.3804   -3.7408 H   0  0  0  0  0  0  0  0  0  0  0  0
   -3.0142    7.7511   -3.7408 H   0  0  0  0  0  0  0  0  0  0  0  0
   -3.2001    6.4420   -1.3791 H   0  0  0  0  0  0  0  0  0  0  0  0
   -5.3214    6.0672   -0.7833 H   0  0  0  0  0  0  0  0  0  0  0  0
   -5.3945    7.8701   -0.4889 H   0  0  0  0  0  0  0  0  0  0  0  0
   -6.1116    8.0674   -2.9329 H   0  0  0  0  0  0  0  0  0  0  0  0
   -6.4099    6.2809   -2.8503 H   0  0  0  0  0  0  0  0  0  0  0  0
   -7.3773    8.4611   -1.3124 H   0  0  0  0  0  0  0  0  0  0  0  0
   -9.0698    5.0579   -3.2220 H   0  0  0  0  0  0  0  0  0  0  0  0
   -9.9136    6.4032   -4.0615 H   0  0  0  0  0  0  0  0  0  0  0  0
   -8.1189    6.3298   -4.0615 H   0  0  0  0  0  0  0  0  0  0  0  0
  -10.3423    7.6520   -0.7251 H   0  0  0  0  0  0  0  0  0  0  0  0
  -10.2797    8.6358   -2.2268 H   0  0  0  0  0  0  0  0  0  0  0  0
  -11.1226    7.0495   -2.2268 H   0  0  0  0  0  0  0  0  0  0  0  0
   -3.5296    9.1835   -2.2922 H   0  0  0  0  0  0  0  0  0  0  0  0
   -4.7137    9.7989   -0.2774 H   0  0  0  0  0  0  0  0  0  0  0  0
   -4.2434    8.2984    0.5495 H   0  0  0  0  0  0  0  0  0  0  0  0
   -3.1016   10.8777    1.0112 H   0  0  0  0  0  0  0  0  0  0  0  0
   -2.3764    9.3657    1.5515 H   0  0  0  0  0  0  0  0  0  0  0  0
   -2.3998   12.1202   -0.5908 H   0  0  0  0  0  0  0  0  0  0  0  0
   -1.2604   11.6396   -1.8936 H   0  0  0  0  0  0  0  0  0  0  0  0
   -2.9423   11.0088   -1.8936 H   0  0  0  0  0  0  0  0  0  0  0  0
   -0.0706    9.4081    0.8161 H   0  0  0  0  0  0  0  0  0  0  0  0
   -0.8954   11.7496    1.5084 H   0  0  0  0  0  0  0  0  0  0  0  0
    0.8768   11.2778    1.6707 H   0  0  0  0  0  0  0  0  0  0  0  0
    0.3939   13.7021    0.7613 H   0  0  0  0  0  0  0  0  0  0  0  0
    0.3755   11.3990   -2.5541 H   0  0  0  0  0  0  0  0  0  0  0  0
    3.3384   11.5055   -1.7118 H   0  0  0  0  0  0  0  0  0  0  0  0
    2.6388   10.6144   -3.1358 H   0  0  0  0  0  0  0  0  0  0  0  0
    3.7403   12.7264   -3.8023 H   0  0  0  0  0  0  0  0  0  0  0  0
    1.9686   12.7112   -4.1576 H   0  0  0  0  0  0  0  0  0  0  0  0
    2.5552   14.8564   -3.2549 H   0  0  0  0  0  0  0  0  0  0  0  0
    4.0550   14.9750   -1.7510 H   0  0  0  0  0  0  0  0  0  0  0  0
   -0.9067   14.4209   -2.2799 H   0  0  0  0  0  0  0  0  0  0  0  0
    0.2515   15.1381   -3.4507 H   0  0  0  0  0  0  0  0  0  0  0  0
   -0.0443   13.3663   -3.4507 H   0  0  0  0  0  0  0  0  0  0  0  0
    1.1913   15.0439    0.1541 H   0  0  0  0  0  0  0  0  0  0  0  0
    2.0916   15.9372   -1.1180 H   0  0  0  0  0  0  0  0  0  0  0  0
    0.2953   15.9414   -1.1180 H   0  0  0  0  0  0  0  0  0  0  0  0
    2.0876    9.7673    0.8609 H   0  0  0  0  0  0  0  0  0  0  0  0
    2.5453    8.6931   -0.5041 H   0  0  0  0  0  0  0  0  0  0  0  0
    3.0598   10.4141   -0.5041 H   0  0  0  0  0  0  0  0  0  0  0  0
    1.2106    9.1281   -2.8984 H   0  0  0  0  0  0  0  0  0  0  0  0
    0.9248    8.0169   -1.4432 H   0  0  0  0  0  0  0  0  0  0  0  0
   -1.1497    9.5556   -3.0302 H   0  0  0  0  0  0  0  0  0  0  0  0
   -0.9230    7.7670   -2.9058 H   0  0  0  0  0  0  0  0  0  0  0  0
   -1.4008    7.7103    0.7919 H   0  0  0  0  0  0  0  0  0  0  0  0
   -1.9718    6.6057   -0.5044 H   0  0  0  0  0  0  0  0  0  0  0  0
   -0.2724    7.1878   -0.5044 H   0  0  0  0  0  0  0  0  0  0  0  0
  1  2  1  0
  2  3  1  0
  3  4  1  0
  4  5  1  0
  5  6  1  0
  6  7  1  0
  7  8  1  0
  7  9  1  0
  2 10  1  0
 10 11  1  0
 11 12  1  0
 12 13  1  0
 13 14  1  6
 13 15  1  0
 15 16  1  0
 16 17  1  0
 17 18  2  0
 18 19  1  0
 19 20  1  0
 20 21  1  0
 21 22  1  0
 22 23  1  0
 22 24  1  0
 24 25  1  0
 24 26  1  0
 19 27  1  0
 27 28  1  1
 27 29  1  0
 29 30  1  0
 30 31  1  0
 31 32  1  1
  7  5  1  0
 31 10  1  0
 31 13  1  0
 27 15  1  0
 24 18  1  0
  1 33  1  0
  1 34  1  0
  1 35  1  0
  2 36  1  1
  3 37  1  0
  3 38  1  0
  4 39  1  0
  4 40  1  0
  5 41  1  1
  8 42  1  0
  8 43  1  0
  8 44  1  0
  9 45  1  0
  9 46  1  0
  9 47  1  0
 10 48  1  6
 11 49  1  0
 11 50  1  0
 12 51  1  0
 12 52  1  0
 14 53  1  0
 14 54  1  0
 14 55  1  0
 15 56  1  1
 16 57  1  0
 16 58  1  0
 17 59  1  0
 19 60  1  6
 20 61  1  0
 20 62  1  0
 21 63  1  0
 21 64  1  0
 22 65  1  6
 23 66  1  0
 25 67  1  0
 25 68  1  0
 25 69  1  0
 26 70  1  0
 26 71  1  0
 26 72  1  0
 28 73  1  0
 28 74  1  0
 28 75  1  0
 29 76  1  0
 29 77  1  0
 30 78  1  0
 30 79  1  0
 32 80  1  0
 32 81  1  0
 32 82  1  0
M  END
>  <meeko>  (10) 
{"is_sidechain": [false], "intermolecular_energy": 2.731, "internal_energy": -0.839}

$$$$
EPH_relaxed_0001_pdb2pqr_Repair_193_r2_0001_out
     RDKit          3D

 82 86  0  0  0  0  0  0  0  0999 V2000
   -1.0120   14.0460    3.2390 C   0  0  0  0  0  0  0  0  0  0  0  0
   -0.3570   14.7610    2.0550 C   0  0  2  0  0  0  0  0  0  0  0  0
   -1.3960   15.2550    1.0280 C   0  0  0  0  0  0  0  0  0  0  0  0
   -1.7320   16.7430    1.1590 C   0  0  0  0  0  0  0  0  0  0  0  0
   -0.8910   17.5830    0.2470 C   0  0  2  0  0  0  0  0  0  0  0  0
   -0.4270   18.8110    0.8240 O   0  0  0  0  0  0  0  0  0  0  0  0
   -1.3290   18.9340   -0.2880 C   0  0  0  0  0  0  0  0  0  0  0  0
   -2.6590   19.5200    0.0700 C   0  0  0  0  0  0  0  0  0  0  0  0
   -0.6840   19.4540   -1.5340 C   0  0  0  0  0  0  0  0  0  0  0  0
    0.6450   13.8340    1.3770 C   0  0  1  0  0  0  0  0  0  0  0  0
    1.0590   12.6410    2.2790 C   0  0  0  0  0  0  0  0  0  0  0  0
    1.2740   11.4250    1.3410 C   0  0  0  0  0  0  0  0  0  0  0  0
    1.3040   12.0300   -0.0820 C   0  0  1  0  0  0  0  0  0  0  0  0
    2.7540   12.5800   -0.2540 C   0  0  0  0  0  0  0  0  0  0  0  0
    0.9080   11.0690   -1.2500 C   0  0  2  0  0  0  0  0  0  0  0  0
    1.8320    9.8530   -1.4350 C   0  0  0  0  0  0  0  0  0  0  0  0
    2.9790   10.0590   -2.3680 C   0  0  0  0  0  0  0  0  0  0  0  0
    3.1000   11.0720   -3.2460 C   0  0  0  0  0  0  0  0  0  0  0  0
    1.9690   12.0920   -3.4330 C   0  0  1  0  0  0  0  0  0  0  0  0
    1.7150   12.3120   -4.9470 C   0  0  0  0  0  0  0  0  0  0  0  0
    2.9820   12.7000   -5.7030 C   0  0  0  0  0  0  0  0  0  0  0  0
    4.0620   11.6340   -5.5410 C   0  0  2  0  0  0  0  0  0  0  0  0
    3.6320   10.4390   -6.2000 O   0  0  0  0  0  0  0  0  0  0  0  0
    4.3960   11.3210   -4.0560 C   0  0  0  0  0  0  0  0  0  0  0  0
    5.1400   12.5240   -3.4250 C   0  0  0  0  0  0  0  0  0  0  0  0
    5.3950   10.1320   -4.0320 C   0  0  0  0  0  0  0  0  0  0  0  0
    0.6320   11.8000   -2.6260 C   0  0  1  0  0  0  0  0  0  0  0  0
   -0.2940   10.8580   -3.4530 C   0  0  0  0  0  0  0  0  0  0  0  0
   -0.1600   13.1480   -2.4380 C   0  0  0  0  0  0  0  0  0  0  0  0
    0.1930   13.9950   -1.2010 C   0  0  0  0  0  0  0  0  0  0  0  0
    0.1970   13.1370    0.0680 C   0  0  2  0  0  0  0  0  0  0  0  0
   -1.2550   12.5880    0.2790 C   0  0  0  0  0  0  0  0  0  0  0  0
   -0.6269   14.4663    4.1798 H   0  0  0  0  0  0  0  0  0  0  0  0
   -2.1022   14.1856    3.1941 H   0  0  0  0  0  0  0  0  0  0  0  0
   -0.7777   12.9722    3.1941 H   0  0  0  0  0  0  0  0  0  0  0  0
    0.1636   15.6458    2.4500 H   0  0  0  0  0  0  0  0  0  0  0  0
   -0.9981   15.0765    0.0182 H   0  0  0  0  0  0  0  0  0  0  0  0
   -2.3253   14.6978    1.2176 H   0  0  0  0  0  0  0  0  0  0  0  0
   -2.7918   16.8929    0.9054 H   0  0  0  0  0  0  0  0  0  0  0  0
   -1.5273   17.0510    2.1950 H   0  0  0  0  0  0  0  0  0  0  0  0
   -0.4931   16.6865   -0.2509 H   0  0  0  0  0  0  0  0  0  0  0  0
   -2.7578   19.5635    1.1647 H   0  0  0  0  0  0  0  0  0  0  0  0
   -2.7362   20.5355   -0.3458 H   0  0  0  0  0  0  0  0  0  0  0  0
   -3.4604   18.8917   -0.3458 H   0  0  0  0  0  0  0  0  0  0  0  0
    0.1464   20.1235   -1.2651 H   0  0  0  0  0  0  0  0  0  0  0  0
   -0.2984   18.6112   -2.1265 H   0  0  0  0  0  0  0  0  0  0  0  0
   -1.4258   20.0096   -2.1265 H   0  0  0  0  0  0  0  0  0  0  0  0
    1.4478   14.5549    1.1631 H   0  0  0  0  0  0  0  0  0  0  0  0
    1.9909   12.8761    2.8141 H   0  0  0  0  0  0  0  0  0  0  0  0
    0.2856   12.4276    3.0316 H   0  0  0  0  0  0  0  0  0  0  0  0
    2.2253   10.9220    1.5692 H   0  0  0  0  0  0  0  0  0  0  0  0
    0.4860   10.6660    1.4549 H   0  0  0  0  0  0  0  0  0  0  0  0
    3.2016   12.7498    0.7364 H   0  0  0  0  0  0  0  0  0  0  0  0
    3.3598   11.8492   -0.8098 H   0  0  0  0  0  0  0  0  0  0  0  0
    2.7228   13.5287   -0.8098 H   0  0  0  0  0  0  0  0  0  0  0  0
   -0.0549   10.6635   -0.9059 H   0  0  0  0  0  0  0  0  0  0  0  0
    2.2398    9.5831   -0.4497 H   0  0  0  0  0  0  0  0  0  0  0  0
    1.2109    9.0651   -1.8861 H   0  0  0  0  0  0  0  0  0  0  0  0
    3.7939    9.3208   -2.3352 H   0  0  0  0  0  0  0  0  0  0  0  0
    2.3239   13.0269   -2.9747 H   0  0  0  0  0  0  0  0  0  0  0  0
    1.3193   11.3801   -5.3771 H   0  0  0  0  0  0  0  0  0  0  0  0
    0.9990   13.1410   -5.0482 H   0  0  0  0  0  0  0  0  0  0  0  0
    2.7439   12.8118   -6.7711 H   0  0  0  0  0  0  0  0  0  0  0  0
    3.3598   13.6478   -5.2918 H   0  0  0  0  0  0  0  0  0  0  0  0
    4.9845   12.0272   -5.9932 H   0  0  0  0  0  0  0  0  0  0  0  0
    2.7540   10.6120   -6.5800 H   0  0  0  0  0  0  0  0  0  0  0  0
    5.0939   12.4494   -2.3285 H   0  0  0  0  0  0  0  0  0  0  0  0
    6.1911   12.5161   -3.7492 H   0  0  0  0  0  0  0  0  0  0  0  0
    4.6634   13.4609   -3.7492 H   0  0  0  0  0  0  0  0  0  0  0  0
    5.6205    9.8636   -2.9894 H   0  0  0  0  0  0  0  0  0  0  0  0
    4.9484    9.2674   -4.5448 H   0  0  0  0  0  0  0  0  0  0  0  0
    6.3236   10.4229   -4.5448 H   0  0  0  0  0  0  0  0  0  0  0  0
   -0.8977   10.2439   -2.7685 H   0  0  0  0  0  0  0  0  0  0  0  0
   -0.9595   11.4622   -4.0871 H   0  0  0  0  0  0  0  0  0  0  0  0
    0.3215   10.2030   -4.0871 H   0  0  0  0  0  0  0  0  0  0  0  0
    0.0220   13.7677   -3.3284 H   0  0  0  0  0  0  0  0  0  0  0  0
   -1.2080   12.8476   -2.2912 H   0  0  0  0  0  0  0  0  0  0  0  0
    1.1909   14.4365   -1.3400 H   0  0  0  0  0  0  0  0  0  0  0  0
   -0.5649   14.7842   -1.0884 H   0  0  0  0  0  0  0  0  0  0  0  0
   -1.4642   12.5089    1.3560 H   0  0  0  0  0  0  0  0  0  0  0  0
   -1.9778   13.2749   -0.1854 H   0  0  0  0  0  0  0  0  0  0  0  0
   -1.3425   11.5947   -0.1854 H   0  0  0  0  0  0  0  0  0  0  0  0
  1  2  1  0
  2  3  1  0
  3  4  1  0
  4  5  1  0
  5  6  1  0
  6  7  1  0
  7  8  1  0
  7  9  1  0
  2 10  1  0
 10 11  1  0
 11 12  1  0
 12 13  1  0
 13 14  1  6
 13 15  1  0
 15 16  1  0
 16 17  1  0
 17 18  2  0
 18 19  1  0
 19 20  1  0
 20 21  1  0
 21 22  1  0
 22 23  1  0
 22 24  1  0
 24 25  1  0
 24 26  1  0
 19 27  1  0
 27 28  1  6
 27 29  1  0
 29 30  1  0
 30 31  1  0
 31 32  1  1
  7  5  1  0
 31 10  1  0
 31 13  1  0
 27 15  1  0
 24 18  1  0
  1 33  1  0
  1 34  1  0
  1 35  1  0
  2 36  1  1
  3 37  1  0
  3 38  1  0
  4 39  1  0
  4 40  1  0
  5 41  1  6
  8 42  1  0
  8 43  1  0
  8 44  1  0
  9 45  1  0
  9 46  1  0
  9 47  1  0
 10 48  1  6
 11 49  1  0
 11 50  1  0
 12 51  1  0
 12 52  1  0
 14 53  1  0
 14 54  1  0
 14 55  1  0
 15 56  1  1
 16 57  1  0
 16 58  1  0
 17 59  1  0
 19 60  1  1
 20 61  1  0
 20 62  1  0
 21 63  1  0
 21 64  1  0
 22 65  1  6
 23 66  1  0
 25 67  1  0
 25 68  1  0
 25 69  1  0
 26 70  1  0
 26 71  1  0
 26 72  1  0
 28 73  1  0
 28 74  1  0
 28 75  1  0
 29 76  1  0
 29 77  1  0
 30 78  1  0
 30 79  1  0
 32 80  1  0
 32 81  1  0
 32 82  1  0
M  END
>  <meeko>  (11) 
{"is_sidechain": [false], "intermolecular_energy": 2.731, "internal_energy": -0.839}

$$$$
EPH_relaxed_0001_pdb2pqr_Repair_193_r2_0001_out
     RDKit          3D

 82 86  0  0  0  0  0  0  0  0999 V2000
   -0.5570   16.7230   -1.1440 C   0  0  0  0  0  0  0  0  0  0  0  0
   -0.7740   15.5350   -0.2030 C   0  0  2  0  0  0  0  0  0  0  0  0
   -0.9370   15.9790    1.2640 C   0  0  0  0  0  0  0  0  0  0  0  0
   -1.5200   17.3860    1.4210 C   0  0  0  0  0  0  0  0  0  0  0  0
   -0.7680   18.3920    0.6030 C   0  0  2  0  0  0  0  0  0  0  0  0
   -0.7510   19.7170    1.1510 O   0  0  0  0  0  0  0  0  0  0  0  0
   -1.4310   19.5590   -0.1050 C   0  0  0  0  0  0  0  0  0  0  0  0
   -2.9090   19.7800   -0.0290 C   0  0  0  0  0  0  0  0  0  0  0  0
   -0.7200   20.1930   -1.2590 C   0  0  0  0  0  0  0  0  0  0  0  0
    0.3890   14.5560   -0.3250 C   0  0  1  0  0  0  0  0  0  0  0  0
    0.5330   13.6420    0.9200 C   0  0  0  0  0  0  0  0  0  0  0  0
    1.0190   12.2620    0.4080 C   0  0  0  0  0  0  0  0  0  0  0  0
    1.4540   12.5190   -1.0540 C   0  0  1  0  0  0  0  0  0  0  0  0
    2.8890   13.1250   -0.9440 C   0  0  0  0  0  0  0  0  0  0  0  0
    1.4200   11.2850   -2.0130 C   0  0  2  0  0  0  0  0  0  0  0  0
    2.3670   10.1350   -1.6290 C   0  0  0  0  0  0  0  0  0  0  0  0
    3.7330   10.2070   -2.2260 C   0  0  0  0  0  0  0  0  0  0  0  0
    4.0960   10.9940   -3.2560 C   0  0  0  0  0  0  0  0  0  0  0  0
    3.0610   11.8510   -3.9950 C   0  0  1  0  0  0  0  0  0  0  0  0
    3.2540   11.6920   -5.5260 C   0  0  0  0  0  0  0  0  0  0  0  0
    4.6820   11.9910   -5.9700 C   0  0  0  0  0  0  0  0  0  0  0  0
    5.6770   11.0790   -5.2570 C   0  0  2  0  0  0  0  0  0  0  0  0
    5.4650    9.7330   -5.6950 O   0  0  0  0  0  0  0  0  0  0  0  0
    5.5690   11.1470   -3.7080 C   0  0  0  0  0  0  0  0  0  0  0  0
    6.0900   12.5180   -3.2090 C   0  0  0  0  0  0  0  0  0  0  0  0
    6.5270   10.0780   -3.1150 C   0  0  0  0  0  0  0  0  0  0  0  0
    1.5490   11.6520   -3.5470 C   0  0  1  0  0  0  0  0  0  0  0  0
    0.9090   10.4740   -4.3420 C   0  0  0  0  0  0  0  0  0  0  0  0
    0.7270   12.9410   -3.9240 C   0  0  0  0  0  0  0  0  0  0  0  0
    0.7000   14.0780   -2.8850 C   0  0  0  0  0  0  0  0  0  0  0  0
    0.3440   13.5410   -1.4950 C   0  0  2  0  0  0  0  0  0  0  0  0
   -1.1030   12.9460   -1.5690 C   0  0  0  0  0  0  0  0  0  0  0  0
   -0.3905   17.6346   -0.5513 H   0  0  0  0  0  0  0  0  0  0  0  0
    0.3212   16.5326   -1.7784 H   0  0  0  0  0  0  0  0  0  0  0  0
   -1.4458   16.8554   -1.7784 H   0  0  0  0  0  0  0  0  0  0  0  0
   -1.7093   15.0406   -0.5042 H   0  0  0  0  0  0  0  0  0  0  0  0
   -1.6064   15.2675    1.7697 H   0  0  0  0  0  0  0  0  0  0  0  0
    0.0694   15.9971    1.7077 H   0  0  0  0  0  0  0  0  0  0  0  0
   -2.5705   17.3750    1.0950 H   0  0  0  0  0  0  0  0  0  0  0  0
   -1.4387   17.6748    2.4793 H   0  0  0  0  0  0  0  0  0  0  0  0
   -0.0672   17.6192    0.2541 H   0  0  0  0  0  0  0  0  0  0  0  0
   -3.2191   19.8264    1.0254 H   0  0  0  0  0  0  0  0  0  0  0  0
   -3.1644   20.7263   -0.5283 H   0  0  0  0  0  0  0  0  0  0  0  0
   -3.4300   18.9498   -0.5283 H   0  0  0  0  0  0  0  0  0  0  0  0
    0.0512   20.8806   -0.8815 H   0  0  0  0  0  0  0  0  0  0  0  0
   -0.2465   19.4119   -1.8719 H   0  0  0  0  0  0  0  0  0  0  0  0
   -1.4420   20.7526   -1.8719 H   0  0  0  0  0  0  0  0  0  0  0  0
    1.2143   15.2674   -0.4757 H   0  0  0  0  0  0  0  0  0  0  0  0
    1.2684   14.0671    1.6190 H   0  0  0  0  0  0  0  0  0  0  0  0
   -0.4236   13.5501    1.4552 H   0  0  0  0  0  0  0  0  0  0  0  0
    1.8678   11.9021    1.0081 H   0  0  0  0  0  0  0  0  0  0  0  0
    0.2376   11.4912    0.4813 H   0  0  0  0  0  0  0  0  0  0  0  0
    3.1586   13.2389    0.1163 H   0  0  0  0  0  0  0  0  0  0  0  0
    3.6090   12.4541   -1.4354 H   0  0  0  0  0  0  0  0  0  0  0  0
    2.9102   14.1089   -1.4354 H   0  0  0  0  0  0  0  0  0  0  0  0
    0.4017   10.8971   -1.8625 H   0  0  0  0  0  0  0  0  0  0  0  0
    2.4742   10.1343   -0.5342 H   0  0  0  0  0  0  0  0  0  0  0  0
    1.9089    9.2178   -2.0277 H   0  0  0  0  0  0  0  0  0  0  0  0
    4.5088    9.5624   -1.7872 H   0  0  0  0  0  0  0  0  0  0  0  0
    3.2620   12.8914   -3.6998 H   0  0  0  0  0  0  0  0  0  0  0  0
    3.0067   10.6576   -5.8070 H   0  0  0  0  0  0  0  0  0  0  0  0
    2.5915   12.4161   -6.0228 H   0  0  0  0  0  0  0  0  0  0  0  0
    4.7622   11.8324   -7.0556 H   0  0  0  0  0  0  0  0  0  0  0  0
    4.9176   13.0349   -5.7155 H   0  0  0  0  0  0  0  0  0  0  0  0
    6.6877   11.4268   -5.5168 H   0  0  0  0  0  0  0  0  0  0  0  0
    4.5470    9.4960   -5.4810 H   0  0  0  0  0  0  0  0  0  0  0  0
    6.0946   12.5302   -2.1091 H   0  0  0  0  0  0  0  0  0  0  0  0
    7.1122   12.6796   -3.5818 H   0  0  0  0  0  0  0  0  0  0  0  0
    5.4331   13.3177   -3.5818 H   0  0  0  0  0  0  0  0  0  0  0  0
    6.4889   10.1205   -2.0165 H   0  0  0  0  0  0  0  0  0  0  0  0
    6.2164    9.0788   -3.4543 H   0  0  0  0  0  0  0  0  0  0  0  0
    7.5542   10.2776   -3.4543 H   0  0  0  0  0  0  0  0  0  0  0  0
    0.5059    9.7321   -3.6370 H   0  0  0  0  0  0  0  0  0  0  0  0
    0.0955   10.8580   -4.9750 H   0  0  0  0  0  0  0  0  0  0  0  0
    1.6739   10.0005   -4.9750 H   0  0  0  0  0  0  0  0  0  0  0  0
    1.1548   13.3486   -4.8518 H   0  0  0  0  0  0  0  0  0  0  0  0
   -0.3163   12.6024   -4.0062 H   0  0  0  0  0  0  0  0  0  0  0  0
    1.6916   14.5524   -2.8446 H   0  0  0  0  0  0  0  0  0  0  0  0
   -0.0644   14.8098   -3.1851 H   0  0  0  0  0  0  0  0  0  0  0  0
   -1.4871   12.7881   -0.5504 H   0  0  0  0  0  0  0  0  0  0  0  0
   -1.7606   13.6467   -2.1043 H   0  0  0  0  0  0  0  0  0  0  0  0
   -1.0775   11.9854   -2.1043 H   0  0  0  0  0  0  0  0  0  0  0  0
  1  2  1  0
  2  3  1  0
  3  4  1  0
  4  5  1  0
  5  6  1  0
  6  7  1  0
  7  8  1  0
  7  9  1  0
  2 10  1  0
 10 11  1  0
 11 12  1  0
 12 13  1  0
 13 14  1  1
 13 15  1  0
 15 16  1  0
 16 17  1  0
 17 18  2  0
 18 19  1  0
 19 20  1  0
 20 21  1  0
 21 22  1  0
 22 23  1  0
 22 24  1  0
 24 25  1  0
 24 26  1  0
 19 27  1  0
 27 28  1  6
 27 29  1  0
 29 30  1  0
 30 31  1  0
 31 32  1  6
  7  5  1  0
 31 10  1  0
 31 13  1  0
 27 15  1  0
 24 18  1  0
  1 33  1  0
  1 34  1  0
  1 35  1  0
  2 36  1  6
  3 37  1  0
  3 38  1  0
  4 39  1  0
  4 40  1  0
  5 41  1  6
  8 42  1  0
  8 43  1  0
  8 44  1  0
  9 45  1  0
  9 46  1  0
  9 47  1  0
 10 48  1  6
 11 49  1  0
 11 50  1  0
 12 51  1  0
 12 52  1  0
 14 53  1  0
 14 54  1  0
 14 55  1  0
 15 56  1  6
 16 57  1  0
 16 58  1  0
 17 59  1  0
 19 60  1  1
 20 61  1  0
 20 62  1  0
 21 63  1  0
 21 64  1  0
 22 65  1  1
 23 66  1  0
 25 67  1  0
 25 68  1  0
 25 69  1  0
 26 70  1  0
 26 71  1  0
 26 72  1  0
 28 73  1  0
 28 74  1  0
 28 75  1  0
 29 76  1  0
 29 77  1  0
 30 78  1  0
 30 79  1  0
 32 80  1  0
 32 81  1  0
 32 82  1  0
M  END
>  <meeko>  (12) 
{"is_sidechain": [false], "intermolecular_energy": 2.731, "internal_energy": -0.839}

$$$$
EPH_relaxed_0001_pdb2pqr_Repair_193_r2_0001_out
     RDKit          3D

 82 86  0  0  0  0  0  0  0  0999 V2000
    3.1160   14.8320   -7.5770 C   0  0  0  0  0  0  0  0  0  0  0  0
    1.5920   14.8460   -7.4290 C   0  0  2  0  0  0  0  0  0  0  0  0
    0.9500   16.0470   -8.1510 C   0  0  0  0  0  0  0  0  0  0  0  0
    1.8920   16.7510   -9.1310 C   0  0  0  0  0  0  0  0  0  0  0  0
    1.5940   16.3770  -10.5520 C   0  0  2  0  0  0  0  0  0  0  0  0
    1.0020   15.0820  -10.7180 O   0  0  0  0  0  0  0  0  0  0  0  0
    2.3080   15.2590  -11.2890 C   0  0  0  0  0  0  0  0  0  0  0  0
    3.3770   14.4470  -10.6290 C   0  0  0  0  0  0  0  0  0  0  0  0
    2.3130   15.2790  -12.7860 C   0  0  0  0  0  0  0  0  0  0  0  0
    1.2130   14.8610   -5.9530 C   0  0  1  0  0  0  0  0  0  0  0  0
   -0.0380   15.7330   -5.6660 C   0  0  0  0  0  0  0  0  0  0  0  0
   -0.8150   15.0380   -4.5190 C   0  0  0  0  0  0  0  0  0  0  0  0
    0.1720   13.9850   -3.9620 C   0  0  1  0  0  0  0  0  0  0  0  0
    1.1150   14.7840   -3.0090 C   0  0  0  0  0  0  0  0  0  0  0  0
   -0.4670   12.7520   -3.2430 C   0  0  2  0  0  0  0  0  0  0  0  0
   -1.2790   13.0830   -1.9780 C   0  0  0  0  0  0  0  0  0  0  0  0
   -0.5040   13.0720   -0.7020 C   0  0  0  0  0  0  0  0  0  0  0  0
    0.7180   12.5340   -0.5330 C   0  0  0  0  0  0  0  0  0  0  0  0
    1.4050   11.7690   -1.6720 C   0  0  1  0  0  0  0  0  0  0  0  0
    1.9900   10.4410   -1.1240 C   0  0  0  0  0  0  0  0  0  0  0  0
    2.9100   10.6560    0.0740 C   0  0  0  0  0  0  0  0  0  0  0  0
    2.1740   11.3670    1.2060 C   0  0  2  0  0  0  0  0  0  0  0  0
    1.1600   10.4960    1.7160 O   0  0  0  0  0  0  0  0  0  0  0  0
    1.5340   12.7150    0.7700 C   0  0  0  0  0  0  0  0  0  0  0  0
    2.6480   13.7580    0.5050 C   0  0  0  0  0  0  0  0  0  0  0  0
    0.7050   13.2580    1.9650 C   0  0  0  0  0  0  0  0  0  0  0  0
    0.5390   11.5580   -2.9870 C   0  0  1  0  0  0  0  0  0  0  0  0
   -0.3260   10.2680   -2.8530 C   0  0  0  0  0  0  0  0  0  0  0  0
    1.5060   11.3190   -4.2070 C   0  0  0  0  0  0  0  0  0  0  0  0
    2.0080   12.5710   -4.9510 C   0  0  0  0  0  0  0  0  0  0  0  0
    0.8450   13.5050   -5.2990 C   0  0  2  0  0  0  0  0  0  0  0  0
   -0.1100   12.7370   -6.2750 C   0  0  0  0  0  0  0  0  0  0  0  0
    3.5812   14.8277   -6.5802 H   0  0  0  0  0  0  0  0  0  0  0  0
    3.4226   13.9310   -8.1286 H   0  0  0  0  0  0  0  0  0  0  0  0
    3.4391   15.7272   -8.1286 H   0  0  0  0  0  0  0  0  0  0  0  0
    1.2049   13.9315   -7.9021 H   0  0  0  0  0  0  0  0  0  0  0  0
    0.0729   15.6881   -8.7094 H   0  0  0  0  0  0  0  0  0  0  0  0
    0.6830   16.7820   -7.3774 H   0  0  0  0  0  0  0  0  0  0  0  0
    1.7768   17.8390   -9.0170 H   0  0  0  0  0  0  0  0  0  0  0  0
    2.9213   16.4376   -8.9025 H   0  0  0  0  0  0  0  0  0  0  0  0
    1.4003   17.4277  -10.8137 H   0  0  0  0  0  0  0  0  0  0  0  0
    3.2747   14.5247   -9.5365 H   0  0  0  0  0  0  0  0  0  0  0  0
    3.2780   13.3944  -10.9326 H   0  0  0  0  0  0  0  0  0  0  0  0
    4.3645   14.8248  -10.9326 H   0  0  0  0  0  0  0  0  0  0  0  0
    2.5657   16.2899  -13.1383 H   0  0  0  0  0  0  0  0  0  0  0  0
    3.0598   14.5631  -13.1598 H   0  0  0  0  0  0  0  0  0  0  0  0
    1.3171   14.9987  -13.1598 H   0  0  0  0  0  0  0  0  0  0  0  0
    2.1522   15.2424   -5.5258 H   0  0  0  0  0  0  0  0  0  0  0  0
    0.2676   16.7439   -5.3582 H   0  0  0  0  0  0  0  0  0  0  0  0
   -0.6650   15.8313   -6.5644 H   0  0  0  0  0  0  0  0  0  0  0  0
   -1.0889   15.7643   -3.7396 H   0  0  0  0  0  0  0  0  0  0  0  0
   -1.7557   14.5858   -4.8662 H   0  0  0  0  0  0  0  0  0  0  0  0
    0.8534   14.5623   -1.9638 H   0  0  0  0  0  0  0  0  0  0  0  0
    2.1587   14.4912   -3.1958 H   0  0  0  0  0  0  0  0  0  0  0  0
    0.9975   15.8616   -3.1958 H   0  0  0  0  0  0  0  0  0  0  0  0
   -1.1989   12.3997   -3.9848 H   0  0  0  0  0  0  0  0  0  0  0  0
   -1.7114   14.0865   -2.1045 H   0  0  0  0  0  0  0  0  0  0  0  0
   -2.0327   12.2874   -1.8832 H   0  0  0  0  0  0  0  0  0  0  0  0
   -0.9716   13.5438    0.1748 H   0  0  0  0  0  0  0  0  0  0  0  0
    2.2196   12.4178   -2.0263 H   0  0  0  0  0  0  0  0  0  0  0  0
    1.1584    9.7896   -0.8173 H   0  0  0  0  0  0  0  0  0  0  0  0
    2.5883    9.9841   -1.9261 H   0  0  0  0  0  0  0  0  0  0  0  0
    3.2667    9.6796    0.4338 H   0  0  0  0  0  0  0  0  0  0  0  0
    3.7573   11.2824   -0.2419 H   0  0  0  0  0  0  0  0  0  0  0  0
    2.9165   11.6086    1.9808 H   0  0  0  0  0  0  0  0  0  0  0  0
    0.3600   10.6310    1.1810 H   0  0  0  0  0  0  0  0  0  0  0  0
    3.0412   14.1262    1.4641 H   0  0  0  0  0  0  0  0  0  0  0  0
    3.4608   13.2886   -0.0686 H   0  0  0  0  0  0  0  0  0  0  0  0
    2.2331   14.5999   -0.0686 H   0  0  0  0  0  0  0  0  0  0  0  0
    1.1770   12.9488    2.9093 H   0  0  0  0  0  0  0  0  0  0  0  0
    0.6674   14.3563    1.9162 H   0  0  0  0  0  0  0  0  0  0  0  0
   -0.3168   12.8536    1.9162 H   0  0  0  0  0  0  0  0  0  0  0  0
   -0.4798   10.0386   -1.7882 H   0  0  0  0  0  0  0  0  0  0  0  0
   -1.3002   10.4278   -3.3381 H   0  0  0  0  0  0  0  0  0  0  0  0
    0.1917    9.4274   -3.3381 H   0  0  0  0  0  0  0  0  0  0  0  0
    2.3878   10.7789   -3.8319 H   0  0  0  0  0  0  0  0  0  0  0  0
    0.9066   10.7664   -4.9454 H   0  0  0  0  0  0  0  0  0  0  0  0
    2.7218   13.1087   -4.3096 H   0  0  0  0  0  0  0  0  0  0  0  0
    2.4938   12.2527   -5.8852 H   0  0  0  0  0  0  0  0  0  0  0  0
   -0.8370   12.1524   -5.6922 H   0  0  0  0  0  0  0  0  0  0  0  0
   -0.6446   13.4596   -6.9091 H   0  0  0  0  0  0  0  0  0  0  0  0
    0.4811   12.0598   -6.9091 H   0  0  0  0  0  0  0  0  0  0  0  0
  1  2  1  0
  2  3  1  0
  3  4  1  0
  4  5  1  0
  5  6  1  0
  6  7  1  0
  7  8  1  0
  7  9  1  0
  2 10  1  0
 10 11  1  0
 11 12  1  0
 12 13  1  0
 13 14  1  1
 13 15  1  0
 15 16  1  0
 16 17  1  0
 17 18  2  0
 18 19  1  0
 19 20  1  0
 20 21  1  0
 21 22  1  0
 22 23  1  0
 22 24  1  0
 24 25  1  0
 24 26  1  0
 19 27  1  0
 27 28  1  1
 27 29  1  0
 29 30  1  0
 30 31  1  0
 31 32  1  6
  7  5  1  0
 31 10  1  0
 31 13  1  0
 27 15  1  0
 24 18  1  0
  1 33  1  0
  1 34  1  0
  1 35  1  0
  2 36  1  6
  3 37  1  0
  3 38  1  0
  4 39  1  0
  4 40  1  0
  5 41  1  6
  8 42  1  0
  8 43  1  0
  8 44  1  0
  9 45  1  0
  9 46  1  0
  9 47  1  0
 10 48  1  1
 11 49  1  0
 11 50  1  0
 12 51  1  0
 12 52  1  0
 14 53  1  0
 14 54  1  0
 14 55  1  0
 15 56  1  6
 16 57  1  0
 16 58  1  0
 17 59  1  0
 19 60  1  6
 20 61  1  0
 20 62  1  0
 21 63  1  0
 21 64  1  0
 22 65  1  1
 23 66  1  0
 25 67  1  0
 25 68  1  0
 25 69  1  0
 26 70  1  0
 26 71  1  0
 26 72  1  0
 28 73  1  0
 28 74  1  0
 28 75  1  0
 29 76  1  0
 29 77  1  0
 30 78  1  0
 30 79  1  0
 32 80  1  0
 32 81  1  0
 32 82  1  0
M  END
>  <meeko>  (13) 
{"is_sidechain": [false], "intermolecular_energy": 2.731, "internal_energy": -0.839}

$$$$
EPH_relaxed_0001_pdb2pqr_Repair_193_r2_0001_out
     RDKit          3D

 82 86  0  0  0  0  0  0  0  0999 V2000
   -0.6450   16.4880   -0.1550 C   0  0  0  0  0  0  0  0  0  0  0  0
   -0.8340   15.1420    0.5490 C   0  0  2  0  0  0  0  0  0  0  0  0
   -1.0020   15.3020    2.0730 C   0  0  0  0  0  0  0  0  0  0  0  0
   -0.8570   13.9910    2.8500 C   0  0  0  0  0  0  0  0  0  0  0  0
   -0.6050   14.2340    4.3070 C   0  0  2  0  0  0  0  0  0  0  0  0
    0.0250   13.1460    4.9960 O   0  0  0  0  0  0  0  0  0  0  0  0
   -1.3090   13.4750    5.4160 C   0  0  0  0  0  0  0  0  0  0  0  0
   -2.3220   12.4150    5.1150 C   0  0  0  0  0  0  0  0  0  0  0  0
   -1.3770   14.0950    6.7770 C   0  0  0  0  0  0  0  0  0  0  0  0
    0.3480   14.2280    0.2480 C   0  0  1  0  0  0  0  0  0  0  0  0
    0.6540   13.2460    1.4100 C   0  0  0  0  0  0  0  0  0  0  0  0
    1.1410   11.9240    0.7620 C   0  0  0  0  0  0  0  0  0  0  0  0
    1.4150   12.2920   -0.7150 C   0  0  1  0  0  0  0  0  0  0  0  0
    2.8270   12.9550   -0.7080 C   0  0  0  0  0  0  0  0  0  0  0  0
    1.3330   11.1190   -1.7460 C   0  0  2  0  0  0  0  0  0  0  0  0
    2.3590    9.9920   -1.5350 C   0  0  0  0  0  0  0  0  0  0  0  0
    3.6540   10.1650   -2.2580 C   0  0  0  0  0  0  0  0  0  0  0  0
    3.8780   11.0300   -3.2650 C   0  0  0  0  0  0  0  0  0  0  0  0
    2.7390   11.8820   -3.8390 C   0  0  1  0  0  0  0  0  0  0  0  0
    2.7820   11.8270   -5.3890 C   0  0  0  0  0  0  0  0  0  0  0  0
    4.1450   12.2190   -5.9510 C   0  0  0  0  0  0  0  0  0  0  0  0
    5.2430   11.3120   -5.4010 C   0  0  2  0  0  0  0  0  0  0  0  0
    5.0410    9.9880   -5.9050 O   0  0  0  0  0  0  0  0  0  0  0  0
    5.2910   11.2790   -3.8480 C   0  0  0  0  0  0  0  0  0  0  0  0
    5.8040   12.6390   -3.3140 C   0  0  0  0  0  0  0  0  0  0  0  0
    6.3450   10.2210   -3.4250 C   0  0  0  0  0  0  0  0  0  0  0  0
    1.2900   11.5860   -3.2570 C   0  0  1  0  0  0  0  0  0  0  0  0
    0.6200   10.4300   -4.0620 C   0  0  0  0  0  0  0  0  0  0  0  0
    0.3830   12.8560   -3.4660 C   0  0  0  0  0  0  0  0  0  0  0  0
    0.4170   13.9230   -2.3550 C   0  0  0  0  0  0  0  0  0  0  0  0
    0.2250   13.2860   -0.9760 C   0  0  2  0  0  0  0  0  0  0  0  0
   -1.1970   12.6300   -0.9450 C   0  0  0  0  0  0  0  0  0  0  0  0
   -0.5334   17.2828    0.5973 H   0  0  0  0  0  0  0  0  0  0  0  0
    0.2565   16.4494   -0.7841 H   0  0  0  0  0  0  0  0  0  0  0  0
   -1.5223   16.6991   -0.7841 H   0  0  0  0  0  0  0  0  0  0  0  0
   -1.7599   14.6926    0.1608 H   0  0  0  0  0  0  0  0  0  0  0  0
   -0.2380   16.0060    2.4344 H   0  0  0  0  0  0  0  0  0  0  0  0
   -2.0252   15.6667    2.2467 H   0  0  0  0  0  0  0  0  0  0  0  0
   -1.7834   13.4079    2.7410 H   0  0  0  0  0  0  0  0  0  0  0  0
    0.0045   13.4435    2.4401 H   0  0  0  0  0  0  0  0  0  0  0  0
   -0.4592   15.3092    4.1260 H   0  0  0  0  0  0  0  0  0  0  0  0
   -2.7142   12.0046    6.0572 H   0  0  0  0  0  0  0  0  0  0  0  0
   -3.1474   12.8512    4.5333 H   0  0  0  0  0  0  0  0  0  0  0  0
   -1.8488   11.6102    4.5333 H   0  0  0  0  0  0  0  0  0  0  0  0
   -1.2909   13.3097    7.5424 H   0  0  0  0  0  0  0  0  0  0  0  0
   -0.5523   14.8134    6.8943 H   0  0  0  0  0  0  0  0  0  0  0  0
   -2.3378   14.6175    6.8943 H   0  0  0  0  0  0  0  0  0  0  0  0
    1.1245   14.9849    0.0635 H   0  0  0  0  0  0  0  0  0  0  0  0
    1.4386   13.6608    2.0598 H   0  0  0  0  0  0  0  0  0  0  0  0
   -0.2390   13.0767    2.0295 H   0  0  0  0  0  0  0  0  0  0  0  0
    2.0599   11.5675    1.2504 H   0  0  0  0  0  0  0  0  0  0  0  0
    0.4030   11.1143    0.8604 H   0  0  0  0  0  0  0  0  0  0  0  0
    3.1547   13.1089    0.3307 H   0  0  0  0  0  0  0  0  0  0  0  0
    3.5427   12.2988   -1.2249 H   0  0  0  0  0  0  0  0  0  0  0  0
    2.7793   13.9248   -1.2249 H   0  0  0  0  0  0  0  0  0  0  0  0
    0.3518   10.6756   -1.5211 H   0  0  0  0  0  0  0  0  0  0  0  0
    2.5766    9.9275   -0.4587 H   0  0  0  0  0  0  0  0  0  0  0  0
    1.8998    9.0813   -1.9469 H   0  0  0  0  0  0  0  0  0  0  0  0
    4.4961    9.5322   -1.9410 H   0  0  0  0  0  0  0  0  0  0  0  0
    2.9262   12.9105   -3.4968 H   0  0  0  0  0  0  0  0  0  0  0  0
    2.5491   10.8016   -5.7120 H   0  0  0  0  0  0  0  0  0  0  0  0
    2.0441   12.5488   -5.7692 H   0  0  0  0  0  0  0  0  0  0  0  0
    4.1212   12.1314   -7.0472 H   0  0  0  0  0  0  0  0  0  0  0  0
    4.3631   13.2551   -5.6527 H   0  0  0  0  0  0  0  0  0  0  0  0
    6.2078   11.7218   -5.7346 H   0  0  0  0  0  0  0  0  0  0  0  0
    4.1960    9.9810   -6.3850 H   0  0  0  0  0  0  0  0  0  0  0  0
    5.7992   12.6264   -2.2141 H   0  0  0  0  0  0  0  0  0  0  0  0
    6.8289   12.8114   -3.6743 H   0  0  0  0  0  0  0  0  0  0  0  0
    5.1482   13.4453   -3.6743 H   0  0  0  0  0  0  0  0  0  0  0  0
    6.3945   10.1713   -2.3272 H   0  0  0  0  0  0  0  0  0  0  0  0
    6.0574    9.2371   -3.8240 H   0  0  0  0  0  0  0  0  0  0  0  0
    7.3300   10.5048   -3.8240 H   0  0  0  0  0  0  0  0  0  0  0  0
    0.1941    9.6952   -3.3629 H   0  0  0  0  0  0  0  0  0  0  0  0
   -0.1804   10.8402   -4.6954 H   0  0  0  0  0  0  0  0  0  0  0  0
    1.3738    9.9394   -4.6954 H   0  0  0  0  0  0  0  0  0  0  0  0
    0.6982   13.3399   -4.4022 H   0  0  0  0  0  0  0  0  0  0  0  0
   -0.6492   12.4758   -3.4692 H   0  0  0  0  0  0  0  0  0  0  0  0
    1.3884   14.4385   -2.3810 H   0  0  0  0  0  0  0  0  0  0  0  0
   -0.4025   14.6359   -2.5288 H   0  0  0  0  0  0  0  0  0  0  0  0
   -1.5112   12.4850    0.0991 H   0  0  0  0  0  0  0  0  0  0  0  0
   -1.9154   13.2877   -1.4562 H   0  0  0  0  0  0  0  0  0  0  0  0
   -1.1630   11.6566   -1.4562 H   0  0  0  0  0  0  0  0  0  0  0  0
  1  2  1  0
  2  3  1  0
  3  4  1  0
  4  5  1  0
  5  6  1  0
  6  7  1  0
  7  8  1  0
  7  9  1  0
  2 10  1  0
 10 11  1  0
 11 12  1  0
 12 13  1  0
 13 14  1  1
 13 15  1  0
 15 16  1  0
 16 17  1  0
 17 18  2  0
 18 19  1  0
 19 20  1  0
 20 21  1  0
 21 22  1  0
 22 23  1  0
 22 24  1  0
 24 25  1  0
 24 26  1  0
 19 27  1  0
 27 28  1  6
 27 29  1  0
 29 30  1  0
 30 31  1  0
 31 32  1  6
  7  5  1  0
 31 10  1  0
 31 13  1  0
 27 15  1  0
 24 18  1  0
  1 33  1  0
  1 34  1  0
  1 35  1  0
  2 36  1  6
  3 37  1  0
  3 38  1  0
  4 39  1  0
  4 40  1  0
  5 41  1  1
  8 42  1  0
  8 43  1  0
  8 44  1  0
  9 45  1  0
  9 46  1  0
  9 47  1  0
 10 48  1  6
 11 49  1  0
 11 50  1  0
 12 51  1  0
 12 52  1  0
 14 53  1  0
 14 54  1  0
 14 55  1  0
 15 56  1  1
 16 57  1  0
 16 58  1  0
 17 59  1  0
 19 60  1  6
 20 61  1  0
 20 62  1  0
 21 63  1  0
 21 64  1  0
 22 65  1  6
 23 66  1  0
 25 67  1  0
 25 68  1  0
 25 69  1  0
 26 70  1  0
 26 71  1  0
 26 72  1  0
 28 73  1  0
 28 74  1  0
 28 75  1  0
 29 76  1  0
 29 77  1  0
 30 78  1  0
 30 79  1  0
 32 80  1  0
 32 81  1  0
 32 82  1  0
M  END
>  <meeko>  (14) 
{"is_sidechain": [false], "intermolecular_energy": 2.731, "internal_energy": -0.839}

$$$$
EPH_relaxed_0001_pdb2pqr_Repair_193_r2_0001_out
     RDKit          3D

 82 86  0  0  0  0  0  0  0  0999 V2000
    0.9160    8.2640   -2.1640 C   0  0  0  0  0  0  0  0  0  0  0  0
   -0.5370    8.5950   -1.8130 C   0  0  2  0  0  0  0  0  0  0  0  0
   -1.5350    7.9360   -2.7860 C   0  0  0  0  0  0  0  0  0  0  0  0
   -2.8960    7.6280   -2.1570 C   0  0  0  0  0  0  0  0  0  0  0  0
   -3.7370    6.7650   -3.0490 C   0  0  2  0  0  0  0  0  0  0  0  0
   -4.7620    7.4650   -3.7650 O   0  0  0  0  0  0  0  0  0  0  0  0
   -5.2100    6.4950   -2.8050 C   0  0  0  0  0  0  0  0  0  0  0  0
   -5.9280    7.0860   -1.6320 C   0  0  0  0  0  0  0  0  0  0  0  0
   -5.8250    5.2770   -3.4200 C   0  0  0  0  0  0  0  0  0  0  0  0
   -0.7380   10.1060   -1.8050 C   0  0  1  0  0  0  0  0  0  0  0  0
   -2.2070   10.5120   -1.5130 C   0  0  0  0  0  0  0  0  0  0  0  0
   -2.1540   11.8240   -0.6890 C   0  0  0  0  0  0  0  0  0  0  0  0
   -0.6890   12.3060   -0.8180 C   0  0  1  0  0  0  0  0  0  0  0  0
   -0.6240   13.0240   -2.2020 C   0  0  0  0  0  0  0  0  0  0  0  0
   -0.1590   13.2210    0.3330 C   0  0  2  0  0  0  0  0  0  0  0  0
   -0.8920   14.5660    0.4870 C   0  0  0  0  0  0  0  0  0  0  0  0
   -0.3190   15.6980   -0.2980 C   0  0  0  0  0  0  0  0  0  0  0  0
    0.9000   15.7160   -0.8690 C   0  0  0  0  0  0  0  0  0  0  0  0
    1.8800   14.5530   -0.6700 C   0  0  1  0  0  0  0  0  0  0  0  0
    3.2840   15.1140   -0.3220 C   0  0  0  0  0  0  0  0  0  0  0  0
    3.7810   16.1270   -1.3490 C   0  0  0  0  0  0  0  0  0  0  0  0
    2.8090   17.2960   -1.4770 C   0  0  2  0  0  0  0  0  0  0  0  0
    2.8110   18.0340   -0.2510 O   0  0  0  0  0  0  0  0  0  0  0  0
    1.3580   16.8520   -1.8160 C   0  0  0  0  0  0  0  0  0  0  0  0
    1.3030   16.3250   -3.2710 C   0  0  0  0  0  0  0  0  0  0  0  0
    0.4520   18.1120   -1.7770 C   0  0  0  0  0  0  0  0  0  0  0  0
    1.4110   13.4160    0.3360 C   0  0  1  0  0  0  0  0  0  0  0  0
    1.8100   13.7970    1.7940 C   0  0  0  0  0  0  0  0  0  0  0  0
    2.1790   12.0830   -0.0010 C   0  0  0  0  0  0  0  0  0  0  0  0
    1.5430   11.1630   -1.0600 C   0  0  0  0  0  0  0  0  0  0  0  0
    0.0600   10.9250   -0.7600 C   0  0  2  0  0  0  0  0  0  0  0  0
   -0.0360   10.1840    0.6170 C   0  0  0  0  0  0  0  0  0  0  0  0
    1.4958    8.1319   -1.2386 H   0  0  0  0  0  0  0  0  0  0  0  0
    0.9486    7.3354   -2.7528 H   0  0  0  0  0  0  0  0  0  0  0  0
    1.3476    9.0868   -2.7528 H   0  0  0  0  0  0  0  0  0  0  0  0
   -0.7361    8.1876   -0.8108 H   0  0  0  0  0  0  0  0  0  0  0  0
   -1.6914    8.6161   -3.6363 H   0  0  0  0  0  0  0  0  0  0  0  0
   -1.0976    6.9743   -3.0924 H   0  0  0  0  0  0  0  0  0  0  0  0
   -2.7373    7.1055   -1.2021 H   0  0  0  0  0  0  0  0  0  0  0  0
   -3.4255    8.5797   -2.0026 H   0  0  0  0  0  0  0  0  0  0  0  0
   -2.8863    6.0950   -3.2426 H   0  0  0  0  0  0  0  0  0  0  0  0
   -5.4764    6.7143   -0.7004 H   0  0  0  0  0  0  0  0  0  0  0  0
   -5.8468    8.1824   -1.6668 H   0  0  0  0  0  0  0  0  0  0  0  0
   -6.9884    6.7956   -1.6668 H   0  0  0  0  0  0  0  0  0  0  0  0
   -6.1677    4.5982   -2.6252 H   0  0  0  0  0  0  0  0  0  0  0  0
   -6.6814    5.5736   -4.0434 H   0  0  0  0  0  0  0  0  0  0  0  0
   -5.0779    4.7640   -4.0434 H   0  0  0  0  0  0  0  0  0  0  0  0
   -0.3837   10.3436   -2.8189 H   0  0  0  0  0  0  0  0  0  0  0  0
   -2.7483   10.6787   -2.4560 H   0  0  0  0  0  0  0  0  0  0  0  0
   -2.7329    9.7197   -0.9601 H   0  0  0  0  0  0  0  0  0  0  0  0
   -2.8467   12.5713   -1.1034 H   0  0  0  0  0  0  0  0  0  0  0  0
   -2.4526   11.6714    0.3586 H   0  0  0  0  0  0  0  0  0  0  0  0
   -0.5258   14.1087   -2.0481 H   0  0  0  0  0  0  0  0  0  0  0  0
    0.2443   12.6537   -2.7668 H   0  0  0  0  0  0  0  0  0  0  0  0
   -1.5447   12.8157   -2.7668 H   0  0  0  0  0  0  0  0  0  0  0  0
   -0.4099   12.6382    1.2316 H   0  0  0  0  0  0  0  0  0  0  0  0
   -1.9345   14.4235    0.1664 H   0  0  0  0  0  0  0  0  0  0  0  0
   -0.7910   14.8480    1.5454 H   0  0  0  0  0  0  0  0  0  0  0  0
   -0.9456   16.5937   -0.4206 H   0  0  0  0  0  0  0  0  0  0  0  0
    1.9185   14.0191   -1.6310 H   0  0  0  0  0  0  0  0  0  0  0  0
    3.2338   15.6046    0.6613 H   0  0  0  0  0  0  0  0  0  0  0  0
    3.9890   14.2697   -0.3180 H   0  0  0  0  0  0  0  0  0  0  0  0
    4.7629   16.5084   -1.0323 H   0  0  0  0  0  0  0  0  0  0  0  0
    3.8591   15.6270   -2.3257 H   0  0  0  0  0  0  0  0  0  0  0  0
    3.1514   17.9188   -2.3166 H   0  0  0  0  0  0  0  0  0  0  0  0
    2.4340   17.4610    0.4380 H   0  0  0  0  0  0  0  0  0  0  0  0
    1.1888   15.2310   -3.2607 H   0  0  0  0  0  0  0  0  0  0  0  0
    0.4473   16.7781   -3.7930 H   0  0  0  0  0  0  0  0  0  0  0  0
    2.2338   16.5916   -3.7930 H   0  0  0  0  0  0  0  0  0  0  0  0
    0.2532   18.3884   -0.7310 H   0  0  0  0  0  0  0  0  0  0  0  0
    0.9596   18.9445   -2.2862 H   0  0  0  0  0  0  0  0  0  0  0  0
   -0.4988   17.8958   -2.2862 H   0  0  0  0  0  0  0  0  0  0  0  0
    1.2023   13.2167    2.5040 H   0  0  0  0  0  0  0  0  0  0  0  0
    2.8749   13.5720    1.9534 H   0  0  0  0  0  0  0  0  0  0  0  0
    1.6343   14.8711    1.9534 H   0  0  0  0  0  0  0  0  0  0  0  0
    3.1821   12.3584   -0.3588 H   0  0  0  0  0  0  0  0  0  0  0  0
    2.1658   11.4999    0.9317 H   0  0  0  0  0  0  0  0  0  0  0  0
    1.6389   11.6335   -2.0497 H   0  0  0  0  0  0  0  0  0  0  0  0
    2.0643   10.1945   -1.0419 H   0  0  0  0  0  0  0  0  0  0  0  0
    0.0586   10.9146    1.4339 H   0  0  0  0  0  0  0  0  0  0  0  0
   -1.0077    9.6740    0.6920 H   0  0  0  0  0  0  0  0  0  0  0  0
    0.7737    9.4432    0.6920 H   0  0  0  0  0  0  0  0  0  0  0  0
  1  2  1  0
  2  3  1  0
  3  4  1  0
  4  5  1  0
  5  6  1  0
  6  7  1  0
  7  8  1  0
  7  9  1  0
  2 10  1  0
 10 11  1  0
 11 12  1  0
 12 13  1  0
 13 14  1  6
 13 15  1  0
 15 16  1  0
 16 17  1  0
 17 18  2  0
 18 19  1  0
 19 20  1  0
 20 21  1  0
 21 22  1  0
 22 23  1  0
 22 24  1  0
 24 25  1  0
 24 26  1  0
 19 27  1  0
 27 28  1  1
 27 29  1  0
 29 30  1  0
 30 31  1  0
 31 32  1  1
  7  5  1  0
 31 10  1  0
 31 13  1  0
 27 15  1  0
 24 18  1  0
  1 33  1  0
  1 34  1  0
  1 35  1  0
  2 36  1  1
  3 37  1  0
  3 38  1  0
  4 39  1  0
  4 40  1  0
  5 41  1  6
  8 42  1  0
  8 43  1  0
  8 44  1  0
  9 45  1  0
  9 46  1  0
  9 47  1  0
 10 48  1  6
 11 49  1  0
 11 50  1  0
 12 51  1  0
 12 52  1  0
 14 53  1  0
 14 54  1  0
 14 55  1  0
 15 56  1  1
 16 57  1  0
 16 58  1  0
 17 59  1  0
 19 60  1  6
 20 61  1  0
 20 62  1  0
 21 63  1  0
 21 64  1  0
 22 65  1  6
 23 66  1  0
 25 67  1  0
 25 68  1  0
 25 69  1  0
 26 70  1  0
 26 71  1  0
 26 72  1  0
 28 73  1  0
 28 74  1  0
 28 75  1  0
 29 76  1  0
 29 77  1  0
 30 78  1  0
 30 79  1  0
 32 80  1  0
 32 81  1  0
 32 82  1  0
M  END
>  <meeko>  (15) 
{"is_sidechain": [false], "intermolecular_energy": 2.731, "internal_energy": -0.839}

$$$$
EPH_relaxed_0001_pdb2pqr_Repair_193_r2_0001_out
     RDKit          3D

 82 86  0  0  0  0  0  0  0  0999 V2000
    0.9490   14.8410   -2.6080 C   0  0  0  0  0  0  0  0  0  0  0  0
    1.2130   14.1680   -3.9580 C   0  0  2  0  0  0  0  0  0  0  0  0
    0.5140   14.9030   -5.1200 C   0  0  0  0  0  0  0  0  0  0  0  0
    1.1200   14.6010   -6.4930 C   0  0  0  0  0  0  0  0  0  0  0  0
    0.8360   15.6950   -7.4770 C   0  0  2  0  0  0  0  0  0  0  0  0
    0.3080   15.2480   -8.7330 O   0  0  0  0  0  0  0  0  0  0  0  0
    1.6020   15.8720   -8.7750 C   0  0  0  0  0  0  0  0  0  0  0  0
    2.7130   14.9450   -9.1580 C   0  0  0  0  0  0  0  0  0  0  0  0
    1.6010   17.2190   -9.4280 C   0  0  0  0  0  0  0  0  0  0  0  0
    0.7560   12.7150   -3.9120 C   0  0  1  0  0  0  0  0  0  0  0  0
    1.8930   11.7200   -4.2680 C   0  0  0  0  0  0  0  0  0  0  0  0
    1.6710   10.4560   -3.3980 C   0  0  0  0  0  0  0  0  0  0  0  0
    0.2450   10.6250   -2.8230 C   0  0  1  0  0  0  0  0  0  0  0  0
   -0.7070   10.1580   -3.9680 C   0  0  0  0  0  0  0  0  0  0  0  0
   -0.0520    9.8760   -1.4830 C   0  0  2  0  0  0  0  0  0  0  0  0
    0.0500    8.3420   -1.5560 C   0  0  0  0  0  0  0  0  0  0  0  0
   -1.2180    7.6350   -1.9060 C   0  0  0  0  0  0  0  0  0  0  0  0
   -2.4500    8.1760   -1.8740 C   0  0  0  0  0  0  0  0  0  0  0  0
   -2.6700    9.6050   -1.3590 C   0  0  1  0  0  0  0  0  0  0  0  0
   -3.8710    9.6230   -0.3780 C   0  0  0  0  0  0  0  0  0  0  0  0
   -5.1340    9.0220   -0.9880 C   0  0  0  0  0  0  0  0  0  0  0  0
   -4.8920    7.5820   -1.4340 C   0  0  2  0  0  0  0  0  0  0  0  0
   -4.6610    6.7730   -0.2770 O   0  0  0  0  0  0  0  0  0  0  0  0
   -3.6970    7.4380   -2.4190 C   0  0  0  0  0  0  0  0  0  0  0  0
   -4.0720    8.0610   -3.7860 C   0  0  0  0  0  0  0  0  0  0  0  0
   -3.4730    5.9240   -2.6780 C   0  0  0  0  0  0  0  0  0  0  0  0
   -1.3870   10.3330   -0.7670 C   0  0  1  0  0  0  0  0  0  0  0  0
   -1.2250    9.9820    0.7430 C   0  0  0  0  0  0  0  0  0  0  0  0
   -1.6020   11.8920   -0.8400 C   0  0  0  0  0  0  0  0  0  0  0  0
   -1.1780   12.5910   -2.1460 C   0  0  0  0  0  0  0  0  0  0  0  0
    0.2380   12.1740   -2.5560 C   0  0  2  0  0  0  0  0  0  0  0  0
    1.2220   12.6510   -1.4330 C   0  0  0  0  0  0  0  0  0  0  0  0
    1.2197   14.1510   -1.7952 H   0  0  0  0  0  0  0  0  0  0  0  0
    1.5550   15.7557   -2.5296 H   0  0  0  0  0  0  0  0  0  0  0  0
   -0.1173   15.0997   -2.5296 H   0  0  0  0  0  0  0  0  0  0  0  0
    2.2964   14.2119   -4.1434 H   0  0  0  0  0  0  0  0  0  0  0  0
   -0.5442   14.6031   -5.1340 H   0  0  0  0  0  0  0  0  0  0  0  0
    0.6427   15.9809   -4.9421 H   0  0  0  0  0  0  0  0  0  0  0  0
    2.2093   14.4920   -6.3857 H   0  0  0  0  0  0  0  0  0  0  0  0
    0.6663   13.6731   -6.8715 H   0  0  0  0  0  0  0  0  0  0  0  0
    0.5895   16.3944   -6.6646 H   0  0  0  0  0  0  0  0  0  0  0  0
    3.1889   14.5479   -8.2493 H   0  0  0  0  0  0  0  0  0  0  0  0
    2.3079   14.1133   -9.7531 H   0  0  0  0  0  0  0  0  0  0  0  0
    3.4587   15.4925   -9.7531 H   0  0  0  0  0  0  0  0  0  0  0  0
    1.6004   18.0013   -8.6547 H   0  0  0  0  0  0  0  0  0  0  0  0
    2.4991   17.3234  -10.0546 H   0  0  0  0  0  0  0  0  0  0  0  0
    0.7028   17.3221  -10.0546 H   0  0  0  0  0  0  0  0  0  0  0  0
   -0.0682   12.7584   -4.6392 H   0  0  0  0  0  0  0  0  0  0  0  0
    1.8465   11.4580   -5.3353 H   0  0  0  0  0  0  0  0  0  0  0  0
    2.8807   12.1638   -4.0745 H   0  0  0  0  0  0  0  0  0  0  0  0
    1.7371    9.5455   -4.0116 H   0  0  0  0  0  0  0  0  0  0  0  0
    2.4302   10.3538   -2.6086 H   0  0  0  0  0  0  0  0  0  0  0  0
   -1.6138    9.7132   -3.5323 H   0  0  0  0  0  0  0  0  0  0  0  0
   -0.9847   11.0222   -4.5894 H   0  0  0  0  0  0  0  0  0  0  0  0
   -0.1936    9.4095   -4.5894 H   0  0  0  0  0  0  0  0  0  0  0  0
    0.7811   10.2005   -0.8421 H   0  0  0  0  0  0  0  0  0  0  0  0
    0.8026    8.0871   -2.3167 H   0  0  0  0  0  0  0  0  0  0  0  0
    0.3166    8.0059   -0.5431 H   0  0  0  0  0  0  0  0  0  0  0  0
   -1.1383    6.5827   -2.2163 H   0  0  0  0  0  0  0  0  0  0  0  0
   -2.9028   10.2151   -2.2442 H   0  0  0  0  0  0  0  0  0  0  0  0
   -3.6028    9.0447    0.5184 H   0  0  0  0  0  0  0  0  0  0  0  0
   -4.0860   10.6735   -0.1328 H   0  0  0  0  0  0  0  0  0  0  0  0
   -5.9382    9.0362   -0.2377 H   0  0  0  0  0  0  0  0  0  0  0  0
   -5.4179    9.6191   -1.8671 H   0  0  0  0  0  0  0  0  0  0  0  0
   -5.7889    7.2505   -1.9777 H   0  0  0  0  0  0  0  0  0  0  0  0
   -3.7480    6.9320    0.0160 H   0  0  0  0  0  0  0  0  0  0  0  0
   -4.6330    8.9930   -3.6227 H   0  0  0  0  0  0  0  0  0  0  0  0
   -3.1552    8.2795   -4.3532 H   0  0  0  0  0  0  0  0  0  0  0  0
   -4.6942    7.3531   -4.3532 H   0  0  0  0  0  0  0  0  0  0  0  0
   -3.3948    5.3952   -1.7166 H   0  0  0  0  0  0  0  0  0  0  0  0
   -4.3212    5.5205   -3.2505 H   0  0  0  0  0  0  0  0  0  0  0  0
   -2.5443    5.7834   -3.2505 H   0  0  0  0  0  0  0  0  0  0  0  0
   -1.6079   10.8116    1.3554 H   0  0  0  0  0  0  0  0  0  0  0  0
   -1.7919    9.0669    0.9696 H   0  0  0  0  0  0  0  0  0  0  0  0
   -0.1609    9.8197    0.9696 H   0  0  0  0  0  0  0  0  0  0  0  0
   -2.6742   12.0875   -0.6908 H   0  0  0  0  0  0  0  0  0  0  0  0
   -0.9449   12.3100   -0.0632 H   0  0  0  0  0  0  0  0  0  0  0  0
   -1.8804   12.3151   -2.9463 H   0  0  0  0  0  0  0  0  0  0  0  0
   -1.1898   13.6786   -1.9817 H   0  0  0  0  0  0  0  0  0  0  0  0
    0.7836   12.4385   -0.4468 H   0  0  0  0  0  0  0  0  0  0  0  0
    2.1783   12.1164   -1.5321 H   0  0  0  0  0  0  0  0  0  0  0  0
    1.3947   13.7328   -1.5321 H   0  0  0  0  0  0  0  0  0  0  0  0
  1  2  1  0
  2  3  1  0
  3  4  1  0
  4  5  1  0
  5  6  1  0
  6  7  1  0
  7  8  1  0
  7  9  1  0
  2 10  1  0
 10 11  1  0
 11 12  1  0
 12 13  1  0
 13 14  1  6
 13 15  1  0
 15 16  1  0
 16 17  1  0
 17 18  2  0
 18 19  1  0
 19 20  1  0
 20 21  1  0
 21 22  1  0
 22 23  1  0
 22 24  1  0
 24 25  1  0
 24 26  1  0
 19 27  1  0
 27 28  1  1
 27 29  1  0
 29 30  1  0
 30 31  1  0
 31 32  1  1
  7  5  1  0
 31 10  1  0
 31 13  1  0
 27 15  1  0
 24 18  1  0
  1 33  1  0
  1 34  1  0
  1 35  1  0
  2 36  1  6
  3 37  1  0
  3 38  1  0
  4 39  1  0
  4 40  1  0
  5 41  1  1
  8 42  1  0
  8 43  1  0
  8 44  1  0
  9 45  1  0
  9 46  1  0
  9 47  1  0
 10 48  1  6
 11 49  1  0
 11 50  1  0
 12 51  1  0
 12 52  1  0
 14 53  1  0
 14 54  1  0
 14 55  1  0
 15 56  1  1
 16 57  1  0
 16 58  1  0
 17 59  1  0
 19 60  1  6
 20 61  1  0
 20 62  1  0
 21 63  1  0
 21 64  1  0
 22 65  1  6
 23 66  1  0
 25 67  1  0
 25 68  1  0
 25 69  1  0
 26 70  1  0
 26 71  1  0
 26 72  1  0
 28 73  1  0
 28 74  1  0
 28 75  1  0
 29 76  1  0
 29 77  1  0
 30 78  1  0
 30 79  1  0
 32 80  1  0
 32 81  1  0
 32 82  1  0
M  END
>  <meeko>  (16) 
{"is_sidechain": [false], "intermolecular_energy": 2.731, "internal_energy": -0.839}

$$$$
EPH_relaxed_0001_pdb2pqr_Repair_193_r2_0001_out
     RDKit          3D

 82 86  0  0  0  0  0  0  0  0999 V2000
  -14.3930    5.5130    0.4110 C   0  0  0  0  0  0  0  0  0  0  0  0
  -13.8480    6.9350    0.2530 C   0  0  2  0  0  0  0  0  0  0  0  0
  -14.9590    7.9490   -0.0830 C   0  0  0  0  0  0  0  0  0  0  0  0
  -14.5510    9.4070    0.1480 C   0  0  0  0  0  0  0  0  0  0  0  0
  -15.2740   10.3380   -0.7780 C   0  0  2  0  0  0  0  0  0  0  0  0
  -15.1930    9.9840   -2.1650 O   0  0  0  0  0  0  0  0  0  0  0  0
  -14.5710   11.2240   -1.7900 C   0  0  0  0  0  0  0  0  0  0  0  0
  -13.0800   11.2230   -1.9250 C   0  0  0  0  0  0  0  0  0  0  0  0
  -15.2870   12.4360   -2.2990 C   0  0  0  0  0  0  0  0  0  0  0  0
  -12.7740    6.9610   -0.8290 C   0  0  1  0  0  0  0  0  0  0  0  0
  -13.1230    7.9260   -1.9930 C   0  0  0  0  0  0  0  0  0  0  0  0
  -11.7860    8.5420   -2.4800 C   0  0  0  0  0  0  0  0  0  0  0  0
  -10.6920    7.6740   -1.8150 C   0  0  1  0  0  0  0  0  0  0  0  0
  -10.5820    6.4060   -2.7180 C   0  0  0  0  0  0  0  0  0  0  0  0
   -9.3010    8.3560   -1.6060 C   0  0  2  0  0  0  0  0  0  0  0  0
   -8.5830    8.7840   -2.8980 C   0  0  0  0  0  0  0  0  0  0  0  0
   -7.6770    7.7580   -3.4940 C   0  0  0  0  0  0  0  0  0  0  0  0
   -7.2260    6.6550   -2.8680 C   0  0  0  0  0  0  0  0  0  0  0  0
   -7.5500    6.4000   -1.3900 C   0  0  1  0  0  0  0  0  0  0  0  0
   -6.2590    5.9700   -0.6440 C   0  0  0  0  0  0  0  0  0  0  0  0
   -5.5700    4.7800   -1.3050 C   0  0  0  0  0  0  0  0  0  0  0  0
   -5.2120    5.0930   -2.7550 C   0  0  2  0  0  0  0  0  0  0  0  0
   -4.2090    6.1120   -2.7730 O   0  0  0  0  0  0  0  0  0  0  0  0
   -6.4330    5.5470   -3.6040 C   0  0  0  0  0  0  0  0  0  0  0  0
   -7.3810    4.3440   -3.8370 C   0  0  0  0  0  0  0  0  0  0  0  0
   -5.9120    5.9660   -5.0040 C   0  0  0  0  0  0  0  0  0  0  0  0
   -8.3290    7.5640   -0.6400 C   0  0  1  0  0  0  0  0  0  0  0  0
   -7.3150    8.6060   -0.0770 C   0  0  0  0  0  0  0  0  0  0  0  0
   -9.0830    6.9610    0.6030 C   0  0  0  0  0  0  0  0  0  0  0  0
  -10.5010    6.4110    0.3570 C   0  0  0  0  0  0  0  0  0  0  0  0
  -11.3550    7.4230   -0.4120 C   0  0  2  0  0  0  0  0  0  0  0  0
  -11.5020    8.7020    0.4820 C   0  0  0  0  0  0  0  0  0  0  0  0
  -14.4852    5.2724    1.4804 H   0  0  0  0  0  0  0  0  0  0  0  0
  -15.3813    5.4439   -0.0669 H   0  0  0  0  0  0  0  0  0  0  0  0
  -13.7040    4.8010   -0.0669 H   0  0  0  0  0  0  0  0  0  0  0  0
  -13.4120    7.2322    1.2182 H   0  0  0  0  0  0  0  0  0  0  0  0
  -15.2312    7.8280   -1.1419 H   0  0  0  0  0  0  0  0  0  0  0  0
  -15.8011    7.7395    0.5929 H   0  0  0  0  0  0  0  0  0  0  0  0
  -14.7865    9.6829    1.1865 H   0  0  0  0  0  0  0  0  0  0  0  0
  -13.4724    9.4967   -0.0486 H   0  0  0  0  0  0  0  0  0  0  0  0
  -16.0314   10.5528   -0.0097 H   0  0  0  0  0  0  0  0  0  0  0  0
  -12.6213   11.2227   -0.9252 H   0  0  0  0  0  0  0  0  0  0  0  0
  -12.7622   10.3246   -2.4745 H   0  0  0  0  0  0  0  0  0  0  0  0
  -12.7610   12.1209   -2.4745 H   0  0  0  0  0  0  0  0  0  0  0  0
  -15.6418   13.0365   -1.4484 H   0  0  0  0  0  0  0  0  0  0  0  0
  -14.5994   13.0379   -2.9113 H   0  0  0  0  0  0  0  0  0  0  0  0
  -16.1460   12.1242   -2.9113 H   0  0  0  0  0  0  0  0  0  0  0  0
  -12.7581    5.8948   -1.0990 H   0  0  0  0  0  0  0  0  0  0  0  0
  -13.6056    7.3726   -2.8120 H   0  0  0  0  0  0  0  0  0  0  0  0
  -13.8207    8.7090   -1.6610 H   0  0  0  0  0  0  0  0  0  0  0  0
  -11.7106    8.4894   -3.5762 H   0  0  0  0  0  0  0  0  0  0  0  0
  -11.6947    9.6052   -2.2132 H   0  0  0  0  0  0  0  0  0  0  0  0
  -10.5043    5.5102   -2.0843 H   0  0  0  0  0  0  0  0  0  0  0  0
  -11.4769    6.3294   -3.3531 H   0  0  0  0  0  0  0  0  0  0  0  0
   -9.6873    6.4846   -3.3531 H   0  0  0  0  0  0  0  0  0  0  0  0
   -9.5716    9.2897   -1.0913 H   0  0  0  0  0  0  0  0  0  0  0  0
   -9.3497    9.0357   -3.6455 H   0  0  0  0  0  0  0  0  0  0  0  0
   -7.9409    9.6335   -2.6222 H   0  0  0  0  0  0  0  0  0  0  0  0
   -7.3504    7.9168   -4.5323 H   0  0  0  0  0  0  0  0  0  0  0  0
   -8.2808    5.5780   -1.3762 H   0  0  0  0  0  0  0  0  0  0  0  0
   -5.5601    6.8193   -0.6306 H   0  0  0  0  0  0  0  0  0  0  0  0
   -6.5468    5.6663    0.3733 H   0  0  0  0  0  0  0  0  0  0  0  0
   -4.6502    4.5430   -0.7503 H   0  0  0  0  0  0  0  0  0  0  0  0
   -6.2595    3.9230   -1.2909 H   0  0  0  0  0  0  0  0  0  0  0  0
   -4.8415    4.1628   -3.2106 H   0  0  0  0  0  0  0  0  0  0  0  0
   -4.4230    6.7240   -3.4970 H   0  0  0  0  0  0  0  0  0  0  0  0
   -7.7019    3.9368   -2.8668 H   0  0  0  0  0  0  0  0  0  0  0  0
   -8.2625    4.6764   -4.4048 H   0  0  0  0  0  0  0  0  0  0  0  0
   -6.8517    3.5646   -4.4048 H   0  0  0  0  0  0  0  0  0  0  0  0
   -5.0596    6.6515   -4.8879 H   0  0  0  0  0  0  0  0  0  0  0  0
   -5.5906    5.0719   -5.5583 H   0  0  0  0  0  0  0  0  0  0  0  0
   -6.7164    6.4717   -5.5583 H   0  0  0  0  0  0  0  0  0  0  0  0
   -7.3377    8.5827    1.0225 H   0  0  0  0  0  0  0  0  0  0  0  0
   -6.3023    8.3589   -0.4282 H   0  0  0  0  0  0  0  0  0  0  0  0
   -7.5896    9.6116   -0.4282 H   0  0  0  0  0  0  0  0  0  0  0  0
   -8.4700    6.1365    0.9959 H   0  0  0  0  0  0  0  0  0  0  0  0
   -9.2184    7.8057    1.2945 H   0  0  0  0  0  0  0  0  0  0  0  0
  -10.4303    5.4818   -0.2275 H   0  0  0  0  0  0  0  0  0  0  0  0
  -10.9764    6.2182    1.3301 H   0  0  0  0  0  0  0  0  0  0  0  0
  -11.4688    8.4135    1.5430 H   0  0  0  0  0  0  0  0  0  0  0  0
  -10.6779    9.3976    0.2652 H   0  0  0  0  0  0  0  0  0  0  0  0
  -12.4624    9.1925    0.2652 H   0  0  0  0  0  0  0  0  0  0  0  0
  1  2  1  0
  2  3  1  0
  3  4  1  0
  4  5  1  0
  5  6  1  0
  6  7  1  0
  7  8  1  0
  7  9  1  0
  2 10  1  0
 10 11  1  0
 11 12  1  0
 12 13  1  0
 13 14  1  6
 13 15  1  0
 15 16  1  0
 16 17  1  0
 17 18  2  0
 18 19  1  0
 19 20  1  0
 20 21  1  0
 21 22  1  0
 22 23  1  0
 22 24  1  0
 24 25  1  0
 24 26  1  0
 19 27  1  0
 27 28  1  1
 27 29  1  0
 29 30  1  0
 30 31  1  0
 31 32  1  1
  7  5  1  0
 31 10  1  0
 31 13  1  0
 27 15  1  0
 24 18  1  0
  1 33  1  0
  1 34  1  0
  1 35  1  0
  2 36  1  1
  3 37  1  0
  3 38  1  0
  4 39  1  0
  4 40  1  0
  5 41  1  1
  8 42  1  0
  8 43  1  0
  8 44  1  0
  9 45  1  0
  9 46  1  0
  9 47  1  0
 10 48  1  6
 11 49  1  0
 11 50  1  0
 12 51  1  0
 12 52  1  0
 14 53  1  0
 14 54  1  0
 14 55  1  0
 15 56  1  1
 16 57  1  0
 16 58  1  0
 17 59  1  0
 19 60  1  6
 20 61  1  0
 20 62  1  0
 21 63  1  0
 21 64  1  0
 22 65  1  6
 23 66  1  0
 25 67  1  0
 25 68  1  0
 25 69  1  0
 26 70  1  0
 26 71  1  0
 26 72  1  0
 28 73  1  0
 28 74  1  0
 28 75  1  0
 29 76  1  0
 29 77  1  0
 30 78  1  0
 30 79  1  0
 32 80  1  0
 32 81  1  0
 32 82  1  0
M  END
>  <meeko>  (17) 
{"is_sidechain": [false], "intermolecular_energy": 2.731, "internal_energy": -0.839}

$$$$
EPH_relaxed_0001_pdb2pqr_Repair_193_r2_0001_out
     RDKit          3D

 82 86  0  0  0  0  0  0  0  0999 V2000
   -2.5130    7.7750   -0.0870 C   0  0  0  0  0  0  0  0  0  0  0  0
   -3.0980    9.1890   -0.0410 C   0  0  2  0  0  0  0  0  0  0  0  0
   -4.5970    9.2100   -0.4000 C   0  0  0  0  0  0  0  0  0  0  0  0
   -5.1490    7.8440   -0.8150 C   0  0  0  0  0  0  0  0  0  0  0  0
   -6.6190    7.9040   -1.1020 C   0  0  2  0  0  0  0  0  0  0  0  0
   -7.3150    6.6630   -0.9270 O   0  0  0  0  0  0  0  0  0  0  0  0
   -7.2750    7.1830   -2.2650 C   0  0  0  0  0  0  0  0  0  0  0  0
   -6.4750    6.3520   -3.2180 C   0  0  0  0  0  0  0  0  0  0  0  0
   -8.5990    7.6780   -2.7590 C   0  0  0  0  0  0  0  0  0  0  0  0
   -2.3230   10.1030   -0.9830 C   0  0  1  0  0  0  0  0  0  0  0  0
   -2.9580   11.5140   -1.1020 C   0  0  0  0  0  0  0  0  0  0  0  0
   -1.7880   12.5180   -1.2670 C   0  0  0  0  0  0  0  0  0  0  0  0
   -0.5550   11.6350   -1.5680 C   0  0  1  0  0  0  0  0  0  0  0  0
   -0.6570   11.3110   -3.0920 C   0  0  0  0  0  0  0  0  0  0  0  0
    0.8370   12.2420   -1.1990 C   0  0  2  0  0  0  0  0  0  0  0  0
    1.2110   13.5270   -1.9590 C   0  0  0  0  0  0  0  0  0  0  0  0
    1.9540   13.3190   -3.2370 C   0  0  0  0  0  0  0  0  0  0  0  0
    2.5560   12.1760   -3.6140 C   0  0  0  0  0  0  0  0  0  0  0  0
    2.6090   10.9660   -2.6730 C   0  0  1  0  0  0  0  0  0  0  0  0
    4.0480   10.3860   -2.6540 C   0  0  0  0  0  0  0  0  0  0  0  0
    4.5660   10.0610   -4.0520 C   0  0  0  0  0  0  0  0  0  0  0  0
    4.5530   11.3020   -4.9410 C   0  0  2  0  0  0  0  0  0  0  0  0
    5.5110   12.2390   -4.4380 O   0  0  0  0  0  0  0  0  0  0  0  0
    3.1560   11.9790   -5.0280 C   0  0  0  0  0  0  0  0  0  0  0  0
    2.1930   11.0810   -5.8440 C   0  0  0  0  0  0  0  0  0  0  0  0
    3.3130   13.2950   -5.8370 C   0  0  0  0  0  0  0  0  0  0  0  0
    2.0250   11.1970   -1.2130 C   0  0  1  0  0  0  0  0  0  0  0  0
    3.1350   11.7720   -0.2810 C   0  0  0  0  0  0  0  0  0  0  0  0
    1.6060    9.8080   -0.6010 C   0  0  0  0  0  0  0  0  0  0  0  0
    0.1770    9.3180   -0.9030 C   0  0  0  0  0  0  0  0  0  0  0  0
   -0.8510   10.4170   -0.6190 C   0  0  2  0  0  0  0  0  0  0  0  0
   -0.7870   10.7480    0.9110 C   0  0  0  0  0  0  0  0  0  0  0  0
   -2.3610    7.4075    0.9386 H   0  0  0  0  0  0  0  0  0  0  0  0
   -3.2088    7.1074   -0.6163 H   0  0  0  0  0  0  0  0  0  0  0  0
   -1.5489    7.7941   -0.6163 H   0  0  0  0  0  0  0  0  0  0  0  0
   -3.0020    9.5531    0.9925 H   0  0  0  0  0  0  0  0  0  0  0  0
   -5.1596    9.5598    0.4781 H   0  0  0  0  0  0  0  0  0  0  0  0
   -4.7112    9.8795   -1.2653 H   0  0  0  0  0  0  0  0  0  0  0  0
   -4.6226    7.5068   -1.7201 H   0  0  0  0  0  0  0  0  0  0  0  0
   -4.9905    7.1428    0.0176 H   0  0  0  0  0  0  0  0  0  0  0  0
   -6.6666    8.9482   -0.7595 H   0  0  0  0  0  0  0  0  0  0  0  0
   -5.8208    5.6725   -2.6520 H   0  0  0  0  0  0  0  0  0  0  0  0
   -7.1551    5.7634   -3.8513 H   0  0  0  0  0  0  0  0  0  0  0  0
   -5.8610    7.0092   -3.8513 H   0  0  0  0  0  0  0  0  0  0  0  0
   -9.2437    7.9190   -1.9009 H   0  0  0  0  0  0  0  0  0  0  0  0
   -8.4485    8.5806   -3.3695 H   0  0  0  0  0  0  0  0  0  0  0  0
   -9.0775    6.8980   -3.3695 H   0  0  0  0  0  0  0  0  0  0  0  0
   -2.3620    9.4975   -1.9005 H   0  0  0  0  0  0  0  0  0  0  0  0
   -3.6216   11.5582   -1.9782 H   0  0  0  0  0  0  0  0  0  0  0  0
   -3.5609   11.7523   -0.2133 H   0  0  0  0  0  0  0  0  0  0  0  0
   -1.9837   13.2086   -2.1005 H   0  0  0  0  0  0  0  0  0  0  0  0
   -1.6453   13.1425   -0.3728 H   0  0  0  0  0  0  0  0  0  0  0  0
   -0.9849   10.2694   -3.2243 H   0  0  0  0  0  0  0  0  0  0  0  0
   -1.3857   11.9874   -3.5627 H   0  0  0  0  0  0  0  0  0  0  0  0
    0.3277   11.4480   -3.5627 H   0  0  0  0  0  0  0  0  0  0  0  0
    0.6908   12.5452   -0.1518 H   0  0  0  0  0  0  0  0  0  0  0  0
    0.2814   14.0677   -2.1905 H   0  0  0  0  0  0  0  0  0  0  0  0
    1.8919   14.0838   -1.2985 H   0  0  0  0  0  0  0  0  0  0  0  0
    2.0145   14.1720   -3.9289 H   0  0  0  0  0  0  0  0  0  0  0  0
    1.9137   10.2243   -3.0930 H   0  0  0  0  0  0  0  0  0  0  0  0
    4.7198   11.1243   -2.1918 H   0  0  0  0  0  0  0  0  0  0  0  0
    4.0224    9.4475   -2.0807 H   0  0  0  0  0  0  0  0  0  0  0  0
    5.5965    9.6839   -3.9754 H   0  0  0  0  0  0  0  0  0  0  0  0
    3.9104    9.3005   -4.5013 H   0  0  0  0  0  0  0  0  0  0  0  0
    4.8094   10.9799   -5.9611 H   0  0  0  0  0  0  0  0  0  0  0  0
    6.0730   11.7700   -3.7990 H   0  0  0  0  0  0  0  0  0  0  0  0
    1.5655   10.4959   -5.1556 H   0  0  0  0  0  0  0  0  0  0  0  0
    1.5523   11.7116   -6.4779 H   0  0  0  0  0  0  0  0  0  0  0  0
    2.7774   10.3979   -6.4779 H   0  0  0  0  0  0  0  0  0  0  0  0
    3.4141   14.1423   -5.1428 H   0  0  0  0  0  0  0  0  0  0  0  0
    4.2099   13.2311   -6.4706 H   0  0  0  0  0  0  0  0  0  0  0  0
    2.4262   13.4439   -6.4706 H   0  0  0  0  0  0  0  0  0  0  0  0
    2.8456   11.6221    0.7696 H   0  0  0  0  0  0  0  0  0  0  0  0
    4.0843   11.2523   -0.4776 H   0  0  0  0  0  0  0  0  0  0  0  0
    3.2581   12.8473   -0.4776 H   0  0  0  0  0  0  0  0  0  0  0  0
    2.3054    9.0507   -0.9849 H   0  0  0  0  0  0  0  0  0  0  0  0
    1.6359    9.9532    0.4890 H   0  0  0  0  0  0  0  0  0  0  0  0
    0.1119    9.0295   -1.9625 H   0  0  0  0  0  0  0  0  0  0  0  0
   -0.0426    8.4566   -0.2551 H   0  0  0  0  0  0  0  0  0  0  0  0
   -0.9643    9.8311    1.4922 H   0  0  0  0  0  0  0  0  0  0  0  0
    0.2059   11.1522    1.1575 H   0  0  0  0  0  0  0  0  0  0  0  0
   -1.5577   11.4932    1.1575 H   0  0  0  0  0  0  0  0  0  0  0  0
  1  2  1  0
  2  3  1  0
  3  4  1  0
  4  5  1  0
  5  6  1  0
  6  7  1  0
  7  8  1  0
  7  9  1  0
  2 10  1  0
 10 11  1  0
 11 12  1  0
 12 13  1  0
 13 14  1  6
 13 15  1  0
 15 16  1  0
 16 17  1  0
 17 18  2  0
 18 19  1  0
 19 20  1  0
 20 21  1  0
 21 22  1  0
 22 23  1  0
 22 24  1  0
 24 25  1  0
 24 26  1  0
 19 27  1  0
 27 28  1  1
 27 29  1  0
 29 30  1  0
 30 31  1  0
 31 32  1  1
  7  5  1  0
 31 10  1  0
 31 13  1  0
 27 15  1  0
 24 18  1  0
  1 33  1  0
  1 34  1  0
  1 35  1  0
  2 36  1  1
  3 37  1  0
  3 38  1  0
  4 39  1  0
  4 40  1  0
  5 41  1  1
  8 42  1  0
  8 43  1  0
  8 44  1  0
  9 45  1  0
  9 46  1  0
  9 47  1  0
 10 48  1  6
 11 49  1  0
 11 50  1  0
 12 51  1  0
 12 52  1  0
 14 53  1  0
 14 54  1  0
 14 55  1  0
 15 56  1  1
 16 57  1  0
 16 58  1  0
 17 59  1  0
 19 60  1  6
 20 61  1  0
 20 62  1  0
 21 63  1  0
 21 64  1  0
 22 65  1  6
 23 66  1  0
 25 67  1  0
 25 68  1  0
 25 69  1  0
 26 70  1  0
 26 71  1  0
 26 72  1  0
 28 73  1  0
 28 74  1  0
 28 75  1  0
 29 76  1  0
 29 77  1  0
 30 78  1  0
 30 79  1  0
 32 80  1  0
 32 81  1  0
 32 82  1  0
M  END
>  <meeko>  (18) 
{"is_sidechain": [false], "intermolecular_energy": 2.731, "internal_energy": -0.839}

$$$$
EPH_relaxed_0001_pdb2pqr_Repair_193_r2_0001_out
     RDKit          3D

 82 86  0  0  0  0  0  0  0  0999 V2000
    0.8330   14.7150   -4.9230 C   0  0  0  0  0  0  0  0  0  0  0  0
    0.6320   14.1730   -3.5050 C   0  0  2  0  0  0  0  0  0  0  0  0
    1.8850   14.3640   -2.6280 C   0  0  0  0  0  0  0  0  0  0  0  0
    1.6980   15.3840   -1.5010 C   0  0  0  0  0  0  0  0  0  0  0  0
    1.2470   16.7130   -2.0260 C   0  0  2  0  0  0  0  0  0  0  0  0
    2.1130   17.2930   -3.0100 O   0  0  0  0  0  0  0  0  0  0  0  0
    1.9920   18.0100   -1.7710 C   0  0  0  0  0  0  0  0  0  0  0  0
    3.2500   18.0400   -0.9600 C   0  0  0  0  0  0  0  0  0  0  0  0
    1.2440   19.3010   -1.8910 C   0  0  0  0  0  0  0  0  0  0  0  0
    0.2550   12.6970   -3.5620 C   0  0  1  0  0  0  0  0  0  0  0  0
    1.4650   11.7840   -3.8940 C   0  0  0  0  0  0  0  0  0  0  0  0
    1.2600   10.4660   -3.1040 C   0  0  0  0  0  0  0  0  0  0  0  0
   -0.2050   10.5290   -2.6130 C   0  0  1  0  0  0  0  0  0  0  0  0
   -1.0590   10.0740   -3.8380 C   0  0  0  0  0  0  0  0  0  0  0  0
   -0.5410    9.6950   -1.3340 C   0  0  2  0  0  0  0  0  0  0  0  0
   -0.3510    8.1740   -1.4770 C   0  0  0  0  0  0  0  0  0  0  0  0
   -1.5530    7.4220   -1.9420 C   0  0  0  0  0  0  0  0  0  0  0  0
   -2.8130    7.8950   -1.9610 C   0  0  0  0  0  0  0  0  0  0  0  0
   -3.1420    9.2810   -1.3910 C   0  0  1  0  0  0  0  0  0  0  0  0
   -4.4010    9.1840   -0.4880 C   0  0  0  0  0  0  0  0  0  0  0  0
   -5.5880    8.5510   -1.2070 C   0  0  0  0  0  0  0  0  0  0  0  0
   -5.2400    7.1520   -1.7080 C   0  0  2  0  0  0  0  0  0  0  0  0
   -5.0360    6.2960   -0.5800 O   0  0  0  0  0  0  0  0  0  0  0  0
   -3.9820    7.1230   -2.6200 C   0  0  0  0  0  0  0  0  0  0  0  0
   -4.3070    7.7980   -3.9760 C   0  0  0  0  0  0  0  0  0  0  0  0
   -3.6590    5.6390   -2.9410 C   0  0  0  0  0  0  0  0  0  0  0  0
   -1.9410   10.0430   -0.6820 C   0  0  1  0  0  0  0  0  0  0  0  0
   -1.8520    9.6200    0.8160 C   0  0  0  0  0  0  0  0  0  0  0  0
   -2.2360   11.5890   -0.6900 C   0  0  0  0  0  0  0  0  0  0  0  0
   -1.7730   12.3790   -1.9300 C   0  0  0  0  0  0  0  0  0  0  0  0
   -0.3140   12.0590   -2.2700 C   0  0  2  0  0  0  0  0  0  0  0  0
    0.5710   12.5250   -1.0640 C   0  0  0  0  0  0  0  0  0  0  0  0
    1.2151   15.7452   -4.8710 H   0  0  0  0  0  0  0  0  0  0  0  0
    1.5563   14.0823   -5.4583 H   0  0  0  0  0  0  0  0  0  0  0  0
   -0.1279   14.7069   -5.4583 H   0  0  0  0  0  0  0  0  0  0  0  0
   -0.1844   14.7474   -3.0430 H   0  0  0  0  0  0  0  0  0  0  0  0
    2.1457   13.3943   -2.1790 H   0  0  0  0  0  0  0  0  0  0  0  0
    2.6798   14.7506   -3.2828 H   0  0  0  0  0  0  0  0  0  0  0  0
    0.9427   15.0036   -0.7975 H   0  0  0  0  0  0  0  0  0  0  0  0
    2.6675   15.5239   -1.0006 H   0  0  0  0  0  0  0  0  0  0  0  0
    0.1913   16.4313   -1.8989 H   0  0  0  0  0  0  0  0  0  0  0  0
    2.9964   18.0340    0.1104 H   0  0  0  0  0  0  0  0  0  0  0  0
    3.8604   17.1562   -1.1972 H   0  0  0  0  0  0  0  0  0  0  0  0
    3.8175   18.9519   -1.1972 H   0  0  0  0  0  0  0  0  0  0  0  0
    1.0191   19.6892   -0.8866 H   0  0  0  0  0  0  0  0  0  0  0  0
    1.8587   20.0315   -2.4373 H   0  0  0  0  0  0  0  0  0  0  0  0
    0.3045   19.1310   -2.4373 H   0  0  0  0  0  0  0  0  0  0  0  0
   -0.5238   12.7347   -4.3380 H   0  0  0  0  0  0  0  0  0  0  0  0
    1.4986   11.5772   -4.9739 H   0  0  0  0  0  0  0  0  0  0  0  0
    2.4131   12.2678   -3.6164 H   0  0  0  0  0  0  0  0  0  0  0  0
    1.4135    9.5941   -3.7569 H   0  0  0  0  0  0  0  0  0  0  0  0
    1.9740   10.3621   -2.2737 H   0  0  0  0  0  0  0  0  0  0  0  0
   -1.9778    9.5845   -3.4829 H   0  0  0  0  0  0  0  0  0  0  0  0
   -1.3228   10.9511   -4.4472 H   0  0  0  0  0  0  0  0  0  0  0  0
   -0.4782    9.3658   -4.4472 H   0  0  0  0  0  0  0  0  0  0  0  0
    0.2329   10.0277   -0.6266 H   0  0  0  0  0  0  0  0  0  0  0  0
    0.4597    7.9993   -2.1997 H   0  0  0  0  0  0  0  0  0  0  0  0
   -0.1296    7.7989   -0.4669 H   0  0  0  0  0  0  0  0  0  0  0  0
   -1.3960    6.3937   -2.2997 H   0  0  0  0  0  0  0  0  0  0  0  0
   -3.3523    9.9238   -2.2585 H   0  0  0  0  0  0  0  0  0  0  0  0
   -4.1564    8.5737    0.3939 H   0  0  0  0  0  0  0  0  0  0  0  0
   -4.6887   10.2072   -0.2046 H   0  0  0  0  0  0  0  0  0  0  0  0
   -6.4364    8.4830   -0.5101 H   0  0  0  0  0  0  0  0  0  0  0  0
   -5.8496    9.1784   -2.0718 H   0  0  0  0  0  0  0  0  0  0  0  0
   -6.0820    6.8035   -2.3242 H   0  0  0  0  0  0  0  0  0  0  0  0
   -4.3720    5.6320   -0.8310 H   0  0  0  0  0  0  0  0  0  0  0  0
   -4.7777    8.7757   -3.7954 H   0  0  0  0  0  0  0  0  0  0  0  0
   -3.3778    7.9384   -4.5477 H   0  0  0  0  0  0  0  0  0  0  0  0
   -4.9963    7.1592   -4.5477 H   0  0  0  0  0  0  0  0  0  0  0  0
   -3.5371    5.0789   -2.0021 H   0  0  0  0  0  0  0  0  0  0  0  0
   -4.4831    5.2022   -3.5242 H   0  0  0  0  0  0  0  0  0  0  0  0
   -2.7279    5.5843   -3.5242 H   0  0  0  0  0  0  0  0  0  0  0  0
   -2.0362   10.4956    1.4558 H   0  0  0  0  0  0  0  0  0  0  0  0
   -2.6074    8.8481    1.0245 H   0  0  0  0  0  0  0  0  0  0  0  0
   -0.8496    9.2179    1.0245 H   0  0  0  0  0  0  0  0  0  0  0  0
   -3.3243   11.7205   -0.5990 H   0  0  0  0  0  0  0  0  0  0  0  0
   -1.6504   11.9979    0.1466 H   0  0  0  0  0  0  0  0  0  0  0  0
   -2.4093   12.1105   -2.7861 H   0  0  0  0  0  0  0  0  0  0  0  0
   -1.8549   13.4541   -1.7120 H   0  0  0  0  0  0  0  0  0  0  0  0
    0.0718   12.2621   -0.1197 H   0  0  0  0  0  0  0  0  0  0  0  0
    1.5497   12.0253   -1.1128 H   0  0  0  0  0  0  0  0  0  0  0  0
    0.7128   13.6147   -1.1128 H   0  0  0  0  0  0  0  0  0  0  0  0
  1  2  1  0
  2  3  1  0
  3  4  1  0
  4  5  1  0
  5  6  1  0
  6  7  1  0
  7  8  1  0
  7  9  1  0
  2 10  1  0
 10 11  1  0
 11 12  1  0
 12 13  1  0
 13 14  1  6
 13 15  1  0
 15 16  1  0
 16 17  1  0
 17 18  2  0
 18 19  1  0
 19 20  1  0
 20 21  1  0
 21 22  1  0
 22 23  1  0
 22 24  1  0
 24 25  1  0
 24 26  1  0
 19 27  1  0
 27 28  1  1
 27 29  1  0
 29 30  1  0
 30 31  1  0
 31 32  1  1
  7  5  1  0
 31 10  1  0
 31 13  1  0
 27 15  1  0
 24 18  1  0
  1 33  1  0
  1 34  1  0
  1 35  1  0
  2 36  1  1
  3 37  1  0
  3 38  1  0
  4 39  1  0
  4 40  1  0
  5 41  1  6
  8 42  1  0
  8 43  1  0
  8 44  1  0
  9 45  1  0
  9 46  1  0
  9 47  1  0
 10 48  1  6
 11 49  1  0
 11 50  1  0
 12 51  1  0
 12 52  1  0
 14 53  1  0
 14 54  1  0
 14 55  1  0
 15 56  1  1
 16 57  1  0
 16 58  1  0
 17 59  1  0
 19 60  1  6
 20 61  1  0
 20 62  1  0
 21 63  1  0
 21 64  1  0
 22 65  1  6
 23 66  1  0
 25 67  1  0
 25 68  1  0
 25 69  1  0
 26 70  1  0
 26 71  1  0
 26 72  1  0
 28 73  1  0
 28 74  1  0
 28 75  1  0
 29 76  1  0
 29 77  1  0
 30 78  1  0
 30 79  1  0
 32 80  1  0
 32 81  1  0
 32 82  1  0
M  END
>  <meeko>  (19) 
{"is_sidechain": [false], "intermolecular_energy": 2.731, "internal_energy": -0.839}

$$$$
