EPH_relaxed_0001_pdb2pqr_Repair_77_r2_0001_out
     RDKit          3D

 82 86  0  0  0  0  0  0  0  0999 V2000
   -1.4570    8.5610   -1.7770 C   0  0  0  0  0  0  0  0  0  0  0  0
   -1.8640    9.1590   -0.4270 C   0  0  2  0  0  0  0  0  0  0  0  0
   -3.3530    9.5580   -0.3950 C   0  0  0  0  0  0  0  0  0  0  0  0
   -4.3050    8.3710   -0.2320 C   0  0  0  0  0  0  0  0  0  0  0  0
   -5.0460    8.0760   -1.5010 C   0  0  2  0  0  0  0  0  0  0  0  0
   -6.4600    8.3010   -1.4350 O   0  0  0  0  0  0  0  0  0  0  0  0
   -6.0430    6.9420   -1.6440 C   0  0  0  0  0  0  0  0  0  0  0  0
   -6.3540    6.0280   -0.5000 C   0  0  0  0  0  0  0  0  0  0  0  0
   -6.3450    6.4230   -3.0150 C   0  0  0  0  0  0  0  0  0  0  0  0
   -0.9930   10.3680   -0.1110 C   0  0  1  0  0  0  0  0  0  0  0  0
    0.1220   10.0480    0.9210 C   0  0  0  0  0  0  0  0  0  0  0  0
    1.3560   10.8980    0.5240 C   0  0  0  0  0  0  0  0  0  0  0  0
    0.8140   11.9160   -0.5070 C   0  0  1  0  0  0  0  0  0  0  0  0
    0.1560   13.0430    0.3490 C   0  0  0  0  0  0  0  0  0  0  0  0
    1.8550   12.4940   -1.5200 C   0  0  2  0  0  0  0  0  0  0  0  0
    2.9990   13.3060   -0.8880 C   0  0  0  0  0  0  0  0  0  0  0  0
    2.7410   14.7700   -0.7500 C   0  0  0  0  0  0  0  0  0  0  0  0
    1.7620   15.4530   -1.3700 C   0  0  0  0  0  0  0  0  0  0  0  0
    0.8470   14.7660   -2.3920 C   0  0  1  0  0  0  0  0  0  0  0  0
    0.7160   15.6590   -3.6540 C   0  0  0  0  0  0  0  0  0  0  0  0
    0.2590   17.0760   -3.3220 C   0  0  0  0  0  0  0  0  0  0  0  0
    1.2260   17.7470   -2.3490 C   0  0  2  0  0  0  0  0  0  0  0  0
    2.4800   17.9450   -3.0090 O   0  0  0  0  0  0  0  0  0  0  0  0
    1.4440   16.9330   -1.0430 C   0  0  0  0  0  0  0  0  0  0  0  0
    0.1580   16.9760   -0.1820 C   0  0  0  0  0  0  0  0  0  0  0  0
    2.5450   17.6480   -0.2140 C   0  0  0  0  0  0  0  0  0  0  0  0
    1.2110   13.2600   -2.7450 C   0  0  1  0  0  0  0  0  0  0  0  0
    2.2620   13.2230   -3.8970 C   0  0  0  0  0  0  0  0  0  0  0  0
   -0.0750   12.5360   -3.2950 C   0  0  0  0  0  0  0  0  0  0  0  0
   -1.0020   11.8810   -2.2530 C   0  0  0  0  0  0  0  0  0  0  0  0
   -0.2040   11.0040   -1.2830 C   0  0  2  0  0  0  0  0  0  0  0  0
    0.4520    9.8480   -2.1130 C   0  0  0  0  0  0  0  0  0  0  0  0
   -0.8452    7.6621   -1.6104 H   0  0  0  0  0  0  0  0  0  0  0  0
   -2.3592    8.2903   -2.3451 H   0  0  0  0  0  0  0  0  0  0  0  0
   -0.8742    9.3010   -2.3451 H   0  0  0  0  0  0  0  0  0  0  0  0
   -1.7138    8.3833    0.3384 H   0  0  0  0  0  0  0  0  0  0  0  0
   -3.5098   10.2471    0.4480 H   0  0  0  0  0  0  0  0  0  0  0  0
   -3.5820   10.0226   -1.3654 H   0  0  0  0  0  0  0  0  0  0  0  0
   -3.7221    7.4834    0.0549 H   0  0  0  0  0  0  0  0  0  0  0  0
   -5.0418    8.6266    0.5437 H   0  0  0  0  0  0  0  0  0  0  0  0
   -4.1763    8.3740   -2.1051 H   0  0  0  0  0  0  0  0  0  0  0  0
   -6.1749    6.5544    0.4491 H   0  0  0  0  0  0  0  0  0  0  0  0
   -7.4081    5.7183   -0.5542 H   0  0  0  0  0  0  0  0  0  0  0  0
   -5.7076    5.1396   -0.5542 H   0  0  0  0  0  0  0  0  0  0  0  0
   -6.8968    5.4748   -2.9348 H   0  0  0  0  0  0  0  0  0  0  0  0
   -6.9564    7.1581   -3.5589 H   0  0  0  0  0  0  0  0  0  0  0  0
   -5.4038    6.2547   -3.5589 H   0  0  0  0  0  0  0  0  0  0  0  0
   -1.7676   11.0644    0.2426 H   0  0  0  0  0  0  0  0  0  0  0  0
   -0.2119   10.3152    1.9345 H   0  0  0  0  0  0  0  0  0  0  0  0
    0.3647    8.9751    0.9204 H   0  0  0  0  0  0  0  0  0  0  0  0
    1.7687   11.4168    1.4018 H   0  0  0  0  0  0  0  0  0  0  0  0
    2.1712   10.2835    0.1143 H   0  0  0  0  0  0  0  0  0  0  0  0
    0.2882   12.8166    1.4173 H   0  0  0  0  0  0  0  0  0  0  0  0
    0.6336   14.0062    0.1165 H   0  0  0  0  0  0  0  0  0  0  0  0
   -0.9176   13.1005    0.1165 H   0  0  0  0  0  0  0  0  0  0  0  0
    2.3222   11.5834   -1.9231 H   0  0  0  0  0  0  0  0  0  0  0  0
    3.1910   12.8986    0.1156 H   0  0  0  0  0  0  0  0  0  0  0  0
    3.8544   13.2109   -1.5730 H   0  0  0  0  0  0  0  0  0  0  0  0
    3.4080   15.3382   -0.0850 H   0  0  0  0  0  0  0  0  0  0  0  0
   -0.1334   14.6659   -1.9033 H   0  0  0  0  0  0  0  0  0  0  0  0
    1.6954   15.7118   -4.1520 H   0  0  0  0  0  0  0  0  0  0  0  0
   -0.0455   15.2064   -4.3062 H   0  0  0  0  0  0  0  0  0  0  0  0
    0.2137   17.6662   -4.2491 H   0  0  0  0  0  0  0  0  0  0  0  0
   -0.7336   17.0236   -2.8507 H   0  0  0  0  0  0  0  0  0  0  0  0
    0.7799   18.7066   -2.0486 H   0  0  0  0  0  0  0  0  0  0  0  0
    3.0170   17.1480   -2.8650 H   0  0  0  0  0  0  0  0  0  0  0  0
    0.4299   16.9669    0.8838 H   0  0  0  0  0  0  0  0  0  0  0  0
   -0.4048   17.8935   -0.4090 H   0  0  0  0  0  0  0  0  0  0  0  0
   -0.4648   16.0982   -0.4090 H   0  0  0  0  0  0  0  0  0  0  0  0
    2.3406   17.5153    0.8587 H   0  0  0  0  0  0  0  0  0  0  0  0
    3.5264   17.2144   -0.4567 H   0  0  0  0  0  0  0  0  0  0  0  0
    2.5480   18.7209   -0.4567 H   0  0  0  0  0  0  0  0  0  0  0  0
    3.2745   13.1874   -3.4686 H   0  0  0  0  0  0  0  0  0  0  0  0
    2.0947   12.3302   -4.5174 H   0  0  0  0  0  0  0  0  0  0  0  0
    2.1579   14.1254   -4.5174 H   0  0  0  0  0  0  0  0  0  0  0  0
   -0.6673   13.2819   -3.8453 H   0  0  0  0  0  0  0  0  0  0  0  0
    0.3026   11.7043   -3.9079 H   0  0  0  0  0  0  0  0  0  0  0  0
   -1.5177   12.6689   -1.6845 H   0  0  0  0  0  0  0  0  0  0  0  0
   -1.7301   11.2473   -2.7806 H   0  0  0  0  0  0  0  0  0  0  0  0
    0.8766    9.0998   -1.4275 H   0  0  0  0  0  0  0  0  0  0  0  0
   -0.3112    9.3731   -2.7470 H   0  0  0  0  0  0  0  0  0  0  0  0
    1.2511   10.2597   -2.7470 H   0  0  0  0  0  0  0  0  0  0  0  0
  1  2  1  0
  2  3  1  0
  3  4  1  0
  4  5  1  0
  5  6  1  0
  6  7  1  0
  7  8  1  0
  7  9  1  0
  2 10  1  0
 10 11  1  0
 11 12  1  0
 12 13  1  0
 13 14  1  1
 13 15  1  0
 15 16  1  0
 16 17  1  0
 17 18  2  0
 18 19  1  0
 19 20  1  0
 20 21  1  0
 21 22  1  0
 22 23  1  0
 22 24  1  0
 24 25  1  0
 24 26  1  0
 19 27  1  0
 27 28  1  6
 27 29  1  0
 29 30  1  0
 30 31  1  0
 31 32  1  6
  7  5  1  0
 31 10  1  0
 31 13  1  0
 27 15  1  0
 24 18  1  0
  1 33  1  0
  1 34  1  0
  1 35  1  0
  2 36  1  1
  3 37  1  0
  3 38  1  0
  4 39  1  0
  4 40  1  0
  5 41  1  6
  8 42  1  0
  8 43  1  0
  8 44  1  0
  9 45  1  0
  9 46  1  0
  9 47  1  0
 10 48  1  1
 11 49  1  0
 11 50  1  0
 12 51  1  0
 12 52  1  0
 14 53  1  0
 14 54  1  0
 14 55  1  0
 15 56  1  6
 16 57  1  0
 16 58  1  0
 17 59  1  0
 19 60  1  1
 20 61  1  0
 20 62  1  0
 21 63  1  0
 21 64  1  0
 22 65  1  1
 23 66  1  0
 25 67  1  0
 25 68  1  0
 25 69  1  0
 26 70  1  0
 26 71  1  0
 26 72  1  0
 28 73  1  0
 28 74  1  0
 28 75  1  0
 29 76  1  0
 29 77  1  0
 30 78  1  0
 30 79  1  0
 32 80  1  0
 32 81  1  0
 32 82  1  0
M  END
>  <meeko>  (1) 
{"is_sidechain": [false], "intermolecular_energy": 2.731, "internal_energy": -0.839}

$$$$
EPH_relaxed_0001_pdb2pqr_Repair_77_r2_0001_out
     RDKit          3D

 82 86  0  0  0  0  0  0  0  0999 V2000
    2.0510   19.5720   -0.5910 C   0  0  0  0  0  0  0  0  0  0  0  0
    2.4380   18.3510    0.2470 C   0  0  2  0  0  0  0  0  0  0  0  0
    3.8810   17.8870   -0.0350 C   0  0  0  0  0  0  0  0  0  0  0  0
    4.8930   18.3480    1.0170 C   0  0  0  0  0  0  0  0  0  0  0  0
    4.2150   18.8390    2.2600 C   0  0  2  0  0  0  0  0  0  0  0  0
    4.5200   20.1940    2.6130 O   0  0  0  0  0  0  0  0  0  0  0  0
    4.9580   19.1850    3.5370 C   0  0  0  0  0  0  0  0  0  0  0  0
    6.4450   19.0520    3.6350 C   0  0  0  0  0  0  0  0  0  0  0  0
    4.2010   19.1810    4.8290 C   0  0  0  0  0  0  0  0  0  0  0  0
    1.4630   17.2090   -0.0160 C   0  0  1  0  0  0  0  0  0  0  0  0
    0.1690   17.6820   -0.7320 C   0  0  0  0  0  0  0  0  0  0  0  0
   -0.2610   16.5360   -1.6830 C   0  0  0  0  0  0  0  0  0  0  0  0
    0.5960   15.3240   -1.2460 C   0  0  1  0  0  0  0  0  0  0  0  0
   -0.1430   14.7390   -0.0020 C   0  0  0  0  0  0  0  0  0  0  0  0
    0.8520   14.2300   -2.3330 C   0  0  2  0  0  0  0  0  0  0  0  0
   -0.4100   13.5190   -2.8520 C   0  0  0  0  0  0  0  0  0  0  0  0
   -0.7990   12.2860   -2.1060 C   0  0  0  0  0  0  0  0  0  0  0  0
   -0.0140   11.6110   -1.2460 C   0  0  0  0  0  0  0  0  0  0  0  0
    1.4480   12.0220   -1.0260 C   0  0  1  0  0  0  0  0  0  0  0  0
    2.3530   10.7630   -1.0710 C   0  0  0  0  0  0  0  0  0  0  0  0
    1.8980    9.6810   -0.0960 C   0  0  0  0  0  0  0  0  0  0  0  0
    0.4600    9.2570   -0.3840 C   0  0  2  0  0  0  0  0  0  0  0  0
    0.4180    8.6020   -1.6560 O   0  0  0  0  0  0  0  0  0  0  0  0
   -0.5430   10.4450   -0.3750 C   0  0  0  0  0  0  0  0  0  0  0  0
   -0.7230   10.9630    1.0730 C   0  0  0  0  0  0  0  0  0  0  0  0
   -1.9290    9.9040   -0.8180 C   0  0  0  0  0  0  0  0  0  0  0  0
    1.9860   13.1940   -1.9550 C   0  0  1  0  0  0  0  0  0  0  0  0
    2.5180   12.6060   -3.2980 C   0  0  0  0  0  0  0  0  0  0  0  0
    3.2160   13.8820   -1.2540 C   0  0  0  0  0  0  0  0  0  0  0  0
    2.9060   15.0360   -0.2810 C   0  0  0  0  0  0  0  0  0  0  0  0
    1.9520   16.0500   -0.9200 C   0  0  2  0  0  0  0  0  0  0  0  0
    2.6770   16.6720   -2.1620 C   0  0  0  0  0  0  0  0  0  0  0  0
    1.7867   20.4057    0.0761 H   0  0  0  0  0  0  0  0  0  0  0  0
    2.9002   19.8652   -1.2257 H   0  0  0  0  0  0  0  0  0  0  0  0
    1.1879   19.3225   -1.2257 H   0  0  0  0  0  0  0  0  0  0  0  0
    2.3870   18.6468    1.3053 H   0  0  0  0  0  0  0  0  0  0  0  0
    3.8918   16.7876   -0.0688 H   0  0  0  0  0  0  0  0  0  0  0  0
    4.1829   18.3396   -0.9911 H   0  0  0  0  0  0  0  0  0  0  0  0
    5.5466   17.5025    1.2776 H   0  0  0  0  0  0  0  0  0  0  0  0
    5.4748   19.1794    0.5923 H   0  0  0  0  0  0  0  0  0  0  0  0
    3.3417   18.1994    2.0646 H   0  0  0  0  0  0  0  0  0  0  0  0
    6.7418   19.0255    4.6939 H   0  0  0  0  0  0  0  0  0  0  0  0
    6.7632   18.1218    3.1416 H   0  0  0  0  0  0  0  0  0  0  0  0
    6.9233   19.9110    3.1416 H   0  0  0  0  0  0  0  0  0  0  0  0
    4.9104   19.1847    5.6696 H   0  0  0  0  0  0  0  0  0  0  0  0
    3.5635   20.0758    4.8832 H   0  0  0  0  0  0  0  0  0  0  0  0
    3.5730   18.2795    4.8832 H   0  0  0  0  0  0  0  0  0  0  0  0
    1.3192   16.8484    1.0132 H   0  0  0  0  0  0  0  0  0  0  0  0
   -0.6223   17.8783    0.0065 H   0  0  0  0  0  0  0  0  0  0  0  0
    0.3448   18.6133   -1.2904 H   0  0  0  0  0  0  0  0  0  0  0  0
   -1.3325   16.3161   -1.5665 H   0  0  0  0  0  0  0  0  0  0  0  0
   -0.1101   16.7936   -2.7417 H   0  0  0  0  0  0  0  0  0  0  0  0
    0.3315   15.1146    0.9165 H   0  0  0  0  0  0  0  0  0  0  0  0
   -1.1981   15.0492   -0.0229 H   0  0  0  0  0  0  0  0  0  0  0  0
   -0.0832   13.6408   -0.0229 H   0  0  0  0  0  0  0  0  0  0  0  0
    1.2307   14.8216   -3.1795 H   0  0  0  0  0  0  0  0  0  0  0  0
   -1.2480   14.2293   -2.7953 H   0  0  0  0  0  0  0  0  0  0  0  0
   -0.1768   13.1941   -3.8767 H   0  0  0  0  0  0  0  0  0  0  0  0
   -1.8137   11.8958   -2.2734 H   0  0  0  0  0  0  0  0  0  0  0  0
    1.4888   12.4747   -0.0243 H   0  0  0  0  0  0  0  0  0  0  0  0
    2.3328   10.3503   -2.0905 H   0  0  0  0  0  0  0  0  0  0  0  0
    3.3680   11.0705   -0.7791 H   0  0  0  0  0  0  0  0  0  0  0  0
    2.5579    8.8065   -0.1951 H   0  0  0  0  0  0  0  0  0  0  0  0
    1.9468   10.0858    0.9256 H   0  0  0  0  0  0  0  0  0  0  0  0
    0.1489    8.5776    0.4233 H   0  0  0  0  0  0  0  0  0  0  0  0
    0.4380    9.2900   -2.3420 H   0  0  0  0  0  0  0  0  0  0  0  0
   -0.4473   10.1695    1.7832 H   0  0  0  0  0  0  0  0  0  0  0  0
   -0.0764   11.8385    1.2322 H   0  0  0  0  0  0  0  0  0  0  0  0
   -1.7732   11.2489    1.2322 H   0  0  0  0  0  0  0  0  0  0  0  0
   -2.5321    9.6686    0.0713 H   0  0  0  0  0  0  0  0  0  0  0  0
   -2.4451   10.6667   -1.4196 H   0  0  0  0  0  0  0  0  0  0  0  0
   -1.7919    8.9934   -1.4196 H   0  0  0  0  0  0  0  0  0  0  0  0
    3.2422   11.8055   -3.0865 H   0  0  0  0  0  0  0  0  0  0  0  0
    1.6775   12.1963   -3.8774 H   0  0  0  0  0  0  0  0  0  0  0  0
    3.0095   13.4015   -3.8774 H   0  0  0  0  0  0  0  0  0  0  0  0
    3.7538   13.1062   -0.6893 H   0  0  0  0  0  0  0  0  0  0  0  0
    3.7924   14.3414   -2.0706 H   0  0  0  0  0  0  0  0  0  0  0  0
    2.4398   14.6258    0.6270 H   0  0  0  0  0  0  0  0  0  0  0  0
    3.8473   15.5480   -0.0326 H   0  0  0  0  0  0  0  0  0  0  0  0
    3.4706   17.3528   -1.8204 H   0  0  0  0  0  0  0  0  0  0  0  0
    3.1195   15.8683   -2.7688 H   0  0  0  0  0  0  0  0  0  0  0  0
    1.9499   17.2316   -2.7688 H   0  0  0  0  0  0  0  0  0  0  0  0
  1  2  1  0
  2  3  1  0
  3  4  1  0
  4  5  1  0
  5  6  1  0
  6  7  1  0
  7  8  1  0
  7  9  1  0
  2 10  1  0
 10 11  1  0
 11 12  1  0
 12 13  1  0
 13 14  1  1
 13 15  1  0
 15 16  1  0
 16 17  1  0
 17 18  2  0
 18 19  1  0
 19 20  1  0
 20 21  1  0
 21 22  1  0
 22 23  1  0
 22 24  1  0
 24 25  1  0
 24 26  1  0
 19 27  1  0
 27 28  1  6
 27 29  1  0
 29 30  1  0
 30 31  1  0
 31 32  1  6
  7  5  1  0
 31 10  1  0
 31 13  1  0
 27 15  1  0
 24 18  1  0
  1 33  1  0
  1 34  1  0
  1 35  1  0
  2 36  1  1
  3 37  1  0
  3 38  1  0
  4 39  1  0
  4 40  1  0
  5 41  1  1
  8 42  1  0
  8 43  1  0
  8 44  1  0
  9 45  1  0
  9 46  1  0
  9 47  1  0
 10 48  1  1
 11 49  1  0
 11 50  1  0
 12 51  1  0
 12 52  1  0
 14 53  1  0
 14 54  1  0
 14 55  1  0
 15 56  1  6
 16 57  1  0
 16 58  1  0
 17 59  1  0
 19 60  1  1
 20 61  1  0
 20 62  1  0
 21 63  1  0
 21 64  1  0
 22 65  1  1
 23 66  1  0
 25 67  1  0
 25 68  1  0
 25 69  1  0
 26 70  1  0
 26 71  1  0
 26 72  1  0
 28 73  1  0
 28 74  1  0
 28 75  1  0
 29 76  1  0
 29 77  1  0
 30 78  1  0
 30 79  1  0
 32 80  1  0
 32 81  1  0
 32 82  1  0
M  END
>  <meeko>  (2) 
{"is_sidechain": [false], "intermolecular_energy": 2.731, "internal_energy": -0.839}

$$$$
EPH_relaxed_0001_pdb2pqr_Repair_77_r2_0001_out
     RDKit          3D

 82 86  0  0  0  0  0  0  0  0999 V2000
    0.3900   18.4650   -0.0330 C   0  0  0  0  0  0  0  0  0  0  0  0
    1.4790   17.4110   -0.2450 C   0  0  2  0  0  0  0  0  0  0  0  0
    2.6970   17.9770   -1.0020 C   0  0  0  0  0  0  0  0  0  0  0  0
    3.9320   18.1790   -0.1200 C   0  0  0  0  0  0  0  0  0  0  0  0
    3.5600   18.6420    1.2560 C   0  0  2  0  0  0  0  0  0  0  0  0
    3.8030   20.0330    1.5050 O   0  0  0  0  0  0  0  0  0  0  0  0
    4.5740   19.1050    2.2860 C   0  0  0  0  0  0  0  0  0  0  0  0
    6.0400   19.1260    1.9830 C   0  0  0  0  0  0  0  0  0  0  0  0
    4.1920   19.0710    3.7320 C   0  0  0  0  0  0  0  0  0  0  0  0
    0.9070   16.2160   -0.9990 C   0  0  1  0  0  0  0  0  0  0  0  0
    0.7500   16.4880   -2.5190 C   0  0  0  0  0  0  0  0  0  0  0  0
    1.0430   15.1500   -3.2450 C   0  0  0  0  0  0  0  0  0  0  0  0
    1.0310   14.0860   -2.1230 C   0  0  1  0  0  0  0  0  0  0  0  0
   -0.4790   13.7710   -1.8850 C   0  0  0  0  0  0  0  0  0  0  0  0
    1.8560   12.7860   -2.3940 C   0  0  2  0  0  0  0  0  0  0  0  0
    1.3760   11.9470   -3.5920 C   0  0  0  0  0  0  0  0  0  0  0  0
    0.3610   10.9000   -3.2710 C   0  0  0  0  0  0  0  0  0  0  0  0
    0.0650   10.4500   -2.0370 C   0  0  0  0  0  0  0  0  0  0  0  0
    0.8500   10.9350   -0.8120 C   0  0  1  0  0  0  0  0  0  0  0  0
    1.2350    9.7190    0.0710 C   0  0  0  0  0  0  0  0  0  0  0  0
    0.0270    8.8670    0.4510 C   0  0  0  0  0  0  0  0  0  0  0  0
   -0.6930    8.3560   -0.7930 C   0  0  2  0  0  0  0  0  0  0  0  0
    0.1640    7.4360   -1.4770 O   0  0  0  0  0  0  0  0  0  0  0  0
   -1.1210    9.4920   -1.7640 C   0  0  0  0  0  0  0  0  0  0  0  0
   -2.2720   10.3120   -1.1310 C   0  0  0  0  0  0  0  0  0  0  0  0
   -1.7080    8.8330   -3.0410 C   0  0  0  0  0  0  0  0  0  0  0  0
    2.0880   11.8860   -1.1140 C   0  0  1  0  0  0  0  0  0  0  0  0
    3.3600   11.0300   -1.3950 C   0  0  0  0  0  0  0  0  0  0  0  0
    2.4030   12.7410    0.1700 C   0  0  0  0  0  0  0  0  0  0  0  0
    1.6430   14.0730    0.3210 C   0  0  0  0  0  0  0  0  0  0  0  0
    1.7210   14.8980   -0.9670 C   0  0  2  0  0  0  0  0  0  0  0  0
    3.2270   15.2490   -1.2200 C   0  0  0  0  0  0  0  0  0  0  0  0
    0.2323   18.6176    1.0449 H   0  0  0  0  0  0  0  0  0  0  0  0
    0.7021   19.4129   -0.4957 H   0  0  0  0  0  0  0  0  0  0  0  0
   -0.5472   18.1221   -0.4957 H   0  0  0  0  0  0  0  0  0  0  0  0
    1.8271   17.0920    0.7485 H   0  0  0  0  0  0  0  0  0  0  0  0
    2.9584   17.2784   -1.8104 H   0  0  0  0  0  0  0  0  0  0  0  0
    2.4073   18.9684   -1.3804 H   0  0  0  0  0  0  0  0  0  0  0  0
    4.4736   17.2249   -0.0409 H   0  0  0  0  0  0  0  0  0  0  0  0
    4.5621   18.9523   -0.5837 H   0  0  0  0  0  0  0  0  0  0  0  0
    2.7391   17.9115    1.3058 H   0  0  0  0  0  0  0  0  0  0  0  0
    6.6089   19.1341    2.9244 H   0  0  0  0  0  0  0  0  0  0  0  0
    6.3070   18.2316    1.4010 H   0  0  0  0  0  0  0  0  0  0  0  0
    6.2812   20.0277    1.4010 H   0  0  0  0  0  0  0  0  0  0  0  0
    5.0969   19.1515    4.3523 H   0  0  0  0  0  0  0  0  0  0  0  0
    3.5195   19.9128    3.9535 H   0  0  0  0  0  0  0  0  0  0  0  0
    3.6788   18.1236    3.9535 H   0  0  0  0  0  0  0  0  0  0  0  0
   -0.0379   16.0877   -0.4506 H   0  0  0  0  0  0  0  0  0  0  0  0
   -0.2742   16.8227   -2.7402 H   0  0  0  0  0  0  0  0  0  0  0  0
    1.4395   17.2776   -2.8524 H   0  0  0  0  0  0  0  0  0  0  0  0
    0.2648   14.9352   -3.9921 H   0  0  0  0  0  0  0  0  0  0  0  0
    1.9988   15.1714   -3.7891 H   0  0  0  0  0  0  0  0  0  0  0  0
   -0.6789   13.7293   -0.8041 H   0  0  0  0  0  0  0  0  0  0  0  0
   -1.0946   14.5601   -2.3416 H   0  0  0  0  0  0  0  0  0  0  0  0
   -0.7277   12.8016   -2.3416 H   0  0  0  0  0  0  0  0  0  0  0  0
    2.8387   13.1866   -2.6837 H   0  0  0  0  0  0  0  0  0  0  0  0
    0.9359   12.6316   -4.3320 H   0  0  0  0  0  0  0  0  0  0  0  0
    2.2616   11.4094   -3.9616 H   0  0  0  0  0  0  0  0  0  0  0  0
   -0.1916   10.4591   -4.1138 H   0  0  0  0  0  0  0  0  0  0  0  0
    0.1697   11.5983   -0.2577 H   0  0  0  0  0  0  0  0  0  0  0  0
    1.9485    9.0920   -0.4838 H   0  0  0  0  0  0  0  0  0  0  0  0
    1.6760   10.1074    1.0009 H   0  0  0  0  0  0  0  0  0  0  0  0
    0.3660    8.0082    1.0490 H   0  0  0  0  0  0  0  0  0  0  0  0
   -0.6719    9.4877    1.0309 H   0  0  0  0  0  0  0  0  0  0  0  0
   -1.6184    7.8639   -0.4591 H   0  0  0  0  0  0  0  0  0  0  0  0
    0.5800    6.8680   -0.8070 H   0  0  0  0  0  0  0  0  0  0  0  0
   -2.1993   10.2602   -0.0346 H   0  0  0  0  0  0  0  0  0  0  0  0
   -2.1960   11.3607   -1.4544 H   0  0  0  0  0  0  0  0  0  0  0  0
   -3.2383    9.8977   -1.4544 H   0  0  0  0  0  0  0  0  0  0  0  0
   -2.4141    8.0403   -2.7530 H   0  0  0  0  0  0  0  0  0  0  0  0
   -2.2336    9.5933   -3.6375 H   0  0  0  0  0  0  0  0  0  0  0  0
   -0.8923    8.3985   -3.6375 H   0  0  0  0  0  0  0  0  0  0  0  0
    3.8143   10.7243   -0.4410 H   0  0  0  0  0  0  0  0  0  0  0  0
    3.0802   10.1357   -1.9712 H   0  0  0  0  0  0  0  0  0  0  0  0
    4.0831   11.6260   -1.9712 H   0  0  0  0  0  0  0  0  0  0  0  0
    2.1674   12.1219    1.0482 H   0  0  0  0  0  0  0  0  0  0  0  0
    3.4621   13.0228    0.0757 H   0  0  0  0  0  0  0  0  0  0  0  0
    0.5880   13.8614    0.5494 H   0  0  0  0  0  0  0  0  0  0  0  0
    2.1052   14.6500    1.1355 H   0  0  0  0  0  0  0  0  0  0  0  0
    3.7425   15.3691   -0.2557 H   0  0  0  0  0  0  0  0  0  0  0  0
    3.7017   14.4374   -1.7909 H   0  0  0  0  0  0  0  0  0  0  0  0
    3.2940   16.1868   -1.7909 H   0  0  0  0  0  0  0  0  0  0  0  0
  1  2  1  0
  2  3  1  0
  3  4  1  0
  4  5  1  0
  5  6  1  0
  6  7  1  0
  7  8  1  0
  7  9  1  0
  2 10  1  0
 10 11  1  0
 11 12  1  0
 12 13  1  0
 13 14  1  1
 13 15  1  0
 15 16  1  0
 16 17  1  0
 17 18  2  0
 18 19  1  0
 19 20  1  0
 20 21  1  0
 21 22  1  0
 22 23  1  0
 22 24  1  0
 24 25  1  0
 24 26  1  0
 19 27  1  0
 27 28  1  6
 27 29  1  0
 29 30  1  0
 30 31  1  0
 31 32  1  6
  7  5  1  0
 31 10  1  0
 31 13  1  0
 27 15  1  0
 24 18  1  0
  1 33  1  0
  1 34  1  0
  1 35  1  0
  2 36  1  1
  3 37  1  0
  3 38  1  0
  4 39  1  0
  4 40  1  0
  5 41  1  1
  8 42  1  0
  8 43  1  0
  8 44  1  0
  9 45  1  0
  9 46  1  0
  9 47  1  0
 10 48  1  1
 11 49  1  0
 11 50  1  0
 12 51  1  0
 12 52  1  0
 14 53  1  0
 14 54  1  0
 14 55  1  0
 15 56  1  6
 16 57  1  0
 16 58  1  0
 17 59  1  0
 19 60  1  1
 20 61  1  0
 20 62  1  0
 21 63  1  0
 21 64  1  0
 22 65  1  1
 23 66  1  0
 25 67  1  0
 25 68  1  0
 25 69  1  0
 26 70  1  0
 26 71  1  0
 26 72  1  0
 28 73  1  0
 28 74  1  0
 28 75  1  0
 29 76  1  0
 29 77  1  0
 30 78  1  0
 30 79  1  0
 32 80  1  0
 32 81  1  0
 32 82  1  0
M  END
>  <meeko>  (3) 
{"is_sidechain": [false], "intermolecular_energy": 2.731, "internal_energy": -0.839}

$$$$
EPH_relaxed_0001_pdb2pqr_Repair_77_r2_0001_out
     RDKit          3D

 82 86  0  0  0  0  0  0  0  0999 V2000
    2.1940   18.0350   -2.5460 C   0  0  0  0  0  0  0  0  0  0  0  0
    0.6720   17.8870   -2.6310 C   0  0  2  0  0  0  0  0  0  0  0  0
   -0.0310   18.3600   -1.3420 C   0  0  0  0  0  0  0  0  0  0  0  0
    0.6950   17.9470   -0.0590 C   0  0  0  0  0  0  0  0  0  0  0  0
    1.2600   19.1320    0.6640 C   0  0  2  0  0  0  0  0  0  0  0  0
    2.1660   19.9290   -0.1100 O   0  0  0  0  0  0  0  0  0  0  0  0
    2.7250   19.2650    1.0350 C   0  0  0  0  0  0  0  0  0  0  0  0
    3.7170   18.1970    0.6940 C   0  0  0  0  0  0  0  0  0  0  0  0
    3.1010   20.1940    2.1470 C   0  0  0  0  0  0  0  0  0  0  0  0
    0.3060   16.4370   -2.9220 C   0  0  1  0  0  0  0  0  0  0  0  0
    0.3610   16.0990   -4.4360 C   0  0  0  0  0  0  0  0  0  0  0  0
    0.8550   14.6340   -4.5500 C   0  0  0  0  0  0  0  0  0  0  0  0
    0.7500   14.0740   -3.1120 C   0  0  1  0  0  0  0  0  0  0  0  0
   -0.7520   13.6870   -2.9400 C   0  0  0  0  0  0  0  0  0  0  0  0
    1.6980   12.8800   -2.7650 C   0  0  2  0  0  0  0  0  0  0  0  0
    1.4650   11.6010   -3.5890 C   0  0  0  0  0  0  0  0  0  0  0  0
    0.4910   10.6330   -3.0030 C   0  0  0  0  0  0  0  0  0  0  0  0
    0.0450   10.6440   -1.7330 C   0  0  0  0  0  0  0  0  0  0  0  0
    0.6010   11.6450   -0.7120 C   0  0  1  0  0  0  0  0  0  0  0  0
    0.9340   10.9050    0.6100 C   0  0  0  0  0  0  0  0  0  0  0  0
   -0.2520   10.1150    1.1530 C   0  0  0  0  0  0  0  0  0  0  0  0
   -0.7390    9.0910    0.1320 C   0  0  2  0  0  0  0  0  0  0  0  0
    0.2740    8.0960   -0.0420 O   0  0  0  0  0  0  0  0  0  0  0  0
   -1.0960    9.7190   -1.2440 C   0  0  0  0  0  0  0  0  0  0  0  0
   -2.3850   10.5670   -1.1100 C   0  0  0  0  0  0  0  0  0  0  0  0
   -1.4360    8.5630   -2.2230 C   0  0  0  0  0  0  0  0  0  0  0  0
    1.7980   12.5600   -1.2180 C   0  0  1  0  0  0  0  0  0  0  0  0
    3.1570   11.8250   -1.0030 C   0  0  0  0  0  0  0  0  0  0  0  0
    1.8550   13.8650   -0.3400 C   0  0  0  0  0  0  0  0  0  0  0  0
    0.9880   15.0520   -0.8020 C   0  0  0  0  0  0  0  0  0  0  0  0
    1.1990   15.3380   -2.2920 C   0  0  2  0  0  0  0  0  0  0  0  0
    2.6960   15.7520   -2.4920 C   0  0  0  0  0  0  0  0  0  0  0  0
    2.5011   18.0649   -1.4902 H   0  0  0  0  0  0  0  0  0  0  0  0
    2.6740   17.1793   -3.0434 H   0  0  0  0  0  0  0  0  0  0  0  0
    2.5001   18.9671   -3.0434 H   0  0  0  0  0  0  0  0  0  0  0  0
    0.3227   18.5303   -3.4521 H   0  0  0  0  0  0  0  0  0  0  0  0
   -0.0977   19.4577   -1.3654 H   0  0  0  0  0  0  0  0  0  0  0  0
   -1.0206   17.8801   -1.3205 H   0  0  0  0  0  0  0  0  0  0  0  0
   -0.0163   17.4314    0.6029 H   0  0  0  0  0  0  0  0  0  0  0  0
    1.5284   17.2841   -0.3347 H   0  0  0  0  0  0  0  0  0  0  0  0
    0.3371   19.2432    1.2521 H   0  0  0  0  0  0  0  0  0  0  0  0
    4.1207   17.7623    1.6203 H   0  0  0  0  0  0  0  0  0  0  0  0
    3.2215   17.4107    0.1056 H   0  0  0  0  0  0  0  0  0  0  0  0
    4.5377   18.6332    0.1056 H   0  0  0  0  0  0  0  0  0  0  0  0
    2.9041   19.7074    3.1137 H   0  0  0  0  0  0  0  0  0  0  0  0
    4.1701   20.4416    2.0722 H   0  0  0  0  0  0  0  0  0  0  0  0
    2.5051   21.1156    2.0722 H   0  0  0  0  0  0  0  0  0  0  0  0
   -0.6991   16.4076   -2.4761 H   0  0  0  0  0  0  0  0  0  0  0  0
   -0.6395   16.1971   -4.8825 H   0  0  0  0  0  0  0  0  0  0  0  0
    1.0349   16.7855   -4.9695 H   0  0  0  0  0  0  0  0  0  0  0  0
    0.2156   14.0609   -5.2376 H   0  0  0  0  0  0  0  0  0  0  0  0
    1.8778   14.5685   -4.9496 H   0  0  0  0  0  0  0  0  0  0  0  0
   -0.9942   13.6246   -1.8688 H   0  0  0  0  0  0  0  0  0  0  0  0
   -1.3843   14.4516   -3.4150 H   0  0  0  0  0  0  0  0  0  0  0  0
   -0.9362   12.7121   -3.4150 H   0  0  0  0  0  0  0  0  0  0  0  0
    2.6815   13.2616   -3.0766 H   0  0  0  0  0  0  0  0  0  0  0  0
    1.0935   11.8986   -4.5807 H   0  0  0  0  0  0  0  0  0  0  0  0
    2.4324   11.0783   -3.6194 H   0  0  0  0  0  0  0  0  0  0  0  0
    0.1052    9.8439   -3.6652 H   0  0  0  0  0  0  0  0  0  0  0  0
   -0.2004   12.3781   -0.5378 H   0  0  0  0  0  0  0  0  0  0  0  0
    1.7658   10.2095    0.4248 H   0  0  0  0  0  0  0  0  0  0  0  0
    1.2004   11.6646    1.3597 H   0  0  0  0  0  0  0  0  0  0  0  0
    0.0543    9.5910    2.0704 H   0  0  0  0  0  0  0  0  0  0  0  0
   -1.0726   10.8159    1.3659 H   0  0  0  0  0  0  0  0  0  0  0  0
   -1.6667    8.6494    0.5250 H   0  0  0  0  0  0  0  0  0  0  0  0
   -0.1210    7.3550   -0.5320 H   0  0  0  0  0  0  0  0  0  0  0  0
   -2.6152   10.7184   -0.0451 H   0  0  0  0  0  0  0  0  0  0  0  0
   -2.2340   11.5428   -1.5949 H   0  0  0  0  0  0  0  0  0  0  0  0
   -3.2213   10.0421   -1.5949 H   0  0  0  0  0  0  0  0  0  0  0  0
   -1.7008    7.6626   -1.6493 H   0  0  0  0  0  0  0  0  0  0  0  0
   -2.2857    8.8571   -2.8567 H   0  0  0  0  0  0  0  0  0  0  0  0
   -0.5624    8.3503   -2.8567 H   0  0  0  0  0  0  0  0  0  0  0  0
    3.3507   11.7202    0.0747 H   0  0  0  0  0  0  0  0  0  0  0  0
    3.1120   10.8282   -1.4661 H   0  0  0  0  0  0  0  0  0  0  0  0
    3.9666   12.4082   -1.4661 H   0  0  0  0  0  0  0  0  0  0  0  0
    1.5353   13.5957    0.6775 H   0  0  0  0  0  0  0  0  0  0  0  0
    2.8934   14.2194   -0.4186 H   0  0  0  0  0  0  0  0  0  0  0  0
   -0.0715   14.8129   -0.6280 H   0  0  0  0  0  0  0  0  0  0  0  0
    1.2806   15.9441   -0.2288 H   0  0  0  0  0  0  0  0  0  0  0  0
    3.1742   15.8842   -1.5102 H   0  0  0  0  0  0  0  0  0  0  0  0
    3.2221   14.9656   -3.0531 H   0  0  0  0  0  0  0  0  0  0  0  0
    2.7433   16.6969   -3.0531 H   0  0  0  0  0  0  0  0  0  0  0  0
  1  2  1  0
  2  3  1  0
  3  4  1  0
  4  5  1  0
  5  6  1  0
  6  7  1  0
  7  8  1  0
  7  9  1  0
  2 10  1  0
 10 11  1  0
 11 12  1  0
 12 13  1  0
 13 14  1  1
 13 15  1  0
 15 16  1  0
 16 17  1  0
 17 18  2  0
 18 19  1  0
 19 20  1  0
 20 21  1  0
 21 22  1  0
 22 23  1  0
 22 24  1  0
 24 25  1  0
 24 26  1  0
 19 27  1  0
 27 28  1  6
 27 29  1  0
 29 30  1  0
 30 31  1  0
 31 32  1  1
  7  5  1  0
 31 10  1  0
 31 13  1  0
 27 15  1  0
 24 18  1  0
  1 33  1  0
  1 34  1  0
  1 35  1  0
  2 36  1  6
  3 37  1  0
  3 38  1  0
  4 39  1  0
  4 40  1  0
  5 41  1  1
  8 42  1  0
  8 43  1  0
  8 44  1  0
  9 45  1  0
  9 46  1  0
  9 47  1  0
 10 48  1  1
 11 49  1  0
 11 50  1  0
 12 51  1  0
 12 52  1  0
 14 53  1  0
 14 54  1  0
 14 55  1  0
 15 56  1  6
 16 57  1  0
 16 58  1  0
 17 59  1  0
 19 60  1  1
 20 61  1  0
 20 62  1  0
 21 63  1  0
 21 64  1  0
 22 65  1  1
 23 66  1  0
 25 67  1  0
 25 68  1  0
 25 69  1  0
 26 70  1  0
 26 71  1  0
 26 72  1  0
 28 73  1  0
 28 74  1  0
 28 75  1  0
 29 76  1  0
 29 77  1  0
 30 78  1  0
 30 79  1  0
 32 80  1  0
 32 81  1  0
 32 82  1  0
M  END
>  <meeko>  (4) 
{"is_sidechain": [false], "intermolecular_energy": 2.731, "internal_energy": -0.839}

$$$$
EPH_relaxed_0001_pdb2pqr_Repair_77_r2_0001_out
     RDKit          3D

 82 86  0  0  0  0  0  0  0  0999 V2000
    2.3190   17.9380   -2.8510 C   0  0  0  0  0  0  0  0  0  0  0  0
    1.0280   17.5630   -2.1180 C   0  0  2  0  0  0  0  0  0  0  0  0
    1.1860   17.6380   -0.5860 C   0  0  0  0  0  0  0  0  0  0  0  0
    0.8920   19.0230   -0.0040 C   0  0  0  0  0  0  0  0  0  0  0  0
   -0.5290   19.1400    0.4580 C   0  0  2  0  0  0  0  0  0  0  0  0
   -1.4460   18.2520   -0.1940 O   0  0  0  0  0  0  0  0  0  0  0  0
   -1.6550   19.6550   -0.4190 C   0  0  0  0  0  0  0  0  0  0  0  0
   -1.4090   20.0890   -1.8300 C   0  0  0  0  0  0  0  0  0  0  0  0
   -2.8860   20.1940    0.2410 C   0  0  0  0  0  0  0  0  0  0  0  0
    0.5860   16.1630   -2.5280 C   0  0  1  0  0  0  0  0  0  0  0  0
    0.6670   15.9350   -4.0610 C   0  0  0  0  0  0  0  0  0  0  0  0
    1.0770   14.4550   -4.2730 C   0  0  0  0  0  0  0  0  0  0  0  0
    0.8950   13.7980   -2.8850 C   0  0  1  0  0  0  0  0  0  0  0  0
   -0.6320   13.4920   -2.7830 C   0  0  0  0  0  0  0  0  0  0  0  0
    1.7580   12.5250   -2.6040 C   0  0  2  0  0  0  0  0  0  0  0  0
    1.4760   11.3280   -3.5290 C   0  0  0  0  0  0  0  0  0  0  0  0
    0.4290   10.3810   -3.0440 C   0  0  0  0  0  0  0  0  0  0  0  0
   -0.0550   10.3250   -1.7890 C   0  0  0  0  0  0  0  0  0  0  0  0
    0.5270   11.2120   -0.6810 C   0  0  1  0  0  0  0  0  0  0  0  0
    0.7740   10.3570    0.5900 C   0  0  0  0  0  0  0  0  0  0  0  0
   -0.4740    9.6030    1.0400 C   0  0  0  0  0  0  0  0  0  0  0  0
   -0.9880    8.6890   -0.0690 C   0  0  2  0  0  0  0  0  0  0  0  0
   -0.0300    7.6490   -0.2900 O   0  0  0  0  0  0  0  0  0  0  0  0
   -1.2640    9.4380   -1.4020 C   0  0  0  0  0  0  0  0  0  0  0  0
   -2.5040   10.3510   -1.2390 C   0  0  0  0  0  0  0  0  0  0  0  0
   -1.6410    8.3810   -2.4750 C   0  0  0  0  0  0  0  0  0  0  0  0
    1.7910   12.0860   -1.0840 C   0  0  1  0  0  0  0  0  0  0  0  0
    3.0960   11.2550   -0.8890 C   0  0  0  0  0  0  0  0  0  0  0  0
    1.8980   13.3170   -0.1080 C   0  0  0  0  0  0  0  0  0  0  0  0
    1.1170   14.5850   -0.5010 C   0  0  0  0  0  0  0  0  0  0  0  0
    1.3910   14.9680   -1.9590 C   0  0  2  0  0  0  0  0  0  0  0  0
    2.9170   15.3030   -2.0870 C   0  0  0  0  0  0  0  0  0  0  0  0
    3.1049   18.1663   -2.1160 H   0  0  0  0  0  0  0  0  0  0  0  0
    2.6403   17.0961   -3.4818 H   0  0  0  0  0  0  0  0  0  0  0  0
    2.1392   18.8211   -3.4818 H   0  0  0  0  0  0  0  0  0  0  0  0
    0.2596   18.2954   -2.4062 H   0  0  0  0  0  0  0  0  0  0  0  0
    0.4934   16.9154   -0.1297 H   0  0  0  0  0  0  0  0  0  0  0  0
    2.2383   17.4111   -0.3599 H   0  0  0  0  0  0  0  0  0  0  0  0
    1.5606   19.1995    0.8514 H   0  0  0  0  0  0  0  0  0  0  0  0
    1.0580   19.7695   -0.7947 H   0  0  0  0  0  0  0  0  0  0  0  0
   -0.2009   19.4109    1.4724 H   0  0  0  0  0  0  0  0  0  0  0  0
   -0.8666   21.0460   -1.8300 H   0  0  0  0  0  0  0  0  0  0  0  0
   -0.8085   19.3271   -2.3485 H   0  0  0  0  0  0  0  0  0  0  0  0
   -2.3712   20.2129   -2.3485 H   0  0  0  0  0  0  0  0  0  0  0  0
   -2.7687   20.1426    1.3335 H   0  0  0  0  0  0  0  0  0  0  0  0
   -3.0366   21.2404   -0.0628 H   0  0  0  0  0  0  0  0  0  0  0  0
   -3.7571   19.5950   -0.0628 H   0  0  0  0  0  0  0  0  0  0  0  0
   -0.4325   16.1628   -2.1126 H   0  0  0  0  0  0  0  0  0  0  0  0
   -0.3119   16.1268   -4.5246 H   0  0  0  0  0  0  0  0  0  0  0  0
    1.3962   16.6165   -4.5233 H   0  0  0  0  0  0  0  0  0  0  0  0
    0.4263   13.9746   -5.0185 H   0  0  0  0  0  0  0  0  0  0  0  0
    2.1058   14.3567   -4.6498 H   0  0  0  0  0  0  0  0  0  0  0  0
   -0.9243   13.4334   -1.7242 H   0  0  0  0  0  0  0  0  0  0  0  0
   -1.2005   14.2941   -3.2765 H   0  0  0  0  0  0  0  0  0  0  0  0
   -0.8475   12.5328   -3.2765 H   0  0  0  0  0  0  0  0  0  0  0  0
    2.7719   12.8671   -2.8590 H   0  0  0  0  0  0  0  0  0  0  0  0
    1.1536   11.7208   -4.5046 H   0  0  0  0  0  0  0  0  0  0  0  0
    2.4114   10.7509   -3.5741 H   0  0  0  0  0  0  0  0  0  0  0  0
    0.0180    9.6683   -3.7741 H   0  0  0  0  0  0  0  0  0  0  0  0
   -0.2344   11.9783   -0.4735 H   0  0  0  0  0  0  0  0  0  0  0  0
    1.5685    9.6272    0.3751 H   0  0  0  0  0  0  0  0  0  0  0  0
    1.0614   11.0413    1.4019 H   0  0  0  0  0  0  0  0  0  0  0  0
   -0.2284    8.9948    1.9230 H   0  0  0  0  0  0  0  0  0  0  0  0
   -1.2581   10.3351    1.2835 H   0  0  0  0  0  0  0  0  0  0  0  0
   -1.9521    8.2768    0.2635 H   0  0  0  0  0  0  0  0  0  0  0  0
   -0.3540    7.1030   -1.0260 H   0  0  0  0  0  0  0  0  0  0  0  0
   -2.7097   10.5025   -0.1691 H   0  0  0  0  0  0  0  0  0  0  0  0
   -2.3091   11.3228   -1.7161 H   0  0  0  0  0  0  0  0  0  0  0  0
   -3.3741    9.8763   -1.7161 H   0  0  0  0  0  0  0  0  0  0  0  0
   -1.9708    7.4563   -1.9788 H   0  0  0  0  0  0  0  0  0  0  0  0
   -2.4556    8.7706   -3.1032 H   0  0  0  0  0  0  0  0  0  0  0  0
   -0.7637    8.1672   -3.1032 H   0  0  0  0  0  0  0  0  0  0  0  0
    3.2935   11.1293    0.1858 H   0  0  0  0  0  0  0  0  0  0  0  0
    2.9751   10.2672   -1.3576 H   0  0  0  0  0  0  0  0  0  0  0  0
    3.9400   11.7824   -1.3576 H   0  0  0  0  0  0  0  0  0  0  0  0
    1.5323   12.9930    0.8775 H   0  0  0  0  0  0  0  0  0  0  0  0
    2.9573   13.6124   -0.1324 H   0  0  0  0  0  0  0  0  0  0  0  0
    0.0404   14.3983   -0.3742 H   0  0  0  0  0  0  0  0  0  0  0  0
    1.4431   15.4125    0.1462 H   0  0  0  0  0  0  0  0  0  0  0  0
    3.3567   15.3995   -1.0833 H   0  0  0  0  0  0  0  0  0  0  0  0
    3.4252   14.4950   -2.6338 H   0  0  0  0  0  0  0  0  0  0  0  0
    3.0400   16.2495   -2.6338 H   0  0  0  0  0  0  0  0  0  0  0  0
  1  2  1  0
  2  3  1  0
  3  4  1  0
  4  5  1  0
  5  6  1  0
  6  7  1  0
  7  8  1  0
  7  9  1  0
  2 10  1  0
 10 11  1  0
 11 12  1  0
 12 13  1  0
 13 14  1  1
 13 15  1  0
 15 16  1  0
 16 17  1  0
 17 18  2  0
 18 19  1  0
 19 20  1  0
 20 21  1  0
 21 22  1  0
 22 23  1  0
 22 24  1  0
 24 25  1  0
 24 26  1  0
 19 27  1  0
 27 28  1  6
 27 29  1  0
 29 30  1  0
 30 31  1  0
 31 32  1  1
  7  5  1  0
 31 10  1  0
 31 13  1  0
 27 15  1  0
 24 18  1  0
  1 33  1  0
  1 34  1  0
  1 35  1  0
  2 36  1  6
  3 37  1  0
  3 38  1  0
  4 39  1  0
  4 40  1  0
  5 41  1  1
  8 42  1  0
  8 43  1  0
  8 44  1  0
  9 45  1  0
  9 46  1  0
  9 47  1  0
 10 48  1  1
 11 49  1  0
 11 50  1  0
 12 51  1  0
 12 52  1  0
 14 53  1  0
 14 54  1  0
 14 55  1  0
 15 56  1  6
 16 57  1  0
 16 58  1  0
 17 59  1  0
 19 60  1  1
 20 61  1  0
 20 62  1  0
 21 63  1  0
 21 64  1  0
 22 65  1  1
 23 66  1  0
 25 67  1  0
 25 68  1  0
 25 69  1  0
 26 70  1  0
 26 71  1  0
 26 72  1  0
 28 73  1  0
 28 74  1  0
 28 75  1  0
 29 76  1  0
 29 77  1  0
 30 78  1  0
 30 79  1  0
 32 80  1  0
 32 81  1  0
 32 82  1  0
M  END
>  <meeko>  (5) 
{"is_sidechain": [false], "intermolecular_energy": 2.731, "internal_energy": -0.839}

$$$$
EPH_relaxed_0001_pdb2pqr_Repair_77_r2_0001_out
     RDKit          3D

 82 86  0  0  0  0  0  0  0  0999 V2000
   -5.5630    6.1160   -0.0250 C   0  0  0  0  0  0  0  0  0  0  0  0
   -5.4150    7.0690   -1.2140 C   0  0  2  0  0  0  0  0  0  0  0  0
   -4.7090    8.3820   -0.8210 C   0  0  0  0  0  0  0  0  0  0  0  0
   -3.2250    8.4180   -1.1970 C   0  0  0  0  0  0  0  0  0  0  0  0
   -2.4680    9.4130   -0.3700 C   0  0  2  0  0  0  0  0  0  0  0  0
   -2.1420   10.6330   -1.0490 O   0  0  0  0  0  0  0  0  0  0  0  0
   -1.0310    9.8140   -0.6510 C   0  0  0  0  0  0  0  0  0  0  0  0
   -0.2670    9.2260   -1.7950 C   0  0  0  0  0  0  0  0  0  0  0  0
   -0.2210   10.3980    0.4640 C   0  0  0  0  0  0  0  0  0  0  0  0
   -6.7850    7.3730   -1.8100 C   0  0  1  0  0  0  0  0  0  0  0  0
   -6.9940    6.7080   -3.1970 C   0  0  0  0  0  0  0  0  0  0  0  0
   -8.4900    6.3100   -3.2810 C   0  0  0  0  0  0  0  0  0  0  0  0
   -9.1570    7.0480   -2.0960 C   0  0  1  0  0  0  0  0  0  0  0  0
   -9.3860    8.5040   -2.6080 C   0  0  0  0  0  0  0  0  0  0  0  0
  -10.4760    6.4160   -1.5440 C   0  0  2  0  0  0  0  0  0  0  0  0
  -11.6440    6.3640   -2.5450 C   0  0  0  0  0  0  0  0  0  0  0  0
  -12.5430    7.5550   -2.5380 C   0  0  0  0  0  0  0  0  0  0  0  0
  -12.5920    8.4930   -1.5740 C   0  0  0  0  0  0  0  0  0  0  0  0
  -11.7520    8.3550   -0.2980 C   0  0  1  0  0  0  0  0  0  0  0  0
  -12.6370    8.6600    0.9400 C   0  0  0  0  0  0  0  0  0  0  0  0
  -13.3320   10.0140    0.8420 C   0  0  0  0  0  0  0  0  0  0  0  0
  -14.2030   10.0920   -0.4090 C   0  0  2  0  0  0  0  0  0  0  0  0
  -15.2870    9.1680   -0.2740 O   0  0  0  0  0  0  0  0  0  0  0  0
  -13.4210    9.7930   -1.7190 C   0  0  0  0  0  0  0  0  0  0  0  0
  -12.4490   10.9590   -2.0220 C   0  0  0  0  0  0  0  0  0  0  0  0
  -14.4420    9.7640   -2.8880 C   0  0  0  0  0  0  0  0  0  0  0  0
  -10.9380    6.9980   -0.1470 C   0  0  1  0  0  0  0  0  0  0  0  0
  -11.8370    5.9090    0.5140 C   0  0  0  0  0  0  0  0  0  0  0  0
   -9.7290    7.2310    0.8340 C   0  0  0  0  0  0  0  0  0  0  0  0
   -8.4160    7.7420    0.2100 C   0  0  0  0  0  0  0  0  0  0  0  0
   -8.0280    6.9040   -1.0120 C   0  0  2  0  0  0  0  0  0  0  0  0
   -7.7690    5.4380   -0.5240 C   0  0  0  0  0  0  0  0  0  0  0  0
   -5.4748    6.6837    0.9131 H   0  0  0  0  0  0  0  0  0  0  0  0
   -6.5478    5.6276   -0.0669 H   0  0  0  0  0  0  0  0  0  0  0  0
   -4.7727    5.3520   -0.0669 H   0  0  0  0  0  0  0  0  0  0  0  0
   -4.7859    6.5673   -1.9640 H   0  0  0  0  0  0  0  0  0  0  0  0
   -5.2166    9.2151   -1.3293 H   0  0  0  0  0  0  0  0  0  0  0  0
   -4.7656    8.4626    0.2746 H   0  0  0  0  0  0  0  0  0  0  0  0
   -2.7924    7.4193   -1.0376 H   0  0  0  0  0  0  0  0  0  0  0  0
   -3.1456    8.7179   -2.2524 H   0  0  0  0  0  0  0  0  0  0  0  0
   -2.9738    9.0718    0.5453 H   0  0  0  0  0  0  0  0  0  0  0  0
    0.5487    8.5982   -1.4071 H   0  0  0  0  0  0  0  0  0  0  0  0
   -0.9418    8.6120   -2.4095 H   0  0  0  0  0  0  0  0  0  0  0  0
    0.1538   10.0355   -2.4095 H   0  0  0  0  0  0  0  0  0  0  0  0
   -0.6492   10.0892    1.4290 H   0  0  0  0  0  0  0  0  0  0  0  0
    0.8160   10.0384    0.3912 H   0  0  0  0  0  0  0  0  0  0  0  0
   -0.2345   11.4955    0.3912 H   0  0  0  0  0  0  0  0  0  0  0  0
   -6.7400    8.4720   -1.8245 H   0  0  0  0  0  0  0  0  0  0  0  0
   -6.7454    7.4185   -3.9991 H   0  0  0  0  0  0  0  0  0  0  0  0
   -6.3440    5.8286   -3.3155 H   0  0  0  0  0  0  0  0  0  0  0  0
   -8.9257    6.6366   -4.2368 H   0  0  0  0  0  0  0  0  0  0  0  0
   -8.6356    5.2209   -3.2295 H   0  0  0  0  0  0  0  0  0  0  0  0
   -9.4927    9.1823   -1.7487 H   0  0  0  0  0  0  0  0  0  0  0  0
   -8.5261    8.8176   -3.2182 H   0  0  0  0  0  0  0  0  0  0  0  0
  -10.3006    8.5385   -3.2182 H   0  0  0  0  0  0  0  0  0  0  0  0
  -10.1825    5.3697   -1.3731 H   0  0  0  0  0  0  0  0  0  0  0  0
  -11.2213    6.2631   -3.5555 H   0  0  0  0  0  0  0  0  0  0  0  0
  -12.2675    5.5103   -2.2410 H   0  0  0  0  0  0  0  0  0  0  0  0
  -13.2236    7.6767   -3.3935 H   0  0  0  0  0  0  0  0  0  0  0  0
  -10.9512    9.1048   -0.3783 H   0  0  0  0  0  0  0  0  0  0  0  0
  -13.4033    7.8757    1.0276 H   0  0  0  0  0  0  0  0  0  0  0  0
  -11.9805    8.6845    1.8222 H   0  0  0  0  0  0  0  0  0  0  0  0
  -13.9644   10.1590    1.7303 H   0  0  0  0  0  0  0  0  0  0  0  0
  -12.5637   10.7991    0.7839 H   0  0  0  0  0  0  0  0  0  0  0  0
  -14.5703   11.1256   -0.4919 H   0  0  0  0  0  0  0  0  0  0  0  0
  -15.1740    8.4800   -0.9520 H   0  0  0  0  0  0  0  0  0  0  0  0
  -12.0888   11.3911   -1.0767 H   0  0  0  0  0  0  0  0  0  0  0  0
  -11.5939   10.5821   -2.6023 H   0  0  0  0  0  0  0  0  0  0  0  0
  -12.9736   11.7323   -2.6023 H   0  0  0  0  0  0  0  0  0  0  0  0
  -15.4638    9.7350   -2.4817 H   0  0  0  0  0  0  0  0  0  0  0  0
  -14.3183   10.6660   -3.5053 H   0  0  0  0  0  0  0  0  0  0  0  0
  -14.2673    8.8705   -3.5053 H   0  0  0  0  0  0  0  0  0  0  0  0
  -11.7685    5.9920    1.6087 H   0  0  0  0  0  0  0  0  0  0  0  0
  -12.8810    6.0552    0.1998 H   0  0  0  0  0  0  0  0  0  0  0  0
  -11.4957    4.9116    0.1998 H   0  0  0  0  0  0  0  0  0  0  0  0
  -10.0483    7.9670    1.5866 H   0  0  0  0  0  0  0  0  0  0  0  0
   -9.4884    6.2356    1.2355 H   0  0  0  0  0  0  0  0  0  0  0  0
   -8.5480    8.7894   -0.0990 H   0  0  0  0  0  0  0  0  0  0  0  0
   -7.6157    7.6602    0.9602 H   0  0  0  0  0  0  0  0  0  0  0  0
   -7.7646    5.4130    0.5757 H   0  0  0  0  0  0  0  0  0  0  0  0
   -8.5647    4.7796   -0.9025 H   0  0  0  0  0  0  0  0  0  0  0  0
   -6.7958    5.0921   -0.9025 H   0  0  0  0  0  0  0  0  0  0  0  0
  1  2  1  0
  2  3  1  0
  3  4  1  0
  4  5  1  0
  5  6  1  0
  6  7  1  0
  7  8  1  0
  7  9  1  0
  2 10  1  0
 10 11  1  0
 11 12  1  0
 12 13  1  0
 13 14  1  6
 13 15  1  0
 15 16  1  0
 16 17  1  0
 17 18  2  0
 18 19  1  0
 19 20  1  0
 20 21  1  0
 21 22  1  0
 22 23  1  0
 22 24  1  0
 24 25  1  0
 24 26  1  0
 19 27  1  0
 27 28  1  1
 27 29  1  0
 29 30  1  0
 30 31  1  0
 31 32  1  1
  7  5  1  0
 31 10  1  0
 31 13  1  0
 27 15  1  0
 24 18  1  0
  1 33  1  0
  1 34  1  0
  1 35  1  0
  2 36  1  6
  3 37  1  0
  3 38  1  0
  4 39  1  0
  4 40  1  0
  5 41  1  1
  8 42  1  0
  8 43  1  0
  8 44  1  0
  9 45  1  0
  9 46  1  0
  9 47  1  0
 10 48  1  6
 11 49  1  0
 11 50  1  0
 12 51  1  0
 12 52  1  0
 14 53  1  0
 14 54  1  0
 14 55  1  0
 15 56  1  1
 16 57  1  0
 16 58  1  0
 17 59  1  0
 19 60  1  6
 20 61  1  0
 20 62  1  0
 21 63  1  0
 21 64  1  0
 22 65  1  6
 23 66  1  0
 25 67  1  0
 25 68  1  0
 25 69  1  0
 26 70  1  0
 26 71  1  0
 26 72  1  0
 28 73  1  0
 28 74  1  0
 28 75  1  0
 29 76  1  0
 29 77  1  0
 30 78  1  0
 30 79  1  0
 32 80  1  0
 32 81  1  0
 32 82  1  0
M  END
>  <meeko>  (6) 
{"is_sidechain": [false], "intermolecular_energy": 2.731, "internal_energy": -0.839}

$$$$
EPH_relaxed_0001_pdb2pqr_Repair_77_r2_0001_out
     RDKit          3D

 82 86  0  0  0  0  0  0  0  0999 V2000
   -0.9060   10.3700   -2.6070 C   0  0  0  0  0  0  0  0  0  0  0  0
   -0.3920   10.1560   -1.1800 C   0  0  2  0  0  0  0  0  0  0  0  0
   -1.4400    9.4690   -0.2820 C   0  0  0  0  0  0  0  0  0  0  0  0
   -2.8560    9.4890   -0.8630 C   0  0  0  0  0  0  0  0  0  0  0  0
   -3.5040    8.1400   -0.7910 C   0  0  2  0  0  0  0  0  0  0  0  0
   -4.0570    7.6740   -2.0290 O   0  0  0  0  0  0  0  0  0  0  0  0
   -4.9950    7.9170   -0.9670 C   0  0  0  0  0  0  0  0  0  0  0  0
   -5.9280    9.0570   -1.2290 C   0  0  0  0  0  0  0  0  0  0  0  0
   -5.6040    6.6710   -0.4040 C   0  0  0  0  0  0  0  0  0  0  0  0
    0.0210   11.4910   -0.5710 C   0  0  1  0  0  0  0  0  0  0  0  0
    1.1420   11.3410    0.4920 C   0  0  0  0  0  0  0  0  0  0  0  0
    2.0410   12.5990    0.3750 C   0  0  0  0  0  0  0  0  0  0  0  0
    1.2310   13.5760   -0.5080 C   0  0  1  0  0  0  0  0  0  0  0  0
    0.2090   14.2430    0.4650 C   0  0  0  0  0  0  0  0  0  0  0  0
    2.0580   14.6440   -1.2960 C   0  0  2  0  0  0  0  0  0  0  0  0
    2.8480   15.6330   -0.4220 C   0  0  0  0  0  0  0  0  0  0  0  0
    2.1170   16.8810   -0.0520 C   0  0  0  0  0  0  0  0  0  0  0  0
    0.9900   17.3300   -0.6350 C   0  0  0  0  0  0  0  0  0  0  0  0
    0.3880   16.6060   -1.8470 C   0  0  1  0  0  0  0  0  0  0  0  0
    0.0150   17.6440   -2.9370 C   0  0  0  0  0  0  0  0  0  0  0  0
   -0.8940   18.7480   -2.4070 C   0  0  0  0  0  0  0  0  0  0  0  0
   -0.2370   19.4830   -1.2410 C   0  0  2  0  0  0  0  0  0  0  0  0
    0.9040   20.1940   -1.7290 O   0  0  0  0  0  0  0  0  0  0  0  0
    0.1910   18.5370   -0.0840 C   0  0  0  0  0  0  0  0  0  0  0  0
   -1.0660   17.9970    0.6410 C   0  0  0  0  0  0  0  0  0  0  0  0
    0.9660   19.3820    0.9620 C   0  0  0  0  0  0  0  0  0  0  0  0
    1.2400   15.3940   -2.4240 C   0  0  1  0  0  0  0  0  0  0  0  0
    2.2840   15.9220   -3.4550 C   0  0  0  0  0  0  0  0  0  0  0  0
    0.2840   14.4250   -3.2160 C   0  0  0  0  0  0  0  0  0  0  0  0
   -0.4110   13.3170   -2.4020 C   0  0  0  0  0  0  0  0  0  0  0  0
    0.5970   12.5630   -1.5300 C   0  0  2  0  0  0  0  0  0  0  0  0
    1.6250   11.8630   -2.4830 C   0  0  0  0  0  0  0  0  0  0  0  0
   -1.9210   10.7926   -2.5716 H   0  0  0  0  0  0  0  0  0  0  0  0
   -0.2379   11.0647   -3.1371 H   0  0  0  0  0  0  0  0  0  0  0  0
   -0.9283    9.4064   -3.1371 H   0  0  0  0  0  0  0  0  0  0  0  0
    0.4802    9.4883   -1.2391 H   0  0  0  0  0  0  0  0  0  0  0  0
   -1.1391    8.4210   -0.1364 H   0  0  0  0  0  0  0  0  0  0  0  0
   -1.4722   10.0315    0.6627 H   0  0  0  0  0  0  0  0  0  0  0  0
   -3.4645   10.2075   -0.2943 H   0  0  0  0  0  0  0  0  0  0  0  0
   -2.7881    9.7806   -1.9215 H   0  0  0  0  0  0  0  0  0  0  0  0
   -2.7963    7.8159   -0.0137 H   0  0  0  0  0  0  0  0  0  0  0  0
   -6.2717    9.4769   -0.2721 H   0  0  0  0  0  0  0  0  0  0  0  0
   -5.4041    9.8349   -1.8037 H   0  0  0  0  0  0  0  0  0  0  0  0
   -6.7942    8.6973   -1.8037 H   0  0  0  0  0  0  0  0  0  0  0  0
   -5.5819    6.7162    0.6948 H   0  0  0  0  0  0  0  0  0  0  0  0
   -6.6458    6.5849   -0.7465 H   0  0  0  0  0  0  0  0  0  0  0  0
   -5.0319    5.7961   -0.7465 H   0  0  0  0  0  0  0  0  0  0  0  0
   -0.9511   11.8223   -0.1770 H   0  0  0  0  0  0  0  0  0  0  0  0
    0.7035   11.2812    1.4990 H   0  0  0  0  0  0  0  0  0  0  0  0
    1.7242   10.4227    0.3251 H   0  0  0  0  0  0  0  0  0  0  0  0
    2.2283   13.0361    1.3669 H   0  0  0  0  0  0  0  0  0  0  0  0
    3.0273   12.3686   -0.0541 H   0  0  0  0  0  0  0  0  0  0  0  0
    0.5103   14.0463    1.5045 H   0  0  0  0  0  0  0  0  0  0  0  0
    0.1891   15.3285    0.2881 H   0  0  0  0  0  0  0  0  0  0  0  0
   -0.7927   13.8242    0.2881 H   0  0  0  0  0  0  0  0  0  0  0  0
    2.8134   14.0280   -1.8059 H   0  0  0  0  0  0  0  0  0  0  0  0
    3.1296   15.1158    0.5071 H   0  0  0  0  0  0  0  0  0  0  0  0
    3.7096   15.9526   -1.0265 H   0  0  0  0  0  0  0  0  0  0  0  0
    2.5350   17.4850    0.7668 H   0  0  0  0  0  0  0  0  0  0  0  0
   -0.5209   16.1053   -1.4820 H   0  0  0  0  0  0  0  0  0  0  0  0
    0.9394   18.1016   -3.3192 H   0  0  0  0  0  0  0  0  0  0  0  0
   -0.5321   17.1132   -3.7301 H   0  0  0  0  0  0  0  0  0  0  0  0
   -1.0982   19.4653   -3.2155 H   0  0  0  0  0  0  0  0  0  0  0  0
   -1.8299   18.2920   -2.0519 H   0  0  0  0  0  0  0  0  0  0  0  0
   -0.9846   20.1724   -0.8216 H   0  0  0  0  0  0  0  0  0  0  0  0
    1.5800   20.1820   -1.0300 H   0  0  0  0  0  0  0  0  0  0  0  0
   -0.9175   18.0608    1.7291 H   0  0  0  0  0  0  0  0  0  0  0  0
   -1.9413   18.5985    0.3545 H   0  0  0  0  0  0  0  0  0  0  0  0
   -1.2323   16.9481    0.3545 H   0  0  0  0  0  0  0  0  0  0  0  0
    0.6767   19.0665    1.9753 H   0  0  0  0  0  0  0  0  0  0  0  0
    2.0472   19.2321    0.8260 H   0  0  0  0  0  0  0  0  0  0  0  0
    0.7234   20.4463    0.8260 H   0  0  0  0  0  0  0  0  0  0  0  0
    3.1414   16.3556   -2.9193 H   0  0  0  0  0  0  0  0  0  0  0  0
    2.6289   15.0899   -4.0865 H   0  0  0  0  0  0  0  0  0  0  0  0
    1.8182   16.6929   -4.0865 H   0  0  0  0  0  0  0  0  0  0  0  0
   -0.5015   15.0389   -3.6809 H   0  0  0  0  0  0  0  0  0  0  0  0
    0.9354   13.8949   -3.9264 H   0  0  0  0  0  0  0  0  0  0  0  0
   -1.1765   13.7715   -1.7559 H   0  0  0  0  0  0  0  0  0  0  0  0
   -0.8715   12.6042   -3.1019 H   0  0  0  0  0  0  0  0  0  0  0  0
    2.3870   11.3442   -1.8828 H   0  0  0  0  0  0  0  0  0  0  0  0
    1.0994   11.1343   -3.1176 H   0  0  0  0  0  0  0  0  0  0  0  0
    2.1104   12.6191   -3.1176 H   0  0  0  0  0  0  0  0  0  0  0  0
  1  2  1  0
  2  3  1  0
  3  4  1  0
  4  5  1  0
  5  6  1  0
  6  7  1  0
  7  8  1  0
  7  9  1  0
  2 10  1  0
 10 11  1  0
 11 12  1  0
 12 13  1  0
 13 14  1  1
 13 15  1  0
 15 16  1  0
 16 17  1  0
 17 18  2  0
 18 19  1  0
 19 20  1  0
 20 21  1  0
 21 22  1  0
 22 23  1  0
 22 24  1  0
 24 25  1  0
 24 26  1  0
 19 27  1  0
 27 28  1  6
 27 29  1  0
 29 30  1  0
 30 31  1  0
 31 32  1  6
  7  5  1  0
 31 10  1  0
 31 13  1  0
 27 15  1  0
 24 18  1  0
  1 33  1  0
  1 34  1  0
  1 35  1  0
  2 36  1  6
  3 37  1  0
  3 38  1  0
  4 39  1  0
  4 40  1  0
  5 41  1  1
  8 42  1  0
  8 43  1  0
  8 44  1  0
  9 45  1  0
  9 46  1  0
  9 47  1  0
 10 48  1  1
 11 49  1  0
 11 50  1  0
 12 51  1  0
 12 52  1  0
 14 53  1  0
 14 54  1  0
 14 55  1  0
 15 56  1  6
 16 57  1  0
 16 58  1  0
 17 59  1  0
 19 60  1  1
 20 61  1  0
 20 62  1  0
 21 63  1  0
 21 64  1  0
 22 65  1  1
 23 66  1  0
 25 67  1  0
 25 68  1  0
 25 69  1  0
 26 70  1  0
 26 71  1  0
 26 72  1  0
 28 73  1  0
 28 74  1  0
 28 75  1  0
 29 76  1  0
 29 77  1  0
 30 78  1  0
 30 79  1  0
 32 80  1  0
 32 81  1  0
 32 82  1  0
M  END
>  <meeko>  (7) 
{"is_sidechain": [false], "intermolecular_energy": 2.731, "internal_energy": -0.839}

$$$$
EPH_relaxed_0001_pdb2pqr_Repair_77_r2_0001_out
     RDKit          3D

 82 86  0  0  0  0  0  0  0  0999 V2000
    0.4070    8.8470   -2.5280 C   0  0  0  0  0  0  0  0  0  0  0  0
    1.1690   10.0070   -3.1750 C   0  0  2  0  0  0  0  0  0  0  0  0
    2.6620   10.0080   -2.7880 C   0  0  0  0  0  0  0  0  0  0  0  0
    3.5750   10.6130   -3.8570 C   0  0  0  0  0  0  0  0  0  0  0  0
    4.9680   10.8200   -3.3450 C   0  0  2  0  0  0  0  0  0  0  0  0
    5.5900   12.0380   -3.7750 O   0  0  0  0  0  0  0  0  0  0  0  0
    6.1960   10.8200   -4.2370 C   0  0  0  0  0  0  0  0  0  0  0  0
    6.0870   10.6080   -5.7140 C   0  0  0  0  0  0  0  0  0  0  0  0
    7.5290   10.5380   -3.6180 C   0  0  0  0  0  0  0  0  0  0  0  0
    0.5280   11.3330   -2.7820 C   0  0  1  0  0  0  0  0  0  0  0  0
   -0.8450   11.1480   -2.0830 C   0  0  0  0  0  0  0  0  0  0  0  0
   -0.9590   12.2700   -1.0180 C   0  0  0  0  0  0  0  0  0  0  0  0
    0.1860   13.2510   -1.3610 C   0  0  1  0  0  0  0  0  0  0  0  0
   -0.3710   14.1270   -2.5260 C   0  0  0  0  0  0  0  0  0  0  0  0
    0.7200   14.1290   -0.1830 C   0  0  2  0  0  0  0  0  0  0  0  0
   -0.3110   15.0930    0.4310 C   0  0  0  0  0  0  0  0  0  0  0  0
   -0.3620   16.4510   -0.1870 C   0  0  0  0  0  0  0  0  0  0  0  0
    0.5750   16.9760   -0.9990 C   0  0  0  0  0  0  0  0  0  0  0  0
    1.8770   16.2200   -1.2920 C   0  0  1  0  0  0  0  0  0  0  0  0
    3.0810   17.1880   -1.1510 C   0  0  0  0  0  0  0  0  0  0  0  0
    2.9280   18.4410   -2.0090 C   0  0  0  0  0  0  0  0  0  0  0  0
    1.6520   19.1960   -1.6480 C   0  0  2  0  0  0  0  0  0  0  0  0
    1.7820   19.7130   -0.3200 O   0  0  0  0  0  0  0  0  0  0  0  0
    0.3720   18.3190   -1.7440 C   0  0  0  0  0  0  0  0  0  0  0  0
    0.0640   18.0080   -3.2300 C   0  0  0  0  0  0  0  0  0  0  0  0
   -0.8230   19.1590   -1.2190 C   0  0  0  0  0  0  0  0  0  0  0  0
    2.0870   14.8640   -0.4900 C   0  0  1  0  0  0  0  0  0  0  0  0
    2.7530   15.1600    0.8890 C   0  0  0  0  0  0  0  0  0  0  0  0
    3.0940   13.9490   -1.2820 C   0  0  0  0  0  0  0  0  0  0  0  0
    2.4920   13.0160   -2.3500 C   0  0  0  0  0  0  0  0  0  0  0  0
    1.3040   12.2300   -1.7860 C   0  0  2  0  0  0  0  0  0  0  0  0
    1.8390   11.3230   -0.6260 C   0  0  0  0  0  0  0  0  0  0  0  0
    0.4651    8.9355   -1.4331 H   0  0  0  0  0  0  0  0  0  0  0  0
   -0.6464    8.8792   -2.8431 H   0  0  0  0  0  0  0  0  0  0  0  0
    0.8549    7.8930   -2.8431 H   0  0  0  0  0  0  0  0  0  0  0  0
    1.1106    9.8747   -4.2654 H   0  0  0  0  0  0  0  0  0  0  0  0
    2.7800   10.5889   -1.8614 H   0  0  0  0  0  0  0  0  0  0  0  0
    2.9629    8.9570   -2.6661 H   0  0  0  0  0  0  0  0  0  0  0  0
    3.6104    9.9336   -4.7214 H   0  0  0  0  0  0  0  0  0  0  0  0
    3.1657   11.5934   -4.1421 H   0  0  0  0  0  0  0  0  0  0  0  0
    4.7310   10.2819   -2.4153 H   0  0  0  0  0  0  0  0  0  0  0  0
    5.5921    9.6455   -5.9107 H   0  0  0  0  0  0  0  0  0  0  0  0
    5.4956   11.4220   -6.1586 H   0  0  0  0  0  0  0  0  0  0  0  0
    7.0931   10.6006   -6.1586 H   0  0  0  0  0  0  0  0  0  0  0  0
    7.4359   10.5577   -2.5221 H   0  0  0  0  0  0  0  0  0  0  0  0
    7.8796    9.5458   -3.9384 H   0  0  0  0  0  0  0  0  0  0  0  0
    8.2513   11.3032   -3.9384 H   0  0  0  0  0  0  0  0  0  0  0  0
    0.4846   11.8171   -3.7688 H   0  0  0  0  0  0  0  0  0  0  0  0
   -1.6592   11.2383   -2.8172 H   0  0  0  0  0  0  0  0  0  0  0  0
   -0.9215   10.1535   -1.6191 H   0  0  0  0  0  0  0  0  0  0  0  0
   -1.9349   12.7729   -1.0867 H   0  0  0  0  0  0  0  0  0  0  0  0
   -0.8816   11.8808    0.0079 H   0  0  0  0  0  0  0  0  0  0  0  0
   -0.9173   14.9862   -2.1098 H   0  0  0  0  0  0  0  0  0  0  0  0
    0.4638   14.4881   -3.1447 H   0  0  0  0  0  0  0  0  0  0  0  0
   -1.0521   13.5242   -3.1447 H   0  0  0  0  0  0  0  0  0  0  0  0
    0.9288   13.3793    0.5944 H   0  0  0  0  0  0  0  0  0  0  0  0
   -1.3063   14.6358    0.3294 H   0  0  0  0  0  0  0  0  0  0  0  0
   -0.0005   15.2456    1.4752 H   0  0  0  0  0  0  0  0  0  0  0  0
   -1.2388   17.0752    0.0401 H   0  0  0  0  0  0  0  0  0  0  0  0
    1.7984   15.8712   -2.3323 H   0  0  0  0  0  0  0  0  0  0  0  0
    3.1685   17.4908   -0.0971 H   0  0  0  0  0  0  0  0  0  0  0  0
    3.9798   16.6553   -1.4951 H   0  0  0  0  0  0  0  0  0  0  0  0
    3.7943   19.0984   -1.8440 H   0  0  0  0  0  0  0  0  0  0  0  0
    2.8705   18.1388   -3.0651 H   0  0  0  0  0  0  0  0  0  0  0  0
    1.5314   20.0076   -2.3806 H   0  0  0  0  0  0  0  0  0  0  0  0
    2.1380   20.6150   -0.3890 H   0  0  0  0  0  0  0  0  0  0  0  0
   -0.7089   17.2275   -3.2887 H   0  0  0  0  0  0  0  0  0  0  0  0
   -0.2970   18.9198   -3.7282 H   0  0  0  0  0  0  0  0  0  0  0  0
    0.9793   17.6558   -3.7282 H   0  0  0  0  0  0  0  0  0  0  0  0
   -0.8183   19.1557   -0.1190 H   0  0  0  0  0  0  0  0  0  0  0  0
   -0.7323   20.1931   -1.5830 H   0  0  0  0  0  0  0  0  0  0  0  0
   -1.7653   18.7235   -1.5830 H   0  0  0  0  0  0  0  0  0  0  0  0
    2.0717   14.8572    1.6978 H   0  0  0  0  0  0  0  0  0  0  0  0
    3.6933   14.5950    0.9709 H   0  0  0  0  0  0  0  0  0  0  0  0
    2.9637   16.2365    0.9709 H   0  0  0  0  0  0  0  0  0  0  0  0
    3.8172   14.6077   -1.7850 H   0  0  0  0  0  0  0  0  0  0  0  0
    3.5292   13.2785   -0.5263 H   0  0  0  0  0  0  0  0  0  0  0  0
    2.1510   13.6197   -3.2040 H   0  0  0  0  0  0  0  0  0  0  0  0
    3.2658   12.3016   -2.6675 H   0  0  0  0  0  0  0  0  0  0  0  0
    1.5741   11.7721    0.3426 H   0  0  0  0  0  0  0  0  0  0  0  0
    1.3857   10.3237   -0.7030 H   0  0  0  0  0  0  0  0  0  0  0  0
    2.9329   11.2363   -0.7030 H   0  0  0  0  0  0  0  0  0  0  0  0
  1  2  1  0
  2  3  1  0
  3  4  1  0
  4  5  1  0
  5  6  1  0
  6  7  1  0
  7  8  1  0
  7  9  1  0
  2 10  1  0
 10 11  1  0
 11 12  1  0
 12 13  1  0
 13 14  1  6
 13 15  1  0
 15 16  1  0
 16 17  1  0
 17 18  2  0
 18 19  1  0
 19 20  1  0
 20 21  1  0
 21 22  1  0
 22 23  1  0
 22 24  1  0
 24 25  1  0
 24 26  1  0
 19 27  1  0
 27 28  1  1
 27 29  1  0
 29 30  1  0
 30 31  1  0
 31 32  1  1
  7  5  1  0
 31 10  1  0
 31 13  1  0
 27 15  1  0
 24 18  1  0
  1 33  1  0
  1 34  1  0
  1 35  1  0
  2 36  1  6
  3 37  1  0
  3 38  1  0
  4 39  1  0
  4 40  1  0
  5 41  1  1
  8 42  1  0
  8 43  1  0
  8 44  1  0
  9 45  1  0
  9 46  1  0
  9 47  1  0
 10 48  1  6
 11 49  1  0
 11 50  1  0
 12 51  1  0
 12 52  1  0
 14 53  1  0
 14 54  1  0
 14 55  1  0
 15 56  1  1
 16 57  1  0
 16 58  1  0
 17 59  1  0
 19 60  1  6
 20 61  1  0
 20 62  1  0
 21 63  1  0
 21 64  1  0
 22 65  1  6
 23 66  1  0
 25 67  1  0
 25 68  1  0
 25 69  1  0
 26 70  1  0
 26 71  1  0
 26 72  1  0
 28 73  1  0
 28 74  1  0
 28 75  1  0
 29 76  1  0
 29 77  1  0
 30 78  1  0
 30 79  1  0
 32 80  1  0
 32 81  1  0
 32 82  1  0
M  END
>  <meeko>  (8) 
{"is_sidechain": [false], "intermolecular_energy": 2.731, "internal_energy": -0.839}

$$$$
EPH_relaxed_0001_pdb2pqr_Repair_77_r2_0001_out
     RDKit          3D

 82 86  0  0  0  0  0  0  0  0999 V2000
   -3.6480    8.9670   -0.3030 C   0  0  0  0  0  0  0  0  0  0  0  0
   -3.7490    7.7950   -1.2830 C   0  0  2  0  0  0  0  0  0  0  0  0
   -2.6940    7.8830   -2.4040 C   0  0  0  0  0  0  0  0  0  0  0  0
   -1.2880    8.2210   -1.9010 C   0  0  0  0  0  0  0  0  0  0  0  0
   -0.8840    9.6140   -2.2790 C   0  0  2  0  0  0  0  0  0  0  0  0
    0.5100    9.9010   -2.1070 O   0  0  0  0  0  0  0  0  0  0  0  0
   -0.3970   10.6450   -1.2780 C   0  0  0  0  0  0  0  0  0  0  0  0
   -0.2900   10.3260    0.1810 C   0  0  0  0  0  0  0  0  0  0  0  0
   -0.4930   12.0940   -1.6390 C   0  0  0  0  0  0  0  0  0  0  0  0
   -5.1470    7.7410   -1.8860 C   0  0  1  0  0  0  0  0  0  0  0  0
   -5.1540    7.1640   -3.3270 C   0  0  0  0  0  0  0  0  0  0  0  0
   -6.4710    6.3600   -3.4810 C   0  0  0  0  0  0  0  0  0  0  0  0
   -7.3240    6.7710   -2.2580 C   0  0  1  0  0  0  0  0  0  0  0  0
   -7.9640    8.1380   -2.6560 C   0  0  0  0  0  0  0  0  0  0  0  0
   -8.4050    5.7420   -1.7910 C   0  0  2  0  0  0  0  0  0  0  0  0
   -9.5060    5.4400   -2.8220 C   0  0  0  0  0  0  0  0  0  0  0  0
  -10.7120    6.3170   -2.7420 C   0  0  0  0  0  0  0  0  0  0  0  0
  -11.0300    7.1160   -1.7060 C   0  0  0  0  0  0  0  0  0  0  0  0
  -10.1870    7.1180   -0.4250 C   0  0  1  0  0  0  0  0  0  0  0  0
  -11.1230    7.0490    0.8110 C   0  0  0  0  0  0  0  0  0  0  0  0
  -12.1810    8.1490    0.8060 C   0  0  0  0  0  0  0  0  0  0  0  0
  -13.0360    8.0780   -0.4560 C   0  0  2  0  0  0  0  0  0  0  0  0
  -13.8060    6.8720   -0.4240 O   0  0  0  0  0  0  0  0  0  0  0  0
  -12.2000    8.1290   -1.7660 C   0  0  0  0  0  0  0  0  0  0  0  0
  -11.6060    9.5470   -1.9490 C   0  0  0  0  0  0  0  0  0  0  0  0
  -13.1690    7.9070   -2.9590 C   0  0  0  0  0  0  0  0  0  0  0  0
   -9.0160    6.0460   -0.3640 C   0  0  1  0  0  0  0  0  0  0  0  0
   -9.5620    4.6920    0.1840 C   0  0  0  0  0  0  0  0  0  0  0  0
   -7.9260    6.5330    0.6630 C   0  0  0  0  0  0  0  0  0  0  0  0
   -6.8170    7.4510    0.1150 C   0  0  0  0  0  0  0  0  0  0  0  0
   -6.2020    6.8680   -1.1610 C   0  0  2  0  0  0  0  0  0  0  0  0
   -5.5310    5.5020   -0.7870 C   0  0  0  0  0  0  0  0  0  0  0  0
   -3.6808    8.5863    0.7285 H   0  0  0  0  0  0  0  0  0  0  0  0
   -2.7005    9.5012   -0.4667 H   0  0  0  0  0  0  0  0  0  0  0  0
   -4.4901    9.6555   -0.4667 H   0  0  0  0  0  0  0  0  0  0  0  0
   -3.5527    6.8724   -0.7171 H   0  0  0  0  0  0  0  0  0  0  0  0
   -2.6541    6.9125   -2.9203 H   0  0  0  0  0  0  0  0  0  0  0  0
   -3.0019    8.7013   -3.0716 H   0  0  0  0  0  0  0  0  0  0  0  0
   -1.2700    8.1296   -0.8050 H   0  0  0  0  0  0  0  0  0  0  0  0
   -0.5795    7.5202   -2.3667 H   0  0  0  0  0  0  0  0  0  0  0  0
   -1.6583    9.6516   -3.0594 H   0  0  0  0  0  0  0  0  0  0  0  0
   -0.5852   11.2060    0.7713 H   0  0  0  0  0  0  0  0  0  0  0  0
   -0.9546    9.4832    0.4218 H   0  0  0  0  0  0  0  0  0  0  0  0
    0.7484   10.0544    0.4218 H   0  0  0  0  0  0  0  0  0  0  0  0
   -0.5331   12.6987   -0.7210 H   0  0  0  0  0  0  0  0  0  0  0  0
    0.3879   12.3836   -2.2307 H   0  0  0  0  0  0  0  0  0  0  0  0
   -1.4044   12.2649   -2.2307 H   0  0  0  0  0  0  0  0  0  0  0  0
   -5.4213    8.8035   -1.8097 H   0  0  0  0  0  0  0  0  0  0  0  0
   -5.1211    7.9814   -4.0624 H   0  0  0  0  0  0  0  0  0  0  0  0
   -4.2773    6.5224   -3.4996 H   0  0  0  0  0  0  0  0  0  0  0  0
   -6.9817    6.6269   -4.4180 H   0  0  0  0  0  0  0  0  0  0  0  0
   -6.2951    5.2749   -3.5214 H   0  0  0  0  0  0  0  0  0  0  0  0
   -8.2264    8.6986   -1.7467 H   0  0  0  0  0  0  0  0  0  0  0  0
   -7.2449    8.7202   -3.2509 H   0  0  0  0  0  0  0  0  0  0  0  0
   -8.8717    7.9585   -3.2509 H   0  0  0  0  0  0  0  0  0  0  0  0
   -7.8221    4.8140   -1.6963 H   0  0  0  0  0  0  0  0  0  0  0  0
   -9.0710    5.5508   -3.8262 H   0  0  0  0  0  0  0  0  0  0  0  0
   -9.8560    4.4202   -2.6039 H   0  0  0  0  0  0  0  0  0  0  0  0
  -11.3982    6.3096   -3.6017 H   0  0  0  0  0  0  0  0  0  0  0  0
   -9.6372    8.0707   -0.4243 H   0  0  0  0  0  0  0  0  0  0  0  0
  -11.6295    6.0726    0.8157 H   0  0  0  0  0  0  0  0  0  0  0  0
  -10.5019    7.1872    1.7083 H   0  0  0  0  0  0  0  0  0  0  0  0
  -12.8288    8.0293    1.6869 H   0  0  0  0  0  0  0  0  0  0  0  0
  -11.6732    9.1245    0.8315 H   0  0  0  0  0  0  0  0  0  0  0  0
  -13.6866    8.9649   -0.4639 H   0  0  0  0  0  0  0  0  0  0  0  0
  -13.7740    6.4790   -1.3120 H   0  0  0  0  0  0  0  0  0  0  0  0
  -11.4180    9.9959   -0.9625 H   0  0  0  0  0  0  0  0  0  0  0  0
  -10.6606    9.4793   -2.5073 H   0  0  0  0  0  0  0  0  0  0  0  0
  -12.3174   10.1733   -2.5073 H   0  0  0  0  0  0  0  0  0  0  0  0
  -14.1744    7.6767   -2.5768 H   0  0  0  0  0  0  0  0  0  0  0  0
  -13.2101    8.8190   -3.5726 H   0  0  0  0  0  0  0  0  0  0  0  0
  -12.8089    7.0681   -3.5726 H   0  0  0  0  0  0  0  0  0  0  0  0
   -9.5541    4.7116    1.2838 H   0  0  0  0  0  0  0  0  0  0  0  0
  -10.5915    4.5405   -0.1726 H   0  0  0  0  0  0  0  0  0  0  0  0
   -8.9256    3.8687   -0.1726 H   0  0  0  0  0  0  0  0  0  0  0  0
   -8.4445    7.0794    1.4646 H   0  0  0  0  0  0  0  0  0  0  0  0
   -7.4083    5.6187    0.9888 H   0  0  0  0  0  0  0  0  0  0  0  0
   -7.2464    8.4382   -0.1112 H   0  0  0  0  0  0  0  0  0  0  0  0
   -6.0274    7.5392    0.8758 H   0  0  0  0  0  0  0  0  0  0  0  0
   -5.4831    5.4045    0.3076 H   0  0  0  0  0  0  0  0  0  0  0  0
   -6.1256    4.6753   -1.2031 H   0  0  0  0  0  0  0  0  0  0  0  0
   -4.5133    5.4673   -1.2031 H   0  0  0  0  0  0  0  0  0  0  0  0
  1  2  1  0
  2  3  1  0
  3  4  1  0
  4  5  1  0
  5  6  1  0
  6  7  1  0
  7  8  1  0
  7  9  1  0
  2 10  1  0
 10 11  1  0
 11 12  1  0
 12 13  1  0
 13 14  1  6
 13 15  1  0
 15 16  1  0
 16 17  1  0
 17 18  2  0
 18 19  1  0
 19 20  1  0
 20 21  1  0
 21 22  1  0
 22 23  1  0
 22 24  1  0
 24 25  1  0
 24 26  1  0
 19 27  1  0
 27 28  1  1
 27 29  1  0
 29 30  1  0
 30 31  1  0
 31 32  1  1
  7  5  1  0
 31 10  1  0
 31 13  1  0
 27 15  1  0
 24 18  1  0
  1 33  1  0
  1 34  1  0
  1 35  1  0
  2 36  1  1
  3 37  1  0
  3 38  1  0
  4 39  1  0
  4 40  1  0
  5 41  1  6
  8 42  1  0
  8 43  1  0
  8 44  1  0
  9 45  1  0
  9 46  1  0
  9 47  1  0
 10 48  1  6
 11 49  1  0
 11 50  1  0
 12 51  1  0
 12 52  1  0
 14 53  1  0
 14 54  1  0
 14 55  1  0
 15 56  1  1
 16 57  1  0
 16 58  1  0
 17 59  1  0
 19 60  1  1
 20 61  1  0
 20 62  1  0
 21 63  1  0
 21 64  1  0
 22 65  1  6
 23 66  1  0
 25 67  1  0
 25 68  1  0
 25 69  1  0
 26 70  1  0
 26 71  1  0
 26 72  1  0
 28 73  1  0
 28 74  1  0
 28 75  1  0
 29 76  1  0
 29 77  1  0
 30 78  1  0
 30 79  1  0
 32 80  1  0
 32 81  1  0
 32 82  1  0
M  END
>  <meeko>  (9) 
{"is_sidechain": [false], "intermolecular_energy": 2.731, "internal_energy": -0.839}

$$$$
EPH_relaxed_0001_pdb2pqr_Repair_77_r2_0001_out
     RDKit          3D

 82 86  0  0  0  0  0  0  0  0999 V2000
    4.3390   16.5650    0.5480 C   0  0  0  0  0  0  0  0  0  0  0  0
    3.1110   17.1060   -0.1880 C   0  0  2  0  0  0  0  0  0  0  0  0
    2.6400   18.4580    0.3830 C   0  0  0  0  0  0  0  0  0  0  0  0
    2.5060   19.5590   -0.6730 C   0  0  0  0  0  0  0  0  0  0  0  0
    1.6520   19.1230   -1.8240 C   0  0  2  0  0  0  0  0  0  0  0  0
    1.1460   20.1930   -2.6340 O   0  0  0  0  0  0  0  0  0  0  0  0
    0.1670   19.4180   -1.9230 C   0  0  0  0  0  0  0  0  0  0  0  0
   -0.5500   20.1790   -0.8520 C   0  0  0  0  0  0  0  0  0  0  0  0
   -0.6770   18.5550   -2.8080 C   0  0  0  0  0  0  0  0  0  0  0  0
    1.9770   16.0900   -0.1230 C   0  0  1  0  0  0  0  0  0  0  0  0
    0.5780   16.7580   -0.0610 C   0  0  0  0  0  0  0  0  0  0  0  0
   -0.3920   15.8430   -0.8520 C   0  0  0  0  0  0  0  0  0  0  0  0
    0.3950   14.5270   -1.0570 C   0  0  1  0  0  0  0  0  0  0  0  0
    0.2330   13.7500    0.2870 C   0  0  0  0  0  0  0  0  0  0  0  0
   -0.0270   13.6530   -2.2830 C   0  0  2  0  0  0  0  0  0  0  0  0
   -1.4700   13.1220   -2.2400 C   0  0  0  0  0  0  0  0  0  0  0  0
   -1.6400   11.7900   -1.5890 C   0  0  0  0  0  0  0  0  0  0  0  0
   -0.6490   10.9210   -1.3150 C   0  0  0  0  0  0  0  0  0  0  0  0
    0.7920   11.2050   -1.7560 C   0  0  1  0  0  0  0  0  0  0  0  0
    1.3940    9.9340   -2.4090 C   0  0  0  0  0  0  0  0  0  0  0  0
    1.2910    8.7080   -1.5070 C   0  0  0  0  0  0  0  0  0  0  0  0
   -0.1620    8.4230   -1.1380 C   0  0  2  0  0  0  0  0  0  0  0  0
   -0.8700    8.0310   -2.3180 O   0  0  0  0  0  0  0  0  0  0  0  0
   -0.8760    9.6360   -0.4800 C   0  0  0  0  0  0  0  0  0  0  0  0
   -0.3020    9.8720    0.9390 C   0  0  0  0  0  0  0  0  0  0  0  0
   -2.3710    9.2640   -0.2860 C   0  0  0  0  0  0  0  0  0  0  0  0
    1.0010   12.5060   -2.6450 C   0  0  1  0  0  0  0  0  0  0  0  0
    0.7740   12.1640   -4.1500 C   0  0  0  0  0  0  0  0  0  0  0  0
    2.4970   12.9800   -2.5190 C   0  0  0  0  0  0  0  0  0  0  0  0
    2.8260   13.9370   -1.3570 C   0  0  0  0  0  0  0  0  0  0  0  0
    1.8350   15.1040   -1.3100 C   0  0  2  0  0  0  0  0  0  0  0  0
    1.9910   15.9180   -2.6400 C   0  0  0  0  0  0  0  0  0  0  0  0
    4.1768   16.6365    1.6336 H   0  0  0  0  0  0  0  0  0  0  0  0
    4.4993   15.5129    0.2697 H   0  0  0  0  0  0  0  0  0  0  0  0
    5.2235   17.1568    0.2697 H   0  0  0  0  0  0  0  0  0  0  0  0
    3.4009   17.2736   -1.2358 H   0  0  0  0  0  0  0  0  0  0  0  0
    1.6589   18.3114    0.8583 H   0  0  0  0  0  0  0  0  0  0  0  0
    3.4073   18.7899    1.0979 H   0  0  0  0  0  0  0  0  0  0  0  0
    2.0510   20.4457   -0.2075 H   0  0  0  0  0  0  0  0  0  0  0  0
    3.5104   19.7875   -1.0590 H   0  0  0  0  0  0  0  0  0  0  0  0
    2.2279   18.1916   -1.9286 H   0  0  0  0  0  0  0  0  0  0  0  0
   -0.2168   19.8253    0.1348 H   0  0  0  0  0  0  0  0  0  0  0  0
   -0.3264   21.2514   -0.9519 H   0  0  0  0  0  0  0  0  0  0  0  0
   -1.6338   20.0196   -0.9519 H   0  0  0  0  0  0  0  0  0  0  0  0
   -1.3125   17.9052   -2.1884 H   0  0  0  0  0  0  0  0  0  0  0  0
   -1.3115   19.1908   -3.4430 H   0  0  0  0  0  0  0  0  0  0  0  0
   -0.0273   17.9348   -3.4430 H   0  0  0  0  0  0  0  0  0  0  0  0
    2.2717   15.5450    0.7859 H   0  0  0  0  0  0  0  0  0  0  0  0
    0.2469   16.8467    0.9842 H   0  0  0  0  0  0  0  0  0  0  0  0
    0.6048   17.7698   -0.4916 H   0  0  0  0  0  0  0  0  0  0  0  0
   -1.3109   15.6604   -0.2756 H   0  0  0  0  0  0  0  0  0  0  0  0
   -0.7078   16.2935   -1.8045 H   0  0  0  0  0  0  0  0  0  0  0  0
    0.3772   14.4417    1.1301 H   0  0  0  0  0  0  0  0  0  0  0  0
   -0.7754   13.3137    0.3390 H   0  0  0  0  0  0  0  0  0  0  0  0
    0.9830   12.9471    0.3390 H   0  0  0  0  0  0  0  0  0  0  0  0
   -0.0008   14.3779   -3.1100 H   0  0  0  0  0  0  0  0  0  0  0  0
   -2.0838   13.8501   -1.6895 H   0  0  0  0  0  0  0  0  0  0  0  0
   -1.7770   12.9899   -3.2880 H   0  0  0  0  0  0  0  0  0  0  0  0
   -2.6616   11.4931   -1.3093 H   0  0  0  0  0  0  0  0  0  0  0  0
    1.3477   11.4517   -0.8393 H   0  0  0  0  0  0  0  0  0  0  0  0
    0.8542    9.7292   -3.3453 H   0  0  0  0  0  0  0  0  0  0  0  0
    2.4618   10.1259   -2.5909 H   0  0  0  0  0  0  0  0  0  0  0  0
    1.7059    7.8367   -2.0350 H   0  0  0  0  0  0  0  0  0  0  0  0
    1.8560    8.9030   -0.5836 H   0  0  0  0  0  0  0  0  0  0  0  0
   -0.1595    7.6164   -0.3901 H   0  0  0  0  0  0  0  0  0  0  0  0
   -1.1400    8.8410   -2.7820 H   0  0  0  0  0  0  0  0  0  0  0  0
   -1.0449    9.5665    1.6905 H   0  0  0  0  0  0  0  0  0  0  0  0
    0.6148    9.2779    1.0672 H   0  0  0  0  0  0  0  0  0  0  0  0
   -0.0682   10.9392    1.0672 H   0  0  0  0  0  0  0  0  0  0  0  0
   -2.5983    9.2074    0.7888 H   0  0  0  0  0  0  0  0  0  0  0  0
   -3.0038   10.0321   -0.7547 H   0  0  0  0  0  0  0  0  0  0  0  0
   -2.5700    8.2889   -0.7547 H   0  0  0  0  0  0  0  0  0  0  0  0
    0.1673   11.2500   -4.2308 H   0  0  0  0  0  0  0  0  0  0  0  0
    0.2490   12.9971   -4.6402 H   0  0  0  0  0  0  0  0  0  0  0  0
    1.7456   12.0037   -4.6402 H   0  0  0  0  0  0  0  0  0  0  0  0
    3.1216   12.0826   -2.3983 H   0  0  0  0  0  0  0  0  0  0  0  0
    2.6941   13.5585   -3.4336 H   0  0  0  0  0  0  0  0  0  0  0  0
    2.7740   13.3824   -0.4085 H   0  0  0  0  0  0  0  0  0  0  0  0
    3.8371   14.3417   -1.5117 H   0  0  0  0  0  0  0  0  0  0  0  0
    2.1932   16.9729   -2.4027 H   0  0  0  0  0  0  0  0  0  0  0  0
    2.8268   15.5072   -3.2254 H   0  0  0  0  0  0  0  0  0  0  0  0
    1.0626   15.8453   -3.2254 H   0  0  0  0  0  0  0  0  0  0  0  0
  1  2  1  0
  2  3  1  0
  3  4  1  0
  4  5  1  0
  5  6  1  0
  6  7  1  0
  7  8  1  0
  7  9  1  0
  2 10  1  0
 10 11  1  0
 11 12  1  0
 12 13  1  0
 13 14  1  1
 13 15  1  0
 15 16  1  0
 16 17  1  0
 17 18  2  0
 18 19  1  0
 19 20  1  0
 20 21  1  0
 21 22  1  0
 22 23  1  0
 22 24  1  0
 24 25  1  0
 24 26  1  0
 19 27  1  0
 27 28  1  6
 27 29  1  0
 29 30  1  0
 30 31  1  0
 31 32  1  6
  7  5  1  0
 31 10  1  0
 31 13  1  0
 27 15  1  0
 24 18  1  0
  1 33  1  0
  1 34  1  0
  1 35  1  0
  2 36  1  6
  3 37  1  0
  3 38  1  0
  4 39  1  0
  4 40  1  0
  5 41  1  6
  8 42  1  0
  8 43  1  0
  8 44  1  0
  9 45  1  0
  9 46  1  0
  9 47  1  0
 10 48  1  1
 11 49  1  0
 11 50  1  0
 12 51  1  0
 12 52  1  0
 14 53  1  0
 14 54  1  0
 14 55  1  0
 15 56  1  6
 16 57  1  0
 16 58  1  0
 17 59  1  0
 19 60  1  1
 20 61  1  0
 20 62  1  0
 21 63  1  0
 21 64  1  0
 22 65  1  1
 23 66  1  0
 25 67  1  0
 25 68  1  0
 25 69  1  0
 26 70  1  0
 26 71  1  0
 26 72  1  0
 28 73  1  0
 28 74  1  0
 28 75  1  0
 29 76  1  0
 29 77  1  0
 30 78  1  0
 30 79  1  0
 32 80  1  0
 32 81  1  0
 32 82  1  0
M  END
>  <meeko>  (10) 
{"is_sidechain": [false], "intermolecular_energy": 2.731, "internal_energy": -0.839}

$$$$
EPH_relaxed_0001_pdb2pqr_Repair_77_r2_0001_out
     RDKit          3D

 82 86  0  0  0  0  0  0  0  0999 V2000
   -0.1070    9.2820   -2.1040 C   0  0  0  0  0  0  0  0  0  0  0  0
    0.9370   10.2700   -2.6310 C   0  0  2  0  0  0  0  0  0  0  0  0
    2.3300    9.6240   -2.7700 C   0  0  0  0  0  0  0  0  0  0  0  0
    3.2120   10.2870   -3.8320 C   0  0  0  0  0  0  0  0  0  0  0  0
    4.5860   10.5790   -3.3080 C   0  0  2  0  0  0  0  0  0  0  0  0
    5.1220   11.8470   -3.7070 O   0  0  0  0  0  0  0  0  0  0  0  0
    5.8140   10.6850   -4.1930 C   0  0  0  0  0  0  0  0  0  0  0  0
    5.7250   10.5000   -5.6750 C   0  0  0  0  0  0  0  0  0  0  0  0
    7.1610   10.4830   -3.5740 C   0  0  0  0  0  0  0  0  0  0  0  0
    1.0140   11.4840   -1.7130 C   0  0  1  0  0  0  0  0  0  0  0  0
    2.1120   11.3400   -0.6250 C   0  0  0  0  0  0  0  0  0  0  0  0
    2.6990   12.7560   -0.3920 C   0  0  0  0  0  0  0  0  0  0  0  0
    1.7070   13.7100   -1.0980 C   0  0  1  0  0  0  0  0  0  0  0  0
    0.5340   13.8920   -0.0840 C   0  0  0  0  0  0  0  0  0  0  0  0
    2.2850   15.0860   -1.5640 C   0  0  2  0  0  0  0  0  0  0  0  0
    2.8030   15.9930   -0.4350 C   0  0  0  0  0  0  0  0  0  0  0  0
    1.7950   16.9310    0.1430 C   0  0  0  0  0  0  0  0  0  0  0  0
    0.6090   17.2440   -0.4130 C   0  0  0  0  0  0  0  0  0  0  0  0
    0.2220   16.7080   -1.7970 C   0  0  1  0  0  0  0  0  0  0  0  0
   -0.3530   17.8630   -2.6570 C   0  0  0  0  0  0  0  0  0  0  0  0
   -1.5060   18.5870   -1.9690 C   0  0  0  0  0  0  0  0  0  0  0  0
   -1.0660   19.1560   -0.6220 C   0  0  2  0  0  0  0  0  0  0  0  0
   -0.1080   20.1940   -0.8510 O   0  0  0  0  0  0  0  0  0  0  0  0
   -0.4600   18.0850    0.3270 C   0  0  0  0  0  0  0  0  0  0  0  0
   -1.5770   17.1300    0.8150 C   0  0  0  0  0  0  0  0  0  0  0  0
    0.0710   18.8130    1.5910 C   0  0  0  0  0  0  0  0  0  0  0  0
    1.3450   15.8800   -2.5590 C   0  0  1  0  0  0  0  0  0  0  0  0
    2.2650   16.8480   -3.3640 C   0  0  0  0  0  0  0  0  0  0  0  0
    0.6600   14.9370   -3.6170 C   0  0  0  0  0  0  0  0  0  0  0  0
    0.2190   13.5460   -3.1240 C   0  0  0  0  0  0  0  0  0  0  0  0
    1.3510   12.8490   -2.3640 C   0  0  2  0  0  0  0  0  0  0  0  0
    2.5370   12.6320   -3.3640 C   0  0  0  0  0  0  0  0  0  0  0  0
   -0.0977    9.2908   -1.0041 H   0  0  0  0  0  0  0  0  0  0  0  0
   -1.1040    9.5750   -2.4646 H   0  0  0  0  0  0  0  0  0  0  0  0
    0.1307    8.2703   -2.4646 H   0  0  0  0  0  0  0  0  0  0  0  0
    0.6178   10.5841   -3.6357 H   0  0  0  0  0  0  0  0  0  0  0  0
    2.8434    9.6930   -1.7996 H   0  0  0  0  0  0  0  0  0  0  0  0
    2.1716    8.5828   -3.0875 H   0  0  0  0  0  0  0  0  0  0  0  0
    3.2962    9.6128   -4.6971 H   0  0  0  0  0  0  0  0  0  0  0  0
    2.7447   11.2405   -4.1194 H   0  0  0  0  0  0  0  0  0  0  0  0
    4.3842   10.0044   -2.3920 H   0  0  0  0  0  0  0  0  0  0  0  0
    5.2578    9.5289   -5.8959 H   0  0  0  0  0  0  0  0  0  0  0  0
    5.1165   11.3069   -6.1094 H   0  0  0  0  0  0  0  0  0  0  0  0
    6.7352   10.5282   -6.1094 H   0  0  0  0  0  0  0  0  0  0  0  0
    7.0668   10.4971   -2.4781 H   0  0  0  0  0  0  0  0  0  0  0  0
    7.5701    9.5135   -3.8944 H   0  0  0  0  0  0  0  0  0  0  0  0
    7.8365   11.2899   -3.8944 H   0  0  0  0  0  0  0  0  0  0  0  0
   -0.0183   11.4939   -1.3331 H   0  0  0  0  0  0  0  0  0  0  0  0
    1.6735   10.9536    0.3069 H   0  0  0  0  0  0  0  0  0  0  0  0
    2.8943   10.6356   -0.9441 H   0  0  0  0  0  0  0  0  0  0  0  0
    2.7557   12.9809    0.6833 H   0  0  0  0  0  0  0  0  0  0  0  0
    3.7222   12.8533   -0.7838 H   0  0  0  0  0  0  0  0  0  0  0  0
    0.9241   13.8315    0.9427 H   0  0  0  0  0  0  0  0  0  0  0  0
    0.0634   14.8739   -0.2401 H   0  0  0  0  0  0  0  0  0  0  0  0
   -0.2120   13.0989   -0.2401 H   0  0  0  0  0  0  0  0  0  0  0  0
    3.1750   14.7859   -2.1366 H   0  0  0  0  0  0  0  0  0  0  0  0
    3.1721   15.3485    0.3764 H   0  0  0  0  0  0  0  0  0  0  0  0
    3.5829   16.6244   -0.8856 H   0  0  0  0  0  0  0  0  0  0  0  0
    2.0420   17.4063    1.1038 H   0  0  0  0  0  0  0  0  0  0  0  0
   -0.5555   15.9495   -1.6229 H   0  0  0  0  0  0  0  0  0  0  0  0
    0.4500   18.5880   -2.8559 H   0  0  0  0  0  0  0  0  0  0  0  0
   -0.7422   17.4243   -3.5876 H   0  0  0  0  0  0  0  0  0  0  0  0
   -1.8497   19.4101   -2.6127 H   0  0  0  0  0  0  0  0  0  0  0  0
   -2.3203   17.8676   -1.7975 H   0  0  0  0  0  0  0  0  0  0  0  0
   -1.9632   19.5473   -0.1201 H   0  0  0  0  0  0  0  0  0  0  0  0
    0.5270   20.1760   -0.1150 H   0  0  0  0  0  0  0  0  0  0  0  0
   -1.5931   17.1163    1.9148 H   0  0  0  0  0  0  0  0  0  0  0  0
   -2.5494   17.4803    0.4384 H   0  0  0  0  0  0  0  0  0  0  0  0
   -1.3821   16.1150    0.4384 H   0  0  0  0  0  0  0  0  0  0  0  0
   -0.3012   18.3027    2.4916 H   0  0  0  0  0  0  0  0  0  0  0  0
    1.1709   18.7968    1.5886 H   0  0  0  0  0  0  0  0  0  0  0  0
   -0.2804   19.8554    1.5886 H   0  0  0  0  0  0  0  0  0  0  0  0
    2.8502   17.4637   -2.6651 H   0  0  0  0  0  0  0  0  0  0  0  0
    2.9479   16.2628   -3.9974 H   0  0  0  0  0  0  0  0  0  0  0  0
    1.6459   17.5003   -3.9974 H   0  0  0  0  0  0  0  0  0  0  0  0
   -0.2337   15.4549   -3.9953 H   0  0  0  0  0  0  0  0  0  0  0  0
    1.4344   14.7424   -4.3736 H   0  0  0  0  0  0  0  0  0  0  0  0
   -0.6469   13.6592   -2.4552 H   0  0  0  0  0  0  0  0  0  0  0  0
   -0.0465   12.9324   -3.9975 H   0  0  0  0  0  0  0  0  0  0  0  0
    3.4659   12.4620   -2.7998 H   0  0  0  0  0  0  0  0  0  0  0  0
    2.3273   11.7573   -3.9972 H   0  0  0  0  0  0  0  0  0  0  0  0
    2.6506   13.5243   -3.9972 H   0  0  0  0  0  0  0  0  0  0  0  0
  1  2  1  0
  2  3  1  0
  3  4  1  0
  4  5  1  0
  5  6  1  0
  6  7  1  0
  7  8  1  0
  7  9  1  0
  2 10  1  0
 10 11  1  0
 11 12  1  0
 12 13  1  0
 13 14  1  1
 13 15  1  0
 15 16  1  0
 16 17  1  0
 17 18  2  0
 18 19  1  0
 19 20  1  0
 20 21  1  0
 21 22  1  0
 22 23  1  0
 22 24  1  0
 24 25  1  0
 24 26  1  0
 19 27  1  0
 27 28  1  6
 27 29  1  0
 29 30  1  0
 30 31  1  0
 31 32  1  6
  7  5  1  0
 31 10  1  0
 31 13  1  0
 27 15  1  0
 24 18  1  0
  1 33  1  0
  1 34  1  0
  1 35  1  0
  2 36  1  6
  3 37  1  0
  3 38  1  0
  4 39  1  0
  4 40  1  0
  5 41  1  1
  8 42  1  0
  8 43  1  0
  8 44  1  0
  9 45  1  0
  9 46  1  0
  9 47  1  0
 10 48  1  1
 11 49  1  0
 11 50  1  0
 12 51  1  0
 12 52  1  0
 14 53  1  0
 14 54  1  0
 14 55  1  0
 15 56  1  6
 16 57  1  0
 16 58  1  0
 17 59  1  0
 19 60  1  1
 20 61  1  0
 20 62  1  0
 21 63  1  0
 21 64  1  0
 22 65  1  1
 23 66  1  0
 25 67  1  0
 25 68  1  0
 25 69  1  0
 26 70  1  0
 26 71  1  0
 26 72  1  0
 28 73  1  0
 28 74  1  0
 28 75  1  0
 29 76  1  0
 29 77  1  0
 30 78  1  0
 30 79  1  0
 32 80  1  0
 32 81  1  0
 32 82  1  0
M  END
>  <meeko>  (11) 
{"is_sidechain": [false], "intermolecular_energy": 2.731, "internal_energy": -0.839}

$$$$
EPH_relaxed_0001_pdb2pqr_Repair_77_r2_0001_out
     RDKit          3D

 82 86  0  0  0  0  0  0  0  0999 V2000
   -0.9360   16.3930   -5.8900 C   0  0  0  0  0  0  0  0  0  0  0  0
    0.1680   15.6990   -6.6930 C   0  0  2  0  0  0  0  0  0  0  0  0
   -0.2280   15.4990   -8.1700 C   0  0  0  0  0  0  0  0  0  0  0  0
    0.4190   16.5080   -9.1230 C   0  0  0  0  0  0  0  0  0  0  0  0
    1.8290   16.1260   -9.4600 C   0  0  2  0  0  0  0  0  0  0  0  0
    2.3230   16.6820  -10.6860 O   0  0  0  0  0  0  0  0  0  0  0  0
    2.1980   15.2520  -10.6440 C   0  0  0  0  0  0  0  0  0  0  0  0
    1.1540   14.7040  -11.5650 C   0  0  0  0  0  0  0  0  0  0  0  0
    3.5110   14.5330  -10.6200 C   0  0  0  0  0  0  0  0  0  0  0  0
    0.5060   14.3560   -6.0580 C   0  0  1  0  0  0  0  0  0  0  0  0
    1.7370   13.6770   -6.7160 C   0  0  0  0  0  0  0  0  0  0  0  0
    2.4910   12.9280   -5.5870 C   0  0  0  0  0  0  0  0  0  0  0  0
    1.5050   12.9210   -4.3960 C   0  0  1  0  0  0  0  0  0  0  0  0
    0.5250   11.7440   -4.6940 C   0  0  0  0  0  0  0  0  0  0  0  0
    2.1400   12.7980   -2.9730 C   0  0  2  0  0  0  0  0  0  0  0  0
    2.9130   11.4920   -2.7150 C   0  0  0  0  0  0  0  0  0  0  0  0
    2.1040   10.3750   -2.1440 C   0  0  0  0  0  0  0  0  0  0  0  0
    0.8850   10.4980   -1.5850 C   0  0  0  0  0  0  0  0  0  0  0  0
    0.2400   11.8770   -1.3980 C   0  0  1  0  0  0  0  0  0  0  0  0
   -0.3410   11.9870    0.0360 C   0  0  0  0  0  0  0  0  0  0  0  0
   -1.2970   10.8450    0.3690 C   0  0  0  0  0  0  0  0  0  0  0  0
   -0.6020    9.4930    0.2280 C   0  0  2  0  0  0  0  0  0  0  0  0
    0.4100    9.3880    1.2350 O   0  0  0  0  0  0  0  0  0  0  0  0
    0.0310    9.2730   -1.1740 C   0  0  0  0  0  0  0  0  0  0  0  0
   -1.0890    9.0860   -2.2280 C   0  0  0  0  0  0  0  0  0  0  0  0
    0.8200    7.9360   -1.1380 C   0  0  0  0  0  0  0  0  0  0  0  0
    1.1440   13.1240   -1.7880 C   0  0  1  0  0  0  0  0  0  0  0  0
    2.0230   13.5450   -0.5700 C   0  0  0  0  0  0  0  0  0  0  0  0
    0.2140   14.3530   -2.1090 C   0  0  0  0  0  0  0  0  0  0  0  0
   -0.2840   14.4870   -3.5610 C   0  0  0  0  0  0  0  0  0  0  0  0
    0.8750   14.3530   -4.5530 C   0  0  2  0  0  0  0  0  0  0  0  0
    1.8660   15.5380   -4.2920 C   0  0  0  0  0  0  0  0  0  0  0  0
   -0.7399   16.2698   -4.8147 H   0  0  0  0  0  0  0  0  0  0  0  0
   -0.9525   17.4643   -6.1393 H   0  0  0  0  0  0  0  0  0  0  0  0
   -1.9085   15.9435   -6.1393 H   0  0  0  0  0  0  0  0  0  0  0  0
    1.0528   16.3523   -6.6736 H   0  0  0  0  0  0  0  0  0  0  0  0
    0.0757   14.4873   -8.4770 H   0  0  0  0  0  0  0  0  0  0  0  0
   -1.3159   15.6483   -8.2341 H   0  0  0  0  0  0  0  0  0  0  0  0
   -0.1703   16.5508  -10.0508 H   0  0  0  0  0  0  0  0  0  0  0  0
    0.4389   17.4879   -8.6235 H   0  0  0  0  0  0  0  0  0  0  0  0
    2.0956   16.0758   -8.3940 H   0  0  0  0  0  0  0  0  0  0  0  0
    0.3329   14.2730  -10.9734 H   0  0  0  0  0  0  0  0  0  0  0  0
    0.7633   15.5133  -12.1994 H   0  0  0  0  0  0  0  0  0  0  0  0
    1.5982   13.9228  -12.1994 H   0  0  0  0  0  0  0  0  0  0  0  0
    3.8180   14.3649   -9.5772 H   0  0  0  0  0  0  0  0  0  0  0  0
    3.4085   13.5652  -11.1326 H   0  0  0  0  0  0  0  0  0  0  0  0
    4.2712   15.1407  -11.1326 H   0  0  0  0  0  0  0  0  0  0  0  0
   -0.4498   13.8338   -6.2121 H   0  0  0  0  0  0  0  0  0  0  0  0
    1.4095   12.9663   -7.4891 H   0  0  0  0  0  0  0  0  0  0  0  0
    2.3873   14.4211   -7.1993 H   0  0  0  0  0  0  0  0  0  0  0  0
    2.7326   11.9006   -5.8969 H   0  0  0  0  0  0  0  0  0  0  0  0
    3.4470   13.4095   -5.3337 H   0  0  0  0  0  0  0  0  0  0  0  0
    0.1680   11.3152   -3.7460 H   0  0  0  0  0  0  0  0  0  0  0  0
   -0.3321   12.1182   -5.2730 H   0  0  0  0  0  0  0  0  0  0  0  0
    1.0483   10.9688   -5.2730 H   0  0  0  0  0  0  0  0  0  0  0  0
    2.8963   13.5967   -2.9819 H   0  0  0  0  0  0  0  0  0  0  0  0
    3.3346   11.1517   -3.6723 H   0  0  0  0  0  0  0  0  0  0  0  0
    3.6750   11.7334   -1.9593 H   0  0  0  0  0  0  0  0  0  0  0  0
    2.5405    9.3661   -2.1831 H   0  0  0  0  0  0  0  0  0  0  0  0
   -0.5741   11.9343   -2.1355 H   0  0  0  0  0  0  0  0  0  0  0  0
    0.4908   11.9718    0.7556 H   0  0  0  0  0  0  0  0  0  0  0  0
   -0.9099   12.9267    0.0947 H   0  0  0  0  0  0  0  0  0  0  0  0
   -1.6507   10.9618    1.4040 H   0  0  0  0  0  0  0  0  0  0  0  0
   -2.1433   10.8796   -0.3328 H   0  0  0  0  0  0  0  0  0  0  0  0
   -1.3681    8.7134    0.3517 H   0  0  0  0  0  0  0  0  0  0  0  0
    0.4760   10.2510    1.6770 H   0  0  0  0  0  0  0  0  0  0  0  0
   -2.0500    8.9256   -1.7173 H   0  0  0  0  0  0  0  0  0  0  0  0
   -1.1540    9.9857   -2.8575 H   0  0  0  0  0  0  0  0  0  0  0  0
   -0.8582    8.2140   -2.8575 H   0  0  0  0  0  0  0  0  0  0  0  0
    0.9941    7.6410   -0.0927 H   0  0  0  0  0  0  0  0  0  0  0  0
    0.2389    7.1535   -1.6479 H   0  0  0  0  0  0  0  0  0  0  0  0
    1.7859    8.0664   -1.6479 H   0  0  0  0  0  0  0  0  0  0  0  0
    1.4993   13.2942    0.3642 H   0  0  0  0  0  0  0  0  0  0  0  0
    2.9827   13.0088   -0.6077 H   0  0  0  0  0  0  0  0  0  0  0  0
    2.2068   14.6289   -0.6077 H   0  0  0  0  0  0  0  0  0  0  0  0
   -0.6706   14.2796   -1.4593 H   0  0  0  0  0  0  0  0  0  0  0  0
    0.8404   15.2407   -1.9365 H   0  0  0  0  0  0  0  0  0  0  0  0
   -1.0229   13.6974   -3.7622 H   0  0  0  0  0  0  0  0  0  0  0  0
   -0.7387   15.4809   -3.6853 H   0  0  0  0  0  0  0  0  0  0  0  0
    1.9871   15.6828   -3.2083 H   0  0  0  0  0  0  0  0  0  0  0  0
    2.8423   15.3054   -4.7422 H   0  0  0  0  0  0  0  0  0  0  0  0
    1.4644   16.4578   -4.7422 H   0  0  0  0  0  0  0  0  0  0  0  0
  1  2  1  0
  2  3  1  0
  3  4  1  0
  4  5  1  0
  5  6  1  0
  6  7  1  0
  7  8  1  0
  7  9  1  0
  2 10  1  0
 10 11  1  0
 11 12  1  0
 12 13  1  0
 13 14  1  6
 13 15  1  0
 15 16  1  0
 16 17  1  0
 17 18  2  0
 18 19  1  0
 19 20  1  0
 20 21  1  0
 21 22  1  0
 22 23  1  0
 22 24  1  0
 24 25  1  0
 24 26  1  0
 19 27  1  0
 27 28  1  1
 27 29  1  0
 29 30  1  0
 30 31  1  0
 31 32  1  6
  7  5  1  0
 31 10  1  0
 31 13  1  0
 27 15  1  0
 24 18  1  0
  1 33  1  0
  1 34  1  0
  1 35  1  0
  2 36  1  6
  3 37  1  0
  3 38  1  0
  4 39  1  0
  4 40  1  0
  5 41  1  1
  8 42  1  0
  8 43  1  0
  8 44  1  0
  9 45  1  0
  9 46  1  0
  9 47  1  0
 10 48  1  1
 11 49  1  0
 11 50  1  0
 12 51  1  0
 12 52  1  0
 14 53  1  0
 14 54  1  0
 14 55  1  0
 15 56  1  6
 16 57  1  0
 16 58  1  0
 17 59  1  0
 19 60  1  6
 20 61  1  0
 20 62  1  0
 21 63  1  0
 21 64  1  0
 22 65  1  1
 23 66  1  0
 25 67  1  0
 25 68  1  0
 25 69  1  0
 26 70  1  0
 26 71  1  0
 26 72  1  0
 28 73  1  0
 28 74  1  0
 28 75  1  0
 29 76  1  0
 29 77  1  0
 30 78  1  0
 30 79  1  0
 32 80  1  0
 32 81  1  0
 32 82  1  0
M  END
>  <meeko>  (12) 
{"is_sidechain": [false], "intermolecular_energy": 2.731, "internal_energy": -0.839}

$$$$
EPH_relaxed_0001_pdb2pqr_Repair_77_r2_0001_out
     RDKit          3D

 82 86  0  0  0  0  0  0  0  0999 V2000
   -4.3550    7.4300   -3.6280 C   0  0  0  0  0  0  0  0  0  0  0  0
   -3.7730    7.2480   -2.2240 C   0  0  2  0  0  0  0  0  0  0  0  0
   -4.8030    6.6580   -1.2400 C   0  0  0  0  0  0  0  0  0  0  0  0
   -6.1640    6.3630   -1.8770 C   0  0  0  0  0  0  0  0  0  0  0  0
   -7.2540    6.2950   -0.8500 C   0  0  2  0  0  0  0  0  0  0  0  0
   -8.3490    5.4370   -1.1950 O   0  0  0  0  0  0  0  0  0  0  0  0
   -8.6530    6.8360   -1.0790 C   0  0  0  0  0  0  0  0  0  0  0  0
   -9.0380    7.4850   -2.3710 C   0  0  0  0  0  0  0  0  0  0  0  0
   -9.4930    7.1730    0.1140 C   0  0  0  0  0  0  0  0  0  0  0  0
   -3.2550    8.5810   -1.6980 C   0  0  1  0  0  0  0  0  0  0  0  0
   -3.9270    8.9980   -0.3620 C   0  0  0  0  0  0  0  0  0  0  0  0
   -2.8460    9.7330    0.4710 C   0  0  0  0  0  0  0  0  0  0  0  0
   -1.7000   10.0070   -0.5310 C   0  0  1  0  0  0  0  0  0  0  0  0
   -2.1460   11.2840   -1.3110 C   0  0  0  0  0  0  0  0  0  0  0  0
   -0.2710   10.1760    0.0820 C   0  0  2  0  0  0  0  0  0  0  0  0
   -0.1080   11.3690    1.0390 C   0  0  0  0  0  0  0  0  0  0  0  0
    0.3220   12.6470    0.3980 C   0  0  0  0  0  0  0  0  0  0  0  0
    0.8420   12.7650   -0.8380 C   0  0  0  0  0  0  0  0  0  0  0  0
    1.1340   11.5250   -1.6920 C   0  0  1  0  0  0  0  0  0  0  0  0
    2.5480   11.6470   -2.3170 C   0  0  0  0  0  0  0  0  0  0  0  0
    2.7340   12.9470   -3.0940 C   0  0  0  0  0  0  0  0  0  0  0  0
    2.4920   14.1580   -2.1970 C   0  0  2  0  0  0  0  0  0  0  0  0
    3.5230   14.2100   -1.2050 O   0  0  0  0  0  0  0  0  0  0  0  0
    1.1010   14.1390   -1.5040 C   0  0  0  0  0  0  0  0  0  0  0  0
   -0.0080   14.3860   -2.5560 C   0  0  0  0  0  0  0  0  0  0  0  0
    1.0410   15.3390   -0.5200 C   0  0  0  0  0  0  0  0  0  0  0  0
    0.9000   10.1230   -0.9810 C   0  0  1  0  0  0  0  0  0  0  0  0
    2.1850    9.6980   -0.2060 C   0  0  0  0  0  0  0  0  0  0  0  0
    0.6610    9.0220   -2.0810 C   0  0  0  0  0  0  0  0  0  0  0  0
   -0.7900    8.8210   -2.5590 C   0  0  0  0  0  0  0  0  0  0  0  0
   -1.7440    8.6780   -1.3700 C   0  0  2  0  0  0  0  0  0  0  0  0
   -1.3340    7.3900   -0.5780 C   0  0  0  0  0  0  0  0  0  0  0  0
   -5.4023    7.7575   -3.5512 H   0  0  0  0  0  0  0  0  0  0  0  0
   -3.7724    8.1889   -4.1709 H   0  0  0  0  0  0  0  0  0  0  0  0
   -4.3085    6.4744   -4.1709 H   0  0  0  0  0  0  0  0  0  0  0  0
   -2.9422    6.5313   -2.3016 H   0  0  0  0  0  0  0  0  0  0  0  0
   -4.3981    5.7187   -0.8352 H   0  0  0  0  0  0  0  0  0  0  0  0
   -4.9708    7.4139   -0.4587 H   0  0  0  0  0  0  0  0  0  0  0  0
   -6.4013    7.1606   -2.5964 H   0  0  0  0  0  0  0  0  0  0  0  0
   -6.1034    5.3855   -2.3779 H   0  0  0  0  0  0  0  0  0  0  0  0
   -6.5291    6.4437   -0.0361 H   0  0  0  0  0  0  0  0  0  0  0  0
   -9.5893    8.4143   -2.1646 H   0  0  0  0  0  0  0  0  0  0  0  0
   -8.1314    7.7172   -2.9491 H   0  0  0  0  0  0  0  0  0  0  0  0
   -9.6764    6.8007   -2.9491 H   0  0  0  0  0  0  0  0  0  0  0  0
   -8.9319    6.9479    1.0329 H   0  0  0  0  0  0  0  0  0  0  0  0
   -9.7477    8.2429    0.0927 H   0  0  0  0  0  0  0  0  0  0  0  0
  -10.4165    6.5758    0.0927 H   0  0  0  0  0  0  0  0  0  0  0  0
   -3.4945    9.2239   -2.5578 H   0  0  0  0  0  0  0  0  0  0  0  0
   -4.7758    9.6696   -0.5582 H   0  0  0  0  0  0  0  0  0  0  0  0
   -4.3127    8.1203    0.1773 H   0  0  0  0  0  0  0  0  0  0  0  0
   -3.2421   10.6762    0.8752 H   0  0  0  0  0  0  0  0  0  0  0  0
   -2.5114    9.1406    1.3353 H   0  0  0  0  0  0  0  0  0  0  0  0
   -2.4216   12.0730   -0.5957 H   0  0  0  0  0  0  0  0  0  0  0  0
   -1.3174   11.6355   -1.9434 H   0  0  0  0  0  0  0  0  0  0  0  0
   -3.0132   11.0432   -1.9434 H   0  0  0  0  0  0  0  0  0  0  0  0
   -0.1751    9.2767    0.7081 H   0  0  0  0  0  0  0  0  0  0  0  0
   -1.0759   11.5445    1.5312 H   0  0  0  0  0  0  0  0  0  0  0  0
    0.6970   11.0923    1.7357 H   0  0  0  0  0  0  0  0  0  0  0  0
    0.2040   13.5697    0.9851 H   0  0  0  0  0  0  0  0  0  0  0  0
    0.3743   11.5183   -2.4875 H   0  0  0  0  0  0  0  0  0  0  0  0
    3.2947   11.6085   -1.5102 H   0  0  0  0  0  0  0  0  0  0  0  0
    2.6733   10.8142   -3.0246 H   0  0  0  0  0  0  0  0  0  0  0  0
    3.7611   12.9886   -3.4856 H   0  0  0  0  0  0  0  0  0  0  0  0
    2.0067   12.9701   -3.9189 H   0  0  0  0  0  0  0  0  0  0  0  0
    2.5110   15.0521   -2.8375 H   0  0  0  0  0  0  0  0  0  0  0  0
    3.2810   14.9010   -0.5650 H   0  0  0  0  0  0  0  0  0  0  0  0
   -0.9584   14.5977   -2.0441 H   0  0  0  0  0  0  0  0  0  0  0  0
    0.2685   15.2446   -3.1856 H   0  0  0  0  0  0  0  0  0  0  0  0
   -0.1220   13.4912   -3.1856 H   0  0  0  0  0  0  0  0  0  0  0  0
    1.0596   14.9660    0.5147 H   0  0  0  0  0  0  0  0  0  0  0  0
    1.9075   15.9953   -0.6889 H   0  0  0  0  0  0  0  0  0  0  0  0
    0.1134   15.9056   -0.6889 H   0  0  0  0  0  0  0  0  0  0  0  0
    1.9978    9.7599    0.8762 H   0  0  0  0  0  0  0  0  0  0  0  0
    2.4497    8.6645   -0.4738 H   0  0  0  0  0  0  0  0  0  0  0  0
    3.0138   10.3699   -0.4738 H   0  0  0  0  0  0  0  0  0  0  0  0
    1.2662    9.2919   -2.9590 H   0  0  0  0  0  0  0  0  0  0  0  0
    0.9407    8.0718   -1.6027 H   0  0  0  0  0  0  0  0  0  0  0  0
   -1.0939    9.6896   -3.1617 H   0  0  0  0  0  0  0  0  0  0  0  0
   -0.8372    7.9003   -3.1591 H   0  0  0  0  0  0  0  0  0  0  0  0
   -1.3971    7.5881    0.5022 H   0  0  0  0  0  0  0  0  0  0  0  0
   -2.0144    6.5663   -0.8400 H   0  0  0  0  0  0  0  0  0  0  0  0
   -0.3027    7.1112   -0.8400 H   0  0  0  0  0  0  0  0  0  0  0  0
  1  2  1  0
  2  3  1  0
  3  4  1  0
  4  5  1  0
  5  6  1  0
  6  7  1  0
  7  8  1  0
  7  9  1  0
  2 10  1  0
 10 11  1  0
 11 12  1  0
 12 13  1  0
 13 14  1  6
 13 15  1  0
 15 16  1  0
 16 17  1  0
 17 18  2  0
 18 19  1  0
 19 20  1  0
 20 21  1  0
 21 22  1  0
 22 23  1  0
 22 24  1  0
 24 25  1  0
 24 26  1  0
 19 27  1  0
 27 28  1  1
 27 29  1  0
 29 30  1  0
 30 31  1  0
 31 32  1  1
  7  5  1  0
 31 10  1  0
 31 13  1  0
 27 15  1  0
 24 18  1  0
  1 33  1  0
  1 34  1  0
  1 35  1  0
  2 36  1  6
  3 37  1  0
  3 38  1  0
  4 39  1  0
  4 40  1  0
  5 41  1  1
  8 42  1  0
  8 43  1  0
  8 44  1  0
  9 45  1  0
  9 46  1  0
  9 47  1  0
 10 48  1  6
 11 49  1  0
 11 50  1  0
 12 51  1  0
 12 52  1  0
 14 53  1  0
 14 54  1  0
 14 55  1  0
 15 56  1  1
 16 57  1  0
 16 58  1  0
 17 59  1  0
 19 60  1  6
 20 61  1  0
 20 62  1  0
 21 63  1  0
 21 64  1  0
 22 65  1  6
 23 66  1  0
 25 67  1  0
 25 68  1  0
 25 69  1  0
 26 70  1  0
 26 71  1  0
 26 72  1  0
 28 73  1  0
 28 74  1  0
 28 75  1  0
 29 76  1  0
 29 77  1  0
 30 78  1  0
 30 79  1  0
 32 80  1  0
 32 81  1  0
 32 82  1  0
M  END
>  <meeko>  (13) 
{"is_sidechain": [false], "intermolecular_energy": 2.731, "internal_energy": -0.839}

$$$$
EPH_relaxed_0001_pdb2pqr_Repair_77_r2_0001_out
     RDKit          3D

 82 86  0  0  0  0  0  0  0  0999 V2000
    3.3080   18.3990   -2.4110 C   0  0  0  0  0  0  0  0  0  0  0  0
    2.0570   17.5430   -2.6320 C   0  0  2  0  0  0  0  0  0  0  0  0
    0.7790   18.2420   -2.1280 C   0  0  0  0  0  0  0  0  0  0  0  0
    1.0390   19.3000   -1.0530 C   0  0  0  0  0  0  0  0  0  0  0  0
   -0.2110   20.0480   -0.6970 C   0  0  2  0  0  0  0  0  0  0  0  0
   -0.4600   20.1620    0.7100 O   0  0  0  0  0  0  0  0  0  0  0  0
   -1.4170   19.3990   -0.0440 C   0  0  0  0  0  0  0  0  0  0  0  0
   -1.4320   17.9400    0.2910 C   0  0  0  0  0  0  0  0  0  0  0  0
   -2.7490   20.0670   -0.1780 C   0  0  0  0  0  0  0  0  0  0  0  0
    2.2210   16.1950   -1.9410 C   0  0  1  0  0  0  0  0  0  0  0  0
    2.7860   16.3260   -0.5010 C   0  0  0  0  0  0  0  0  0  0  0  0
    2.1180   15.2120    0.3440 C   0  0  0  0  0  0  0  0  0  0  0  0
    1.4540   14.2780   -0.6950 C   0  0  1  0  0  0  0  0  0  0  0  0
    2.6110   13.3670   -1.2120 C   0  0  0  0  0  0  0  0  0  0  0  0
    0.2380   13.4360   -0.1900 C   0  0  2  0  0  0  0  0  0  0  0  0
    0.5590   12.4350    0.9340 C   0  0  0  0  0  0  0  0  0  0  0  0
    0.9550   11.0700    0.4770 C   0  0  0  0  0  0  0  0  0  0  0  0
    0.7770   10.5770   -0.7630 C   0  0  0  0  0  0  0  0  0  0  0  0
    0.0310   11.3870   -1.8320 C   0  0  1  0  0  0  0  0  0  0  0  0
   -0.9970   10.4740   -2.5490 C   0  0  0  0  0  0  0  0  0  0  0  0
   -0.3620    9.2070   -3.1140 C   0  0  0  0  0  0  0  0  0  0  0  0
    0.3190    8.4000   -2.0110 C   0  0  2  0  0  0  0  0  0  0  0  0
   -0.6830    7.9030   -1.1190 O   0  0  0  0  0  0  0  0  0  0  0  0
    1.3710    9.2200   -1.2130 C   0  0  0  0  0  0  0  0  0  0  0  0
    2.6020    9.5010   -2.1090 C   0  0  0  0  0  0  0  0  0  0  0  0
    1.8780    8.3340   -0.0430 C   0  0  0  0  0  0  0  0  0  0  0  0
   -0.6060   12.7590   -1.3440 C   0  0  1  0  0  0  0  0  0  0  0  0
   -2.0320   12.5070   -0.7650 C   0  0  0  0  0  0  0  0  0  0  0  0
   -0.7920   13.7090   -2.5860 C   0  0  0  0  0  0  0  0  0  0  0  0
    0.4050   14.6030   -2.9620 C   0  0  0  0  0  0  0  0  0  0  0  0
    0.9440   15.3420   -1.7340 C   0  0  2  0  0  0  0  0  0  0  0  0
   -0.1900   16.2840   -1.2050 C   0  0  0  0  0  0  0  0  0  0  0  0
    3.4840   18.5194   -1.3319 H   0  0  0  0  0  0  0  0  0  0  0  0
    4.1764   17.9049   -2.8712 H   0  0  0  0  0  0  0  0  0  0  0  0
    3.1620   19.3874   -2.8712 H   0  0  0  0  0  0  0  0  0  0  0  0
    1.9454   17.3935   -3.7161 H   0  0  0  0  0  0  0  0  0  0  0  0
    0.2895   18.7297   -2.9839 H   0  0  0  0  0  0  0  0  0  0  0  0
    0.1481   17.4663   -1.6694 H   0  0  0  0  0  0  0  0  0  0  0  0
    1.4267   18.8039   -0.1510 H   0  0  0  0  0  0  0  0  0  0  0  0
    1.7684   20.0209   -1.4508 H   0  0  0  0  0  0  0  0  0  0  0  0
   -0.1089   20.6886   -1.5854 H   0  0  0  0  0  0  0  0  0  0  0  0
   -1.4333   17.8147    1.3838 H   0  0  0  0  0  0  0  0  0  0  0  0
   -2.3350   17.4759   -0.1323 H   0  0  0  0  0  0  0  0  0  0  0  0
   -0.5388   17.4574   -0.1323 H   0  0  0  0  0  0  0  0  0  0  0  0
   -3.1585   20.2723    0.8221 H   0  0  0  0  0  0  0  0  0  0  0  0
   -2.6313   21.0127   -0.7273 H   0  0  0  0  0  0  0  0  0  0  0  0
   -3.4366   19.4070   -0.7273 H   0  0  0  0  0  0  0  0  0  0  0  0
    2.8918   15.7004   -2.6589 H   0  0  0  0  0  0  0  0  0  0  0  0
    3.8778   16.1924   -0.5088 H   0  0  0  0  0  0  0  0  0  0  0  0
    2.5735   17.3207   -0.0822 H   0  0  0  0  0  0  0  0  0  0  0  0
    2.8710   14.6661    0.9314 H   0  0  0  0  0  0  0  0  0  0  0  0
    1.3925   15.6149    1.0660 H   0  0  0  0  0  0  0  0  0  0  0  0
    3.1527   12.9405   -0.3549 H   0  0  0  0  0  0  0  0  0  0  0  0
    2.1922   12.5536   -1.8227 H   0  0  0  0  0  0  0  0  0  0  0  0
    3.3035   13.9649   -1.8227 H   0  0  0  0  0  0  0  0  0  0  0  0
   -0.4052   14.2021    0.2675 H   0  0  0  0  0  0  0  0  0  0  0  0
    1.3862   12.8472    1.5305 H   0  0  0  0  0  0  0  0  0  0  0  0
   -0.3733   12.3072    1.5037 H   0  0  0  0  0  0  0  0  0  0  0  0
    1.4330   10.4108    1.2166 H   0  0  0  0  0  0  0  0  0  0  0  0
    0.7955   11.7223   -2.5483 H   0  0  0  0  0  0  0  0  0  0  0  0
   -1.7760   10.1862   -1.8277 H   0  0  0  0  0  0  0  0  0  0  0  0
   -1.4156   11.0419   -3.3929 H   0  0  0  0  0  0  0  0  0  0  0  0
   -1.1436    8.5900   -3.5813 H   0  0  0  0  0  0  0  0  0  0  0  0
    0.3958    9.4952   -3.8574 H   0  0  0  0  0  0  0  0  0  0  0  0
    0.8651    7.5758   -2.4932 H   0  0  0  0  0  0  0  0  0  0  0  0
   -1.0280    7.0760   -1.4950 H   0  0  0  0  0  0  0  0  0  0  0  0
    3.4787    9.7011   -1.4754 H   0  0  0  0  0  0  0  0  0  0  0  0
    2.8008    8.6251   -2.7441 H   0  0  0  0  0  0  0  0  0  0  0  0
    2.4011   10.3764   -2.7441 H   0  0  0  0  0  0  0  0  0  0  0  0
    1.6096    8.8030    0.9151 H   0  0  0  0  0  0  0  0  0  0  0  0
    1.4123    7.3396   -0.1076 H   0  0  0  0  0  0  0  0  0  0  0  0
    2.9713    8.2317   -0.1076 H   0  0  0  0  0  0  0  0  0  0  0  0
   -1.9881   12.5148    0.3341 H   0  0  0  0  0  0  0  0  0  0  0  0
   -2.7131   13.2987   -1.1104 H   0  0  0  0  0  0  0  0  0  0  0  0
   -2.4005   11.5298   -1.1104 H   0  0  0  0  0  0  0  0  0  0  0  0
   -1.0220   13.0773   -3.4567 H   0  0  0  0  0  0  0  0  0  0  0  0
   -1.5926   14.4061   -2.2979 H   0  0  0  0  0  0  0  0  0  0  0  0
    1.2041   13.9758   -3.3840 H   0  0  0  0  0  0  0  0  0  0  0  0
    0.0693   15.3468   -3.6997 H   0  0  0  0  0  0  0  0  0  0  0  0
   -0.1860   16.2807   -0.1050 H   0  0  0  0  0  0  0  0  0  0  0  0
   -0.0163   17.3073   -1.5692 H   0  0  0  0  0  0  0  0  0  0  0  0
   -1.1641   15.9256   -1.5692 H   0  0  0  0  0  0  0  0  0  0  0  0
  1  2  1  0
  2  3  1  0
  3  4  1  0
  4  5  1  0
  5  6  1  0
  6  7  1  0
  7  8  1  0
  7  9  1  0
  2 10  1  0
 10 11  1  0
 11 12  1  0
 12 13  1  0
 13 14  1  6
 13 15  1  0
 15 16  1  0
 16 17  1  0
 17 18  2  0
 18 19  1  0
 19 20  1  0
 20 21  1  0
 21 22  1  0
 22 23  1  0
 22 24  1  0
 24 25  1  0
 24 26  1  0
 19 27  1  0
 27 28  1  1
 27 29  1  0
 29 30  1  0
 30 31  1  0
 31 32  1  1
  7  5  1  0
 31 10  1  0
 31 13  1  0
 27 15  1  0
 24 18  1  0
  1 33  1  0
  1 34  1  0
  1 35  1  0
  2 36  1  6
  3 37  1  0
  3 38  1  0
  4 39  1  0
  4 40  1  0
  5 41  1  6
  8 42  1  0
  8 43  1  0
  8 44  1  0
  9 45  1  0
  9 46  1  0
  9 47  1  0
 10 48  1  6
 11 49  1  0
 11 50  1  0
 12 51  1  0
 12 52  1  0
 14 53  1  0
 14 54  1  0
 14 55  1  0
 15 56  1  1
 16 57  1  0
 16 58  1  0
 17 59  1  0
 19 60  1  6
 20 61  1  0
 20 62  1  0
 21 63  1  0
 21 64  1  0
 22 65  1  6
 23 66  1  0
 25 67  1  0
 25 68  1  0
 25 69  1  0
 26 70  1  0
 26 71  1  0
 26 72  1  0
 28 73  1  0
 28 74  1  0
 28 75  1  0
 29 76  1  0
 29 77  1  0
 30 78  1  0
 30 79  1  0
 32 80  1  0
 32 81  1  0
 32 82  1  0
M  END
>  <meeko>  (14) 
{"is_sidechain": [false], "intermolecular_energy": 2.731, "internal_energy": -0.839}

$$$$
EPH_relaxed_0001_pdb2pqr_Repair_77_r2_0001_out
     RDKit          3D

 82 86  0  0  0  0  0  0  0  0999 V2000
   -2.1410    7.7590   -2.2680 C   0  0  0  0  0  0  0  0  0  0  0  0
   -2.2740    8.4060   -0.8870 C   0  0  2  0  0  0  0  0  0  0  0  0
   -3.7300    8.3970   -0.3800 C   0  0  0  0  0  0  0  0  0  0  0  0
   -4.7390    7.8860   -1.4120 C   0  0  0  0  0  0  0  0  0  0  0  0
   -6.0530    7.5400   -0.7800 C   0  0  2  0  0  0  0  0  0  0  0  0
   -6.3100    6.1340   -0.6660 O   0  0  0  0  0  0  0  0  0  0  0  0
   -7.1910    6.8720   -1.5280 C   0  0  0  0  0  0  0  0  0  0  0  0
   -7.0680    6.5120   -2.9760 C   0  0  0  0  0  0  0  0  0  0  0  0
   -8.5810    7.0150   -0.9910 C   0  0  0  0  0  0  0  0  0  0  0  0
   -1.7470    9.8360   -0.9300 C   0  0  1  0  0  0  0  0  0  0  0  0
   -1.3270   10.3600    0.4690 C   0  0  0  0  0  0  0  0  0  0  0  0
   -0.1030   11.2850    0.2510 C   0  0  0  0  0  0  0  0  0  0  0  0
   -0.0630   11.5270   -1.2760 C   0  0  1  0  0  0  0  0  0  0  0  0
   -1.1160   12.6500   -1.5320 C   0  0  0  0  0  0  0  0  0  0  0  0
    1.3310   11.8930   -1.8820 C   0  0  2  0  0  0  0  0  0  0  0  0
    1.9410   13.2090   -1.3660 C   0  0  0  0  0  0  0  0  0  0  0  0
    1.5910   14.4260   -2.1560 C   0  0  0  0  0  0  0  0  0  0  0  0
    1.0570   14.4300   -3.3920 C   0  0  0  0  0  0  0  0  0  0  0  0
    0.8410   13.1210   -4.1610 C   0  0  1  0  0  0  0  0  0  0  0  0
    1.3560   13.2830   -5.6150 C   0  0  0  0  0  0  0  0  0  0  0  0
    0.7380   14.4850   -6.3240 C   0  0  0  0  0  0  0  0  0  0  0  0
    1.0240   15.7750   -5.5590 C   0  0  2  0  0  0  0  0  0  0  0  0
    2.4290   16.0410   -5.6130 O   0  0  0  0  0  0  0  0  0  0  0  0
    0.5570   15.7260   -4.0780 C   0  0  0  0  0  0  0  0  0  0  0  0
   -0.9900   15.7410   -4.0190 C   0  0  0  0  0  0  0  0  0  0  0  0
    1.0310   17.0310   -3.3840 C   0  0  0  0  0  0  0  0  0  0  0  0
    1.3950   11.8060   -3.4610 C   0  0  1  0  0  0  0  0  0  0  0  0
    2.8940   11.5960   -3.8340 C   0  0  0  0  0  0  0  0  0  0  0  0
    0.6180   10.5570   -4.0230 C   0  0  0  0  0  0  0  0  0  0  0  0
   -0.6910   10.1740   -3.3070 C   0  0  0  0  0  0  0  0  0  0  0  0
   -0.4860   10.1030   -1.7900 C   0  0  2  0  0  0  0  0  0  0  0  0
    0.5520    8.9660   -1.5010 C   0  0  0  0  0  0  0  0  0  0  0  0
   -1.9208    6.6876   -2.1513 H   0  0  0  0  0  0  0  0  0  0  0  0
   -3.0831    7.8814   -2.8225 H   0  0  0  0  0  0  0  0  0  0  0  0
   -1.3236    8.2431   -2.8225 H   0  0  0  0  0  0  0  0  0  0  0  0
   -1.6749    7.8097   -0.1830 H   0  0  0  0  0  0  0  0  0  0  0  0
   -3.7843    7.7503    0.5082 H   0  0  0  0  0  0  0  0  0  0  0  0
   -3.9989    9.4401   -0.1574 H   0  0  0  0  0  0  0  0  0  0  0  0
   -4.9023    8.6681   -2.1681 H   0  0  0  0  0  0  0  0  0  0  0  0
   -4.3285    6.9739   -1.8697 H   0  0  0  0  0  0  0  0  0  0  0  0
   -6.0132    8.4397   -0.1484 H   0  0  0  0  0  0  0  0  0  0  0  0
   -6.7136    5.4747   -3.0671 H   0  0  0  0  0  0  0  0  0  0  0  0
   -8.0499    6.6080   -3.4624 H   0  0  0  0  0  0  0  0  0  0  0  0
   -6.3501    7.1888   -3.4624 H   0  0  0  0  0  0  0  0  0  0  0  0
   -8.5514    7.0120    0.1086 H   0  0  0  0  0  0  0  0  0  0  0  0
   -9.0146    7.9625   -1.3435 H   0  0  0  0  0  0  0  0  0  0  0  0
   -9.1984    6.1756   -1.3435 H   0  0  0  0  0  0  0  0  0  0  0  0
   -2.6186   10.3409   -1.3721 H   0  0  0  0  0  0  0  0  0  0  0  0
   -2.1528   10.9256    0.9252 H   0  0  0  0  0  0  0  0  0  0  0  0
   -1.0780    9.5279    1.1440 H   0  0  0  0  0  0  0  0  0  0  0  0
   -0.2328   12.2344    0.7912 H   0  0  0  0  0  0  0  0  0  0  0  0
    0.8293   10.8383    0.6268 H   0  0  0  0  0  0  0  0  0  0  0  0
   -1.4798   13.0379   -0.5691 H   0  0  0  0  0  0  0  0  0  0  0  0
   -0.6500   13.4661   -2.1037 H   0  0  0  0  0  0  0  0  0  0  0  0
   -1.9604   12.2375   -2.1037 H   0  0  0  0  0  0  0  0  0  0  0  0
    1.9757   11.0913   -1.4925 H   0  0  0  0  0  0  0  0  0  0  0  0
    1.5944   13.3626   -0.3334 H   0  0  0  0  0  0  0  0  0  0  0  0
    3.0316   13.0934   -1.4516 H   0  0  0  0  0  0  0  0  0  0  0  0
    1.7859   15.4026   -1.6888 H   0  0  0  0  0  0  0  0  0  0  0  0
   -0.2453   12.9481   -4.1669 H   0  0  0  0  0  0  0  0  0  0  0  0
    2.4482   13.4115   -5.5900 H   0  0  0  0  0  0  0  0  0  0  0  0
    1.0673   12.3807   -6.1741 H   0  0  0  0  0  0  0  0  0  0  0  0
    1.1631   14.5643   -7.3354 H   0  0  0  0  0  0  0  0  0  0  0  0
   -0.3513   14.3409   -6.3753 H   0  0  0  0  0  0  0  0  0  0  0  0
    0.4489   16.5790   -6.0415 H   0  0  0  0  0  0  0  0  0  0  0  0
    2.8770   15.3650   -5.0770 H   0  0  0  0  0  0  0  0  0  0  0  0
   -1.3169   15.7442   -2.9687 H   0  0  0  0  0  0  0  0  0  0  0  0
   -1.3674   16.6428   -4.5232 H   0  0  0  0  0  0  0  0  0  0  0  0
   -1.3849   14.8466   -4.5232 H   0  0  0  0  0  0  0  0  0  0  0  0
    0.9847   16.9034   -2.2924 H   0  0  0  0  0  0  0  0  0  0  0  0
    2.0663   17.2506   -3.6839 H   0  0  0  0  0  0  0  0  0  0  0  0
    0.3779   17.8638   -3.6839 H   0  0  0  0  0  0  0  0  0  0  0  0
    3.4923   11.5122   -2.9148 H   0  0  0  0  0  0  0  0  0  0  0  0
    2.9991   10.6744   -4.4252 H   0  0  0  0  0  0  0  0  0  0  0  0
    3.2483   12.4533   -4.4252 H   0  0  0  0  0  0  0  0  0  0  0  0
    0.3737   10.7630   -5.0756 H   0  0  0  0  0  0  0  0  0  0  0  0
    1.2931    9.7030   -3.8653 H   0  0  0  0  0  0  0  0  0  0  0  0
   -1.4583   10.9296   -3.5314 H   0  0  0  0  0  0  0  0  0  0  0  0
   -1.0095    9.1837   -3.6646 H   0  0  0  0  0  0  0  0  0  0  0  0
    0.6660    8.8412   -0.4141 H   0  0  0  0  0  0  0  0  0  0  0  0
    0.1962    8.0236   -1.9430 H   0  0  0  0  0  0  0  0  0  0  0  0
    1.5228    9.2347   -1.9430 H   0  0  0  0  0  0  0  0  0  0  0  0
  1  2  1  0
  2  3  1  0
  3  4  1  0
  4  5  1  0
  5  6  1  0
  6  7  1  0
  7  8  1  0
  7  9  1  0
  2 10  1  0
 10 11  1  0
 11 12  1  0
 12 13  1  0
 13 14  1  1
 13 15  1  0
 15 16  1  0
 16 17  1  0
 17 18  2  0
 18 19  1  0
 19 20  1  0
 20 21  1  0
 21 22  1  0
 22 23  1  0
 22 24  1  0
 24 25  1  0
 24 26  1  0
 19 27  1  0
 27 28  1  1
 27 29  1  0
 29 30  1  0
 30 31  1  0
 31 32  1  6
  7  5  1  0
 31 10  1  0
 31 13  1  0
 27 15  1  0
 24 18  1  0
  1 33  1  0
  1 34  1  0
  1 35  1  0
  2 36  1  1
  3 37  1  0
  3 38  1  0
  4 39  1  0
  4 40  1  0
  5 41  1  1
  8 42  1  0
  8 43  1  0
  8 44  1  0
  9 45  1  0
  9 46  1  0
  9 47  1  0
 10 48  1  6
 11 49  1  0
 11 50  1  0
 12 51  1  0
 12 52  1  0
 14 53  1  0
 14 54  1  0
 14 55  1  0
 15 56  1  1
 16 57  1  0
 16 58  1  0
 17 59  1  0
 19 60  1  6
 20 61  1  0
 20 62  1  0
 21 63  1  0
 21 64  1  0
 22 65  1  6
 23 66  1  0
 25 67  1  0
 25 68  1  0
 25 69  1  0
 26 70  1  0
 26 71  1  0
 26 72  1  0
 28 73  1  0
 28 74  1  0
 28 75  1  0
 29 76  1  0
 29 77  1  0
 30 78  1  0
 30 79  1  0
 32 80  1  0
 32 81  1  0
 32 82  1  0
M  END
>  <meeko>  (15) 
{"is_sidechain": [false], "intermolecular_energy": 2.731, "internal_energy": -0.839}

$$$$
EPH_relaxed_0001_pdb2pqr_Repair_77_r2_0001_out
     RDKit          3D

 82 86  0  0  0  0  0  0  0  0999 V2000
  -14.7610    9.1140    0.9930 C   0  0  0  0  0  0  0  0  0  0  0  0
  -13.9180    9.1360   -0.2850 C   0  0  2  0  0  0  0  0  0  0  0  0
  -14.3790    8.0740   -1.3030 C   0  0  0  0  0  0  0  0  0  0  0  0
  -14.5230    8.6100   -2.7300 C   0  0  0  0  0  0  0  0  0  0  0  0
  -15.2370    9.9270   -2.7580 C   0  0  2  0  0  0  0  0  0  0  0  0
  -15.0220   10.7000   -3.9450 O   0  0  0  0  0  0  0  0  0  0  0  0
  -14.5250   11.2660   -2.7220 C   0  0  0  0  0  0  0  0  0  0  0  0
  -13.0320   11.3540   -2.6550 C   0  0  0  0  0  0  0  0  0  0  0  0
  -15.2860   12.4700   -2.2620 C   0  0  0  0  0  0  0  0  0  0  0  0
  -12.4480    8.9260    0.0580 C   0  0  1  0  0  0  0  0  0  0  0  0
  -12.2020    8.8090    1.5860 C   0  0  0  0  0  0  0  0  0  0  0  0
  -11.0460    7.7940    1.7760 C   0  0  0  0  0  0  0  0  0  0  0  0
  -10.4480    7.6140    0.3610 C   0  0  1  0  0  0  0  0  0  0  0  0
   -9.5050    8.8430    0.1660 C   0  0  0  0  0  0  0  0  0  0  0  0
   -9.7030    6.2660    0.0920 C   0  0  2  0  0  0  0  0  0  0  0  0
   -8.4590    6.0230    0.9640 C   0  0  0  0  0  0  0  0  0  0  0  0
   -7.1730    6.5230    0.3940 C   0  0  0  0  0  0  0  0  0  0  0  0
   -6.9730    6.8850   -0.8870 C   0  0  0  0  0  0  0  0  0  0  0  0
   -8.0810    6.7160   -1.9350 C   0  0  1  0  0  0  0  0  0  0  0  0
   -7.4890    6.0680   -3.2140 C   0  0  0  0  0  0  0  0  0  0  0  0
   -6.2860    6.8350   -3.7550 C   0  0  0  0  0  0  0  0  0  0  0  0
   -5.1840    6.9320   -2.7040 C   0  0  2  0  0  0  0  0  0  0  0  0
   -4.6630    5.6210   -2.4600 O   0  0  0  0  0  0  0  0  0  0  0  0
   -5.6650    7.5600   -1.3670 C   0  0  0  0  0  0  0  0  0  0  0  0
   -5.9440    9.0700   -1.5720 C   0  0  0  0  0  0  0  0  0  0  0  0
   -4.4960    7.4690   -0.3490 C   0  0  0  0  0  0  0  0  0  0  0  0
   -9.4020    5.9860   -1.4360 C   0  0  1  0  0  0  0  0  0  0  0  0
   -9.2440    4.4420   -1.5830 C   0  0  0  0  0  0  0  0  0  0  0  0
  -10.6010    6.4000   -2.3680 C   0  0  0  0  0  0  0  0  0  0  0  0
  -11.3730    7.6760   -1.9810 C   0  0  0  0  0  0  0  0  0  0  0  0
  -11.7620    7.6540   -0.5000 C   0  0  2  0  0  0  0  0  0  0  0  0
  -12.7290    6.4410   -0.2770 C   0  0  0  0  0  0  0  0  0  0  0  0
  -14.0975    9.1313    1.8702 H   0  0  0  0  0  0  0  0  0  0  0  0
  -15.4190    9.9953    1.0135 H   0  0  0  0  0  0  0  0  0  0  0  0
  -15.3721    8.1996    1.0135 H   0  0  0  0  0  0  0  0  0  0  0  0
  -14.0528   10.1222   -0.7533 H   0  0  0  0  0  0  0  0  0  0  0  0
  -13.6414    7.2580   -1.3115 H   0  0  0  0  0  0  0  0  0  0  0  0
  -15.3761    7.7356   -0.9849 H   0  0  0  0  0  0  0  0  0  0  0  0
  -13.5210    8.7384   -3.1654 H   0  0  0  0  0  0  0  0  0  0  0  0
  -15.1150    7.8866   -3.3098 H   0  0  0  0  0  0  0  0  0  0  0  0
  -16.0661    9.5160   -2.1633 H   0  0  0  0  0  0  0  0  0  0  0  0
  -12.7127   11.3728   -1.6025 H   0  0  0  0  0  0  0  0  0  0  0  0
  -12.5903   10.4803   -3.1566 H   0  0  0  0  0  0  0  0  0  0  0  0
  -12.6960   12.2735   -3.1566 H   0  0  0  0  0  0  0  0  0  0  0  0
  -15.3021   12.4955   -1.1624 H   0  0  0  0  0  0  0  0  0  0  0  0
  -14.7984   13.3795   -2.6428 H   0  0  0  0  0  0  0  0  0  0  0  0
  -16.3168   12.4198   -2.6428 H   0  0  0  0  0  0  0  0  0  0  0  0
  -12.0189    9.8223   -0.4137 H   0  0  0  0  0  0  0  0  0  0  0  0
  -11.9186    9.7879    2.0002 H   0  0  0  0  0  0  0  0  0  0  0  0
  -13.1108    8.4751    2.1081 H   0  0  0  0  0  0  0  0  0  0  0  0
  -10.2902    8.1916    2.4693 H   0  0  0  0  0  0  0  0  0  0  0  0
  -11.3926    6.8429    2.2064 H   0  0  0  0  0  0  0  0  0  0  0  0
   -9.2047    9.2344    1.1492 H   0  0  0  0  0  0  0  0  0  0  0  0
   -8.6104    8.5335   -0.3943 H   0  0  0  0  0  0  0  0  0  0  0  0
  -10.0355    9.6270   -0.3943 H   0  0  0  0  0  0  0  0  0  0  0  0
  -10.4433    5.5186    0.4135 H   0  0  0  0  0  0  0  0  0  0  0  0
   -8.6190    6.5222    1.9310 H   0  0  0  0  0  0  0  0  0  0  0  0
   -8.3522    4.9311    1.0441 H   0  0  0  0  0  0  0  0  0  0  0  0
   -6.3160    6.6023    1.0790 H   0  0  0  0  0  0  0  0  0  0  0  0
   -8.4416    7.7299   -2.1629 H   0  0  0  0  0  0  0  0  0  0  0  0
   -7.1746    5.0411   -2.9759 H   0  0  0  0  0  0  0  0  0  0  0  0
   -8.2703    6.0828   -3.9882 H   0  0  0  0  0  0  0  0  0  0  0  0
   -5.8943    6.3126   -4.6402 H   0  0  0  0  0  0  0  0  0  0  0  0
   -6.6087    7.8525   -4.0206 H   0  0  0  0  0  0  0  0  0  0  0  0
   -4.4069    7.6010   -3.1023 H   0  0  0  0  0  0  0  0  0  0  0  0
   -4.1070    5.3790   -3.2200 H   0  0  0  0  0  0  0  0  0  0  0  0
   -6.0350    9.5623   -0.5925 H   0  0  0  0  0  0  0  0  0  0  0  0
   -5.1144    9.5231   -2.1345 H   0  0  0  0  0  0  0  0  0  0  0  0
   -6.8808    9.1967   -2.1345 H   0  0  0  0  0  0  0  0  0  0  0  0
   -4.8978    7.5003    0.6745 H   0  0  0  0  0  0  0  0  0  0  0  0
   -3.9507    6.5257   -0.5002 H   0  0  0  0  0  0  0  0  0  0  0  0
   -3.8113    8.3166   -0.5002 H   0  0  0  0  0  0  0  0  0  0  0  0
   -9.1969    3.9816   -0.5851 H   0  0  0  0  0  0  0  0  0  0  0  0
  -10.1053    4.0361   -2.1338 H   0  0  0  0  0  0  0  0  0  0  0  0
   -8.3183    4.2189   -2.1338 H   0  0  0  0  0  0  0  0  0  0  0  0
  -10.1991    6.5486   -3.3811 H   0  0  0  0  0  0  0  0  0  0  0  0
  -11.3317    5.5828   -2.2773 H   0  0  0  0  0  0  0  0  0  0  0  0
  -10.7375    8.5531   -2.1730 H   0  0  0  0  0  0  0  0  0  0  0  0
  -12.2916    7.7263   -2.5840 H   0  0  0  0  0  0  0  0  0  0  0  0
  -12.8632    6.2726    0.8017 H   0  0  0  0  0  0  0  0  0  0  0  0
  -13.7035    6.6594   -0.7381 H   0  0  0  0  0  0  0  0  0  0  0  0
  -12.2989    5.5396   -0.7381 H   0  0  0  0  0  0  0  0  0  0  0  0
  1  2  1  0
  2  3  1  0
  3  4  1  0
  4  5  1  0
  5  6  1  0
  6  7  1  0
  7  8  1  0
  7  9  1  0
  2 10  1  0
 10 11  1  0
 11 12  1  0
 12 13  1  0
 13 14  1  6
 13 15  1  0
 15 16  1  0
 16 17  1  0
 17 18  2  0
 18 19  1  0
 19 20  1  0
 20 21  1  0
 21 22  1  0
 22 23  1  0
 22 24  1  0
 24 25  1  0
 24 26  1  0
 19 27  1  0
 27 28  1  1
 27 29  1  0
 29 30  1  0
 30 31  1  0
 31 32  1  6
  7  5  1  0
 31 10  1  0
 31 13  1  0
 27 15  1  0
 24 18  1  0
  1 33  1  0
  1 34  1  0
  1 35  1  0
  2 36  1  6
  3 37  1  0
  3 38  1  0
  4 39  1  0
  4 40  1  0
  5 41  1  1
  8 42  1  0
  8 43  1  0
  8 44  1  0
  9 45  1  0
  9 46  1  0
  9 47  1  0
 10 48  1  6
 11 49  1  0
 11 50  1  0
 12 51  1  0
 12 52  1  0
 14 53  1  0
 14 54  1  0
 14 55  1  0
 15 56  1  1
 16 57  1  0
 16 58  1  0
 17 59  1  0
 19 60  1  6
 20 61  1  0
 20 62  1  0
 21 63  1  0
 21 64  1  0
 22 65  1  6
 23 66  1  0
 25 67  1  0
 25 68  1  0
 25 69  1  0
 26 70  1  0
 26 71  1  0
 26 72  1  0
 28 73  1  0
 28 74  1  0
 28 75  1  0
 29 76  1  0
 29 77  1  0
 30 78  1  0
 30 79  1  0
 32 80  1  0
 32 81  1  0
 32 82  1  0
M  END
>  <meeko>  (16) 
{"is_sidechain": [false], "intermolecular_energy": 2.731, "internal_energy": -0.839}

$$$$
EPH_relaxed_0001_pdb2pqr_Repair_77_r2_0001_out
     RDKit          3D

 82 86  0  0  0  0  0  0  0  0999 V2000
    0.3090    9.8940   -4.7290 C   0  0  0  0  0  0  0  0  0  0  0  0
    1.3480   10.5810   -3.8380 C   0  0  2  0  0  0  0  0  0  0  0  0
    1.7140    9.7270   -2.6080 C   0  0  0  0  0  0  0  0  0  0  0  0
    0.6430    8.6990   -2.2310 C   0  0  0  0  0  0  0  0  0  0  0  0
   -0.2160    9.1820   -1.1020 C   0  0  2  0  0  0  0  0  0  0  0  0
   -0.7450    8.1440   -0.2660 O   0  0  0  0  0  0  0  0  0  0  0  0
   -1.7060    8.9120   -1.0090 C   0  0  0  0  0  0  0  0  0  0  0  0
   -2.4250    8.1310   -2.0640 C   0  0  0  0  0  0  0  0  0  0  0  0
   -2.5440    9.8140   -0.1570 C   0  0  0  0  0  0  0  0  0  0  0  0
    0.8300   11.9430   -3.3920 C   0  0  1  0  0  0  0  0  0  0  0  0
   -0.6870   11.9270   -3.0630 C   0  0  0  0  0  0  0  0  0  0  0  0
   -0.9000   12.9120   -1.8850 C   0  0  0  0  0  0  0  0  0  0  0  0
    0.4260   13.7030   -1.7940 C   0  0  1  0  0  0  0  0  0  0  0  0
    0.3150   14.8020   -2.8970 C   0  0  0  0  0  0  0  0  0  0  0  0
    0.7680   14.3190   -0.3980 C   0  0  2  0  0  0  0  0  0  0  0  0
   -0.2310   15.3720    0.1130 C   0  0  0  0  0  0  0  0  0  0  0  0
    0.0750   16.7810   -0.2710 C   0  0  0  0  0  0  0  0  0  0  0  0
    1.2520   17.2230   -0.7510 C   0  0  0  0  0  0  0  0  0  0  0  0
    2.4610   16.2840   -0.8590 C   0  0  1  0  0  0  0  0  0  0  0  0
    3.7190   16.9930   -0.2920 C   0  0  0  0  0  0  0  0  0  0  0  0
    3.9720   18.3480   -0.9460 C   0  0  0  0  0  0  0  0  0  0  0  0
    2.7710   19.2730   -0.7670 C   0  0  2  0  0  0  0  0  0  0  0  0
    2.6370   19.5910    0.6210 O   0  0  0  0  0  0  0  0  0  0  0  0
    1.4430   18.6610   -1.2940 C   0  0  0  0  0  0  0  0  0  0  0  0
    1.4770   18.5960   -2.8410 C   0  0  0  0  0  0  0  0  0  0  0  0
    0.2900   19.6330   -0.9260 C   0  0  0  0  0  0  0  0  0  0  0  0
    2.2610   14.8250   -0.2610 C   0  0  1  0  0  0  0  0  0  0  0  0
    2.5940   14.8240    1.2620 C   0  0  0  0  0  0  0  0  0  0  0  0
    3.2890   13.8460   -0.9410 C   0  0  0  0  0  0  0  0  0  0  0  0
    2.8460   13.1760   -2.2560 C   0  0  0  0  0  0  0  0  0  0  0  0
    1.4530   12.5560   -2.1130 C   0  0  2  0  0  0  0  0  0  0  0  0
    1.5390   11.4320   -1.0250 C   0  0  0  0  0  0  0  0  0  0  0  0
   -0.4431    9.3967   -4.0988 H   0  0  0  0  0  0  0  0  0  0  0  0
   -0.1835   10.6451   -5.3641 H   0  0  0  0  0  0  0  0  0  0  0  0
    0.8073    9.1467   -5.3641 H   0  0  0  0  0  0  0  0  0  0  0  0
    2.2634   10.7086   -4.4344 H   0  0  0  0  0  0  0  0  0  0  0  0
    2.6496    9.1904   -2.8239 H   0  0  0  0  0  0  0  0  0  0  0  0
    1.8120   10.4160   -1.7561 H   0  0  0  0  0  0  0  0  0  0  0  0
    0.0062    8.5098   -3.1077 H   0  0  0  0  0  0  0  0  0  0  0  0
    1.1504    7.7786   -1.9063 H   0  0  0  0  0  0  0  0  0  0  0  0
    0.3723   10.1078   -1.0195 H   0  0  0  0  0  0  0  0  0  0  0  0
   -3.0963    7.4018   -1.5869 H   0  0  0  0  0  0  0  0  0  0  0  0
   -3.0143    8.8169   -2.6903 H   0  0  0  0  0  0  0  0  0  0  0  0
   -1.6928    7.6003   -2.6903 H   0  0  0  0  0  0  0  0  0  0  0  0
   -2.3475    9.6025    0.9045 H   0  0  0  0  0  0  0  0  0  0  0  0
   -2.2921   10.8624   -0.3748 H   0  0  0  0  0  0  0  0  0  0  0  0
   -3.6081    9.6398   -0.3748 H   0  0  0  0  0  0  0  0  0  0  0  0
    1.1075   12.5430   -4.2712 H   0  0  0  0  0  0  0  0  0  0  0  0
   -1.2679   12.2525   -3.9386 H   0  0  0  0  0  0  0  0  0  0  0  0
   -1.0224   10.9140   -2.7961 H   0  0  0  0  0  0  0  0  0  0  0  0
   -1.7424   13.5885   -2.0918 H   0  0  0  0  0  0  0  0  0  0  0  0
   -1.1418   12.3932   -0.9457 H   0  0  0  0  0  0  0  0  0  0  0  0
    0.2153   15.7892   -2.4222 H   0  0  0  0  0  0  0  0  0  0  0  0
    1.2193   14.7859   -3.5230 H   0  0  0  0  0  0  0  0  0  0  0  0
   -0.5679   14.6053   -3.5230 H   0  0  0  0  0  0  0  0  0  0  0  0
    0.6609   13.4545    0.2737 H   0  0  0  0  0  0  0  0  0  0  0  0
   -1.2246   15.1193   -0.2857 H   0  0  0  0  0  0  0  0  0  0  0  0
   -0.1745   15.3370    1.2110 H   0  0  0  0  0  0  0  0  0  0  0  0
   -0.7298   17.5213   -0.1516 H   0  0  0  0  0  0  0  0  0  0  0  0
    2.5968   16.0845   -1.9322 H   0  0  0  0  0  0  0  0  0  0  0  0
    3.5818   17.1434    0.7890 H   0  0  0  0  0  0  0  0  0  0  0  0
    4.5875   16.3524   -0.5048 H   0  0  0  0  0  0  0  0  0  0  0  0
    4.8556   18.8117   -0.4832 H   0  0  0  0  0  0  0  0  0  0  0  0
    4.1382   18.1928   -2.0222 H   0  0  0  0  0  0  0  0  0  0  0  0
    2.9586   20.1771   -1.3649 H   0  0  0  0  0  0  0  0  0  0  0  0
    2.0820   18.9050    1.0280 H   0  0  0  0  0  0  0  0  0  0  0  0
    1.9652   17.6627   -3.1581 H   0  0  0  0  0  0  0  0  0  0  0  0
    0.4491   18.6233   -3.2318 H   0  0  0  0  0  0  0  0  0  0  0  0
    2.0408   19.4559   -3.2318 H   0  0  0  0  0  0  0  0  0  0  0  0
    0.2056   19.7041    0.1685 H   0  0  0  0  0  0  0  0  0  0  0  0
    0.5026   20.6285   -1.3428 H   0  0  0  0  0  0  0  0  0  0  0  0
   -0.6552   19.2551   -1.3428 H   0  0  0  0  0  0  0  0  0  0  0  0
    1.6592   14.8268    1.8417 H   0  0  0  0  0  0  0  0  0  0  0  0
    3.1762   13.9241    1.5094 H   0  0  0  0  0  0  0  0  0  0  0  0
    3.1816   15.7204    1.5094 H   0  0  0  0  0  0  0  0  0  0  0  0
    4.2044   14.4185   -1.1513 H   0  0  0  0  0  0  0  0  0  0  0  0
    3.4155   13.0199   -0.2258 H   0  0  0  0  0  0  0  0  0  0  0  0
    2.8233   13.9317   -3.0550 H   0  0  0  0  0  0  0  0  0  0  0  0
    3.5618   12.3776   -2.5014 H   0  0  0  0  0  0  0  0  0  0  0  0
    1.5042   11.8871   -0.0241 H   0  0  0  0  0  0  0  0  0  0  0  0
    0.6911   10.7414   -1.1435 H   0  0  0  0  0  0  0  0  0  0  0  0
    2.4821   10.8784   -1.1435 H   0  0  0  0  0  0  0  0  0  0  0  0
  1  2  1  0
  2  3  1  0
  3  4  1  0
  4  5  1  0
  5  6  1  0
  6  7  1  0
  7  8  1  0
  7  9  1  0
  2 10  1  0
 10 11  1  0
 11 12  1  0
 12 13  1  0
 13 14  1  6
 13 15  1  0
 15 16  1  0
 16 17  1  0
 17 18  2  0
 18 19  1  0
 19 20  1  0
 20 21  1  0
 21 22  1  0
 22 23  1  0
 22 24  1  0
 24 25  1  0
 24 26  1  0
 19 27  1  0
 27 28  1  1
 27 29  1  0
 29 30  1  0
 30 31  1  0
 31 32  1  1
  7  5  1  0
 31 10  1  0
 31 13  1  0
 27 15  1  0
 24 18  1  0
  1 33  1  0
  1 34  1  0
  1 35  1  0
  2 36  1  6
  3 37  1  0
  3 38  1  0
  4 39  1  0
  4 40  1  0
  5 41  1  1
  8 42  1  0
  8 43  1  0
  8 44  1  0
  9 45  1  0
  9 46  1  0
  9 47  1  0
 10 48  1  6
 11 49  1  0
 11 50  1  0
 12 51  1  0
 12 52  1  0
 14 53  1  0
 14 54  1  0
 14 55  1  0
 15 56  1  1
 16 57  1  0
 16 58  1  0
 17 59  1  0
 19 60  1  6
 20 61  1  0
 20 62  1  0
 21 63  1  0
 21 64  1  0
 22 65  1  6
 23 66  1  0
 25 67  1  0
 25 68  1  0
 25 69  1  0
 26 70  1  0
 26 71  1  0
 26 72  1  0
 28 73  1  0
 28 74  1  0
 28 75  1  0
 29 76  1  0
 29 77  1  0
 30 78  1  0
 30 79  1  0
 32 80  1  0
 32 81  1  0
 32 82  1  0
M  END
>  <meeko>  (17) 
{"is_sidechain": [false], "intermolecular_energy": 2.731, "internal_energy": -0.839}

$$$$
EPH_relaxed_0001_pdb2pqr_Repair_77_r2_0001_out
     RDKit          3D

 82 86  0  0  0  0  0  0  0  0999 V2000
    1.0000   14.8220   -2.6890 C   0  0  0  0  0  0  0  0  0  0  0  0
    1.2390   14.1270   -4.0320 C   0  0  2  0  0  0  0  0  0  0  0  0
    0.5270   14.8490   -5.1940 C   0  0  0  0  0  0  0  0  0  0  0  0
    1.1570   14.5810   -6.5640 C   0  0  0  0  0  0  0  0  0  0  0  0
    0.9200   15.7150   -7.5140 C   0  0  2  0  0  0  0  0  0  0  0  0
    0.4280   15.3230   -8.8030 O   0  0  0  0  0  0  0  0  0  0  0  0
    1.7300   15.9300   -8.7790 C   0  0  0  0  0  0  0  0  0  0  0  0
    2.8410   15.0030   -9.1610 C   0  0  0  0  0  0  0  0  0  0  0  0
    1.7670   17.3010   -9.3800 C   0  0  0  0  0  0  0  0  0  0  0  0
    0.7760   12.6770   -3.9580 C   0  0  1  0  0  0  0  0  0  0  0  0
    1.9030   11.6710   -4.3100 C   0  0  0  0  0  0  0  0  0  0  0  0
    1.6840   10.4230   -3.4170 C   0  0  0  0  0  0  0  0  0  0  0  0
    0.2660   10.6080   -2.8290 C   0  0  1  0  0  0  0  0  0  0  0  0
   -0.7020   10.1280   -3.9550 C   0  0  0  0  0  0  0  0  0  0  0  0
   -0.0200    9.8830   -1.4730 C   0  0  2  0  0  0  0  0  0  0  0  0
    0.0730    8.3480   -1.5230 C   0  0  0  0  0  0  0  0  0  0  0  0
   -1.2020    7.6420   -1.8470 C   0  0  0  0  0  0  0  0  0  0  0  0
   -2.4310    8.1900   -1.8090 C   0  0  0  0  0  0  0  0  0  0  0  0
   -2.6370    9.6280   -1.3160 C   0  0  1  0  0  0  0  0  0  0  0  0
   -3.8280    9.6690   -0.3220 C   0  0  0  0  0  0  0  0  0  0  0  0
   -5.1000    9.0650   -0.9080 C   0  0  0  0  0  0  0  0  0  0  0  0
   -4.8710    7.6170   -1.3330 C   0  0  2  0  0  0  0  0  0  0  0  0
   -4.6320    6.8260   -0.1650 O   0  0  0  0  0  0  0  0  0  0  0  0
   -3.6890    7.4500   -2.3280 C   0  0  0  0  0  0  0  0  0  0  0  0
   -4.0750    8.0530   -3.7010 C   0  0  0  0  0  0  0  0  0  0  0  0
   -3.4750    5.9310   -2.5660 C   0  0  0  0  0  0  0  0  0  0  0  0
   -1.3440   10.3590   -0.7500 C   0  0  1  0  0  0  0  0  0  0  0  0
   -1.1680   10.0310    0.7640 C   0  0  0  0  0  0  0  0  0  0  0  0
   -1.5510   11.9170   -0.8460 C   0  0  0  0  0  0  0  0  0  0  0  0
   -1.1380   12.5930   -2.1680 C   0  0  0  0  0  0  0  0  0  0  0  0
    0.2700   12.1620   -2.5870 C   0  0  2  0  0  0  0  0  0  0  0  0
    1.2690   12.6510   -1.4830 C   0  0  0  0  0  0  0  0  0  0  0  0
    1.2386   14.1281   -1.8695 H   0  0  0  0  0  0  0  0  0  0  0  0
    1.6442   15.7107   -2.6163 H   0  0  0  0  0  0  0  0  0  0  0  0
   -0.0545   15.1265   -2.6163 H   0  0  0  0  0  0  0  0  0  0  0  0
    2.3197   14.1614   -4.2341 H   0  0  0  0  0  0  0  0  0  0  0  0
   -0.5202   14.5134   -5.2217 H   0  0  0  0  0  0  0  0  0  0  0  0
    0.6169   15.9288   -5.0046 H   0  0  0  0  0  0  0  0  0  0  0  0
    2.2409   14.4428   -6.4371 H   0  0  0  0  0  0  0  0  0  0  0  0
    0.6912   13.6778   -6.9850 H   0  0  0  0  0  0  0  0  0  0  0  0
    0.6562   16.3867   -6.6838 H   0  0  0  0  0  0  0  0  0  0  0  0
    3.3165   14.6063   -8.2519 H   0  0  0  0  0  0  0  0  0  0  0  0
    2.4362   14.1711   -9.7560 H   0  0  0  0  0  0  0  0  0  0  0  0
    3.5870   15.5503   -9.7560 H   0  0  0  0  0  0  0  0  0  0  0  0
    1.7873   18.0528   -8.5773 H   0  0  0  0  0  0  0  0  0  0  0  0
    2.6683   17.4044  -10.0021 H   0  0  0  0  0  0  0  0  0  0  0  0
    0.8726   17.4529  -10.0021 H   0  0  0  0  0  0  0  0  0  0  0  0
   -0.0552   12.7118   -4.6776 H   0  0  0  0  0  0  0  0  0  0  0  0
    1.8432   11.3918   -5.3723 H   0  0  0  0  0  0  0  0  0  0  0  0
    2.8952   12.1125   -4.1349 H   0  0  0  0  0  0  0  0  0  0  0  0
    1.7388    9.5022   -4.0163 H   0  0  0  0  0  0  0  0  0  0  0  0
    2.4513   10.3303   -2.6343 H   0  0  0  0  0  0  0  0  0  0  0  0
   -1.5998    9.6828   -3.5015 H   0  0  0  0  0  0  0  0  0  0  0  0
   -0.9932   10.9861   -4.5786 H   0  0  0  0  0  0  0  0  0  0  0  0
   -0.1952    9.3768   -4.5786 H   0  0  0  0  0  0  0  0  0  0  0  0
    0.8213   10.2134   -0.8460 H   0  0  0  0  0  0  0  0  0  0  0  0
    0.8154    8.0772   -2.2882 H   0  0  0  0  0  0  0  0  0  0  0  0
    0.3493    8.0267   -0.5079 H   0  0  0  0  0  0  0  0  0  0  0  0
   -1.1311    6.5846   -2.1417 H   0  0  0  0  0  0  0  0  0  0  0  0
   -2.8754   10.2245   -2.2089 H   0  0  0  0  0  0  0  0  0  0  0  0
   -3.5531    9.1043    0.5811 H   0  0  0  0  0  0  0  0  0  0  0  0
   -4.0348   10.7246   -0.0922 H   0  0  0  0  0  0  0  0  0  0  0  0
   -5.8958    9.0959   -0.1492 H   0  0  0  0  0  0  0  0  0  0  0  0
   -5.3901    9.6491   -1.7938 H   0  0  0  0  0  0  0  0  0  0  0  0
   -5.7755    7.2816   -1.8617 H   0  0  0  0  0  0  0  0  0  0  0  0
   -5.3910    6.9430    0.4300 H   0  0  0  0  0  0  0  0  0  0  0  0
   -4.6622    8.9703   -3.5466 H   0  0  0  0  0  0  0  0  0  0  0  0
   -3.1621    8.2928   -4.2659 H   0  0  0  0  0  0  0  0  0  0  0  0
   -4.6750    7.3243   -4.2659 H   0  0  0  0  0  0  0  0  0  0  0  0
   -3.4023    5.4148   -1.5974 H   0  0  0  0  0  0  0  0  0  0  0  0
   -4.3249    5.5256   -3.1346 H   0  0  0  0  0  0  0  0  0  0  0  0
   -2.5462    5.7762   -3.1346 H   0  0  0  0  0  0  0  0  0  0  0  0
   -1.6028   10.8413    1.3677 H   0  0  0  0  0  0  0  0  0  0  0  0
   -1.6799    9.0855    0.9963 H   0  0  0  0  0  0  0  0  0  0  0  0
   -0.0971    9.9348    0.9963 H   0  0  0  0  0  0  0  0  0  0  0  0
   -2.6203   12.1209   -0.6879 H   0  0  0  0  0  0  0  0  0  0  0  0
   -0.8825   12.3436   -0.0836 H   0  0  0  0  0  0  0  0  0  0  0  0
   -1.8509   12.3083   -2.9559 H   0  0  0  0  0  0  0  0  0  0  0  0
   -1.1420   13.6831   -2.0209 H   0  0  0  0  0  0  0  0  0  0  0  0
    0.8465   12.4442   -0.4886 H   0  0  0  0  0  0  0  0  0  0  0  0
    2.2257   12.1193   -1.5927 H   0  0  0  0  0  0  0  0  0  0  0  0
    1.4360   13.7327   -1.5927 H   0  0  0  0  0  0  0  0  0  0  0  0
  1  2  1  0
  2  3  1  0
  3  4  1  0
  4  5  1  0
  5  6  1  0
  6  7  1  0
  7  8  1  0
  7  9  1  0
  2 10  1  0
 10 11  1  0
 11 12  1  0
 12 13  1  0
 13 14  1  6
 13 15  1  0
 15 16  1  0
 16 17  1  0
 17 18  2  0
 18 19  1  0
 19 20  1  0
 20 21  1  0
 21 22  1  0
 22 23  1  0
 22 24  1  0
 24 25  1  0
 24 26  1  0
 19 27  1  0
 27 28  1  1
 27 29  1  0
 29 30  1  0
 30 31  1  0
 31 32  1  1
  7  5  1  0
 31 10  1  0
 31 13  1  0
 27 15  1  0
 24 18  1  0
  1 33  1  0
  1 34  1  0
  1 35  1  0
  2 36  1  6
  3 37  1  0
  3 38  1  0
  4 39  1  0
  4 40  1  0
  5 41  1  1
  8 42  1  0
  8 43  1  0
  8 44  1  0
  9 45  1  0
  9 46  1  0
  9 47  1  0
 10 48  1  6
 11 49  1  0
 11 50  1  0
 12 51  1  0
 12 52  1  0
 14 53  1  0
 14 54  1  0
 14 55  1  0
 15 56  1  1
 16 57  1  0
 16 58  1  0
 17 59  1  0
 19 60  1  6
 20 61  1  0
 20 62  1  0
 21 63  1  0
 21 64  1  0
 22 65  1  6
 23 66  1  0
 25 67  1  0
 25 68  1  0
 25 69  1  0
 26 70  1  0
 26 71  1  0
 26 72  1  0
 28 73  1  0
 28 74  1  0
 28 75  1  0
 29 76  1  0
 29 77  1  0
 30 78  1  0
 30 79  1  0
 32 80  1  0
 32 81  1  0
 32 82  1  0
M  END
>  <meeko>  (18) 
{"is_sidechain": [false], "intermolecular_energy": 2.731, "internal_energy": -0.839}

$$$$
EPH_relaxed_0001_pdb2pqr_Repair_77_r2_0001_out
     RDKit          3D

 82 86  0  0  0  0  0  0  0  0999 V2000
  -13.8870   10.5990   -0.3140 C   0  0  0  0  0  0  0  0  0  0  0  0
  -13.3450    9.5090   -1.2430 C   0  0  2  0  0  0  0  0  0  0  0  0
  -14.3680    8.3770   -1.4690 C   0  0  0  0  0  0  0  0  0  0  0  0
  -15.2870    8.6090   -2.6710 C   0  0  0  0  0  0  0  0  0  0  0  0
  -15.0500    7.6010   -3.7540 C   0  0  2  0  0  0  0  0  0  0  0  0
  -13.8250    7.7760   -4.4780 O   0  0  0  0  0  0  0  0  0  0  0  0
  -15.0360    7.9470   -5.2310 C   0  0  0  0  0  0  0  0  0  0  0  0
  -15.2650    9.3470   -5.7070 C   0  0  0  0  0  0  0  0  0  0  0  0
  -15.2870    6.8550   -6.2240 C   0  0  0  0  0  0  0  0  0  0  0  0
  -12.0520    8.9370   -0.6750 C   0  0  1  0  0  0  0  0  0  0  0  0
  -12.2420    8.3170    0.7350 C   0  0  0  0  0  0  0  0  0  0  0  0
  -11.2900    7.0970    0.8200 C   0  0  0  0  0  0  0  0  0  0  0  0
  -10.3520    7.2490   -0.4010 C   0  0  1  0  0  0  0  0  0  0  0  0
   -9.2720    8.2820    0.0500 C   0  0  0  0  0  0  0  0  0  0  0  0
   -9.7020    5.9340   -0.9410 C   0  0  2  0  0  0  0  0  0  0  0  0
   -8.7720    5.2110    0.0490 C   0  0  0  0  0  0  0  0  0  0  0  0
   -7.3360    5.6140   -0.0150 C   0  0  0  0  0  0  0  0  0  0  0  0
   -6.7610    6.3060   -1.0170 C   0  0  0  0  0  0  0  0  0  0  0  0
   -7.5550    6.6710   -2.2780 C   0  0  1  0  0  0  0  0  0  0  0  0
   -6.7070    6.3460   -3.5360 C   0  0  0  0  0  0  0  0  0  0  0  0
   -5.3320    7.0050   -3.5010 C   0  0  0  0  0  0  0  0  0  0  0  0
   -4.5510    6.5720   -2.2630 C   0  0  2  0  0  0  0  0  0  0  0  0
   -4.2510    5.1770   -2.3720 O   0  0  0  0  0  0  0  0  0  0  0  0
   -5.3110    6.8410   -0.9340 C   0  0  0  0  0  0  0  0  0  0  0  0
   -5.3700    8.3660   -0.6680 C   0  0  0  0  0  0  0  0  0  0  0  0
   -4.4770    6.2300    0.2250 C   0  0  0  0  0  0  0  0  0  0  0  0
   -9.0280    6.0810   -2.3650 C   0  0  1  0  0  0  0  0  0  0  0  0
   -8.9930    4.6540   -2.9910 C   0  0  0  0  0  0  0  0  0  0  0  0
   -9.8820    6.9730   -3.3420 C   0  0  0  0  0  0  0  0  0  0  0  0
  -10.5970    8.1910   -2.7250 C   0  0  0  0  0  0  0  0  0  0  0  0
  -11.3730    7.7910   -1.4660 C   0  0  2  0  0  0  0  0  0  0  0  0
  -12.4810    6.7690   -1.8920 C   0  0  0  0  0  0  0  0  0  0  0  0
  -13.7366   10.2966    0.7329 H   0  0  0  0  0  0  0  0  0  0  0  0
  -13.3526   11.5416   -0.5038 H   0  0  0  0  0  0  0  0  0  0  0  0
  -14.9611   10.7418   -0.5038 H   0  0  0  0  0  0  0  0  0  0  0  0
  -13.1473    9.9751   -2.2196 H   0  0  0  0  0  0  0  0  0  0  0  0
  -13.8174    7.4382   -1.6289 H   0  0  0  0  0  0  0  0  0  0  0  0
  -15.0095    8.3405   -0.5762 H   0  0  0  0  0  0  0  0  0  0  0  0
  -16.3331    8.5359   -2.3390 H   0  0  0  0  0  0  0  0  0  0  0  0
  -15.0712    9.6074   -3.0793 H   0  0  0  0  0  0  0  0  0  0  0  0
  -15.5836    6.8274   -3.1824 H   0  0  0  0  0  0  0  0  0  0  0  0
  -15.3744   10.0156   -4.8404 H   0  0  0  0  0  0  0  0  0  0  0  0
  -14.4081    9.6723   -6.3153 H   0  0  0  0  0  0  0  0  0  0  0  0
  -16.1809    9.3823   -6.3153 H   0  0  0  0  0  0  0  0  0  0  0  0
  -15.5026    5.9172   -5.6910 H   0  0  0  0  0  0  0  0  0  0  0  0
  -16.1467    7.1239   -6.8553 H   0  0  0  0  0  0  0  0  0  0  0  0
  -14.3961    6.7216   -6.8553 H   0  0  0  0  0  0  0  0  0  0  0  0
  -11.4230    9.8389   -0.7047 H   0  0  0  0  0  0  0  0  0  0  0  0
  -11.9839    9.0534    1.5103 H   0  0  0  0  0  0  0  0  0  0  0  0
  -13.2872    8.0138    0.8952 H   0  0  0  0  0  0  0  0  0  0  0  0
  -10.7143    7.1181    1.7571 H   0  0  0  0  0  0  0  0  0  0  0  0
  -11.8345    6.1413    0.8117 H   0  0  0  0  0  0  0  0  0  0  0  0
   -9.2349    8.3175    1.1488 H   0  0  0  0  0  0  0  0  0  0  0  0
   -8.2893    7.9791   -0.3405 H   0  0  0  0  0  0  0  0  0  0  0  0
   -9.5309    9.2772   -0.3405 H   0  0  0  0  0  0  0  0  0  0  0  0
  -10.5739    5.2752   -1.0671 H   0  0  0  0  0  0  0  0  0  0  0  0
   -9.1366    5.4125    1.0671 H   0  0  0  0  0  0  0  0  0  0  0  0
   -8.8021    4.1466   -0.2269 H   0  0  0  0  0  0  0  0  0  0  0  0
   -6.6929    5.3208    0.8279 H   0  0  0  0  0  0  0  0  0  0  0  0
   -7.7365    7.7544   -2.2203 H   0  0  0  0  0  0  0  0  0  0  0  0
   -6.5740    5.2559   -3.5996 H   0  0  0  0  0  0  0  0  0  0  0  0
   -7.2439    6.7402   -4.4114 H   0  0  0  0  0  0  0  0  0  0  0  0
   -4.7703    6.7141   -4.4010 H   0  0  0  0  0  0  0  0  0  0  0  0
   -5.4664    8.0962   -3.4675 H   0  0  0  0  0  0  0  0  0  0  0  0
   -3.6314    7.1744   -2.2256 H   0  0  0  0  0  0  0  0  0  0  0  0
   -3.5930    5.0720   -3.0790 H   0  0  0  0  0  0  0  0  0  0  0  0
   -5.3771    8.5490    0.4166 H   0  0  0  0  0  0  0  0  0  0  0  0
   -4.4899    8.8506   -1.1159 H   0  0  0  0  0  0  0  0  0  0  0  0
   -6.2849    8.7812   -1.1159 H   0  0  0  0  0  0  0  0  0  0  0  0
   -4.9044    6.5431    1.1890 H   0  0  0  0  0  0  0  0  0  0  0  0
   -4.4987    5.1325    0.1534 H   0  0  0  0  0  0  0  0  0  0  0  0
   -3.4372    6.5816    0.1534 H   0  0  0  0  0  0  0  0  0  0  0  0
   -8.9746    3.9019   -2.1885 H   0  0  0  0  0  0  0  0  0  0  0  0
   -9.8877    4.5045   -3.6131 H   0  0  0  0  0  0  0  0  0  0  0  0
   -8.0920    4.5485   -3.6131 H   0  0  0  0  0  0  0  0  0  0  0  0
   -9.2080    7.3455   -4.1275 H   0  0  0  0  0  0  0  0  0  0  0  0
  -10.6888    6.3165   -3.7000 H   0  0  0  0  0  0  0  0  0  0  0  0
   -9.8480    8.9517   -2.4597 H   0  0  0  0  0  0  0  0  0  0  0  0
  -11.3077    8.5916   -3.4628 H   0  0  0  0  0  0  0  0  0  0  0  0
  -12.9477    6.3385   -0.9937 H   0  0  0  0  0  0  0  0  0  0  0  0
  -13.2456    7.2856   -2.4907 H   0  0  0  0  0  0  0  0  0  0  0  0
  -12.0278    5.9652   -2.4907 H   0  0  0  0  0  0  0  0  0  0  0  0
  1  2  1  0
  2  3  1  0
  3  4  1  0
  4  5  1  0
  5  6  1  0
  6  7  1  0
  7  8  1  0
  7  9  1  0
  2 10  1  0
 10 11  1  0
 11 12  1  0
 12 13  1  0
 13 14  1  1
 13 15  1  0
 15 16  1  0
 16 17  1  0
 17 18  2  0
 18 19  1  0
 19 20  1  0
 20 21  1  0
 21 22  1  0
 22 23  1  0
 22 24  1  0
 24 25  1  0
 24 26  1  0
 19 27  1  0
 27 28  1  6
 27 29  1  0
 29 30  1  0
 30 31  1  0
 31 32  1  6
  7  5  1  0
 31 10  1  0
 31 13  1  0
 27 15  1  0
 24 18  1  0
  1 33  1  0
  1 34  1  0
  1 35  1  0
  2 36  1  6
  3 37  1  0
  3 38  1  0
  4 39  1  0
  4 40  1  0
  5 41  1  6
  8 42  1  0
  8 43  1  0
  8 44  1  0
  9 45  1  0
  9 46  1  0
  9 47  1  0
 10 48  1  1
 11 49  1  0
 11 50  1  0
 12 51  1  0
 12 52  1  0
 14 53  1  0
 14 54  1  0
 14 55  1  0
 15 56  1  6
 16 57  1  0
 16 58  1  0
 17 59  1  0
 19 60  1  1
 20 61  1  0
 20 62  1  0
 21 63  1  0
 21 64  1  0
 22 65  1  1
 23 66  1  0
 25 67  1  0
 25 68  1  0
 25 69  1  0
 26 70  1  0
 26 71  1  0
 26 72  1  0
 28 73  1  0
 28 74  1  0
 28 75  1  0
 29 76  1  0
 29 77  1  0
 30 78  1  0
 30 79  1  0
 32 80  1  0
 32 81  1  0
 32 82  1  0
M  END
>  <meeko>  (19) 
{"is_sidechain": [false], "intermolecular_energy": 2.731, "internal_energy": -0.839}

$$$$
EPH_relaxed_0001_pdb2pqr_Repair_77_r2_0001_out
     RDKit          3D

 82 86  0  0  0  0  0  0  0  0999 V2000
   -1.6200   15.0460    0.4470 C   0  0  0  0  0  0  0  0  0  0  0  0
   -0.2750   15.7270    0.1810 C   0  0  2  0  0  0  0  0  0  0  0  0
   -0.3390   16.6910   -1.0210 C   0  0  0  0  0  0  0  0  0  0  0  0
   -0.0650   18.1510   -0.6540 C   0  0  0  0  0  0  0  0  0  0  0  0
    1.2730   18.3160    0.0010 C   0  0  2  0  0  0  0  0  0  0  0  0
    1.9710   19.5170   -0.3550 O   0  0  0  0  0  0  0  0  0  0  0  0
    2.5860   18.2830   -0.7580 C   0  0  0  0  0  0  0  0  0  0  0  0
    2.6250   18.0780   -2.2400 C   0  0  0  0  0  0  0  0  0  0  0  0
    3.8400   17.9610   -0.0070 C   0  0  0  0  0  0  0  0  0  0  0  0
    0.8030   14.6750   -0.0530 C   0  0  1  0  0  0  0  0  0  0  0  0
    0.9360   13.6820    1.1330 C   0  0  0  0  0  0  0  0  0  0  0  0
    1.2920   12.3020    0.5240 C   0  0  0  0  0  0  0  0  0  0  0  0
    1.6760   12.6100   -0.9420 C   0  0  1  0  0  0  0  0  0  0  0  0
    3.1550   13.1020   -0.8740 C   0  0  0  0  0  0  0  0  0  0  0  0
    1.5030   11.4380   -1.9630 C   0  0  2  0  0  0  0  0  0  0  0  0
    2.3770   10.2020   -1.6900 C   0  0  0  0  0  0  0  0  0  0  0  0
    3.7160   10.2080   -2.3520 C   0  0  0  0  0  0  0  0  0  0  0  0
    4.0880   11.0240   -3.3560 C   0  0  0  0  0  0  0  0  0  0  0  0
    3.0860   11.9950   -3.9940 C   0  0  1  0  0  0  0  0  0  0  0  0
    3.1940   11.9100   -5.5390 C   0  0  0  0  0  0  0  0  0  0  0  0
    4.6190   12.1290   -6.0390 C   0  0  0  0  0  0  0  0  0  0  0  0
    5.5740   11.1070   -5.4270 C   0  0  2  0  0  0  0  0  0  0  0  0
    5.2410    9.8080   -5.9250 O   0  0  0  0  0  0  0  0  0  0  0  0
    5.5450   11.0950   -3.8730 C   0  0  0  0  0  0  0  0  0  0  0  0
    6.1910   12.3930   -3.3300 C   0  0  0  0  0  0  0  0  0  0  0  0
    6.4460    9.9270   -3.3880 C   0  0  0  0  0  0  0  0  0  0  0  0
    1.5870   11.8820   -3.4790 C   0  0  1  0  0  0  0  0  0  0  0  0
    0.8220   10.8000   -4.3020 C   0  0  0  0  0  0  0  0  0  0  0  0
    0.8480   13.2460   -3.7450 C   0  0  0  0  0  0  0  0  0  0  0  0
    0.9560   14.3210   -2.6460 C   0  0  0  0  0  0  0  0  0  0  0  0
    0.6260   13.7340   -1.2710 C   0  0  2  0  0  0  0  0  0  0  0  0
   -0.8640   13.2500   -1.3020 C   0  0  0  0  0  0  0  0  0  0  0  0
   -1.7814   14.9643    1.5320 H   0  0  0  0  0  0  0  0  0  0  0  0
   -2.4282   15.6435    0.0001 H   0  0  0  0  0  0  0  0  0  0  0  0
   -1.6168   14.0409    0.0001 H   0  0  0  0  0  0  0  0  0  0  0  0
   -0.0256   16.3243    1.0704 H   0  0  0  0  0  0  0  0  0  0  0  0
    0.4095   16.3728   -1.7616 H   0  0  0  0  0  0  0  0  0  0  0  0
   -1.3650   16.6457   -1.4150 H   0  0  0  0  0  0  0  0  0  0  0  0
   -0.0911   18.7598   -1.5698 H   0  0  0  0  0  0  0  0  0  0  0  0
   -0.8379   18.4766    0.0578 H   0  0  0  0  0  0  0  0  0  0  0  0
    0.9254   17.7822    0.8978 H   0  0  0  0  0  0  0  0  0  0  0  0
    2.8265   17.0189   -2.4585 H   0  0  0  0  0  0  0  0  0  0  0  0
    1.6563   18.3644   -2.6754 H   0  0  0  0  0  0  0  0  0  0  0  0
    3.4209   18.7001   -2.6754 H   0  0  0  0  0  0  0  0  0  0  0  0
    3.6432   18.0115    1.0741 H   0  0  0  0  0  0  0  0  0  0  0  0
    4.1758   16.9475   -0.2716 H   0  0  0  0  0  0  0  0  0  0  0  0
    4.6226   18.6873   -0.2716 H   0  0  0  0  0  0  0  0  0  0  0  0
    1.6714   15.3322   -0.2079 H   0  0  0  0  0  0  0  0  0  0  0  0
    1.7332   14.0118    1.8154 H   0  0  0  0  0  0  0  0  0  0  0  0
    0.0011   13.6293    1.7103 H   0  0  0  0  0  0  0  0  0  0  0  0
    2.1384   11.8477    1.0599 H   0  0  0  0  0  0  0  0  0  0  0  0
    0.4592   11.5870    0.5957 H   0  0  0  0  0  0  0  0  0  0  0  0
    3.4597   13.2034    0.1781 H   0  0  0  0  0  0  0  0  0  0  0  0
    3.8075   12.3725   -1.3761 H   0  0  0  0  0  0  0  0  0  0  0  0
    3.2405   14.0770   -1.3761 H   0  0  0  0  0  0  0  0  0  0  0  0
    0.4665   11.1172   -1.7817 H   0  0  0  0  0  0  0  0  0  0  0  0
    2.5353   10.1310   -0.6038 H   0  0  0  0  0  0  0  0  0  0  0  0
    1.8324    9.3450   -2.1131 H   0  0  0  0  0  0  0  0  0  0  0  0
    4.4608    9.4847   -1.9885 H   0  0  0  0  0  0  0  0  0  0  0  0
    3.3782   12.9998   -3.6548 H   0  0  0  0  0  0  0  0  0  0  0  0
    2.8562   10.9142   -5.8618 H   0  0  0  0  0  0  0  0  0  0  0  0
    2.5655   12.7076   -5.9620 H   0  0  0  0  0  0  0  0  0  0  0  0
    4.6361   12.0272   -7.1341 H   0  0  0  0  0  0  0  0  0  0  0  0
    4.9449   13.1367   -5.7417 H   0  0  0  0  0  0  0  0  0  0  0  0
    6.5950   11.3939   -5.7190 H   0  0  0  0  0  0  0  0  0  0  0  0
    5.9650    9.5200   -6.5060 H   0  0  0  0  0  0  0  0  0  0  0  0
    6.1819   12.3748   -2.2302 H   0  0  0  0  0  0  0  0  0  0  0  0
    7.2291   12.4631   -3.6870 H   0  0  0  0  0  0  0  0  0  0  0  0
    5.6210   13.2634   -3.6870 H   0  0  0  0  0  0  0  0  0  0  0  0
    6.4609    9.9077   -2.2883 H   0  0  0  0  0  0  0  0  0  0  0  0
    6.0465    8.9744   -3.7661 H   0  0  0  0  0  0  0  0  0  0  0  0
    7.4688   10.0715   -3.7661 H   0  0  0  0  0  0  0  0  0  0  0  0
    0.3263   10.0989   -3.6144 H   0  0  0  0  0  0  0  0  0  0  0  0
    0.0668   11.2876   -4.9360 H   0  0  0  0  0  0  0  0  0  0  0  0
    1.5335   10.2506   -4.9360 H   0  0  0  0  0  0  0  0  0  0  0  0
    1.2615   13.6735   -4.6704 H   0  0  0  0  0  0  0  0  0  0  0  0
   -0.2207   12.9897   -3.7927 H   0  0  0  0  0  0  0  0  0  0  0  0
    1.9816   14.7184   -2.6309 H   0  0  0  0  0  0  0  0  0  0  0  0
    0.2358   15.1224   -2.8673 H   0  0  0  0  0  0  0  0  0  0  0  0
   -1.2322   13.1304   -0.2724 H   0  0  0  0  0  0  0  0  0  0  0  0
   -1.4804   13.9941   -1.8277 H   0  0  0  0  0  0  0  0  0  0  0  0
   -0.9254   12.2857   -1.8277 H   0  0  0  0  0  0  0  0  0  0  0  0
  1  2  1  0
  2  3  1  0
  3  4  1  0
  4  5  1  0
  5  6  1  0
  6  7  1  0
  7  8  1  0
  7  9  1  0
  2 10  1  0
 10 11  1  0
 11 12  1  0
 12 13  1  0
 13 14  1  1
 13 15  1  0
 15 16  1  0
 16 17  1  0
 17 18  2  0
 18 19  1  0
 19 20  1  0
 20 21  1  0
 21 22  1  0
 22 23  1  0
 22 24  1  0
 24 25  1  0
 24 26  1  0
 19 27  1  0
 27 28  1  6
 27 29  1  0
 29 30  1  0
 30 31  1  0
 31 32  1  6
  7  5  1  0
 31 10  1  0
 31 13  1  0
 27 15  1  0
 24 18  1  0
  1 33  1  0
  1 34  1  0
  1 35  1  0
  2 36  1  1
  3 37  1  0
  3 38  1  0
  4 39  1  0
  4 40  1  0
  5 41  1  1
  8 42  1  0
  8 43  1  0
  8 44  1  0
  9 45  1  0
  9 46  1  0
  9 47  1  0
 10 48  1  6
 11 49  1  0
 11 50  1  0
 12 51  1  0
 12 52  1  0
 14 53  1  0
 14 54  1  0
 14 55  1  0
 15 56  1  6
 16 57  1  0
 16 58  1  0
 17 59  1  0
 19 60  1  1
 20 61  1  0
 20 62  1  0
 21 63  1  0
 21 64  1  0
 22 65  1  1
 23 66  1  0
 25 67  1  0
 25 68  1  0
 25 69  1  0
 26 70  1  0
 26 71  1  0
 26 72  1  0
 28 73  1  0
 28 74  1  0
 28 75  1  0
 29 76  1  0
 29 77  1  0
 30 78  1  0
 30 79  1  0
 32 80  1  0
 32 81  1  0
 32 82  1  0
M  END
>  <meeko>  (20) 
{"is_sidechain": [false], "intermolecular_energy": 2.731, "internal_energy": -0.839}

$$$$
