EPH_relaxed_0001_pdb2pqr_Repair_245_r2_0001_out
     RDKit          3D

 82 86  0  0  0  0  0  0  0  0999 V2000
   -1.6820    8.5840   -1.8710 C   0  0  0  0  0  0  0  0  0  0  0  0
   -2.0670    9.1140   -0.4870 C   0  0  2  0  0  0  0  0  0  0  0  0
   -3.5610    9.4850   -0.4020 C   0  0  0  0  0  0  0  0  0  0  0  0
   -4.4890    8.2740   -0.2700 C   0  0  0  0  0  0  0  0  0  0  0  0
   -5.1760    7.9590   -1.5640 C   0  0  2  0  0  0  0  0  0  0  0  0
   -6.3620    8.7240   -1.8140 O   0  0  0  0  0  0  0  0  0  0  0  0
   -6.5440    7.3090   -1.6470 C   0  0  0  0  0  0  0  0  0  0  0  0
   -7.3070    6.9340   -0.4160 C   0  0  0  0  0  0  0  0  0  0  0  0
   -6.9220    6.5970   -2.9090 C   0  0  0  0  0  0  0  0  0  0  0  0
   -1.2090   10.3250   -0.1370 C   0  0  1  0  0  0  0  0  0  0  0  0
   -0.1730   10.0200    0.9780 C   0  0  0  0  0  0  0  0  0  0  0  0
    1.0940   10.8520    0.6500 C   0  0  0  0  0  0  0  0  0  0  0  0
    0.6350   11.8490   -0.4400 C   0  0  1  0  0  0  0  0  0  0  0  0
   -0.0720   13.0000    0.3420 C   0  0  0  0  0  0  0  0  0  0  0  0
    1.7500   12.3960   -1.3900 C   0  0  2  0  0  0  0  0  0  0  0  0
    2.8540   13.2140   -0.6970 C   0  0  0  0  0  0  0  0  0  0  0  0
    2.6000   14.6820   -0.6100 C   0  0  0  0  0  0  0  0  0  0  0  0
    1.6720   15.3590   -1.3140 C   0  0  0  0  0  0  0  0  0  0  0  0
    0.8250   14.6550   -2.3810 C   0  0  1  0  0  0  0  0  0  0  0  0
    0.7910   15.5200   -3.6690 C   0  0  0  0  0  0  0  0  0  0  0  0
    0.3250   16.9480   -3.4020 C   0  0  0  0  0  0  0  0  0  0  0  0
    1.2270   17.6340   -2.3790 C   0  0  2  0  0  0  0  0  0  0  0  0
    2.5260   17.8070   -2.9530 O   0  0  0  0  0  0  0  0  0  0  0  0
    1.3460   16.8480   -1.0430 C   0  0  0  0  0  0  0  0  0  0  0  0
    0.0030   16.9200   -0.2760 C   0  0  0  0  0  0  0  0  0  0  0  0
    2.3920   17.5730   -0.1550 C   0  0  0  0  0  0  0  0  0  0  0  0
    1.2000   13.1380   -2.6750 C   0  0  1  0  0  0  0  0  0  0  0  0
    2.3290   13.0670   -3.7480 C   0  0  0  0  0  0  0  0  0  0  0  0
   -0.0510   12.4110   -3.2960 C   0  0  0  0  0  0  0  0  0  0  0  0
   -1.0550   11.7870   -2.3080 C   0  0  0  0  0  0  0  0  0  0  0  0
   -0.3350   10.9270   -1.2650 C   0  0  2  0  0  0  0  0  0  0  0  0
    0.3670    9.7470   -2.0210 C   0  0  0  0  0  0  0  0  0  0  0  0
   -1.0389    7.6987   -1.7587 H   0  0  0  0  0  0  0  0  0  0  0  0
   -2.5919    8.3084   -2.4243 H   0  0  0  0  0  0  0  0  0  0  0  0
   -1.1386    9.3641   -2.4243 H   0  0  0  0  0  0  0  0  0  0  0  0
   -1.8855    8.3072    0.2384 H   0  0  0  0  0  0  0  0  0  0  0  0
   -3.7087   10.1330    0.4745 H   0  0  0  0  0  0  0  0  0  0  0  0
   -3.8215    9.9886   -1.3446 H   0  0  0  0  0  0  0  0  0  0  0  0
   -3.8949    7.4016    0.0399 H   0  0  0  0  0  0  0  0  0  0  0  0
   -5.2593    8.5120    0.4783 H   0  0  0  0  0  0  0  0  0  0  0  0
   -4.2152    7.7205   -2.0436 H   0  0  0  0  0  0  0  0  0  0  0  0
   -6.7281    7.2185    0.4751 H   0  0  0  0  0  0  0  0  0  0  0  0
   -8.2731    7.4599   -0.4090 H   0  0  0  0  0  0  0  0  0  0  0  0
   -7.4808    5.8478   -0.4090 H   0  0  0  0  0  0  0  0  0  0  0  0
   -7.4244    5.6507   -2.6597 H   0  0  0  0  0  0  0  0  0  0  0  0
   -7.6029    7.2298   -3.4971 H   0  0  0  0  0  0  0  0  0  0  0  0
   -6.0164    6.3875   -3.4971 H   0  0  0  0  0  0  0  0  0  0  0  0
   -1.9992   11.0360    0.1459 H   0  0  0  0  0  0  0  0  0  0  0  0
   -0.5750   10.3127    1.9592 H   0  0  0  0  0  0  0  0  0  0  0  0
    0.0592    8.9456    1.0187 H   0  0  0  0  0  0  0  0  0  0  0  0
    1.4481   11.3885    1.5426 H   0  0  0  0  0  0  0  0  0  0  0  0
    1.9309   10.2224    0.3135 H   0  0  0  0  0  0  0  0  0  0  0  0
    0.0339   12.8276    1.4232 H   0  0  0  0  0  0  0  0  0  0  0  0
    0.3912   13.9619    0.0769 H   0  0  0  0  0  0  0  0  0  0  0  0
   -1.1394   13.0217    0.0769 H   0  0  0  0  0  0  0  0  0  0  0  0
    2.2368   11.4733   -1.7387 H   0  0  0  0  0  0  0  0  0  0  0  0
    2.9714   12.8281    0.3264 H   0  0  0  0  0  0  0  0  0  0  0  0
    3.7545   13.0972   -1.3178 H   0  0  0  0  0  0  0  0  0  0  0  0
    3.2232   15.2603    0.0880 H   0  0  0  0  0  0  0  0  0  0  0  0
   -0.1876   14.5725   -1.9594 H   0  0  0  0  0  0  0  0  0  0  0  0
    1.8033   15.5537   -4.0980 H   0  0  0  0  0  0  0  0  0  0  0  0
    0.0728   15.0584   -4.3626 H   0  0  0  0  0  0  0  0  0  0  0  0
    0.3504   17.5169   -4.3431 H   0  0  0  0  0  0  0  0  0  0  0  0
   -0.6986   16.9140   -3.0006 H   0  0  0  0  0  0  0  0  0  0  0  0
    0.7694   18.6035   -2.1327 H   0  0  0  0  0  0  0  0  0  0  0  0
    3.1120   18.1500   -2.2570 H   0  0  0  0  0  0  0  0  0  0  0  0
    0.1980   16.9095    0.8065 H   0  0  0  0  0  0  0  0  0  0  0  0
   -0.5235   17.8477   -0.5448 H   0  0  0  0  0  0  0  0  0  0  0  0
   -0.6197   16.0539   -0.5448 H   0  0  0  0  0  0  0  0  0  0  0  0
    2.1514   17.4062    0.9053 H   0  0  0  0  0  0  0  0  0  0  0  0
    3.3946   17.1752   -0.3704 H   0  0  0  0  0  0  0  0  0  0  0  0
    2.3714   18.6515   -0.3704 H   0  0  0  0  0  0  0  0  0  0  0  0
    3.3068   13.0055   -3.2479 H   0  0  0  0  0  0  0  0  0  0  0  0
    2.1820   12.1763   -4.3766 H   0  0  0  0  0  0  0  0  0  0  0  0
    2.2947   13.9691   -4.3766 H   0  0  0  0  0  0  0  0  0  0  0  0
   -0.5966   13.1484   -3.9032 H   0  0  0  0  0  0  0  0  0  0  0  0
    0.3614   11.5620   -3.8609 H   0  0  0  0  0  0  0  0  0  0  0  0
   -1.6026   12.5915   -1.7952 H   0  0  0  0  0  0  0  0  0  0  0  0
   -1.7499   11.1468   -2.8714 H   0  0  0  0  0  0  0  0  0  0  0  0
    0.7870    9.0411   -1.2894 H   0  0  0  0  0  0  0  0  0  0  0  0
   -0.3685    9.2267   -2.6521 H   0  0  0  0  0  0  0  0  0  0  0  0
    1.1752   10.1451   -2.6521 H   0  0  0  0  0  0  0  0  0  0  0  0
  1  2  1  0
  2  3  1  0
  3  4  1  0
  4  5  1  0
  5  6  1  0
  6  7  1  0
  7  8  1  0
  7  9  1  0
  2 10  1  0
 10 11  1  0
 11 12  1  0
 12 13  1  0
 13 14  1  1
 13 15  1  0
 15 16  1  0
 16 17  1  0
 17 18  2  0
 18 19  1  0
 19 20  1  0
 20 21  1  0
 21 22  1  0
 22 23  1  0
 22 24  1  0
 24 25  1  0
 24 26  1  0
 19 27  1  0
 27 28  1  6
 27 29  1  0
 29 30  1  0
 30 31  1  0
 31 32  1  6
  7  5  1  0
 31 10  1  0
 31 13  1  0
 27 15  1  0
 24 18  1  0
  1 33  1  0
  1 34  1  0
  1 35  1  0
  2 36  1  1
  3 37  1  0
  3 38  1  0
  4 39  1  0
  4 40  1  0
  5 41  1  6
  8 42  1  0
  8 43  1  0
  8 44  1  0
  9 45  1  0
  9 46  1  0
  9 47  1  0
 10 48  1  1
 11 49  1  0
 11 50  1  0
 12 51  1  0
 12 52  1  0
 14 53  1  0
 14 54  1  0
 14 55  1  0
 15 56  1  6
 16 57  1  0
 16 58  1  0
 17 59  1  0
 19 60  1  1
 20 61  1  0
 20 62  1  0
 21 63  1  0
 21 64  1  0
 22 65  1  1
 23 66  1  0
 25 67  1  0
 25 68  1  0
 25 69  1  0
 26 70  1  0
 26 71  1  0
 26 72  1  0
 28 73  1  0
 28 74  1  0
 28 75  1  0
 29 76  1  0
 29 77  1  0
 30 78  1  0
 30 79  1  0
 32 80  1  0
 32 81  1  0
 32 82  1  0
M  END
>  <meeko>  (1) 
{"is_sidechain": [false], "intermolecular_energy": 2.731, "internal_energy": -0.839}

$$$$
EPH_relaxed_0001_pdb2pqr_Repair_245_r2_0001_out
     RDKit          3D

 82 86  0  0  0  0  0  0  0  0999 V2000
    0.4390   18.3870    0.0030 C   0  0  0  0  0  0  0  0  0  0  0  0
    1.5230   17.3300   -0.2270 C   0  0  2  0  0  0  0  0  0  0  0  0
    2.7310   17.8960   -1.0010 C   0  0  0  0  0  0  0  0  0  0  0  0
    3.9660   18.1320   -0.1280 C   0  0  0  0  0  0  0  0  0  0  0  0
    3.5920   18.6020    1.2450 C   0  0  2  0  0  0  0  0  0  0  0  0
    3.8400   19.9930    1.4900 O   0  0  0  0  0  0  0  0  0  0  0  0
    4.6060   19.0650    2.2760 C   0  0  0  0  0  0  0  0  0  0  0  0
    6.0720   19.0790    1.9760 C   0  0  0  0  0  0  0  0  0  0  0  0
    4.2190   19.0380    3.7220 C   0  0  0  0  0  0  0  0  0  0  0  0
    0.9370   16.1390   -0.9750 C   0  0  1  0  0  0  0  0  0  0  0  0
    0.7950   16.4010   -2.4980 C   0  0  0  0  0  0  0  0  0  0  0  0
    1.0710   15.0520   -3.2120 C   0  0  0  0  0  0  0  0  0  0  0  0
    1.0350   13.9980   -2.0810 C   0  0  1  0  0  0  0  0  0  0  0  0
   -0.4820   13.7090   -1.8510 C   0  0  0  0  0  0  0  0  0  0  0  0
    1.8400   12.6830   -2.3360 C   0  0  2  0  0  0  0  0  0  0  0  0
    1.3560   11.8410   -3.5300 C   0  0  0  0  0  0  0  0  0  0  0  0
    0.3220   10.8130   -3.2080 C   0  0  0  0  0  0  0  0  0  0  0  0
    0.0100   10.3790   -1.9730 C   0  0  0  0  0  0  0  0  0  0  0  0
    0.7940   10.8610   -0.7460 C   0  0  1  0  0  0  0  0  0  0  0  0
    1.1530    9.6460    0.1490 C   0  0  0  0  0  0  0  0  0  0  0  0
   -0.0700    8.8170    0.5280 C   0  0  0  0  0  0  0  0  0  0  0  0
   -0.7900    8.3070   -0.7170 C   0  0  2  0  0  0  0  0  0  0  0  0
    0.0560    7.3680   -1.3870 O   0  0  0  0  0  0  0  0  0  0  0  0
   -1.1930    9.4420   -1.7000 C   0  0  0  0  0  0  0  0  0  0  0  0
   -2.3350   10.2850   -1.0820 C   0  0  0  0  0  0  0  0  0  0  0  0
   -1.7820    8.7820   -2.9760 C   0  0  0  0  0  0  0  0  0  0  0  0
    2.0490   11.7890   -1.0470 C   0  0  1  0  0  0  0  0  0  0  0  0
    3.3090   10.9110   -1.3120 C   0  0  0  0  0  0  0  0  0  0  0  0
    2.3690   12.6500    0.2320 C   0  0  0  0  0  0  0  0  0  0  0  0
    1.6300   13.9950    0.3670 C   0  0  0  0  0  0  0  0  0  0  0  0
    1.7290   14.8080   -0.9270 C   0  0  2  0  0  0  0  0  0  0  0  0
    3.2420   15.1330   -1.1730 C   0  0  0  0  0  0  0  0  0  0  0  0
    0.2910   18.5313    1.0834 H   0  0  0  0  0  0  0  0  0  0  0  0
    0.7507   19.3375   -0.4546 H   0  0  0  0  0  0  0  0  0  0  0  0
   -0.5033   18.0514   -0.4546 H   0  0  0  0  0  0  0  0  0  0  0  0
    1.8853   17.0072    0.7602 H   0  0  0  0  0  0  0  0  0  0  0  0
    2.9985   17.1842   -1.7958 H   0  0  0  0  0  0  0  0  0  0  0  0
    2.4272   18.8754   -1.3992 H   0  0  0  0  0  0  0  0  0  0  0  0
    4.5271   17.1898   -0.0418 H   0  0  0  0  0  0  0  0  0  0  0  0
    4.5779   18.9129   -0.6031 H   0  0  0  0  0  0  0  0  0  0  0  0
    2.7678   17.8753    1.2951 H   0  0  0  0  0  0  0  0  0  0  0  0
    6.6391   19.0844    2.9185 H   0  0  0  0  0  0  0  0  0  0  0  0
    6.3358   18.1833    1.3945 H   0  0  0  0  0  0  0  0  0  0  0  0
    6.3187   19.9795    1.3945 H   0  0  0  0  0  0  0  0  0  0  0  0
    5.1235   19.1011    4.3449 H   0  0  0  0  0  0  0  0  0  0  0  0
    3.5621   19.8925    3.9418 H   0  0  0  0  0  0  0  0  0  0  0  0
    3.6871   18.1006    3.9418 H   0  0  0  0  0  0  0  0  0  0  0  0
   -0.0135   16.0308   -0.4320 H   0  0  0  0  0  0  0  0  0  0  0  0
   -0.2221   16.7506   -2.7290 H   0  0  0  0  0  0  0  0  0  0  0  0
    1.4998   17.1764   -2.8327 H   0  0  0  0  0  0  0  0  0  0  0  0
    0.2939   14.8435   -3.9621 H   0  0  0  0  0  0  0  0  0  0  0  0
    2.0301   15.0535   -3.7507 H   0  0  0  0  0  0  0  0  0  0  0  0
   -0.6882   13.6697   -0.7712 H   0  0  0  0  0  0  0  0  0  0  0  0
   -1.0814   14.5091   -2.3099 H   0  0  0  0  0  0  0  0  0  0  0  0
   -0.7452   12.7446   -2.3099 H   0  0  0  0  0  0  0  0  0  0  0  0
    2.8301   13.0670   -2.6226 H   0  0  0  0  0  0  0  0  0  0  0  0
    0.9326   12.5259   -4.2795 H   0  0  0  0  0  0  0  0  0  0  0  0
    2.2359   11.2860   -3.8876 H   0  0  0  0  0  0  0  0  0  0  0  0
   -0.2312   10.3735   -4.0511 H   0  0  0  0  0  0  0  0  0  0  0  0
    0.1208   11.5394   -0.2015 H   0  0  0  0  0  0  0  0  0  0  0  0
    1.8596    9.0030   -0.3962 H   0  0  0  0  0  0  0  0  0  0  0  0
    1.5939   10.0349    1.0787 H   0  0  0  0  0  0  0  0  0  0  0  0
    0.2514    7.9580    1.1353 H   0  0  0  0  0  0  0  0  0  0  0  0
   -0.7626    9.4534    1.0983 H   0  0  0  0  0  0  0  0  0  0  0  0
   -1.7254    7.8325   -0.3857 H   0  0  0  0  0  0  0  0  0  0  0  0
    0.4090    6.7590   -0.7160 H   0  0  0  0  0  0  0  0  0  0  0  0
   -2.2724   10.2388    0.0152 H   0  0  0  0  0  0  0  0  0  0  0  0
   -2.2386   11.3302   -1.4111 H   0  0  0  0  0  0  0  0  0  0  0  0
   -3.3054    9.8850   -1.4111 H   0  0  0  0  0  0  0  0  0  0  0  0
   -2.4886    7.9902   -2.6865 H   0  0  0  0  0  0  0  0  0  0  0  0
   -2.3075    9.5421   -3.5728 H   0  0  0  0  0  0  0  0  0  0  0  0
   -0.9672    8.3461   -3.5728 H   0  0  0  0  0  0  0  0  0  0  0  0
    3.7501   10.6036   -0.3524 H   0  0  0  0  0  0  0  0  0  0  0  0
    3.0196   10.0179   -1.8853 H   0  0  0  0  0  0  0  0  0  0  0  0
    4.0466   11.4917   -1.8853 H   0  0  0  0  0  0  0  0  0  0  0  0
    2.1175   12.0422    1.1137 H   0  0  0  0  0  0  0  0  0  0  0  0
    3.4330   12.9141    0.1422 H   0  0  0  0  0  0  0  0  0  0  0  0
    0.5703   13.8023    0.5906 H   0  0  0  0  0  0  0  0  0  0  0  0
    2.0967   14.5713    1.1795 H   0  0  0  0  0  0  0  0  0  0  0  0
    3.7552   15.2432   -0.2063 H   0  0  0  0  0  0  0  0  0  0  0  0
    3.7051   14.3138   -1.7427 H   0  0  0  0  0  0  0  0  0  0  0  0
    3.3278   16.0701   -1.7427 H   0  0  0  0  0  0  0  0  0  0  0  0
  1  2  1  0
  2  3  1  0
  3  4  1  0
  4  5  1  0
  5  6  1  0
  6  7  1  0
  7  8  1  0
  7  9  1  0
  2 10  1  0
 10 11  1  0
 11 12  1  0
 12 13  1  0
 13 14  1  1
 13 15  1  0
 15 16  1  0
 16 17  1  0
 17 18  2  0
 18 19  1  0
 19 20  1  0
 20 21  1  0
 21 22  1  0
 22 23  1  0
 22 24  1  0
 24 25  1  0
 24 26  1  0
 19 27  1  0
 27 28  1  6
 27 29  1  0
 29 30  1  0
 30 31  1  0
 31 32  1  6
  7  5  1  0
 31 10  1  0
 31 13  1  0
 27 15  1  0
 24 18  1  0
  1 33  1  0
  1 34  1  0
  1 35  1  0
  2 36  1  1
  3 37  1  0
  3 38  1  0
  4 39  1  0
  4 40  1  0
  5 41  1  1
  8 42  1  0
  8 43  1  0
  8 44  1  0
  9 45  1  0
  9 46  1  0
  9 47  1  0
 10 48  1  1
 11 49  1  0
 11 50  1  0
 12 51  1  0
 12 52  1  0
 14 53  1  0
 14 54  1  0
 14 55  1  0
 15 56  1  6
 16 57  1  0
 16 58  1  0
 17 59  1  0
 19 60  1  1
 20 61  1  0
 20 62  1  0
 21 63  1  0
 21 64  1  0
 22 65  1  1
 23 66  1  0
 25 67  1  0
 25 68  1  0
 25 69  1  0
 26 70  1  0
 26 71  1  0
 26 72  1  0
 28 73  1  0
 28 74  1  0
 28 75  1  0
 29 76  1  0
 29 77  1  0
 30 78  1  0
 30 79  1  0
 32 80  1  0
 32 81  1  0
 32 82  1  0
M  END
>  <meeko>  (2) 
{"is_sidechain": [false], "intermolecular_energy": 2.731, "internal_energy": -0.839}

$$$$
EPH_relaxed_0001_pdb2pqr_Repair_245_r2_0001_out
     RDKit          3D

 82 86  0  0  0  0  0  0  0  0999 V2000
    2.4020   17.9360   -2.7720 C   0  0  0  0  0  0  0  0  0  0  0  0
    1.1350   17.5530   -2.0020 C   0  0  2  0  0  0  0  0  0  0  0  0
    1.3460   17.5990   -0.4760 C   0  0  0  0  0  0  0  0  0  0  0  0
    1.0760   18.9740    0.1410 C   0  0  0  0  0  0  0  0  0  0  0  0
   -0.3570   19.1260    0.5520 C   0  0  2  0  0  0  0  0  0  0  0  0
   -1.2630   18.2180   -0.0900 O   0  0  0  0  0  0  0  0  0  0  0  0
   -1.4490   19.6130   -0.3830 C   0  0  0  0  0  0  0  0  0  0  0  0
   -1.1520   19.9800   -1.8030 C   0  0  0  0  0  0  0  0  0  0  0  0
   -2.6940   20.1930    0.2110 C   0  0  0  0  0  0  0  0  0  0  0  0
    0.6720   16.1630   -2.4220 C   0  0  1  0  0  0  0  0  0  0  0  0
    0.7830   15.9330   -3.9530 C   0  0  0  0  0  0  0  0  0  0  0  0
    1.1650   14.4440   -4.1550 C   0  0  0  0  0  0  0  0  0  0  0  0
    0.9370   13.7910   -2.7710 C   0  0  1  0  0  0  0  0  0  0  0  0
   -0.5980   13.5190   -2.7040 C   0  0  0  0  0  0  0  0  0  0  0  0
    1.7660   12.5000   -2.4710 C   0  0  2  0  0  0  0  0  0  0  0  0
    1.4790   11.3090   -3.4020 C   0  0  0  0  0  0  0  0  0  0  0  0
    0.4010   10.3850   -2.9410 C   0  0  0  0  0  0  0  0  0  0  0  0
   -0.1130   10.3410   -1.6980 C   0  0  0  0  0  0  0  0  0  0  0  0
    0.4630   11.2150   -0.5760 C   0  0  1  0  0  0  0  0  0  0  0  0
    0.6630   10.3560    0.6990 C   0  0  0  0  0  0  0  0  0  0  0  0
   -0.6110    9.6300    1.1210 C   0  0  0  0  0  0  0  0  0  0  0  0
   -1.1200    8.7260    0.0010 C   0  0  2  0  0  0  0  0  0  0  0  0
   -0.1800    7.6660   -0.1990 O   0  0  0  0  0  0  0  0  0  0  0  0
   -1.3490    9.4810   -1.3380 C   0  0  0  0  0  0  0  0  0  0  0  0
   -2.5730   10.4210   -1.2040 C   0  0  0  0  0  0  0  0  0  0  0  0
   -1.7250    8.4310   -2.4190 C   0  0  0  0  0  0  0  0  0  0  0  0
    1.7550   12.0610   -0.9510 C   0  0  1  0  0  0  0  0  0  0  0  0
    3.0370   11.2030   -0.7260 C   0  0  0  0  0  0  0  0  0  0  0  0
    1.8660   13.2900    0.0270 C   0  0  0  0  0  0  0  0  0  0  0  0
    1.1230   14.5750   -0.3840 C   0  0  0  0  0  0  0  0  0  0  0  0
    1.4380   14.9510   -1.8350 C   0  0  2  0  0  0  0  0  0  0  0  0
    2.9730   15.2520   -1.9280 C   0  0  0  0  0  0  0  0  0  0  0  0
    3.2046   18.1786   -2.0599 H   0  0  0  0  0  0  0  0  0  0  0  0
    2.7157   17.0925   -3.4046 H   0  0  0  0  0  0  0  0  0  0  0  0
    2.1959   18.8120   -3.4046 H   0  0  0  0  0  0  0  0  0  0  0  0
    0.3607   18.2939   -2.2502 H   0  0  0  0  0  0  0  0  0  0  0  0
    0.6676   16.8696   -0.0094 H   0  0  0  0  0  0  0  0  0  0  0  0
    2.4048   17.3655   -0.2905 H   0  0  0  0  0  0  0  0  0  0  0  0
    1.7160   19.0990    1.0269 H   0  0  0  0  0  0  0  0  0  0  0  0
    1.2980   19.7394   -0.6172 H   0  0  0  0  0  0  0  0  0  0  0  0
   -0.0585   19.4387    1.5635 H   0  0  0  0  0  0  0  0  0  0  0  0
   -0.4601   20.8349   -1.8237 H   0  0  0  0  0  0  0  0  0  0  0  0
   -0.6906   19.1224   -2.3145 H   0  0  0  0  0  0  0  0  0  0  0  0
   -2.0869   20.2524   -2.3145 H   0  0  0  0  0  0  0  0  0  0  0  0
   -2.6259   20.1613    1.3084 H   0  0  0  0  0  0  0  0  0  0  0  0
   -2.8064   21.2362   -0.1194 H   0  0  0  0  0  0  0  0  0  0  0  0
   -3.5649   19.6079   -0.1194 H   0  0  0  0  0  0  0  0  0  0  0  0
   -0.3555   16.1848   -2.0299 H   0  0  0  0  0  0  0  0  0  0  0  0
   -0.1806   16.1462   -4.4389 H   0  0  0  0  0  0  0  0  0  0  0  0
    1.5372   16.5982   -4.3987 H   0  0  0  0  0  0  0  0  0  0  0  0
    0.5211   13.9776   -4.9152 H   0  0  0  0  0  0  0  0  0  0  0  0
    2.1999   14.3231   -4.5077 H   0  0  0  0  0  0  0  0  0  0  0  0
   -0.9149   13.4629   -1.6521 H   0  0  0  0  0  0  0  0  0  0  0  0
   -1.1373   14.3356   -3.2063 H   0  0  0  0  0  0  0  0  0  0  0  0
   -0.8239   12.5668   -3.2063 H   0  0  0  0  0  0  0  0  0  0  0  0
    2.7925   12.8201   -2.7032 H   0  0  0  0  0  0  0  0  0  0  0  0
    1.1874   11.7082   -4.3846 H   0  0  0  0  0  0  0  0  0  0  0  0
    2.4024   10.7117   -3.4257 H   0  0  0  0  0  0  0  0  0  0  0  0
   -0.0079    9.6803   -3.6800 H   0  0  0  0  0  0  0  0  0  0  0  0
   -0.2864   11.9971   -0.3845 H   0  0  0  0  0  0  0  0  0  0  0  0
    1.4458    9.6088    0.5016 H   0  0  0  0  0  0  0  0  0  0  0  0
    0.9476   11.0339    1.5172 H   0  0  0  0  0  0  0  0  0  0  0  0
   -0.3988    9.0175    2.0097 H   0  0  0  0  0  0  0  0  0  0  0  0
   -1.3841   10.3794    1.3462 H   0  0  0  0  0  0  0  0  0  0  0  0
   -2.0997    8.3343    0.3121 H   0  0  0  0  0  0  0  0  0  0  0  0
    0.3690    7.6050    0.6010 H   0  0  0  0  0  0  0  0  0  0  0  0
   -2.7916   10.5888   -0.1391 H   0  0  0  0  0  0  0  0  0  0  0  0
   -2.3512   11.3831   -1.6889 H   0  0  0  0  0  0  0  0  0  0  0  0
   -3.4453    9.9585   -1.6889 H   0  0  0  0  0  0  0  0  0  0  0  0
   -2.0571    7.5036   -1.9295 H   0  0  0  0  0  0  0  0  0  0  0  0
   -2.5377    8.8257   -3.0465 H   0  0  0  0  0  0  0  0  0  0  0  0
   -0.8465    8.2201   -3.0465 H   0  0  0  0  0  0  0  0  0  0  0  0
    3.2141   11.0845    0.3532 H   0  0  0  0  0  0  0  0  0  0  0  0
    2.9012   10.2132   -1.1862 H   0  0  0  0  0  0  0  0  0  0  0  0
    3.9003   11.7060   -1.1862 H   0  0  0  0  0  0  0  0  0  0  0  0
    1.4700   12.9747    1.0036 H   0  0  0  0  0  0  0  0  0  0  0  0
    2.9319   13.5618    0.0272 H   0  0  0  0  0  0  0  0  0  0  0  0
    0.0399   14.4127   -0.2815 H   0  0  0  0  0  0  0  0  0  0  0  0
    1.4534   15.3953    0.2702 H   0  0  0  0  0  0  0  0  0  0  0  0
    3.3926   15.3343   -0.9145 H   0  0  0  0  0  0  0  0  0  0  0  0
    3.4748   14.4352   -2.4674 H   0  0  0  0  0  0  0  0  0  0  0  0
    3.1292   16.1979   -2.4674 H   0  0  0  0  0  0  0  0  0  0  0  0
  1  2  1  0
  2  3  1  0
  3  4  1  0
  4  5  1  0
  5  6  1  0
  6  7  1  0
  7  8  1  0
  7  9  1  0
  2 10  1  0
 10 11  1  0
 11 12  1  0
 12 13  1  0
 13 14  1  1
 13 15  1  0
 15 16  1  0
 16 17  1  0
 17 18  2  0
 18 19  1  0
 19 20  1  0
 20 21  1  0
 21 22  1  0
 22 23  1  0
 22 24  1  0
 24 25  1  0
 24 26  1  0
 19 27  1  0
 27 28  1  6
 27 29  1  0
 29 30  1  0
 30 31  1  0
 31 32  1  1
  7  5  1  0
 31 10  1  0
 31 13  1  0
 27 15  1  0
 24 18  1  0
  1 33  1  0
  1 34  1  0
  1 35  1  0
  2 36  1  1
  3 37  1  0
  3 38  1  0
  4 39  1  0
  4 40  1  0
  5 41  1  1
  8 42  1  0
  8 43  1  0
  8 44  1  0
  9 45  1  0
  9 46  1  0
  9 47  1  0
 10 48  1  1
 11 49  1  0
 11 50  1  0
 12 51  1  0
 12 52  1  0
 14 53  1  0
 14 54  1  0
 14 55  1  0
 15 56  1  6
 16 57  1  0
 16 58  1  0
 17 59  1  0
 19 60  1  1
 20 61  1  0
 20 62  1  0
 21 63  1  0
 21 64  1  0
 22 65  1  1
 23 66  1  0
 25 67  1  0
 25 68  1  0
 25 69  1  0
 26 70  1  0
 26 71  1  0
 26 72  1  0
 28 73  1  0
 28 74  1  0
 28 75  1  0
 29 76  1  0
 29 77  1  0
 30 78  1  0
 30 79  1  0
 32 80  1  0
 32 81  1  0
 32 82  1  0
M  END
>  <meeko>  (3) 
{"is_sidechain": [false], "intermolecular_energy": 2.731, "internal_energy": -0.839}

$$$$
EPH_relaxed_0001_pdb2pqr_Repair_245_r2_0001_out
     RDKit          3D

 82 86  0  0  0  0  0  0  0  0999 V2000
    2.2110   17.9820   -2.5740 C   0  0  0  0  0  0  0  0  0  0  0  0
    0.6890   17.8330   -2.6340 C   0  0  2  0  0  0  0  0  0  0  0  0
    0.0080   18.3000   -1.3310 C   0  0  0  0  0  0  0  0  0  0  0  0
    0.7640   17.8960   -0.0630 C   0  0  0  0  0  0  0  0  0  0  0  0
    1.2900   19.0900    0.6740 C   0  0  2  0  0  0  0  0  0  0  0  0
    2.1740   19.9230   -0.0890 O   0  0  0  0  0  0  0  0  0  0  0  0
    2.7490   19.2650    1.0520 C   0  0  0  0  0  0  0  0  0  0  0  0
    3.7740   18.2310    0.7060 C   0  0  0  0  0  0  0  0  0  0  0  0
    3.0910   20.1940    2.1750 C   0  0  0  0  0  0  0  0  0  0  0  0
    0.3190   16.3830   -2.9240 C   0  0  1  0  0  0  0  0  0  0  0  0
    0.3970   16.0380   -4.4350 C   0  0  0  0  0  0  0  0  0  0  0  0
    0.8840   14.5690   -4.5330 C   0  0  0  0  0  0  0  0  0  0  0  0
    0.7520   14.0170   -3.0950 C   0  0  1  0  0  0  0  0  0  0  0  0
   -0.7550   13.6390   -2.9470 C   0  0  0  0  0  0  0  0  0  0  0  0
    1.6860   12.8190   -2.7260 C   0  0  2  0  0  0  0  0  0  0  0  0
    1.4590   11.5380   -3.5480 C   0  0  0  0  0  0  0  0  0  0  0  0
    0.4700   10.5780   -2.9730 C   0  0  0  0  0  0  0  0  0  0  0  0
    0.0030   10.5980   -1.7110 C   0  0  0  0  0  0  0  0  0  0  0  0
    0.5470   11.6010   -0.6860 C   0  0  1  0  0  0  0  0  0  0  0  0
    0.8530   10.8660    0.6450 C   0  0  0  0  0  0  0  0  0  0  0  0
   -0.3470   10.0860    1.1720 C   0  0  0  0  0  0  0  0  0  0  0  0
   -0.8230    9.0590    0.1480 C   0  0  2  0  0  0  0  0  0  0  0  0
    0.1870    8.0570   -0.0040 O   0  0  0  0  0  0  0  0  0  0  0  0
   -1.1530    9.6830   -1.2370 C   0  0  0  0  0  0  0  0  0  0  0  0
   -2.4390   10.5390   -1.1300 C   0  0  0  0  0  0  0  0  0  0  0  0
   -1.4830    8.5240   -2.2160 C   0  0  0  0  0  0  0  0  0  0  0  0
    1.7580   12.5060   -1.1760 C   0  0  1  0  0  0  0  0  0  0  0  0
    3.1080   11.7640   -0.9340 C   0  0  0  0  0  0  0  0  0  0  0  0
    1.8080   13.8150   -0.3030 C   0  0  0  0  0  0  0  0  0  0  0  0
    0.9560   15.0050   -0.7860 C   0  0  0  0  0  0  0  0  0  0  0  0
    1.1940   15.2820   -2.2730 C   0  0  2  0  0  0  0  0  0  0  0  0
    2.6970   15.6860   -2.4500 C   0  0  0  0  0  0  0  0  0  0  0  0
    2.5352   18.0137   -1.5233 H   0  0  0  0  0  0  0  0  0  0  0  0
    2.6834   17.1258   -3.0778 H   0  0  0  0  0  0  0  0  0  0  0  0
    2.5084   18.9136   -3.0778 H   0  0  0  0  0  0  0  0  0  0  0  0
    0.3254   18.4789   -3.4468 H   0  0  0  0  0  0  0  0  0  0  0  0
   -0.0705   19.3970   -1.3540 H   0  0  0  0  0  0  0  0  0  0  0  0
   -0.9758   17.8098   -1.2888 H   0  0  0  0  0  0  0  0  0  0  0  0
    0.0810   17.3419    0.5977 H   0  0  0  0  0  0  0  0  0  0  0  0
    1.6200   17.2717   -0.3589 H   0  0  0  0  0  0  0  0  0  0  0  0
    0.3621   19.1662    1.2599 H   0  0  0  0  0  0  0  0  0  0  0  0
    4.1939   17.8074    1.6302 H   0  0  0  0  0  0  0  0  0  0  0  0
    3.3029   17.4305    0.1167 H   0  0  0  0  0  0  0  0  0  0  0  0
    4.5786   18.6951    0.1167 H   0  0  0  0  0  0  0  0  0  0  0  0
    2.9060   19.6915    3.1359 H   0  0  0  0  0  0  0  0  0  0  0  0
    4.1520   20.4763    2.1072 H   0  0  0  0  0  0  0  0  0  0  0  0
    2.4663   21.0969    2.1072 H   0  0  0  0  0  0  0  0  0  0  0  0
   -0.6936   16.3612   -2.4950 H   0  0  0  0  0  0  0  0  0  0  0  0
   -0.5953   16.1400   -4.8987 H   0  0  0  0  0  0  0  0  0  0  0  0
    1.0834   16.7180   -4.9608 H   0  0  0  0  0  0  0  0  0  0  0  0
    0.2526   13.9962   -5.2282 H   0  0  0  0  0  0  0  0  0  0  0  0
    1.9129   14.4955   -4.9150 H   0  0  0  0  0  0  0  0  0  0  0  0
   -1.0137   13.5741   -1.8798 H   0  0  0  0  0  0  0  0  0  0  0  0
   -1.3753   14.4094   -3.4284 H   0  0  0  0  0  0  0  0  0  0  0  0
   -0.9382   12.6671   -3.4284 H   0  0  0  0  0  0  0  0  0  0  0  0
    2.6772   13.1928   -3.0222 H   0  0  0  0  0  0  0  0  0  0  0  0
    1.1050   11.8333   -4.5467 H   0  0  0  0  0  0  0  0  0  0  0  0
    2.4238   11.0098   -3.5609 H   0  0  0  0  0  0  0  0  0  0  0  0
    0.0911    9.7874   -3.6374 H   0  0  0  0  0  0  0  0  0  0  0  0
   -0.2529   12.3397   -0.5294 H   0  0  0  0  0  0  0  0  0  0  0  0
    1.6835   10.1645    0.4775 H   0  0  0  0  0  0  0  0  0  0  0  0
    1.1114   11.6279    1.3952 H   0  0  0  0  0  0  0  0  0  0  0  0
   -0.0596    9.5652    2.0973 H   0  0  0  0  0  0  0  0  0  0  0  0
   -1.1668   10.7930    1.3671 H   0  0  0  0  0  0  0  0  0  0  0  0
   -1.7595    8.6242    0.5274 H   0  0  0  0  0  0  0  0  0  0  0  0
    1.0510    8.4980    0.0610 H   0  0  0  0  0  0  0  0  0  0  0  0
   -2.6838   10.7020   -0.0701 H   0  0  0  0  0  0  0  0  0  0  0  0
   -2.2757   11.5092   -1.6220 H   0  0  0  0  0  0  0  0  0  0  0  0
   -3.2710   10.0139   -1.6220 H   0  0  0  0  0  0  0  0  0  0  0  0
   -1.7400    7.6214   -1.6423 H   0  0  0  0  0  0  0  0  0  0  0  0
   -2.3352    8.8107   -2.8497 H   0  0  0  0  0  0  0  0  0  0  0  0
   -0.6076    8.3188   -2.8497 H   0  0  0  0  0  0  0  0  0  0  0  0
    3.2844   11.6671    0.1474 H   0  0  0  0  0  0  0  0  0  0  0  0
    3.0634   10.7637   -1.3894 H   0  0  0  0  0  0  0  0  0  0  0  0
    3.9286   12.3379   -1.3894 H   0  0  0  0  0  0  0  0  0  0  0  0
    1.4692   13.5526    0.7101 H   0  0  0  0  0  0  0  0  0  0  0  0
    2.8497   14.1628   -0.3649 H   0  0  0  0  0  0  0  0  0  0  0  0
   -0.1078   14.7731   -0.6290 H   0  0  0  0  0  0  0  0  0  0  0  0
    1.2442   15.8983   -0.2124 H   0  0  0  0  0  0  0  0  0  0  0  0
    3.1620   15.8110   -1.4610 H   0  0  0  0  0  0  0  0  0  0  0  0
    3.2254   14.8980   -3.0067 H   0  0  0  0  0  0  0  0  0  0  0  0
    2.7591   16.6327   -3.0067 H   0  0  0  0  0  0  0  0  0  0  0  0
  1  2  1  0
  2  3  1  0
  3  4  1  0
  4  5  1  0
  5  6  1  0
  6  7  1  0
  7  8  1  0
  7  9  1  0
  2 10  1  0
 10 11  1  0
 11 12  1  0
 12 13  1  0
 13 14  1  1
 13 15  1  0
 15 16  1  0
 16 17  1  0
 17 18  2  0
 18 19  1  0
 19 20  1  0
 20 21  1  0
 21 22  1  0
 22 23  1  0
 22 24  1  0
 24 25  1  0
 24 26  1  0
 19 27  1  0
 27 28  1  6
 27 29  1  0
 29 30  1  0
 30 31  1  0
 31 32  1  1
  7  5  1  0
 31 10  1  0
 31 13  1  0
 27 15  1  0
 24 18  1  0
  1 33  1  0
  1 34  1  0
  1 35  1  0
  2 36  1  6
  3 37  1  0
  3 38  1  0
  4 39  1  0
  4 40  1  0
  5 41  1  1
  8 42  1  0
  8 43  1  0
  8 44  1  0
  9 45  1  0
  9 46  1  0
  9 47  1  0
 10 48  1  1
 11 49  1  0
 11 50  1  0
 12 51  1  0
 12 52  1  0
 14 53  1  0
 14 54  1  0
 14 55  1  0
 15 56  1  6
 16 57  1  0
 16 58  1  0
 17 59  1  0
 19 60  1  1
 20 61  1  0
 20 62  1  0
 21 63  1  0
 21 64  1  0
 22 65  1  1
 23 66  1  0
 25 67  1  0
 25 68  1  0
 25 69  1  0
 26 70  1  0
 26 71  1  0
 26 72  1  0
 28 73  1  0
 28 74  1  0
 28 75  1  0
 29 76  1  0
 29 77  1  0
 30 78  1  0
 30 79  1  0
 32 80  1  0
 32 81  1  0
 32 82  1  0
M  END
>  <meeko>  (4) 
{"is_sidechain": [false], "intermolecular_energy": 2.731, "internal_energy": -0.839}

$$$$
EPH_relaxed_0001_pdb2pqr_Repair_245_r2_0001_out
     RDKit          3D

 82 86  0  0  0  0  0  0  0  0999 V2000
   -3.4080    9.3200    0.5370 C   0  0  0  0  0  0  0  0  0  0  0  0
   -2.5800    9.6840   -0.6990 C   0  0  2  0  0  0  0  0  0  0  0  0
   -1.9120    8.4490   -1.3350 C   0  0  0  0  0  0  0  0  0  0  0  0
   -2.8280    7.6760   -2.2890 C   0  0  0  0  0  0  0  0  0  0  0  0
   -4.2660    7.7760   -1.8780 C   0  0  2  0  0  0  0  0  0  0  0  0
   -4.8140    6.5740   -1.3220 O   0  0  0  0  0  0  0  0  0  0  0  0
   -5.3860    7.0160   -2.5640 C   0  0  0  0  0  0  0  0  0  0  0  0
   -5.1170    6.1020   -3.7180 C   0  0  0  0  0  0  0  0  0  0  0  0
   -6.7850    7.5320   -2.4340 C   0  0  0  0  0  0  0  0  0  0  0  0
   -1.5220   10.7170   -0.3300 C   0  0  1  0  0  0  0  0  0  0  0  0
   -0.4240   10.1390    0.6040 C   0  0  0  0  0  0  0  0  0  0  0  0
    0.9060   10.8320    0.2110 C   0  0  0  0  0  0  0  0  0  0  0  0
    0.4800   12.0110   -0.6940 C   0  0  1  0  0  0  0  0  0  0  0  0
    0.0400   13.1360    0.2940 C   0  0  0  0  0  0  0  0  0  0  0  0
    1.5510   12.5230   -1.7120 C   0  0  2  0  0  0  0  0  0  0  0  0
    2.8320   13.0940   -1.0800 C   0  0  0  0  0  0  0  0  0  0  0  0
    2.8060   14.5600   -0.8000 C   0  0  0  0  0  0  0  0  0  0  0  0
    1.9150   15.4360   -1.3010 C   0  0  0  0  0  0  0  0  0  0  0  0
    0.8620   14.9910   -2.3230 C   0  0  1  0  0  0  0  0  0  0  0  0
    0.8120   16.0090   -3.4920 C   0  0  0  0  0  0  0  0  0  0  0  0
    0.5920   17.4410   -3.0120 C   0  0  0  0  0  0  0  0  0  0  0  0
    1.6910   17.8670   -2.0430 C   0  0  2  0  0  0  0  0  0  0  0  0
    2.9300   17.9390   -2.7550 O   0  0  0  0  0  0  0  0  0  0  0  0
    1.8420   16.9090   -0.8280 C   0  0  0  0  0  0  0  0  0  0  0  0
    0.6160   17.0590    0.1070 C   0  0  0  0  0  0  0  0  0  0  0  0
    3.0740   17.3710   -0.0050 C   0  0  0  0  0  0  0  0  0  0  0  0
    0.9760   13.4880   -2.8270 C   0  0  1  0  0  0  0  0  0  0  0  0
    1.9570   13.4060   -4.0360 C   0  0  0  0  0  0  0  0  0  0  0  0
   -0.4280   13.0170   -3.3610 C   0  0  0  0  0  0  0  0  0  0  0  0
   -1.3970   12.4100   -2.3280 C   0  0  0  0  0  0  0  0  0  0  0  0
   -0.6990   11.3370   -1.4870 C   0  0  2  0  0  0  0  0  0  0  0  0
   -0.2650   10.1810   -2.4510 C   0  0  0  0  0  0  0  0  0  0  0  0
   -2.8401    9.5697    1.4453 H   0  0  0  0  0  0  0  0  0  0  0  0
   -4.3508    9.8867    0.5267 H   0  0  0  0  0  0  0  0  0  0  0  0
   -3.6279    8.2422    0.5267 H   0  0  0  0  0  0  0  0  0  0  0  0
   -3.2683   10.1074   -1.4454 H   0  0  0  0  0  0  0  0  0  0  0  0
   -1.0278    8.7835   -1.8974 H   0  0  0  0  0  0  0  0  0  0  0  0
   -1.6529    7.7649   -0.5134 H   0  0  0  0  0  0  0  0  0  0  0  0
   -2.7172    8.0888   -3.3026 H   0  0  0  0  0  0  0  0  0  0  0  0
   -2.5360    6.6158   -2.2616 H   0  0  0  0  0  0  0  0  0  0  0  0
   -4.1442    8.8389   -1.6223 H   0  0  0  0  0  0  0  0  0  0  0  0
   -4.8253    5.1109   -3.3405 H   0  0  0  0  0  0  0  0  0  0  0  0
   -6.0256    6.0081   -4.3309 H   0  0  0  0  0  0  0  0  0  0  0  0
   -4.3024    6.5152   -4.3309 H   0  0  0  0  0  0  0  0  0  0  0  0
   -7.0432    7.6272   -1.3690 H   0  0  0  0  0  0  0  0  0  0  0  0
   -6.8592    8.5166   -2.9187 H   0  0  0  0  0  0  0  0  0  0  0  0
   -7.4808    6.8313   -2.9187 H   0  0  0  0  0  0  0  0  0  0  0  0
   -2.1641   11.4841    0.1275 H   0  0  0  0  0  0  0  0  0  0  0  0
   -0.6679   10.3550    1.6546 H   0  0  0  0  0  0  0  0  0  0  0  0
   -0.3478    9.0469    0.4962 H   0  0  0  0  0  0  0  0  0  0  0  0
    1.4314   11.1990    1.1050 H   0  0  0  0  0  0  0  0  0  0  0  0
    1.5992   10.1457   -0.2974 H   0  0  0  0  0  0  0  0  0  0  0  0
    0.1758   12.7888    1.3289 H   0  0  0  0  0  0  0  0  0  0  0  0
    0.6535   14.0332    0.1247 H   0  0  0  0  0  0  0  0  0  0  0  0
   -1.0194   13.3789    0.1247 H   0  0  0  0  0  0  0  0  0  0  0  0
    1.8566   11.5959   -2.2190 H   0  0  0  0  0  0  0  0  0  0  0  0
    3.0048   12.5693   -0.1288 H   0  0  0  0  0  0  0  0  0  0  0  0
    3.6313   12.9396   -1.8198 H   0  0  0  0  0  0  0  0  0  0  0  0
    3.5802   14.9581   -0.1276 H   0  0  0  0  0  0  0  0  0  0  0  0
   -0.0991   14.9898   -1.7879 H   0  0  0  0  0  0  0  0  0  0  0  0
    1.7645   15.9633   -4.0403 H   0  0  0  0  0  0  0  0  0  0  0  0
   -0.0385   15.7379   -4.1347 H   0  0  0  0  0  0  0  0  0  0  0  0
    0.5962   18.1163   -3.8803 H   0  0  0  0  0  0  0  0  0  0  0  0
   -0.3749   17.4913   -2.4899 H   0  0  0  0  0  0  0  0  0  0  0  0
    1.4089   18.8488   -1.6351 H   0  0  0  0  0  0  0  0  0  0  0  0
    3.6010   17.4750   -2.2260 H   0  0  0  0  0  0  0  0  0  0  0  0
    0.9471   17.0185    1.1552 H   0  0  0  0  0  0  0  0  0  0  0  0
    0.1242   18.0240   -0.0851 H   0  0  0  0  0  0  0  0  0  0  0  0
   -0.0939   16.2410   -0.0851 H   0  0  0  0  0  0  0  0  0  0  0  0
    2.8501   17.2870    1.0687 H   0  0  0  0  0  0  0  0  0  0  0  0
    3.9379   16.7357   -0.2502 H   0  0  0  0  0  0  0  0  0  0  0  0
    3.3072   18.4177   -0.2502 H   0  0  0  0  0  0  0  0  0  0  0  0
    2.9891   13.3197   -3.6655 H   0  0  0  0  0  0  0  0  0  0  0  0
    1.7122   12.5252   -4.6477 H   0  0  0  0  0  0  0  0  0  0  0  0
    1.8618   14.3152   -4.6477 H   0  0  0  0  0  0  0  0  0  0  0  0
   -0.9238   13.8909   -3.8088 H   0  0  0  0  0  0  0  0  0  0  0  0
   -0.2089   12.2001   -4.0644 H   0  0  0  0  0  0  0  0  0  0  0  0
   -1.7610   13.2077   -1.6637 H   0  0  0  0  0  0  0  0  0  0  0  0
   -2.2361   11.9440   -2.8653 H   0  0  0  0  0  0  0  0  0  0  0  0
    0.0609    9.3129   -1.8592 H   0  0  0  0  0  0  0  0  0  0  0  0
   -1.1164    9.8935   -3.0854 H   0  0  0  0  0  0  0  0  0  0  0  0
    0.5653   10.5248   -3.0854 H   0  0  0  0  0  0  0  0  0  0  0  0
  1  2  1  0
  2  3  1  0
  3  4  1  0
  4  5  1  0
  5  6  1  0
  6  7  1  0
  7  8  1  0
  7  9  1  0
  2 10  1  0
 10 11  1  0
 11 12  1  0
 12 13  1  0
 13 14  1  1
 13 15  1  0
 15 16  1  0
 16 17  1  0
 17 18  2  0
 18 19  1  0
 19 20  1  0
 20 21  1  0
 21 22  1  0
 22 23  1  0
 22 24  1  0
 24 25  1  0
 24 26  1  0
 19 27  1  0
 27 28  1  6
 27 29  1  0
 29 30  1  0
 30 31  1  0
 31 32  1  6
  7  5  1  0
 31 10  1  0
 31 13  1  0
 27 15  1  0
 24 18  1  0
  1 33  1  0
  1 34  1  0
  1 35  1  0
  2 36  1  6
  3 37  1  0
  3 38  1  0
  4 39  1  0
  4 40  1  0
  5 41  1  1
  8 42  1  0
  8 43  1  0
  8 44  1  0
  9 45  1  0
  9 46  1  0
  9 47  1  0
 10 48  1  1
 11 49  1  0
 11 50  1  0
 12 51  1  0
 12 52  1  0
 14 53  1  0
 14 54  1  0
 14 55  1  0
 15 56  1  6
 16 57  1  0
 16 58  1  0
 17 59  1  0
 19 60  1  1
 20 61  1  0
 20 62  1  0
 21 63  1  0
 21 64  1  0
 22 65  1  1
 23 66  1  0
 25 67  1  0
 25 68  1  0
 25 69  1  0
 26 70  1  0
 26 71  1  0
 26 72  1  0
 28 73  1  0
 28 74  1  0
 28 75  1  0
 29 76  1  0
 29 77  1  0
 30 78  1  0
 30 79  1  0
 32 80  1  0
 32 81  1  0
 32 82  1  0
M  END
>  <meeko>  (5) 
{"is_sidechain": [false], "intermolecular_energy": 2.731, "internal_energy": -0.839}

$$$$
EPH_relaxed_0001_pdb2pqr_Repair_245_r2_0001_out
     RDKit          3D

 82 86  0  0  0  0  0  0  0  0999 V2000
    3.8140   17.5490    0.3410 C   0  0  0  0  0  0  0  0  0  0  0  0
    2.8080   17.8280   -0.7780 C   0  0  2  0  0  0  0  0  0  0  0  0
    2.1590   19.2210   -0.6420 C   0  0  0  0  0  0  0  0  0  0  0  0
    1.3620   19.4040    0.6530 C   0  0  0  0  0  0  0  0  0  0  0  0
    0.0540   20.0920    0.4050 C   0  0  2  0  0  0  0  0  0  0  0  0
   -0.8010   20.1840    1.5520 O   0  0  0  0  0  0  0  0  0  0  0  0
   -1.2870   19.3840    0.4620 C   0  0  0  0  0  0  0  0  0  0  0  0
   -1.3860   17.9240    0.7740 C   0  0  0  0  0  0  0  0  0  0  0  0
   -2.4480   19.9930   -0.2610 C   0  0  0  0  0  0  0  0  0  0  0  0
    1.7300   16.7510   -0.7890 C   0  0  1  0  0  0  0  0  0  0  0  0
    0.4020   17.2400   -1.4260 C   0  0  0  0  0  0  0  0  0  0  0  0
   -0.2110   16.0250   -2.1700 C   0  0  0  0  0  0  0  0  0  0  0  0
    0.6000   14.8090   -1.6640 C   0  0  1  0  0  0  0  0  0  0  0  0
   -0.0370   14.4470   -0.2860 C   0  0  0  0  0  0  0  0  0  0  0  0
    0.6540   13.5710   -2.6170 C   0  0  2  0  0  0  0  0  0  0  0  0
   -0.7050   12.9100   -2.9080 C   0  0  0  0  0  0  0  0  0  0  0  0
   -1.0960   11.8170   -1.9700 C   0  0  0  0  0  0  0  0  0  0  0  0
   -0.2710   11.1900   -1.1120 C   0  0  0  0  0  0  0  0  0  0  0  0
    1.2320   11.4990   -1.0960 C   0  0  1  0  0  0  0  0  0  0  0  0
    2.0330   10.1710   -1.0650 C   0  0  0  0  0  0  0  0  0  0  0  0
    1.6130    9.2600    0.0850 C   0  0  0  0  0  0  0  0  0  0  0  0
    0.1250    8.9290    0.0020 C   0  0  2  0  0  0  0  0  0  0  0  0
   -0.1040    8.1270   -1.1610 O   0  0  0  0  0  0  0  0  0  0  0  0
   -0.7820   10.1900   -0.0460 C   0  0  0  0  0  0  0  0  0  0  0  0
   -0.7630   10.8960    1.3320 C   0  0  0  0  0  0  0  0  0  0  0  0
   -2.2440    9.7180   -0.2710 C   0  0  0  0  0  0  0  0  0  0  0  0
    1.7460   12.4960   -2.2220 C   0  0  1  0  0  0  0  0  0  0  0  0
    2.0820   11.7030   -3.5220 C   0  0  0  0  0  0  0  0  0  0  0  0
    3.0930   13.1580   -1.7450 C   0  0  0  0  0  0  0  0  0  0  0  0
    2.9750   14.4460   -0.9080 C   0  0  0  0  0  0  0  0  0  0  0  0
    2.0320   15.4510   -1.5760 C   0  0  2  0  0  0  0  0  0  0  0  0
    2.6580   15.8500   -2.9550 C   0  0  0  0  0  0  0  0  0  0  0  0
    3.3243   17.6848    1.3166 H   0  0  0  0  0  0  0  0  0  0  0  0
    4.1804   16.5153    0.2554 H   0  0  0  0  0  0  0  0  0  0  0  0
    4.6604   18.2463    0.2554 H   0  0  0  0  0  0  0  0  0  0  0  0
    3.3596   17.8118   -1.7296 H   0  0  0  0  0  0  0  0  0  0  0  0
    2.9552   19.9795   -0.6701 H   0  0  0  0  0  0  0  0  0  0  0  0
    1.4486   19.3279   -1.4750 H   0  0  0  0  0  0  0  0  0  0  0  0
    1.1670   18.4155    1.0945 H   0  0  0  0  0  0  0  0  0  0  0  0
    1.9552   20.0300    1.3358 H   0  0  0  0  0  0  0  0  0  0  0  0
    0.5131   20.7433   -0.3534 H   0  0  0  0  0  0  0  0  0  0  0  0
   -1.3956   17.7820    1.8648 H   0  0  0  0  0  0  0  0  0  0  0  0
   -2.3137   17.5191    0.3433 H   0  0  0  0  0  0  0  0  0  0  0  0
   -0.5215   17.3976    0.3433 H   0  0  0  0  0  0  0  0  0  0  0  0
   -3.1758   20.3748    0.4701 H   0  0  0  0  0  0  0  0  0  0  0  0
   -2.0934   20.8212   -0.8921 H   0  0  0  0  0  0  0  0  0  0  0  0
   -2.9278   19.2305   -0.8921 H   0  0  0  0  0  0  0  0  0  0  0  0
    1.6749   16.5349    0.2882 H   0  0  0  0  0  0  0  0  0  0  0  0
   -0.2865   17.5919   -0.6436 H   0  0  0  0  0  0  0  0  0  0  0  0
    0.5799   18.0775   -2.1166 H   0  0  0  0  0  0  0  0  0  0  0  0
   -1.2762   15.9130   -1.9193 H   0  0  0  0  0  0  0  0  0  0  0  0
   -0.1595   16.1355   -3.2632 H   0  0  0  0  0  0  0  0  0  0  0  0
    0.6095   14.8144    0.5246 H   0  0  0  0  0  0  0  0  0  0  0  0
   -1.0285   14.9166   -0.2057 H   0  0  0  0  0  0  0  0  0  0  0  0
   -0.1410   13.3549   -0.2057 H   0  0  0  0  0  0  0  0  0  0  0  0
    0.9767   14.0205   -3.5677 H   0  0  0  0  0  0  0  0  0  0  0  0
   -1.4791   13.6901   -2.8625 H   0  0  0  0  0  0  0  0  0  0  0  0
   -0.6096   12.4414   -3.8986 H   0  0  0  0  0  0  0  0  0  0  0  0
   -2.1483   11.4968   -1.9811 H   0  0  0  0  0  0  0  0  0  0  0  0
    1.4166   12.0674   -0.1725 H   0  0  0  0  0  0  0  0  0  0  0  0
    1.8700    9.6388   -2.0138 H   0  0  0  0  0  0  0  0  0  0  0  0
    3.0935   10.4245   -0.9195 H   0  0  0  0  0  0  0  0  0  0  0  0
    2.1929    8.3266    0.0353 H   0  0  0  0  0  0  0  0  0  0  0  0
    1.8047    9.7813    1.0345 H   0  0  0  0  0  0  0  0  0  0  0  0
   -0.1436    8.3850    0.9196 H   0  0  0  0  0  0  0  0  0  0  0  0
   -1.0640    7.9960   -1.2440 H   0  0  0  0  0  0  0  0  0  0  0  0
   -0.7833   10.1406    2.1313 H   0  0  0  0  0  0  0  0  0  0  0  0
    0.1517   11.5003    1.4218 H   0  0  0  0  0  0  0  0  0  0  0  0
   -1.6439   11.5486    1.4218 H   0  0  0  0  0  0  0  0  0  0  0  0
   -2.7323    9.5604    0.7020 H   0  0  0  0  0  0  0  0  0  0  0  0
   -2.7937   10.4843   -0.8372 H   0  0  0  0  0  0  0  0  0  0  0  0
   -2.2418    8.7749   -0.8372 H   0  0  0  0  0  0  0  0  0  0  0  0
    2.4983   10.7205   -3.2549 H   0  0  0  0  0  0  0  0  0  0  0  0
    1.1654   11.5642   -4.1141 H   0  0  0  0  0  0  0  0  0  0  0  0
    2.8193   12.2650   -4.1141 H   0  0  0  0  0  0  0  0  0  0  0  0
    3.6325   12.4154   -1.1389 H   0  0  0  0  0  0  0  0  0  0  0  0
    3.6081   13.4608   -2.6686 H   0  0  0  0  0  0  0  0  0  0  0  0
    2.5834   14.1928    0.0883 H   0  0  0  0  0  0  0  0  0  0  0  0
    3.9723   14.9028   -0.8258 H   0  0  0  0  0  0  0  0  0  0  0  0
    3.5746   16.4342   -2.7863 H   0  0  0  0  0  0  0  0  0  0  0  0
    2.9023   14.9406   -3.5237 H   0  0  0  0  0  0  0  0  0  0  0  0
    1.9368   16.4554   -3.5237 H   0  0  0  0  0  0  0  0  0  0  0  0
  1  2  1  0
  2  3  1  0
  3  4  1  0
  4  5  1  0
  5  6  1  0
  6  7  1  0
  7  8  1  0
  7  9  1  0
  2 10  1  0
 10 11  1  0
 11 12  1  0
 12 13  1  0
 13 14  1  1
 13 15  1  0
 15 16  1  0
 16 17  1  0
 17 18  2  0
 18 19  1  0
 19 20  1  0
 20 21  1  0
 21 22  1  0
 22 23  1  0
 22 24  1  0
 24 25  1  0
 24 26  1  0
 19 27  1  0
 27 28  1  6
 27 29  1  0
 29 30  1  0
 30 31  1  0
 31 32  1  6
  7  5  1  0
 31 10  1  0
 31 13  1  0
 27 15  1  0
 24 18  1  0
  1 33  1  0
  1 34  1  0
  1 35  1  0
  2 36  1  6
  3 37  1  0
  3 38  1  0
  4 39  1  0
  4 40  1  0
  5 41  1  6
  8 42  1  0
  8 43  1  0
  8 44  1  0
  9 45  1  0
  9 46  1  0
  9 47  1  0
 10 48  1  1
 11 49  1  0
 11 50  1  0
 12 51  1  0
 12 52  1  0
 14 53  1  0
 14 54  1  0
 14 55  1  0
 15 56  1  6
 16 57  1  0
 16 58  1  0
 17 59  1  0
 19 60  1  1
 20 61  1  0
 20 62  1  0
 21 63  1  0
 21 64  1  0
 22 65  1  1
 23 66  1  0
 25 67  1  0
 25 68  1  0
 25 69  1  0
 26 70  1  0
 26 71  1  0
 26 72  1  0
 28 73  1  0
 28 74  1  0
 28 75  1  0
 29 76  1  0
 29 77  1  0
 30 78  1  0
 30 79  1  0
 32 80  1  0
 32 81  1  0
 32 82  1  0
M  END
>  <meeko>  (6) 
{"is_sidechain": [false], "intermolecular_energy": 2.731, "internal_energy": -0.839}

$$$$
EPH_relaxed_0001_pdb2pqr_Repair_245_r2_0001_out
     RDKit          3D

 82 86  0  0  0  0  0  0  0  0999 V2000
   -5.1160    5.8940   -1.7600 C   0  0  0  0  0  0  0  0  0  0  0  0
   -5.4370    7.3910   -1.7990 C   0  0  2  0  0  0  0  0  0  0  0  0
   -5.2220    8.0660   -0.4300 C   0  0  0  0  0  0  0  0  0  0  0  0
   -4.1810    9.1890   -0.4540 C   0  0  0  0  0  0  0  0  0  0  0  0
   -2.8100    8.6680   -0.7620 C   0  0  2  0  0  0  0  0  0  0  0  0
   -1.8090    9.0070    0.2070 O   0  0  0  0  0  0  0  0  0  0  0  0
   -1.6340    9.5610   -1.1070 C   0  0  0  0  0  0  0  0  0  0  0  0
   -1.7740   11.0500   -1.1630 C   0  0  0  0  0  0  0  0  0  0  0  0
   -0.4840    8.9710   -1.8620 C   0  0  0  0  0  0  0  0  0  0  0  0
   -6.8730    7.6030   -2.2650 C   0  0  1  0  0  0  0  0  0  0  0  0
   -7.1710    6.9040   -3.6180 C   0  0  0  0  0  0  0  0  0  0  0  0
   -8.6410    6.4160   -3.5550 C   0  0  0  0  0  0  0  0  0  0  0  0
   -9.2370    7.1310   -2.3200 C   0  0  1  0  0  0  0  0  0  0  0  0
   -9.6020    8.5630   -2.8230 C   0  0  0  0  0  0  0  0  0  0  0  0
  -10.4570    6.4310   -1.6370 C   0  0  2  0  0  0  0  0  0  0  0  0
  -11.7090    6.2930   -2.5220 C   0  0  0  0  0  0  0  0  0  0  0  0
  -12.6740    7.4290   -2.4420 C   0  0  0  0  0  0  0  0  0  0  0  0
  -12.6890    8.3780   -1.4880 C   0  0  0  0  0  0  0  0  0  0  0  0
  -11.7250    8.3110   -0.2960 C   0  0  1  0  0  0  0  0  0  0  0  0
  -12.5060    8.5820    1.0170 C   0  0  0  0  0  0  0  0  0  0  0  0
  -13.2890    9.8910    0.9720 C   0  0  0  0  0  0  0  0  0  0  0  0
  -14.2770    9.8960   -0.1910 C   0  0  2  0  0  0  0  0  0  0  0  0
  -15.2850    8.9110    0.0560 O   0  0  0  0  0  0  0  0  0  0  0  0
  -13.6060    9.6230   -1.5660 C   0  0  0  0  0  0  0  0  0  0  0  0
  -12.7390   10.8400   -1.9730 C   0  0  0  0  0  0  0  0  0  0  0  0
  -14.7290    9.5150   -2.6320 C   0  0  0  0  0  0  0  0  0  0  0  0
  -10.8190    7.0080   -0.2090 C   0  0  1  0  0  0  0  0  0  0  0  0
  -11.5840    5.8780    0.5460 C   0  0  0  0  0  0  0  0  0  0  0  0
   -9.5390    7.3280    0.6490 C   0  0  0  0  0  0  0  0  0  0  0  0
   -8.3250    7.9070   -0.1030 C   0  0  0  0  0  0  0  0  0  0  0  0
   -8.0030    7.0740   -1.3470 C   0  0  2  0  0  0  0  0  0  0  0  0
   -7.6110    5.6340   -0.8710 C   0  0  0  0  0  0  0  0  0  0  0  0
   -5.0447    5.5614   -0.7139 H   0  0  0  0  0  0  0  0  0  0  0  0
   -5.9146    5.3344   -2.2690 H   0  0  0  0  0  0  0  0  0  0  0  0
   -4.1582    5.7110   -2.2690 H   0  0  0  0  0  0  0  0  0  0  0  0
   -4.7424    7.8602   -2.5113 H   0  0  0  0  0  0  0  0  0  0  0  0
   -6.1813    8.4888   -0.0968 H   0  0  0  0  0  0  0  0  0  0  0  0
   -4.8442    7.2920    0.2542 H   0  0  0  0  0  0  0  0  0  0  0  0
   -4.4650    9.9218   -1.2236 H   0  0  0  0  0  0  0  0  0  0  0  0
   -4.1551    9.6537    0.5427 H   0  0  0  0  0  0  0  0  0  0  0  0
   -3.2326    7.7809   -1.2565 H   0  0  0  0  0  0  0  0  0  0  0  0
   -1.8119   11.4534   -0.1404 H   0  0  0  0  0  0  0  0  0  0  0  0
   -0.9123   11.4796   -1.6949 H   0  0  0  0  0  0  0  0  0  0  0  0
   -2.7007   11.3114   -1.6949 H   0  0  0  0  0  0  0  0  0  0  0  0
    0.2631    8.5877   -1.1514 H   0  0  0  0  0  0  0  0  0  0  0  0
   -0.8450    8.1468   -2.4947 H   0  0  0  0  0  0  0  0  0  0  0  0
   -0.0250    9.7450   -2.4947 H   0  0  0  0  0  0  0  0  0  0  0  0
   -6.8971    8.7023   -2.2962 H   0  0  0  0  0  0  0  0  0  0  0  0
   -7.0430    7.6147   -4.4478 H   0  0  0  0  0  0  0  0  0  0  0  0
   -6.4826    6.0631   -3.7882 H   0  0  0  0  0  0  0  0  0  0  0  0
   -9.1841    6.7007   -4.4682 H   0  0  0  0  0  0  0  0  0  0  0  0
   -8.7141    5.3211   -3.4786 H   0  0  0  0  0  0  0  0  0  0  0  0
   -9.7703    9.2232   -1.9594 H   0  0  0  0  0  0  0  0  0  0  0  0
   -8.7761    8.9593   -3.4320 H   0  0  0  0  0  0  0  0  0  0  0  0
  -10.5168    8.5156   -3.4320 H   0  0  0  0  0  0  0  0  0  0  0  0
  -10.0860    5.4071   -1.4824 H   0  0  0  0  0  0  0  0  0  0  0  0
  -11.3782    6.2008   -3.5670 H   0  0  0  0  0  0  0  0  0  0  0  0
  -12.2481    5.4087   -2.1513 H   0  0  0  0  0  0  0  0  0  0  0  0
  -13.4383    7.4962   -3.2303 H   0  0  0  0  0  0  0  0  0  0  0  0
  -10.9827    9.1060   -0.4601 H   0  0  0  0  0  0  0  0  0  0  0  0
  -13.2113    7.7547    1.1850 H   0  0  0  0  0  0  0  0  0  0  0  0
  -11.7718    8.6597    1.8325 H   0  0  0  0  0  0  0  0  0  0  0  0
  -13.8424   10.0120    1.9149 H   0  0  0  0  0  0  0  0  0  0  0  0
  -12.5793   10.7199    0.8333 H   0  0  0  0  0  0  0  0  0  0  0  0
  -14.7126   10.9044   -0.2491 H   0  0  0  0  0  0  0  0  0  0  0  0
  -14.9850    8.3640    0.8020 H   0  0  0  0  0  0  0  0  0  0  0  0
  -12.3756   11.3501   -1.0687 H   0  0  0  0  0  0  0  0  0  0  0  0
  -11.8813   10.4960   -2.5697 H   0  0  0  0  0  0  0  0  0  0  0  0
  -13.3443   11.5383   -2.5697 H   0  0  0  0  0  0  0  0  0  0  0  0
  -15.7033    9.4213   -2.1300 H   0  0  0  0  0  0  0  0  0  0  0  0
  -14.7258   10.4176   -3.2607 H   0  0  0  0  0  0  0  0  0  0  0  0
  -14.5538    8.6296   -3.2607 H   0  0  0  0  0  0  0  0  0  0  0  0
  -11.4824    6.0281    1.6310 H   0  0  0  0  0  0  0  0  0  0  0  0
  -12.6483    5.9079    0.2698 H   0  0  0  0  0  0  0  0  0  0  0  0
  -11.1609    4.9009    0.2698 H   0  0  0  0  0  0  0  0  0  0  0  0
   -9.8296    8.0551    1.4216 H   0  0  0  0  0  0  0  0  0  0  0  0
   -9.2009    6.3551    1.0352 H   0  0  0  0  0  0  0  0  0  0  0  0
   -8.5502    8.9392   -0.4094 H   0  0  0  0  0  0  0  0  0  0  0  0
   -7.4539    7.8862    0.5683 H   0  0  0  0  0  0  0  0  0  0  0  0
   -7.6020    5.6010    0.2285 H   0  0  0  0  0  0  0  0  0  0  0  0
   -8.3445    4.9090   -1.2536 H   0  0  0  0  0  0  0  0  0  0  0  0
   -6.6112    5.3808   -1.2536 H   0  0  0  0  0  0  0  0  0  0  0  0
  1  2  1  0
  2  3  1  0
  3  4  1  0
  4  5  1  0
  5  6  1  0
  6  7  1  0
  7  8  1  0
  7  9  1  0
  2 10  1  0
 10 11  1  0
 11 12  1  0
 12 13  1  0
 13 14  1  6
 13 15  1  0
 15 16  1  0
 16 17  1  0
 17 18  2  0
 18 19  1  0
 19 20  1  0
 20 21  1  0
 21 22  1  0
 22 23  1  0
 22 24  1  0
 24 25  1  0
 24 26  1  0
 19 27  1  0
 27 28  1  1
 27 29  1  0
 29 30  1  0
 30 31  1  0
 31 32  1  1
  7  5  1  0
 31 10  1  0
 31 13  1  0
 27 15  1  0
 24 18  1  0
  1 33  1  0
  1 34  1  0
  1 35  1  0
  2 36  1  6
  3 37  1  0
  3 38  1  0
  4 39  1  0
  4 40  1  0
  5 41  1  6
  8 42  1  0
  8 43  1  0
  8 44  1  0
  9 45  1  0
  9 46  1  0
  9 47  1  0
 10 48  1  6
 11 49  1  0
 11 50  1  0
 12 51  1  0
 12 52  1  0
 14 53  1  0
 14 54  1  0
 14 55  1  0
 15 56  1  1
 16 57  1  0
 16 58  1  0
 17 59  1  0
 19 60  1  6
 20 61  1  0
 20 62  1  0
 21 63  1  0
 21 64  1  0
 22 65  1  6
 23 66  1  0
 25 67  1  0
 25 68  1  0
 25 69  1  0
 26 70  1  0
 26 71  1  0
 26 72  1  0
 28 73  1  0
 28 74  1  0
 28 75  1  0
 29 76  1  0
 29 77  1  0
 30 78  1  0
 30 79  1  0
 32 80  1  0
 32 81  1  0
 32 82  1  0
M  END
>  <meeko>  (7) 
{"is_sidechain": [false], "intermolecular_energy": 2.731, "internal_energy": -0.839}

$$$$
EPH_relaxed_0001_pdb2pqr_Repair_245_r2_0001_out
     RDKit          3D

 82 86  0  0  0  0  0  0  0  0999 V2000
    0.4220    8.8720   -2.5030 C   0  0  0  0  0  0  0  0  0  0  0  0
    1.1840   10.0280   -3.1570 C   0  0  2  0  0  0  0  0  0  0  0  0
    2.6770   10.0300   -2.7720 C   0  0  0  0  0  0  0  0  0  0  0  0
    3.5890   10.6290   -3.8470 C   0  0  0  0  0  0  0  0  0  0  0  0
    4.9830   10.8390   -3.3370 C   0  0  2  0  0  0  0  0  0  0  0  0
    5.6050   12.0530   -3.7790 O   0  0  0  0  0  0  0  0  0  0  0  0
    6.2100   10.8300   -4.2300 C   0  0  0  0  0  0  0  0  0  0  0  0
    6.1000   10.6040   -5.7050 C   0  0  0  0  0  0  0  0  0  0  0  0
    7.5440   10.5530   -3.6090 C   0  0  0  0  0  0  0  0  0  0  0  0
    0.5450   11.3560   -2.7710 C   0  0  1  0  0  0  0  0  0  0  0  0
   -0.8310   11.1770   -2.0760 C   0  0  0  0  0  0  0  0  0  0  0  0
   -0.9470   12.3020   -1.0150 C   0  0  0  0  0  0  0  0  0  0  0  0
    0.2020   13.2800   -1.3570 C   0  0  1  0  0  0  0  0  0  0  0  0
   -0.3490   14.1530   -2.5270 C   0  0  0  0  0  0  0  0  0  0  0  0
    0.7330   14.1610   -0.1800 C   0  0  2  0  0  0  0  0  0  0  0  0
   -0.2970   15.1290    0.4270 C   0  0  0  0  0  0  0  0  0  0  0  0
   -0.3420   16.4850   -0.1950 C   0  0  0  0  0  0  0  0  0  0  0  0
    0.5980   17.0050   -1.0050 C   0  0  0  0  0  0  0  0  0  0  0  0
    1.9000   16.2450   -1.2910 C   0  0  1  0  0  0  0  0  0  0  0  0
    3.1060   17.2110   -1.1490 C   0  0  0  0  0  0  0  0  0  0  0  0
    2.9590   18.4610   -2.0110 C   0  0  0  0  0  0  0  0  0  0  0  0
    1.6830   19.2210   -1.6570 C   0  0  2  0  0  0  0  0  0  0  0  0
    1.8100   19.7420   -0.3300 O   0  0  0  0  0  0  0  0  0  0  0  0
    0.4020   18.3460   -1.7550 C   0  0  0  0  0  0  0  0  0  0  0  0
    0.0980   18.0320   -3.2410 C   0  0  0  0  0  0  0  0  0  0  0  0
   -0.7940   19.1900   -1.2370 C   0  0  0  0  0  0  0  0  0  0  0  0
    2.1040   14.8910   -0.4840 C   0  0  1  0  0  0  0  0  0  0  0  0
    2.7650   15.1900    0.8970 C   0  0  0  0  0  0  0  0  0  0  0  0
    3.1110   13.9710   -1.2690 C   0  0  0  0  0  0  0  0  0  0  0  0
    2.5110   13.0370   -2.3370 C   0  0  0  0  0  0  0  0  0  0  0  0
    1.3190   12.2550   -1.7750 C   0  0  2  0  0  0  0  0  0  0  0  0
    1.8480   11.3500   -0.6100 C   0  0  0  0  0  0  0  0  0  0  0  0
    0.4833    8.9650   -1.4087 H   0  0  0  0  0  0  0  0  0  0  0  0
   -0.6322    8.9046   -2.8153 H   0  0  0  0  0  0  0  0  0  0  0  0
    0.8675    7.9160   -2.8153 H   0  0  0  0  0  0  0  0  0  0  0  0
    1.1240    9.8897   -4.2466 H   0  0  0  0  0  0  0  0  0  0  0  0
    2.7969   10.6161   -1.8489 H   0  0  0  0  0  0  0  0  0  0  0  0
    2.9775    8.9796   -2.6441 H   0  0  0  0  0  0  0  0  0  0  0  0
    3.6234    9.9444   -4.7073 H   0  0  0  0  0  0  0  0  0  0  0  0
    3.1792   11.6074   -4.1382 H   0  0  0  0  0  0  0  0  0  0  0  0
    4.7469   10.3095   -2.4022 H   0  0  0  0  0  0  0  0  0  0  0  0
    5.6256    9.6294   -5.8922 H   0  0  0  0  0  0  0  0  0  0  0  0
    5.4892   11.4013   -6.1536 H   0  0  0  0  0  0  0  0  0  0  0  0
    7.1043   10.6152   -6.1536 H   0  0  0  0  0  0  0  0  0  0  0  0
    7.4495   10.5726   -2.5132 H   0  0  0  0  0  0  0  0  0  0  0  0
    7.8986    9.5621   -3.9288 H   0  0  0  0  0  0  0  0  0  0  0  0
    8.2639   11.3208   -3.9288 H   0  0  0  0  0  0  0  0  0  0  0  0
    0.5066   11.8362   -3.7599 H   0  0  0  0  0  0  0  0  0  0  0  0
   -1.6422   11.2669   -2.8134 H   0  0  0  0  0  0  0  0  0  0  0  0
   -0.9110   10.1843   -1.6089 H   0  0  0  0  0  0  0  0  0  0  0  0
   -1.9216   12.8067   -1.0889 H   0  0  0  0  0  0  0  0  0  0  0  0
   -0.8746   11.9159    0.0125 H   0  0  0  0  0  0  0  0  0  0  0  0
   -0.8935   15.0158   -2.1158 H   0  0  0  0  0  0  0  0  0  0  0  0
    0.4886   14.5087   -3.1450 H   0  0  0  0  0  0  0  0  0  0  0  0
   -1.0305   13.5500   -3.1450 H   0  0  0  0  0  0  0  0  0  0  0  0
    0.9359   13.4134    0.6010 H   0  0  0  0  0  0  0  0  0  0  0  0
   -1.2932   14.6742    0.3230 H   0  0  0  0  0  0  0  0  0  0  0  0
    0.0100   15.2838    1.4719 H   0  0  0  0  0  0  0  0  0  0  0  0
   -1.2178   17.1123    0.0277 H   0  0  0  0  0  0  0  0  0  0  0  0
    1.8245   15.8931   -2.3305 H   0  0  0  0  0  0  0  0  0  0  0  0
    3.1906   17.5169   -0.0958 H   0  0  0  0  0  0  0  0  0  0  0  0
    4.0047   16.6752   -1.4884 H   0  0  0  0  0  0  0  0  0  0  0  0
    3.8264   19.1168   -1.8450 H   0  0  0  0  0  0  0  0  0  0  0  0
    2.9043   18.1553   -3.0663 H   0  0  0  0  0  0  0  0  0  0  0  0
    1.5663   20.0310   -2.3921 H   0  0  0  0  0  0  0  0  0  0  0  0
    1.6510   20.7000   -0.3740 H   0  0  0  0  0  0  0  0  0  0  0  0
   -0.6660   17.2428   -3.3001 H   0  0  0  0  0  0  0  0  0  0  0  0
   -0.2732   18.9398   -3.7391 H   0  0  0  0  0  0  0  0  0  0  0  0
    1.0173   17.6904   -3.7391 H   0  0  0  0  0  0  0  0  0  0  0  0
   -0.7937   19.1898   -0.1370 H   0  0  0  0  0  0  0  0  0  0  0  0
   -0.6999   20.2229   -1.6035 H   0  0  0  0  0  0  0  0  0  0  0  0
   -1.7356   18.7552   -1.6035 H   0  0  0  0  0  0  0  0  0  0  0  0
    2.0839   14.8819    1.7039 H   0  0  0  0  0  0  0  0  0  0  0  0
    3.7088   14.6312    0.9804 H   0  0  0  0  0  0  0  0  0  0  0  0
    2.9685   16.2678    0.9804 H   0  0  0  0  0  0  0  0  0  0  0  0
    3.8384   14.6261   -1.7707 H   0  0  0  0  0  0  0  0  0  0  0  0
    3.5407   13.3012   -0.5096 H   0  0  0  0  0  0  0  0  0  0  0  0
    2.1744   13.6394   -3.1937 H   0  0  0  0  0  0  0  0  0  0  0  0
    3.2843   12.3202   -2.6503 H   0  0  0  0  0  0  0  0  0  0  0  0
    1.5827   11.8038    0.3563 H   0  0  0  0  0  0  0  0  0  0  0  0
    1.3909   10.3522   -0.6843 H   0  0  0  0  0  0  0  0  0  0  0  0
    2.9417   11.2587   -0.6843 H   0  0  0  0  0  0  0  0  0  0  0  0
  1  2  1  0
  2  3  1  0
  3  4  1  0
  4  5  1  0
  5  6  1  0
  6  7  1  0
  7  8  1  0
  7  9  1  0
  2 10  1  0
 10 11  1  0
 11 12  1  0
 12 13  1  0
 13 14  1  6
 13 15  1  0
 15 16  1  0
 16 17  1  0
 17 18  2  0
 18 19  1  0
 19 20  1  0
 20 21  1  0
 21 22  1  0
 22 23  1  0
 22 24  1  0
 24 25  1  0
 24 26  1  0
 19 27  1  0
 27 28  1  1
 27 29  1  0
 29 30  1  0
 30 31  1  0
 31 32  1  1
  7  5  1  0
 31 10  1  0
 31 13  1  0
 27 15  1  0
 24 18  1  0
  1 33  1  0
  1 34  1  0
  1 35  1  0
  2 36  1  6
  3 37  1  0
  3 38  1  0
  4 39  1  0
  4 40  1  0
  5 41  1  1
  8 42  1  0
  8 43  1  0
  8 44  1  0
  9 45  1  0
  9 46  1  0
  9 47  1  0
 10 48  1  6
 11 49  1  0
 11 50  1  0
 12 51  1  0
 12 52  1  0
 14 53  1  0
 14 54  1  0
 14 55  1  0
 15 56  1  1
 16 57  1  0
 16 58  1  0
 17 59  1  0
 19 60  1  6
 20 61  1  0
 20 62  1  0
 21 63  1  0
 21 64  1  0
 22 65  1  6
 23 66  1  0
 25 67  1  0
 25 68  1  0
 25 69  1  0
 26 70  1  0
 26 71  1  0
 26 72  1  0
 28 73  1  0
 28 74  1  0
 28 75  1  0
 29 76  1  0
 29 77  1  0
 30 78  1  0
 30 79  1  0
 32 80  1  0
 32 81  1  0
 32 82  1  0
M  END
>  <meeko>  (8) 
{"is_sidechain": [false], "intermolecular_energy": 2.731, "internal_energy": -0.839}

$$$$
EPH_relaxed_0001_pdb2pqr_Repair_245_r2_0001_out
     RDKit          3D

 82 86  0  0  0  0  0  0  0  0999 V2000
    0.9770   10.9770   -4.7270 C   0  0  0  0  0  0  0  0  0  0  0  0
    0.7620   10.4260   -3.3150 C   0  0  2  0  0  0  0  0  0  0  0  0
   -0.6010    9.7210   -3.1680 C   0  0  0  0  0  0  0  0  0  0  0  0
   -0.5860    8.5520   -2.1800 C   0  0  0  0  0  0  0  0  0  0  0  0
   -0.0350    8.9600   -0.8470 C   0  0  2  0  0  0  0  0  0  0  0  0
   -0.5790    8.2450    0.2700 O   0  0  0  0  0  0  0  0  0  0  0  0
   -0.8580    9.6530    0.2220 C   0  0  0  0  0  0  0  0  0  0  0  0
   -2.3020    9.9800    0.0050 C   0  0  0  0  0  0  0  0  0  0  0  0
   -0.1440   10.4450    1.2730 C   0  0  0  0  0  0  0  0  0  0  0  0
    0.8780   11.5530   -2.2940 C   0  0  1  0  0  0  0  0  0  0  0  0
    1.9610   11.2750   -1.2180 C   0  0  0  0  0  0  0  0  0  0  0  0
    2.5980   12.6420   -0.8620 C   0  0  0  0  0  0  0  0  0  0  0  0
    1.6490   13.6900   -1.4870 C   0  0  1  0  0  0  0  0  0  0  0  0
    0.4760   13.8290   -0.4670 C   0  0  0  0  0  0  0  0  0  0  0  0
    2.2810   15.0780   -1.8310 C   0  0  2  0  0  0  0  0  0  0  0  0
    2.8240   15.8650   -0.6250 C   0  0  0  0  0  0  0  0  0  0  0  0
    1.8470   16.7860    0.0270 C   0  0  0  0  0  0  0  0  0  0  0  0
    0.6780   17.1910   -0.5050 C   0  0  0  0  0  0  0  0  0  0  0  0
    0.2820   16.7910   -1.9320 C   0  0  1  0  0  0  0  0  0  0  0  0
   -0.2430   18.0370   -2.6920 C   0  0  0  0  0  0  0  0  0  0  0  0
   -1.3740   18.7420   -1.9480 C   0  0  0  0  0  0  0  0  0  0  0  0
   -0.9230   19.1760   -0.5560 C   0  0  2  0  0  0  0  0  0  0  0  0
    0.0750   20.1930   -0.6900 O   0  0  0  0  0  0  0  0  0  0  0  0
   -0.3650   18.0050    0.3000 C   0  0  0  0  0  0  0  0  0  0  0  0
   -1.5200   17.0550    0.6990 C   0  0  0  0  0  0  0  0  0  0  0  0
    0.1840   18.6010    1.6240 C   0  0  0  0  0  0  0  0  0  0  0  0
    1.3790   15.9900   -2.7570 C   0  0  1  0  0  0  0  0  0  0  0  0
    2.3410   16.9880   -3.4720 C   0  0  0  0  0  0  0  0  0  0  0  0
    0.6670   15.1680   -3.8960 C   0  0  0  0  0  0  0  0  0  0  0  0
    0.1700   13.7570   -3.5270 C   0  0  0  0  0  0  0  0  0  0  0  0
    1.2700   12.9550   -2.8240 C   0  0  2  0  0  0  0  0  0  0  0  0
    2.4550   12.7800   -3.8350 C   0  0  0  0  0  0  0  0  0  0  0  0
    1.3762   12.0001   -4.6645 H   0  0  0  0  0  0  0  0  0  0  0  0
    1.6913   10.3369   -5.2655 H   0  0  0  0  0  0  0  0  0  0  0  0
    0.0179   10.9899   -5.2655 H   0  0  0  0  0  0  0  0  0  0  0  0
    1.5439    9.6746   -3.1305 H   0  0  0  0  0  0  0  0  0  0  0  0
   -1.3384   10.4597   -2.8207 H   0  0  0  0  0  0  0  0  0  0  0  0
   -0.8557    9.3052   -4.1540 H   0  0  0  0  0  0  0  0  0  0  0  0
   -1.6147    8.1870   -2.0440 H   0  0  0  0  0  0  0  0  0  0  0  0
    0.0609    7.7633   -2.5917 H   0  0  0  0  0  0  0  0  0  0  0  0
    0.9403    9.1975   -1.2968 H   0  0  0  0  0  0  0  0  0  0  0  0
   -2.8025   10.0933    0.9780 H   0  0  0  0  0  0  0  0  0  0  0  0
   -2.3841   10.9195   -0.5612 H   0  0  0  0  0  0  0  0  0  0  0  0
   -2.7809    9.1676   -0.5612 H   0  0  0  0  0  0  0  0  0  0  0  0
   -0.4566   10.0982    2.2690 H   0  0  0  0  0  0  0  0  0  0  0  0
    0.9417   10.3079    1.1611 H   0  0  0  0  0  0  0  0  0  0  0  0
   -0.3925   11.5107    1.1611 H   0  0  0  0  0  0  0  0  0  0  0  0
   -0.1557   11.5685   -1.9181 H   0  0  0  0  0  0  0  0  0  0  0  0
    1.5013   10.8271   -0.3247 H   0  0  0  0  0  0  0  0  0  0  0  0
    2.7190   10.5714   -1.5928 H   0  0  0  0  0  0  0  0  0  0  0  0
    2.6548   12.7715    0.2289 H   0  0  0  0  0  0  0  0  0  0  0  0
    3.6269   12.7335   -1.2401 H   0  0  0  0  0  0  0  0  0  0  0  0
    0.8735   13.7819    0.5576 H   0  0  0  0  0  0  0  0  0  0  0  0
   -0.0305   14.7934   -0.6198 H   0  0  0  0  0  0  0  0  0  0  0  0
   -0.2418   13.0096   -0.6198 H   0  0  0  0  0  0  0  0  0  0  0  0
    3.1627   14.7942   -2.4244 H   0  0  0  0  0  0  0  0  0  0  0  0
    3.1632   15.1398    0.1294 H   0  0  0  0  0  0  0  0  0  0  0  0
    3.6301   16.5033   -1.0159 H   0  0  0  0  0  0  0  0  0  0  0  0
    2.1036   17.1662    1.0268 H   0  0  0  0  0  0  0  0  0  0  0  0
   -0.5246   16.0504   -1.8277 H   0  0  0  0  0  0  0  0  0  0  0  0
    0.5879   18.7456   -2.8241 H   0  0  0  0  0  0  0  0  0  0  0  0
   -0.6410   17.6955   -3.6590 H   0  0  0  0  0  0  0  0  0  0  0  0
   -1.6827   19.6297   -2.5196 H   0  0  0  0  0  0  0  0  0  0  0  0
   -2.2154   18.0413   -1.8422 H   0  0  0  0  0  0  0  0  0  0  0  0
   -1.8087   19.5569   -0.0265 H   0  0  0  0  0  0  0  0  0  0  0  0
    0.6350   19.9560   -1.4490 H   0  0  0  0  0  0  0  0  0  0  0  0
   -1.5871   16.9998    1.7956 H   0  0  0  0  0  0  0  0  0  0  0  0
   -2.4674   17.4387    0.2925 H   0  0  0  0  0  0  0  0  0  0  0  0
   -1.3263   16.0514    0.2925 H   0  0  0  0  0  0  0  0  0  0  0  0
   -0.2856   18.0912    2.4781 H   0  0  0  0  0  0  0  0  0  0  0  0
    1.2739   18.4586    1.6661 H   0  0  0  0  0  0  0  0  0  0  0  0
   -0.0473   19.6756    1.6661 H   0  0  0  0  0  0  0  0  0  0  0  0
    2.8971   17.5649   -2.7184 H   0  0  0  0  0  0  0  0  0  0  0  0
    3.0488   16.4282   -4.1009 H   0  0  0  0  0  0  0  0  0  0  0  0
    1.7555   17.6748   -4.1009 H   0  0  0  0  0  0  0  0  0  0  0  0
   -0.2036   15.7502   -4.2321 H   0  0  0  0  0  0  0  0  0  0  0  0
    1.4395   15.0098   -4.6630 H   0  0  0  0  0  0  0  0  0  0  0  0
   -0.6966   13.8449   -2.8552 H   0  0  0  0  0  0  0  0  0  0  0  0
   -0.1114   13.2312   -4.4513 H   0  0  0  0  0  0  0  0  0  0  0  0
    3.3939   12.6413   -3.2790 H   0  0  0  0  0  0  0  0  0  0  0  0
    2.2701   11.8994   -4.4678 H   0  0  0  0  0  0  0  0  0  0  0  0
    2.5325   13.6764   -4.4678 H   0  0  0  0  0  0  0  0  0  0  0  0
  1  2  1  0
  2  3  1  0
  3  4  1  0
  4  5  1  0
  5  6  1  0
  6  7  1  0
  7  8  1  0
  7  9  1  0
  2 10  1  0
 10 11  1  0
 11 12  1  0
 12 13  1  0
 13 14  1  1
 13 15  1  0
 15 16  1  0
 16 17  1  0
 17 18  2  0
 18 19  1  0
 19 20  1  0
 20 21  1  0
 21 22  1  0
 22 23  1  0
 22 24  1  0
 24 25  1  0
 24 26  1  0
 19 27  1  0
 27 28  1  6
 27 29  1  0
 29 30  1  0
 30 31  1  0
 31 32  1  6
  7  5  1  0
 31 10  1  0
 31 13  1  0
 27 15  1  0
 24 18  1  0
  1 33  1  0
  1 34  1  0
  1 35  1  0
  2 36  1  1
  3 37  1  0
  3 38  1  0
  4 39  1  0
  4 40  1  0
  5 41  1  6
  8 42  1  0
  8 43  1  0
  8 44  1  0
  9 45  1  0
  9 46  1  0
  9 47  1  0
 10 48  1  1
 11 49  1  0
 11 50  1  0
 12 51  1  0
 12 52  1  0
 14 53  1  0
 14 54  1  0
 14 55  1  0
 15 56  1  6
 16 57  1  0
 16 58  1  0
 17 59  1  0
 19 60  1  1
 20 61  1  0
 20 62  1  0
 21 63  1  0
 21 64  1  0
 22 65  1  1
 23 66  1  0
 25 67  1  0
 25 68  1  0
 25 69  1  0
 26 70  1  0
 26 71  1  0
 26 72  1  0
 28 73  1  0
 28 74  1  0
 28 75  1  0
 29 76  1  0
 29 77  1  0
 30 78  1  0
 30 79  1  0
 32 80  1  0
 32 81  1  0
 32 82  1  0
M  END
>  <meeko>  (9) 
{"is_sidechain": [false], "intermolecular_energy": 2.731, "internal_energy": -0.839}

$$$$
EPH_relaxed_0001_pdb2pqr_Repair_245_r2_0001_out
     RDKit          3D

 82 86  0  0  0  0  0  0  0  0999 V2000
    0.1390   17.7960   -2.4930 C   0  0  0  0  0  0  0  0  0  0  0  0
   -0.0520   16.9450   -1.2340 C   0  0  2  0  0  0  0  0  0  0  0  0
   -0.0310   17.7970    0.0510 C   0  0  0  0  0  0  0  0  0  0  0  0
    0.6720   19.1470   -0.1170 C   0  0  0  0  0  0  0  0  0  0  0  0
    1.7830   19.3210    0.8730 C   0  0  2  0  0  0  0  0  0  0  0  0
    2.8360   20.1940    0.4430 O   0  0  0  0  0  0  0  0  0  0  0  0
    3.1960   18.8180    0.6420 C   0  0  0  0  0  0  0  0  0  0  0  0
    3.5720   18.1000   -0.6160 C   0  0  0  0  0  0  0  0  0  0  0  0
    4.0770   18.5900    1.8300 C   0  0  0  0  0  0  0  0  0  0  0  0
    1.0260   15.8700   -1.1640 C   0  0  1  0  0  0  0  0  0  0  0  0
    1.2530   15.3440    0.2780 C   0  0  0  0  0  0  0  0  0  0  0  0
    1.5920   13.8360    0.1550 C   0  0  0  0  0  0  0  0  0  0  0  0
    1.8750   13.6210   -1.3500 C   0  0  1  0  0  0  0  0  0  0  0  0
    3.3480   14.0980   -1.5530 C   0  0  0  0  0  0  0  0  0  0  0  0
    1.6580   12.1710   -1.8940 C   0  0  2  0  0  0  0  0  0  0  0  0
    2.5690   11.0980   -1.2730 C   0  0  0  0  0  0  0  0  0  0  0  0
    3.8610   10.8690   -1.9850 C   0  0  0  0  0  0  0  0  0  0  0  0
    4.1540   11.2890   -3.2300 C   0  0  0  0  0  0  0  0  0  0  0  0
    3.0970   11.9900   -4.0930 C   0  0  1  0  0  0  0  0  0  0  0  0
    3.1060   11.3800   -5.5200 C   0  0  0  0  0  0  0  0  0  0  0  0
    4.4920   11.4060   -6.1580 C   0  0  0  0  0  0  0  0  0  0  0  0
    5.5020   10.6500   -5.2990 C   0  0  2  0  0  0  0  0  0  0  0  0
    5.1590    9.2610   -5.2990 O   0  0  0  0  0  0  0  0  0  0  0  0
    5.5740   11.1700   -3.8360 C   0  0  0  0  0  0  0  0  0  0  0  0
    6.2310   12.5730   -3.8140 C   0  0  0  0  0  0  0  0  0  0  0  0
    6.5240   10.2340   -3.0410 C   0  0  0  0  0  0  0  0  0  0  0  0
    1.6360   12.0680   -3.4730 C   0  0  1  0  0  0  0  0  0  0  0  0
    0.8390   10.7750   -3.8230 C   0  0  0  0  0  0  0  0  0  0  0  0
    0.8580   13.2640   -4.1400 C   0  0  0  0  0  0  0  0  0  0  0  0
    1.0180   14.6490   -3.4850 C   0  0  0  0  0  0  0  0  0  0  0  0
    0.7880   14.5700   -1.9730 C   0  0  2  0  0  0  0  0  0  0  0  0
   -0.6930   14.1150   -1.7370 C   0  0  0  0  0  0  0  0  0  0  0  0
    0.3714   18.8315   -2.2038 H   0  0  0  0  0  0  0  0  0  0  0  0
    0.9677   17.3871   -3.0897 H   0  0  0  0  0  0  0  0  0  0  0  0
   -0.7850   17.7805   -3.0897 H   0  0  0  0  0  0  0  0  0  0  0  0
   -1.0432   16.4729   -1.3011 H   0  0  0  0  0  0  0  0  0  0  0  0
   -1.0698   17.9827    0.3616 H   0  0  0  0  0  0  0  0  0  0  0  0
    0.5371   17.2302    0.8033 H   0  0  0  0  0  0  0  0  0  0  0  0
    1.0877   19.2082   -1.1336 H   0  0  0  0  0  0  0  0  0  0  0  0
   -0.0680   19.9424    0.0552 H   0  0  0  0  0  0  0  0  0  0  0  0
    1.0847   19.1991    1.7141 H   0  0  0  0  0  0  0  0  0  0  0  0
    4.0686   17.1518   -0.3625 H   0  0  0  0  0  0  0  0  0  0  0  0
    2.6663   17.8936   -1.2051 H   0  0  0  0  0  0  0  0  0  0  0  0
    4.2576   18.7269   -1.2051 H   0  0  0  0  0  0  0  0  0  0  0  0
    3.4958   18.7404    2.7517 H   0  0  0  0  0  0  0  0  0  0  0  0
    4.4664   17.5615    1.8058 H   0  0  0  0  0  0  0  0  0  0  0  0
    4.9164   19.3005    1.8058 H   0  0  0  0  0  0  0  0  0  0  0  0
    1.8714   16.4291   -1.5915 H   0  0  0  0  0  0  0  0  0  0  0  0
    2.0874   15.8826    0.7509 H   0  0  0  0  0  0  0  0  0  0  0  0
    0.3594   15.4988    0.9005 H   0  0  0  0  0  0  0  0  0  0  0  0
    2.4789   13.5871    0.7563 H   0  0  0  0  0  0  0  0  0  0  0  0
    0.7775   13.1942    0.5220 H   0  0  0  0  0  0  0  0  0  0  0  0
    3.8221   14.2515   -0.5724 H   0  0  0  0  0  0  0  0  0  0  0  0
    3.9064   13.3348   -2.1148 H   0  0  0  0  0  0  0  0  0  0  0  0
    3.3530   15.0437   -2.1148 H   0  0  0  0  0  0  0  0  0  0  0  0
    0.6414   11.9375   -1.5448 H   0  0  0  0  0  0  0  0  0  0  0  0
    2.7987   11.4027   -0.2413 H   0  0  0  0  0  0  0  0  0  0  0  0
    2.0130   10.1512   -1.3391 H   0  0  0  0  0  0  0  0  0  0  0  0
    4.6400   10.3094   -1.4464 H   0  0  0  0  0  0  0  0  0  0  0  0
    3.3938   13.0483   -4.1369 H   0  0  0  0  0  0  0  0  0  0  0  0
    2.7651   10.3359   -5.4595 H   0  0  0  0  0  0  0  0  0  0  0  0
    2.4378   11.9880   -6.1476 H   0  0  0  0  0  0  0  0  0  0  0  0
    4.4402   10.9354   -7.1509 H   0  0  0  0  0  0  0  0  0  0  0  0
    4.8189   12.4527   -6.2451 H   0  0  0  0  0  0  0  0  0  0  0  0
    6.4967   10.8140   -5.7392 H   0  0  0  0  0  0  0  0  0  0  0  0
    4.5520    9.1070   -4.5550 H   0  0  0  0  0  0  0  0  0  0  0  0
    6.3802   12.8917   -2.7718 H   0  0  0  0  0  0  0  0  0  0  0  0
    7.2030   12.5308   -4.3273 H   0  0  0  0  0  0  0  0  0  0  0  0
    5.5762   13.2926   -4.3273 H   0  0  0  0  0  0  0  0  0  0  0  0
    6.3701   10.3857   -1.9624 H   0  0  0  0  0  0  0  0  0  0  0  0
    6.3071    9.1868   -3.2987 H   0  0  0  0  0  0  0  0  0  0  0  0
    7.5678   10.4664   -3.2987 H   0  0  0  0  0  0  0  0  0  0  0  0
    0.5293   10.2726   -2.8947 H   0  0  0  0  0  0  0  0  0  0  0  0
   -0.0520   11.0412   -4.4106 H   0  0  0  0  0  0  0  0  0  0  0  0
    1.4772   10.0987   -4.4106 H   0  0  0  0  0  0  0  0  0  0  0  0
    1.2038   13.3464   -5.1810 H   0  0  0  0  0  0  0  0  0  0  0  0
   -0.2070   13.0134   -4.0260 H   0  0  0  0  0  0  0  0  0  0  0  0
    2.0353   15.0217   -3.6753 H   0  0  0  0  0  0  0  0  0  0  0  0
    0.2710   15.3304   -3.9183 H   0  0  0  0  0  0  0  0  0  0  0  0
   -0.8902   14.0544   -0.6565 H   0  0  0  0  0  0  0  0  0  0  0  0
   -1.3779   14.8442   -2.1944 H   0  0  0  0  0  0  0  0  0  0  0  0
   -0.8504   13.1271   -2.1944 H   0  0  0  0  0  0  0  0  0  0  0  0
  1  2  1  0
  2  3  1  0
  3  4  1  0
  4  5  1  0
  5  6  1  0
  6  7  1  0
  7  8  1  0
  7  9  1  0
  2 10  1  0
 10 11  1  0
 11 12  1  0
 12 13  1  0
 13 14  1  1
 13 15  1  0
 15 16  1  0
 16 17  1  0
 17 18  2  0
 18 19  1  0
 19 20  1  0
 20 21  1  0
 21 22  1  0
 22 23  1  0
 22 24  1  0
 24 25  1  0
 24 26  1  0
 19 27  1  0
 27 28  1  1
 27 29  1  0
 29 30  1  0
 30 31  1  0
 31 32  1  6
  7  5  1  0
 31 10  1  0
 31 13  1  0
 27 15  1  0
 24 18  1  0
  1 33  1  0
  1 34  1  0
  1 35  1  0
  2 36  1  6
  3 37  1  0
  3 38  1  0
  4 39  1  0
  4 40  1  0
  5 41  1  1
  8 42  1  0
  8 43  1  0
  8 44  1  0
  9 45  1  0
  9 46  1  0
  9 47  1  0
 10 48  1  6
 11 49  1  0
 11 50  1  0
 12 51  1  0
 12 52  1  0
 14 53  1  0
 14 54  1  0
 14 55  1  0
 15 56  1  1
 16 57  1  0
 16 58  1  0
 17 59  1  0
 19 60  1  6
 20 61  1  0
 20 62  1  0
 21 63  1  0
 21 64  1  0
 22 65  1  6
 23 66  1  0
 25 67  1  0
 25 68  1  0
 25 69  1  0
 26 70  1  0
 26 71  1  0
 26 72  1  0
 28 73  1  0
 28 74  1  0
 28 75  1  0
 29 76  1  0
 29 77  1  0
 30 78  1  0
 30 79  1  0
 32 80  1  0
 32 81  1  0
 32 82  1  0
M  END
>  <meeko>  (10) 
{"is_sidechain": [false], "intermolecular_energy": 2.731, "internal_energy": -0.839}

$$$$
EPH_relaxed_0001_pdb2pqr_Repair_245_r2_0001_out
     RDKit          3D

 82 86  0  0  0  0  0  0  0  0999 V2000
   -3.7040    7.1690   -3.4220 C   0  0  0  0  0  0  0  0  0  0  0  0
   -3.7500    7.2570   -1.8940 C   0  0  2  0  0  0  0  0  0  0  0  0
   -5.1730    7.0440   -1.3420 C   0  0  0  0  0  0  0  0  0  0  0  0
   -6.2780    7.3130   -2.3670 C   0  0  0  0  0  0  0  0  0  0  0  0
   -7.6090    7.5120   -1.7090 C   0  0  2  0  0  0  0  0  0  0  0  0
   -8.1710    6.3290   -1.1250 O   0  0  0  0  0  0  0  0  0  0  0  0
   -8.8980    6.9000   -2.2250 C   0  0  0  0  0  0  0  0  0  0  0  0
   -8.9180    6.0420   -3.4520 C   0  0  0  0  0  0  0  0  0  0  0  0
  -10.1980    7.5280   -1.8290 C   0  0  0  0  0  0  0  0  0  0  0  0
   -3.2090    8.6060   -1.4350 C   0  0  1  0  0  0  0  0  0  0  0  0
   -3.8370    9.0770   -0.0960 C   0  0  0  0  0  0  0  0  0  0  0  0
   -2.7280    9.8370    0.6750 C   0  0  0  0  0  0  0  0  0  0  0  0
   -1.6120   10.0660   -0.3710 C   0  0  1  0  0  0  0  0  0  0  0  0
   -2.0750   11.3150   -1.1850 C   0  0  0  0  0  0  0  0  0  0  0  0
   -0.1640   10.2480    0.1910 C   0  0  2  0  0  0  0  0  0  0  0  0
    0.0340   11.4760    1.0970 C   0  0  0  0  0  0  0  0  0  0  0  0
    0.4510   12.7260    0.3950 C   0  0  0  0  0  0  0  0  0  0  0  0
    0.9330   12.7940   -0.8590 C   0  0  0  0  0  0  0  0  0  0  0  0
    1.1920   11.5210   -1.6740 C   0  0  1  0  0  0  0  0  0  0  0  0
    2.5880   11.6110   -2.3460 C   0  0  0  0  0  0  0  0  0  0  0  0
    2.7560   12.8790   -3.1770 C   0  0  0  0  0  0  0  0  0  0  0  0
    2.5480   14.1250   -2.3190 C   0  0  2  0  0  0  0  0  0  0  0  0
    3.6090   14.2070   -1.3620 O   0  0  0  0  0  0  0  0  0  0  0  0
    1.1790   14.1410   -1.5840 C   0  0  0  0  0  0  0  0  0  0  0  0
    0.0390   14.3550   -2.6110 C   0  0  0  0  0  0  0  0  0  0  0  0
    1.1550   15.3770   -0.6450 C   0  0  0  0  0  0  0  0  0  0  0  0
    0.9740   10.1480   -0.9040 C   0  0  1  0  0  0  0  0  0  0  0  0
    2.2800    9.7450   -0.1530 C   0  0  0  0  0  0  0  0  0  0  0  0
    0.6950    9.0080   -1.9530 C   0  0  0  0  0  0  0  0  0  0  0  0
   -0.7700    8.7980   -2.3790 C   0  0  0  0  0  0  0  0  0  0  0  0
   -1.6890    8.7060   -1.1570 C   0  0  2  0  0  0  0  0  0  0  0  0
   -1.2610    7.4460   -0.3300 C   0  0  0  0  0  0  0  0  0  0  0  0
   -3.2136    6.2308   -3.7206 H   0  0  0  0  0  0  0  0  0  0  0  0
   -4.7287    7.1904   -3.8215 H   0  0  0  0  0  0  0  0  0  0  0  0
   -3.1367    8.0226   -3.8215 H   0  0  0  0  0  0  0  0  0  0  0  0
   -3.1186    6.4485   -1.4969 H   0  0  0  0  0  0  0  0  0  0  0  0
   -5.2611    6.0016   -1.0021 H   0  0  0  0  0  0  0  0  0  0  0  0
   -5.3114    7.7658   -0.5235 H   0  0  0  0  0  0  0  0  0  0  0  0
   -6.0230    8.2190   -2.9363 H   0  0  0  0  0  0  0  0  0  0  0  0
   -6.3509    6.4379   -3.0295 H   0  0  0  0  0  0  0  0  0  0  0  0
   -7.3421    8.5414   -1.4276 H   0  0  0  0  0  0  0  0  0  0  0  0
   -8.9427    4.9823   -3.1580 H   0  0  0  0  0  0  0  0  0  0  0  0
   -9.8109    6.2776   -4.0497 H   0  0  0  0  0  0  0  0  0  0  0  0
   -8.0151    6.2358   -4.0497 H   0  0  0  0  0  0  0  0  0  0  0  0
  -10.2694    7.5625   -0.7319 H   0  0  0  0  0  0  0  0  0  0  0  0
  -10.2492    8.5502   -2.2321 H   0  0  0  0  0  0  0  0  0  0  0  0
  -11.0306    6.9328   -2.2321 H   0  0  0  0  0  0  0  0  0  0  0  0
   -3.4715    9.2172   -2.3111 H   0  0  0  0  0  0  0  0  0  0  0  0
   -4.6886    9.7453   -0.2914 H   0  0  0  0  0  0  0  0  0  0  0  0
   -4.2092    8.2223    0.4879 H   0  0  0  0  0  0  0  0  0  0  0  0
   -3.1073   10.7972    1.0546 H   0  0  0  0  0  0  0  0  0  0  0  0
   -2.3699    9.2762    1.5509 H   0  0  0  0  0  0  0  0  0  0  0  0
   -2.3717   12.1154   -0.4912 H   0  0  0  0  0  0  0  0  0  0  0  0
   -1.2476   11.6670   -1.8187 H   0  0  0  0  0  0  0  0  0  0  0  0
   -2.9319   11.0427   -1.8187 H   0  0  0  0  0  0  0  0  0  0  0  0
   -0.0533    9.3716    0.8465 H   0  0  0  0  0  0  0  0  0  0  0  0
   -0.9177   11.6762    1.6109 H   0  0  0  0  0  0  0  0  0  0  0  0
    0.8581   11.2209    1.7794 H   0  0  0  0  0  0  0  0  0  0  0  0
    0.3561   13.6710    0.9500 H   0  0  0  0  0  0  0  0  0  0  0  0
    0.4076   11.4891   -2.4445 H   0  0  0  0  0  0  0  0  0  0  0  0
    3.3587   11.5990   -1.5612 H   0  0  0  0  0  0  0  0  0  0  0  0
    2.6881   10.7511   -3.0246 H   0  0  0  0  0  0  0  0  0  0  0  0
    3.7706   12.8995   -3.6016 H   0  0  0  0  0  0  0  0  0  0  0  0
    2.0035   12.8754   -3.9793 H   0  0  0  0  0  0  0  0  0  0  0  0
    2.5520   14.9945   -2.9927 H   0  0  0  0  0  0  0  0  0  0  0  0
    3.8130   15.1490   -1.2290 H   0  0  0  0  0  0  0  0  0  0  0  0
   -0.9065   14.5325   -2.0776 H   0  0  0  0  0  0  0  0  0  0  0  0
    0.2727   15.2250   -3.2423 H   0  0  0  0  0  0  0  0  0  0  0  0
   -0.0587   13.4595   -3.2423 H   0  0  0  0  0  0  0  0  0  0  0  0
    1.1615   15.0417    0.4026 H   0  0  0  0  0  0  0  0  0  0  0  0
    2.0412   16.0000   -0.8361 H   0  0  0  0  0  0  0  0  0  0  0  0
    0.2453   15.9651   -0.8361 H   0  0  0  0  0  0  0  0  0  0  0  0
    2.1098    9.7975    0.9325 H   0  0  0  0  0  0  0  0  0  0  0  0
    2.5609    8.7184   -0.4309 H   0  0  0  0  0  0  0  0  0  0  0  0
    3.0905   10.4348   -0.4309 H   0  0  0  0  0  0  0  0  0  0  0  0
    1.2746    9.2403   -2.8586 H   0  0  0  0  0  0  0  0  0  0  0  0
    0.9835    8.0750   -1.4468 H   0  0  0  0  0  0  0  0  0  0  0  0
   -1.0876    9.6449   -3.0050 H   0  0  0  0  0  0  0  0  0  0  0  0
   -0.8397    7.8555   -2.9418 H   0  0  0  0  0  0  0  0  0  0  0  0
   -1.3369    7.6695    0.7444 H   0  0  0  0  0  0  0  0  0  0  0  0
   -1.9232    6.6031   -0.5769 H   0  0  0  0  0  0  0  0  0  0  0  0
   -0.2224    7.1808   -0.5769 H   0  0  0  0  0  0  0  0  0  0  0  0
  1  2  1  0
  2  3  1  0
  3  4  1  0
  4  5  1  0
  5  6  1  0
  6  7  1  0
  7  8  1  0
  7  9  1  0
  2 10  1  0
 10 11  1  0
 11 12  1  0
 12 13  1  0
 13 14  1  6
 13 15  1  0
 15 16  1  0
 16 17  1  0
 17 18  2  0
 18 19  1  0
 19 20  1  0
 20 21  1  0
 21 22  1  0
 22 23  1  0
 22 24  1  0
 24 25  1  0
 24 26  1  0
 19 27  1  0
 27 28  1  1
 27 29  1  0
 29 30  1  0
 30 31  1  0
 31 32  1  1
  7  5  1  0
 31 10  1  0
 31 13  1  0
 27 15  1  0
 24 18  1  0
  1 33  1  0
  1 34  1  0
  1 35  1  0
  2 36  1  1
  3 37  1  0
  3 38  1  0
  4 39  1  0
  4 40  1  0
  5 41  1  1
  8 42  1  0
  8 43  1  0
  8 44  1  0
  9 45  1  0
  9 46  1  0
  9 47  1  0
 10 48  1  6
 11 49  1  0
 11 50  1  0
 12 51  1  0
 12 52  1  0
 14 53  1  0
 14 54  1  0
 14 55  1  0
 15 56  1  1
 16 57  1  0
 16 58  1  0
 17 59  1  0
 19 60  1  6
 20 61  1  0
 20 62  1  0
 21 63  1  0
 21 64  1  0
 22 65  1  6
 23 66  1  0
 25 67  1  0
 25 68  1  0
 25 69  1  0
 26 70  1  0
 26 71  1  0
 26 72  1  0
 28 73  1  0
 28 74  1  0
 28 75  1  0
 29 76  1  0
 29 77  1  0
 30 78  1  0
 30 79  1  0
 32 80  1  0
 32 81  1  0
 32 82  1  0
M  END
>  <meeko>  (11) 
{"is_sidechain": [false], "intermolecular_energy": 2.731, "internal_energy": -0.839}

$$$$
EPH_relaxed_0001_pdb2pqr_Repair_245_r2_0001_out
     RDKit          3D

 82 86  0  0  0  0  0  0  0  0999 V2000
   -0.8620   16.3470   -5.8330 C   0  0  0  0  0  0  0  0  0  0  0  0
    0.2270   15.6470   -6.6510 C   0  0  2  0  0  0  0  0  0  0  0  0
   -0.1790   15.4710   -8.1280 C   0  0  0  0  0  0  0  0  0  0  0  0
    0.4540   16.5010   -9.0670 C   0  0  0  0  0  0  0  0  0  0  0  0
    1.8550   16.1230   -9.4420 C   0  0  2  0  0  0  0  0  0  0  0  0
    2.3150   16.6830  -10.6790 O   0  0  0  0  0  0  0  0  0  0  0  0
    2.1950   15.2510  -10.6360 C   0  0  0  0  0  0  0  0  0  0  0  0
    1.1280   14.7030  -11.5310 C   0  0  0  0  0  0  0  0  0  0  0  0
    3.5100   14.5350  -10.6480 C   0  0  0  0  0  0  0  0  0  0  0  0
    0.5490   14.2910   -6.0340 C   0  0  1  0  0  0  0  0  0  0  0  0
    1.8160   13.6400   -6.6500 C   0  0  0  0  0  0  0  0  0  0  0  0
    2.5250   12.8700   -5.5070 C   0  0  0  0  0  0  0  0  0  0  0  0
    1.4840   12.8240   -4.3640 C   0  0  1  0  0  0  0  0  0  0  0  0
    0.5310   11.6450   -4.7360 C   0  0  0  0  0  0  0  0  0  0  0  0
    2.0540   12.6700   -2.9160 C   0  0  2  0  0  0  0  0  0  0  0  0
    2.8270   11.3650   -2.6540 C   0  0  0  0  0  0  0  0  0  0  0  0
    2.0030   10.2270   -2.1490 C   0  0  0  0  0  0  0  0  0  0  0  0
    0.7590   10.3240   -1.6460 C   0  0  0  0  0  0  0  0  0  0  0  0
    0.0910   11.6920   -1.4550 C   0  0  1  0  0  0  0  0  0  0  0  0
   -0.5570   11.7600   -0.0480 C   0  0  0  0  0  0  0  0  0  0  0  0
   -1.5150   10.6020    0.2120 C   0  0  0  0  0  0  0  0  0  0  0  0
   -0.8010    9.2610    0.0700 C   0  0  2  0  0  0  0  0  0  0  0  0
    0.1640    9.1390    1.1200 O   0  0  0  0  0  0  0  0  0  0  0  0
   -0.1010    9.0820   -1.3060 C   0  0  0  0  0  0  0  0  0  0  0  0
   -1.1690    8.9120   -2.4150 C   0  0  0  0  0  0  0  0  0  0  0  0
    0.6990    7.7510   -1.2660 C   0  0  0  0  0  0  0  0  0  0  0  0
    1.0000   12.9570   -1.7710 C   0  0  1  0  0  0  0  0  0  0  0  0
    1.8170   13.3540   -0.5030 C   0  0  0  0  0  0  0  0  0  0  0  0
    0.0740   14.1860   -2.1050 C   0  0  0  0  0  0  0  0  0  0  0  0
   -0.3580   14.3510   -3.5740 C   0  0  0  0  0  0  0  0  0  0  0  0
    0.8480   14.2530   -4.5140 C   0  0  2  0  0  0  0  0  0  0  0  0
    1.8140   15.4400   -4.1770 C   0  0  0  0  0  0  0  0  0  0  0  0
   -0.6567   16.2151   -4.7604 H   0  0  0  0  0  0  0  0  0  0  0  0
   -0.8701   17.4199   -6.0755 H   0  0  0  0  0  0  0  0  0  0  0  0
   -1.8414   15.9089   -6.0755 H   0  0  0  0  0  0  0  0  0  0  0  0
    1.1211   16.2874   -6.6288 H   0  0  0  0  0  0  0  0  0  0  0  0
    0.1289   14.4670   -8.4555 H   0  0  0  0  0  0  0  0  0  0  0  0
   -1.2684   15.6141   -8.1812 H   0  0  0  0  0  0  0  0  0  0  0  0
   -0.1534   16.5701   -9.9815 H   0  0  0  0  0  0  0  0  0  0  0  0
    0.4886   17.4672   -8.5424 H   0  0  0  0  0  0  0  0  0  0  0  0
    2.1498   16.0715   -8.3835 H   0  0  0  0  0  0  0  0  0  0  0  0
    0.3149   14.2854  -10.9191 H   0  0  0  0  0  0  0  0  0  0  0  0
    0.7321   15.5093  -12.1659 H   0  0  0  0  0  0  0  0  0  0  0  0
    1.5528   13.9115  -12.1659 H   0  0  0  0  0  0  0  0  0  0  0  0
    3.8393   14.3557   -9.6139 H   0  0  0  0  0  0  0  0  0  0  0  0
    3.3989   13.5729  -11.1695 H   0  0  0  0  0  0  0  0  0  0  0  0
    4.2579   15.1505  -11.1695 H   0  0  0  0  0  0  0  0  0  0  0  0
   -0.3935   13.7647   -6.2456 H   0  0  0  0  0  0  0  0  0  0  0  0
    1.5319   12.9460   -7.4547 H   0  0  0  0  0  0  0  0  0  0  0  0
    2.4802   14.4022   -7.0835 H   0  0  0  0  0  0  0  0  0  0  0  0
    2.7916   11.8531   -5.8307 H   0  0  0  0  0  0  0  0  0  0  0  0
    3.4635   13.3533   -5.1976 H   0  0  0  0  0  0  0  0  0  0  0  0
    0.1518   11.1758   -3.8162 H   0  0  0  0  0  0  0  0  0  0  0  0
   -0.3137   12.0288   -5.3270 H   0  0  0  0  0  0  0  0  0  0  0  0
    1.0833   10.8996   -5.3270 H   0  0  0  0  0  0  0  0  0  0  0  0
    2.8025   13.4747   -2.8703 H   0  0  0  0  0  0  0  0  0  0  0  0
    3.2962   11.0522   -3.5985 H   0  0  0  0  0  0  0  0  0  0  0  0
    3.5506   11.5941   -1.8578 H   0  0  0  0  0  0  0  0  0  0  0  0
    2.4514    9.2234   -2.1919 H   0  0  0  0  0  0  0  0  0  0  0  0
   -0.6887   11.7606   -2.2278 H   0  0  0  0  0  0  0  0  0  0  0  0
    0.2406   11.7344    0.7090 H   0  0  0  0  0  0  0  0  0  0  0  0
   -1.1380   12.6924    0.0070 H   0  0  0  0  0  0  0  0  0  0  0  0
   -1.9170   10.6895    1.2322 H   0  0  0  0  0  0  0  0  0  0  0  0
   -2.3284   10.6466   -0.5272 H   0  0  0  0  0  0  0  0  0  0  0  0
   -1.5646    8.4721    0.1383 H   0  0  0  0  0  0  0  0  0  0  0  0
    0.9380    8.6770    0.7560 H   0  0  0  0  0  0  0  0  0  0  0  0
   -2.1551    8.7550   -1.9535 H   0  0  0  0  0  0  0  0  0  0  0  0
   -1.1964    9.8171   -3.0395 H   0  0  0  0  0  0  0  0  0  0  0  0
   -0.9140    8.0431   -3.0395 H   0  0  0  0  0  0  0  0  0  0  0  0
    0.8741    7.4597   -0.2198 H   0  0  0  0  0  0  0  0  0  0  0  0
    0.1249    6.9627   -1.7749 H   0  0  0  0  0  0  0  0  0  0  0  0
    1.6645    7.8881   -1.7749 H   0  0  0  0  0  0  0  0  0  0  0  0
    1.2508   13.0788    0.3990 H   0  0  0  0  0  0  0  0  0  0  0  0
    2.7807   12.8237   -0.5069 H   0  0  0  0  0  0  0  0  0  0  0  0
    1.9957   14.4394   -0.5069 H   0  0  0  0  0  0  0  0  0  0  0  0
   -0.8387   14.0895   -1.4986 H   0  0  0  0  0  0  0  0  0  0  0  0
    0.6834   15.0744   -1.8827 H   0  0  0  0  0  0  0  0  0  0  0  0
   -1.0780   13.5593   -3.8285 H   0  0  0  0  0  0  0  0  0  0  0  0
   -0.8179   15.3429   -3.6953 H   0  0  0  0  0  0  0  0  0  0  0  0
    1.8992   15.5448   -3.0853 H   0  0  0  0  0  0  0  0  0  0  0  0
    2.8070   15.2373   -4.6046 H   0  0  0  0  0  0  0  0  0  0  0  0
    1.4138   16.3711   -4.6046 H   0  0  0  0  0  0  0  0  0  0  0  0
  1  2  1  0
  2  3  1  0
  3  4  1  0
  4  5  1  0
  5  6  1  0
  6  7  1  0
  7  8  1  0
  7  9  1  0
  2 10  1  0
 10 11  1  0
 11 12  1  0
 12 13  1  0
 13 14  1  6
 13 15  1  0
 15 16  1  0
 16 17  1  0
 17 18  2  0
 18 19  1  0
 19 20  1  0
 20 21  1  0
 21 22  1  0
 22 23  1  0
 22 24  1  0
 24 25  1  0
 24 26  1  0
 19 27  1  0
 27 28  1  1
 27 29  1  0
 29 30  1  0
 30 31  1  0
 31 32  1  1
  7  5  1  0
 31 10  1  0
 31 13  1  0
 27 15  1  0
 24 18  1  0
  1 33  1  0
  1 34  1  0
  1 35  1  0
  2 36  1  6
  3 37  1  0
  3 38  1  0
  4 39  1  0
  4 40  1  0
  5 41  1  1
  8 42  1  0
  8 43  1  0
  8 44  1  0
  9 45  1  0
  9 46  1  0
  9 47  1  0
 10 48  1  1
 11 49  1  0
 11 50  1  0
 12 51  1  0
 12 52  1  0
 14 53  1  0
 14 54  1  0
 14 55  1  0
 15 56  1  6
 16 57  1  0
 16 58  1  0
 17 59  1  0
 19 60  1  6
 20 61  1  0
 20 62  1  0
 21 63  1  0
 21 64  1  0
 22 65  1  1
 23 66  1  0
 25 67  1  0
 25 68  1  0
 25 69  1  0
 26 70  1  0
 26 71  1  0
 26 72  1  0
 28 73  1  0
 28 74  1  0
 28 75  1  0
 29 76  1  0
 29 77  1  0
 30 78  1  0
 30 79  1  0
 32 80  1  0
 32 81  1  0
 32 82  1  0
M  END
>  <meeko>  (12) 
{"is_sidechain": [false], "intermolecular_energy": 2.731, "internal_energy": -0.839}

$$$$
EPH_relaxed_0001_pdb2pqr_Repair_245_r2_0001_out
     RDKit          3D

 82 86  0  0  0  0  0  0  0  0999 V2000
   -2.0280    7.8300   -1.8870 C   0  0  0  0  0  0  0  0  0  0  0  0
   -2.1940    8.5570   -0.5500 C   0  0  2  0  0  0  0  0  0  0  0  0
   -3.6650    8.6000   -0.0910 C   0  0  0  0  0  0  0  0  0  0  0  0
   -4.6710    8.4270   -1.2320 C   0  0  0  0  0  0  0  0  0  0  0  0
   -5.7620    7.4660   -0.8670 C   0  0  2  0  0  0  0  0  0  0  0  0
   -5.4040    6.0820   -0.9800 O   0  0  0  0  0  0  0  0  0  0  0  0
   -6.4350    6.5450   -1.8680 C   0  0  0  0  0  0  0  0  0  0  0  0
   -6.0410    6.5400   -3.3120 C   0  0  0  0  0  0  0  0  0  0  0  0
   -7.7940    6.0080   -1.5450 C   0  0  0  0  0  0  0  0  0  0  0  0
   -1.6400    9.9730   -0.6570 C   0  0  1  0  0  0  0  0  0  0  0  0
   -1.1330   10.5210    0.7040 C   0  0  0  0  0  0  0  0  0  0  0  0
    0.0970   11.4140    0.3970 C   0  0  0  0  0  0  0  0  0  0  0  0
    0.0570   11.6190   -1.1360 C   0  0  1  0  0  0  0  0  0  0  0  0
   -0.9850   12.7590   -1.3610 C   0  0  0  0  0  0  0  0  0  0  0  0
    1.4220   11.9400   -1.8260 C   0  0  2  0  0  0  0  0  0  0  0  0
    2.0870   13.2540   -1.3770 C   0  0  0  0  0  0  0  0  0  0  0  0
    1.7190   14.4600   -2.1760 C   0  0  0  0  0  0  0  0  0  0  0  0
    1.1170   14.4470   -3.3800 C   0  0  0  0  0  0  0  0  0  0  0  0
    0.8320   13.1250   -4.1040 C   0  0  1  0  0  0  0  0  0  0  0  0
    1.2690   13.2430   -5.5880 C   0  0  0  0  0  0  0  0  0  0  0  0
    0.6370   14.4410   -6.2900 C   0  0  0  0  0  0  0  0  0  0  0  0
    0.9920   15.7420   -5.5740 C   0  0  2  0  0  0  0  0  0  0  0  0
    2.3970   15.9750   -5.7110 O   0  0  0  0  0  0  0  0  0  0  0  0
    0.6070   15.7370   -4.0680 C   0  0  0  0  0  0  0  0  0  0  0  0
   -0.9340   15.7880   -3.9250 C   0  0  0  0  0  0  0  0  0  0  0  0
    1.1450   17.0480   -3.4340 C   0  0  0  0  0  0  0  0  0  0  0  0
    1.3970   11.8150   -3.4030 C   0  0  1  0  0  0  0  0  0  0  0  0
    2.8680   11.5630   -3.8540 C   0  0  0  0  0  0  0  0  0  0  0  0
    0.5640   10.5710   -3.8910 C   0  0  0  0  0  0  0  0  0  0  0  0
   -0.7110   10.2330   -3.0950 C   0  0  0  0  0  0  0  0  0  0  0  0
   -0.4240   10.1930   -1.5910 C   0  0  2  0  0  0  0  0  0  0  0  0
    0.6050    9.0400   -1.3320 C   0  0  0  0  0  0  0  0  0  0  0  0
   -1.7866    6.7729   -1.7020 H   0  0  0  0  0  0  0  0  0  0  0  0
   -2.9647    7.8974   -2.4598 H   0  0  0  0  0  0  0  0  0  0  0  0
   -1.2134    8.2973   -2.4598 H   0  0  0  0  0  0  0  0  0  0  0  0
   -1.6290    7.9925    0.2064 H   0  0  0  0  0  0  0  0  0  0  0  0
   -3.8249    7.7923    0.6384 H   0  0  0  0  0  0  0  0  0  0  0  0
   -3.8378    9.5965    0.3416 H   0  0  0  0  0  0  0  0  0  0  0  0
   -5.1194    9.4044   -1.4634 H   0  0  0  0  0  0  0  0  0  0  0  0
   -4.1353    8.0232   -2.1038 H   0  0  0  0  0  0  0  0  0  0  0  0
   -6.1658    8.1700   -0.1245 H   0  0  0  0  0  0  0  0  0  0  0  0
   -4.9441    6.5261   -3.3927 H   0  0  0  0  0  0  0  0  0  0  0  0
   -6.4561    5.6471   -3.8022 H   0  0  0  0  0  0  0  0  0  0  0  0
   -6.4333    7.4432   -3.8022 H   0  0  0  0  0  0  0  0  0  0  0  0
   -7.9188    5.9587   -0.4532 H   0  0  0  0  0  0  0  0  0  0  0  0
   -8.5611    6.6706   -1.9722 H   0  0  0  0  0  0  0  0  0  0  0  0
   -7.9010    5.0000   -1.9722 H   0  0  0  0  0  0  0  0  0  0  0  0
   -2.5242   10.4858   -1.0635 H   0  0  0  0  0  0  0  0  0  0  0  0
   -1.9207   11.1154    1.1901 H   0  0  0  0  0  0  0  0  0  0  0  0
   -0.8646    9.6998    1.3849 H   0  0  0  0  0  0  0  0  0  0  0  0
    0.0170   12.3784    0.9200 H   0  0  0  0  0  0  0  0  0  0  0  0
    1.0393   10.9561    0.7324 H   0  0  0  0  0  0  0  0  0  0  0  0
   -1.3307   13.1372   -0.3876 H   0  0  0  0  0  0  0  0  0  0  0  0
   -0.5164   13.5776   -1.9270 H   0  0  0  0  0  0  0  0  0  0  0  0
   -1.8423   12.3657   -1.9270 H   0  0  0  0  0  0  0  0  0  0  0  0
    2.0701   11.1335   -1.4524 H   0  0  0  0  0  0  0  0  0  0  0  0
    1.8017   13.4392   -0.3309 H   0  0  0  0  0  0  0  0  0  0  0  0
    3.1684   13.1123   -1.5201 H   0  0  0  0  0  0  0  0  0  0  0  0
    1.9602   15.4426   -1.7444 H   0  0  0  0  0  0  0  0  0  0  0  0
   -0.2561   12.9746   -4.0465 H   0  0  0  0  0  0  0  0  0  0  0  0
    2.3632   13.3488   -5.6261 H   0  0  0  0  0  0  0  0  0  0  0  0
    0.9319   12.3346   -6.1088 H   0  0  0  0  0  0  0  0  0  0  0  0
    1.0058   14.4875   -7.3253 H   0  0  0  0  0  0  0  0  0  0  0  0
   -0.4562   14.3196   -6.2766 H   0  0  0  0  0  0  0  0  0  0  0  0
    0.4084   16.5473   -6.0440 H   0  0  0  0  0  0  0  0  0  0  0  0
    2.5560   16.2890   -6.6180 H   0  0  0  0  0  0  0  0  0  0  0  0
   -1.2032   15.7969   -2.8585 H   0  0  0  0  0  0  0  0  0  0  0  0
   -1.3171   16.6993   -4.4075 H   0  0  0  0  0  0  0  0  0  0  0  0
   -1.3765   14.9040   -4.4075 H   0  0  0  0  0  0  0  0  0  0  0  0
    1.1113   16.9658   -2.3376 H   0  0  0  0  0  0  0  0  0  0  0  0
    2.1834   17.2126   -3.7576 H   0  0  0  0  0  0  0  0  0  0  0  0
    0.5216   17.8945   -3.7576 H   0  0  0  0  0  0  0  0  0  0  0  0
    3.5096   11.4531   -2.9673 H   0  0  0  0  0  0  0  0  0  0  0  0
    2.9145   10.6438   -4.4564 H   0  0  0  0  0  0  0  0  0  0  0  0
    3.2178   12.4143   -4.4564 H   0  0  0  0  0  0  0  0  0  0  0  0
    0.2658   10.7583   -4.9331 H   0  0  0  0  0  0  0  0  0  0  0  0
    1.2290    9.7062   -3.7500 H   0  0  0  0  0  0  0  0  0  0  0  0
   -1.4741   10.9995   -3.2954 H   0  0  0  0  0  0  0  0  0  0  0  0
   -1.0688    9.2417   -3.4102 H   0  0  0  0  0  0  0  0  0  0  0  0
    0.7316    8.8981   -0.2486 H   0  0  0  0  0  0  0  0  0  0  0  0
    0.2328    8.1082   -1.7828 H   0  0  0  0  0  0  0  0  0  0  0  0
    1.5730    9.3043   -1.7828 H   0  0  0  0  0  0  0  0  0  0  0  0
  1  2  1  0
  2  3  1  0
  3  4  1  0
  4  5  1  0
  5  6  1  0
  6  7  1  0
  7  8  1  0
  7  9  1  0
  2 10  1  0
 10 11  1  0
 11 12  1  0
 12 13  1  0
 13 14  1  1
 13 15  1  0
 15 16  1  0
 16 17  1  0
 17 18  2  0
 18 19  1  0
 19 20  1  0
 20 21  1  0
 21 22  1  0
 22 23  1  0
 22 24  1  0
 24 25  1  0
 24 26  1  0
 19 27  1  0
 27 28  1  6
 27 29  1  0
 29 30  1  0
 30 31  1  0
 31 32  1  6
  7  5  1  0
 31 10  1  0
 31 13  1  0
 27 15  1  0
 24 18  1  0
  1 33  1  0
  1 34  1  0
  1 35  1  0
  2 36  1  1
  3 37  1  0
  3 38  1  0
  4 39  1  0
  4 40  1  0
  5 41  1  1
  8 42  1  0
  8 43  1  0
  8 44  1  0
  9 45  1  0
  9 46  1  0
  9 47  1  0
 10 48  1  6
 11 49  1  0
 11 50  1  0
 12 51  1  0
 12 52  1  0
 14 53  1  0
 14 54  1  0
 14 55  1  0
 15 56  1  1
 16 57  1  0
 16 58  1  0
 17 59  1  0
 19 60  1  6
 20 61  1  0
 20 62  1  0
 21 63  1  0
 21 64  1  0
 22 65  1  6
 23 66  1  0
 25 67  1  0
 25 68  1  0
 25 69  1  0
 26 70  1  0
 26 71  1  0
 26 72  1  0
 28 73  1  0
 28 74  1  0
 28 75  1  0
 29 76  1  0
 29 77  1  0
 30 78  1  0
 30 79  1  0
 32 80  1  0
 32 81  1  0
 32 82  1  0
M  END
>  <meeko>  (13) 
{"is_sidechain": [false], "intermolecular_energy": 2.731, "internal_energy": -0.839}

$$$$
EPH_relaxed_0001_pdb2pqr_Repair_245_r2_0001_out
     RDKit          3D

 82 86  0  0  0  0  0  0  0  0999 V2000
   -0.1820    9.2450   -1.8380 C   0  0  0  0  0  0  0  0  0  0  0  0
    0.8600   10.2060   -2.4170 C   0  0  2  0  0  0  0  0  0  0  0  0
    2.2470    9.5470   -2.5540 C   0  0  0  0  0  0  0  0  0  0  0  0
    3.1160   10.1630   -3.6530 C   0  0  0  0  0  0  0  0  0  0  0  0
    4.5250   10.3800   -3.1900 C   0  0  2  0  0  0  0  0  0  0  0  0
    5.0110   11.7180   -3.3580 O   0  0  0  0  0  0  0  0  0  0  0  0
    5.6740   10.7010   -4.1270 C   0  0  0  0  0  0  0  0  0  0  0  0
    5.4650   10.8230   -5.6040 C   0  0  0  0  0  0  0  0  0  0  0  0
    7.0710   10.4150   -3.6720 C   0  0  0  0  0  0  0  0  0  0  0  0
    0.9600   11.4510   -1.5430 C   0  0  1  0  0  0  0  0  0  0  0  0
    2.0730   11.3390   -0.4680 C   0  0  0  0  0  0  0  0  0  0  0  0
    2.6720   12.7590   -0.2950 C   0  0  0  0  0  0  0  0  0  0  0  0
    1.6760   13.6940   -1.0200 C   0  0  1  0  0  0  0  0  0  0  0  0
    0.5200   13.9200    0.0050 C   0  0  0  0  0  0  0  0  0  0  0  0
    2.2550   15.0480   -1.5440 C   0  0  2  0  0  0  0  0  0  0  0  0
    2.7960   15.9910   -0.4550 C   0  0  0  0  0  0  0  0  0  0  0  0
    1.8030   16.9560    0.1030 C   0  0  0  0  0  0  0  0  0  0  0  0
    0.6110   17.2570   -0.4450 C   0  0  0  0  0  0  0  0  0  0  0  0
    0.1990   16.6740   -1.8030 C   0  0  1  0  0  0  0  0  0  0  0  0
   -0.3820   17.8020   -2.6960 C   0  0  0  0  0  0  0  0  0  0  0  0
   -1.5200   18.5580   -2.0160 C   0  0  0  0  0  0  0  0  0  0  0  0
   -1.0560   19.1720   -0.6970 C   0  0  2  0  0  0  0  0  0  0  0  0
   -0.0950   20.1940   -0.9780 O   0  0  0  0  0  0  0  0  0  0  0  0
   -0.4420   18.1310    0.2800 C   0  0  0  0  0  0  0  0  0  0  0  0
   -1.5570   17.2020    0.8190 C   0  0  0  0  0  0  0  0  0  0  0  0
    0.1140   18.9000    1.5090 C   0  0  0  0  0  0  0  0  0  0  0  0
    1.3050   15.8130   -2.5520 C   0  0  1  0  0  0  0  0  0  0  0  0
    2.2190   16.7450   -3.4050 C   0  0  0  0  0  0  0  0  0  0  0  0
    0.5970   14.8370   -3.5650 C   0  0  0  0  0  0  0  0  0  0  0  0
    0.1550   13.4670   -3.0160 C   0  0  0  0  0  0  0  0  0  0  0  0
    1.2950   12.7900   -2.2480 C   0  0  2  0  0  0  0  0  0  0  0  0
    2.4640   12.5300   -3.2580 C   0  0  0  0  0  0  0  0  0  0  0  0
   -0.1432    9.2807   -0.7393 H   0  0  0  0  0  0  0  0  0  0  0  0
   -1.1846    9.5422   -2.1794 H   0  0  0  0  0  0  0  0  0  0  0  0
    0.0332    8.2217   -2.1794 H   0  0  0  0  0  0  0  0  0  0  0  0
    0.5265   10.4852   -3.4274 H   0  0  0  0  0  0  0  0  0  0  0  0
    2.7761    9.6491   -1.5950 H   0  0  0  0  0  0  0  0  0  0  0  0
    2.0772    8.4959   -2.8303 H   0  0  0  0  0  0  0  0  0  0  0  0
    3.1261    9.4867   -4.5204 H   0  0  0  0  0  0  0  0  0  0  0  0
    2.6886   11.1408   -3.9201 H   0  0  0  0  0  0  0  0  0  0  0  0
    4.4066    9.6233   -2.4004 H   0  0  0  0  0  0  0  0  0  0  0  0
    4.5299   11.3688   -5.7981 H   0  0  0  0  0  0  0  0  0  0  0  0
    6.3085   11.3706   -6.0497 H   0  0  0  0  0  0  0  0  0  0  0  0
    5.4030    9.8193   -6.0497 H   0  0  0  0  0  0  0  0  0  0  0  0
    7.1044   10.4082   -2.5725 H   0  0  0  0  0  0  0  0  0  0  0  0
    7.3875    9.4334   -4.0545 H   0  0  0  0  0  0  0  0  0  0  0  0
    7.7478   11.1932   -4.0545 H   0  0  0  0  0  0  0  0  0  0  0  0
   -0.0657   11.4805   -1.1468 H   0  0  0  0  0  0  0  0  0  0  0  0
    1.6466   10.9891    0.4837 H   0  0  0  0  0  0  0  0  0  0  0  0
    2.8461   10.6186   -0.7733 H   0  0  0  0  0  0  0  0  0  0  0  0
    2.7461   13.0220    0.7705 H   0  0  0  0  0  0  0  0  0  0  0  0
    3.6897   12.8351   -0.7055 H   0  0  0  0  0  0  0  0  0  0  0  0
    0.9167   13.8424    1.0280 H   0  0  0  0  0  0  0  0  0  0  0  0
    0.0868   14.9198   -0.1455 H   0  0  0  0  0  0  0  0  0  0  0  0
   -0.2579   13.1569   -0.1455 H   0  0  0  0  0  0  0  0  0  0  0  0
    3.1335   14.7216   -2.1199 H   0  0  0  0  0  0  0  0  0  0  0  0
    3.1722   15.3731    0.3736 H   0  0  0  0  0  0  0  0  0  0  0  0
    3.5740   16.6000   -0.9385 H   0  0  0  0  0  0  0  0  0  0  0  0
    2.0680   17.4643    1.0418 H   0  0  0  0  0  0  0  0  0  0  0  0
   -0.5802   15.9275   -1.5894 H   0  0  0  0  0  0  0  0  0  0  0  0
    0.4224   18.5139   -2.9330 H   0  0  0  0  0  0  0  0  0  0  0  0
   -0.7880   17.3333   -3.6046 H   0  0  0  0  0  0  0  0  0  0  0  0
   -1.8688   19.3599   -2.6833 H   0  0  0  0  0  0  0  0  0  0  0  0
   -2.3355   17.8503   -1.8061 H   0  0  0  0  0  0  0  0  0  0  0  0
   -1.9425   19.5875   -0.1956 H   0  0  0  0  0  0  0  0  0  0  0  0
   -0.4850   20.7920   -1.6380 H   0  0  0  0  0  0  0  0  0  0  0  0
   -1.5437   17.2131    1.9189 H   0  0  0  0  0  0  0  0  0  0  0  0
   -2.5347   17.5564    0.4606 H   0  0  0  0  0  0  0  0  0  0  0  0
   -1.3849   16.1764    0.4606 H   0  0  0  0  0  0  0  0  0  0  0  0
   -0.2357   18.4164    2.4330 H   0  0  0  0  0  0  0  0  0  0  0  0
    1.2136   18.8880    1.4823 H   0  0  0  0  0  0  0  0  0  0  0  0
   -0.2421   19.9404    1.4823 H   0  0  0  0  0  0  0  0  0  0  0  0
    2.8311   17.3692   -2.7374 H   0  0  0  0  0  0  0  0  0  0  0  0
    2.8766   16.1328   -4.0397 H   0  0  0  0  0  0  0  0  0  0  0  0
    1.5941   17.3905   -4.0397 H   0  0  0  0  0  0  0  0  0  0  0  0
   -0.2994   15.3472   -3.9474 H   0  0  0  0  0  0  0  0  0  0  0  0
    1.3582   14.6102   -4.3260 H   0  0  0  0  0  0  0  0  0  0  0  0
   -0.7001   13.6096   -2.3389 H   0  0  0  0  0  0  0  0  0  0  0  0
   -0.1274   12.8244   -3.8629 H   0  0  0  0  0  0  0  0  0  0  0  0
    3.3903   12.3240   -2.7016 H   0  0  0  0  0  0  0  0  0  0  0  0
    2.2163   11.6650   -3.8908 H   0  0  0  0  0  0  0  0  0  0  0  0
    2.6063   13.4184   -3.8908 H   0  0  0  0  0  0  0  0  0  0  0  0
  1  2  1  0
  2  3  1  0
  3  4  1  0
  4  5  1  0
  5  6  1  0
  6  7  1  0
  7  8  1  0
  7  9  1  0
  2 10  1  0
 10 11  1  0
 11 12  1  0
 12 13  1  0
 13 14  1  1
 13 15  1  0
 15 16  1  0
 16 17  1  0
 17 18  2  0
 18 19  1  0
 19 20  1  0
 20 21  1  0
 21 22  1  0
 22 23  1  0
 22 24  1  0
 24 25  1  0
 24 26  1  0
 19 27  1  0
 27 28  1  6
 27 29  1  0
 29 30  1  0
 30 31  1  0
 31 32  1  6
  7  5  1  0
 31 10  1  0
 31 13  1  0
 27 15  1  0
 24 18  1  0
  1 33  1  0
  1 34  1  0
  1 35  1  0
  2 36  1  6
  3 37  1  0
  3 38  1  0
  4 39  1  0
  4 40  1  0
  5 41  1  1
  8 42  1  0
  8 43  1  0
  8 44  1  0
  9 45  1  0
  9 46  1  0
  9 47  1  0
 10 48  1  1
 11 49  1  0
 11 50  1  0
 12 51  1  0
 12 52  1  0
 14 53  1  0
 14 54  1  0
 14 55  1  0
 15 56  1  6
 16 57  1  0
 16 58  1  0
 17 59  1  0
 19 60  1  1
 20 61  1  0
 20 62  1  0
 21 63  1  0
 21 64  1  0
 22 65  1  1
 23 66  1  0
 25 67  1  0
 25 68  1  0
 25 69  1  0
 26 70  1  0
 26 71  1  0
 26 72  1  0
 28 73  1  0
 28 74  1  0
 28 75  1  0
 29 76  1  0
 29 77  1  0
 30 78  1  0
 30 79  1  0
 32 80  1  0
 32 81  1  0
 32 82  1  0
M  END
>  <meeko>  (14) 
{"is_sidechain": [false], "intermolecular_energy": 2.731, "internal_energy": -0.839}

$$$$
EPH_relaxed_0001_pdb2pqr_Repair_245_r2_0001_out
     RDKit          3D

 82 86  0  0  0  0  0  0  0  0999 V2000
    1.4680   10.7210   -4.7400 C   0  0  0  0  0  0  0  0  0  0  0  0
    0.7500   10.5410   -3.4000 C   0  0  2  0  0  0  0  0  0  0  0  0
   -0.3910    9.5080   -3.4880 C   0  0  0  0  0  0  0  0  0  0  0  0
   -0.2810    8.3810   -2.4570 C   0  0  0  0  0  0  0  0  0  0  0  0
    0.0710    8.9050   -1.0980 C   0  0  2  0  0  0  0  0  0  0  0  0
   -0.2900    8.0430   -0.0110 O   0  0  0  0  0  0  0  0  0  0  0  0
   -0.9620    9.3120   -0.0640 C   0  0  0  0  0  0  0  0  0  0  0  0
   -2.4290    9.2120   -0.3450 C   0  0  0  0  0  0  0  0  0  0  0  0
   -0.5530   10.2560    1.0230 C   0  0  0  0  0  0  0  0  0  0  0  0
    0.2040   11.8810   -2.9190 C   0  0  1  0  0  0  0  0  0  0  0  0
   -1.1370   11.7380   -2.1510 C   0  0  0  0  0  0  0  0  0  0  0  0
   -1.1310   12.8180   -1.0380 C   0  0  0  0  0  0  0  0  0  0  0  0
    0.0450   13.7520   -1.4070 C   0  0  1  0  0  0  0  0  0  0  0  0
   -0.5280   14.7040   -2.5030 C   0  0  0  0  0  0  0  0  0  0  0  0
    0.6890   14.5510   -0.2270 C   0  0  2  0  0  0  0  0  0  0  0  0
   -0.2530   15.5390    0.4820 C   0  0  0  0  0  0  0  0  0  0  0  0
   -0.2640   16.9230   -0.0780 C   0  0  0  0  0  0  0  0  0  0  0  0
    0.6540   17.4330   -0.9200 C   0  0  0  0  0  0  0  0  0  0  0  0
    1.8950   16.6240   -1.3170 C   0  0  1  0  0  0  0  0  0  0  0  0
    3.1550   17.5210   -1.2070 C   0  0  0  0  0  0  0  0  0  0  0  0
    3.0230   18.8150   -2.0040 C   0  0  0  0  0  0  0  0  0  0  0  0
    1.8120   19.6200   -1.5410 C   0  0  2  0  0  0  0  0  0  0  0  0
    2.0430   20.0730   -0.2040 O   0  0  0  0  0  0  0  0  0  0  0  0
    0.4830   18.8150   -1.5980 C   0  0  0  0  0  0  0  0  0  0  0  0
    0.0780   18.5840   -3.0750 C   0  0  0  0  0  0  0  0  0  0  0  0
   -0.6340   19.6930   -0.9730 C   0  0  0  0  0  0  0  0  0  0  0  0
    2.0750   15.2260   -0.5820 C   0  0  1  0  0  0  0  0  0  0  0  0
    2.8310   15.4280    0.7670 C   0  0  0  0  0  0  0  0  0  0  0  0
    2.9860   14.2940   -1.4660 C   0  0  0  0  0  0  0  0  0  0  0  0
    2.2760   13.4400   -2.5340 C   0  0  0  0  0  0  0  0  0  0  0  0
    1.0810   12.6940   -1.9350 C   0  0  2  0  0  0  0  0  0  0  0  0
    1.6280   11.7110   -0.8440 C   0  0  0  0  0  0  0  0  0  0  0  0
    2.5205   10.9849   -4.5595 H   0  0  0  0  0  0  0  0  0  0  0  0
    1.4181    9.7826   -5.3117 H   0  0  0  0  0  0  0  0  0  0  0  0
    0.9813   11.5249   -5.3117 H   0  0  0  0  0  0  0  0  0  0  0  0
    1.4865   10.1590   -2.6778 H   0  0  0  0  0  0  0  0  0  0  0  0
   -1.3459   10.0309   -3.3306 H   0  0  0  0  0  0  0  0  0  0  0  0
   -0.3271    9.0419   -4.4823 H   0  0  0  0  0  0  0  0  0  0  0  0
   -1.2462    7.8566   -2.3978 H   0  0  0  0  0  0  0  0  0  0  0  0
    0.5194    7.6987   -2.7791 H   0  0  0  0  0  0  0  0  0  0  0  0
    0.9545    9.4216   -1.5012 H   0  0  0  0  0  0  0  0  0  0  0  0
   -2.9825    9.1743    0.6048 H   0  0  0  0  0  0  0  0  0  0  0  0
   -2.7523   10.0902   -0.9232 H   0  0  0  0  0  0  0  0  0  0  0  0
   -2.6301    8.2981   -0.9232 H   0  0  0  0  0  0  0  0  0  0  0  0
   -0.7522    9.7961    2.0022 H   0  0  0  0  0  0  0  0  0  0  0  0
    0.5210   10.4758    0.9329 H   0  0  0  0  0  0  0  0  0  0  0  0
   -1.1272   11.1899    0.9329 H   0  0  0  0  0  0  0  0  0  0  0  0
    0.1327   12.4080   -3.8819 H   0  0  0  0  0  0  0  0  0  0  0  0
   -1.9840   11.9018   -2.8335 H   0  0  0  0  0  0  0  0  0  0  0  0
   -1.2423   10.7300   -1.7234 H   0  0  0  0  0  0  0  0  0  0  0  0
   -2.0805   13.3734   -1.0307 H   0  0  0  0  0  0  0  0  0  0  0  0
   -1.0184   12.3821   -0.0344 H   0  0  0  0  0  0  0  0  0  0  0  0
   -1.0382   15.5516   -2.0221 H   0  0  0  0  0  0  0  0  0  0  0  0
    0.2947   15.0788   -3.1297 H   0  0  0  0  0  0  0  0  0  0  0  0
   -1.2443   14.1525   -3.1297 H   0  0  0  0  0  0  0  0  0  0  0  0
    0.8990   13.7597    0.5076 H   0  0  0  0  0  0  0  0  0  0  0  0
   -1.2756   15.1386    0.4188 H   0  0  0  0  0  0  0  0  0  0  0  0
    0.1213   15.6305    1.5123 H   0  0  0  0  0  0  0  0  0  0  0  0
   -1.0922   17.5814    0.2229 H   0  0  0  0  0  0  0  0  0  0  0  0
    1.7408   16.3245   -2.3642 H   0  0  0  0  0  0  0  0  0  0  0  0
    3.3168   17.7736   -0.1487 H   0  0  0  0  0  0  0  0  0  0  0  0
    4.0033   16.9577   -1.6229 H   0  0  0  0  0  0  0  0  0  0  0  0
    3.9317   19.4187   -1.8632 H   0  0  0  0  0  0  0  0  0  0  0  0
    2.8904   18.5611   -3.0660 H   0  0  0  0  0  0  0  0  0  0  0  0
    1.6954   20.4674   -2.2326 H   0  0  0  0  0  0  0  0  0  0  0  0
    2.8900   20.5490   -0.1960 H   0  0  0  0  0  0  0  0  0  0  0  0
   -0.8769   18.0393   -3.1125 H   0  0  0  0  0  0  0  0  0  0  0  0
   -0.0333   19.5545   -3.5808 H   0  0  0  0  0  0  0  0  0  0  0  0
    0.8566   17.9941   -3.5808 H   0  0  0  0  0  0  0  0  0  0  0  0
   -0.5696   19.6423    0.1239 H   0  0  0  0  0  0  0  0  0  0  0  0
   -0.5070   20.7356   -1.3000 H   0  0  0  0  0  0  0  0  0  0  0  0
   -1.6171   19.3233   -1.3000 H   0  0  0  0  0  0  0  0  0  0  0  0
    2.1421   15.2439    1.6045 H   0  0  0  0  0  0  0  0  0  0  0  0
    3.6739   14.7236    0.8240 H   0  0  0  0  0  0  0  0  0  0  0  0
    3.2102   16.4590    0.8240 H   0  0  0  0  0  0  0  0  0  0  0  0
    3.7153   14.9349   -1.9831 H   0  0  0  0  0  0  0  0  0  0  0  0
    3.4251   13.5702   -0.7636 H   0  0  0  0  0  0  0  0  0  0  0  0
    1.9217   14.0966   -3.3423 H   0  0  0  0  0  0  0  0  0  0  0  0
    2.9912   12.7005   -2.9235 H   0  0  0  0  0  0  0  0  0  0  0  0
    1.4049   12.1119    0.1557 H   0  0  0  0  0  0  0  0  0  0  0  0
    1.1467   10.7288   -0.9610 H   0  0  0  0  0  0  0  0  0  0  0  0
    2.7163   11.6023   -0.9610 H   0  0  0  0  0  0  0  0  0  0  0  0
  1  2  1  0
  2  3  1  0
  3  4  1  0
  4  5  1  0
  5  6  1  0
  6  7  1  0
  7  8  1  0
  7  9  1  0
  2 10  1  0
 10 11  1  0
 11 12  1  0
 12 13  1  0
 13 14  1  6
 13 15  1  0
 15 16  1  0
 16 17  1  0
 17 18  2  0
 18 19  1  0
 19 20  1  0
 20 21  1  0
 21 22  1  0
 22 23  1  0
 22 24  1  0
 24 25  1  0
 24 26  1  0
 19 27  1  0
 27 28  1  1
 27 29  1  0
 29 30  1  0
 30 31  1  0
 31 32  1  1
  7  5  1  0
 31 10  1  0
 31 13  1  0
 27 15  1  0
 24 18  1  0
  1 33  1  0
  1 34  1  0
  1 35  1  0
  2 36  1  1
  3 37  1  0
  3 38  1  0
  4 39  1  0
  4 40  1  0
  5 41  1  6
  8 42  1  0
  8 43  1  0
  8 44  1  0
  9 45  1  0
  9 46  1  0
  9 47  1  0
 10 48  1  6
 11 49  1  0
 11 50  1  0
 12 51  1  0
 12 52  1  0
 14 53  1  0
 14 54  1  0
 14 55  1  0
 15 56  1  1
 16 57  1  0
 16 58  1  0
 17 59  1  0
 19 60  1  6
 20 61  1  0
 20 62  1  0
 21 63  1  0
 21 64  1  0
 22 65  1  6
 23 66  1  0
 25 67  1  0
 25 68  1  0
 25 69  1  0
 26 70  1  0
 26 71  1  0
 26 72  1  0
 28 73  1  0
 28 74  1  0
 28 75  1  0
 29 76  1  0
 29 77  1  0
 30 78  1  0
 30 79  1  0
 32 80  1  0
 32 81  1  0
 32 82  1  0
M  END
>  <meeko>  (15) 
{"is_sidechain": [false], "intermolecular_energy": 2.731, "internal_energy": -0.839}

$$$$
EPH_relaxed_0001_pdb2pqr_Repair_245_r2_0001_out
     RDKit          3D

 82 86  0  0  0  0  0  0  0  0999 V2000
    0.9000   14.9040   -2.6340 C   0  0  0  0  0  0  0  0  0  0  0  0
    1.1610   14.2310   -3.9840 C   0  0  2  0  0  0  0  0  0  0  0  0
    0.4530   14.9600   -5.1440 C   0  0  0  0  0  0  0  0  0  0  0  0
    0.9720   14.5640   -6.5280 C   0  0  0  0  0  0  0  0  0  0  0  0
    0.7500   15.6510   -7.5360 C   0  0  2  0  0  0  0  0  0  0  0  0
    0.4220   15.1890   -8.8520 O   0  0  0  0  0  0  0  0  0  0  0  0
    1.6670   15.8940   -8.7200 C   0  0  0  0  0  0  0  0  0  0  0  0
    2.8750   15.0440   -8.9590 C   0  0  0  0  0  0  0  0  0  0  0  0
    1.6650   17.2470   -9.3610 C   0  0  0  0  0  0  0  0  0  0  0  0
    0.7120   12.7750   -3.9340 C   0  0  1  0  0  0  0  0  0  0  0  0
    1.8450   11.7870   -4.3200 C   0  0  0  0  0  0  0  0  0  0  0  0
    1.6490   10.5190   -3.4500 C   0  0  0  0  0  0  0  0  0  0  0  0
    0.2370   10.6780   -2.8410 C   0  0  1  0  0  0  0  0  0  0  0  0
   -0.7400   10.2110   -3.9650 C   0  0  0  0  0  0  0  0  0  0  0  0
   -0.0260    9.9230   -1.4980 C   0  0  2  0  0  0  0  0  0  0  0  0
    0.0810    8.3900   -1.5800 C   0  0  0  0  0  0  0  0  0  0  0  0
   -1.1910    7.6780   -1.9030 C   0  0  0  0  0  0  0  0  0  0  0  0
   -2.4240    8.2130   -1.8390 C   0  0  0  0  0  0  0  0  0  0  0  0
   -2.6380    9.6390   -1.3140 C   0  0  1  0  0  0  0  0  0  0  0  0
   -3.8160    9.6470   -0.3050 C   0  0  0  0  0  0  0  0  0  0  0  0
   -5.0900    9.0420   -0.8880 C   0  0  0  0  0  0  0  0  0  0  0  0
   -4.8520    7.6060   -1.3450 C   0  0  2  0  0  0  0  0  0  0  0  0
   -4.5910    6.7930   -0.1970 O   0  0  0  0  0  0  0  0  0  0  0  0
   -3.6810    7.4710   -2.3580 C   0  0  0  0  0  0  0  0  0  0  0  0
   -4.0900    8.0980   -3.7140 C   0  0  0  0  0  0  0  0  0  0  0  0
   -3.4550    5.9590   -2.6290 C   0  0  0  0  0  0  0  0  0  0  0  0
   -1.3460   10.3710   -0.7490 C   0  0  1  0  0  0  0  0  0  0  0  0
   -1.1470   10.0140    0.7560 C   0  0  0  0  0  0  0  0  0  0  0  0
   -1.5690   11.9280   -0.8100 C   0  0  0  0  0  0  0  0  0  0  0  0
   -1.1790   12.6350   -2.1220 C   0  0  0  0  0  0  0  0  0  0  0  0
    0.2290   12.2260   -2.5680 C   0  0  2  0  0  0  0  0  0  0  0  0
    1.2360   12.7030   -1.4670 C   0  0  0  0  0  0  0  0  0  0  0  0
    1.1682   14.2125   -1.8216 H   0  0  0  0  0  0  0  0  0  0  0  0
    1.5095   15.8163   -2.5552 H   0  0  0  0  0  0  0  0  0  0  0  0
   -0.1652   15.1668   -2.5552 H   0  0  0  0  0  0  0  0  0  0  0  0
    2.2433   14.2811   -4.1743 H   0  0  0  0  0  0  0  0  0  0  0  0
   -0.6210   14.7273   -5.0963 H   0  0  0  0  0  0  0  0  0  0  0  0
    0.6559   16.0340   -5.0200 H   0  0  0  0  0  0  0  0  0  0  0  0
    2.0501   14.3572   -6.4585 H   0  0  0  0  0  0  0  0  0  0  0  0
    0.4197   13.6721   -6.8587 H   0  0  0  0  0  0  0  0  0  0  0  0
    0.3540   16.3222   -6.7597 H   0  0  0  0  0  0  0  0  0  0  0  0
    3.3065   14.7404   -7.9938 H   0  0  0  0  0  0  0  0  0  0  0  0
    2.5864   14.1488   -9.5295 H   0  0  0  0  0  0  0  0  0  0  0  0
    3.6201   15.6179   -9.5295 H   0  0  0  0  0  0  0  0  0  0  0  0
    1.6639   18.0224   -8.5808 H   0  0  0  0  0  0  0  0  0  0  0  0
    2.5630   17.3577   -9.9866 H   0  0  0  0  0  0  0  0  0  0  0  0
    0.7667   17.3550   -9.9866 H   0  0  0  0  0  0  0  0  0  0  0  0
   -0.1289   12.8173   -4.6419 H   0  0  0  0  0  0  0  0  0  0  0  0
    1.7751   11.5287   -5.3870 H   0  0  0  0  0  0  0  0  0  0  0  0
    2.8349   12.2348   -4.1478 H   0  0  0  0  0  0  0  0  0  0  0  0
    1.7051    9.6112   -4.0686 H   0  0  0  0  0  0  0  0  0  0  0  0
    2.4269   10.4180   -2.6788 H   0  0  0  0  0  0  0  0  0  0  0  0
   -1.6434    9.7792   -3.5095 H   0  0  0  0  0  0  0  0  0  0  0  0
   -1.0199   11.0727   -4.5888 H   0  0  0  0  0  0  0  0  0  0  0  0
   -0.2453    9.4520   -4.5888 H   0  0  0  0  0  0  0  0  0  0  0  0
    0.8199   10.2492   -0.8750 H   0  0  0  0  0  0  0  0  0  0  0  0
    0.8167    8.1419   -2.3593 H   0  0  0  0  0  0  0  0  0  0  0  0
    0.3724    8.0512   -0.5749 H   0  0  0  0  0  0  0  0  0  0  0  0
   -1.1136    6.6275   -2.2200 H   0  0  0  0  0  0  0  0  0  0  0  0
   -2.8933   10.2513   -2.1914 H   0  0  0  0  0  0  0  0  0  0  0  0
   -3.5240    9.0664    0.5825 H   0  0  0  0  0  0  0  0  0  0  0  0
   -4.0304   10.6954   -0.0504 H   0  0  0  0  0  0  0  0  0  0  0  0
   -5.8766    9.0494   -0.1191 H   0  0  0  0  0  0  0  0  0  0  0  0
   -5.3969    9.6410   -1.7580 H   0  0  0  0  0  0  0  0  0  0  0  0
   -5.7599    7.2729   -1.8691 H   0  0  0  0  0  0  0  0  0  0  0  0
   -3.6340    6.8200   -0.0290 H   0  0  0  0  0  0  0  0  0  0  0  0
   -4.6829    9.0069   -3.5338 H   0  0  0  0  0  0  0  0  0  0  0  0
   -3.1866    8.3569   -4.2856 H   0  0  0  0  0  0  0  0  0  0  0  0
   -4.6910    7.3755   -4.2856 H   0  0  0  0  0  0  0  0  0  0  0  0
   -3.3749    5.4229   -1.6718 H   0  0  0  0  0  0  0  0  0  0  0  0
   -4.3033    5.5587   -3.2036 H   0  0  0  0  0  0  0  0  0  0  0  0
   -2.5267    5.8242   -3.2036 H   0  0  0  0  0  0  0  0  0  0  0  0
   -1.5875   10.8043    1.3816 H   0  0  0  0  0  0  0  0  0  0  0  0
   -1.6411    9.0557    0.9740 H   0  0  0  0  0  0  0  0  0  0  0  0
   -0.0721    9.9303    0.9740 H   0  0  0  0  0  0  0  0  0  0  0  0
   -2.6382   12.1181   -0.6347 H   0  0  0  0  0  0  0  0  0  0  0  0
   -0.8953   12.3452   -0.0471 H   0  0  0  0  0  0  0  0  0  0  0  0
   -1.8991   12.3600   -2.9067 H   0  0  0  0  0  0  0  0  0  0  0  0
   -1.1912   13.7217   -1.9518 H   0  0  0  0  0  0  0  0  0  0  0  0
    0.8129   12.5026   -0.4716 H   0  0  0  0  0  0  0  0  0  0  0  0
    2.1856   12.1590   -1.5781 H   0  0  0  0  0  0  0  0  0  0  0  0
    1.4166   13.7824   -1.5781 H   0  0  0  0  0  0  0  0  0  0  0  0
  1  2  1  0
  2  3  1  0
  3  4  1  0
  4  5  1  0
  5  6  1  0
  6  7  1  0
  7  8  1  0
  7  9  1  0
  2 10  1  0
 10 11  1  0
 11 12  1  0
 12 13  1  0
 13 14  1  6
 13 15  1  0
 15 16  1  0
 16 17  1  0
 17 18  2  0
 18 19  1  0
 19 20  1  0
 20 21  1  0
 21 22  1  0
 22 23  1  0
 22 24  1  0
 24 25  1  0
 24 26  1  0
 19 27  1  0
 27 28  1  1
 27 29  1  0
 29 30  1  0
 30 31  1  0
 31 32  1  1
  7  5  1  0
 31 10  1  0
 31 13  1  0
 27 15  1  0
 24 18  1  0
  1 33  1  0
  1 34  1  0
  1 35  1  0
  2 36  1  6
  3 37  1  0
  3 38  1  0
  4 39  1  0
  4 40  1  0
  5 41  1  1
  8 42  1  0
  8 43  1  0
  8 44  1  0
  9 45  1  0
  9 46  1  0
  9 47  1  0
 10 48  1  6
 11 49  1  0
 11 50  1  0
 12 51  1  0
 12 52  1  0
 14 53  1  0
 14 54  1  0
 14 55  1  0
 15 56  1  1
 16 57  1  0
 16 58  1  0
 17 59  1  0
 19 60  1  6
 20 61  1  0
 20 62  1  0
 21 63  1  0
 21 64  1  0
 22 65  1  6
 23 66  1  0
 25 67  1  0
 25 68  1  0
 25 69  1  0
 26 70  1  0
 26 71  1  0
 26 72  1  0
 28 73  1  0
 28 74  1  0
 28 75  1  0
 29 76  1  0
 29 77  1  0
 30 78  1  0
 30 79  1  0
 32 80  1  0
 32 81  1  0
 32 82  1  0
M  END
>  <meeko>  (16) 
{"is_sidechain": [false], "intermolecular_energy": 2.731, "internal_energy": -0.839}

$$$$
EPH_relaxed_0001_pdb2pqr_Repair_245_r2_0001_out
     RDKit          3D

 82 86  0  0  0  0  0  0  0  0999 V2000
   -2.4430    7.7880   -0.0800 C   0  0  0  0  0  0  0  0  0  0  0  0
   -3.0360    9.2000   -0.0450 C   0  0  2  0  0  0  0  0  0  0  0  0
   -4.5360    9.2090   -0.4030 C   0  0  0  0  0  0  0  0  0  0  0  0
   -5.1770    7.8180   -0.4030 C   0  0  0  0  0  0  0  0  0  0  0  0
   -5.8410    7.5140   -1.7120 C   0  0  2  0  0  0  0  0  0  0  0  0
   -6.8080    8.4860   -2.1330 O   0  0  0  0  0  0  0  0  0  0  0  0
   -7.3140    7.1730   -1.8430 C   0  0  0  0  0  0  0  0  0  0  0  0
   -8.2120    7.1170   -0.6470 C   0  0  0  0  0  0  0  0  0  0  0  0
   -7.7690    6.4210   -3.0550 C   0  0  0  0  0  0  0  0  0  0  0  0
   -2.2680   10.1100   -0.9970 C   0  0  1  0  0  0  0  0  0  0  0  0
   -2.9080   11.5180   -1.1230 C   0  0  0  0  0  0  0  0  0  0  0  0
   -1.7420   12.5250   -1.2980 C   0  0  0  0  0  0  0  0  0  0  0  0
   -0.5070   11.6440   -1.5980 C   0  0  1  0  0  0  0  0  0  0  0  0
   -0.6130   11.3090   -3.1190 C   0  0  0  0  0  0  0  0  0  0  0  0
    0.8840   12.2580   -1.2380 C   0  0  2  0  0  0  0  0  0  0  0  0
    1.2510   13.5390   -2.0080 C   0  0  0  0  0  0  0  0  0  0  0  0
    1.9910   13.3250   -3.2860 C   0  0  0  0  0  0  0  0  0  0  0  0
    2.5960   12.1810   -3.6580 C   0  0  0  0  0  0  0  0  0  0  0  0
    2.6550   10.9770   -2.7090 C   0  0  1  0  0  0  0  0  0  0  0  0
    4.0960   10.4030   -2.6910 C   0  0  0  0  0  0  0  0  0  0  0  0
    4.6100   10.0700   -4.0890 C   0  0  0  0  0  0  0  0  0  0  0  0
    4.5900   11.3050   -4.9850 C   0  0  2  0  0  0  0  0  0  0  0  0
    5.5470   12.2490   -4.4920 O   0  0  0  0  0  0  0  0  0  0  0  0
    3.1910   11.9770   -5.0730 C   0  0  0  0  0  0  0  0  0  0  0  0
    2.2290   11.0700   -5.8790 C   0  0  0  0  0  0  0  0  0  0  0  0
    3.3410   13.2880   -5.8910 C   0  0  0  0  0  0  0  0  0  0  0  0
    2.0760   11.2160   -1.2490 C   0  0  1  0  0  0  0  0  0  0  0  0
    3.1870   11.8010   -0.3240 C   0  0  0  0  0  0  0  0  0  0  0  0
    1.6640    9.8300   -0.6260 C   0  0  0  0  0  0  0  0  0  0  0  0
    0.2350    9.3330   -0.9190 C   0  0  0  0  0  0  0  0  0  0  0  0
   -0.7950   10.4310   -0.6390 C   0  0  2  0  0  0  0  0  0  0  0  0
   -0.7270   10.7730    0.8880 C   0  0  0  0  0  0  0  0  0  0  0  0
   -2.2919    7.4282    0.9484 H   0  0  0  0  0  0  0  0  0  0  0  0
   -3.1337    7.1132   -0.6068 H   0  0  0  0  0  0  0  0  0  0  0  0
   -1.4776    7.8087   -0.6068 H   0  0  0  0  0  0  0  0  0  0  0  0
   -2.9402    9.5737    0.9851 H   0  0  0  0  0  0  0  0  0  0  0  0
   -5.0645    9.8350    0.3310 H   0  0  0  0  0  0  0  0  0  0  0  0
   -4.6199    9.6018   -1.4271 H   0  0  0  0  0  0  0  0  0  0  0  0
   -4.3965    7.0658   -0.2159 H   0  0  0  0  0  0  0  0  0  0  0  0
   -5.9444    7.7939    0.3847 H   0  0  0  0  0  0  0  0  0  0  0  0
   -4.9326    7.0183   -2.0850 H   0  0  0  0  0  0  0  0  0  0  0  0
   -7.6048    7.1549    0.2695 H   0  0  0  0  0  0  0  0  0  0  0  0
   -8.9015    7.9739   -0.6657 H   0  0  0  0  0  0  0  0  0  0  0  0
   -8.7897    6.1811   -0.6657 H   0  0  0  0  0  0  0  0  0  0  0  0
   -8.3150    5.5185   -2.7430 H   0  0  0  0  0  0  0  0  0  0  0  0
   -8.4316    7.0609   -3.6563 H   0  0  0  0  0  0  0  0  0  0  0  0
   -6.8947    6.1310   -3.6563 H   0  0  0  0  0  0  0  0  0  0  0  0
   -2.3086    9.4991   -1.9109 H   0  0  0  0  0  0  0  0  0  0  0  0
   -3.5744   11.5544   -1.9974 H   0  0  0  0  0  0  0  0  0  0  0  0
   -3.5088   11.7599   -0.2339 H   0  0  0  0  0  0  0  0  0  0  0  0
   -1.9429   13.2100   -2.1349 H   0  0  0  0  0  0  0  0  0  0  0  0
   -1.5983   13.1554   -0.4081 H   0  0  0  0  0  0  0  0  0  0  0  0
   -0.9427   10.2669   -3.2428 H   0  0  0  0  0  0  0  0  0  0  0  0
   -1.3418   11.9830   -3.5930 H   0  0  0  0  0  0  0  0  0  0  0  0
    0.3708   11.4411   -3.5930 H   0  0  0  0  0  0  0  0  0  0  0  0
    0.7407   12.5680   -0.1924 H   0  0  0  0  0  0  0  0  0  0  0  0
    0.3187   14.0745   -2.2407 H   0  0  0  0  0  0  0  0  0  0  0  0
    1.9316   14.1030   -1.3532 H   0  0  0  0  0  0  0  0  0  0  0  0
    2.0470   14.1738   -3.9834 H   0  0  0  0  0  0  0  0  0  0  0  0
    1.9602   10.2304   -3.1211 H   0  0  0  0  0  0  0  0  0  0  0  0
    4.7665   11.1473   -2.2366 H   0  0  0  0  0  0  0  0  0  0  0  0
    4.0764    9.4687   -2.1108 H   0  0  0  0  0  0  0  0  0  0  0  0
    5.6418    9.6963   -4.0138 H   0  0  0  0  0  0  0  0  0  0  0  0
    3.9554    9.3045   -4.5310 H   0  0  0  0  0  0  0  0  0  0  0  0
    4.8443   10.9764   -6.0035 H   0  0  0  0  0  0  0  0  0  0  0  0
    5.1060   12.7860   -3.8120 H   0  0  0  0  0  0  0  0  0  0  0  0
    1.6084   10.4849   -5.1843 H   0  0  0  0  0  0  0  0  0  0  0  0
    1.5815   11.6939   -6.5126 H   0  0  0  0  0  0  0  0  0  0  0  0
    2.8137   10.3869   -6.5126 H   0  0  0  0  0  0  0  0  0  0  0  0
    3.4385   14.1405   -5.2027 H   0  0  0  0  0  0  0  0  0  0  0  0
    4.2377   13.2241   -6.5249 H   0  0  0  0  0  0  0  0  0  0  0  0
    2.4530   13.4283   -6.5249 H   0  0  0  0  0  0  0  0  0  0  0  0
    2.9039   11.6519    0.7285 H   0  0  0  0  0  0  0  0  0  0  0  0
    4.1388   11.2871   -0.5240 H   0  0  0  0  0  0  0  0  0  0  0  0
    3.3019   12.8765   -0.5240 H   0  0  0  0  0  0  0  0  0  0  0  0
    2.3644    9.0725   -1.0075 H   0  0  0  0  0  0  0  0  0  0  0  0
    1.6977    9.9828    0.4628 H   0  0  0  0  0  0  0  0  0  0  0  0
    0.1667    9.0366   -1.9761 H   0  0  0  0  0  0  0  0  0  0  0  0
    0.0206    8.4755   -0.2642 H   0  0  0  0  0  0  0  0  0  0  0  0
   -0.9083    9.8614    1.4763 H   0  0  0  0  0  0  0  0  0  0  0  0
    0.2684   11.1737    1.1300 H   0  0  0  0  0  0  0  0  0  0  0  0
   -1.4934   11.5240    1.1300 H   0  0  0  0  0  0  0  0  0  0  0  0
  1  2  1  0
  2  3  1  0
  3  4  1  0
  4  5  1  0
  5  6  1  0
  6  7  1  0
  7  8  1  0
  7  9  1  0
  2 10  1  0
 10 11  1  0
 11 12  1  0
 12 13  1  0
 13 14  1  6
 13 15  1  0
 15 16  1  0
 16 17  1  0
 17 18  2  0
 18 19  1  0
 19 20  1  0
 20 21  1  0
 21 22  1  0
 22 23  1  0
 22 24  1  0
 24 25  1  0
 24 26  1  0
 19 27  1  0
 27 28  1  1
 27 29  1  0
 29 30  1  0
 30 31  1  0
 31 32  1  1
  7  5  1  0
 31 10  1  0
 31 13  1  0
 27 15  1  0
 24 18  1  0
  1 33  1  0
  1 34  1  0
  1 35  1  0
  2 36  1  1
  3 37  1  0
  3 38  1  0
  4 39  1  0
  4 40  1  0
  5 41  1  6
  8 42  1  0
  8 43  1  0
  8 44  1  0
  9 45  1  0
  9 46  1  0
  9 47  1  0
 10 48  1  6
 11 49  1  0
 11 50  1  0
 12 51  1  0
 12 52  1  0
 14 53  1  0
 14 54  1  0
 14 55  1  0
 15 56  1  1
 16 57  1  0
 16 58  1  0
 17 59  1  0
 19 60  1  6
 20 61  1  0
 20 62  1  0
 21 63  1  0
 21 64  1  0
 22 65  1  6
 23 66  1  0
 25 67  1  0
 25 68  1  0
 25 69  1  0
 26 70  1  0
 26 71  1  0
 26 72  1  0
 28 73  1  0
 28 74  1  0
 28 75  1  0
 29 76  1  0
 29 77  1  0
 30 78  1  0
 30 79  1  0
 32 80  1  0
 32 81  1  0
 32 82  1  0
M  END
>  <meeko>  (17) 
{"is_sidechain": [false], "intermolecular_energy": 2.731, "internal_energy": -0.839}

$$$$
EPH_relaxed_0001_pdb2pqr_Repair_245_r2_0001_out
     RDKit          3D

 82 86  0  0  0  0  0  0  0  0999 V2000
    3.1180   14.8450   -7.5500 C   0  0  0  0  0  0  0  0  0  0  0  0
    1.5940   14.8730   -7.4040 C   0  0  2  0  0  0  0  0  0  0  0  0
    0.9700   16.1120   -8.0770 C   0  0  0  0  0  0  0  0  0  0  0  0
    1.8900   16.7890   -9.0960 C   0  0  0  0  0  0  0  0  0  0  0  0
    1.5590   16.3800  -10.4990 C   0  0  2  0  0  0  0  0  0  0  0  0
    0.9760   15.0760  -10.6210 O   0  0  0  0  0  0  0  0  0  0  0  0
    2.2650   15.2530  -11.2310 C   0  0  0  0  0  0  0  0  0  0  0  0
    3.3590   14.4650  -10.5810 C   0  0  0  0  0  0  0  0  0  0  0  0
    2.2310   15.2400  -12.7270 C   0  0  0  0  0  0  0  0  0  0  0  0
    1.2130   14.8340   -5.9290 C   0  0  1  0  0  0  0  0  0  0  0  0
   -0.0410   15.6930   -5.6130 C   0  0  0  0  0  0  0  0  0  0  0  0
   -0.8180   14.9540   -4.4920 C   0  0  0  0  0  0  0  0  0  0  0  0
    0.1700   13.8840   -3.9730 C   0  0  1  0  0  0  0  0  0  0  0  0
    1.1110   14.6500   -2.9900 C   0  0  0  0  0  0  0  0  0  0  0  0
   -0.4660   12.6250   -3.2990 C   0  0  2  0  0  0  0  0  0  0  0  0
   -1.2810   12.9070   -2.0250 C   0  0  0  0  0  0  0  0  0  0  0  0
   -0.5080   12.8520   -0.7490 C   0  0  0  0  0  0  0  0  0  0  0  0
    0.7150   12.3100   -0.5980 C   0  0  0  0  0  0  0  0  0  0  0  0
    1.4060   11.5890   -1.7620 C   0  0  1  0  0  0  0  0  0  0  0  0
    1.9930   10.2430   -1.2620 C   0  0  0  0  0  0  0  0  0  0  0  0
    2.9110   10.4170   -0.0560 C   0  0  0  0  0  0  0  0  0  0  0  0
    2.1720   11.0850    1.1000 C   0  0  2  0  0  0  0  0  0  0  0  0
    1.1590   10.1930    1.5760 O   0  0  0  0  0  0  0  0  0  0  0  0
    1.5290   12.4460    0.7120 C   0  0  0  0  0  0  0  0  0  0  0  0
    2.6400   13.5010    0.4880 C   0  0  0  0  0  0  0  0  0  0  0  0
    0.6970   12.9440    1.9250 C   0  0  0  0  0  0  0  0  0  0  0  0
    0.5420   11.4240   -3.0860 C   0  0  1  0  0  0  0  0  0  0  0  0
   -0.3200   10.1280   -3.0010 C   0  0  0  0  0  0  0  0  0  0  0  0
    1.5120   11.2320   -4.3120 C   0  0  0  0  0  0  0  0  0  0  0  0
    2.0120   12.5120   -5.0090 C   0  0  0  0  0  0  0  0  0  0  0  0
    0.8470   13.4550   -5.3250 C   0  0  2  0  0  0  0  0  0  0  0  0
   -0.1040   12.7200   -6.3300 C   0  0  0  0  0  0  0  0  0  0  0  0
    3.5818   14.8365   -6.5526 H   0  0  0  0  0  0  0  0  0  0  0  0
    3.4170   13.9412   -8.1011 H   0  0  0  0  0  0  0  0  0  0  0  0
    3.4500   15.7372   -8.1011 H   0  0  0  0  0  0  0  0  0  0  0  0
    1.1954   13.9838   -7.9144 H   0  0  0  0  0  0  0  0  0  0  0  0
    0.0501   15.8002   -8.5933 H   0  0  0  0  0  0  0  0  0  0  0  0
    0.7769   16.8465   -7.2812 H   0  0  0  0  0  0  0  0  0  0  0  0
    1.7790   17.8798   -9.0071 H   0  0  0  0  0  0  0  0  0  0  0  0
    2.9239   16.4794   -8.8834 H   0  0  0  0  0  0  0  0  0  0  0  0
    1.3478   17.4228  -10.7780 H   0  0  0  0  0  0  0  0  0  0  0  0
    3.2616   14.5352   -9.4876 H   0  0  0  0  0  0  0  0  0  0  0  0
    3.2848   13.4116  -10.8889 H   0  0  0  0  0  0  0  0  0  0  0  0
    4.3347   14.8691  -10.8889 H   0  0  0  0  0  0  0  0  0  0  0  0
    1.2543   14.8665  -13.0683 H   0  0  0  0  0  0  0  0  0  0  0  0
    2.3861   16.2609  -13.1062 H   0  0  0  0  0  0  0  0  0  0  0  0
    3.0276   14.5830  -13.1062 H   0  0  0  0  0  0  0  0  0  0  0  0
    2.1507   15.2015   -5.4867 H   0  0  0  0  0  0  0  0  0  0  0  0
    0.2616   16.6929   -5.2685 H   0  0  0  0  0  0  0  0  0  0  0  0
   -0.6669   15.8228   -6.5082 H   0  0  0  0  0  0  0  0  0  0  0  0
   -1.0942   15.6507   -3.6868 H   0  0  0  0  0  0  0  0  0  0  0  0
   -1.7573   14.5126   -4.8567 H   0  0  0  0  0  0  0  0  0  0  0  0
    0.8256   14.4177   -1.9534 H   0  0  0  0  0  0  0  0  0  0  0  0
    2.1521   14.3394   -3.1621 H   0  0  0  0  0  0  0  0  0  0  0  0
    1.0181   15.7325   -3.1621 H   0  0  0  0  0  0  0  0  0  0  0  0
   -1.1963   12.2988   -4.0541 H   0  0  0  0  0  0  0  0  0  0  0  0
   -1.7164   13.9131   -2.1157 H   0  0  0  0  0  0  0  0  0  0  0  0
   -2.0324   12.1062   -1.9607 H   0  0  0  0  0  0  0  0  0  0  0  0
   -0.9775   13.2916    0.1434 H   0  0  0  0  0  0  0  0  0  0  0  0
    2.2201   12.2519   -2.0904 H   0  0  0  0  0  0  0  0  0  0  0  0
    1.1624    9.5792   -0.9800 H   0  0  0  0  0  0  0  0  0  0  0  0
    2.5929    9.8163   -2.0793 H   0  0  0  0  0  0  0  0  0  0  0  0
    3.2697    9.4292    0.2689 H   0  0  0  0  0  0  0  0  0  0  0  0
    3.7571   11.0564   -0.3481 H   0  0  0  0  0  0  0  0  0  0  0  0
    2.9127   11.3006    1.8842 H   0  0  0  0  0  0  0  0  0  0  0  0
    0.8590   10.5220    2.4400 H   0  0  0  0  0  0  0  0  0  0  0  0
    3.0119   13.8541    1.4611 H   0  0  0  0  0  0  0  0  0  0  0  0
    3.4672   13.0479   -0.0781 H   0  0  0  0  0  0  0  0  0  0  0  0
    2.2302   14.3505   -0.0781 H   0  0  0  0  0  0  0  0  0  0  0  0
    1.1956   12.6455    2.8590 H   0  0  0  0  0  0  0  0  0  0  0  0
    0.6143   14.0402    1.8876 H   0  0  0  0  0  0  0  0  0  0  0  0
   -0.3083   12.4990    1.8876 H   0  0  0  0  0  0  0  0  0  0  0  0
   -0.4914    9.8702   -1.9455 H   0  0  0  0  0  0  0  0  0  0  0  0
   -1.2863   10.2970   -3.4988 H   0  0  0  0  0  0  0  0  0  0  0  0
    0.2094    9.3022   -3.4988 H   0  0  0  0  0  0  0  0  0  0  0  0
    2.3946   10.6810   -3.9550 H   0  0  0  0  0  0  0  0  0  0  0  0
    0.9156   10.7049   -5.0713 H   0  0  0  0  0  0  0  0  0  0  0  0
    2.7231   13.0279   -4.3470 H   0  0  0  0  0  0  0  0  0  0  0  0
    2.5004   12.2293   -5.9532 H   0  0  0  0  0  0  0  0  0  0  0  0
   -0.8529   12.1412   -5.7696 H   0  0  0  0  0  0  0  0  0  0  0  0
   -0.6126   13.4620   -6.9630 H   0  0  0  0  0  0  0  0  0  0  0  0
    0.4859   12.0408   -6.9630 H   0  0  0  0  0  0  0  0  0  0  0  0
  1  2  1  0
  2  3  1  0
  3  4  1  0
  4  5  1  0
  5  6  1  0
  6  7  1  0
  7  8  1  0
  7  9  1  0
  2 10  1  0
 10 11  1  0
 11 12  1  0
 12 13  1  0
 13 14  1  1
 13 15  1  0
 15 16  1  0
 16 17  1  0
 17 18  2  0
 18 19  1  0
 19 20  1  0
 20 21  1  0
 21 22  1  0
 22 23  1  0
 22 24  1  0
 24 25  1  0
 24 26  1  0
 19 27  1  0
 27 28  1  1
 27 29  1  0
 29 30  1  0
 30 31  1  0
 31 32  1  6
  7  5  1  0
 31 10  1  0
 31 13  1  0
 27 15  1  0
 24 18  1  0
  1 33  1  0
  1 34  1  0
  1 35  1  0
  2 36  1  6
  3 37  1  0
  3 38  1  0
  4 39  1  0
  4 40  1  0
  5 41  1  6
  8 42  1  0
  8 43  1  0
  8 44  1  0
  9 45  1  0
  9 46  1  0
  9 47  1  0
 10 48  1  1
 11 49  1  0
 11 50  1  0
 12 51  1  0
 12 52  1  0
 14 53  1  0
 14 54  1  0
 14 55  1  0
 15 56  1  6
 16 57  1  0
 16 58  1  0
 17 59  1  0
 19 60  1  6
 20 61  1  0
 20 62  1  0
 21 63  1  0
 21 64  1  0
 22 65  1  1
 23 66  1  0
 25 67  1  0
 25 68  1  0
 25 69  1  0
 26 70  1  0
 26 71  1  0
 26 72  1  0
 28 73  1  0
 28 74  1  0
 28 75  1  0
 29 76  1  0
 29 77  1  0
 30 78  1  0
 30 79  1  0
 32 80  1  0
 32 81  1  0
 32 82  1  0
M  END
>  <meeko>  (18) 
{"is_sidechain": [false], "intermolecular_energy": 2.731, "internal_energy": -0.839}

$$$$
EPH_relaxed_0001_pdb2pqr_Repair_245_r2_0001_out
     RDKit          3D

 82 86  0  0  0  0  0  0  0  0999 V2000
    0.6050    8.0490   -2.6340 C   0  0  0  0  0  0  0  0  0  0  0  0
   -0.7710    8.3670   -2.0440 C   0  0  2  0  0  0  0  0  0  0  0  0
   -1.9170    7.7760   -2.8910 C   0  0  0  0  0  0  0  0  0  0  0  0
   -3.2250    7.5970   -2.1170 C   0  0  0  0  0  0  0  0  0  0  0  0
   -4.1950    6.7280   -2.8600 C   0  0  2  0  0  0  0  0  0  0  0  0
   -5.0170    7.4220   -3.8070 O   0  0  0  0  0  0  0  0  0  0  0  0
   -5.7000    6.8220   -2.6940 C   0  0  0  0  0  0  0  0  0  0  0  0
   -6.3210    7.8090   -1.7570 C   0  0  0  0  0  0  0  0  0  0  0  0
   -6.5360    5.6380   -3.0680 C   0  0  0  0  0  0  0  0  0  0  0  0
   -0.9450    9.8750   -1.9130 C   0  0  1  0  0  0  0  0  0  0  0  0
   -2.3980   10.2800   -1.5500 C   0  0  0  0  0  0  0  0  0  0  0  0
   -2.2990   11.5230   -0.6270 C   0  0  0  0  0  0  0  0  0  0  0  0
   -0.8300   11.9890   -0.7580 C   0  0  1  0  0  0  0  0  0  0  0  0
   -0.7870   12.8130   -2.0830 C   0  0  0  0  0  0  0  0  0  0  0  0
   -0.2540   12.8020    0.4460 C   0  0  2  0  0  0  0  0  0  0  0  0
   -0.9570   14.1420    0.7250 C   0  0  0  0  0  0  0  0  0  0  0  0
   -0.3840   15.3240    0.0160 C   0  0  0  0  0  0  0  0  0  0  0  0
    0.8200   15.3660   -0.5850 C   0  0  0  0  0  0  0  0  0  0  0  0
    1.7840   14.1760   -0.5040 C   0  0  1  0  0  0  0  0  0  0  0  0
    3.2060   14.6840   -0.1510 C   0  0  0  0  0  0  0  0  0  0  0  0
    3.6950   15.7660   -1.1090 C   0  0  0  0  0  0  0  0  0  0  0  0
    2.7410   16.9580   -1.1190 C   0  0  2  0  0  0  0  0  0  0  0  0
    2.7890   17.5970    0.1610 O   0  0  0  0  0  0  0  0  0  0  0  0
    1.2750   16.5660   -1.4530 C   0  0  0  0  0  0  0  0  0  0  0  0
    1.1720   16.1560   -2.9420 C   0  0  0  0  0  0  0  0  0  0  0  0
    0.3930   17.8340   -1.2900 C   0  0  0  0  0  0  0  0  0  0  0  0
    1.3200   12.9700    0.4220 C   0  0  1  0  0  0  0  0  0  0  0  0
    1.7630   13.2280    1.8940 C   0  0  0  0  0  0  0  0  0  0  0  0
    2.0540   11.6560   -0.0390 C   0  0  0  0  0  0  0  0  0  0  0  0
    1.3740   10.8330   -1.1500 C   0  0  0  0  0  0  0  0  0  0  0  0
   -0.1050   10.5960   -0.8290 C   0  0  2  0  0  0  0  0  0  0  0  0
   -0.1790    9.7500    0.4880 C   0  0  0  0  0  0  0  0  0  0  0  0
    1.3241    7.8828   -1.8184 H   0  0  0  0  0  0  0  0  0  0  0  0
    0.5377    7.1427   -3.2538 H   0  0  0  0  0  0  0  0  0  0  0  0
    0.9421    8.8929   -3.2538 H   0  0  0  0  0  0  0  0  0  0  0  0
   -0.8202    7.8995   -1.0495 H   0  0  0  0  0  0  0  0  0  0  0  0
   -2.1051    8.4503   -3.7395 H   0  0  0  0  0  0  0  0  0  0  0  0
   -1.5949    6.7749   -3.2137 H   0  0  0  0  0  0  0  0  0  0  0  0
   -3.0031    7.1329   -1.1447 H   0  0  0  0  0  0  0  0  0  0  0  0
   -3.6838    8.5881   -1.9855 H   0  0  0  0  0  0  0  0  0  0  0  0
   -3.5000    5.8764   -2.8178 H   0  0  0  0  0  0  0  0  0  0  0  0
   -6.1273    7.5011   -0.7189 H   0  0  0  0  0  0  0  0  0  0  0  0
   -5.8860    8.8041   -1.9315 H   0  0  0  0  0  0  0  0  0  0  0  0
   -7.4064    7.8475   -1.9315 H   0  0  0  0  0  0  0  0  0  0  0  0
   -6.8902    5.1363   -2.1554 H   0  0  0  0  0  0  0  0  0  0  0  0
   -7.3997    5.9719   -3.6617 H   0  0  0  0  0  0  0  0  0  0  0  0
   -5.9324    4.9358   -3.6617 H   0  0  0  0  0  0  0  0  0  0  0  0
   -0.6139   10.1862   -2.9148 H   0  0  0  0  0  0  0  0  0  0  0  0
   -2.9608   10.5291   -2.4617 H   0  0  0  0  0  0  0  0  0  0  0  0
   -2.9238    9.4553   -1.0467 H   0  0  0  0  0  0  0  0  0  0  0  0
   -2.9882   12.3119   -0.9625 H   0  0  0  0  0  0  0  0  0  0  0  0
   -2.5730   11.2935    0.4133 H   0  0  0  0  0  0  0  0  0  0  0  0
   -0.7310   13.8857   -1.8460 H   0  0  0  0  0  0  0  0  0  0  0  0
    0.0971   12.5202   -2.6684 H   0  0  0  0  0  0  0  0  0  0  0  0
   -1.6968   12.6138   -2.6684 H   0  0  0  0  0  0  0  0  0  0  0  0
   -0.4933   12.1546    1.3025 H   0  0  0  0  0  0  0  0  0  0  0  0
   -2.0100   14.0424    0.4230 H   0  0  0  0  0  0  0  0  0  0  0  0
   -0.8225   14.3376    1.7991 H   0  0  0  0  0  0  0  0  0  0  0  0
   -0.9966   16.2370   -0.0183 H   0  0  0  0  0  0  0  0  0  0  0  0
    1.7886   13.7201   -1.5051 H   0  0  0  0  0  0  0  0  0  0  0  0
    3.1901   15.0966    0.8685 H   0  0  0  0  0  0  0  0  0  0  0  0
    3.8951   13.8304   -0.2314 H   0  0  0  0  0  0  0  0  0  0  0  0
    4.6917   16.1053   -0.7903 H   0  0  0  0  0  0  0  0  0  0  0  0
    3.7388   15.3429   -2.1234 H   0  0  0  0  0  0  0  0  0  0  0  0
    3.0724   17.6398   -1.9161 H   0  0  0  0  0  0  0  0  0  0  0  0
    1.8740   17.7070    0.4690 H   0  0  0  0  0  0  0  0  0  0  0  0
    0.9045   15.0913   -3.0115 H   0  0  0  0  0  0  0  0  0  0  0  0
    0.3981   16.7615   -3.4364 H   0  0  0  0  0  0  0  0  0  0  0  0
    2.1402   16.3238   -3.4364 H   0  0  0  0  0  0  0  0  0  0  0  0
    0.2469   18.0440   -0.2202 H   0  0  0  0  0  0  0  0  0  0  0  0
    0.8910   18.6909   -1.7672 H   0  0  0  0  0  0  0  0  0  0  0  0
   -0.5836   17.6652   -1.7672 H   0  0  0  0  0  0  0  0  0  0  0  0
    1.0209   12.7958    2.5814 H   0  0  0  0  0  0  0  0  0  0  0  0
    2.7424   12.7590    2.0697 H   0  0  0  0  0  0  0  0  0  0  0  0
    1.8384   14.3113    2.0697 H   0  0  0  0  0  0  0  0  0  0  0  0
    3.0526   11.9422   -0.4009 H   0  0  0  0  0  0  0  0  0  0  0  0
    2.0538   11.0013    0.8449 H   0  0  0  0  0  0  0  0  0  0  0  0
    1.4528   11.3789   -2.1017 H   0  0  0  0  0  0  0  0  0  0  0  0
    1.8779    9.8579   -1.2228 H   0  0  0  0  0  0  0  0  0  0  0  0
   -0.1204   10.4203    1.3582 H   0  0  0  0  0  0  0  0  0  0  0  0
   -1.1290    9.1962    0.5151 H   0  0  0  0  0  0  0  0  0  0  0  0
    0.6604    9.0396    0.5151 H   0  0  0  0  0  0  0  0  0  0  0  0
  1  2  1  0
  2  3  1  0
  3  4  1  0
  4  5  1  0
  5  6  1  0
  6  7  1  0
  7  8  1  0
  7  9  1  0
  2 10  1  0
 10 11  1  0
 11 12  1  0
 12 13  1  0
 13 14  1  6
 13 15  1  0
 15 16  1  0
 16 17  1  0
 17 18  2  0
 18 19  1  0
 19 20  1  0
 20 21  1  0
 21 22  1  0
 22 23  1  0
 22 24  1  0
 24 25  1  0
 24 26  1  0
 19 27  1  0
 27 28  1  1
 27 29  1  0
 29 30  1  0
 30 31  1  0
 31 32  1  1
  7  5  1  0
 31 10  1  0
 31 13  1  0
 27 15  1  0
 24 18  1  0
  1 33  1  0
  1 34  1  0
  1 35  1  0
  2 36  1  1
  3 37  1  0
  3 38  1  0
  4 39  1  0
  4 40  1  0
  5 41  1  6
  8 42  1  0
  8 43  1  0
  8 44  1  0
  9 45  1  0
  9 46  1  0
  9 47  1  0
 10 48  1  6
 11 49  1  0
 11 50  1  0
 12 51  1  0
 12 52  1  0
 14 53  1  0
 14 54  1  0
 14 55  1  0
 15 56  1  1
 16 57  1  0
 16 58  1  0
 17 59  1  0
 19 60  1  6
 20 61  1  0
 20 62  1  0
 21 63  1  0
 21 64  1  0
 22 65  1  6
 23 66  1  0
 25 67  1  0
 25 68  1  0
 25 69  1  0
 26 70  1  0
 26 71  1  0
 26 72  1  0
 28 73  1  0
 28 74  1  0
 28 75  1  0
 29 76  1  0
 29 77  1  0
 30 78  1  0
 30 79  1  0
 32 80  1  0
 32 81  1  0
 32 82  1  0
M  END
>  <meeko>  (19) 
{"is_sidechain": [false], "intermolecular_energy": 2.731, "internal_energy": -0.839}

$$$$
