EPH_relaxed_0001_pdb2pqr_Repair_299_r2_0001_out
     RDKit          3D

 82 86  0  0  0  0  0  0  0  0999 V2000
   -5.1810    5.7980   -1.7200 C   0  0  0  0  0  0  0  0  0  0  0  0
   -5.4660    7.3020   -1.7680 C   0  0  2  0  0  0  0  0  0  0  0  0
   -5.2400    7.9790   -0.4020 C   0  0  0  0  0  0  0  0  0  0  0  0
   -4.1710    9.0750   -0.4270 C   0  0  0  0  0  0  0  0  0  0  0  0
   -2.8550    8.5540   -0.9200 C   0  0  2  0  0  0  0  0  0  0  0  0
   -1.7580    8.7470   -0.0170 O   0  0  0  0  0  0  0  0  0  0  0  0
   -1.6790    9.4480   -1.2690 C   0  0  0  0  0  0  0  0  0  0  0  0
   -1.7650   10.9360   -1.1400 C   0  0  0  0  0  0  0  0  0  0  0  0
   -0.6260    8.9170   -2.1910 C   0  0  0  0  0  0  0  0  0  0  0  0
   -6.8940    7.5450   -2.2400 C   0  0  1  0  0  0  0  0  0  0  0  0
   -7.2010    6.8540   -3.5950 C   0  0  0  0  0  0  0  0  0  0  0  0
   -8.6820    6.3970   -3.5400 C   0  0  0  0  0  0  0  0  0  0  0  0
   -9.2680    7.1250   -2.3070 C   0  0  1  0  0  0  0  0  0  0  0  0
   -9.5990    8.5650   -2.8110 C   0  0  0  0  0  0  0  0  0  0  0  0
  -10.5060    6.4510   -1.6310 C   0  0  2  0  0  0  0  0  0  0  0  0
  -11.7560    6.3410   -2.5210 C   0  0  0  0  0  0  0  0  0  0  0  0
  -12.6970    7.4970   -2.4460 C   0  0  0  0  0  0  0  0  0  0  0  0
  -12.6960    8.4450   -1.4910 C   0  0  0  0  0  0  0  0  0  0  0  0
  -11.7400    8.3570   -0.2940 C   0  0  1  0  0  0  0  0  0  0  0  0
  -12.5210    8.6440    1.0150 C   0  0  0  0  0  0  0  0  0  0  0  0
  -13.2750    9.9700    0.9680 C   0  0  0  0  0  0  0  0  0  0  0  0
  -14.2570    9.9970   -0.2000 C   0  0  2  0  0  0  0  0  0  0  0  0
  -15.2870    9.0340    0.0420 O   0  0  0  0  0  0  0  0  0  0  0  0
  -13.5850    9.7100   -1.5730 C   0  0  0  0  0  0  0  0  0  0  0  0
  -12.6910   10.9090   -1.9740 C   0  0  0  0  0  0  0  0  0  0  0  0
  -14.7060    9.6270   -2.6440 C   0  0  0  0  0  0  0  0  0  0  0  0
  -10.8630    7.0340   -0.2040 C   0  0  1  0  0  0  0  0  0  0  0  0
  -11.6550    5.9210    0.5470 C   0  0  0  0  0  0  0  0  0  0  0  0
   -9.5800    7.3260    0.6610 C   0  0  0  0  0  0  0  0  0  0  0  0
   -8.3500    7.8790   -0.0850 C   0  0  0  0  0  0  0  0  0  0  0  0
   -8.0410    7.0400   -1.3280 C   0  0  2  0  0  0  0  0  0  0  0  0
   -7.6820    5.5910   -0.8510 C   0  0  0  0  0  0  0  0  0  0  0  0
   -5.1188    5.4699   -0.6719 H   0  0  0  0  0  0  0  0  0  0  0  0
   -5.9922    5.2547   -2.2268 H   0  0  0  0  0  0  0  0  0  0  0  0
   -4.2273    5.5892   -2.2268 H   0  0  0  0  0  0  0  0  0  0  0  0
   -4.7578    7.7509   -2.4800 H   0  0  0  0  0  0  0  0  0  0  0  0
   -6.1898    8.4278   -0.0756 H   0  0  0  0  0  0  0  0  0  0  0  0
   -4.8848    7.1995    0.2880 H   0  0  0  0  0  0  0  0  0  0  0  0
   -4.5058    9.8845   -1.0922 H   0  0  0  0  0  0  0  0  0  0  0  0
   -4.0316    9.4418    0.6006 H   0  0  0  0  0  0  0  0  0  0  0  0
   -3.3554    7.7441   -1.4710 H   0  0  0  0  0  0  0  0  0  0  0  0
   -1.7809   11.2114   -0.0752 H   0  0  0  0  0  0  0  0  0  0  0  0
   -0.8920   11.3972   -1.6250 H   0  0  0  0  0  0  0  0  0  0  0  0
   -2.6853   11.2935   -1.6250 H   0  0  0  0  0  0  0  0  0  0  0  0
    0.2023    8.4993   -1.5998 H   0  0  0  0  0  0  0  0  0  0  0  0
   -1.0577    8.1288   -2.8254 H   0  0  0  0  0  0  0  0  0  0  0  0
   -0.2488    9.7327   -2.8254 H   0  0  0  0  0  0  0  0  0  0  0  0
   -6.8934    8.6446   -2.2695 H   0  0  0  0  0  0  0  0  0  0  0  0
   -7.0540    7.5627   -4.4233 H   0  0  0  0  0  0  0  0  0  0  0  0
   -6.5301    5.9985   -3.7625 H   0  0  0  0  0  0  0  0  0  0  0  0
   -9.2144    6.6936   -4.4557 H   0  0  0  0  0  0  0  0  0  0  0  0
   -8.7793    5.3039   -3.4650 H   0  0  0  0  0  0  0  0  0  0  0  0
   -9.7517    9.2295   -1.9478 H   0  0  0  0  0  0  0  0  0  0  0  0
   -8.7639    8.9413   -3.4202 H   0  0  0  0  0  0  0  0  0  0  0  0
  -10.5146    8.5389   -3.4202 H   0  0  0  0  0  0  0  0  0  0  0  0
  -10.1571    5.4193   -1.4764 H   0  0  0  0  0  0  0  0  0  0  0  0
  -11.4224    6.2417   -3.5645 H   0  0  0  0  0  0  0  0  0  0  0  0
  -12.3159    5.4690   -2.1520 H   0  0  0  0  0  0  0  0  0  0  0  0
  -13.4554    7.5812   -3.2383 H   0  0  0  0  0  0  0  0  0  0  0  0
  -10.9802    9.1364   -0.4532 H   0  0  0  0  0  0  0  0  0  0  0  0
  -13.2451    7.8323    1.1787 H   0  0  0  0  0  0  0  0  0  0  0  0
  -11.7891    8.7050    1.8339 H   0  0  0  0  0  0  0  0  0  0  0  0
  -13.8302   10.1022    1.9084 H   0  0  0  0  0  0  0  0  0  0  0  0
  -12.5470   10.7837    0.8340 H   0  0  0  0  0  0  0  0  0  0  0  0
  -14.6703   11.0146   -0.2601 H   0  0  0  0  0  0  0  0  0  0  0  0
  -15.5370    8.6480   -0.8150 H   0  0  0  0  0  0  0  0  0  0  0  0
  -12.3188   11.4082   -1.0672 H   0  0  0  0  0  0  0  0  0  0  0  0
  -11.8395   10.5484   -2.5698 H   0  0  0  0  0  0  0  0  0  0  0  0
  -13.2796   11.6221   -2.5698 H   0  0  0  0  0  0  0  0  0  0  0  0
  -15.6842    9.5546   -2.1461 H   0  0  0  0  0  0  0  0  0  0  0  0
  -14.6803   10.5295   -3.2724 H   0  0  0  0  0  0  0  0  0  0  0  0
  -14.5477    8.7381   -3.2724 H   0  0  0  0  0  0  0  0  0  0  0  0
  -11.5516    6.0663    1.6324 H   0  0  0  0  0  0  0  0  0  0  0  0
  -12.7179    5.9764    0.2692 H   0  0  0  0  0  0  0  0  0  0  0  0
  -11.2543    4.9349    0.2692 H   0  0  0  0  0  0  0  0  0  0  0  0
   -9.8585    8.0589    1.4325 H   0  0  0  0  0  0  0  0  0  0  0  0
   -9.2650    6.3459    1.0485 H   0  0  0  0  0  0  0  0  0  0  0  0
   -8.5511    8.9161   -0.3916 H   0  0  0  0  0  0  0  0  0  0  0  0
   -7.4825    7.8389    0.5902 H   0  0  0  0  0  0  0  0  0  0  0  0
   -7.6739    5.5584    0.2485 H   0  0  0  0  0  0  0  0  0  0  0  0
   -8.4318    4.8828   -1.2333 H   0  0  0  0  0  0  0  0  0  0  0  0
   -6.6883    5.3148   -1.2333 H   0  0  0  0  0  0  0  0  0  0  0  0
  1  2  1  0
  2  3  1  0
  3  4  1  0
  4  5  1  0
  5  6  1  0
  6  7  1  0
  7  8  1  0
  7  9  1  0
  2 10  1  0
 10 11  1  0
 11 12  1  0
 12 13  1  0
 13 14  1  6
 13 15  1  0
 15 16  1  0
 16 17  1  0
 17 18  2  0
 18 19  1  0
 19 20  1  0
 20 21  1  0
 21 22  1  0
 22 23  1  0
 22 24  1  0
 24 25  1  0
 24 26  1  0
 19 27  1  0
 27 28  1  1
 27 29  1  0
 29 30  1  0
 30 31  1  0
 31 32  1  1
  7  5  1  0
 31 10  1  0
 31 13  1  0
 27 15  1  0
 24 18  1  0
  1 33  1  0
  1 34  1  0
  1 35  1  0
  2 36  1  6
  3 37  1  0
  3 38  1  0
  4 39  1  0
  4 40  1  0
  5 41  1  6
  8 42  1  0
  8 43  1  0
  8 44  1  0
  9 45  1  0
  9 46  1  0
  9 47  1  0
 10 48  1  6
 11 49  1  0
 11 50  1  0
 12 51  1  0
 12 52  1  0
 14 53  1  0
 14 54  1  0
 14 55  1  0
 15 56  1  1
 16 57  1  0
 16 58  1  0
 17 59  1  0
 19 60  1  6
 20 61  1  0
 20 62  1  0
 21 63  1  0
 21 64  1  0
 22 65  1  6
 23 66  1  0
 25 67  1  0
 25 68  1  0
 25 69  1  0
 26 70  1  0
 26 71  1  0
 26 72  1  0
 28 73  1  0
 28 74  1  0
 28 75  1  0
 29 76  1  0
 29 77  1  0
 30 78  1  0
 30 79  1  0
 32 80  1  0
 32 81  1  0
 32 82  1  0
M  END
>  <meeko>  (1) 
{"is_sidechain": [false], "intermolecular_energy": 2.731, "internal_energy": -0.839}

$$$$
EPH_relaxed_0001_pdb2pqr_Repair_299_r2_0001_out
     RDKit          3D

 82 86  0  0  0  0  0  0  0  0999 V2000
   -5.0650    8.3850   -0.4690 C   0  0  0  0  0  0  0  0  0  0  0  0
   -5.3810    7.3670   -1.5690 C   0  0  2  0  0  0  0  0  0  0  0  0
   -4.3740    7.4400   -2.7340 C   0  0  0  0  0  0  0  0  0  0  0  0
   -2.9170    7.2560   -2.3020 C   0  0  0  0  0  0  0  0  0  0  0  0
   -2.0790    8.4480   -2.6530 C   0  0  2  0  0  0  0  0  0  0  0  0
   -0.6880    8.3180   -2.3320 O   0  0  0  0  0  0  0  0  0  0  0  0
   -1.4110    9.3350   -1.6190 C   0  0  0  0  0  0  0  0  0  0  0  0
   -1.5520    9.0680   -0.1540 C   0  0  0  0  0  0  0  0  0  0  0  0
   -1.0320   10.7300   -2.0100 C   0  0  0  0  0  0  0  0  0  0  0  0
   -6.7970    7.5870   -2.0890 C   0  0  1  0  0  0  0  0  0  0  0  0
   -7.0460    6.8940   -3.4550 C   0  0  0  0  0  0  0  0  0  0  0  0
   -8.5190    6.4120   -3.4500 C   0  0  0  0  0  0  0  0  0  0  0  0
   -9.1590    7.1270   -2.2370 C   0  0  1  0  0  0  0  0  0  0  0  0
   -9.4980    8.5620   -2.7490 C   0  0  0  0  0  0  0  0  0  0  0  0
  -10.4080    6.4300   -1.6040 C   0  0  2  0  0  0  0  0  0  0  0  0
  -11.6250    6.3000   -2.5360 C   0  0  0  0  0  0  0  0  0  0  0  0
  -12.5880    7.4400   -2.4900 C   0  0  0  0  0  0  0  0  0  0  0  0
  -12.6350    8.3860   -1.5340 C   0  0  0  0  0  0  0  0  0  0  0  0
  -11.7180    8.3110   -0.3060 C   0  0  1  0  0  0  0  0  0  0  0  0
  -12.5480    8.5820    0.9770 C   0  0  0  0  0  0  0  0  0  0  0  0
  -13.3220    9.8950    0.9060 C   0  0  0  0  0  0  0  0  0  0  0  0
  -14.2650    9.9080   -0.2950 C   0  0  2  0  0  0  0  0  0  0  0  0
  -15.2860    8.9270   -0.0890 O   0  0  0  0  0  0  0  0  0  0  0  0
  -13.5430    9.6360   -1.6440 C   0  0  0  0  0  0  0  0  0  0  0  0
  -12.6560   10.8500   -2.0130 C   0  0  0  0  0  0  0  0  0  0  0  0
  -14.6250    9.5360   -2.7530 C   0  0  0  0  0  0  0  0  0  0  0  0
  -10.8220    7.0040   -0.1890 C   0  0  1  0  0  0  0  0  0  0  0  0
  -11.6200    5.8750    0.5330 C   0  0  0  0  0  0  0  0  0  0  0  0
   -9.5740    7.3160    0.7200 C   0  0  0  0  0  0  0  0  0  0  0  0
   -8.3300    7.8910    0.0170 C   0  0  0  0  0  0  0  0  0  0  0  0
   -7.9640    7.0600   -1.2170 C   0  0  2  0  0  0  0  0  0  0  0  0
   -7.5970    5.6170   -0.7310 C   0  0  0  0  0  0  0  0  0  0  0  0
   -5.2102    7.9174    0.5160 H   0  0  0  0  0  0  0  0  0  0  0  0
   -4.0212    8.7181   -0.5665 H   0  0  0  0  0  0  0  0  0  0  0  0
   -5.7367    9.2506   -0.5665 H   0  0  0  0  0  0  0  0  0  0  0  0
   -5.2997    6.3637   -1.1253 H   0  0  0  0  0  0  0  0  0  0  0  0
   -4.6235    6.6507   -3.4584 H   0  0  0  0  0  0  0  0  0  0  0  0
   -4.4557    8.4482   -3.1662 H   0  0  0  0  0  0  0  0  0  0  0  0
   -2.8846    7.1059   -1.2128 H   0  0  0  0  0  0  0  0  0  0  0  0
   -2.5100    6.3829   -2.8330 H   0  0  0  0  0  0  0  0  0  0  0  0
   -2.7231    8.6760   -3.5150 H   0  0  0  0  0  0  0  0  0  0  0  0
   -1.1122    9.9007    0.4145 H   0  0  0  0  0  0  0  0  0  0  0  0
   -2.6179    8.9729    0.1004 H   0  0  0  0  0  0  0  0  0  0  0  0
   -1.0295    8.1340    0.1004 H   0  0  0  0  0  0  0  0  0  0  0  0
   -0.8682   11.3329   -1.1046 H   0  0  0  0  0  0  0  0  0  0  0  0
   -0.1080   10.7054   -2.6063 H   0  0  0  0  0  0  0  0  0  0  0  0
   -1.8414   11.1764   -2.6063 H   0  0  0  0  0  0  0  0  0  0  0  0
   -6.8149    8.6865   -2.1170 H   0  0  0  0  0  0  0  0  0  0  0  0
   -6.8836    7.6071   -4.2767 H   0  0  0  0  0  0  0  0  0  0  0  0
   -6.3550    6.0508   -3.6018 H   0  0  0  0  0  0  0  0  0  0  0  0
   -9.0254    6.7010   -4.3828 H   0  0  0  0  0  0  0  0  0  0  0  0
   -8.5996    5.3172   -3.3793 H   0  0  0  0  0  0  0  0  0  0  0  0
   -9.6558    9.2302   -1.8896 H   0  0  0  0  0  0  0  0  0  0  0  0
   -8.6644    8.9401   -3.3591 H   0  0  0  0  0  0  0  0  0  0  0  0
  -10.4126    8.5271   -3.3591 H   0  0  0  0  0  0  0  0  0  0  0  0
  -10.0476    5.4038   -1.4393 H   0  0  0  0  0  0  0  0  0  0  0  0
  -11.2548    6.2092   -3.5678 H   0  0  0  0  0  0  0  0  0  0  0  0
  -12.1816    5.4172   -2.1884 H   0  0  0  0  0  0  0  0  0  0  0  0
  -13.3212    7.5128   -3.3067 H   0  0  0  0  0  0  0  0  0  0  0  0
  -10.9663    9.1031   -0.4383 H   0  0  0  0  0  0  0  0  0  0  0  0
  -13.2634    7.7579    1.1149 H   0  0  0  0  0  0  0  0  0  0  0  0
  -11.8456    8.6534    1.8205 H   0  0  0  0  0  0  0  0  0  0  0  0
  -13.9107   10.0162    1.8273 H   0  0  0  0  0  0  0  0  0  0  0  0
  -12.6035   10.7208    0.7974 H   0  0  0  0  0  0  0  0  0  0  0  0
  -14.6935   10.9185   -0.3676 H   0  0  0  0  0  0  0  0  0  0  0  0
  -14.8500    8.0620    0.0010 H   0  0  0  0  0  0  0  0  0  0  0  0
  -12.3001   11.3371   -1.0932 H   0  0  0  0  0  0  0  0  0  0  0  0
  -11.7936   10.5079   -2.6040 H   0  0  0  0  0  0  0  0  0  0  0  0
  -13.2440   11.5676   -2.6040 H   0  0  0  0  0  0  0  0  0  0  0  0
  -15.6182    9.4442   -2.2891 H   0  0  0  0  0  0  0  0  0  0  0  0
  -14.5944   10.4408   -3.3778 H   0  0  0  0  0  0  0  0  0  0  0  0
  -14.4291    8.6521   -3.3778 H   0  0  0  0  0  0  0  0  0  0  0  0
  -11.5305    6.0016    1.6220 H   0  0  0  0  0  0  0  0  0  0  0  0
  -12.6796    5.9320    0.2431 H   0  0  0  0  0  0  0  0  0  0  0  0
  -11.2127    4.8952    0.2431 H   0  0  0  0  0  0  0  0  0  0  0  0
   -9.8910    8.0425    1.4827 H   0  0  0  0  0  0  0  0  0  0  0  0
   -9.2557    6.3408    1.1169 H   0  0  0  0  0  0  0  0  0  0  0  0
   -8.5386    8.9251   -0.2946 H   0  0  0  0  0  0  0  0  0  0  0  0
   -7.4854    7.8638    0.7212 H   0  0  0  0  0  0  0  0  0  0  0  0
   -7.5904    5.5911    0.3687 H   0  0  0  0  0  0  0  0  0  0  0  0
   -8.3419    4.9019   -1.1102 H   0  0  0  0  0  0  0  0  0  0  0  0
   -6.6010    5.3446   -1.1102 H   0  0  0  0  0  0  0  0  0  0  0  0
  1  2  1  0
  2  3  1  0
  3  4  1  0
  4  5  1  0
  5  6  1  0
  6  7  1  0
  7  8  1  0
  7  9  1  0
  2 10  1  0
 10 11  1  0
 11 12  1  0
 12 13  1  0
 13 14  1  6
 13 15  1  0
 15 16  1  0
 16 17  1  0
 17 18  2  0
 18 19  1  0
 19 20  1  0
 20 21  1  0
 21 22  1  0
 22 23  1  0
 22 24  1  0
 24 25  1  0
 24 26  1  0
 19 27  1  0
 27 28  1  1
 27 29  1  0
 29 30  1  0
 30 31  1  0
 31 32  1  1
  7  5  1  0
 31 10  1  0
 31 13  1  0
 27 15  1  0
 24 18  1  0
  1 33  1  0
  1 34  1  0
  1 35  1  0
  2 36  1  1
  3 37  1  0
  3 38  1  0
  4 39  1  0
  4 40  1  0
  5 41  1  6
  8 42  1  0
  8 43  1  0
  8 44  1  0
  9 45  1  0
  9 46  1  0
  9 47  1  0
 10 48  1  6
 11 49  1  0
 11 50  1  0
 12 51  1  0
 12 52  1  0
 14 53  1  0
 14 54  1  0
 14 55  1  0
 15 56  1  1
 16 57  1  0
 16 58  1  0
 17 59  1  0
 19 60  1  6
 20 61  1  0
 20 62  1  0
 21 63  1  0
 21 64  1  0
 22 65  1  6
 23 66  1  0
 25 67  1  0
 25 68  1  0
 25 69  1  0
 26 70  1  0
 26 71  1  0
 26 72  1  0
 28 73  1  0
 28 74  1  0
 28 75  1  0
 29 76  1  0
 29 77  1  0
 30 78  1  0
 30 79  1  0
 32 80  1  0
 32 81  1  0
 32 82  1  0
M  END
>  <meeko>  (2) 
{"is_sidechain": [false], "intermolecular_energy": 2.731, "internal_energy": -0.839}

$$$$
EPH_relaxed_0001_pdb2pqr_Repair_299_r2_0001_out
     RDKit          3D

 82 86  0  0  0  0  0  0  0  0999 V2000
    2.3250   19.3520   -0.4020 C   0  0  0  0  0  0  0  0  0  0  0  0
    2.5740   18.2250    0.6040 C   0  0  2  0  0  0  0  0  0  0  0  0
    4.0120   17.6760    0.5180 C   0  0  0  0  0  0  0  0  0  0  0  0
    5.0360   18.5060    1.2980 C   0  0  0  0  0  0  0  0  0  0  0  0
    4.4460   19.0740    2.5540 C   0  0  2  0  0  0  0  0  0  0  0  0
    5.1650   20.1870    3.1020 O   0  0  0  0  0  0  0  0  0  0  0  0
    5.1270   18.9980    3.9070 C   0  0  0  0  0  0  0  0  0  0  0  0
    6.4580   18.3340    4.0740 C   0  0  0  0  0  0  0  0  0  0  0  0
    4.2880   19.1300    5.1390 C   0  0  0  0  0  0  0  0  0  0  0  0
    1.5720   17.0980    0.3800 C   0  0  1  0  0  0  0  0  0  0  0  0
    0.2390   17.5980   -0.2370 C   0  0  0  0  0  0  0  0  0  0  0  0
   -0.2640   16.4770   -1.1830 C   0  0  0  0  0  0  0  0  0  0  0  0
    0.6080   15.2490   -0.8310 C   0  0  1  0  0  0  0  0  0  0  0  0
   -0.0530   14.6410    0.4460 C   0  0  0  0  0  0  0  0  0  0  0  0
    0.7800   14.1790   -1.9570 C   0  0  2  0  0  0  0  0  0  0  0  0
   -0.5200   13.4890   -2.4070 C   0  0  0  0  0  0  0  0  0  0  0  0
   -0.8710   12.2430   -1.6640 C   0  0  0  0  0  0  0  0  0  0  0  0
   -0.0360   11.5420   -0.8740 C   0  0  0  0  0  0  0  0  0  0  0  0
    1.4400   11.9360   -0.7420 C   0  0  1  0  0  0  0  0  0  0  0  0
    2.3280   10.6700   -0.8760 C   0  0  0  0  0  0  0  0  0  0  0  0
    1.9280    9.5700    0.1020 C   0  0  0  0  0  0  0  0  0  0  0  0
    0.4700    9.1650   -0.0990 C   0  0  2  0  0  0  0  0  0  0  0  0
    0.3380    8.5400   -1.3790 O   0  0  0  0  0  0  0  0  0  0  0  0
   -0.5180   10.3600    0.0040 C   0  0  0  0  0  0  0  0  0  0  0  0
   -0.5960   10.8460    1.4720 C   0  0  0  0  0  0  0  0  0  0  0  0
   -1.9350    9.8410   -0.3580 C   0  0  0  0  0  0  0  0  0  0  0  0
    1.9270   13.1240   -1.6790 C   0  0  1  0  0  0  0  0  0  0  0  0
    2.3630   12.5630   -3.0670 C   0  0  0  0  0  0  0  0  0  0  0  0
    3.2080   13.7860   -1.0460 C   0  0  0  0  0  0  0  0  0  0  0  0
    2.9740   14.9190   -0.0290 C   0  0  0  0  0  0  0  0  0  0  0  0
    1.9900   15.9560   -0.5800 C   0  0  2  0  0  0  0  0  0  0  0  0
    2.6370   16.6010   -1.8520 C   0  0  0  0  0  0  0  0  0  0  0  0
    2.1184   20.2873    0.1389 H   0  0  0  0  0  0  0  0  0  0  0  0
    3.2159   19.4830   -1.0338 H   0  0  0  0  0  0  0  0  0  0  0  0
    1.4619   19.0954   -1.0338 H   0  0  0  0  0  0  0  0  0  0  0  0
    2.4417   18.6460    1.6116 H   0  0  0  0  0  0  0  0  0  0  0  0
    4.0172   16.6518    0.9192 H   0  0  0  0  0  0  0  0  0  0  0  0
    4.3075   17.7137   -0.5409 H   0  0  0  0  0  0  0  0  0  0  0  0
    5.8885   17.8634    1.5631 H   0  0  0  0  0  0  0  0  0  0  0  0
    5.3574   19.3427    0.6604 H   0  0  0  0  0  0  0  0  0  0  0  0
    3.4301   18.8115    2.2239 H   0  0  0  0  0  0  0  0  0  0  0  0
    6.6805   18.2230    5.1455 H   0  0  0  0  0  0  0  0  0  0  0  0
    6.4349   17.3418    3.5996 H   0  0  0  0  0  0  0  0  0  0  0  0
    7.2368   18.9492    3.5996 H   0  0  0  0  0  0  0  0  0  0  0  0
    4.9259   19.0296    6.0295 H   0  0  0  0  0  0  0  0  0  0  0  0
    3.8003   20.1159    5.1466 H   0  0  0  0  0  0  0  0  0  0  0  0
    3.5211   18.3415    5.1466 H   0  0  0  0  0  0  0  0  0  0  0  0
    1.4918   16.7149    1.4080 H   0  0  0  0  0  0  0  0  0  0  0  0
   -0.4997   17.7838    0.5566 H   0  0  0  0  0  0  0  0  0  0  0  0
    0.3861   18.5406   -0.7846 H   0  0  0  0  0  0  0  0  0  0  0  0
   -1.3275   16.2632   -1.0007 H   0  0  0  0  0  0  0  0  0  0  0  0
   -0.1809   16.7575   -2.2434 H   0  0  0  0  0  0  0  0  0  0  0  0
    0.4161   15.0725    1.3425 H   0  0  0  0  0  0  0  0  0  0  0  0
   -1.1285   14.8721    0.4476 H   0  0  0  0  0  0  0  0  0  0  0  0
    0.0876   13.5500    0.4476 H   0  0  0  0  0  0  0  0  0  0  0  0
    1.1062   14.7886   -2.8126 H   0  0  0  0  0  0  0  0  0  0  0  0
   -1.3459   14.2044   -2.2802 H   0  0  0  0  0  0  0  0  0  0  0  0
   -0.3570   13.1846   -3.4514 H   0  0  0  0  0  0  0  0  0  0  0  0
   -1.8987   11.8656   -1.7709 H   0  0  0  0  0  0  0  0  0  0  0  0
    1.5511   12.3656    0.2645 H   0  0  0  0  0  0  0  0  0  0  0  0
    2.2360   10.2814   -1.9009 H   0  0  0  0  0  0  0  0  0  0  0  0
    3.3633   10.9619   -0.6457 H   0  0  0  0  0  0  0  0  0  0  0  0
    2.5711    8.6925   -0.0605 H   0  0  0  0  0  0  0  0  0  0  0  0
    2.0485    9.9506    1.1270 H   0  0  0  0  0  0  0  0  0  0  0  0
    0.2058    8.4700    0.7117 H   0  0  0  0  0  0  0  0  0  0  0  0
    0.0770    7.6150   -1.2300 H   0  0  0  0  0  0  0  0  0  0  0  0
   -0.4587    9.9902    2.1493 H   0  0  0  0  0  0  0  0  0  0  0  0
    0.1944   11.5889    1.6548 H   0  0  0  0  0  0  0  0  0  0  0  0
   -1.5792   11.3042    1.6548 H   0  0  0  0  0  0  0  0  0  0  0  0
   -2.4970    9.6352    0.5650 H   0  0  0  0  0  0  0  0  0  0  0  0
   -2.4651   10.6033   -0.9478 H   0  0  0  0  0  0  0  0  0  0  0  0
   -1.8473    8.9166   -0.9478 H   0  0  0  0  0  0  0  0  0  0  0  0
    3.0320   11.7022   -2.9208 H   0  0  0  0  0  0  0  0  0  0  0  0
    1.4731   12.2444   -3.6297 H   0  0  0  0  0  0  0  0  0  0  0  0
    2.8914   13.3467   -3.6297 H   0  0  0  0  0  0  0  0  0  0  0  0
    3.7749   12.9931   -0.5362 H   0  0  0  0  0  0  0  0  0  0  0  0
    3.7333   14.2595   -1.8885 H   0  0  0  0  0  0  0  0  0  0  0  0
    2.5645   14.4914    0.8981 H   0  0  0  0  0  0  0  0  0  0  0  0
    3.9347   15.4172    0.1682 H   0  0  0  0  0  0  0  0  0  0  0  0
    3.3850   17.3467   -1.5448 H   0  0  0  0  0  0  0  0  0  0  0  0
    3.1243   15.8186   -2.4523 H   0  0  0  0  0  0  0  0  0  0  0  0
    1.8561   17.0907   -2.4523 H   0  0  0  0  0  0  0  0  0  0  0  0
  1  2  1  0
  2  3  1  0
  3  4  1  0
  4  5  1  0
  5  6  1  0
  6  7  1  0
  7  8  1  0
  7  9  1  0
  2 10  1  0
 10 11  1  0
 11 12  1  0
 12 13  1  0
 13 14  1  1
 13 15  1  0
 15 16  1  0
 16 17  1  0
 17 18  2  0
 18 19  1  0
 19 20  1  0
 20 21  1  0
 21 22  1  0
 22 23  1  0
 22 24  1  0
 24 25  1  0
 24 26  1  0
 19 27  1  0
 27 28  1  6
 27 29  1  0
 29 30  1  0
 30 31  1  0
 31 32  1  6
  7  5  1  0
 31 10  1  0
 31 13  1  0
 27 15  1  0
 24 18  1  0
  1 33  1  0
  1 34  1  0
  1 35  1  0
  2 36  1  1
  3 37  1  0
  3 38  1  0
  4 39  1  0
  4 40  1  0
  5 41  1  1
  8 42  1  0
  8 43  1  0
  8 44  1  0
  9 45  1  0
  9 46  1  0
  9 47  1  0
 10 48  1  1
 11 49  1  0
 11 50  1  0
 12 51  1  0
 12 52  1  0
 14 53  1  0
 14 54  1  0
 14 55  1  0
 15 56  1  6
 16 57  1  0
 16 58  1  0
 17 59  1  0
 19 60  1  1
 20 61  1  0
 20 62  1  0
 21 63  1  0
 21 64  1  0
 22 65  1  1
 23 66  1  0
 25 67  1  0
 25 68  1  0
 25 69  1  0
 26 70  1  0
 26 71  1  0
 26 72  1  0
 28 73  1  0
 28 74  1  0
 28 75  1  0
 29 76  1  0
 29 77  1  0
 30 78  1  0
 30 79  1  0
 32 80  1  0
 32 81  1  0
 32 82  1  0
M  END
>  <meeko>  (3) 
{"is_sidechain": [false], "intermolecular_energy": 2.731, "internal_energy": -0.839}

$$$$
EPH_relaxed_0001_pdb2pqr_Repair_299_r2_0001_out
     RDKit          3D

 82 86  0  0  0  0  0  0  0  0999 V2000
   -4.2090    7.5680   -3.6870 C   0  0  0  0  0  0  0  0  0  0  0  0
   -3.7750    7.3220   -2.2390 C   0  0  2  0  0  0  0  0  0  0  0  0
   -4.9250    6.7700   -1.3740 C   0  0  0  0  0  0  0  0  0  0  0  0
   -6.2500    6.6280   -2.1290 C   0  0  0  0  0  0  0  0  0  0  0  0
   -7.3970    6.3870   -1.1950 C   0  0  2  0  0  0  0  0  0  0  0  0
   -8.4680    5.6120   -1.7500 O   0  0  0  0  0  0  0  0  0  0  0  0
   -8.7820    6.9700   -1.4020 C   0  0  0  0  0  0  0  0  0  0  0  0
   -9.0930    7.8420   -2.5780 C   0  0  0  0  0  0  0  0  0  0  0  0
   -9.6910    7.0950   -0.2190 C   0  0  0  0  0  0  0  0  0  0  0  0
   -3.2400    8.6130   -1.6310 C   0  0  1  0  0  0  0  0  0  0  0  0
   -3.8860    8.9400   -0.2580 C   0  0  0  0  0  0  0  0  0  0  0  0
   -2.7860    9.6090    0.6060 C   0  0  0  0  0  0  0  0  0  0  0  0
   -1.6560    9.9460   -0.3940 C   0  0  1  0  0  0  0  0  0  0  0  0
   -2.1060   11.2760   -1.0750 C   0  0  0  0  0  0  0  0  0  0  0  0
   -0.2160   10.0630    0.2050 C   0  0  2  0  0  0  0  0  0  0  0  0
   -0.0290   11.1850    1.2400 C   0  0  0  0  0  0  0  0  0  0  0  0
    0.4000   12.5020    0.6820 C   0  0  0  0  0  0  0  0  0  0  0  0
    0.9000   12.7040   -0.5510 C   0  0  0  0  0  0  0  0  0  0  0  0
    1.1690   11.5240   -1.4940 C   0  0  1  0  0  0  0  0  0  0  0  0
    2.5730   11.6820   -2.1340 C   0  0  0  0  0  0  0  0  0  0  0  0
    2.7550   13.0320   -2.8210 C   0  0  0  0  0  0  0  0  0  0  0  0
    2.5370   14.1780   -1.8370 C   0  0  2  0  0  0  0  0  0  0  0  0
    3.5840   14.1550   -0.8620 O   0  0  0  0  0  0  0  0  0  0  0  0
    1.1570   14.1190   -1.1240 C   0  0  0  0  0  0  0  0  0  0  0  0
    0.0330   14.4460   -2.1370 C   0  0  0  0  0  0  0  0  0  0  0  0
    1.1220   15.2480   -0.0580 C   0  0  0  0  0  0  0  0  0  0  0  0
    0.9370   10.0770   -0.8790 C   0  0  1  0  0  0  0  0  0  0  0  0
    2.2320    9.5930   -0.1570 C   0  0  0  0  0  0  0  0  0  0  0  0
    0.6720    9.0570   -2.0480 C   0  0  0  0  0  0  0  0  0  0  0  0
   -0.7870    8.8980   -2.5150 C   0  0  0  0  0  0  0  0  0  0  0  0
   -1.7230    8.6790   -1.3220 C   0  0  2  0  0  0  0  0  0  0  0  0
   -1.3080    7.3360   -0.6290 C   0  0  0  0  0  0  0  0  0  0  0  0
   -5.1659    8.1104   -3.6958 H   0  0  0  0  0  0  0  0  0  0  0  0
   -3.4435    8.1665   -4.2026 H   0  0  0  0  0  0  0  0  0  0  0  0
   -4.3293    6.6038   -4.2026 H   0  0  0  0  0  0  0  0  0  0  0  0
   -2.9805    6.5614   -2.2562 H   0  0  0  0  0  0  0  0  0  0  0  0
   -4.6317    5.7788   -0.9979 H   0  0  0  0  0  0  0  0  0  0  0  0
   -5.0932    7.4938   -0.5630 H   0  0  0  0  0  0  0  0  0  0  0  0
   -6.4389    7.5524   -2.6945 H   0  0  0  0  0  0  0  0  0  0  0  0
   -6.1694    5.7628   -2.8035 H   0  0  0  0  0  0  0  0  0  0  0  0
   -6.7204    6.3835   -0.3277 H   0  0  0  0  0  0  0  0  0  0  0  0
   -9.4429    8.8231   -2.2246 H   0  0  0  0  0  0  0  0  0  0  0  0
   -8.1864    7.9736   -3.1869 H   0  0  0  0  0  0  0  0  0  0  0  0
   -9.8783    7.3702   -3.1869 H   0  0  0  0  0  0  0  0  0  0  0  0
   -9.1018    7.0140    0.7063 H   0  0  0  0  0  0  0  0  0  0  0  0
  -10.1972    8.0712   -0.2471 H   0  0  0  0  0  0  0  0  0  0  0  0
  -10.4419    6.2917   -0.2471 H   0  0  0  0  0  0  0  0  0  0  0  0
   -3.4902    9.3147   -2.4404 H   0  0  0  0  0  0  0  0  0  0  0  0
   -4.7332    9.6286   -0.3924 H   0  0  0  0  0  0  0  0  0  0  0  0
   -4.2684    8.0290    0.2255 H   0  0  0  0  0  0  0  0  0  0  0  0
   -3.1689   10.5238    1.0821 H   0  0  0  0  0  0  0  0  0  0  0  0
   -2.4408    8.9558    1.4210 H   0  0  0  0  0  0  0  0  0  0  0  0
   -2.3568   12.0172   -0.3019 H   0  0  0  0  0  0  0  0  0  0  0  0
   -1.2884   11.6620   -1.7016 H   0  0  0  0  0  0  0  0  0  0  0  0
   -2.9900   11.0863   -1.7016 H   0  0  0  0  0  0  0  0  0  0  0  0
   -0.1159    9.1217    0.7652 H   0  0  0  0  0  0  0  0  0  0  0  0
   -0.9876   11.3318    1.7592 H   0  0  0  0  0  0  0  0  0  0  0  0
    0.7848   10.8554    1.9026 H   0  0  0  0  0  0  0  0  0  0  0  0
    0.2987   13.3819    1.3343 H   0  0  0  0  0  0  0  0  0  0  0  0
    0.3954   11.5763   -2.2743 H   0  0  0  0  0  0  0  0  0  0  0  0
    3.3332   11.5826   -1.3452 H   0  0  0  0  0  0  0  0  0  0  0  0
    2.6800   10.9005   -2.9006 H   0  0  0  0  0  0  0  0  0  0  0  0
    3.7755   13.0949   -3.2266 H   0  0  0  0  0  0  0  0  0  0  0  0
    2.0140   13.1174   -3.6295 H   0  0  0  0  0  0  0  0  0  0  0  0
    2.5524   15.1147   -2.4134 H   0  0  0  0  0  0  0  0  0  0  0  0
    4.1730   13.4130   -1.0800 H   0  0  0  0  0  0  0  0  0  0  0  0
   -0.8848   14.7130   -1.5927 H   0  0  0  0  0  0  0  0  0  0  0  0
    0.3435   15.2911   -2.7690 H   0  0  0  0  0  0  0  0  0  0  0  0
   -0.1583   13.5663   -2.7690 H   0  0  0  0  0  0  0  0  0  0  0  0
    1.1358   14.8031    0.9479 H   0  0  0  0  0  0  0  0  0  0  0  0
    2.0004   15.8981   -0.1835 H   0  0  0  0  0  0  0  0  0  0  0  0
    0.2050   15.8424   -0.1835 H   0  0  0  0  0  0  0  0  0  0  0  0
    2.0867    9.6473    0.9320 H   0  0  0  0  0  0  0  0  0  0  0  0
    2.4469    8.5539   -0.4469 H   0  0  0  0  0  0  0  0  0  0  0  0
    3.0757   10.2365   -0.4469 H   0  0  0  0  0  0  0  0  0  0  0  0
    1.2650    9.3835   -2.9150 H   0  0  0  0  0  0  0  0  0  0  0  0
    0.9521    8.0743   -1.6408 H   0  0  0  0  0  0  0  0  0  0  0  0
   -1.0944    9.8077   -3.0515 H   0  0  0  0  0  0  0  0  0  0  0  0
   -0.8504    8.0214   -3.1765 H   0  0  0  0  0  0  0  0  0  0  0  0
   -1.3463    7.4599    0.4633 H   0  0  0  0  0  0  0  0  0  0  0  0
   -2.0013    6.5375   -0.9320 H   0  0  0  0  0  0  0  0  0  0  0  0
   -0.2851    7.0679   -0.9320 H   0  0  0  0  0  0  0  0  0  0  0  0
  1  2  1  0
  2  3  1  0
  3  4  1  0
  4  5  1  0
  5  6  1  0
  6  7  1  0
  7  8  1  0
  7  9  1  0
  2 10  1  0
 10 11  1  0
 11 12  1  0
 12 13  1  0
 13 14  1  6
 13 15  1  0
 15 16  1  0
 16 17  1  0
 17 18  2  0
 18 19  1  0
 19 20  1  0
 20 21  1  0
 21 22  1  0
 22 23  1  0
 22 24  1  0
 24 25  1  0
 24 26  1  0
 19 27  1  0
 27 28  1  1
 27 29  1  0
 29 30  1  0
 30 31  1  0
 31 32  1  1
  7  5  1  0
 31 10  1  0
 31 13  1  0
 27 15  1  0
 24 18  1  0
  1 33  1  0
  1 34  1  0
  1 35  1  0
  2 36  1  6
  3 37  1  0
  3 38  1  0
  4 39  1  0
  4 40  1  0
  5 41  1  1
  8 42  1  0
  8 43  1  0
  8 44  1  0
  9 45  1  0
  9 46  1  0
  9 47  1  0
 10 48  1  6
 11 49  1  0
 11 50  1  0
 12 51  1  0
 12 52  1  0
 14 53  1  0
 14 54  1  0
 14 55  1  0
 15 56  1  1
 16 57  1  0
 16 58  1  0
 17 59  1  0
 19 60  1  6
 20 61  1  0
 20 62  1  0
 21 63  1  0
 21 64  1  0
 22 65  1  6
 23 66  1  0
 25 67  1  0
 25 68  1  0
 25 69  1  0
 26 70  1  0
 26 71  1  0
 26 72  1  0
 28 73  1  0
 28 74  1  0
 28 75  1  0
 29 76  1  0
 29 77  1  0
 30 78  1  0
 30 79  1  0
 32 80  1  0
 32 81  1  0
 32 82  1  0
M  END
>  <meeko>  (4) 
{"is_sidechain": [false], "intermolecular_energy": 2.731, "internal_energy": -0.839}

$$$$
EPH_relaxed_0001_pdb2pqr_Repair_299_r2_0001_out
     RDKit          3D

 82 86  0  0  0  0  0  0  0  0999 V2000
    3.8740   17.0080    1.1800 C   0  0  0  0  0  0  0  0  0  0  0  0
    3.0730   17.2420   -0.1050 C   0  0  2  0  0  0  0  0  0  0  0  0
    2.5380   18.6850   -0.2010 C   0  0  0  0  0  0  0  0  0  0  0  0
    1.6520   19.0930    0.9790 C   0  0  0  0  0  0  0  0  0  0  0  0
    0.4830   19.9190    0.5340 C   0  0  2  0  0  0  0  0  0  0  0  0
   -0.4810   20.1930    1.5590 O   0  0  0  0  0  0  0  0  0  0  0  0
   -0.9360   19.3880    0.4590 C   0  0  0  0  0  0  0  0  0  0  0  0
   -1.2620   17.9760    0.8310 C   0  0  0  0  0  0  0  0  0  0  0  0
   -1.9150   20.0860   -0.4340 C   0  0  0  0  0  0  0  0  0  0  0  0
    1.9180   16.2510   -0.1840 C   0  0  1  0  0  0  0  0  0  0  0  0
    0.6140   16.8960   -0.7260 C   0  0  0  0  0  0  0  0  0  0  0  0
   -0.1080   15.8080   -1.5630 C   0  0  0  0  0  0  0  0  0  0  0  0
    0.6220   14.4920   -1.2050 C   0  0  1  0  0  0  0  0  0  0  0  0
   -0.0040   14.0430    0.1530 C   0  0  0  0  0  0  0  0  0  0  0  0
    0.5580   13.3540   -2.2750 C   0  0  2  0  0  0  0  0  0  0  0  0
   -0.8540   12.8260   -2.5820 C   0  0  0  0  0  0  0  0  0  0  0  0
   -1.3020   11.6770   -1.7420 C   0  0  0  0  0  0  0  0  0  0  0  0
   -0.5040   10.9090   -0.9770 C   0  0  0  0  0  0  0  0  0  0  0  0
    1.0180   11.1050   -0.9810 C   0  0  1  0  0  0  0  0  0  0  0  0
    1.7170    9.7260   -1.1060 C   0  0  0  0  0  0  0  0  0  0  0  0
    1.2600    8.7400   -0.0360 C   0  0  0  0  0  0  0  0  0  0  0  0
   -0.2510    8.5260   -0.1010 C   0  0  2  0  0  0  0  0  0  0  0  0
   -0.5700    7.8620   -1.3280 O   0  0  0  0  0  0  0  0  0  0  0  0
   -1.0610    9.8480    0.0040 C   0  0  0  0  0  0  0  0  0  0  0  0
   -0.9530   10.4120    1.4430 C   0  0  0  0  0  0  0  0  0  0  0  0
   -2.5600    9.5080   -0.2170 C   0  0  0  0  0  0  0  0  0  0  0  0
    1.5760   12.1690   -2.0220 C   0  0  1  0  0  0  0  0  0  0  0  0
    1.8170   11.4870   -3.4030 C   0  0  0  0  0  0  0  0  0  0  0  0
    2.9810   12.6820   -1.5280 C   0  0  0  0  0  0  0  0  0  0  0  0
    2.9820   13.8850   -0.5660 C   0  0  0  0  0  0  0  0  0  0  0  0
    2.1000   15.0170   -1.1020 C   0  0  2  0  0  0  0  0  0  0  0  0
    2.7180   15.5050   -2.4570 C   0  0  0  0  0  0  0  0  0  0  0  0
    3.2308   17.1959    2.0523 H   0  0  0  0  0  0  0  0  0  0  0  0
    4.2313   15.9679    1.2051 H   0  0  0  0  0  0  0  0  0  0  0  0
    4.7350   17.6922    1.2051 H   0  0  0  0  0  0  0  0  0  0  0  0
    3.7550   17.0864   -0.9539 H   0  0  0  0  0  0  0  0  0  0  0  0
    3.3965   19.3714   -0.2443 H   0  0  0  0  0  0  0  0  0  0  0  0
    1.9132   18.7366   -1.1049 H   0  0  0  0  0  0  0  0  0  0  0  0
    1.2788   18.1851    1.4754 H   0  0  0  0  0  0  0  0  0  0  0  0
    2.2573   19.6988    1.6694 H   0  0  0  0  0  0  0  0  0  0  0  0
    1.1091   20.4559   -0.1938 H   0  0  0  0  0  0  0  0  0  0  0  0
   -1.2839   17.8812    1.9267 H   0  0  0  0  0  0  0  0  0  0  0  0
   -2.2460   17.7064    0.4199 H   0  0  0  0  0  0  0  0  0  0  0  0
   -0.4958   17.3023    0.4199 H   0  0  0  0  0  0  0  0  0  0  0  0
   -2.6582   20.6159    0.1800 H   0  0  0  0  0  0  0  0  0  0  0  0
   -1.3815   20.8087   -1.0689 H   0  0  0  0  0  0  0  0  0  0  0  0
   -2.4243   19.3461   -1.0689 H   0  0  0  0  0  0  0  0  0  0  0  0
    1.8761   15.9330    0.8682 H   0  0  0  0  0  0  0  0  0  0  0  0
   -0.0252   17.2177    0.1094 H   0  0  0  0  0  0  0  0  0  0  0  0
    0.8363   17.7827   -1.3378 H   0  0  0  0  0  0  0  0  0  0  0  0
   -1.1716   15.7491   -1.2886 H   0  0  0  0  0  0  0  0  0  0  0  0
   -0.0768   16.0223   -2.6415 H   0  0  0  0  0  0  0  0  0  0  0  0
    0.5820   14.4633    0.9836 H   0  0  0  0  0  0  0  0  0  0  0  0
   -1.0410   14.4045    0.2161 H   0  0  0  0  0  0  0  0  0  0  0  0
    0.0060   12.9449    0.2161 H   0  0  0  0  0  0  0  0  0  0  0  0
    0.8890   13.8698   -3.1885 H   0  0  0  0  0  0  0  0  0  0  0  0
   -1.5652   13.6522   -2.4348 H   0  0  0  0  0  0  0  0  0  0  0  0
   -0.8206   12.4520   -3.6159 H   0  0  0  0  0  0  0  0  0  0  0  0
   -2.3755   11.4372   -1.7485 H   0  0  0  0  0  0  0  0  0  0  0  0
    1.2691   11.5638   -0.0133 H   0  0  0  0  0  0  0  0  0  0  0  0
    1.4888    9.3034   -2.0956 H   0  0  0  0  0  0  0  0  0  0  0  0
    2.7972    9.8858   -0.9735 H   0  0  0  0  0  0  0  0  0  0  0  0
    1.7672    7.7767   -0.1938 H   0  0  0  0  0  0  0  0  0  0  0  0
    1.5144    9.1511    0.9521 H   0  0  0  0  0  0  0  0  0  0  0  0
   -0.5358    7.9137    0.7673 H   0  0  0  0  0  0  0  0  0  0  0  0
   -0.1210    7.0000   -1.3210 H   0  0  0  0  0  0  0  0  0  0  0  0
   -1.1086    9.5994    2.1679 H   0  0  0  0  0  0  0  0  0  0  0  0
    0.0453   10.8496    1.5914 H   0  0  0  0  0  0  0  0  0  0  0  0
   -1.7190   11.1874    1.5914 H   0  0  0  0  0  0  0  0  0  0  0  0
   -3.0579    9.3951    0.7574 H   0  0  0  0  0  0  0  0  0  0  0  0
   -3.0406   10.3199   -0.7825 H   0  0  0  0  0  0  0  0  0  0  0  0
   -2.6433    8.5681   -0.7825 H   0  0  0  0  0  0  0  0  0  0  0  0
    2.1798   10.4604   -3.2466 H   0  0  0  0  0  0  0  0  0  0  0  0
    0.8738   11.4605   -3.9684 H   0  0  0  0  0  0  0  0  0  0  0  0
    2.5675   12.0589   -3.9684 H   0  0  0  0  0  0  0  0  0  0  0  0
    3.4793   11.8458   -1.0157 H   0  0  0  0  0  0  0  0  0  0  0  0
    3.4926   13.0378   -2.4345 H   0  0  0  0  0  0  0  0  0  0  0  0
    2.5983   13.5629    0.4133 H   0  0  0  0  0  0  0  0  0  0  0  0
    4.0126   14.2580   -0.4722 H   0  0  0  0  0  0  0  0  0  0  0  0
    3.5663   16.1749   -2.2529 H   0  0  0  0  0  0  0  0  0  0  0  0
    3.0673   14.6364   -3.0346 H   0  0  0  0  0  0  0  0  0  0  0  0
    1.9541   16.0462   -3.0346 H   0  0  0  0  0  0  0  0  0  0  0  0
  1  2  1  0
  2  3  1  0
  3  4  1  0
  4  5  1  0
  5  6  1  0
  6  7  1  0
  7  8  1  0
  7  9  1  0
  2 10  1  0
 10 11  1  0
 11 12  1  0
 12 13  1  0
 13 14  1  1
 13 15  1  0
 15 16  1  0
 16 17  1  0
 17 18  2  0
 18 19  1  0
 19 20  1  0
 20 21  1  0
 21 22  1  0
 22 23  1  0
 22 24  1  0
 24 25  1  0
 24 26  1  0
 19 27  1  0
 27 28  1  6
 27 29  1  0
 29 30  1  0
 30 31  1  0
 31 32  1  6
  7  5  1  0
 31 10  1  0
 31 13  1  0
 27 15  1  0
 24 18  1  0
  1 33  1  0
  1 34  1  0
  1 35  1  0
  2 36  1  6
  3 37  1  0
  3 38  1  0
  4 39  1  0
  4 40  1  0
  5 41  1  6
  8 42  1  0
  8 43  1  0
  8 44  1  0
  9 45  1  0
  9 46  1  0
  9 47  1  0
 10 48  1  1
 11 49  1  0
 11 50  1  0
 12 51  1  0
 12 52  1  0
 14 53  1  0
 14 54  1  0
 14 55  1  0
 15 56  1  6
 16 57  1  0
 16 58  1  0
 17 59  1  0
 19 60  1  1
 20 61  1  0
 20 62  1  0
 21 63  1  0
 21 64  1  0
 22 65  1  1
 23 66  1  0
 25 67  1  0
 25 68  1  0
 25 69  1  0
 26 70  1  0
 26 71  1  0
 26 72  1  0
 28 73  1  0
 28 74  1  0
 28 75  1  0
 29 76  1  0
 29 77  1  0
 30 78  1  0
 30 79  1  0
 32 80  1  0
 32 81  1  0
 32 82  1  0
M  END
>  <meeko>  (5) 
{"is_sidechain": [false], "intermolecular_energy": 2.731, "internal_energy": -0.839}

$$$$
EPH_relaxed_0001_pdb2pqr_Repair_299_r2_0001_out
     RDKit          3D

 82 86  0  0  0  0  0  0  0  0999 V2000
   -2.5130    7.7480   -0.0670 C   0  0  0  0  0  0  0  0  0  0  0  0
   -3.1880    9.1210   -0.1390 C   0  0  2  0  0  0  0  0  0  0  0  0
   -4.6360    9.0300   -0.6590 C   0  0  0  0  0  0  0  0  0  0  0  0
   -5.1640    7.5960   -0.7630 C   0  0  0  0  0  0  0  0  0  0  0  0
   -6.0250    7.4100   -1.9760 C   0  0  2  0  0  0  0  0  0  0  0  0
   -6.9530    8.4750   -2.2210 O   0  0  0  0  0  0  0  0  0  0  0  0
   -7.5260    7.1940   -1.9110 C   0  0  0  0  0  0  0  0  0  0  0  0
   -8.2520    7.1540   -0.6030 C   0  0  0  0  0  0  0  0  0  0  0  0
   -8.2050    6.5400   -3.0730 C   0  0  0  0  0  0  0  0  0  0  0  0
   -2.3730   10.0540   -1.0270 C   0  0  1  0  0  0  0  0  0  0  0  0
   -2.9570   11.4910   -1.0770 C   0  0  0  0  0  0  0  0  0  0  0  0
   -1.7510   12.4610   -1.1790 C   0  0  0  0  0  0  0  0  0  0  0  0
   -0.5470   11.5510   -1.5180 C   0  0  1  0  0  0  0  0  0  0  0  0
   -0.6460   11.3100   -3.0570 C   0  0  0  0  0  0  0  0  0  0  0  0
    0.8620   12.0890   -1.1070 C   0  0  2  0  0  0  0  0  0  0  0  0
    1.2870   13.3970   -1.7960 C   0  0  0  0  0  0  0  0  0  0  0  0
    2.0350   13.2300   -3.0770 C   0  0  0  0  0  0  0  0  0  0  0  0
    2.6010   12.0870   -3.5090 C   0  0  0  0  0  0  0  0  0  0  0  0
    2.6020   10.8280   -2.6320 C   0  0  1  0  0  0  0  0  0  0  0  0
    4.0190   10.1980   -2.6330 C   0  0  0  0  0  0  0  0  0  0  0  0
    4.5390    9.9280   -4.0420 C   0  0  0  0  0  0  0  0  0  0  0  0
    4.5770   11.2140   -4.8640 C   0  0  2  0  0  0  0  0  0  0  0  0
    5.5630   12.0880   -4.3060 O   0  0  0  0  0  0  0  0  0  0  0  0
    3.2060   11.9430   -4.9270 C   0  0  0  0  0  0  0  0  0  0  0  0
    2.2200   11.1230   -5.7960 C   0  0  0  0  0  0  0  0  0  0  0  0
    3.4160   13.2920   -5.6650 C   0  0  0  0  0  0  0  0  0  0  0  0
    2.0130   11.0040   -1.1660 C   0  0  1  0  0  0  0  0  0  0  0  0
    3.1340   11.4900   -0.1970 C   0  0  0  0  0  0  0  0  0  0  0  0
    1.5400    9.6010   -0.6310 C   0  0  0  0  0  0  0  0  0  0  0  0
    0.0980    9.1780   -0.9690 C   0  0  0  0  0  0  0  0  0  0  0  0
   -0.8940   10.2970   -0.6350 C   0  0  2  0  0  0  0  0  0  0  0  0
   -0.8330   10.5460    0.9100 C   0  0  0  0  0  0  0  0  0  0  0  0
   -2.3729    7.4631    0.9862 H   0  0  0  0  0  0  0  0  0  0  0  0
   -3.1467    7.0012   -0.5677 H   0  0  0  0  0  0  0  0  0  0  0  0
   -1.5346    7.7937   -0.5677 H   0  0  0  0  0  0  0  0  0  0  0  0
   -3.2301    9.5233    0.8839 H   0  0  0  0  0  0  0  0  0  0  0  0
   -5.2873    9.5909    0.0274 H   0  0  0  0  0  0  0  0  0  0  0  0
   -4.6390    9.4482   -1.6764 H   0  0  0  0  0  0  0  0  0  0  0  0
   -4.3102    6.9049   -0.8222 H   0  0  0  0  0  0  0  0  0  0  0  0
   -5.7761    7.3900    0.1275 H   0  0  0  0  0  0  0  0  0  0  0  0
   -5.2221    6.8621   -2.4910 H   0  0  0  0  0  0  0  0  0  0  0  0
   -7.5248    7.1941    0.2214 H   0  0  0  0  0  0  0  0  0  0  0  0
   -8.9318    8.0161   -0.5345 H   0  0  0  0  0  0  0  0  0  0  0  0
   -8.8330    6.2225   -0.5345 H   0  0  0  0  0  0  0  0  0  0  0  0
   -8.9514    5.8210   -2.7043 H   0  0  0  0  0  0  0  0  0  0  0  0
   -8.7044    7.3060   -3.6844 H   0  0  0  0  0  0  0  0  0  0  0  0
   -7.4583    6.0122   -3.6844 H   0  0  0  0  0  0  0  0  0  0  0  0
   -2.4245    9.4986   -1.9751 H   0  0  0  0  0  0  0  0  0  0  0  0
   -3.6096   11.6043   -1.9553 H   0  0  0  0  0  0  0  0  0  0  0  0
   -3.5601   11.7035   -0.1820 H   0  0  0  0  0  0  0  0  0  0  0  0
   -1.9145   13.2017   -1.9756 H   0  0  0  0  0  0  0  0  0  0  0  0
   -1.5948   13.0319   -0.2518 H   0  0  0  0  0  0  0  0  0  0  0  0
   -1.0578   10.3075   -3.2454 H   0  0  0  0  0  0  0  0  0  0  0  0
   -1.3058   12.0676   -3.5051 H   0  0  0  0  0  0  0  0  0  0  0  0
    0.3558   11.3850   -3.5051 H   0  0  0  0  0  0  0  0  0  0  0  0
    0.7173   12.3432   -0.0466 H   0  0  0  0  0  0  0  0  0  0  0  0
    0.3787   13.9807   -2.0066 H   0  0  0  0  0  0  0  0  0  0  0  0
    1.9802   13.8948   -1.1020 H   0  0  0  0  0  0  0  0  0  0  0  0
    2.1320   14.1153   -3.7226 H   0  0  0  0  0  0  0  0  0  0  0  0
    1.8848   10.1340   -3.0946 H   0  0  0  0  0  0  0  0  0  0  0  0
    4.7116   10.8872   -2.1277 H   0  0  0  0  0  0  0  0  0  0  0  0
    3.9551    9.2323   -2.1102 H   0  0  0  0  0  0  0  0  0  0  0  0
    5.5551    9.5117   -3.9773 H   0  0  0  0  0  0  0  0  0  0  0  0
    3.8625    9.2149   -4.5358 H   0  0  0  0  0  0  0  0  0  0  0  0
    4.8309   10.9373   -5.8979 H   0  0  0  0  0  0  0  0  0  0  0  0
    6.1980   12.3030   -5.0100 H   0  0  0  0  0  0  0  0  0  0  0  0
    1.5393   10.5569   -5.1431 H   0  0  0  0  0  0  0  0  0  0  0  0
    1.6360   11.8055   -6.4310 H   0  0  0  0  0  0  0  0  0  0  0  0
    2.7846   10.4244   -6.4310 H   0  0  0  0  0  0  0  0  0  0  0  0
    3.5415   14.0980   -4.9270 H   0  0  0  0  0  0  0  0  0  0  0  0
    4.3151   13.2289   -6.2955 H   0  0  0  0  0  0  0  0  0  0  0  0
    2.5402   13.5052   -6.2955 H   0  0  0  0  0  0  0  0  0  0  0  0
    2.8063   11.3479    0.8434 H   0  0  0  0  0  0  0  0  0  0  0  0
    4.0505   10.9084   -0.3754 H   0  0  0  0  0  0  0  0  0  0  0  0
    3.3360   12.5565   -0.3754 H   0  0  0  0  0  0  0  0  0  0  0  0
    2.2162    8.8406   -1.0486 H   0  0  0  0  0  0  0  0  0  0  0  0
    1.5645    9.6883    0.4653 H   0  0  0  0  0  0  0  0  0  0  0  0
    0.0328    8.9478   -2.0427 H   0  0  0  0  0  0  0  0  0  0  0  0
   -0.1575    8.2920   -0.3692 H   0  0  0  0  0  0  0  0  0  0  0  0
   -1.0622    9.6106    1.4415 H   0  0  0  0  0  0  0  0  0  0  0  0
    0.1754   10.8874    1.1868 H   0  0  0  0  0  0  0  0  0  0  0  0
   -1.5693   11.3149    1.1868 H   0  0  0  0  0  0  0  0  0  0  0  0
  1  2  1  0
  2  3  1  0
  3  4  1  0
  4  5  1  0
  5  6  1  0
  6  7  1  0
  7  8  1  0
  7  9  1  0
  2 10  1  0
 10 11  1  0
 11 12  1  0
 12 13  1  0
 13 14  1  6
 13 15  1  0
 15 16  1  0
 16 17  1  0
 17 18  2  0
 18 19  1  0
 19 20  1  0
 20 21  1  0
 21 22  1  0
 22 23  1  0
 22 24  1  0
 24 25  1  0
 24 26  1  0
 19 27  1  0
 27 28  1  1
 27 29  1  0
 29 30  1  0
 30 31  1  0
 31 32  1  1
  7  5  1  0
 31 10  1  0
 31 13  1  0
 27 15  1  0
 24 18  1  0
  1 33  1  0
  1 34  1  0
  1 35  1  0
  2 36  1  1
  3 37  1  0
  3 38  1  0
  4 39  1  0
  4 40  1  0
  5 41  1  6
  8 42  1  0
  8 43  1  0
  8 44  1  0
  9 45  1  0
  9 46  1  0
  9 47  1  0
 10 48  1  6
 11 49  1  0
 11 50  1  0
 12 51  1  0
 12 52  1  0
 14 53  1  0
 14 54  1  0
 14 55  1  0
 15 56  1  1
 16 57  1  0
 16 58  1  0
 17 59  1  0
 19 60  1  6
 20 61  1  0
 20 62  1  0
 21 63  1  0
 21 64  1  0
 22 65  1  6
 23 66  1  0
 25 67  1  0
 25 68  1  0
 25 69  1  0
 26 70  1  0
 26 71  1  0
 26 72  1  0
 28 73  1  0
 28 74  1  0
 28 75  1  0
 29 76  1  0
 29 77  1  0
 30 78  1  0
 30 79  1  0
 32 80  1  0
 32 81  1  0
 32 82  1  0
M  END
>  <meeko>  (6) 
{"is_sidechain": [false], "intermolecular_energy": 2.731, "internal_energy": -0.839}

$$$$
EPH_relaxed_0001_pdb2pqr_Repair_299_r2_0001_out
     RDKit          3D

 82 86  0  0  0  0  0  0  0  0999 V2000
    0.7070   17.7530   -0.5150 C   0  0  0  0  0  0  0  0  0  0  0  0
    2.0500   17.0620   -0.2580 C   0  0  2  0  0  0  0  0  0  0  0  0
    3.2360   17.8750   -0.8150 C   0  0  0  0  0  0  0  0  0  0  0  0
    4.3610   18.0960    0.2010 C   0  0  0  0  0  0  0  0  0  0  0  0
    3.8370   18.6270    1.5010 C   0  0  2  0  0  0  0  0  0  0  0  0
    4.0460   20.0310    1.7020 O   0  0  0  0  0  0  0  0  0  0  0  0
    4.7290   19.1520    2.6100 C   0  0  0  0  0  0  0  0  0  0  0  0
    6.2190   19.1710    2.4700 C   0  0  0  0  0  0  0  0  0  0  0  0
    4.1890   19.1890    4.0060 C   0  0  0  0  0  0  0  0  0  0  0  0
    2.0410   15.6660   -0.8700 C   0  0  1  0  0  0  0  0  0  0  0  0
    3.4070   15.2810   -1.4990 C   0  0  0  0  0  0  0  0  0  0  0  0
    3.5950   13.7600   -1.2640 C   0  0  0  0  0  0  0  0  0  0  0  0
    2.2020   13.2610   -0.8120 C   0  0  1  0  0  0  0  0  0  0  0  0
    1.3910   13.0850   -2.1340 C   0  0  0  0  0  0  0  0  0  0  0  0
    2.1830   11.9600    0.0550 C   0  0  2  0  0  0  0  0  0  0  0  0
    2.7270   10.7020   -0.6440 C   0  0  0  0  0  0  0  0  0  0  0  0
    1.7110    9.8910   -1.3800 C   0  0  0  0  0  0  0  0  0  0  0  0
    0.3770    9.9990   -1.2430 C   0  0  0  0  0  0  0  0  0  0  0  0
   -0.2350   10.9450   -0.2010 C   0  0  1  0  0  0  0  0  0  0  0  0
   -1.3550   10.2040    0.5760 C   0  0  0  0  0  0  0  0  0  0  0  0
   -2.4060    9.5980   -0.3490 C   0  0  0  0  0  0  0  0  0  0  0  0
   -1.7670    8.6190   -1.3320 C   0  0  2  0  0  0  0  0  0  0  0  0
   -1.2710    7.4920   -0.6040 O   0  0  0  0  0  0  0  0  0  0  0  0
   -0.6170    9.2510   -2.1650 C   0  0  0  0  0  0  0  0  0  0  0  0
   -1.2030   10.2680   -3.1750 C   0  0  0  0  0  0  0  0  0  0  0  0
    0.0330    8.1240   -3.0120 C   0  0  0  0  0  0  0  0  0  0  0  0
    0.7970   11.6740    0.7630 C   0  0  1  0  0  0  0  0  0  0  0  0
    1.1050   10.7690    1.9950 C   0  0  0  0  0  0  0  0  0  0  0  0
    0.1330   12.9840    1.3300 C   0  0  0  0  0  0  0  0  0  0  0  0
    0.2890   14.2640    0.4850 C   0  0  0  0  0  0  0  0  0  0  0  0
    1.7500   14.4760    0.0770 C   0  0  2  0  0  0  0  0  0  0  0  0
    2.5880   14.6780    1.3860 C   0  0  0  0  0  0  0  0  0  0  0  0
    0.2309   17.9980    0.4459 H   0  0  0  0  0  0  0  0  0  0  0  0
    0.8738   18.6772   -1.0877 H   0  0  0  0  0  0  0  0  0  0  0  0
    0.0520   17.0799   -1.0877 H   0  0  0  0  0  0  0  0  0  0  0  0
    2.1828   16.9889    0.8315 H   0  0  0  0  0  0  0  0  0  0  0  0
    3.6501   17.3370   -1.6804 H   0  0  0  0  0  0  0  0  0  0  0  0
    2.8470   18.8677   -1.0855 H   0  0  0  0  0  0  0  0  0  0  0  0
    4.8679   17.1374    0.3858 H   0  0  0  0  0  0  0  0  0  0  0  0
    5.0590   18.8369   -0.2158 H   0  0  0  0  0  0  0  0  0  0  0  0
    3.0179   17.8928    1.4980 H   0  0  0  0  0  0  0  0  0  0  0  0
    6.6810   19.1769    3.4682 H   0  0  0  0  0  0  0  0  0  0  0  0
    6.5470   18.2770    1.9194 H   0  0  0  0  0  0  0  0  0  0  0  0
    6.5241   20.0731    1.9194 H   0  0  0  0  0  0  0  0  0  0  0  0
    5.0215   19.1320    4.7228 H   0  0  0  0  0  0  0  0  0  0  0  0
    3.6358   20.1272    4.1604 H   0  0  0  0  0  0  0  0  0  0  0  0
    3.5130   18.3351    4.1604 H   0  0  0  0  0  0  0  0  0  0  0  0
    1.2164   15.7850   -1.5882 H   0  0  0  0  0  0  0  0  0  0  0  0
    3.4028   15.5001   -2.5770 H   0  0  0  0  0  0  0  0  0  0  0  0
    4.2273   15.8553   -1.0437 H   0  0  0  0  0  0  0  0  0  0  0  0
    3.9047   13.2587   -2.1929 H   0  0  0  0  0  0  0  0  0  0  0  0
    4.3768   13.5458   -0.5204 H   0  0  0  0  0  0  0  0  0  0  0  0
    0.3421   12.8574   -1.8932 H   0  0  0  0  0  0  0  0  0  0  0  0
    1.4392   14.0145   -2.7202 H   0  0  0  0  0  0  0  0  0  0  0  0
    1.8202   12.2591   -2.7202 H   0  0  0  0  0  0  0  0  0  0  0  0
    2.9056   12.1956    0.8502 H   0  0  0  0  0  0  0  0  0  0  0  0
    3.4955   11.0189   -1.3643 H   0  0  0  0  0  0  0  0  0  0  0  0
    3.1134   10.0528    0.1555 H   0  0  0  0  0  0  0  0  0  0  0  0
    2.0851    9.1425   -2.0941 H   0  0  0  0  0  0  0  0  0  0  0  0
   -0.6659   11.7841   -0.7668 H   0  0  0  0  0  0  0  0  0  0  0  0
   -0.8988    9.3969    1.1680 H   0  0  0  0  0  0  0  0  0  0  0  0
   -1.8600   10.9410    1.2177 H   0  0  0  0  0  0  0  0  0  0  0  0
   -3.1537    9.0644    0.2561 H   0  0  0  0  0  0  0  0  0  0  0  0
   -2.8818   10.4091   -0.9197 H   0  0  0  0  0  0  0  0  0  0  0  0
   -2.5444    8.3169   -2.0492 H   0  0  0  0  0  0  0  0  0  0  0  0
   -0.8170    6.9100   -1.2360 H   0  0  0  0  0  0  0  0  0  0  0  0
   -1.6795   11.0949   -2.6280 H   0  0  0  0  0  0  0  0  0  0  0  0
   -0.3947   10.6642   -3.8072 H   0  0  0  0  0  0  0  0  0  0  0  0
   -1.9511    9.7674   -3.8072 H   0  0  0  0  0  0  0  0  0  0  0  0
    0.4692    7.3677   -2.3429 H   0  0  0  0  0  0  0  0  0  0  0  0
   -0.7328    7.6542   -3.6466 H   0  0  0  0  0  0  0  0  0  0  0  0
    0.8232    8.5516   -3.6466 H   0  0  0  0  0  0  0  0  0  0  0  0
    0.9134   11.3319    2.9205 H   0  0  0  0  0  0  0  0  0  0  0  0
    0.4592    9.8790    1.9668 H   0  0  0  0  0  0  0  0  0  0  0  0
    2.1597   10.4577    1.9668 H   0  0  0  0  0  0  0  0  0  0  0  0
   -0.9437   12.7892    1.4433 H   0  0  0  0  0  0  0  0  0  0  0  0
    0.6650   13.1929    2.2699 H   0  0  0  0  0  0  0  0  0  0  0  0
   -0.3284   14.1747   -0.4210 H   0  0  0  0  0  0  0  0  0  0  0  0
   -0.0354   15.1247    1.0883 H   0  0  0  0  0  0  0  0  0  0  0  0
    1.9420   14.5223    2.2626 H   0  0  0  0  0  0  0  0  0  0  0  0
    3.4155   13.9536    1.4070 H   0  0  0  0  0  0  0  0  0  0  0  0
    2.9946   15.6999    1.4070 H   0  0  0  0  0  0  0  0  0  0  0  0
  1  2  1  0
  2  3  1  0
  3  4  1  0
  4  5  1  0
  5  6  1  0
  6  7  1  0
  7  8  1  0
  7  9  1  0
  2 10  1  0
 10 11  1  0
 11 12  1  0
 12 13  1  0
 13 14  1  6
 13 15  1  0
 15 16  1  0
 16 17  1  0
 17 18  2  0
 18 19  1  0
 19 20  1  0
 20 21  1  0
 21 22  1  0
 22 23  1  0
 22 24  1  0
 24 25  1  0
 24 26  1  0
 19 27  1  0
 27 28  1  1
 27 29  1  0
 29 30  1  0
 30 31  1  0
 31 32  1  1
  7  5  1  0
 31 10  1  0
 31 13  1  0
 27 15  1  0
 24 18  1  0
  1 33  1  0
  1 34  1  0
  1 35  1  0
  2 36  1  1
  3 37  1  0
  3 38  1  0
  4 39  1  0
  4 40  1  0
  5 41  1  1
  8 42  1  0
  8 43  1  0
  8 44  1  0
  9 45  1  0
  9 46  1  0
  9 47  1  0
 10 48  1  6
 11 49  1  0
 11 50  1  0
 12 51  1  0
 12 52  1  0
 14 53  1  0
 14 54  1  0
 14 55  1  0
 15 56  1  1
 16 57  1  0
 16 58  1  0
 17 59  1  0
 19 60  1  6
 20 61  1  0
 20 62  1  0
 21 63  1  0
 21 64  1  0
 22 65  1  6
 23 66  1  0
 25 67  1  0
 25 68  1  0
 25 69  1  0
 26 70  1  0
 26 71  1  0
 26 72  1  0
 28 73  1  0
 28 74  1  0
 28 75  1  0
 29 76  1  0
 29 77  1  0
 30 78  1  0
 30 79  1  0
 32 80  1  0
 32 81  1  0
 32 82  1  0
M  END
>  <meeko>  (7) 
{"is_sidechain": [false], "intermolecular_energy": 2.731, "internal_energy": -0.839}

$$$$
EPH_relaxed_0001_pdb2pqr_Repair_299_r2_0001_out
     RDKit          3D

 82 86  0  0  0  0  0  0  0  0999 V2000
   -7.5380    8.0520   -2.8830 C   0  0  0  0  0  0  0  0  0  0  0  0
   -6.6720    7.4820   -1.7570 C   0  0  2  0  0  0  0  0  0  0  0  0
   -7.5160    7.0240   -0.5510 C   0  0  0  0  0  0  0  0  0  0  0  0
   -8.9890    6.7760   -0.8880 C   0  0  0  0  0  0  0  0  0  0  0  0
   -9.8990    7.3210    0.1700 C   0  0  2  0  0  0  0  0  0  0  0  0
  -10.9450    6.4290    0.5770 O   0  0  0  0  0  0  0  0  0  0  0  0
  -11.3630    7.6420   -0.0700 C   0  0  0  0  0  0  0  0  0  0  0  0
  -11.9990    7.4300   -1.4070 C   0  0  0  0  0  0  0  0  0  0  0  0
  -12.0420    8.6110    0.8470 C   0  0  0  0  0  0  0  0  0  0  0  0
   -5.6490    8.5210   -1.3120 C   0  0  1  0  0  0  0  0  0  0  0  0
   -5.8210    8.9300    0.1750 C   0  0  0  0  0  0  0  0  0  0  0  0
   -4.3990    9.1940    0.7340 C   0  0  0  0  0  0  0  0  0  0  0  0
   -3.4930    9.2550   -0.5190 C   0  0  1  0  0  0  0  0  0  0  0  0
   -3.6790   10.7000   -1.0790 C   0  0  0  0  0  0  0  0  0  0  0  0
   -1.9840    8.9110   -0.2980 C   0  0  2  0  0  0  0  0  0  0  0  0
   -1.2300    9.8620    0.6490 C   0  0  0  0  0  0  0  0  0  0  0  0
   -0.5780   11.0320   -0.0100 C   0  0  0  0  0  0  0  0  0  0  0  0
   -0.3520   11.1600   -1.3300 C   0  0  0  0  0  0  0  0  0  0  0  0
   -0.6780   10.0180   -2.3000 C   0  0  1  0  0  0  0  0  0  0  0  0
    0.5140    9.8040   -3.2700 C   0  0  0  0  0  0  0  0  0  0  0  0
    0.9170   11.0860   -3.9920 C   0  0  0  0  0  0  0  0  0  0  0  0
    1.2910   12.1800   -2.9960 C   0  0  2  0  0  0  0  0  0  0  0  0
    2.4860   11.7910   -2.3110 O   0  0  0  0  0  0  0  0  0  0  0  0
    0.1690   12.4760   -1.9610 C   0  0  0  0  0  0  0  0  0  0  0  0
   -1.0170   13.1790   -2.6670 C   0  0  0  0  0  0  0  0  0  0  0  0
    0.7260   13.4940   -0.9310 C   0  0  0  0  0  0  0  0  0  0  0  0
   -1.1730    8.6630   -1.6340 C   0  0  1  0  0  0  0  0  0  0  0  0
    0.0530    7.7780   -1.2520 C   0  0  0  0  0  0  0  0  0  0  0  0
   -2.0010    7.8410   -2.6920 C   0  0  0  0  0  0  0  0  0  0  0  0
   -3.5090    8.1420   -2.7790 C   0  0  0  0  0  0  0  0  0  0  0  0
   -4.1530    8.1250   -1.3900 C   0  0  2  0  0  0  0  0  0  0  0  0
   -4.0010    6.6770   -0.8100 C   0  0  0  0  0  0  0  0  0  0  0  0
   -8.3827    8.6080   -2.4503 H   0  0  0  0  0  0  0  0  0  0  0  0
   -6.9330    8.7290   -3.5040 H   0  0  0  0  0  0  0  0  0  0  0  0
   -7.9206    7.2286   -3.5040 H   0  0  0  0  0  0  0  0  0  0  0  0
   -6.1543    6.5960   -2.1533 H   0  0  0  0  0  0  0  0  0  0  0  0
   -7.0867    6.0889   -0.1620 H   0  0  0  0  0  0  0  0  0  0  0  0
   -7.4884    7.8384    0.1880 H   0  0  0  0  0  0  0  0  0  0  0  0
   -9.2228    7.2645   -1.8454 H   0  0  0  0  0  0  0  0  0  0  0  0
   -9.1481    5.6894   -0.9506 H   0  0  0  0  0  0  0  0  0  0  0  0
   -9.0776    7.9064    0.6088 H   0  0  0  0  0  0  0  0  0  0  0  0
  -13.0344    7.0849   -1.2699 H   0  0  0  0  0  0  0  0  0  0  0  0
  -11.9992    8.3767   -1.9672 H   0  0  0  0  0  0  0  0  0  0  0  0
  -11.4311    6.6726   -1.9672 H   0  0  0  0  0  0  0  0  0  0  0  0
  -11.8437    8.3281    1.8913 H   0  0  0  0  0  0  0  0  0  0  0  0
  -11.6551    9.6239    0.6617 H   0  0  0  0  0  0  0  0  0  0  0  0
  -13.1261    8.5931    0.6617 H   0  0  0  0  0  0  0  0  0  0  0  0
   -5.8659    9.3168   -2.0398 H   0  0  0  0  0  0  0  0  0  0  0  0
   -6.4322    9.8416    0.2488 H   0  0  0  0  0  0  0  0  0  0  0  0
   -6.3291    8.1388    0.7459 H   0  0  0  0  0  0  0  0  0  0  0  0
   -4.3680   10.1470    1.2826 H   0  0  0  0  0  0  0  0  0  0  0  0
   -4.0784    8.4169    1.4435 H   0  0  0  0  0  0  0  0  0  0  0  0
   -3.7702   11.4085   -0.2425 H   0  0  0  0  0  0  0  0  0  0  0  0
   -2.8081   10.9696   -1.6946 H   0  0  0  0  0  0  0  0  0  0  0  0
   -4.5897   10.7403   -1.6946 H   0  0  0  0  0  0  0  0  0  0  0  0
   -2.0366    7.9458    0.2270 H   0  0  0  0  0  0  0  0  0  0  0  0
   -1.9482   10.2451    1.3889 H   0  0  0  0  0  0  0  0  0  0  0  0
   -0.4161    9.2691    1.0917 H   0  0  0  0  0  0  0  0  0  0  0  0
   -0.2550   11.8596    0.6386 H   0  0  0  0  0  0  0  0  0  0  0  0
   -1.5640   10.3436   -2.8647 H   0  0  0  0  0  0  0  0  0  0  0  0
    1.3764    9.4377   -2.6937 H   0  0  0  0  0  0  0  0  0  0  0  0
    0.1983    9.0763   -4.0321 H   0  0  0  0  0  0  0  0  0  0  0  0
    1.7818   10.8778   -4.6392 H   0  0  0  0  0  0  0  0  0  0  0  0
    0.0626   11.4344   -4.5909 H   0  0  0  0  0  0  0  0  0  0  0  0
    1.4441   13.1076   -3.5671 H   0  0  0  0  0  0  0  0  0  0  0  0
    2.9340   11.1230   -2.8570 H   0  0  0  0  0  0  0  0  0  0  0  0
   -1.7044   13.5864   -1.9110 H   0  0  0  0  0  0  0  0  0  0  0  0
   -0.6365   13.9975   -3.2957 H   0  0  0  0  0  0  0  0  0  0  0  0
   -1.5524   12.4523   -3.2957 H   0  0  0  0  0  0  0  0  0  0  0  0
    0.5272   13.1306    0.0880 H   0  0  0  0  0  0  0  0  0  0  0  0
    1.8108   13.6054   -1.0754 H   0  0  0  0  0  0  0  0  0  0  0  0
    0.2349   14.4677   -1.0754 H   0  0  0  0  0  0  0  0  0  0  0  0
    0.1353    7.7186   -0.1567 H   0  0  0  0  0  0  0  0  0  0  0  0
   -0.0815    6.7674   -1.6649 H   0  0  0  0  0  0  0  0  0  0  0  0
    0.9699    8.2238   -1.6649 H   0  0  0  0  0  0  0  0  0  0  0  0
   -1.5646    8.0382   -3.6823 H   0  0  0  0  0  0  0  0  0  0  0  0
   -1.9349    6.7946   -2.3594 H   0  0  0  0  0  0  0  0  0  0  0  0
   -3.6522    9.1352   -3.2297 H   0  0  0  0  0  0  0  0  0  0  0  0
   -3.9861    7.3663   -3.3960 H   0  0  0  0  0  0  0  0  0  0  0  0
   -4.0055    6.7199    0.2892 H   0  0  0  0  0  0  0  0  0  0  0  0
   -4.8386    6.0536   -1.1560 H   0  0  0  0  0  0  0  0  0  0  0  0
   -3.0522    6.2411   -1.1560 H   0  0  0  0  0  0  0  0  0  0  0  0
  1  2  1  0
  2  3  1  0
  3  4  1  0
  4  5  1  0
  5  6  1  0
  6  7  1  0
  7  8  1  0
  7  9  1  0
  2 10  1  0
 10 11  1  0
 11 12  1  0
 12 13  1  0
 13 14  1  6
 13 15  1  0
 15 16  1  0
 16 17  1  0
 17 18  2  0
 18 19  1  0
 19 20  1  0
 20 21  1  0
 21 22  1  0
 22 23  1  0
 22 24  1  0
 24 25  1  0
 24 26  1  0
 19 27  1  0
 27 28  1  1
 27 29  1  0
 29 30  1  0
 30 31  1  0
 31 32  1  1
  7  5  1  0
 31 10  1  0
 31 13  1  0
 27 15  1  0
 24 18  1  0
  1 33  1  0
  1 34  1  0
  1 35  1  0
  2 36  1  6
  3 37  1  0
  3 38  1  0
  4 39  1  0
  4 40  1  0
  5 41  1  1
  8 42  1  0
  8 43  1  0
  8 44  1  0
  9 45  1  0
  9 46  1  0
  9 47  1  0
 10 48  1  6
 11 49  1  0
 11 50  1  0
 12 51  1  0
 12 52  1  0
 14 53  1  0
 14 54  1  0
 14 55  1  0
 15 56  1  1
 16 57  1  0
 16 58  1  0
 17 59  1  0
 19 60  1  6
 20 61  1  0
 20 62  1  0
 21 63  1  0
 21 64  1  0
 22 65  1  6
 23 66  1  0
 25 67  1  0
 25 68  1  0
 25 69  1  0
 26 70  1  0
 26 71  1  0
 26 72  1  0
 28 73  1  0
 28 74  1  0
 28 75  1  0
 29 76  1  0
 29 77  1  0
 30 78  1  0
 30 79  1  0
 32 80  1  0
 32 81  1  0
 32 82  1  0
M  END
>  <meeko>  (8) 
{"is_sidechain": [false], "intermolecular_energy": 2.731, "internal_energy": -0.839}

$$$$
EPH_relaxed_0001_pdb2pqr_Repair_299_r2_0001_out
     RDKit          3D

 82 86  0  0  0  0  0  0  0  0999 V2000
   -1.9310   14.3210    0.2580 C   0  0  0  0  0  0  0  0  0  0  0  0
   -0.5950   15.0250    0.5130 C   0  0  2  0  0  0  0  0  0  0  0  0
   -0.4550   16.3210   -0.3110 C   0  0  0  0  0  0  0  0  0  0  0  0
    0.9810   16.8470   -0.3920 C   0  0  0  0  0  0  0  0  0  0  0  0
    1.0720   18.2790    0.0410 C   0  0  2  0  0  0  0  0  0  0  0  0
    1.8630   19.1130   -0.8150 O   0  0  0  0  0  0  0  0  0  0  0  0
    2.3560   18.9270    0.5220 C   0  0  0  0  0  0  0  0  0  0  0  0
    3.6380   18.1590    0.5960 C   0  0  0  0  0  0  0  0  0  0  0  0
    2.2630   20.1540    1.3750 C   0  0  0  0  0  0  0  0  0  0  0  0
    0.5590   14.0800    0.1970 C   0  0  1  0  0  0  0  0  0  0  0  0
    0.8180   13.0540    1.3320 C   0  0  0  0  0  0  0  0  0  0  0  0
    1.2670   11.7360    0.6500 C   0  0  0  0  0  0  0  0  0  0  0  0
    1.5700   12.1380   -0.8130 C   0  0  1  0  0  0  0  0  0  0  0  0
    3.0050   12.7520   -0.7710 C   0  0  0  0  0  0  0  0  0  0  0  0
    1.4610   10.9990   -1.8790 C   0  0  2  0  0  0  0  0  0  0  0  0
    2.4450    9.8320   -1.6910 C   0  0  0  0  0  0  0  0  0  0  0  0
    3.7530    9.9810   -2.3950 C   0  0  0  0  0  0  0  0  0  0  0  0
    4.0190   10.8680   -3.3730 C   0  0  0  0  0  0  0  0  0  0  0  0
    2.9160   11.7760   -3.9330 C   0  0  1  0  0  0  0  0  0  0  0  0
    2.9750   11.7650   -5.4830 C   0  0  0  0  0  0  0  0  0  0  0  0
    4.3580   12.1270   -6.0190 C   0  0  0  0  0  0  0  0  0  0  0  0
    5.4170   11.1660   -5.4850 C   0  0  2  0  0  0  0  0  0  0  0  0
    5.1770    9.8650   -6.0300 O   0  0  0  0  0  0  0  0  0  0  0  0
    5.4460   11.0860   -3.9330 C   0  0  0  0  0  0  0  0  0  0  0  0
    5.9990   12.4110   -3.3530 C   0  0  0  0  0  0  0  0  0  0  0  0
    6.4590    9.9800   -3.5310 C   0  0  0  0  0  0  0  0  0  0  0  0
    1.4510   11.5120   -3.3760 C   0  0  1  0  0  0  0  0  0  0  0  0
    0.7520   10.4050   -4.2220 C   0  0  0  0  0  0  0  0  0  0  0  0
    0.5910   12.8180   -3.5560 C   0  0  0  0  0  0  0  0  0  0  0  0
    0.6480   13.8510   -2.4140 C   0  0  0  0  0  0  0  0  0  0  0  0
    0.4190   13.1800   -1.0560 C   0  0  2  0  0  0  0  0  0  0  0  0
   -1.0250   12.5720   -1.0610 C   0  0  0  0  0  0  0  0  0  0  0  0
   -2.4036   14.0720    1.2196 H   0  0  0  0  0  0  0  0  0  0  0  0
   -2.5932   14.9873   -0.3144 H   0  0  0  0  0  0  0  0  0  0  0  0
   -1.7558   13.3981   -0.3144 H   0  0  0  0  0  0  0  0  0  0  0  0
   -0.5661   15.3050    1.5764 H   0  0  0  0  0  0  0  0  0  0  0  0
   -0.8104   16.1228   -1.3330 H   0  0  0  0  0  0  0  0  0  0  0  0
   -1.0515   17.0920    0.1987 H   0  0  0  0  0  0  0  0  0  0  0  0
    1.6219   16.2358    0.2605 H   0  0  0  0  0  0  0  0  0  0  0  0
    1.3108   16.7838   -1.4395 H   0  0  0  0  0  0  0  0  0  0  0  0
    0.0604   18.2383    0.4712 H   0  0  0  0  0  0  0  0  0  0  0  0
    3.9082   17.9972    1.6500 H   0  0  0  0  0  0  0  0  0  0  0  0
    3.5126   17.1871    0.0962 H   0  0  0  0  0  0  0  0  0  0  0  0
    4.4357   18.7281    0.0962 H   0  0  0  0  0  0  0  0  0  0  0  0
    2.2849   19.8653    2.4362 H   0  0  0  0  0  0  0  0  0  0  0  0
    3.1135   20.8169    1.1577 H   0  0  0  0  0  0  0  0  0  0  0  0
    1.3223   20.6812    1.1577 H   0  0  0  0  0  0  0  0  0  0  0  0
    1.3627   14.8152    0.0437 H   0  0  0  0  0  0  0  0  0  0  0  0
    1.6088   13.4222    2.0022 H   0  0  0  0  0  0  0  0  0  0  0  0
   -0.0874   12.8972    1.9367 H   0  0  0  0  0  0  0  0  0  0  0  0
    2.1677   11.3340    1.1369 H   0  0  0  0  0  0  0  0  0  0  0  0
    0.5009   10.9495    0.7167 H   0  0  0  0  0  0  0  0  0  0  0  0
    3.3163   12.8852    0.2756 H   0  0  0  0  0  0  0  0  0  0  0  0
    3.7081   12.0759   -1.2795 H   0  0  0  0  0  0  0  0  0  0  0  0
    3.0015   13.7274   -1.2795 H   0  0  0  0  0  0  0  0  0  0  0  0
    0.4632   10.5822   -1.6774 H   0  0  0  0  0  0  0  0  0  0  0  0
    2.6481    9.7286   -0.6149 H   0  0  0  0  0  0  0  0  0  0  0  0
    1.9595    8.9502   -2.1344 H   0  0  0  0  0  0  0  0  0  0  0  0
    4.5687    9.3094   -2.0890 H   0  0  0  0  0  0  0  0  0  0  0  0
    3.1339   12.7868   -3.5579 H   0  0  0  0  0  0  0  0  0  0  0  0
    2.7115   10.7580   -5.8387 H   0  0  0  0  0  0  0  0  0  0  0  0
    2.2663   12.5223   -5.8494 H   0  0  0  0  0  0  0  0  0  0  0  0
    4.3440   12.0734   -7.1176 H   0  0  0  0  0  0  0  0  0  0  0  0
    4.6082   13.1456   -5.6876 H   0  0  0  0  0  0  0  0  0  0  0  0
    6.3988   11.5518   -5.7969 H   0  0  0  0  0  0  0  0  0  0  0  0
    5.5710    9.2150   -5.4250 H   0  0  0  0  0  0  0  0  0  0  0  0
    5.9803   12.3663   -2.2541 H   0  0  0  0  0  0  0  0  0  0  0  0
    7.0336   12.5581   -3.6965 H   0  0  0  0  0  0  0  0  0  0  0  0
    5.3759   13.2499   -3.6965 H   0  0  0  0  0  0  0  0  0  0  0  0
    6.5169    9.9168   -2.4343 H   0  0  0  0  0  0  0  0  0  0  0  0
    6.1266    9.0132   -3.9369 H   0  0  0  0  0  0  0  0  0  0  0  0
    7.4512   10.2265   -3.9369 H   0  0  0  0  0  0  0  0  0  0  0  0
    0.2871    9.6687   -3.5499 H   0  0  0  0  0  0  0  0  0  0  0  0
   -0.0216   10.8621   -4.8565 H   0  0  0  0  0  0  0  0  0  0  0  0
    1.4973    9.9030   -4.8565 H   0  0  0  0  0  0  0  0  0  0  0  0
    0.9334   13.3179   -4.4741 H   0  0  0  0  0  0  0  0  0  0  0  0
   -0.4534   12.4735   -3.5803 H   0  0  0  0  0  0  0  0  0  0  0  0
    1.6363   14.3340   -2.4147 H   0  0  0  0  0  0  0  0  0  0  0  0
   -0.1448   14.5963   -2.5752 H   0  0  0  0  0  0  0  0  0  0  0  0
   -1.3660   12.4284   -0.0251 H   0  0  0  0  0  0  0  0  0  0  0  0
   -1.7099   13.2581   -1.5807 H   0  0  0  0  0  0  0  0  0  0  0  0
   -1.0129   11.6026   -1.5807 H   0  0  0  0  0  0  0  0  0  0  0  0
  1  2  1  0
  2  3  1  0
  3  4  1  0
  4  5  1  0
  5  6  1  0
  6  7  1  0
  7  8  1  0
  7  9  1  0
  2 10  1  0
 10 11  1  0
 11 12  1  0
 12 13  1  0
 13 14  1  1
 13 15  1  0
 15 16  1  0
 16 17  1  0
 17 18  2  0
 18 19  1  0
 19 20  1  0
 20 21  1  0
 21 22  1  0
 22 23  1  0
 22 24  1  0
 24 25  1  0
 24 26  1  0
 19 27  1  0
 27 28  1  6
 27 29  1  0
 29 30  1  0
 30 31  1  0
 31 32  1  6
  7  5  1  0
 31 10  1  0
 31 13  1  0
 27 15  1  0
 24 18  1  0
  1 33  1  0
  1 34  1  0
  1 35  1  0
  2 36  1  1
  3 37  1  0
  3 38  1  0
  4 39  1  0
  4 40  1  0
  5 41  1  1
  8 42  1  0
  8 43  1  0
  8 44  1  0
  9 45  1  0
  9 46  1  0
  9 47  1  0
 10 48  1  6
 11 49  1  0
 11 50  1  0
 12 51  1  0
 12 52  1  0
 14 53  1  0
 14 54  1  0
 14 55  1  0
 15 56  1  1
 16 57  1  0
 16 58  1  0
 17 59  1  0
 19 60  1  1
 20 61  1  0
 20 62  1  0
 21 63  1  0
 21 64  1  0
 22 65  1  6
 23 66  1  0
 25 67  1  0
 25 68  1  0
 25 69  1  0
 26 70  1  0
 26 71  1  0
 26 72  1  0
 28 73  1  0
 28 74  1  0
 28 75  1  0
 29 76  1  0
 29 77  1  0
 30 78  1  0
 30 79  1  0
 32 80  1  0
 32 81  1  0
 32 82  1  0
M  END
>  <meeko>  (9) 
{"is_sidechain": [false], "intermolecular_energy": 2.731, "internal_energy": -0.839}

$$$$
EPH_relaxed_0001_pdb2pqr_Repair_299_r2_0001_out
     RDKit          3D

 82 86  0  0  0  0  0  0  0  0999 V2000
    3.5750   17.0230   -0.0940 C   0  0  0  0  0  0  0  0  0  0  0  0
    2.2600   16.7660   -0.8360 C   0  0  2  0  0  0  0  0  0  0  0  0
    1.0290   17.1160    0.0240 C   0  0  0  0  0  0  0  0  0  0  0  0
    0.8080   18.6210    0.1970 C   0  0  0  0  0  0  0  0  0  0  0  0
   -0.6140   18.9350    0.5520 C   0  0  2  0  0  0  0  0  0  0  0  0
   -1.5870   18.0740   -0.0550 O   0  0  0  0  0  0  0  0  0  0  0  0
   -1.6310   19.4560   -0.4470 C   0  0  0  0  0  0  0  0  0  0  0  0
   -1.2660   19.6940   -1.8790 C   0  0  0  0  0  0  0  0  0  0  0  0
   -2.8280   20.1910    0.0680 C   0  0  0  0  0  0  0  0  0  0  0  0
    2.1890   15.3090   -1.2780 C   0  0  1  0  0  0  0  0  0  0  0  0
    3.5570   14.7670   -1.7720 C   0  0  0  0  0  0  0  0  0  0  0  0
    3.6280   13.2780   -1.3480 C   0  0  0  0  0  0  0  0  0  0  0  0
    2.1840   12.9230   -0.9240 C   0  0  1  0  0  0  0  0  0  0  0  0
    1.4320   12.6370   -2.2620 C   0  0  0  0  0  0  0  0  0  0  0  0
    2.0300   11.7420    0.0880 C   0  0  2  0  0  0  0  0  0  0  0  0
    2.5240   10.3770   -0.4230 C   0  0  0  0  0  0  0  0  0  0  0  0
    1.4960    9.5460   -1.1160 C   0  0  0  0  0  0  0  0  0  0  0  0
    0.1660    9.7500   -1.0740 C   0  0  0  0  0  0  0  0  0  0  0  0
   -0.4340   10.8520   -0.1900 C   0  0  1  0  0  0  0  0  0  0  0  0
   -1.6410   10.2820    0.6000 C   0  0  0  0  0  0  0  0  0  0  0  0
   -2.6800    9.6320   -0.3080 C   0  0  0  0  0  0  0  0  0  0  0  0
   -2.0590    8.5030   -1.1280 C   0  0  2  0  0  0  0  0  0  0  0  0
   -1.6790    7.4460   -0.2420 O   0  0  0  0  0  0  0  0  0  0  0  0
   -0.8260    8.9570   -1.9590 C   0  0  0  0  0  0  0  0  0  0  0  0
   -1.2890    9.8770   -3.1160 C   0  0  0  0  0  0  0  0  0  0  0  0
   -0.2110    7.6970   -2.6260 C   0  0  0  0  0  0  0  0  0  0  0  0
    0.5930   11.6300    0.7410 C   0  0  1  0  0  0  0  0  0  0  0  0
    0.7740   10.8650    2.0880 C   0  0  0  0  0  0  0  0  0  0  0  0
   -0.0090   13.0370    1.1070 C   0  0  0  0  0  0  0  0  0  0  0  0
    0.2770   14.1920    0.1270 C   0  0  0  0  0  0  0  0  0  0  0  0
    1.7690   14.2630   -0.2140 C   0  0  2  0  0  0  0  0  0  0  0  0
    2.5480   14.5730    1.1090 C   0  0  0  0  0  0  0  0  0  0  0  0
    3.3967   16.9882    0.9909 H   0  0  0  0  0  0  0  0  0  0  0  0
    4.3086   16.2512   -0.3700 H   0  0  0  0  0  0  0  0  0  0  0  0
    3.9641   18.0142   -0.3700 H   0  0  0  0  0  0  0  0  0  0  0  0
    2.2440   17.4236   -1.7176 H   0  0  0  0  0  0  0  0  0  0  0  0
    0.1369   16.6867   -0.4553 H   0  0  0  0  0  0  0  0  0  0  0  0
    1.2077   16.6996    1.0263 H   0  0  0  0  0  0  0  0  0  0  0  0
    1.4651   18.9880    0.9992 H   0  0  0  0  0  0  0  0  0  0  0  0
    1.0398   19.1139   -0.7587 H   0  0  0  0  0  0  0  0  0  0  0  0
   -0.3116   19.2879    1.5490 H   0  0  0  0  0  0  0  0  0  0  0  0
   -0.3455   20.2942   -1.9279 H   0  0  0  0  0  0  0  0  0  0  0  0
   -1.1016   18.7290   -2.3807 H   0  0  0  0  0  0  0  0  0  0  0  0
   -2.0827   20.2337   -2.3807 H   0  0  0  0  0  0  0  0  0  0  0  0
   -2.8171   20.1843    1.1679 H   0  0  0  0  0  0  0  0  0  0  0  0
   -2.8035   21.2299   -0.2926 H   0  0  0  0  0  0  0  0  0  0  0  0
   -3.7434   19.6992   -0.2926 H   0  0  0  0  0  0  0  0  0  0  0  0
    1.4140   15.3894   -2.0544 H   0  0  0  0  0  0  0  0  0  0  0  0
    3.6255   14.8528   -2.8665 H   0  0  0  0  0  0  0  0  0  0  0  0
    4.3890   15.3411   -1.3382 H   0  0  0  0  0  0  0  0  0  0  0  0
    3.9507   12.6493   -2.1910 H   0  0  0  0  0  0  0  0  0  0  0  0
    4.3535   13.1092   -0.5386 H   0  0  0  0  0  0  0  0  0  0  0  0
    0.4247   12.2539   -2.0418 H   0  0  0  0  0  0  0  0  0  0  0  0
    1.3515   13.5673   -2.8435 H   0  0  0  0  0  0  0  0  0  0  0  0
    1.9900   11.8883   -2.8435 H   0  0  0  0  0  0  0  0  0  0  0  0
    2.7233   12.0288    0.8924 H   0  0  0  0  0  0  0  0  0  0  0  0
    3.3484   10.5563   -1.1288 H   0  0  0  0  0  0  0  0  0  0  0  0
    2.8242    9.8083    0.4694 H   0  0  0  0  0  0  0  0  0  0  0  0
    1.8558    8.6942   -1.7119 H   0  0  0  0  0  0  0  0  0  0  0  0
   -0.7763   11.6403   -0.8765 H   0  0  0  0  0  0  0  0  0  0  0  0
   -1.2726    9.5277    1.3108 H   0  0  0  0  0  0  0  0  0  0  0  0
   -2.1282   11.1218    1.1171 H   0  0  0  0  0  0  0  0  0  0  0  0
   -3.4927    9.2229    0.3102 H   0  0  0  0  0  0  0  0  0  0  0  0
   -3.0686   10.3947   -0.9988 H   0  0  0  0  0  0  0  0  0  0  0  0
   -2.8163    8.1635   -1.8499 H   0  0  0  0  0  0  0  0  0  0  0  0
   -2.1130    7.6080    0.6130 H   0  0  0  0  0  0  0  0  0  0  0  0
   -1.7468   10.7867   -2.7003 H   0  0  0  0  0  0  0  0  0  0  0  0
   -0.4222   10.1526   -3.7347 H   0  0  0  0  0  0  0  0  0  0  0  0
   -2.0268    9.3450   -3.7347 H   0  0  0  0  0  0  0  0  0  0  0  0
    0.1297    6.9991   -1.8470 H   0  0  0  0  0  0  0  0  0  0  0  0
   -0.9706    7.2057   -3.2518 H   0  0  0  0  0  0  0  0  0  0  0  0
    0.6437    7.9936   -3.2518 H   0  0  0  0  0  0  0  0  0  0  0  0
    0.6103   11.5568    2.9274 H   0  0  0  0  0  0  0  0  0  0  0  0
    0.0457   10.0425    2.1433 H   0  0  0  0  0  0  0  0  0  0  0  0
    1.7937   10.4561    2.1433 H   0  0  0  0  0  0  0  0  0  0  0  0
   -1.1008   12.9235    1.1779 H   0  0  0  0  0  0  0  0  0  0  0  0
    0.4865   13.3266    2.0454 H   0  0  0  0  0  0  0  0  0  0  0  0
   -0.2964   14.0301   -0.7976 H   0  0  0  0  0  0  0  0  0  0  0  0
   -0.0202   15.1382    0.6027 H   0  0  0  0  0  0  0  0  0  0  0  0
    1.9164   14.3217    1.9739 H   0  0  0  0  0  0  0  0  0  0  0  0
    3.4694   13.9730    1.1411 H   0  0  0  0  0  0  0  0  0  0  0  0
    2.8052   15.6420    1.1411 H   0  0  0  0  0  0  0  0  0  0  0  0
  1  2  1  0
  2  3  1  0
  3  4  1  0
  4  5  1  0
  5  6  1  0
  6  7  1  0
  7  8  1  0
  7  9  1  0
  2 10  1  0
 10 11  1  0
 11 12  1  0
 12 13  1  0
 13 14  1  6
 13 15  1  0
 15 16  1  0
 16 17  1  0
 17 18  2  0
 18 19  1  0
 19 20  1  0
 20 21  1  0
 21 22  1  0
 22 23  1  0
 22 24  1  0
 24 25  1  0
 24 26  1  0
 19 27  1  0
 27 28  1  1
 27 29  1  0
 29 30  1  0
 30 31  1  0
 31 32  1  1
  7  5  1  0
 31 10  1  0
 31 13  1  0
 27 15  1  0
 24 18  1  0
  1 33  1  0
  1 34  1  0
  1 35  1  0
  2 36  1  6
  3 37  1  0
  3 38  1  0
  4 39  1  0
  4 40  1  0
  5 41  1  1
  8 42  1  0
  8 43  1  0
  8 44  1  0
  9 45  1  0
  9 46  1  0
  9 47  1  0
 10 48  1  6
 11 49  1  0
 11 50  1  0
 12 51  1  0
 12 52  1  0
 14 53  1  0
 14 54  1  0
 14 55  1  0
 15 56  1  1
 16 57  1  0
 16 58  1  0
 17 59  1  0
 19 60  1  6
 20 61  1  0
 20 62  1  0
 21 63  1  0
 21 64  1  0
 22 65  1  6
 23 66  1  0
 25 67  1  0
 25 68  1  0
 25 69  1  0
 26 70  1  0
 26 71  1  0
 26 72  1  0
 28 73  1  0
 28 74  1  0
 28 75  1  0
 29 76  1  0
 29 77  1  0
 30 78  1  0
 30 79  1  0
 32 80  1  0
 32 81  1  0
 32 82  1  0
M  END
>  <meeko>  (10) 
{"is_sidechain": [false], "intermolecular_energy": 2.731, "internal_energy": -0.839}

$$$$
EPH_relaxed_0001_pdb2pqr_Repair_299_r2_0001_out
     RDKit          3D

 82 86  0  0  0  0  0  0  0  0999 V2000
    0.2170    9.5620   -4.2100 C   0  0  0  0  0  0  0  0  0  0  0  0
    1.1060   10.8090   -4.1950 C   0  0  2  0  0  0  0  0  0  0  0  0
    2.4980   10.5230   -3.5950 C   0  0  0  0  0  0  0  0  0  0  0  0
    3.6550   11.0540   -4.4450 C   0  0  0  0  0  0  0  0  0  0  0  0
    4.9500   11.0360   -3.6900 C   0  0  2  0  0  0  0  0  0  0  0  0
    5.7900   12.1760   -3.9160 O   0  0  0  0  0  0  0  0  0  0  0  0
    6.3060   10.9100   -4.3590 C   0  0  0  0  0  0  0  0  0  0  0  0
    6.4350   10.7920   -5.8450 C   0  0  0  0  0  0  0  0  0  0  0  0
    7.4610   10.4120   -3.5470 C   0  0  0  0  0  0  0  0  0  0  0  0
    0.4220   11.9250   -3.4150 C   0  0  1  0  0  0  0  0  0  0  0  0
   -0.9140   11.4710   -2.7690 C   0  0  0  0  0  0  0  0  0  0  0  0
   -1.0370   12.2240   -1.4190 C   0  0  0  0  0  0  0  0  0  0  0  0
    0.0500   13.3230   -1.4860 C   0  0  1  0  0  0  0  0  0  0  0  0
   -0.5910   14.4700   -2.3290 C   0  0  0  0  0  0  0  0  0  0  0  0
    0.5880   13.8460   -0.1140 C   0  0  2  0  0  0  0  0  0  0  0  0
   -0.4610   14.5310    0.7800 C   0  0  0  0  0  0  0  0  0  0  0  0
   -0.5950   16.0060    0.5890 C   0  0  0  0  0  0  0  0  0  0  0  0
    0.2850   16.7950   -0.0540 C   0  0  0  0  0  0  0  0  0  0  0  0
    1.6080   16.2290   -0.5870 C   0  0  1  0  0  0  0  0  0  0  0  0
    2.7720   17.1770   -0.1960 C   0  0  0  0  0  0  0  0  0  0  0  0
    2.5300   18.6150   -0.6440 C   0  0  0  0  0  0  0  0  0  0  0  0
    1.2360   19.1630   -0.0470 C   0  0  2  0  0  0  0  0  0  0  0  0
    1.3940   19.2750    1.3710 O   0  0  0  0  0  0  0  0  0  0  0  0
   -0.0060   18.2840   -0.3660 C   0  0  0  0  0  0  0  0  0  0  0  0
   -0.3560   18.4050   -1.8700 C   0  0  0  0  0  0  0  0  0  0  0  0
   -1.2160   18.8680    0.4100 C   0  0  0  0  0  0  0  0  0  0  0  0
    1.9080   14.7110   -0.2230 C   0  0  1  0  0  0  0  0  0  0  0  0
    2.6130   14.6260    1.1650 C   0  0  0  0  0  0  0  0  0  0  0  0
    2.9240   14.1230   -1.2730 C   0  0  0  0  0  0  0  0  0  0  0  0
    2.3240   13.5130   -2.5540 C   0  0  0  0  0  0  0  0  0  0  0  0
    1.1950   12.5330   -2.2180 C   0  0  2  0  0  0  0  0  0  0  0  0
    1.8130   11.3570   -1.3880 C   0  0  0  0  0  0  0  0  0  0  0  0
   -0.0017    9.2552   -3.1765 H   0  0  0  0  0  0  0  0  0  0  0  0
   -0.7242    9.7890   -4.7321 H   0  0  0  0  0  0  0  0  0  0  0  0
    0.7384    8.7462   -4.7321 H   0  0  0  0  0  0  0  0  0  0  0  0
    1.2548   11.1221   -5.2390 H   0  0  0  0  0  0  0  0  0  0  0  0
    2.5517   10.9938   -2.6023 H   0  0  0  0  0  0  0  0  0  0  0  0
    2.6092    9.4297   -3.5474 H   0  0  0  0  0  0  0  0  0  0  0  0
    3.7563   10.4255   -5.3421 H   0  0  0  0  0  0  0  0  0  0  0  0
    3.4309   12.0959   -4.7176 H   0  0  0  0  0  0  0  0  0  0  0  0
    4.4847   10.4888   -2.8569 H   0  0  0  0  0  0  0  0  0  0  0  0
    7.2266   10.0679   -6.0880 H   0  0  0  0  0  0  0  0  0  0  0  0
    5.4804   10.4480   -6.2697 H   0  0  0  0  0  0  0  0  0  0  0  0
    6.6928   11.7734   -6.2697 H   0  0  0  0  0  0  0  0  0  0  0  0
    7.2273   10.5127   -2.4768 H   0  0  0  0  0  0  0  0  0  0  0  0
    7.6465    9.3539   -3.7838 H   0  0  0  0  0  0  0  0  0  0  0  0
    8.3577   11.0034   -3.7838 H   0  0  0  0  0  0  0  0  0  0  0  0
    0.3192   12.6727   -4.2153 H   0  0  0  0  0  0  0  0  0  0  0  0
   -1.7587   11.7288   -3.4248 H   0  0  0  0  0  0  0  0  0  0  0  0
   -0.9287   10.3817   -2.6164 H   0  0  0  0  0  0  0  0  0  0  0  0
   -2.0362   12.6717   -1.3135 H   0  0  0  0  0  0  0  0  0  0  0  0
   -0.9034   11.5566   -0.5549 H   0  0  0  0  0  0  0  0  0  0  0  0
   -1.0148   15.2283   -1.6541 H   0  0  0  0  0  0  0  0  0  0  0  0
    0.1791   14.9331   -2.9634 H   0  0  0  0  0  0  0  0  0  0  0  0
   -1.3890   14.0568   -2.9634 H   0  0  0  0  0  0  0  0  0  0  0  0
    0.8590   12.9142    0.4039 H   0  0  0  0  0  0  0  0  0  0  0  0
   -1.4382   14.0709    0.5715 H   0  0  0  0  0  0  0  0  0  0  0  0
   -0.1192   14.3876    1.8157 H   0  0  0  0  0  0  0  0  0  0  0  0
   -1.4894   16.4886    1.0099 H   0  0  0  0  0  0  0  0  0  0  0  0
    1.5063   16.1960   -1.6818 H   0  0  0  0  0  0  0  0  0  0  0  0
    2.8862   17.1628    0.8980 H   0  0  0  0  0  0  0  0  0  0  0  0
    3.6801   16.8176   -0.7022 H   0  0  0  0  0  0  0  0  0  0  0  0
    3.3720   19.2412   -0.3140 H   0  0  0  0  0  0  0  0  0  0  0  0
    2.4447   18.6311   -1.7406 H   0  0  0  0  0  0  0  0  0  0  0  0
    1.0513   20.1457   -0.5054 H   0  0  0  0  0  0  0  0  0  0  0  0
    2.3200   19.5150    1.5450 H   0  0  0  0  0  0  0  0  0  0  0  0
   -1.3906   18.7627   -1.9781 H   0  0  0  0  0  0  0  0  0  0  0  0
    0.3305   19.1180   -2.3500 H   0  0  0  0  0  0  0  0  0  0  0  0
   -0.2564   17.4203   -2.3500 H   0  0  0  0  0  0  0  0  0  0  0  0
   -1.0348   18.7806    1.4914 H   0  0  0  0  0  0  0  0  0  0  0  0
   -1.3451   19.9276    0.1444 H   0  0  0  0  0  0  0  0  0  0  0  0
   -2.1259   18.3099    0.1444 H   0  0  0  0  0  0  0  0  0  0  0  0
    1.8622   14.7165    1.9638 H   0  0  0  0  0  0  0  0  0  0  0  0
    3.1296   13.6591    1.2553 H   0  0  0  0  0  0  0  0  0  0  0  0
    3.3446   15.4424    1.2553 H   0  0  0  0  0  0  0  0  0  0  0  0
    3.5978   14.9378   -1.5764 H   0  0  0  0  0  0  0  0  0  0  0  0
    3.4167   13.2848   -0.7585 H   0  0  0  0  0  0  0  0  0  0  0  0
    1.9236   14.3210   -3.1839 H   0  0  0  0  0  0  0  0  0  0  0  0
    3.1162   12.9663   -3.0865 H   0  0  0  0  0  0  0  0  0  0  0  0
    1.7020   11.5682   -0.3142 H   0  0  0  0  0  0  0  0  0  0  0  0
    1.2904   10.4207   -1.6335 H   0  0  0  0  0  0  0  0  0  0  0  0
    2.8805   11.2563   -1.6335 H   0  0  0  0  0  0  0  0  0  0  0  0
  1  2  1  0
  2  3  1  0
  3  4  1  0
  4  5  1  0
  5  6  1  0
  6  7  1  0
  7  8  1  0
  7  9  1  0
  2 10  1  0
 10 11  1  0
 11 12  1  0
 12 13  1  0
 13 14  1  6
 13 15  1  0
 15 16  1  0
 16 17  1  0
 17 18  2  0
 18 19  1  0
 19 20  1  0
 20 21  1  0
 21 22  1  0
 22 23  1  0
 22 24  1  0
 24 25  1  0
 24 26  1  0
 19 27  1  0
 27 28  1  1
 27 29  1  0
 29 30  1  0
 30 31  1  0
 31 32  1  1
  7  5  1  0
 31 10  1  0
 31 13  1  0
 27 15  1  0
 24 18  1  0
  1 33  1  0
  1 34  1  0
  1 35  1  0
  2 36  1  6
  3 37  1  0
  3 38  1  0
  4 39  1  0
  4 40  1  0
  5 41  1  1
  8 42  1  0
  8 43  1  0
  8 44  1  0
  9 45  1  0
  9 46  1  0
  9 47  1  0
 10 48  1  6
 11 49  1  0
 11 50  1  0
 12 51  1  0
 12 52  1  0
 14 53  1  0
 14 54  1  0
 14 55  1  0
 15 56  1  1
 16 57  1  0
 16 58  1  0
 17 59  1  0
 19 60  1  6
 20 61  1  0
 20 62  1  0
 21 63  1  0
 21 64  1  0
 22 65  1  6
 23 66  1  0
 25 67  1  0
 25 68  1  0
 25 69  1  0
 26 70  1  0
 26 71  1  0
 26 72  1  0
 28 73  1  0
 28 74  1  0
 28 75  1  0
 29 76  1  0
 29 77  1  0
 30 78  1  0
 30 79  1  0
 32 80  1  0
 32 81  1  0
 32 82  1  0
M  END
>  <meeko>  (11) 
{"is_sidechain": [false], "intermolecular_energy": 2.731, "internal_energy": -0.839}

$$$$
EPH_relaxed_0001_pdb2pqr_Repair_299_r2_0001_out
     RDKit          3D

 82 86  0  0  0  0  0  0  0  0999 V2000
  -15.0200    9.2450    0.7710 C   0  0  0  0  0  0  0  0  0  0  0  0
  -14.1300    9.3000   -0.4740 C   0  0  2  0  0  0  0  0  0  0  0  0
  -14.5500    8.2640   -1.5350 C   0  0  0  0  0  0  0  0  0  0  0  0
  -14.6110    8.8280   -2.9570 C   0  0  0  0  0  0  0  0  0  0  0  0
  -15.2860   10.1660   -2.9950 C   0  0  2  0  0  0  0  0  0  0  0  0
  -15.0060   10.9450   -4.1650 O   0  0  0  0  0  0  0  0  0  0  0  0
  -14.5370   11.4830   -2.9180 C   0  0  0  0  0  0  0  0  0  0  0  0
  -13.0460   11.5270   -2.7960 C   0  0  0  0  0  0  0  0  0  0  0  0
  -15.2800   12.7030   -2.4700 C   0  0  0  0  0  0  0  0  0  0  0  0
  -12.6740    9.0830   -0.0820 C   0  0  1  0  0  0  0  0  0  0  0  0
  -12.4830    8.9410    1.4520 C   0  0  0  0  0  0  0  0  0  0  0  0
  -11.3350    7.9210    1.6670 C   0  0  0  0  0  0  0  0  0  0  0  0
  -10.6860    7.7640    0.2720 C   0  0  1  0  0  0  0  0  0  0  0  0
   -9.7360    8.9940    0.1310 C   0  0  0  0  0  0  0  0  0  0  0  0
   -9.9330    6.4200    0.0080 C   0  0  2  0  0  0  0  0  0  0  0  0
   -8.7210    6.1610    0.9200 C   0  0  0  0  0  0  0  0  0  0  0  0
   -7.4150    6.6680    0.4050 C   0  0  0  0  0  0  0  0  0  0  0  0
   -7.1700    7.0510   -0.8620 C   0  0  0  0  0  0  0  0  0  0  0  0
   -8.2390    6.9010   -1.9510 C   0  0  1  0  0  0  0  0  0  0  0  0
   -7.6010    6.2740   -3.2190 C   0  0  0  0  0  0  0  0  0  0  0  0
   -6.3790    7.0480   -3.7040 C   0  0  0  0  0  0  0  0  0  0  0  0
   -5.3150    7.1260   -2.6120 C   0  0  2  0  0  0  0  0  0  0  0  0
   -4.8050    5.8110   -2.3710 O   0  0  0  0  0  0  0  0  0  0  0  0
   -5.8440    7.7330   -1.2830 C   0  0  0  0  0  0  0  0  0  0  0  0
   -6.1150    9.2460   -1.4730 C   0  0  0  0  0  0  0  0  0  0  0  0
   -4.7130    7.6240   -0.2240 C   0  0  0  0  0  0  0  0  0  0  0  0
   -9.5770    6.1640   -1.5130 C   0  0  1  0  0  0  0  0  0  0  0  0
   -9.4140    4.6220   -1.6790 C   0  0  0  0  0  0  0  0  0  0  0  0
  -10.7420    6.5950   -2.4800 C   0  0  0  0  0  0  0  0  0  0  0  0
  -11.5260    7.8650   -2.1010 C   0  0  0  0  0  0  0  0  0  0  0  0
  -11.9690    7.8190   -0.6350 C   0  0  2  0  0  0  0  0  0  0  0  0
  -12.9440    6.6040   -0.4680 C   0  0  0  0  0  0  0  0  0  0  0  0
  -14.3916    9.2838    1.6730 H   0  0  0  0  0  0  0  0  0  0  0  0
  -15.7093   10.1023    0.7672 H   0  0  0  0  0  0  0  0  0  0  0  0
  -15.5985    8.3094    0.7672 H   0  0  0  0  0  0  0  0  0  0  0  0
  -14.2497   10.2975   -0.9219 H   0  0  0  0  0  0  0  0  0  0  0  0
  -13.8238    7.4380   -1.5201 H   0  0  0  0  0  0  0  0  0  0  0  0
  -15.5670    7.9341   -1.2766 H   0  0  0  0  0  0  0  0  0  0  0  0
  -13.5862    8.9348   -3.3423 H   0  0  0  0  0  0  0  0  0  0  0  0
  -15.1950    8.1319   -3.5769 H   0  0  0  0  0  0  0  0  0  0  0  0
  -16.1477    9.7734   -2.4352 H   0  0  0  0  0  0  0  0  0  0  0  0
  -12.7652   11.5353   -1.7325 H   0  0  0  0  0  0  0  0  0  0  0  0
  -12.6120   10.6413   -3.2829 H   0  0  0  0  0  0  0  0  0  0  0  0
  -12.6650   12.4368   -3.2829 H   0  0  0  0  0  0  0  0  0  0  0  0
  -15.3005   12.7367   -1.3707 H   0  0  0  0  0  0  0  0  0  0  0  0
  -14.7756   13.6015   -2.8551 H   0  0  0  0  0  0  0  0  0  0  0  0
  -16.3098   12.6672   -2.8551 H   0  0  0  0  0  0  0  0  0  0  0  0
  -12.2279    9.9863   -0.5236 H   0  0  0  0  0  0  0  0  0  0  0  0
  -12.2138    9.9126    1.8918 H   0  0  0  0  0  0  0  0  0  0  0  0
  -13.4102    8.6000    1.9357 H   0  0  0  0  0  0  0  0  0  0  0  0
  -10.6047    8.3059    2.3939 H   0  0  0  0  0  0  0  0  0  0  0  0
  -11.6978    6.9633    2.0684 H   0  0  0  0  0  0  0  0  0  0  0  0
   -9.4555    9.3572    1.1307 H   0  0  0  0  0  0  0  0  0  0  0  0
   -8.8306    8.6969   -0.4186 H   0  0  0  0  0  0  0  0  0  0  0  0
  -10.2522    9.7949   -0.4186 H   0  0  0  0  0  0  0  0  0  0  0  0
  -10.6854    5.6689    0.2905 H   0  0  0  0  0  0  0  0  0  0  0  0
   -8.9151    6.6447    1.8887 H   0  0  0  0  0  0  0  0  0  0  0  0
   -8.6181    5.0678    0.9859 H   0  0  0  0  0  0  0  0  0  0  0  0
   -6.5827    6.7342    1.1211 H   0  0  0  0  0  0  0  0  0  0  0  0
   -8.5911    7.9190   -2.1740 H   0  0  0  0  0  0  0  0  0  0  0  0
   -7.2959    5.2430   -2.9869 H   0  0  0  0  0  0  0  0  0  0  0  0
   -8.3539    6.3033   -4.0204 H   0  0  0  0  0  0  0  0  0  0  0  0
   -5.9563    6.5396   -4.5831 H   0  0  0  0  0  0  0  0  0  0  0  0
   -6.6910    8.0702   -3.9644 H   0  0  0  0  0  0  0  0  0  0  0  0
   -4.5230    7.7999   -2.9707 H   0  0  0  0  0  0  0  0  0  0  0  0
   -5.5400    5.2660   -2.0420 H   0  0  0  0  0  0  0  0  0  0  0  0
   -6.2016    9.7294   -0.4887 H   0  0  0  0  0  0  0  0  0  0  0  0
   -5.2839    9.6999   -2.0326 H   0  0  0  0  0  0  0  0  0  0  0  0
   -7.0520    9.3832   -2.0326 H   0  0  0  0  0  0  0  0  0  0  0  0
   -5.1498    7.6661    0.7847 H   0  0  0  0  0  0  0  0  0  0  0  0
   -4.1802    6.6704   -0.3533 H   0  0  0  0  0  0  0  0  0  0  0  0
   -4.0079    8.4584   -0.3533 H   0  0  0  0  0  0  0  0  0  0  0  0
   -9.3641    4.1497   -0.6868 H   0  0  0  0  0  0  0  0  0  0  0  0
  -10.2746    4.2199   -2.2336 H   0  0  0  0  0  0  0  0  0  0  0  0
   -8.4883    4.4087   -2.2336 H   0  0  0  0  0  0  0  0  0  0  0  0
  -10.3042    6.7591   -3.4757 H   0  0  0  0  0  0  0  0  0  0  0  0
  -11.4762    5.7776   -2.4277 H   0  0  0  0  0  0  0  0  0  0  0  0
  -10.8831    8.7442   -2.2552 H   0  0  0  0  0  0  0  0  0  0  0  0
  -12.4218    7.9268   -2.7363 H   0  0  0  0  0  0  0  0  0  0  0  0
  -13.1030    6.4059    0.6023 H   0  0  0  0  0  0  0  0  0  0  0  0
  -13.9073    6.8387   -0.9445 H   0  0  0  0  0  0  0  0  0  0  0  0
  -12.5063    5.7144   -0.9445 H   0  0  0  0  0  0  0  0  0  0  0  0
  1  2  1  0
  2  3  1  0
  3  4  1  0
  4  5  1  0
  5  6  1  0
  6  7  1  0
  7  8  1  0
  7  9  1  0
  2 10  1  0
 10 11  1  0
 11 12  1  0
 12 13  1  0
 13 14  1  6
 13 15  1  0
 15 16  1  0
 16 17  1  0
 17 18  2  0
 18 19  1  0
 19 20  1  0
 20 21  1  0
 21 22  1  0
 22 23  1  0
 22 24  1  0
 24 25  1  0
 24 26  1  0
 19 27  1  0
 27 28  1  1
 27 29  1  0
 29 30  1  0
 30 31  1  0
 31 32  1  6
  7  5  1  0
 31 10  1  0
 31 13  1  0
 27 15  1  0
 24 18  1  0
  1 33  1  0
  1 34  1  0
  1 35  1  0
  2 36  1  6
  3 37  1  0
  3 38  1  0
  4 39  1  0
  4 40  1  0
  5 41  1  1
  8 42  1  0
  8 43  1  0
  8 44  1  0
  9 45  1  0
  9 46  1  0
  9 47  1  0
 10 48  1  6
 11 49  1  0
 11 50  1  0
 12 51  1  0
 12 52  1  0
 14 53  1  0
 14 54  1  0
 14 55  1  0
 15 56  1  1
 16 57  1  0
 16 58  1  0
 17 59  1  0
 19 60  1  6
 20 61  1  0
 20 62  1  0
 21 63  1  0
 21 64  1  0
 22 65  1  6
 23 66  1  0
 25 67  1  0
 25 68  1  0
 25 69  1  0
 26 70  1  0
 26 71  1  0
 26 72  1  0
 28 73  1  0
 28 74  1  0
 28 75  1  0
 29 76  1  0
 29 77  1  0
 30 78  1  0
 30 79  1  0
 32 80  1  0
 32 81  1  0
 32 82  1  0
M  END
>  <meeko>  (12) 
{"is_sidechain": [false], "intermolecular_energy": 2.731, "internal_energy": -0.839}

$$$$
EPH_relaxed_0001_pdb2pqr_Repair_299_r2_0001_out
     RDKit          3D

 82 86  0  0  0  0  0  0  0  0999 V2000
  -14.0780    9.7510    0.8300 C   0  0  0  0  0  0  0  0  0  0  0  0
  -13.4000    9.2900   -0.4630 C   0  0  2  0  0  0  0  0  0  0  0  0
  -14.3020    8.3510   -1.2890 C   0  0  0  0  0  0  0  0  0  0  0  0
  -14.5450    8.8340   -2.7210 C   0  0  0  0  0  0  0  0  0  0  0  0
  -15.2600   10.1520   -2.7480 C   0  0  2  0  0  0  0  0  0  0  0  0
  -15.0890   10.9010   -3.9580 O   0  0  0  0  0  0  0  0  0  0  0  0
  -14.5450   11.4900   -2.7670 C   0  0  0  0  0  0  0  0  0  0  0  0
  -13.0510   11.5780   -2.7580 C   0  0  0  0  0  0  0  0  0  0  0  0
  -15.2880   12.7040   -2.3010 C   0  0  0  0  0  0  0  0  0  0  0  0
  -12.0830    8.5950   -0.1390 C   0  0  1  0  0  0  0  0  0  0  0  0
  -12.2380    7.4930    0.9420 C   0  0  0  0  0  0  0  0  0  0  0  0
  -11.2430    6.3620    0.5750 C   0  0  0  0  0  0  0  0  0  0  0  0
  -10.3220    6.9870   -0.4990 C   0  0  1  0  0  0  0  0  0  0  0  0
   -9.2750    7.8200    0.3050 C   0  0  0  0  0  0  0  0  0  0  0  0
   -9.6320    5.9870   -1.4830 C   0  0  2  0  0  0  0  0  0  0  0  0
   -8.6680    4.9850   -0.8260 C   0  0  0  0  0  0  0  0  0  0  0  0
   -7.2470    5.4340   -0.7300 C   0  0  0  0  0  0  0  0  0  0  0  0
   -6.7070    6.4660   -1.4040 C   0  0  0  0  0  0  0  0  0  0  0  0
   -7.5240    7.2420   -2.4450 C   0  0  1  0  0  0  0  0  0  0  0  0
   -6.6770    7.4340   -3.7300 C   0  0  0  0  0  0  0  0  0  0  0  0
   -5.3250    8.0820   -3.4490 C   0  0  0  0  0  0  0  0  0  0  0  0
   -4.5180    7.2510   -2.4540 C   0  0  2  0  0  0  0  0  0  0  0  0
   -4.1720    6.0060   -3.0690 O   0  0  0  0  0  0  0  0  0  0  0  0
   -5.2750    6.9850   -1.1230 C   0  0  0  0  0  0  0  0  0  0  0  0
   -5.3840    8.3010   -0.3140 C   0  0  0  0  0  0  0  0  0  0  0  0
   -4.4100    6.0200   -0.2680 C   0  0  0  0  0  0  0  0  0  0  0  0
   -8.9760    6.6730   -2.7500 C   0  0  1  0  0  0  0  0  0  0  0  0
   -8.8970    5.5790   -3.8580 C   0  0  0  0  0  0  0  0  0  0  0  0
   -9.8700    7.8310   -3.3330 C   0  0  0  0  0  0  0  0  0  0  0  0
  -10.6210    8.7090   -2.3140 C   0  0  0  0  0  0  0  0  0  0  0  0
  -11.3710    7.8470   -1.2940 C   0  0  2  0  0  0  0  0  0  0  0  0
  -12.4470    7.0140   -2.0710 C   0  0  0  0  0  0  0  0  0  0  0  0
  -13.5161    9.3689    1.6950 H   0  0  0  0  0  0  0  0  0  0  0  0
  -14.0975   10.8504    0.8620 H   0  0  0  0  0  0  0  0  0  0  0  0
  -15.1075    9.3649    0.8620 H   0  0  0  0  0  0  0  0  0  0  0  0
  -13.2084   10.1846   -1.0737 H   0  0  0  0  0  0  0  0  0  0  0  0
  -13.8249    7.3608   -1.3327 H   0  0  0  0  0  0  0  0  0  0  0  0
  -15.2811    8.3233   -0.7885 H   0  0  0  0  0  0  0  0  0  0  0  0
  -13.5758    8.9437   -3.2295 H   0  0  0  0  0  0  0  0  0  0  0  0
  -15.1759    8.0911   -3.2310 H   0  0  0  0  0  0  0  0  0  0  0  0
  -16.0666    9.7548   -2.1142 H   0  0  0  0  0  0  0  0  0  0  0  0
  -12.6912   11.5992   -1.7187 H   0  0  0  0  0  0  0  0  0  0  0  0
  -12.6290   10.7032   -3.2743 H   0  0  0  0  0  0  0  0  0  0  0  0
  -12.7347   12.4963   -3.2743 H   0  0  0  0  0  0  0  0  0  0  0  0
  -15.3015   12.7260   -1.2013 H   0  0  0  0  0  0  0  0  0  0  0  0
  -14.7881   13.6077   -2.6797 H   0  0  0  0  0  0  0  0  0  0  0  0
  -16.3202   12.6700   -2.6797 H   0  0  0  0  0  0  0  0  0  0  0  0
  -11.4866    9.4662    0.1699 H   0  0  0  0  0  0  0  0  0  0  0  0
  -11.9984    7.9005    1.9352 H   0  0  0  0  0  0  0  0  0  0  0  0
  -13.2705    7.1149    0.9749 H   0  0  0  0  0  0  0  0  0  0  0  0
  -10.6601    6.0563    1.4564 H   0  0  0  0  0  0  0  0  0  0  0  0
  -11.7539    5.4580    0.2120 H   0  0  0  0  0  0  0  0  0  0  0  0
   -9.4471    7.6831    1.3828 H   0  0  0  0  0  0  0  0  0  0  0  0
   -8.2609    7.4791    0.0494 H   0  0  0  0  0  0  0  0  0  0  0  0
   -9.3792    8.8848    0.0494 H   0  0  0  0  0  0  0  0  0  0  0  0
  -10.4817    5.3902   -1.8460 H   0  0  0  0  0  0  0  0  0  0  0  0
   -9.0301    4.7835    0.1930 H   0  0  0  0  0  0  0  0  0  0  0  0
   -8.6628    4.0976   -1.4761 H   0  0  0  0  0  0  0  0  0  0  0  0
   -6.5864    4.8743   -0.0515 H   0  0  0  0  0  0  0  0  0  0  0  0
   -7.7421    8.2208   -1.9929 H   0  0  0  0  0  0  0  0  0  0  0  0
   -6.5071    6.4496   -4.1905 H   0  0  0  0  0  0  0  0  0  0  0  0
   -7.2352    8.1041   -4.4003 H   0  0  0  0  0  0  0  0  0  0  0  0
   -4.7620    8.1630   -4.3905 H   0  0  0  0  0  0  0  0  0  0  0  0
   -5.4964    9.0788   -3.0164 H   0  0  0  0  0  0  0  0  0  0  0  0
   -3.6189    7.8284   -2.1927 H   0  0  0  0  0  0  0  0  0  0  0  0
   -4.9220    5.7320   -3.6220 H   0  0  0  0  0  0  0  0  0  0  0  0
   -5.3651    8.0727    0.7619 H   0  0  0  0  0  0  0  0  0  0  0  0
   -4.5371    8.9567   -0.5646 H   0  0  0  0  0  0  0  0  0  0  0  0
   -6.3272    8.8084   -0.5646 H   0  0  0  0  0  0  0  0  0  0  0  0
   -4.5869    6.2174    0.7996 H   0  0  0  0  0  0  0  0  0  0  0  0
   -4.6839    4.9800   -0.4989 H   0  0  0  0  0  0  0  0  0  0  0  0
   -3.3463    6.1789   -0.4989 H   0  0  0  0  0  0  0  0  0  0  0  0
   -8.8253    4.5866   -3.3890 H   0  0  0  0  0  0  0  0  0  0  0  0
   -9.8008    5.6246   -4.4834 H   0  0  0  0  0  0  0  0  0  0  0  0
   -8.0092    5.7540   -4.4834 H   0  0  0  0  0  0  0  0  0  0  0  0
   -9.2169    8.4907   -3.9231 H   0  0  0  0  0  0  0  0  0  0  0  0
  -10.6567    7.3240   -3.9110 H   0  0  0  0  0  0  0  0  0  0  0  0
   -9.8965    9.3448   -1.7841 H   0  0  0  0  0  0  0  0  0  0  0  0
  -11.3523    9.3269   -2.8557 H   0  0  0  0  0  0  0  0  0  0  0  0
  -13.1054    6.5043   -1.3522 H   0  0  0  0  0  0  0  0  0  0  0  0
  -13.0453    7.6867   -2.7031 H   0  0  0  0  0  0  0  0  0  0  0  0
  -11.9457    6.2663   -2.7031 H   0  0  0  0  0  0  0  0  0  0  0  0
  1  2  1  0
  2  3  1  0
  3  4  1  0
  4  5  1  0
  5  6  1  0
  6  7  1  0
  7  8  1  0
  7  9  1  0
  2 10  1  0
 10 11  1  0
 11 12  1  0
 12 13  1  0
 13 14  1  1
 13 15  1  0
 15 16  1  0
 16 17  1  0
 17 18  2  0
 18 19  1  0
 19 20  1  0
 20 21  1  0
 21 22  1  0
 22 23  1  0
 22 24  1  0
 24 25  1  0
 24 26  1  0
 19 27  1  0
 27 28  1  6
 27 29  1  0
 29 30  1  0
 30 31  1  0
 31 32  1  6
  7  5  1  0
 31 10  1  0
 31 13  1  0
 27 15  1  0
 24 18  1  0
  1 33  1  0
  1 34  1  0
  1 35  1  0
  2 36  1  6
  3 37  1  0
  3 38  1  0
  4 39  1  0
  4 40  1  0
  5 41  1  1
  8 42  1  0
  8 43  1  0
  8 44  1  0
  9 45  1  0
  9 46  1  0
  9 47  1  0
 10 48  1  1
 11 49  1  0
 11 50  1  0
 12 51  1  0
 12 52  1  0
 14 53  1  0
 14 54  1  0
 14 55  1  0
 15 56  1  6
 16 57  1  0
 16 58  1  0
 17 59  1  0
 19 60  1  1
 20 61  1  0
 20 62  1  0
 21 63  1  0
 21 64  1  0
 22 65  1  1
 23 66  1  0
 25 67  1  0
 25 68  1  0
 25 69  1  0
 26 70  1  0
 26 71  1  0
 26 72  1  0
 28 73  1  0
 28 74  1  0
 28 75  1  0
 29 76  1  0
 29 77  1  0
 30 78  1  0
 30 79  1  0
 32 80  1  0
 32 81  1  0
 32 82  1  0
M  END
>  <meeko>  (13) 
{"is_sidechain": [false], "intermolecular_energy": 2.731, "internal_energy": -0.839}

$$$$
EPH_relaxed_0001_pdb2pqr_Repair_299_r2_0001_out
     RDKit          3D

 82 86  0  0  0  0  0  0  0  0999 V2000
  -12.7500   10.5220   -2.1820 C   0  0  0  0  0  0  0  0  0  0  0  0
  -12.9420    9.3770   -1.1830 C   0  0  2  0  0  0  0  0  0  0  0  0
  -13.8060    9.7970    0.0220 C   0  0  0  0  0  0  0  0  0  0  0  0
  -15.1340    9.0410    0.1210 C   0  0  0  0  0  0  0  0  0  0  0  0
  -14.9650    7.7060    0.7800 C   0  0  2  0  0  0  0  0  0  0  0  0
  -13.7470    7.0250    0.4500 O   0  0  0  0  0  0  0  0  0  0  0  0
  -14.9630    6.3920    0.0210 C   0  0  0  0  0  0  0  0  0  0  0  0
  -15.1360    6.3500   -1.4650 C   0  0  0  0  0  0  0  0  0  0  0  0
  -15.2840    5.1340    0.7660 C   0  0  0  0  0  0  0  0  0  0  0  0
  -11.5860    8.8730   -0.7030 C   0  0  1  0  0  0  0  0  0  0  0  0
  -11.6740    8.1220    0.6530 C   0  0  0  0  0  0  0  0  0  0  0  0
  -10.6200    6.9860    0.6040 C   0  0  0  0  0  0  0  0  0  0  0  0
   -9.7410    7.3220   -0.6240 C   0  0  1  0  0  0  0  0  0  0  0  0
   -8.7380    8.4040   -0.1140 C   0  0  0  0  0  0  0  0  0  0  0  0
   -9.0020    6.1190   -1.2940 C   0  0  2  0  0  0  0  0  0  0  0  0
   -7.9800    5.3990   -0.3970 C   0  0  0  0  0  0  0  0  0  0  0  0
   -6.5870    5.9290   -0.4650 C   0  0  0  0  0  0  0  0  0  0  0  0
   -6.1080    6.7510   -1.4180 C   0  0  0  0  0  0  0  0  0  0  0  0
   -6.9730    7.1510   -2.6200 C   0  0  1  0  0  0  0  0  0  0  0  0
   -6.1450    7.0090   -3.9240 C   0  0  0  0  0  0  0  0  0  0  0  0
   -4.8300    7.7800   -3.8690 C   0  0  0  0  0  0  0  0  0  0  0  0
   -3.9720    7.3130   -2.6960 C   0  0  2  0  0  0  0  0  0  0  0  0
   -3.5600    5.9630   -2.9340 O   0  0  0  0  0  0  0  0  0  0  0  0
   -4.7050    7.4010   -1.3280 C   0  0  0  0  0  0  0  0  0  0  0  0
   -4.8830    8.8870   -0.9280 C   0  0  0  0  0  0  0  0  0  0  0  0
   -3.7830    6.7690   -0.2500 C   0  0  0  0  0  0  0  0  0  0  0  0
   -8.3930    6.4450   -2.7180 C   0  0  1  0  0  0  0  0  0  0  0  0
   -8.2590    5.0840   -3.4670 C   0  0  0  0  0  0  0  0  0  0  0  0
   -9.3530    7.3390   -3.5890 C   0  0  0  0  0  0  0  0  0  0  0  0
  -10.1460    8.4330   -2.8490 C   0  0  0  0  0  0  0  0  0  0  0  0
  -10.8410    7.8620   -1.6090 C   0  0  2  0  0  0  0  0  0  0  0  0
  -11.8730    6.7860   -2.0920 C   0  0  0  0  0  0  0  0  0  0  0  0
  -12.5922   11.4632   -1.6350 H   0  0  0  0  0  0  0  0  0  0  0  0
  -11.8742   10.3140   -2.8142 H   0  0  0  0  0  0  0  0  0  0  0  0
  -13.6457   10.6111   -2.8142 H   0  0  0  0  0  0  0  0  0  0  0  0
  -13.4750    8.5683   -1.7045 H   0  0  0  0  0  0  0  0  0  0  0  0
  -13.2320    9.6124    0.9420 H   0  0  0  0  0  0  0  0  0  0  0  0
  -14.0512   10.8607   -0.1136 H   0  0  0  0  0  0  0  0  0  0  0  0
  -15.8430    9.6417    0.7097 H   0  0  0  0  0  0  0  0  0  0  0  0
  -15.5100    8.8742   -0.8992 H   0  0  0  0  0  0  0  0  0  0  0  0
  -15.5230    8.0462    1.6648 H   0  0  0  0  0  0  0  0  0  0  0  0
  -16.1790    6.0968   -1.7057 H   0  0  0  0  0  0  0  0  0  0  0  0
  -14.8899    7.3340   -1.8907 H   0  0  0  0  0  0  0  0  0  0  0  0
  -14.4662    5.5884   -1.8907 H   0  0  0  0  0  0  0  0  0  0  0  0
  -15.2350    5.3260    1.8480 H   0  0  0  0  0  0  0  0  0  0  0  0
  -16.2967    4.7978    0.4987 H   0  0  0  0  0  0  0  0  0  0  0  0
  -14.5562    4.3537    0.4987 H   0  0  0  0  0  0  0  0  0  0  0  0
  -11.0363    9.8253   -0.6716 H   0  0  0  0  0  0  0  0  0  0  0  0
  -11.4515    8.8098    1.4821 H   0  0  0  0  0  0  0  0  0  0  0  0
  -12.6838    7.7173    0.8157 H   0  0  0  0  0  0  0  0  0  0  0  0
  -10.0159    6.9769    1.5232 H   0  0  0  0  0  0  0  0  0  0  0  0
  -11.0824    5.9909    0.5263 H   0  0  0  0  0  0  0  0  0  0  0  0
   -8.7328    8.4097    0.9860 H   0  0  0  0  0  0  0  0  0  0  0  0
   -7.7286    8.1718   -0.4843 H   0  0  0  0  0  0  0  0  0  0  0  0
   -9.0459    9.3930   -0.4843 H   0  0  0  0  0  0  0  0  0  0  0  0
   -9.8186    5.3992   -1.4527 H   0  0  0  0  0  0  0  0  0  0  0  0
   -8.3244    5.4813    0.6444 H   0  0  0  0  0  0  0  0  0  0  0  0
   -7.9296    4.3633   -0.7640 H   0  0  0  0  0  0  0  0  0  0  0  0
   -5.8923    5.6223    0.3308 H   0  0  0  0  0  0  0  0  0  0  0  0
   -7.2430    8.2057   -2.4628 H   0  0  0  0  0  0  0  0  0  0  0  0
   -5.9228    5.9440   -4.0863 H   0  0  0  0  0  0  0  0  0  0  0  0
   -6.7433    7.4278   -4.7466 H   0  0  0  0  0  0  0  0  0  0  0  0
   -4.2777    7.6170   -4.8062 H   0  0  0  0  0  0  0  0  0  0  0  0
   -5.0550    8.8485   -3.7357 H   0  0  0  0  0  0  0  0  0  0  0  0
   -3.1055    7.9876   -2.6325 H   0  0  0  0  0  0  0  0  0  0  0  0
   -4.1180    5.3840   -2.3870 H   0  0  0  0  0  0  0  0  0  0  0  0
   -4.8933    8.9728    0.1686 H   0  0  0  0  0  0  0  0  0  0  0  0
   -4.0493    9.4785   -1.3343 H   0  0  0  0  0  0  0  0  0  0  0  0
   -5.8328    9.2648   -1.3343 H   0  0  0  0  0  0  0  0  0  0  0  0
   -4.1591    7.0268    0.7510 H   0  0  0  0  0  0  0  0  0  0  0  0
   -3.7762    5.6754   -0.3687 H   0  0  0  0  0  0  0  0  0  0  0  0
   -2.7606    7.1571   -0.3687 H   0  0  0  0  0  0  0  0  0  0  0  0
   -8.1787    4.2682   -2.7335 H   0  0  0  0  0  0  0  0  0  0  0  0
   -9.1457    4.9238   -4.0979 H   0  0  0  0  0  0  0  0  0  0  0  0
   -7.3581    5.0998   -4.0979 H   0  0  0  0  0  0  0  0  0  0  0  0
   -8.7407    7.8340   -4.3572 H   0  0  0  0  0  0  0  0  0  0  0  0
  -10.1137    6.6474   -3.9803 H   0  0  0  0  0  0  0  0  0  0  0  0
   -9.4552    9.2309   -2.5390 H   0  0  0  0  0  0  0  0  0  0  0  0
  -10.9133    8.8311   -3.5293 H   0  0  0  0  0  0  0  0  0  0  0  0
  -12.3357    6.3036   -1.2184 H   0  0  0  0  0  0  0  0  0  0  0  0
  -12.6520    7.2713   -2.6983 H   0  0  0  0  0  0  0  0  0  0  0  0
  -11.3556    6.0279   -2.6983 H   0  0  0  0  0  0  0  0  0  0  0  0
  1  2  1  0
  2  3  1  0
  3  4  1  0
  4  5  1  0
  5  6  1  0
  6  7  1  0
  7  8  1  0
  7  9  1  0
  2 10  1  0
 10 11  1  0
 11 12  1  0
 12 13  1  0
 13 14  1  1
 13 15  1  0
 15 16  1  0
 16 17  1  0
 17 18  2  0
 18 19  1  0
 19 20  1  0
 20 21  1  0
 21 22  1  0
 22 23  1  0
 22 24  1  0
 24 25  1  0
 24 26  1  0
 19 27  1  0
 27 28  1  6
 27 29  1  0
 29 30  1  0
 30 31  1  0
 31 32  1  6
  7  5  1  0
 31 10  1  0
 31 13  1  0
 27 15  1  0
 24 18  1  0
  1 33  1  0
  1 34  1  0
  1 35  1  0
  2 36  1  6
  3 37  1  0
  3 38  1  0
  4 39  1  0
  4 40  1  0
  5 41  1  1
  8 42  1  0
  8 43  1  0
  8 44  1  0
  9 45  1  0
  9 46  1  0
  9 47  1  0
 10 48  1  1
 11 49  1  0
 11 50  1  0
 12 51  1  0
 12 52  1  0
 14 53  1  0
 14 54  1  0
 14 55  1  0
 15 56  1  6
 16 57  1  0
 16 58  1  0
 17 59  1  0
 19 60  1  1
 20 61  1  0
 20 62  1  0
 21 63  1  0
 21 64  1  0
 22 65  1  1
 23 66  1  0
 25 67  1  0
 25 68  1  0
 25 69  1  0
 26 70  1  0
 26 71  1  0
 26 72  1  0
 28 73  1  0
 28 74  1  0
 28 75  1  0
 29 76  1  0
 29 77  1  0
 30 78  1  0
 30 79  1  0
 32 80  1  0
 32 81  1  0
 32 82  1  0
M  END
>  <meeko>  (14) 
{"is_sidechain": [false], "intermolecular_energy": 2.731, "internal_energy": -0.839}

$$$$
EPH_relaxed_0001_pdb2pqr_Repair_299_r2_0001_out
     RDKit          3D

 82 86  0  0  0  0  0  0  0  0999 V2000
  -11.4190    8.8770   -2.6790 C   0  0  0  0  0  0  0  0  0  0  0  0
  -11.0590    7.6340   -1.8600 C   0  0  2  0  0  0  0  0  0  0  0  0
  -12.1520    7.2790   -0.8320 C   0  0  0  0  0  0  0  0  0  0  0  0
  -13.5580    7.7150   -1.2530 C   0  0  0  0  0  0  0  0  0  0  0  0
  -13.8420    9.1320   -0.8550 C   0  0  2  0  0  0  0  0  0  0  0  0
  -15.2300    9.4320   -0.6600 O   0  0  0  0  0  0  0  0  0  0  0  0
  -14.5800   10.1180   -1.7420 C   0  0  0  0  0  0  0  0  0  0  0  0
  -15.0790    9.7270   -3.0970 C   0  0  0  0  0  0  0  0  0  0  0  0
  -14.3870   11.5820   -1.4980 C   0  0  0  0  0  0  0  0  0  0  0  0
   -9.7270    7.8470   -1.1500 C   0  0  1  0  0  0  0  0  0  0  0  0
   -9.8090    7.5640    0.3730 C   0  0  0  0  0  0  0  0  0  0  0  0
   -8.4470    6.9500    0.7880 C   0  0  0  0  0  0  0  0  0  0  0  0
   -7.5190    7.2050   -0.4220 C   0  0  1  0  0  0  0  0  0  0  0  0
   -7.0460    8.6840   -0.2600 C   0  0  0  0  0  0  0  0  0  0  0  0
   -6.3110    6.2270   -0.5850 C   0  0  2  0  0  0  0  0  0  0  0  0
   -5.2930    6.2500    0.5680 C   0  0  0  0  0  0  0  0  0  0  0  0
   -4.1680    7.2180    0.4060 C   0  0  0  0  0  0  0  0  0  0  0  0
   -3.8220    7.8310   -0.7410 C   0  0  0  0  0  0  0  0  0  0  0  0
   -4.5330    7.4950   -2.0590 C   0  0  1  0  0  0  0  0  0  0  0  0
   -3.4790    7.2880   -3.1780 C   0  0  0  0  0  0  0  0  0  0  0  0
   -2.5290    8.4750   -3.3130 C   0  0  0  0  0  0  0  0  0  0  0  0
   -1.7980    8.7410   -2.0000 C   0  0  2  0  0  0  0  0  0  0  0  0
   -0.9240    7.6420   -1.7280 O   0  0  0  0  0  0  0  0  0  0  0  0
   -2.7590    8.9550   -0.7970 C   0  0  0  0  0  0  0  0  0  0  0  0
   -3.4920   10.3110   -0.9510 C   0  0  0  0  0  0  0  0  0  0  0  0
   -1.8960    9.0720    0.4880 C   0  0  0  0  0  0  0  0  0  0  0  0
   -5.5930    6.3120   -1.9930 C   0  0  1  0  0  0  0  0  0  0  0  0
   -4.8770    4.9440   -2.2120 C   0  0  0  0  0  0  0  0  0  0  0  0
   -6.6170    6.4730   -3.1780 C   0  0  0  0  0  0  0  0  0  0  0  0
   -7.8510    7.3560   -2.9160 C   0  0  0  0  0  0  0  0  0  0  0  0
   -8.5330    6.9680   -1.6000 C   0  0  2  0  0  0  0  0  0  0  0  0
   -9.0400    5.4920   -1.7420 C   0  0  0  0  0  0  0  0  0  0  0  0
  -11.6595    9.7073   -1.9987 H   0  0  0  0  0  0  0  0  0  0  0  0
  -10.5654    9.1581   -3.3133 H   0  0  0  0  0  0  0  0  0  0  0  0
  -12.2907    8.6584   -3.3133 H   0  0  0  0  0  0  0  0  0  0  0  0
  -10.9769    6.7894   -2.5600 H   0  0  0  0  0  0  0  0  0  0  0  0
  -12.1545    6.1881   -0.6905 H   0  0  0  0  0  0  0  0  0  0  0  0
  -11.9109    7.8218    0.0939 H   0  0  0  0  0  0  0  0  0  0  0  0
  -13.6460    7.6273   -2.3460 H   0  0  0  0  0  0  0  0  0  0  0  0
  -14.2850    7.0641   -0.7453 H   0  0  0  0  0  0  0  0  0  0  0  0
  -12.8857    9.1973   -0.3154 H   0  0  0  0  0  0  0  0  0  0  0  0
  -15.9407    9.0518   -2.9896 H   0  0  0  0  0  0  0  0  0  0  0  0
  -15.3856   10.6278   -3.6489 H   0  0  0  0  0  0  0  0  0  0  0  0
  -14.2776    9.2139   -3.6489 H   0  0  0  0  0  0  0  0  0  0  0  0
  -14.3618   11.7730   -0.4150 H   0  0  0  0  0  0  0  0  0  0  0  0
  -13.4382   11.9071   -1.9498 H   0  0  0  0  0  0  0  0  0  0  0  0
  -15.2191   12.1419   -1.9498 H   0  0  0  0  0  0  0  0  0  0  0  0
   -9.5426    8.8981   -1.4166 H   0  0  0  0  0  0  0  0  0  0  0  0
   -9.9859    8.4999    0.9232 H   0  0  0  0  0  0  0  0  0  0  0  0
  -10.6378    6.8784    0.6032 H   0  0  0  0  0  0  0  0  0  0  0  0
   -8.0558    7.4459    1.6886 H   0  0  0  0  0  0  0  0  0  0  0  0
   -8.5289    5.8807    1.0327 H   0  0  0  0  0  0  0  0  0  0  0  0
   -6.9677    8.9289    0.8095 H   0  0  0  0  0  0  0  0  0  0  0  0
   -6.0631    8.8090   -0.7377 H   0  0  0  0  0  0  0  0  0  0  0  0
   -7.7740    9.3562   -0.7377 H   0  0  0  0  0  0  0  0  0  0  0  0
   -6.7970    5.2415   -0.5343 H   0  0  0  0  0  0  0  0  0  0  0  0
   -5.8318    6.5065    1.4921 H   0  0  0  0  0  0  0  0  0  0  0  0
   -4.8340    5.2506    0.5887 H   0  0  0  0  0  0  0  0  0  0  0  0
   -3.5711    7.4499    1.3004 H   0  0  0  0  0  0  0  0  0  0  0  0
   -5.1623    8.3657   -2.2954 H   0  0  0  0  0  0  0  0  0  0  0  0
   -2.8894    6.3890   -2.9453 H   0  0  0  0  0  0  0  0  0  0  0  0
   -4.0191    7.1822   -4.1304 H   0  0  0  0  0  0  0  0  0  0  0  0
   -1.7904    8.2573   -4.0985 H   0  0  0  0  0  0  0  0  0  0  0  0
   -3.1170    9.3672   -3.5743 H   0  0  0  0  0  0  0  0  0  0  0  0
   -1.2328    9.6770   -2.1206 H   0  0  0  0  0  0  0  0  0  0  0  0
   -0.9600    7.0410   -2.4920 H   0  0  0  0  0  0  0  0  0  0  0  0
   -3.7145   10.7227    0.0445 H   0  0  0  0  0  0  0  0  0  0  0  0
   -2.8509   11.0137   -1.5034 H   0  0  0  0  0  0  0  0  0  0  0  0
   -4.4311   10.1595   -1.5034 H   0  0  0  0  0  0  0  0  0  0  0  0
   -2.5429    8.9843    1.3734 H   0  0  0  0  0  0  0  0  0  0  0  0
   -1.1461    8.2673    0.5006 H   0  0  0  0  0  0  0  0  0  0  0  0
   -1.3875   10.0473    0.5006 H   0  0  0  0  0  0  0  0  0  0  0  0
   -4.6411    4.4933   -1.2367 H   0  0  0  0  0  0  0  0  0  0  0  0
   -5.5382    4.2704   -2.7769 H   0  0  0  0  0  0  0  0  0  0  0  0
   -3.9467    5.1034   -2.7769 H   0  0  0  0  0  0  0  0  0  0  0  0
   -6.0734    6.9059   -4.0307 H   0  0  0  0  0  0  0  0  0  0  0  0
   -7.0178    5.4632   -3.3504 H   0  0  0  0  0  0  0  0  0  0  0  0
   -7.5355    8.4084   -2.8613 H   0  0  0  0  0  0  0  0  0  0  0  0
   -8.5671    7.2112   -3.7384 H   0  0  0  0  0  0  0  0  0  0  0  0
   -9.1892    5.0578   -0.7424 H   0  0  0  0  0  0  0  0  0  0  0  0
   -9.9928    5.4829   -2.2916 H   0  0  0  0  0  0  0  0  0  0  0  0
   -8.2939    4.8993   -2.2916 H   0  0  0  0  0  0  0  0  0  0  0  0
  1  2  1  0
  2  3  1  0
  3  4  1  0
  4  5  1  0
  5  6  1  0
  6  7  1  0
  7  8  1  0
  7  9  1  0
  2 10  1  0
 10 11  1  0
 11 12  1  0
 12 13  1  0
 13 14  1  1
 13 15  1  0
 15 16  1  0
 16 17  1  0
 17 18  2  0
 18 19  1  0
 19 20  1  0
 20 21  1  0
 21 22  1  0
 22 23  1  0
 22 24  1  0
 24 25  1  0
 24 26  1  0
 19 27  1  0
 27 28  1  6
 27 29  1  0
 29 30  1  0
 30 31  1  0
 31 32  1  6
  7  5  1  0
 31 10  1  0
 31 13  1  0
 27 15  1  0
 24 18  1  0
  1 33  1  0
  1 34  1  0
  1 35  1  0
  2 36  1  6
  3 37  1  0
  3 38  1  0
  4 39  1  0
  4 40  1  0
  5 41  1  1
  8 42  1  0
  8 43  1  0
  8 44  1  0
  9 45  1  0
  9 46  1  0
  9 47  1  0
 10 48  1  1
 11 49  1  0
 11 50  1  0
 12 51  1  0
 12 52  1  0
 14 53  1  0
 14 54  1  0
 14 55  1  0
 15 56  1  6
 16 57  1  0
 16 58  1  0
 17 59  1  0
 19 60  1  6
 20 61  1  0
 20 62  1  0
 21 63  1  0
 21 64  1  0
 22 65  1  6
 23 66  1  0
 25 67  1  0
 25 68  1  0
 25 69  1  0
 26 70  1  0
 26 71  1  0
 26 72  1  0
 28 73  1  0
 28 74  1  0
 28 75  1  0
 29 76  1  0
 29 77  1  0
 30 78  1  0
 30 79  1  0
 32 80  1  0
 32 81  1  0
 32 82  1  0
M  END
>  <meeko>  (15) 
{"is_sidechain": [false], "intermolecular_energy": 2.731, "internal_energy": -0.839}

$$$$
EPH_relaxed_0001_pdb2pqr_Repair_299_r2_0001_out
     RDKit          3D

 82 86  0  0  0  0  0  0  0  0999 V2000
   -2.6620    7.5260   -2.3210 C   0  0  0  0  0  0  0  0  0  0  0  0
   -2.4670    8.0210   -0.8850 C   0  0  2  0  0  0  0  0  0  0  0  0
   -3.6600    8.8660   -0.3960 C   0  0  0  0  0  0  0  0  0  0  0  0
   -4.9460    8.0600   -0.1980 C   0  0  0  0  0  0  0  0  0  0  0  0
   -5.5920    7.7160   -1.5050 C   0  0  2  0  0  0  0  0  0  0  0  0
   -6.6260    8.6190   -1.9180 O   0  0  0  0  0  0  0  0  0  0  0  0
   -7.0370    7.2710   -1.6340 C   0  0  0  0  0  0  0  0  0  0  0  0
   -7.9240    7.1460   -0.4350 C   0  0  0  0  0  0  0  0  0  0  0  0
   -7.4420    6.4960   -2.8480 C   0  0  0  0  0  0  0  0  0  0  0  0
   -1.1790    8.8300   -0.7840 C   0  0  1  0  0  0  0  0  0  0  0  0
    0.0800    7.9930   -1.1350 C   0  0  0  0  0  0  0  0  0  0  0  0
    1.0700    8.9520   -1.8460 C   0  0  0  0  0  0  0  0  0  0  0  0
    0.4980   10.3650   -1.5870 C   0  0  1  0  0  0  0  0  0  0  0  0
    0.9770   10.7350   -0.1480 C   0  0  0  0  0  0  0  0  0  0  0  0
    0.8850   11.4680   -2.6260 C   0  0  2  0  0  0  0  0  0  0  0  0
    2.3890   11.7790   -2.7170 C   0  0  0  0  0  0  0  0  0  0  0  0
    2.8730   12.8610   -1.8090 C   0  0  0  0  0  0  0  0  0  0  0  0
    2.0930   13.7470   -1.1630 C   0  0  0  0  0  0  0  0  0  0  0  0
    0.5770   13.7770   -1.3930 C   0  0  1  0  0  0  0  0  0  0  0  0
    0.1140   15.2420   -1.6070 C   0  0  0  0  0  0  0  0  0  0  0  0
    0.5500   16.1640   -0.4720 C   0  0  0  0  0  0  0  0  0  0  0  0
    2.0680   16.1520   -0.3120 C   0  0  2  0  0  0  0  0  0  0  0  0
    2.6580   16.7460   -1.4730 O   0  0  0  0  0  0  0  0  0  0  0  0
    2.6500   14.7270   -0.1010 C   0  0  0  0  0  0  0  0  0  0  0  0
    2.2500   14.2030    1.3010 C   0  0  0  0  0  0  0  0  0  0  0  0
    4.1990   14.8400   -0.0960 C   0  0  0  0  0  0  0  0  0  0  0  0
    0.0260   12.7930   -2.5140 C   0  0  1  0  0  0  0  0  0  0  0  0
    0.0940   13.4860   -3.9100 C   0  0  0  0  0  0  0  0  0  0  0  0
   -1.4950   12.4990   -2.2380 C   0  0  0  0  0  0  0  0  0  0  0  0
   -1.8160   11.3210   -1.2980 C   0  0  0  0  0  0  0  0  0  0  0  0
   -1.0410   10.0650   -1.7090 C   0  0  2  0  0  0  0  0  0  0  0  0
   -1.5180    9.6570   -3.1440 C   0  0  0  0  0  0  0  0  0  0  0  0
   -3.0651    6.5027   -2.3045 H   0  0  0  0  0  0  0  0  0  0  0  0
   -3.3661    8.1891   -2.8450 H   0  0  0  0  0  0  0  0  0  0  0  0
   -1.6948    7.5307   -2.8450 H   0  0  0  0  0  0  0  0  0  0  0  0
   -2.4011    7.1356   -0.2356 H   0  0  0  0  0  0  0  0  0  0  0  0
   -3.3880    9.3272    0.5649 H   0  0  0  0  0  0  0  0  0  0  0  0
   -3.8661    9.6126   -1.1770 H   0  0  0  0  0  0  0  0  0  0  0  0
   -4.7045    7.1291    0.3360 H   0  0  0  0  0  0  0  0  0  0  0  0
   -5.6504    8.6756    0.3807 H   0  0  0  0  0  0  0  0  0  0  0  0
   -4.6520    7.2875   -1.8829 H   0  0  0  0  0  0  0  0  0  0  0  0
   -7.3186    7.2313    0.4794 H   0  0  0  0  0  0  0  0  0  0  0  0
   -8.6780    7.9468   -0.4516 H   0  0  0  0  0  0  0  0  0  0  0  0
   -8.4273    6.1680   -0.4516 H   0  0  0  0  0  0  0  0  0  0  0  0
   -7.9310    5.5603   -2.5394 H   0  0  0  0  0  0  0  0  0  0  0  0
   -8.1424    7.0950   -3.4486 H   0  0  0  0  0  0  0  0  0  0  0  0
   -6.5504    6.2630   -3.4486 H   0  0  0  0  0  0  0  0  0  0  0  0
   -1.2443    9.1520    0.2658 H   0  0  0  0  0  0  0  0  0  0  0  0
    0.5350    7.5903   -0.2181 H   0  0  0  0  0  0  0  0  0  0  0  0
   -0.1790    7.1417   -1.7817 H   0  0  0  0  0  0  0  0  0  0  0  0
    2.0785    8.8567   -1.4173 H   0  0  0  0  0  0  0  0  0  0  0  0
    1.1666    8.7313   -2.9193 H   0  0  0  0  0  0  0  0  0  0  0  0
    0.3330   10.2375    0.5921 H   0  0  0  0  0  0  0  0  0  0  0  0
    2.0168   10.4033   -0.0111 H   0  0  0  0  0  0  0  0  0  0  0  0
    0.9187   11.8249   -0.0111 H   0  0  0  0  0  0  0  0  0  0  0  0
    0.6195   10.9953   -3.5831 H   0  0  0  0  0  0  0  0  0  0  0  0
    2.9415   10.8593   -2.4743 H   0  0  0  0  0  0  0  0  0  0  0  0
    2.5634   12.1407   -3.7411 H   0  0  0  0  0  0  0  0  0  0  0  0
    3.9593   12.9406   -1.6551 H   0  0  0  0  0  0  0  0  0  0  0  0
    0.1227   13.3723   -0.4766 H   0  0  0  0  0  0  0  0  0  0  0  0
    0.5440   15.6139   -2.5487 H   0  0  0  0  0  0  0  0  0  0  0  0
   -0.9856   15.2443   -1.6360 H   0  0  0  0  0  0  0  0  0  0  0  0
    0.2195   17.1894   -0.6940 H   0  0  0  0  0  0  0  0  0  0  0  0
    0.0954   15.8076    0.4641 H   0  0  0  0  0  0  0  0  0  0  0  0
    2.3093   16.7264    0.5945 H   0  0  0  0  0  0  0  0  0  0  0  0
    2.5980   17.7110   -1.3720 H   0  0  0  0  0  0  0  0  0  0  0  0
    2.7248   14.8250    2.0741 H   0  0  0  0  0  0  0  0  0  0  0  0
    1.1567   14.2510    1.4122 H   0  0  0  0  0  0  0  0  0  0  0  0
    2.5845   13.1610    1.4122 H   0  0  0  0  0  0  0  0  0  0  0  0
    4.5614   14.8664    0.9423 H   0  0  0  0  0  0  0  0  0  0  0  0
    4.6317   13.9710   -0.6134 H   0  0  0  0  0  0  0  0  0  0  0  0
    4.5010   15.7626   -0.6134 H   0  0  0  0  0  0  0  0  0  0  0  0
    0.2006   14.5725   -3.7752 H   0  0  0  0  0  0  0  0  0  0  0  0
    0.9585   13.0994   -4.4696 H   0  0  0  0  0  0  0  0  0  0  0  0
   -0.8292   13.2748   -4.4696 H   0  0  0  0  0  0  0  0  0  0  0  0
   -1.9344   13.4058   -1.7969 H   0  0  0  0  0  0  0  0  0  0  0  0
   -1.9139   12.2109   -3.2135 H   0  0  0  0  0  0  0  0  0  0  0  0
   -1.5379   11.5951   -0.2696 H   0  0  0  0  0  0  0  0  0  0  0  0
   -2.8928   11.1052   -1.3610 H   0  0  0  0  0  0  0  0  0  0  0  0
   -2.3517    8.9439   -3.0643 H   0  0  0  0  0  0  0  0  0  0  0  0
   -1.8524   10.5528   -3.6877 H   0  0  0  0  0  0  0  0  0  0  0  0
   -0.6848    9.1878   -3.6877 H   0  0  0  0  0  0  0  0  0  0  0  0
  1  2  1  0
  2  3  1  0
  3  4  1  0
  4  5  1  0
  5  6  1  0
  6  7  1  0
  7  8  1  0
  7  9  1  0
  2 10  1  0
 10 11  1  0
 11 12  1  0
 12 13  1  0
 13 14  1  1
 13 15  1  0
 15 16  1  0
 16 17  1  0
 17 18  2  0
 18 19  1  0
 19 20  1  0
 20 21  1  0
 21 22  1  0
 22 23  1  0
 22 24  1  0
 24 25  1  0
 24 26  1  0
 19 27  1  0
 27 28  1  6
 27 29  1  0
 29 30  1  0
 30 31  1  0
 31 32  1  6
  7  5  1  0
 31 10  1  0
 31 13  1  0
 27 15  1  0
 24 18  1  0
  1 33  1  0
  1 34  1  0
  1 35  1  0
  2 36  1  1
  3 37  1  0
  3 38  1  0
  4 39  1  0
  4 40  1  0
  5 41  1  6
  8 42  1  0
  8 43  1  0
  8 44  1  0
  9 45  1  0
  9 46  1  0
  9 47  1  0
 10 48  1  1
 11 49  1  0
 11 50  1  0
 12 51  1  0
 12 52  1  0
 14 53  1  0
 14 54  1  0
 14 55  1  0
 15 56  1  6
 16 57  1  0
 16 58  1  0
 17 59  1  0
 19 60  1  1
 20 61  1  0
 20 62  1  0
 21 63  1  0
 21 64  1  0
 22 65  1  1
 23 66  1  0
 25 67  1  0
 25 68  1  0
 25 69  1  0
 26 70  1  0
 26 71  1  0
 26 72  1  0
 28 73  1  0
 28 74  1  0
 28 75  1  0
 29 76  1  0
 29 77  1  0
 30 78  1  0
 30 79  1  0
 32 80  1  0
 32 81  1  0
 32 82  1  0
M  END
>  <meeko>  (16) 
{"is_sidechain": [false], "intermolecular_energy": 2.731, "internal_energy": -0.839}

$$$$
EPH_relaxed_0001_pdb2pqr_Repair_299_r2_0001_out
     RDKit          3D

 82 86  0  0  0  0  0  0  0  0999 V2000
    0.3630   19.9520   -1.6600 C   0  0  0  0  0  0  0  0  0  0  0  0
    0.9080   19.2260   -0.4280 C   0  0  2  0  0  0  0  0  0  0  0  0
    1.8940   20.1000    0.3730 C   0  0  0  0  0  0  0  0  0  0  0  0
    2.2790   19.5080    1.7310 C   0  0  0  0  0  0  0  0  0  0  0  0
    3.7550   19.5930    1.9750 C   0  0  2  0  0  0  0  0  0  0  0  0
    4.3320   18.4240    2.5700 O   0  0  0  0  0  0  0  0  0  0  0  0
    4.3740   19.6240    3.3600 C   0  0  0  0  0  0  0  0  0  0  0  0
    3.5290   19.5700    4.5940 C   0  0  0  0  0  0  0  0  0  0  0  0
    5.7490   20.1940    3.5160 C   0  0  0  0  0  0  0  0  0  0  0  0
    1.5860   17.9270   -0.8470 C   0  0  1  0  0  0  0  0  0  0  0  0
    3.0880   17.8850   -0.4600 C   0  0  0  0  0  0  0  0  0  0  0  0
    3.4150   16.4150   -0.0930 C   0  0  0  0  0  0  0  0  0  0  0  0
    2.1950   15.6070   -0.5960 C   0  0  1  0  0  0  0  0  0  0  0  0
    2.4440   15.4140   -2.1250 C   0  0  0  0  0  0  0  0  0  0  0  0
    1.9250   14.2450    0.1210 C   0  0  2  0  0  0  0  0  0  0  0  0
    3.0430   13.1980   -0.0240 C   0  0  0  0  0  0  0  0  0  0  0  0
    2.9120   12.2850   -1.1980 C   0  0  0  0  0  0  0  0  0  0  0  0
    1.7990   12.1130   -1.9360 C   0  0  0  0  0  0  0  0  0  0  0  0
    0.4860   12.8070   -1.5530 C   0  0  1  0  0  0  0  0  0  0  0  0
   -0.6790   11.7840   -1.6210 C   0  0  0  0  0  0  0  0  0  0  0  0
   -0.7620   11.0830   -2.9740 C   0  0  0  0  0  0  0  0  0  0  0  0
    0.5420   10.3570   -3.2930 C   0  0  2  0  0  0  0  0  0  0  0  0
    0.7080    9.2790   -2.3660 O   0  0  0  0  0  0  0  0  0  0  0  0
    1.7880   11.2850   -3.2440 C   0  0  0  0  0  0  0  0  0  0  0  0
    1.7520   12.2670   -4.4410 C   0  0  0  0  0  0  0  0  0  0  0  0
    3.0490   10.4020   -3.4440 C   0  0  0  0  0  0  0  0  0  0  0  0
    0.5040   13.6200   -0.1870 C   0  0  1  0  0  0  0  0  0  0  0  0
    0.1670   12.6700    1.0030 C   0  0  0  0  0  0  0  0  0  0  0  0
   -0.6330   14.7080   -0.2220 C   0  0  0  0  0  0  0  0  0  0  0  0
   -0.2690   16.0740   -0.8350 C   0  0  0  0  0  0  0  0  0  0  0  0
    1.0370   16.6110   -0.2430 C   0  0  2  0  0  0  0  0  0  0  0  0
    0.8100   16.8360    1.2910 C   0  0  0  0  0  0  0  0  0  0  0  0
   -0.2688   20.7937   -1.3400 H   0  0  0  0  0  0  0  0  0  0  0  0
    1.2013   20.3313   -2.2628 H   0  0  0  0  0  0  0  0  0  0  0  0
   -0.2352   19.2529   -2.2628 H   0  0  0  0  0  0  0  0  0  0  0  0
    0.0542   19.0046    0.2292 H   0  0  0  0  0  0  0  0  0  0  0  0
    2.8099   20.2256   -0.2232 H   0  0  0  0  0  0  0  0  0  0  0  0
    1.3875   21.0561    0.5714 H   0  0  0  0  0  0  0  0  0  0  0  0
    1.7544   20.0624    2.5231 H   0  0  0  0  0  0  0  0  0  0  0  0
    1.9915   18.4462    1.7358 H   0  0  0  0  0  0  0  0  0  0  0  0
    3.8870   20.2376    1.0935 H   0  0  0  0  0  0  0  0  0  0  0  0
    4.1754   19.6113    5.4831 H   0  0  0  0  0  0  0  0  0  0  0  0
    2.8380   20.4258    4.6030 H   0  0  0  0  0  0  0  0  0  0  0  0
    2.9525   18.6332    4.6030 H   0  0  0  0  0  0  0  0  0  0  0  0
    5.9860   20.2923    4.5857 H   0  0  0  0  0  0  0  0  0  0  0  0
    6.4797   19.5247    3.0385 H   0  0  0  0  0  0  0  0  0  0  0  0
    5.7919   21.1840    3.0385 H   0  0  0  0  0  0  0  0  0  0  0  0
    1.3866   17.9560   -1.9284 H   0  0  0  0  0  0  0  0  0  0  0  0
    3.7071   18.2100   -1.3092 H   0  0  0  0  0  0  0  0  0  0  0  0
    3.2970   18.5584    0.3843 H   0  0  0  0  0  0  0  0  0  0  0  0
    4.3348   16.0841   -0.5975 H   0  0  0  0  0  0  0  0  0  0  0  0
    3.5875   16.2825    0.9853 H   0  0  0  0  0  0  0  0  0  0  0  0
    3.3053   14.7464   -2.2748 H   0  0  0  0  0  0  0  0  0  0  0  0
    1.5508   14.9699   -2.5888 H   0  0  0  0  0  0  0  0  0  0  0  0
    2.6513   16.3897   -2.5888 H   0  0  0  0  0  0  0  0  0  0  0  0
    1.9228   14.5343    1.1823 H   0  0  0  0  0  0  0  0  0  0  0  0
    4.0001   13.7327   -0.1141 H   0  0  0  0  0  0  0  0  0  0  0  0
    2.9788   12.5581    0.8684 H   0  0  0  0  0  0  0  0  0  0  0  0
    3.8005   11.7032   -1.4845 H   0  0  0  0  0  0  0  0  0  0  0  0
    0.3319   13.5996   -2.3000 H   0  0  0  0  0  0  0  0  0  0  0  0
   -0.5284   11.0252   -0.8390 H   0  0  0  0  0  0  0  0  0  0  0  0
   -1.6185   12.3365   -1.4723 H   0  0  0  0  0  0  0  0  0  0  0  0
   -1.5843   10.3528   -2.9513 H   0  0  0  0  0  0  0  0  0  0  0  0
   -0.9415   11.8403   -3.7514 H   0  0  0  0  0  0  0  0  0  0  0  0
    0.4686    9.9854   -4.3257 H   0  0  0  0  0  0  0  0  0  0  0  0
    1.6600    9.0930   -2.3000 H   0  0  0  0  0  0  0  0  0  0  0  0
    1.7141   13.3005   -4.0664 H   0  0  0  0  0  0  0  0  0  0  0  0
    2.6557   12.1319   -5.0534 H   0  0  0  0  0  0  0  0  0  0  0  0
    0.8606   12.0661   -5.0534 H   0  0  0  0  0  0  0  0  0  0  0  0
    3.4563   10.1168   -2.4628 H   0  0  0  0  0  0  0  0  0  0  0  0
    2.7770    9.4960   -4.0055 H   0  0  0  0  0  0  0  0  0  0  0  0
    3.8073   10.9675   -4.0055 H   0  0  0  0  0  0  0  0  0  0  0  0
    0.3523   13.1925    1.9531 H   0  0  0  0  0  0  0  0  0  0  0  0
   -0.8910   12.3740    0.9476 H   0  0  0  0  0  0  0  0  0  0  0  0
    0.8019   11.7735    0.9476 H   0  0  0  0  0  0  0  0  0  0  0  0
   -1.4708   14.2952   -0.8031 H   0  0  0  0  0  0  0  0  0  0  0  0
   -0.8628   14.9181    0.8330 H   0  0  0  0  0  0  0  0  0  0  0  0
   -0.1508   15.9601   -1.9227 H   0  0  0  0  0  0  0  0  0  0  0  0
   -1.0758   16.7863   -0.6074 H   0  0  0  0  0  0  0  0  0  0  0  0
    1.4780   16.1739    1.8615 H   0  0  0  0  0  0  0  0  0  0  0  0
    1.0286   17.8839    1.5442 H   0  0  0  0  0  0  0  0  0  0  0  0
   -0.2359   16.6081    1.5442 H   0  0  0  0  0  0  0  0  0  0  0  0
  1  2  1  0
  2  3  1  0
  3  4  1  0
  4  5  1  0
  5  6  1  0
  6  7  1  0
  7  8  1  0
  7  9  1  0
  2 10  1  0
 10 11  1  0
 11 12  1  0
 12 13  1  0
 13 14  1  6
 13 15  1  0
 15 16  1  0
 16 17  1  0
 17 18  2  0
 18 19  1  0
 19 20  1  0
 20 21  1  0
 21 22  1  0
 22 23  1  0
 22 24  1  0
 24 25  1  0
 24 26  1  0
 19 27  1  0
 27 28  1  1
 27 29  1  0
 29 30  1  0
 30 31  1  0
 31 32  1  1
  7  5  1  0
 31 10  1  0
 31 13  1  0
 27 15  1  0
 24 18  1  0
  1 33  1  0
  1 34  1  0
  1 35  1  0
  2 36  1  1
  3 37  1  0
  3 38  1  0
  4 39  1  0
  4 40  1  0
  5 41  1  6
  8 42  1  0
  8 43  1  0
  8 44  1  0
  9 45  1  0
  9 46  1  0
  9 47  1  0
 10 48  1  6
 11 49  1  0
 11 50  1  0
 12 51  1  0
 12 52  1  0
 14 53  1  0
 14 54  1  0
 14 55  1  0
 15 56  1  1
 16 57  1  0
 16 58  1  0
 17 59  1  0
 19 60  1  6
 20 61  1  0
 20 62  1  0
 21 63  1  0
 21 64  1  0
 22 65  1  6
 23 66  1  0
 25 67  1  0
 25 68  1  0
 25 69  1  0
 26 70  1  0
 26 71  1  0
 26 72  1  0
 28 73  1  0
 28 74  1  0
 28 75  1  0
 29 76  1  0
 29 77  1  0
 30 78  1  0
 30 79  1  0
 32 80  1  0
 32 81  1  0
 32 82  1  0
M  END
>  <meeko>  (17) 
{"is_sidechain": [false], "intermolecular_energy": 2.731, "internal_energy": -0.839}

$$$$
EPH_relaxed_0001_pdb2pqr_Repair_299_r2_0001_out
     RDKit          3D

 82 86  0  0  0  0  0  0  0  0999 V2000
   -4.7350    6.2510    1.1690 C   0  0  0  0  0  0  0  0  0  0  0  0
   -4.9660    7.1440   -0.0540 C   0  0  2  0  0  0  0  0  0  0  0  0
   -5.9160    6.4920   -1.0780 C   0  0  0  0  0  0  0  0  0  0  0  0
   -7.1910    7.2990   -1.3360 C   0  0  0  0  0  0  0  0  0  0  0  0
   -8.2320    7.0400   -0.2890 C   0  0  2  0  0  0  0  0  0  0  0  0
   -9.0930    5.9270   -0.5630 O   0  0  0  0  0  0  0  0  0  0  0  0
   -9.7200    7.2190   -0.5250 C   0  0  0  0  0  0  0  0  0  0  0  0
  -10.2500    7.6770   -1.8480 C   0  0  0  0  0  0  0  0  0  0  0  0
  -10.6130    7.4220    0.6590 C   0  0  0  0  0  0  0  0  0  0  0  0
   -3.6330    7.4740   -0.7150 C   0  0  1  0  0  0  0  0  0  0  0  0
   -3.5410    6.9430   -2.1710 C   0  0  0  0  0  0  0  0  0  0  0  0
   -2.7110    7.9780   -2.9730 C   0  0  0  0  0  0  0  0  0  0  0  0
   -2.0790    8.8900   -1.8960 C   0  0  1  0  0  0  0  0  0  0  0  0
   -0.8330    8.1010   -1.3840 C   0  0  0  0  0  0  0  0  0  0  0  0
   -1.6980   10.3370   -2.3520 C   0  0  2  0  0  0  0  0  0  0  0  0
   -0.6310   10.4130   -3.4580 C   0  0  0  0  0  0  0  0  0  0  0  0
    0.7800   10.4960   -2.9770 C   0  0  0  0  0  0  0  0  0  0  0  0
    1.1620   10.7950   -1.7210 C   0  0  0  0  0  0  0  0  0  0  0  0
    0.1300   11.1840   -0.6550 C   0  0  1  0  0  0  0  0  0  0  0  0
    0.6230   12.4410    0.1080 C   0  0  0  0  0  0  0  0  0  0  0  0
    2.0220   12.2620    0.6890 C   0  0  0  0  0  0  0  0  0  0  0  0
    3.0310   11.9340   -0.4100 C   0  0  2  0  0  0  0  0  0  0  0  0
    3.1660   13.0720   -1.2660 O   0  0  0  0  0  0  0  0  0  0  0  0
    2.6340   10.6890   -1.2530 C   0  0  0  0  0  0  0  0  0  0  0  0
    2.7800    9.4100   -0.3920 C   0  0  0  0  0  0  0  0  0  0  0  0
    3.6590   10.5520   -2.4120 C   0  0  0  0  0  0  0  0  0  0  0  0
   -1.3700   11.3260   -1.1620 C   0  0  1  0  0  0  0  0  0  0  0  0
   -1.6150   12.7680   -1.7010 C   0  0  0  0  0  0  0  0  0  0  0  0
   -2.3450   11.1370    0.0600 C   0  0  0  0  0  0  0  0  0  0  0  0
   -2.7780    9.6950    0.3860 C   0  0  0  0  0  0  0  0  0  0  0  0
   -3.2680    8.9720   -0.8720 C   0  0  2  0  0  0  0  0  0  0  0  0
   -4.5350    9.7300   -1.3970 C   0  0  0  0  0  0  0  0  0  0  0  0
   -4.8871    6.8389    2.0862 H   0  0  0  0  0  0  0  0  0  0  0  0
   -5.4456    5.4115    1.1495 H   0  0  0  0  0  0  0  0  0  0  0  0
   -3.7065    5.8614    1.1495 H   0  0  0  0  0  0  0  0  0  0  0  0
   -5.4457    8.0695    0.2973 H   0  0  0  0  0  0  0  0  0  0  0  0
   -5.3767    6.3810   -2.0303 H   0  0  0  0  0  0  0  0  0  0  0  0
   -6.2277    5.5249   -0.6567 H   0  0  0  0  0  0  0  0  0  0  0  0
   -6.9415    8.3703   -1.3334 H   0  0  0  0  0  0  0  0  0  0  0  0
   -7.6001    6.9921   -2.3099 H   0  0  0  0  0  0  0  0  0  0  0  0
   -7.5611    7.4073    0.5016 H   0  0  0  0  0  0  0  0  0  0  0  0
  -11.0733    8.3885   -1.6868 H   0  0  0  0  0  0  0  0  0  0  0  0
   -9.4458    8.1691   -2.4147 H   0  0  0  0  0  0  0  0  0  0  0  0
  -10.6203    6.8100   -2.4147 H   0  0  0  0  0  0  0  0  0  0  0  0
  -10.0318    7.2899    1.5835 H   0  0  0  0  0  0  0  0  0  0  0  0
  -11.0326    8.4385    0.6318 H   0  0  0  0  0  0  0  0  0  0  0  0
  -11.4308    6.6868    0.6318 H   0  0  0  0  0  0  0  0  0  0  0  0
   -2.9488    6.9926   -0.0007 H   0  0  0  0  0  0  0  0  0  0  0  0
   -3.0412    5.9632   -2.1860 H   0  0  0  0  0  0  0  0  0  0  0  0
   -4.5420    6.8150   -2.6087 H   0  0  0  0  0  0  0  0  0  0  0  0
   -1.9304    7.4761   -3.5636 H   0  0  0  0  0  0  0  0  0  0  0  0
   -3.3271    8.5425   -3.6884 H   0  0  0  0  0  0  0  0  0  0  0  0
   -0.8277    8.0977   -0.2840 H   0  0  0  0  0  0  0  0  0  0  0  0
   -0.8772    7.0659   -1.7536 H   0  0  0  0  0  0  0  0  0  0  0  0
    0.0838    8.5835   -1.7536 H   0  0  0  0  0  0  0  0  0  0  0  0
   -2.6311   10.6925   -2.8135 H   0  0  0  0  0  0  0  0  0  0  0  0
   -0.7247    9.5129   -4.0834 H   0  0  0  0  0  0  0  0  0  0  0  0
   -0.8228   11.3492   -4.0027 H   0  0  0  0  0  0  0  0  0  0  0  0
    1.5747   10.2960   -3.7108 H   0  0  0  0  0  0  0  0  0  0  0  0
    0.0677   10.3296    0.0351 H   0  0  0  0  0  0  0  0  0  0  0  0
    0.6366   13.2929   -0.5877 H   0  0  0  0  0  0  0  0  0  0  0  0
   -0.0671   12.6141    0.9470 H   0  0  0  0  0  0  0  0  0  0  0  0
    2.3255   13.1929    1.1904 H   0  0  0  0  0  0  0  0  0  0  0  0
    2.0005   11.4284    1.4064 H   0  0  0  0  0  0  0  0  0  0  0  0
    3.9856   11.6903    0.0793 H   0  0  0  0  0  0  0  0  0  0  0  0
    4.1170   13.2230   -1.4070 H   0  0  0  0  0  0  0  0  0  0  0  0
    2.7492    9.6800    0.6739 H   0  0  0  0  0  0  0  0  0  0  0  0
    1.9549    8.7189   -0.6192 H   0  0  0  0  0  0  0  0  0  0  0  0
    3.7396    8.9226   -0.6192 H   0  0  0  0  0  0  0  0  0  0  0  0
    4.6680   10.4171   -1.9951 H   0  0  0  0  0  0  0  0  0  0  0  0
    3.3985    9.6807   -3.0308 H   0  0  0  0  0  0  0  0  0  0  0  0
    3.6364   11.4611   -3.0308 H   0  0  0  0  0  0  0  0  0  0  0  0
   -1.7327   13.4607   -0.8547 H   0  0  0  0  0  0  0  0  0  0  0  0
   -0.7571   13.0809   -2.3143 H   0  0  0  0  0  0  0  0  0  0  0  0
   -2.5281   12.7800   -2.3143 H   0  0  0  0  0  0  0  0  0  0  0  0
   -1.8446   11.5438    0.9511 H   0  0  0  0  0  0  0  0  0  0  0  0
   -3.2705   11.6578   -0.2267 H   0  0  0  0  0  0  0  0  0  0  0  0
   -1.9205    9.1477    0.8046 H   0  0  0  0  0  0  0  0  0  0  0  0
   -3.6029    9.7324    1.1127 H   0  0  0  0  0  0  0  0  0  0  0  0
   -5.1296   10.0858   -0.5427 H   0  0  0  0  0  0  0  0  0  0  0  0
   -4.2213   10.5889   -2.0084 H   0  0  0  0  0  0  0  0  0  0  0  0
   -5.1435    9.0474   -2.0084 H   0  0  0  0  0  0  0  0  0  0  0  0
  1  2  1  0
  2  3  1  0
  3  4  1  0
  4  5  1  0
  5  6  1  0
  6  7  1  0
  7  8  1  0
  7  9  1  0
  2 10  1  0
 10 11  1  0
 11 12  1  0
 12 13  1  0
 13 14  1  1
 13 15  1  0
 15 16  1  0
 16 17  1  0
 17 18  2  0
 18 19  1  0
 19 20  1  0
 20 21  1  0
 21 22  1  0
 22 23  1  0
 22 24  1  0
 24 25  1  0
 24 26  1  0
 19 27  1  0
 27 28  1  6
 27 29  1  0
 29 30  1  0
 30 31  1  0
 31 32  1  6
  7  5  1  0
 31 10  1  0
 31 13  1  0
 27 15  1  0
 24 18  1  0
  1 33  1  0
  1 34  1  0
  1 35  1  0
  2 36  1  1
  3 37  1  0
  3 38  1  0
  4 39  1  0
  4 40  1  0
  5 41  1  1
  8 42  1  0
  8 43  1  0
  8 44  1  0
  9 45  1  0
  9 46  1  0
  9 47  1  0
 10 48  1  1
 11 49  1  0
 11 50  1  0
 12 51  1  0
 12 52  1  0
 14 53  1  0
 14 54  1  0
 14 55  1  0
 15 56  1  6
 16 57  1  0
 16 58  1  0
 17 59  1  0
 19 60  1  1
 20 61  1  0
 20 62  1  0
 21 63  1  0
 21 64  1  0
 22 65  1  1
 23 66  1  0
 25 67  1  0
 25 68  1  0
 25 69  1  0
 26 70  1  0
 26 71  1  0
 26 72  1  0
 28 73  1  0
 28 74  1  0
 28 75  1  0
 29 76  1  0
 29 77  1  0
 30 78  1  0
 30 79  1  0
 32 80  1  0
 32 81  1  0
 32 82  1  0
M  END
>  <meeko>  (18) 
{"is_sidechain": [false], "intermolecular_energy": 2.731, "internal_energy": -0.839}

$$$$
