EPH_relaxed_0001_pdb2pqr_Repair_372_r2_0001_out
     RDKit          3D

 82 86  0  0  0  0  0  0  0  0999 V2000
   -1.5390    8.5880   -1.8300 C   0  0  0  0  0  0  0  0  0  0  0  0
   -1.9150    9.1410   -0.4520 C   0  0  2  0  0  0  0  0  0  0  0  0
   -3.4070    9.5210   -0.3670 C   0  0  0  0  0  0  0  0  0  0  0  0
   -4.2890    8.4200    0.2290 C   0  0  0  0  0  0  0  0  0  0  0  0
   -5.6650    8.4320   -0.3640 C   0  0  2  0  0  0  0  0  0  0  0  0
   -6.3830    7.1970   -0.2360 O   0  0  0  0  0  0  0  0  0  0  0  0
   -6.0620    7.6080   -1.5750 C   0  0  0  0  0  0  0  0  0  0  0  0
   -5.0800    6.7150   -2.2670 C   0  0  0  0  0  0  0  0  0  0  0  0
   -7.2510    8.0380   -2.3750 C   0  0  0  0  0  0  0  0  0  0  0  0
   -1.0490   10.3520   -0.1240 C   0  0  1  0  0  0  0  0  0  0  0  0
    0.0420   10.0380    0.9330 C   0  0  0  0  0  0  0  0  0  0  0  0
    1.2860   10.8840    0.5570 C   0  0  0  0  0  0  0  0  0  0  0  0
    0.7670   11.8960   -0.4910 C   0  0  1  0  0  0  0  0  0  0  0  0
    0.0910   13.0280    0.3440 C   0  0  0  0  0  0  0  0  0  0  0  0
    1.8300   12.4670   -1.4860 C   0  0  2  0  0  0  0  0  0  0  0  0
    2.9610   13.2820   -0.8340 C   0  0  0  0  0  0  0  0  0  0  0  0
    2.7010   14.7470   -0.7100 C   0  0  0  0  0  0  0  0  0  0  0  0
    1.7360   15.4270   -1.3560 C   0  0  0  0  0  0  0  0  0  0  0  0
    0.8420   14.7340   -2.3930 C   0  0  1  0  0  0  0  0  0  0  0  0
    0.7390   15.6200   -3.6620 C   0  0  0  0  0  0  0  0  0  0  0  0
    0.2760   17.0400   -3.3490 C   0  0  0  0  0  0  0  0  0  0  0  0
    1.2220   17.7160   -2.3600 C   0  0  2  0  0  0  0  0  0  0  0  0
    2.4910   17.9090   -2.9940 O   0  0  0  0  0  0  0  0  0  0  0  0
    1.4120   16.9100   -1.0450 C   0  0  0  0  0  0  0  0  0  0  0  0
    0.1080   16.9580   -0.2110 C   0  0  0  0  0  0  0  0  0  0  0  0
    2.4960   17.6280   -0.1970 C   0  0  0  0  0  0  0  0  0  0  0  0
    1.2120   13.2260   -2.7290 C   0  0  1  0  0  0  0  0  0  0  0  0
    2.2870   13.1810   -3.8570 C   0  0  0  0  0  0  0  0  0  0  0  0
   -0.0620   12.4990   -3.3010 C   0  0  0  0  0  0  0  0  0  0  0  0
   -1.0120   11.8520   -2.2760 C   0  0  0  0  0  0  0  0  0  0  0  0
   -0.2360   10.9800   -1.2840 C   0  0  2  0  0  0  0  0  0  0  0  0
    0.4360    9.8180   -2.0920 C   0  0  0  0  0  0  0  0  0  0  0  0
   -0.9244    7.6840   -1.7071 H   0  0  0  0  0  0  0  0  0  0  0  0
   -2.4540    8.3364   -2.3863 H   0  0  0  0  0  0  0  0  0  0  0  0
   -0.9686    9.3464   -2.3863 H   0  0  0  0  0  0  0  0  0  0  0  0
   -1.7346    8.3448    0.2852 H   0  0  0  0  0  0  0  0  0  0  0  0
   -3.5014   10.4195    0.2605 H   0  0  0  0  0  0  0  0  0  0  0  0
   -3.7551    9.6901   -1.3967 H   0  0  0  0  0  0  0  0  0  0  0  0
   -3.8235    7.4434    0.0303 H   0  0  0  0  0  0  0  0  0  0  0  0
   -4.3795    8.6002    1.3104 H   0  0  0  0  0  0  0  0  0  0  0  0
   -5.7831    9.4997   -0.1273 H   0  0  0  0  0  0  0  0  0  0  0  0
   -4.4847    6.1737   -1.5169 H   0  0  0  0  0  0  0  0  0  0  0  0
   -5.6211    5.9931   -2.8963 H   0  0  0  0  0  0  0  0  0  0  0  0
   -4.4125    7.3220   -2.8963 H   0  0  0  0  0  0  0  0  0  0  0  0
   -8.0638    8.3320   -1.6947 H   0  0  0  0  0  0  0  0  0  0  0  0
   -6.9762    8.8937   -3.0093 H   0  0  0  0  0  0  0  0  0  0  0  0
   -7.5871    7.2045   -3.0093 H   0  0  0  0  0  0  0  0  0  0  0  0
   -1.8295   11.0515    0.2099 H   0  0  0  0  0  0  0  0  0  0  0  0
   -0.3133   10.3125    1.9372 H   0  0  0  0  0  0  0  0  0  0  0  0
    0.2831    8.9648    0.9448 H   0  0  0  0  0  0  0  0  0  0  0  0
    1.6810   11.4076    1.4401 H   0  0  0  0  0  0  0  0  0  0  0  0
    2.1089   10.2661    0.1685 H   0  0  0  0  0  0  0  0  0  0  0  0
    0.2167   12.8176    1.4163 H   0  0  0  0  0  0  0  0  0  0  0  0
    0.5610   13.9926    0.1021 H   0  0  0  0  0  0  0  0  0  0  0  0
   -0.9812   13.0717    0.1021 H   0  0  0  0  0  0  0  0  0  0  0  0
    2.3052   11.5542   -1.8745 H   0  0  0  0  0  0  0  0  0  0  0  0
    3.1310   12.8802    0.1758 H   0  0  0  0  0  0  0  0  0  0  0  0
    3.8310   13.1824   -1.4998 H   0  0  0  0  0  0  0  0  0  0  0  0
    3.3533   15.3187   -0.0335 H   0  0  0  0  0  0  0  0  0  0  0  0
   -0.1487   14.6367   -1.9250 H   0  0  0  0  0  0  0  0  0  0  0  0
    1.7290   15.6691   -4.1389 H   0  0  0  0  0  0  0  0  0  0  0  0
   -0.0091   15.1642   -4.3273 H   0  0  0  0  0  0  0  0  0  0  0  0
    0.2514   17.6243   -4.2806 H   0  0  0  0  0  0  0  0  0  0  0  0
   -0.7266   16.9915   -2.8991 H   0  0  0  0  0  0  0  0  0  0  0  0
    0.7697   18.6775   -2.0756 H   0  0  0  0  0  0  0  0  0  0  0  0
    3.1720   17.5420   -2.4050 H   0  0  0  0  0  0  0  0  0  0  0  0
    0.3574   16.9488    0.8603 H   0  0  0  0  0  0  0  0  0  0  0  0
   -0.4468   17.8772   -0.4505 H   0  0  0  0  0  0  0  0  0  0  0  0
   -0.5129   16.0821   -0.4505 H   0  0  0  0  0  0  0  0  0  0  0  0
    2.2797   17.4847    0.8720 H   0  0  0  0  0  0  0  0  0  0  0  0
    3.4842   17.2052   -0.4310 H   0  0  0  0  0  0  0  0  0  0  0  0
    2.4922   18.7028   -0.4310 H   0  0  0  0  0  0  0  0  0  0  0  0
    3.2896   13.1390   -3.4065 H   0  0  0  0  0  0  0  0  0  0  0  0
    2.1274   12.2887   -4.4802 H   0  0  0  0  0  0  0  0  0  0  0  0
    2.2025   14.0835   -4.4802 H   0  0  0  0  0  0  0  0  0  0  0  0
   -0.6416   13.2414   -3.8693 H   0  0  0  0  0  0  0  0  0  0  0  0
    0.3286   11.6624   -3.8990 H   0  0  0  0  0  0  0  0  0  0  0  0
   -1.5388   12.6440   -1.7235 H   0  0  0  0  0  0  0  0  0  0  0  0
   -1.7297   11.2163   -2.8152 H   0  0  0  0  0  0  0  0  0  0  0  0
    0.8610    9.0831   -1.3926 H   0  0  0  0  0  0  0  0  0  0  0  0
   -0.3181    9.3279   -2.7254 H   0  0  0  0  0  0  0  0  0  0  0  0
    1.2369   10.2272   -2.7254 H   0  0  0  0  0  0  0  0  0  0  0  0
  1  2  1  0
  2  3  1  0
  3  4  1  0
  4  5  1  0
  5  6  1  0
  6  7  1  0
  7  8  1  0
  7  9  1  0
  2 10  1  0
 10 11  1  0
 11 12  1  0
 12 13  1  0
 13 14  1  1
 13 15  1  0
 15 16  1  0
 16 17  1  0
 17 18  2  0
 18 19  1  0
 19 20  1  0
 20 21  1  0
 21 22  1  0
 22 23  1  0
 22 24  1  0
 24 25  1  0
 24 26  1  0
 19 27  1  0
 27 28  1  6
 27 29  1  0
 29 30  1  0
 30 31  1  0
 31 32  1  6
  7  5  1  0
 31 10  1  0
 31 13  1  0
 27 15  1  0
 24 18  1  0
  1 33  1  0
  1 34  1  0
  1 35  1  0
  2 36  1  1
  3 37  1  0
  3 38  1  0
  4 39  1  0
  4 40  1  0
  5 41  1  6
  8 42  1  0
  8 43  1  0
  8 44  1  0
  9 45  1  0
  9 46  1  0
  9 47  1  0
 10 48  1  1
 11 49  1  0
 11 50  1  0
 12 51  1  0
 12 52  1  0
 14 53  1  0
 14 54  1  0
 14 55  1  0
 15 56  1  6
 16 57  1  0
 16 58  1  0
 17 59  1  0
 19 60  1  1
 20 61  1  0
 20 62  1  0
 21 63  1  0
 21 64  1  0
 22 65  1  1
 23 66  1  0
 25 67  1  0
 25 68  1  0
 25 69  1  0
 26 70  1  0
 26 71  1  0
 26 72  1  0
 28 73  1  0
 28 74  1  0
 28 75  1  0
 29 76  1  0
 29 77  1  0
 30 78  1  0
 30 79  1  0
 32 80  1  0
 32 81  1  0
 32 82  1  0
M  END
>  <meeko>  (1) 
{"is_sidechain": [false], "intermolecular_energy": 2.731, "internal_energy": -0.839}

$$$$
EPH_relaxed_0001_pdb2pqr_Repair_372_r2_0001_out
     RDKit          3D

 82 86  0  0  0  0  0  0  0  0999 V2000
    4.2710   17.3580   -0.5790 C   0  0  0  0  0  0  0  0  0  0  0  0
    2.9090   17.9730   -0.2440 C   0  0  2  0  0  0  0  0  0  0  0  0
    2.9290   18.7300    1.1000 C   0  0  0  0  0  0  0  0  0  0  0  0
    4.2870   18.6930    1.8070 C   0  0  0  0  0  0  0  0  0  0  0  0
    4.1970   19.2200    3.2070 C   0  0  2  0  0  0  0  0  0  0  0  0
    5.1930   20.1940    3.5450 O   0  0  0  0  0  0  0  0  0  0  0  0
    5.2460   18.9550    4.2700 C   0  0  0  0  0  0  0  0  0  0  0  0
    6.4610   18.1310    3.9780 C   0  0  0  0  0  0  0  0  0  0  0  0
    4.8550   19.0810    5.7090 C   0  0  0  0  0  0  0  0  0  0  0  0
    1.8410   16.8870   -0.2140 C   0  0  1  0  0  0  0  0  0  0  0  0
    0.4190   17.4400   -0.5000 C   0  0  0  0  0  0  0  0  0  0  0  0
   -0.3380   16.3420   -1.2910 C   0  0  0  0  0  0  0  0  0  0  0  0
    0.5450   15.0800   -1.1470 C   0  0  1  0  0  0  0  0  0  0  0  0
    0.1840   14.4950    0.2550 C   0  0  0  0  0  0  0  0  0  0  0  0
    0.4030   14.0060   -2.2740 C   0  0  2  0  0  0  0  0  0  0  0  0
   -0.9930   13.3690   -2.3970 C   0  0  0  0  0  0  0  0  0  0  0  0
   -1.2040   12.1350   -1.5820 C   0  0  0  0  0  0  0  0  0  0  0  0
   -0.2330   11.4010   -1.0090 C   0  0  0  0  0  0  0  0  0  0  0  0
    1.2460   11.7360   -1.2350 C   0  0  1  0  0  0  0  0  0  0  0  0
    2.0270   10.4370   -1.5670 C   0  0  0  0  0  0  0  0  0  0  0  0
    1.8300    9.3510   -0.5140 C   0  0  0  0  0  0  0  0  0  0  0  0
    0.3510    9.0040   -0.3590 C   0  0  2  0  0  0  0  0  0  0  0  0
   -0.1060    8.3870   -1.5660 O   0  0  0  0  0  0  0  0  0  0  0  0
   -0.5370   10.2370   -0.0330 C   0  0  0  0  0  0  0  0  0  0  0  0
   -0.2450   10.7230    1.4080 C   0  0  0  0  0  0  0  0  0  0  0  0
   -2.0190    9.7740   -0.0430 C   0  0  0  0  0  0  0  0  0  0  0  0
    1.5410   12.9060   -2.2690 C   0  0  1  0  0  0  0  0  0  0  0  0
    1.6120   12.3320   -3.7170 C   0  0  0  0  0  0  0  0  0  0  0  0
    2.9610   13.5170   -1.9640 C   0  0  0  0  0  0  0  0  0  0  0  0
    3.0190   14.6560   -0.9290 C   0  0  0  0  0  0  0  0  0  0  0  0
    1.9730   15.7310   -1.2380 C   0  0  2  0  0  0  0  0  0  0  0  0
    2.3230   16.3530   -2.6330 C   0  0  0  0  0  0  0  0  0  0  0  0
    4.8038   17.1174    0.3528 H   0  0  0  0  0  0  0  0  0  0  0  0
    4.1241   16.4389   -1.1652 H   0  0  0  0  0  0  0  0  0  0  0  0
    4.8633   18.0760   -1.1652 H   0  0  0  0  0  0  0  0  0  0  0  0
    2.6732   18.7038   -1.0316 H   0  0  0  0  0  0  0  0  0  0  0  0
    2.6645   19.7808    0.9107 H   0  0  0  0  0  0  0  0  0  0  0  0
    2.2079   18.2285    1.7623 H   0  0  0  0  0  0  0  0  0  0  0  0
    4.6437   17.6530    1.8397 H   0  0  0  0  0  0  0  0  0  0  0  0
    4.9843   19.3311    1.2443 H   0  0  0  0  0  0  0  0  0  0  0  0
    3.1031   19.1042    3.2052 H   0  0  0  0  0  0  0  0  0  0  0  0
    6.9261   17.8156    4.9236 H   0  0  0  0  0  0  0  0  0  0  0  0
    6.1708   17.2426    3.3979 H   0  0  0  0  0  0  0  0  0  0  0  0
    7.1790   18.7293    3.3979 H   0  0  0  0  0  0  0  0  0  0  0  0
    5.7084   18.8060    6.3463 H   0  0  0  0  0  0  0  0  0  0  0  0
    4.5601   20.1197    5.9192 H   0  0  0  0  0  0  0  0  0  0  0  0
    4.0091   18.4100    5.9192 H   0  0  0  0  0  0  0  0  0  0  0  0
    1.9942   16.5055    0.8063 H   0  0  0  0  0  0  0  0  0  0  0  0
   -0.1017   17.6528    0.4453 H   0  0  0  0  0  0  0  0  0  0  0  0
    0.4680   18.3771   -1.0740 H   0  0  0  0  0  0  0  0  0  0  0  0
   -1.3351   16.1699   -0.8594 H   0  0  0  0  0  0  0  0  0  0  0  0
   -0.4992   16.6211   -2.3427 H   0  0  0  0  0  0  0  0  0  0  0  0
    0.5882   15.1501    1.0408 H   0  0  0  0  0  0  0  0  0  0  0  0
   -0.9096   14.4331    0.3559 H   0  0  0  0  0  0  0  0  0  0  0  0
    0.6191   13.4897    0.3559 H   0  0  0  0  0  0  0  0  0  0  0  0
    0.5405   14.6038   -3.1871 H   0  0  0  0  0  0  0  0  0  0  0  0
   -1.7366   14.1159   -2.0821 H   0  0  0  0  0  0  0  0  0  0  0  0
   -1.0963   13.0615   -3.4481 H   0  0  0  0  0  0  0  0  0  0  0  0
   -2.2412   11.7979   -1.4382 H   0  0  0  0  0  0  0  0  0  0  0  0
    1.6104   12.1582   -0.2869 H   0  0  0  0  0  0  0  0  0  0  0  0
    1.6786   10.0544   -2.5377 H   0  0  0  0  0  0  0  0  0  0  0  0
    3.0977   10.6881   -1.5916 H   0  0  0  0  0  0  0  0  0  0  0  0
    2.3814    8.4494   -0.8190 H   0  0  0  0  0  0  0  0  0  0  0  0
    2.2064    9.7239    0.4500 H   0  0  0  0  0  0  0  0  0  0  0  0
    0.2607    8.3185    0.4965 H   0  0  0  0  0  0  0  0  0  0  0  0
    0.0010    7.4260   -1.4650 H   0  0  0  0  0  0  0  0  0  0  0  0
   -0.6729   10.0108    2.1289 H   0  0  0  0  0  0  0  0  0  0  0  0
    0.8425   10.7891    1.5593 H   0  0  0  0  0  0  0  0  0  0  0  0
   -0.6972   11.7143    1.5593 H   0  0  0  0  0  0  0  0  0  0  0  0
   -2.3753    9.6627    0.9917 H   0  0  0  0  0  0  0  0  0  0  0  0
   -2.6336   10.5229   -0.5639 H   0  0  0  0  0  0  0  0  0  0  0  0
   -2.0980    8.8084   -0.5639 H   0  0  0  0  0  0  0  0  0  0  0  0
    1.7469   11.2412   -3.6728 H   0  0  0  0  0  0  0  0  0  0  0  0
    0.6782   12.5647   -4.2499 H   0  0  0  0  0  0  0  0  0  0  0  0
    2.4609   12.7852   -4.2499 H   0  0  0  0  0  0  0  0  0  0  0  0
    3.6025   12.7018   -1.5980 H   0  0  0  0  0  0  0  0  0  0  0  0
    3.2883   13.9714   -2.9108 H   0  0  0  0  0  0  0  0  0  0  0  0
    2.8256   14.2429    0.0720 H   0  0  0  0  0  0  0  0  0  0  0  0
    4.0173   15.1161   -0.9693 H   0  0  0  0  0  0  0  0  0  0  0  0
    2.8577   17.3032   -2.4871 H   0  0  0  0  0  0  0  0  0  0  0  0
    2.9613   15.6558   -3.1956 H   0  0  0  0  0  0  0  0  0  0  0  0
    1.3958   16.5367   -3.1956 H   0  0  0  0  0  0  0  0  0  0  0  0
  1  2  1  0
  2  3  1  0
  3  4  1  0
  4  5  1  0
  5  6  1  0
  6  7  1  0
  7  8  1  0
  7  9  1  0
  2 10  1  0
 10 11  1  0
 11 12  1  0
 12 13  1  0
 13 14  1  1
 13 15  1  0
 15 16  1  0
 16 17  1  0
 17 18  2  0
 18 19  1  0
 19 20  1  0
 20 21  1  0
 21 22  1  0
 22 23  1  0
 22 24  1  0
 24 25  1  0
 24 26  1  0
 19 27  1  0
 27 28  1  6
 27 29  1  0
 29 30  1  0
 30 31  1  0
 31 32  1  6
  7  5  1  0
 31 10  1  0
 31 13  1  0
 27 15  1  0
 24 18  1  0
  1 33  1  0
  1 34  1  0
  1 35  1  0
  2 36  1  6
  3 37  1  0
  3 38  1  0
  4 39  1  0
  4 40  1  0
  5 41  1  1
  8 42  1  0
  8 43  1  0
  8 44  1  0
  9 45  1  0
  9 46  1  0
  9 47  1  0
 10 48  1  1
 11 49  1  0
 11 50  1  0
 12 51  1  0
 12 52  1  0
 14 53  1  0
 14 54  1  0
 14 55  1  0
 15 56  1  6
 16 57  1  0
 16 58  1  0
 17 59  1  0
 19 60  1  1
 20 61  1  0
 20 62  1  0
 21 63  1  0
 21 64  1  0
 22 65  1  1
 23 66  1  0
 25 67  1  0
 25 68  1  0
 25 69  1  0
 26 70  1  0
 26 71  1  0
 26 72  1  0
 28 73  1  0
 28 74  1  0
 28 75  1  0
 29 76  1  0
 29 77  1  0
 30 78  1  0
 30 79  1  0
 32 80  1  0
 32 81  1  0
 32 82  1  0
M  END
>  <meeko>  (2) 
{"is_sidechain": [false], "intermolecular_energy": 2.731, "internal_energy": -0.839}

$$$$
EPH_relaxed_0001_pdb2pqr_Repair_372_r2_0001_out
     RDKit          3D

 82 86  0  0  0  0  0  0  0  0999 V2000
    2.3910   18.0490   -2.6890 C   0  0  0  0  0  0  0  0  0  0  0  0
    1.0800   17.6700   -1.9950 C   0  0  2  0  0  0  0  0  0  0  0  0
    1.1930   17.7470   -0.4590 C   0  0  0  0  0  0  0  0  0  0  0  0
    0.8430   19.1220    0.1160 C   0  0  0  0  0  0  0  0  0  0  0  0
   -0.5910   19.1940    0.5460 C   0  0  2  0  0  0  0  0  0  0  0  0
   -1.4690   18.2950   -0.1430 O   0  0  0  0  0  0  0  0  0  0  0  0
   -1.7090   19.6970   -0.3480 C   0  0  0  0  0  0  0  0  0  0  0  0
   -1.4400   20.1620   -1.7450 C   0  0  0  0  0  0  0  0  0  0  0  0
   -2.9680   20.1930    0.2900 C   0  0  0  0  0  0  0  0  0  0  0  0
    0.6540   16.2690   -2.4170 C   0  0  1  0  0  0  0  0  0  0  0  0
    0.8090   16.0320   -3.9430 C   0  0  0  0  0  0  0  0  0  0  0  0
    1.2240   14.5500   -4.1260 C   0  0  0  0  0  0  0  0  0  0  0  0
    0.9730   13.9010   -2.7440 C   0  0  1  0  0  0  0  0  0  0  0  0
   -0.5580   13.6000   -2.7150 C   0  0  0  0  0  0  0  0  0  0  0  0
    1.8180   12.6280   -2.4150 C   0  0  2  0  0  0  0  0  0  0  0  0
    1.5770   11.4260   -3.3450 C   0  0  0  0  0  0  0  0  0  0  0  0
    0.5050   10.4850   -2.9050 C   0  0  0  0  0  0  0  0  0  0  0  0
   -0.0390   10.4380   -1.6750 C   0  0  0  0  0  0  0  0  0  0  0  0
    0.4910   11.3300   -0.5450 C   0  0  1  0  0  0  0  0  0  0  0  0
    0.6750   10.4820    0.7410 C   0  0  0  0  0  0  0  0  0  0  0  0
   -0.5960    9.7350    1.1350 C   0  0  0  0  0  0  0  0  0  0  0  0
   -1.0590    8.8150    0.0080 C   0  0  2  0  0  0  0  0  0  0  0  0
   -0.0950    7.7710   -0.1610 O   0  0  0  0  0  0  0  0  0  0  0  0
   -1.2680    9.5570   -1.3420 C   0  0  0  0  0  0  0  0  0  0  0  0
   -2.5120   10.4740   -1.2440 C   0  0  0  0  0  0  0  0  0  0  0  0
   -1.5960    8.4940   -2.4250 C   0  0  0  0  0  0  0  0  0  0  0  0
    1.7770   12.1980   -0.8920 C   0  0  1  0  0  0  0  0  0  0  0  0
    3.0680   11.3650   -0.6290 C   0  0  0  0  0  0  0  0  0  0  0  0
    1.8400   13.4350    0.0810 C   0  0  0  0  0  0  0  0  0  0  0  0
    1.0830   14.7030   -0.3580 C   0  0  0  0  0  0  0  0  0  0  0  0
    1.4280   15.0760   -1.8030 C   0  0  2  0  0  0  0  0  0  0  0  0
    2.9590   15.4060   -1.8590 C   0  0  0  0  0  0  0  0  0  0  0  0
    3.1566   18.2703   -1.9308 H   0  0  0  0  0  0  0  0  0  0  0  0
    2.7286   17.2117   -3.3174 H   0  0  0  0  0  0  0  0  0  0  0  0
    2.2297   18.9373   -3.3174 H   0  0  0  0  0  0  0  0  0  0  0  0
    0.3177   18.3992   -2.3068 H   0  0  0  0  0  0  0  0  0  0  0  0
    0.5091   17.0040   -0.0229 H   0  0  0  0  0  0  0  0  0  0  0  0
    2.2448   17.5503   -0.2039 H   0  0  0  0  0  0  0  0  0  0  0  0
    1.4865   19.3189    0.9862 H   0  0  0  0  0  0  0  0  0  0  0  0
    1.0034   19.8738   -0.6708 H   0  0  0  0  0  0  0  0  0  0  0  0
   -0.2938   19.4542    1.5727 H   0  0  0  0  0  0  0  0  0  0  0  0
   -0.8894   21.1138   -1.7150 H   0  0  0  0  0  0  0  0  0  0  0  0
   -0.8390   19.4072   -2.2734 H   0  0  0  0  0  0  0  0  0  0  0  0
   -2.3939   20.3067   -2.2734 H   0  0  0  0  0  0  0  0  0  0  0  0
   -2.8651   20.1525    1.3844 H   0  0  0  0  0  0  0  0  0  0  0  0
   -3.1531   21.2313   -0.0227 H   0  0  0  0  0  0  0  0  0  0  0  0
   -3.8115   19.5600   -0.0227 H   0  0  0  0  0  0  0  0  0  0  0  0
   -0.3834   16.2732   -2.0513 H   0  0  0  0  0  0  0  0  0  0  0  0
   -0.1455   16.2240   -4.4549 H   0  0  0  0  0  0  0  0  0  0  0  0
    1.5620   16.7088   -4.3731 H   0  0  0  0  0  0  0  0  0  0  0  0
    0.6086   14.0671   -4.8994 H   0  0  0  0  0  0  0  0  0  0  0  0
    2.2696   14.4467   -4.4517 H   0  0  0  0  0  0  0  0  0  0  0  0
   -0.8988   13.5330   -1.6713 H   0  0  0  0  0  0  0  0  0  0  0  0
   -1.1004   14.4087   -3.2266 H   0  0  0  0  0  0  0  0  0  0  0  0
   -0.7539   12.6461   -3.2266 H   0  0  0  0  0  0  0  0  0  0  0  0
    2.8438   12.9660   -2.6238 H   0  0  0  0  0  0  0  0  0  0  0  0
    1.3030   11.8135   -4.3374 H   0  0  0  0  0  0  0  0  0  0  0  0
    2.5117   10.8460   -3.3415 H   0  0  0  0  0  0  0  0  0  0  0  0
    0.1275    9.7689   -3.6497 H   0  0  0  0  0  0  0  0  0  0  0  0
   -0.2778   12.0989   -0.3787 H   0  0  0  0  0  0  0  0  0  0  0  0
    1.4762    9.7484    0.5682 H   0  0  0  0  0  0  0  0  0  0  0  0
    0.9266   11.1697    1.5618 H   0  0  0  0  0  0  0  0  0  0  0  0
   -0.3956    9.1319    2.0328 H   0  0  0  0  0  0  0  0  0  0  0  0
   -1.3884   10.4712    1.3355 H   0  0  0  0  0  0  0  0  0  0  0  0
   -2.0390    8.4075    0.2969 H   0  0  0  0  0  0  0  0  0  0  0  0
   -0.5200    7.0560   -0.6640 H   0  0  0  0  0  0  0  0  0  0  0  0
   -2.7537   10.6522   -0.1858 H   0  0  0  0  0  0  0  0  0  0  0  0
   -2.3001   11.4336   -1.7383 H   0  0  0  0  0  0  0  0  0  0  0  0
   -3.3659    9.9876   -1.7383 H   0  0  0  0  0  0  0  0  0  0  0  0
   -1.8868    7.5517   -1.9377 H   0  0  0  0  0  0  0  0  0  0  0  0
   -2.4250    8.8534   -3.0523 H   0  0  0  0  0  0  0  0  0  0  0  0
   -0.7086    8.3238   -3.0523 H   0  0  0  0  0  0  0  0  0  0  0  0
    3.2246   11.2639    0.4551 H   0  0  0  0  0  0  0  0  0  0  0  0
    2.9583   10.3669   -1.0782 H   0  0  0  0  0  0  0  0  0  0  0  0
    3.9321   11.8763   -1.0782 H   0  0  0  0  0  0  0  0  0  0  0  0
    1.4253   13.1183    1.0493 H   0  0  0  0  0  0  0  0  0  0  0  0
    2.9002   13.7271    0.1071 H   0  0  0  0  0  0  0  0  0  0  0  0
    0.0009   14.5202   -0.2823 H   0  0  0  0  0  0  0  0  0  0  0  0
    1.3806   15.5337    0.2988 H   0  0  0  0  0  0  0  0  0  0  0  0
    3.3534   15.4910   -0.8357 H   0  0  0  0  0  0  0  0  0  0  0  0
    3.4883   14.6013   -2.3903 H   0  0  0  0  0  0  0  0  0  0  0  0
    3.1098   16.3573   -2.3903 H   0  0  0  0  0  0  0  0  0  0  0  0
  1  2  1  0
  2  3  1  0
  3  4  1  0
  4  5  1  0
  5  6  1  0
  6  7  1  0
  7  8  1  0
  7  9  1  0
  2 10  1  0
 10 11  1  0
 11 12  1  0
 12 13  1  0
 13 14  1  1
 13 15  1  0
 15 16  1  0
 16 17  1  0
 17 18  2  0
 18 19  1  0
 19 20  1  0
 20 21  1  0
 21 22  1  0
 22 23  1  0
 22 24  1  0
 24 25  1  0
 24 26  1  0
 19 27  1  0
 27 28  1  1
 27 29  1  0
 29 30  1  0
 30 31  1  0
 31 32  1  1
  7  5  1  0
 31 10  1  0
 31 13  1  0
 27 15  1  0
 24 18  1  0
  1 33  1  0
  1 34  1  0
  1 35  1  0
  2 36  1  6
  3 37  1  0
  3 38  1  0
  4 39  1  0
  4 40  1  0
  5 41  1  1
  8 42  1  0
  8 43  1  0
  8 44  1  0
  9 45  1  0
  9 46  1  0
  9 47  1  0
 10 48  1  6
 11 49  1  0
 11 50  1  0
 12 51  1  0
 12 52  1  0
 14 53  1  0
 14 54  1  0
 14 55  1  0
 15 56  1  6
 16 57  1  0
 16 58  1  0
 17 59  1  0
 19 60  1  1
 20 61  1  0
 20 62  1  0
 21 63  1  0
 21 64  1  0
 22 65  1  1
 23 66  1  0
 25 67  1  0
 25 68  1  0
 25 69  1  0
 26 70  1  0
 26 71  1  0
 26 72  1  0
 28 73  1  0
 28 74  1  0
 28 75  1  0
 29 76  1  0
 29 77  1  0
 30 78  1  0
 30 79  1  0
 32 80  1  0
 32 81  1  0
 32 82  1  0
M  END
>  <meeko>  (3) 
{"is_sidechain": [false], "intermolecular_energy": 2.731, "internal_energy": -0.839}

$$$$
EPH_relaxed_0001_pdb2pqr_Repair_372_r2_0001_out
     RDKit          3D

 82 86  0  0  0  0  0  0  0  0999 V2000
    0.4120   18.3910   -0.0120 C   0  0  0  0  0  0  0  0  0  0  0  0
    1.5010   17.3410   -0.2480 C   0  0  2  0  0  0  0  0  0  0  0  0
    2.7010   17.9140   -1.0270 C   0  0  0  0  0  0  0  0  0  0  0  0
    3.9350   18.1690   -0.1570 C   0  0  0  0  0  0  0  0  0  0  0  0
    3.5580   18.6380    1.2160 C   0  0  2  0  0  0  0  0  0  0  0  0
    3.8080   20.0270    1.4640 O   0  0  0  0  0  0  0  0  0  0  0  0
    4.5680   19.0960    2.2510 C   0  0  0  0  0  0  0  0  0  0  0  0
    6.0360   19.1070    1.9570 C   0  0  0  0  0  0  0  0  0  0  0  0
    4.1770   19.0660    3.6950 C   0  0  0  0  0  0  0  0  0  0  0  0
    0.9180   16.1460   -0.9930 C   0  0  1  0  0  0  0  0  0  0  0  0
    0.7750   16.4050   -2.5170 C   0  0  0  0  0  0  0  0  0  0  0  0
    1.0560   15.0560   -3.2280 C   0  0  0  0  0  0  0  0  0  0  0  0
    1.0230   14.0040   -2.0950 C   0  0  1  0  0  0  0  0  0  0  0  0
   -0.4930   13.7110   -1.8640 C   0  0  0  0  0  0  0  0  0  0  0  0
    1.8320   12.6910   -2.3480 C   0  0  2  0  0  0  0  0  0  0  0  0
    1.3500   11.8460   -3.5400 C   0  0  0  0  0  0  0  0  0  0  0  0
    0.3200   10.8150   -3.2160 C   0  0  0  0  0  0  0  0  0  0  0  0
    0.0090   10.3820   -1.9800 C   0  0  0  0  0  0  0  0  0  0  0  0
    0.7930   10.8690   -0.7540 C   0  0  1  0  0  0  0  0  0  0  0  0
    1.1560    9.6570    0.1440 C   0  0  0  0  0  0  0  0  0  0  0  0
   -0.0650    8.8250    0.5250 C   0  0  0  0  0  0  0  0  0  0  0  0
   -0.7840    8.3100   -0.7200 C   0  0  2  0  0  0  0  0  0  0  0  0
    0.0660    7.3720   -1.3880 O   0  0  0  0  0  0  0  0  0  0  0  0
   -1.1900    9.4410   -1.7050 C   0  0  0  0  0  0  0  0  0  0  0  0
   -2.3350   10.2820   -1.0880 C   0  0  0  0  0  0  0  0  0  0  0  0
   -1.7780    8.7770   -2.9790 C   0  0  0  0  0  0  0  0  0  0  0  0
    2.0440   11.8010   -1.0570 C   0  0  1  0  0  0  0  0  0  0  0  0
    3.3070   10.9260   -1.3210 C   0  0  0  0  0  0  0  0  0  0  0  0
    2.3620   12.6650    0.2200 C   0  0  0  0  0  0  0  0  0  0  0  0
    1.6180   14.0080    0.3530 C   0  0  0  0  0  0  0  0  0  0  0  0
    1.7150   14.8190   -0.9430 C   0  0  2  0  0  0  0  0  0  0  0  0
    3.2270   15.1480   -1.1890 C   0  0  0  0  0  0  0  0  0  0  0  0
    0.2663   18.5315    1.0692 H   0  0  0  0  0  0  0  0  0  0  0  0
    0.7171   19.3445   -0.4678 H   0  0  0  0  0  0  0  0  0  0  0  0
   -0.5297   18.0514   -0.4678 H   0  0  0  0  0  0  0  0  0  0  0  0
    1.8706   17.0202    0.7372 H   0  0  0  0  0  0  0  0  0  0  0  0
    2.9750   17.1996   -1.8173 H   0  0  0  0  0  0  0  0  0  0  0  0
    2.3863   18.8873   -1.4315 H   0  0  0  0  0  0  0  0  0  0  0  0
    4.5088   17.2346   -0.0695 H   0  0  0  0  0  0  0  0  0  0  0  0
    4.5352   18.9568   -0.6357 H   0  0  0  0  0  0  0  0  0  0  0  0
    2.7320   17.9129    1.2618 H   0  0  0  0  0  0  0  0  0  0  0  0
    6.5992   19.1112    2.9019 H   0  0  0  0  0  0  0  0  0  0  0  0
    6.3004   18.2108    1.3765 H   0  0  0  0  0  0  0  0  0  0  0  0
    6.2870   20.0071    1.3765 H   0  0  0  0  0  0  0  0  0  0  0  0
    5.0791   19.1352    4.3206 H   0  0  0  0  0  0  0  0  0  0  0  0
    3.5135   19.9159    3.9130 H   0  0  0  0  0  0  0  0  0  0  0  0
    3.6509   18.1249    3.9130 H   0  0  0  0  0  0  0  0  0  0  0  0
   -0.0319   16.0350   -0.4495 H   0  0  0  0  0  0  0  0  0  0  0  0
   -0.2433   16.7504   -2.7487 H   0  0  0  0  0  0  0  0  0  0  0  0
    1.4768   17.1825   -2.8532 H   0  0  0  0  0  0  0  0  0  0  0  0
    0.2801   14.8433   -3.9782 H   0  0  0  0  0  0  0  0  0  0  0  0
    2.0154   15.0598   -3.7661 H   0  0  0  0  0  0  0  0  0  0  0  0
   -0.6984   13.6713   -0.7841 H   0  0  0  0  0  0  0  0  0  0  0  0
   -1.0948   14.5095   -2.3226 H   0  0  0  0  0  0  0  0  0  0  0  0
   -0.7539   12.7458   -2.3226 H   0  0  0  0  0  0  0  0  0  0  0  0
    2.8212   13.0764   -2.6362 H   0  0  0  0  0  0  0  0  0  0  0  0
    0.9236   12.5284   -4.2900 H   0  0  0  0  0  0  0  0  0  0  0  0
    2.2315   11.2936   -3.8975 H   0  0  0  0  0  0  0  0  0  0  0  0
   -0.2313   10.3718   -4.0584 H   0  0  0  0  0  0  0  0  0  0  0  0
    0.1179   11.5464   -0.2105 H   0  0  0  0  0  0  0  0  0  0  0  0
    1.8646    9.0149   -0.3997 H   0  0  0  0  0  0  0  0  0  0  0  0
    1.5959   10.0493    1.0728 H   0  0  0  0  0  0  0  0  0  0  0  0
    0.2589    7.9682    1.1341 H   0  0  0  0  0  0  0  0  0  0  0  0
   -0.7595    9.4605    1.0941 H   0  0  0  0  0  0  0  0  0  0  0  0
   -1.7182    7.8335   -0.3881 H   0  0  0  0  0  0  0  0  0  0  0  0
    0.8600    7.8510   -1.6800 H   0  0  0  0  0  0  0  0  0  0  0  0
   -2.2731   10.2365    0.0093 H   0  0  0  0  0  0  0  0  0  0  0  0
   -2.2409   11.3272   -1.4176 H   0  0  0  0  0  0  0  0  0  0  0  0
   -3.3042    9.8795   -1.4176 H   0  0  0  0  0  0  0  0  0  0  0  0
   -2.4812    7.9830   -2.6874 H   0  0  0  0  0  0  0  0  0  0  0  0
   -2.3071    9.5342   -3.5762 H   0  0  0  0  0  0  0  0  0  0  0  0
   -0.9624    8.3433   -3.5762 H   0  0  0  0  0  0  0  0  0  0  0  0
    3.7484   10.6202   -0.3610 H   0  0  0  0  0  0  0  0  0  0  0  0
    3.0204   10.0319   -1.8941 H   0  0  0  0  0  0  0  0  0  0  0  0
    4.0433   11.5085   -1.8941 H   0  0  0  0  0  0  0  0  0  0  0  0
    2.1133   12.0579    1.1030 H   0  0  0  0  0  0  0  0  0  0  0  0
    3.4251   12.9326    0.1292 H   0  0  0  0  0  0  0  0  0  0  0  0
    0.5589   13.8121    0.5765 H   0  0  0  0  0  0  0  0  0  0  0  0
    2.0820   14.5872    1.1649 H   0  0  0  0  0  0  0  0  0  0  0  0
    3.7399   15.2596   -0.2223 H   0  0  0  0  0  0  0  0  0  0  0  0
    3.6922   14.3301   -1.7587 H   0  0  0  0  0  0  0  0  0  0  0  0
    3.3103   16.0853   -1.7587 H   0  0  0  0  0  0  0  0  0  0  0  0
  1  2  1  0
  2  3  1  0
  3  4  1  0
  4  5  1  0
  5  6  1  0
  6  7  1  0
  7  8  1  0
  7  9  1  0
  2 10  1  0
 10 11  1  0
 11 12  1  0
 12 13  1  0
 13 14  1  1
 13 15  1  0
 15 16  1  0
 16 17  1  0
 17 18  2  0
 18 19  1  0
 19 20  1  0
 20 21  1  0
 21 22  1  0
 22 23  1  0
 22 24  1  0
 24 25  1  0
 24 26  1  0
 19 27  1  0
 27 28  1  6
 27 29  1  0
 29 30  1  0
 30 31  1  0
 31 32  1  6
  7  5  1  0
 31 10  1  0
 31 13  1  0
 27 15  1  0
 24 18  1  0
  1 33  1  0
  1 34  1  0
  1 35  1  0
  2 36  1  1
  3 37  1  0
  3 38  1  0
  4 39  1  0
  4 40  1  0
  5 41  1  1
  8 42  1  0
  8 43  1  0
  8 44  1  0
  9 45  1  0
  9 46  1  0
  9 47  1  0
 10 48  1  1
 11 49  1  0
 11 50  1  0
 12 51  1  0
 12 52  1  0
 14 53  1  0
 14 54  1  0
 14 55  1  0
 15 56  1  6
 16 57  1  0
 16 58  1  0
 17 59  1  0
 19 60  1  1
 20 61  1  0
 20 62  1  0
 21 63  1  0
 21 64  1  0
 22 65  1  1
 23 66  1  0
 25 67  1  0
 25 68  1  0
 25 69  1  0
 26 70  1  0
 26 71  1  0
 26 72  1  0
 28 73  1  0
 28 74  1  0
 28 75  1  0
 29 76  1  0
 29 77  1  0
 30 78  1  0
 30 79  1  0
 32 80  1  0
 32 81  1  0
 32 82  1  0
M  END
>  <meeko>  (4) 
{"is_sidechain": [false], "intermolecular_energy": 2.731, "internal_energy": -0.839}

$$$$
EPH_relaxed_0001_pdb2pqr_Repair_372_r2_0001_out
     RDKit          3D

 82 86  0  0  0  0  0  0  0  0999 V2000
    3.8840   17.4390    0.3710 C   0  0  0  0  0  0  0  0  0  0  0  0
    2.8080   17.7950   -0.6580 C   0  0  2  0  0  0  0  0  0  0  0  0
    2.1770   19.1750   -0.3850 C   0  0  0  0  0  0  0  0  0  0  0  0
    1.1310   19.1640    0.7330 C   0  0  0  0  0  0  0  0  0  0  0  0
   -0.0820   19.9640    0.3650 C   0  0  2  0  0  0  0  0  0  0  0  0
   -0.9970   20.1940    1.4440 O   0  0  0  0  0  0  0  0  0  0  0  0
   -1.4880   19.3950    0.3560 C   0  0  0  0  0  0  0  0  0  0  0  0
   -1.7550   17.9680    0.7210 C   0  0  0  0  0  0  0  0  0  0  0  0
   -2.5320   20.0790   -0.4720 C   0  0  0  0  0  0  0  0  0  0  0  0
    1.7260   16.7210   -0.6710 C   0  0  1  0  0  0  0  0  0  0  0  0
    0.3820   17.2340   -1.2530 C   0  0  0  0  0  0  0  0  0  0  0  0
   -0.2580   16.0460   -2.0150 C   0  0  0  0  0  0  0  0  0  0  0  0
    0.5620   14.8110   -1.5730 C   0  0  1  0  0  0  0  0  0  0  0  0
   -0.0350   14.4080   -0.1880 C   0  0  0  0  0  0  0  0  0  0  0  0
    0.5830   13.6040   -2.5650 C   0  0  2  0  0  0  0  0  0  0  0  0
   -0.7860   12.9570   -2.8360 C   0  0  0  0  0  0  0  0  0  0  0  0
   -1.1540   11.8360   -1.9210 C   0  0  0  0  0  0  0  0  0  0  0  0
   -0.3060   11.1790   -1.1090 C   0  0  0  0  0  0  0  0  0  0  0  0
    1.1980   11.4830   -1.1280 C   0  0  1  0  0  0  0  0  0  0  0  0
    1.9940   10.1520   -1.1630 C   0  0  0  0  0  0  0  0  0  0  0  0
    1.6050    9.2080   -0.0300 C   0  0  0  0  0  0  0  0  0  0  0  0
    0.1140    8.8830   -0.0790 C   0  0  2  0  0  0  0  0  0  0  0  0
   -0.1530    8.1190   -1.2600 O   0  0  0  0  0  0  0  0  0  0  0  0
   -0.7890   10.1480   -0.0600 C   0  0  0  0  0  0  0  0  0  0  0  0
   -0.7260   10.8110    1.3390 C   0  0  0  0  0  0  0  0  0  0  0  0
   -2.2590    9.6880   -0.2560 C   0  0  0  0  0  0  0  0  0  0  0  0
    1.6820   12.5140   -2.2370 C   0  0  1  0  0  0  0  0  0  0  0  0
    1.9760   11.7610   -3.5710 C   0  0  0  0  0  0  0  0  0  0  0  0
    3.0450   13.1570   -1.7800 C   0  0  0  0  0  0  0  0  0  0  0  0
    2.9580   14.4170   -0.8990 C   0  0  0  0  0  0  0  0  0  0  0  0
    1.9990   15.4460   -1.5070 C   0  0  2  0  0  0  0  0  0  0  0  0
    2.5850   15.8870   -2.8910 C   0  0  0  0  0  0  0  0  0  0  0  0
    3.4799   17.5727    1.3853 H   0  0  0  0  0  0  0  0  0  0  0  0
    4.1905   16.3916    0.2336 H   0  0  0  0  0  0  0  0  0  0  0  0
    4.7548   18.0969    0.2336 H   0  0  0  0  0  0  0  0  0  0  0  0
    3.2954   17.8441   -1.6429 H   0  0  0  0  0  0  0  0  0  0  0  0
    2.9786   19.8737   -0.1035 H   0  0  0  0  0  0  0  0  0  0  0  0
    1.6590   19.4792   -1.3065 H   0  0  0  0  0  0  0  0  0  0  0  0
    0.8273   18.1247    0.9268 H   0  0  0  0  0  0  0  0  0  0  0  0
    1.5815   19.6165    1.6287 H   0  0  0  0  0  0  0  0  0  0  0  0
    0.4897   20.5298   -0.3853 H   0  0  0  0  0  0  0  0  0  0  0  0
   -1.7739   17.8670    1.8162 H   0  0  0  0  0  0  0  0  0  0  0  0
   -2.7265   17.6594    0.3075 H   0  0  0  0  0  0  0  0  0  0  0  0
   -0.9608   17.3290    0.3075 H   0  0  0  0  0  0  0  0  0  0  0  0
   -3.2671   20.5606    0.1895 H   0  0  0  0  0  0  0  0  0  0  0  0
   -2.0556   20.8406   -1.1068 H   0  0  0  0  0  0  0  0  0  0  0  0
   -3.0400   19.3381   -1.1068 H   0  0  0  0  0  0  0  0  0  0  0  0
    1.7025   16.4707    0.3999 H   0  0  0  0  0  0  0  0  0  0  0  0
   -0.2814   17.5640   -0.4400 H   0  0  0  0  0  0  0  0  0  0  0  0
    0.5434   18.0916   -1.9226 H   0  0  0  0  0  0  0  0  0  0  0  0
   -1.3156   15.9301   -1.7356 H   0  0  0  0  0  0  0  0  0  0  0  0
   -0.2386   16.1909   -3.1052 H   0  0  0  0  0  0  0  0  0  0  0  0
    0.5874   14.8281    0.6158 H   0  0  0  0  0  0  0  0  0  0  0  0
   -1.0590   14.8004   -0.1020 H   0  0  0  0  0  0  0  0  0  0  0  0
   -0.0540   13.3115   -0.1020 H   0  0  0  0  0  0  0  0  0  0  0  0
    0.8794   14.0823   -3.5102 H   0  0  0  0  0  0  0  0  0  0  0  0
   -1.5553   13.7378   -2.7434 H   0  0  0  0  0  0  0  0  0  0  0  0
   -0.7216   12.5192   -3.8430 H   0  0  0  0  0  0  0  0  0  0  0  0
   -2.2077   11.5206   -1.9098 H   0  0  0  0  0  0  0  0  0  0  0  0
    1.4127   12.0213   -0.1931 H   0  0  0  0  0  0  0  0  0  0  0  0
    1.7999    9.6502   -2.1224 H   0  0  0  0  0  0  0  0  0  0  0  0
    3.0596   10.3969   -1.0425 H   0  0  0  0  0  0  0  0  0  0  0  0
    2.1802    8.2752   -0.1250 H   0  0  0  0  0  0  0  0  0  0  0  0
    1.8261    9.6999    0.9287 H   0  0  0  0  0  0  0  0  0  0  0  0
   -0.1290    8.3101    0.8280 H   0  0  0  0  0  0  0  0  0  0  0  0
    0.2110    8.6100   -2.0160 H   0  0  0  0  0  0  0  0  0  0  0  0
   -0.7997   10.0357    2.1158 H   0  0  0  0  0  0  0  0  0  0  0  0
    0.2273   11.3490    1.4472 H   0  0  0  0  0  0  0  0  0  0  0  0
   -1.5609   11.5190    1.4472 H   0  0  0  0  0  0  0  0  0  0  0  0
   -2.7311    9.5403    0.7265 H   0  0  0  0  0  0  0  0  0  0  0  0
   -2.8119   10.4561   -0.8167 H   0  0  0  0  0  0  0  0  0  0  0  0
   -2.2754    8.7418   -0.8167 H   0  0  0  0  0  0  0  0  0  0  0  0
    2.3677   10.7578   -3.3471 H   0  0  0  0  0  0  0  0  0  0  0  0
    1.0472   11.6704   -4.1533 H   0  0  0  0  0  0  0  0  0  0  0  0
    2.7205   12.3238   -4.1533 H   0  0  0  0  0  0  0  0  0  0  0  0
    3.6000   12.3937   -1.2150 H   0  0  0  0  0  0  0  0  0  0  0  0
    3.5323   13.4886   -2.7088 H   0  0  0  0  0  0  0  0  0  0  0  0
    2.5953   14.1333    0.1000 H   0  0  0  0  0  0  0  0  0  0  0  0
    3.9592   14.8676   -0.8314 H   0  0  0  0  0  0  0  0  0  0  0  0
    3.4544   16.5413   -2.7294 H   0  0  0  0  0  0  0  0  0  0  0  0
    2.8961   14.9971   -3.4578 H   0  0  0  0  0  0  0  0  0  0  0  0
    1.8160   16.4324   -3.4578 H   0  0  0  0  0  0  0  0  0  0  0  0
  1  2  1  0
  2  3  1  0
  3  4  1  0
  4  5  1  0
  5  6  1  0
  6  7  1  0
  7  8  1  0
  7  9  1  0
  2 10  1  0
 10 11  1  0
 11 12  1  0
 12 13  1  0
 13 14  1  1
 13 15  1  0
 15 16  1  0
 16 17  1  0
 17 18  2  0
 18 19  1  0
 19 20  1  0
 20 21  1  0
 21 22  1  0
 22 23  1  0
 22 24  1  0
 24 25  1  0
 24 26  1  0
 19 27  1  0
 27 28  1  6
 27 29  1  0
 29 30  1  0
 30 31  1  0
 31 32  1  6
  7  5  1  0
 31 10  1  0
 31 13  1  0
 27 15  1  0
 24 18  1  0
  1 33  1  0
  1 34  1  0
  1 35  1  0
  2 36  1  6
  3 37  1  0
  3 38  1  0
  4 39  1  0
  4 40  1  0
  5 41  1  6
  8 42  1  0
  8 43  1  0
  8 44  1  0
  9 45  1  0
  9 46  1  0
  9 47  1  0
 10 48  1  1
 11 49  1  0
 11 50  1  0
 12 51  1  0
 12 52  1  0
 14 53  1  0
 14 54  1  0
 14 55  1  0
 15 56  1  6
 16 57  1  0
 16 58  1  0
 17 59  1  0
 19 60  1  1
 20 61  1  0
 20 62  1  0
 21 63  1  0
 21 64  1  0
 22 65  1  1
 23 66  1  0
 25 67  1  0
 25 68  1  0
 25 69  1  0
 26 70  1  0
 26 71  1  0
 26 72  1  0
 28 73  1  0
 28 74  1  0
 28 75  1  0
 29 76  1  0
 29 77  1  0
 30 78  1  0
 30 79  1  0
 32 80  1  0
 32 81  1  0
 32 82  1  0
M  END
>  <meeko>  (5) 
{"is_sidechain": [false], "intermolecular_energy": 2.731, "internal_energy": -0.839}

$$$$
EPH_relaxed_0001_pdb2pqr_Repair_372_r2_0001_out
     RDKit          3D

 82 86  0  0  0  0  0  0  0  0999 V2000
    0.4280    8.8010   -2.3610 C   0  0  0  0  0  0  0  0  0  0  0  0
    1.1690    9.9430   -3.0630 C   0  0  2  0  0  0  0  0  0  0  0  0
    2.6710    9.9620   -2.7130 C   0  0  0  0  0  0  0  0  0  0  0  0
    3.5510   10.5640   -3.8130 C   0  0  0  0  0  0  0  0  0  0  0  0
    4.9470   10.8160   -3.3290 C   0  0  2  0  0  0  0  0  0  0  0  0
    5.5360   12.0320   -3.8090 O   0  0  0  0  0  0  0  0  0  0  0  0
    6.1610   10.8120   -4.2390 C   0  0  0  0  0  0  0  0  0  0  0  0
    6.0350   10.5490   -5.7070 C   0  0  0  0  0  0  0  0  0  0  0  0
    7.5090   10.5780   -3.6320 C   0  0  0  0  0  0  0  0  0  0  0  0
    0.5320   11.2780   -2.6960 C   0  0  1  0  0  0  0  0  0  0  0  0
   -0.8440   11.1120   -1.9970 C   0  0  0  0  0  0  0  0  0  0  0  0
   -0.9570   12.2530   -0.9540 C   0  0  0  0  0  0  0  0  0  0  0  0
    0.1930   13.2230   -1.3110 C   0  0  1  0  0  0  0  0  0  0  0  0
   -0.3580   14.0800   -2.4940 C   0  0  0  0  0  0  0  0  0  0  0  0
    0.7260   14.1210   -0.1470 C   0  0  2  0  0  0  0  0  0  0  0  0
   -0.3030   15.0990    0.4460 C   0  0  0  0  0  0  0  0  0  0  0  0
   -0.3470   16.4460   -0.1970 C   0  0  0  0  0  0  0  0  0  0  0  0
    0.5940   16.9530   -1.0150 C   0  0  0  0  0  0  0  0  0  0  0  0
    1.8940   16.1870   -1.2910 C   0  0  1  0  0  0  0  0  0  0  0  0
    3.1010   17.1530   -1.1640 C   0  0  0  0  0  0  0  0  0  0  0  0
    2.9550   18.3900   -2.0450 C   0  0  0  0  0  0  0  0  0  0  0  0
    1.6810   19.1570   -1.7010 C   0  0  2  0  0  0  0  0  0  0  0  0
    1.8090   19.6980   -0.3830 O   0  0  0  0  0  0  0  0  0  0  0  0
    0.3980   18.2830   -1.7850 C   0  0  0  0  0  0  0  0  0  0  0  0
    0.0930   17.9470   -3.2660 C   0  0  0  0  0  0  0  0  0  0  0  0
   -0.7950   19.1360   -1.2790 C   0  0  0  0  0  0  0  0  0  0  0  0
    2.0970   14.8450   -0.4630 C   0  0  1  0  0  0  0  0  0  0  0  0
    2.7600   15.1630    0.9120 C   0  0  0  0  0  0  0  0  0  0  0  0
    3.1020   13.9120   -1.2360 C   0  0  0  0  0  0  0  0  0  0  0  0
    2.5000   12.9620   -2.2890 C   0  0  0  0  0  0  0  0  0  0  0  0
    1.3080   12.1910   -1.7140 C   0  0  2  0  0  0  0  0  0  0  0  0
    1.8360   11.3030   -0.5360 C   0  0  0  0  0  0  0  0  0  0  0  0
    0.5093    8.9264   -1.2712 H   0  0  0  0  0  0  0  0  0  0  0  0
   -0.6322    8.8171   -2.6538 H   0  0  0  0  0  0  0  0  0  0  0  0
    0.8747    7.8394   -2.6538 H   0  0  0  0  0  0  0  0  0  0  0  0
    1.0846    9.7760   -4.1470 H   0  0  0  0  0  0  0  0  0  0  0  0
    2.8067   10.5546   -1.7962 H   0  0  0  0  0  0  0  0  0  0  0  0
    2.9852    8.9155   -2.5860 H   0  0  0  0  0  0  0  0  0  0  0  0
    3.5885    9.8655   -4.6620 H   0  0  0  0  0  0  0  0  0  0  0  0
    3.1131   11.5270   -4.1145 H   0  0  0  0  0  0  0  0  0  0  0  0
    4.7357   10.3041   -2.3786 H   0  0  0  0  0  0  0  0  0  0  0  0
    5.5646    9.5672   -5.8646 H   0  0  0  0  0  0  0  0  0  0  0  0
    5.4139   11.3313   -6.1677 H   0  0  0  0  0  0  0  0  0  0  0  0
    7.0339   10.5552   -6.1677 H   0  0  0  0  0  0  0  0  0  0  0  0
    7.4248   10.5926   -2.5353 H   0  0  0  0  0  0  0  0  0  0  0  0
    7.8928    9.5998   -3.9573 H   0  0  0  0  0  0  0  0  0  0  0  0
    8.2000   11.3696   -3.9573 H   0  0  0  0  0  0  0  0  0  0  0  0
    0.4937   11.7429   -3.6922 H   0  0  0  0  0  0  0  0  0  0  0  0
   -1.6557   11.1918   -2.7350 H   0  0  0  0  0  0  0  0  0  0  0  0
   -0.9253   10.1268   -1.5146 H   0  0  0  0  0  0  0  0  0  0  0  0
   -1.9306   12.7584   -1.0353 H   0  0  0  0  0  0  0  0  0  0  0  0
   -0.8846   11.8824    0.0792 H   0  0  0  0  0  0  0  0  0  0  0  0
   -0.9124   14.9423   -2.0950 H   0  0  0  0  0  0  0  0  0  0  0  0
    0.4806   14.4365   -3.1102 H   0  0  0  0  0  0  0  0  0  0  0  0
   -1.0304   13.4650   -3.1102 H   0  0  0  0  0  0  0  0  0  0  0  0
    0.9291   13.3852    0.6450 H   0  0  0  0  0  0  0  0  0  0  0  0
   -1.2996   14.6436    0.3495 H   0  0  0  0  0  0  0  0  0  0  0  0
    0.0045   15.2693    1.4883 H   0  0  0  0  0  0  0  0  0  0  0  0
   -1.2224   17.0772    0.0158 H   0  0  0  0  0  0  0  0  0  0  0  0
    1.8170   15.8196   -2.3250 H   0  0  0  0  0  0  0  0  0  0  0  0
    3.1864   17.4748   -0.1156 H   0  0  0  0  0  0  0  0  0  0  0  0
    3.9990   16.6110   -1.4954 H   0  0  0  0  0  0  0  0  0  0  0  0
    3.8236   19.0469   -1.8902 H   0  0  0  0  0  0  0  0  0  0  0  0
    2.8986   18.0684   -3.0954 H   0  0  0  0  0  0  0  0  0  0  0  0
    1.5659   19.9560   -2.4482 H   0  0  0  0  0  0  0  0  0  0  0  0
    2.7180   19.5260   -0.0820 H   0  0  0  0  0  0  0  0  0  0  0  0
   -0.6457   17.1333   -3.3127 H   0  0  0  0  0  0  0  0  0  0  0  0
   -0.3110   18.8382   -3.7685 H   0  0  0  0  0  0  0  0  0  0  0  0
    1.0191   17.6309   -3.7685 H   0  0  0  0  0  0  0  0  0  0  0  0
   -0.8018   19.1409   -0.1790 H   0  0  0  0  0  0  0  0  0  0  0  0
   -0.6922   20.1666   -1.6496 H   0  0  0  0  0  0  0  0  0  0  0  0
   -1.7369   18.7054   -1.6496 H   0  0  0  0  0  0  0  0  0  0  0  0
    2.0913   14.8423    1.7244 H   0  0  0  0  0  0  0  0  0  0  0  0
    3.7166   14.6257    0.9908 H   0  0  0  0  0  0  0  0  0  0  0  0
    2.9398   16.2453    0.9908 H   0  0  0  0  0  0  0  0  0  0  0  0
    3.8291   14.5589   -1.7487 H   0  0  0  0  0  0  0  0  0  0  0  0
    3.5319   13.2533   -0.4671 H   0  0  0  0  0  0  0  0  0  0  0  0
    2.1636   13.5513   -3.1548 H   0  0  0  0  0  0  0  0  0  0  0  0
    3.2721   12.2393   -2.5917 H   0  0  0  0  0  0  0  0  0  0  0  0
    1.5611   11.7654    0.4235 H   0  0  0  0  0  0  0  0  0  0  0  0
    1.3868   10.3011   -0.6022 H   0  0  0  0  0  0  0  0  0  0  0  0
    2.9308   11.2191   -0.6022 H   0  0  0  0  0  0  0  0  0  0  0  0
  1  2  1  0
  2  3  1  0
  3  4  1  0
  4  5  1  0
  5  6  1  0
  6  7  1  0
  7  8  1  0
  7  9  1  0
  2 10  1  0
 10 11  1  0
 11 12  1  0
 12 13  1  0
 13 14  1  6
 13 15  1  0
 15 16  1  0
 16 17  1  0
 17 18  2  0
 18 19  1  0
 19 20  1  0
 20 21  1  0
 21 22  1  0
 22 23  1  0
 22 24  1  0
 24 25  1  0
 24 26  1  0
 19 27  1  0
 27 28  1  1
 27 29  1  0
 29 30  1  0
 30 31  1  0
 31 32  1  1
  7  5  1  0
 31 10  1  0
 31 13  1  0
 27 15  1  0
 24 18  1  0
  1 33  1  0
  1 34  1  0
  1 35  1  0
  2 36  1  6
  3 37  1  0
  3 38  1  0
  4 39  1  0
  4 40  1  0
  5 41  1  1
  8 42  1  0
  8 43  1  0
  8 44  1  0
  9 45  1  0
  9 46  1  0
  9 47  1  0
 10 48  1  6
 11 49  1  0
 11 50  1  0
 12 51  1  0
 12 52  1  0
 14 53  1  0
 14 54  1  0
 14 55  1  0
 15 56  1  1
 16 57  1  0
 16 58  1  0
 17 59  1  0
 19 60  1  6
 20 61  1  0
 20 62  1  0
 21 63  1  0
 21 64  1  0
 22 65  1  6
 23 66  1  0
 25 67  1  0
 25 68  1  0
 25 69  1  0
 26 70  1  0
 26 71  1  0
 26 72  1  0
 28 73  1  0
 28 74  1  0
 28 75  1  0
 29 76  1  0
 29 77  1  0
 30 78  1  0
 30 79  1  0
 32 80  1  0
 32 81  1  0
 32 82  1  0
M  END
>  <meeko>  (6) 
{"is_sidechain": [false], "intermolecular_energy": 2.731, "internal_energy": -0.839}

$$$$
EPH_relaxed_0001_pdb2pqr_Repair_372_r2_0001_out
     RDKit          3D

 82 86  0  0  0  0  0  0  0  0999 V2000
    0.1070   17.8430   -2.7470 C   0  0  0  0  0  0  0  0  0  0  0  0
   -0.2010   16.9090   -1.5730 C   0  0  2  0  0  0  0  0  0  0  0  0
   -0.3690   17.6780   -0.2470 C   0  0  0  0  0  0  0  0  0  0  0  0
    0.3070   19.0520   -0.2430 C   0  0  0  0  0  0  0  0  0  0  0  0
    1.5560   19.0530    0.5850 C   0  0  2  0  0  0  0  0  0  0  0  0
    2.5060   20.0670    0.2350 O   0  0  0  0  0  0  0  0  0  0  0  0
    2.9270   18.7080    0.0330 C   0  0  0  0  0  0  0  0  0  0  0  0
    3.1180   18.3380   -1.4040 C   0  0  0  0  0  0  0  0  0  0  0  0
    3.9900   18.2580    0.9860 C   0  0  0  0  0  0  0  0  0  0  0  0
    0.9020   15.8670   -1.4340 C   0  0  1  0  0  0  0  0  0  0  0  0
    1.1230   15.4220    0.0360 C   0  0  0  0  0  0  0  0  0  0  0  0
    1.5000   13.9190   -0.0030 C   0  0  0  0  0  0  0  0  0  0  0  0
    1.8080   13.6330   -1.4910 C   0  0  1  0  0  0  0  0  0  0  0  0
    3.2710   14.1350   -1.7020 C   0  0  0  0  0  0  0  0  0  0  0  0
    1.6330   12.1520   -1.9610 C   0  0  2  0  0  0  0  0  0  0  0  0
    2.5620   11.1350   -1.2740 C   0  0  0  0  0  0  0  0  0  0  0  0
    3.8690   10.9020   -1.9580 C   0  0  0  0  0  0  0  0  0  0  0  0
    4.1670   11.2640   -3.2190 C   0  0  0  0  0  0  0  0  0  0  0  0
    3.1040   11.8910   -4.1310 C   0  0  1  0  0  0  0  0  0  0  0  0
    3.1470   11.2070   -5.5230 C   0  0  0  0  0  0  0  0  0  0  0  0
    4.5390   11.2350   -6.1450 C   0  0  0  0  0  0  0  0  0  0  0  0
    5.5570   10.5510   -5.2360 C   0  0  2  0  0  0  0  0  0  0  0  0
    5.2480    9.1550   -5.1670 O   0  0  0  0  0  0  0  0  0  0  0  0
    5.5970   11.1490   -3.8020 C   0  0  0  0  0  0  0  0  0  0  0  0
    6.2190   12.5660   -3.8470 C   0  0  0  0  0  0  0  0  0  0  0  0
    6.5590   10.2790   -2.9490 C   0  0  0  0  0  0  0  0  0  0  0  0
    1.6340   11.9650   -3.5320 C   0  0  1  0  0  0  0  0  0  0  0  0
    0.8730   10.6360   -3.8230 C   0  0  0  0  0  0  0  0  0  0  0  0
    0.8350   13.1040   -4.2700 C   0  0  0  0  0  0  0  0  0  0  0  0
    0.9540   14.5250   -3.6870 C   0  0  0  0  0  0  0  0  0  0  0  0
    0.7060   14.5200   -2.1760 C   0  0  2  0  0  0  0  0  0  0  0  0
   -0.7660   14.0410   -1.9340 C   0  0  0  0  0  0  0  0  0  0  0  0
    0.4297   18.8216   -2.3621 H   0  0  0  0  0  0  0  0  0  0  0  0
    0.9092   17.4078   -3.3611 H   0  0  0  0  0  0  0  0  0  0  0  0
   -0.7967   17.9704   -3.3611 H   0  0  0  0  0  0  0  0  0  0  0  0
   -1.1577   16.4111   -1.7894 H   0  0  0  0  0  0  0  0  0  0  0  0
   -1.4439   17.8192   -0.0611 H   0  0  0  0  0  0  0  0  0  0  0  0
    0.1169   17.0781    0.5366 H   0  0  0  0  0  0  0  0  0  0  0  0
    0.5645   19.3256   -1.2769 H   0  0  0  0  0  0  0  0  0  0  0  0
   -0.3945   19.7779    0.1939 H   0  0  0  0  0  0  0  0  0  0  0  0
    1.0015   18.6901    1.4630 H   0  0  0  0  0  0  0  0  0  0  0  0
    3.6217   17.3622   -1.4675 H   0  0  0  0  0  0  0  0  0  0  0  0
    2.1383   18.2779   -1.9005 H   0  0  0  0  0  0  0  0  0  0  0  0
    3.7344   19.1019   -1.9005 H   0  0  0  0  0  0  0  0  0  0  0  0
    3.6424   18.4052    2.0192 H   0  0  0  0  0  0  0  0  0  0  0  0
    4.2043   17.1920    0.8196 H   0  0  0  0  0  0  0  0  0  0  0  0
    4.9045   18.8462    0.8196 H   0  0  0  0  0  0  0  0  0  0  0  0
    1.7387   16.4246   -1.8802 H   0  0  0  0  0  0  0  0  0  0  0  0
    1.9379   16.0052    0.4898 H   0  0  0  0  0  0  0  0  0  0  0  0
    0.2175   15.5863    0.6385 H   0  0  0  0  0  0  0  0  0  0  0  0
    2.3846   13.7241    0.6211 H   0  0  0  0  0  0  0  0  0  0  0  0
    0.6968   13.2770    0.3878 H   0  0  0  0  0  0  0  0  0  0  0  0
    3.7472   14.2984   -0.7240 H   0  0  0  0  0  0  0  0  0  0  0  0
    3.8398   13.3806   -2.2653 H   0  0  0  0  0  0  0  0  0  0  0  0
    3.2568   15.0797   -2.2653 H   0  0  0  0  0  0  0  0  0  0  0  0
    0.6175   11.9134   -1.6120 H   0  0  0  0  0  0  0  0  0  0  0  0
    2.7706   11.4981   -0.2568 H   0  0  0  0  0  0  0  0  0  0  0  0
    2.0301   10.1724   -1.2975 H   0  0  0  0  0  0  0  0  0  0  0  0
    4.6546   10.3911   -1.3819 H   0  0  0  0  0  0  0  0  0  0  0  0
    3.3746   12.9527   -4.2290 H   0  0  0  0  0  0  0  0  0  0  0  0
    2.8318   10.1591   -5.4110 H   0  0  0  0  0  0  0  0  0  0  0  0
    2.4719   11.7635   -6.1897 H   0  0  0  0  0  0  0  0  0  0  0  0
    4.5116   10.7120   -7.1123 H   0  0  0  0  0  0  0  0  0  0  0  0
    4.8407   12.2838   -6.2830 H   0  0  0  0  0  0  0  0  0  0  0  0
    6.5531   10.7165   -5.6724 H   0  0  0  0  0  0  0  0  0  0  0  0
    5.6140    8.7330   -5.9620 H   0  0  0  0  0  0  0  0  0  0  0  0
    6.3784   12.9292   -2.8210 H   0  0  0  0  0  0  0  0  0  0  0  0
    7.1827   12.5268   -4.3760 H   0  0  0  0  0  0  0  0  0  0  0  0
    5.5379   13.2488   -4.3760 H   0  0  0  0  0  0  0  0  0  0  0  0
    6.3636   10.4557   -1.8810 H   0  0  0  0  0  0  0  0  0  0  0  0
    6.3951    9.2163   -3.1808 H   0  0  0  0  0  0  0  0  0  0  0  0
    7.6000   10.5485   -3.1808 H   0  0  0  0  0  0  0  0  0  0  0  0
    0.5978   10.1554   -2.8726 H   0  0  0  0  0  0  0  0  0  0  0  0
   -0.0373   10.8537   -4.4009 H   0  0  0  0  0  0  0  0  0  0  0  0
    1.5215    9.9611   -4.4009 H   0  0  0  0  0  0  0  0  0  0  0  0
    1.1910   13.1401   -5.3102 H   0  0  0  0  0  0  0  0  0  0  0  0
   -0.2249   12.8333   -4.1550 H   0  0  0  0  0  0  0  0  0  0  0  0
    1.9648   14.9115   -3.8845 H   0  0  0  0  0  0  0  0  0  0  0  0
    0.1971   15.1646   -4.1646 H   0  0  0  0  0  0  0  0  0  0  0  0
   -0.9582   13.9785   -0.8527 H   0  0  0  0  0  0  0  0  0  0  0  0
   -1.4646   14.7582   -2.3897 H   0  0  0  0  0  0  0  0  0  0  0  0
   -0.9087   13.0501   -2.3897 H   0  0  0  0  0  0  0  0  0  0  0  0
  1  2  1  0
  2  3  1  0
  3  4  1  0
  4  5  1  0
  5  6  1  0
  6  7  1  0
  7  8  1  0
  7  9  1  0
  2 10  1  0
 10 11  1  0
 11 12  1  0
 12 13  1  0
 13 14  1  6
 13 15  1  0
 15 16  1  0
 16 17  1  0
 17 18  2  0
 18 19  1  0
 19 20  1  0
 20 21  1  0
 21 22  1  0
 22 23  1  0
 22 24  1  0
 24 25  1  0
 24 26  1  0
 19 27  1  0
 27 28  1  1
 27 29  1  0
 29 30  1  0
 30 31  1  0
 31 32  1  6
  7  5  1  0
 31 10  1  0
 31 13  1  0
 27 15  1  0
 24 18  1  0
  1 33  1  0
  1 34  1  0
  1 35  1  0
  2 36  1  6
  3 37  1  0
  3 38  1  0
  4 39  1  0
  4 40  1  0
  5 41  1  1
  8 42  1  0
  8 43  1  0
  8 44  1  0
  9 45  1  0
  9 46  1  0
  9 47  1  0
 10 48  1  6
 11 49  1  0
 11 50  1  0
 12 51  1  0
 12 52  1  0
 14 53  1  0
 14 54  1  0
 14 55  1  0
 15 56  1  1
 16 57  1  0
 16 58  1  0
 17 59  1  0
 19 60  1  6
 20 61  1  0
 20 62  1  0
 21 63  1  0
 21 64  1  0
 22 65  1  6
 23 66  1  0
 25 67  1  0
 25 68  1  0
 25 69  1  0
 26 70  1  0
 26 71  1  0
 26 72  1  0
 28 73  1  0
 28 74  1  0
 28 75  1  0
 29 76  1  0
 29 77  1  0
 30 78  1  0
 30 79  1  0
 32 80  1  0
 32 81  1  0
 32 82  1  0
M  END
>  <meeko>  (7) 
{"is_sidechain": [false], "intermolecular_energy": 2.731, "internal_energy": -0.839}

$$$$
EPH_relaxed_0001_pdb2pqr_Repair_372_r2_0001_out
     RDKit          3D

 82 86  0  0  0  0  0  0  0  0999 V2000
   -0.8570   16.3490   -5.8370 C   0  0  0  0  0  0  0  0  0  0  0  0
    0.2310   15.6480   -6.6550 C   0  0  2  0  0  0  0  0  0  0  0  0
   -0.1760   15.4710   -8.1320 C   0  0  0  0  0  0  0  0  0  0  0  0
    0.4630   16.4940   -9.0740 C   0  0  0  0  0  0  0  0  0  0  0  0
    1.8620   16.1060   -9.4480 C   0  0  2  0  0  0  0  0  0  0  0  0
    2.3270   16.6600  -10.6850 O   0  0  0  0  0  0  0  0  0  0  0  0
    2.1950   15.2300  -10.6410 C   0  0  0  0  0  0  0  0  0  0  0  0
    1.1250   14.6890  -11.5360 C   0  0  0  0  0  0  0  0  0  0  0  0
    3.5050   14.5040  -10.6520 C   0  0  0  0  0  0  0  0  0  0  0  0
    0.5530   14.2920   -6.0380 C   0  0  1  0  0  0  0  0  0  0  0  0
    1.8210   13.6420   -6.6530 C   0  0  0  0  0  0  0  0  0  0  0  0
    2.5290   12.8730   -5.5080 C   0  0  0  0  0  0  0  0  0  0  0  0
    1.4870   12.8270   -4.3660 C   0  0  1  0  0  0  0  0  0  0  0  0
    0.5350   11.6470   -4.7390 C   0  0  0  0  0  0  0  0  0  0  0  0
    2.0550   12.6730   -2.9180 C   0  0  2  0  0  0  0  0  0  0  0  0
    2.8280   11.3690   -2.6550 C   0  0  0  0  0  0  0  0  0  0  0  0
    2.0050   10.2310   -2.1500 C   0  0  0  0  0  0  0  0  0  0  0  0
    0.7600   10.3280   -1.6480 C   0  0  0  0  0  0  0  0  0  0  0  0
    0.0920   11.6950   -1.4590 C   0  0  1  0  0  0  0  0  0  0  0  0
   -0.5580   11.7640   -0.0520 C   0  0  0  0  0  0  0  0  0  0  0  0
   -1.5160   10.6050    0.2070 C   0  0  0  0  0  0  0  0  0  0  0  0
   -0.8010    9.2640    0.0670 C   0  0  2  0  0  0  0  0  0  0  0  0
    0.1630    9.1430    1.1180 O   0  0  0  0  0  0  0  0  0  0  0  0
   -0.1000    9.0850   -1.3090 C   0  0  0  0  0  0  0  0  0  0  0  0
   -1.1660    8.9140   -2.4190 C   0  0  0  0  0  0  0  0  0  0  0  0
    0.7010    7.7550   -1.2670 C   0  0  0  0  0  0  0  0  0  0  0  0
    1.0000   12.9610   -1.7740 C   0  0  1  0  0  0  0  0  0  0  0  0
    1.8160   13.3590   -0.5060 C   0  0  0  0  0  0  0  0  0  0  0  0
    0.0730   14.1890   -2.1090 C   0  0  0  0  0  0  0  0  0  0  0  0
   -0.3570   14.3530   -3.5790 C   0  0  0  0  0  0  0  0  0  0  0  0
    0.8500   14.2560   -4.5180 C   0  0  2  0  0  0  0  0  0  0  0  0
    1.8150   15.4430   -4.1810 C   0  0  0  0  0  0  0  0  0  0  0  0
   -0.6518   16.2168   -4.7644 H   0  0  0  0  0  0  0  0  0  0  0  0
   -0.8640   17.4219   -6.0794 H   0  0  0  0  0  0  0  0  0  0  0  0
   -1.8369   15.9119   -6.0794 H   0  0  0  0  0  0  0  0  0  0  0  0
    1.1251   16.2883   -6.6332 H   0  0  0  0  0  0  0  0  0  0  0  0
    0.1255   14.4642   -8.4569 H   0  0  0  0  0  0  0  0  0  0  0  0
   -1.2644   15.6214   -8.1854 H   0  0  0  0  0  0  0  0  0  0  0  0
   -0.1440   16.5641   -9.9887 H   0  0  0  0  0  0  0  0  0  0  0  0
    0.5036   17.4616   -8.5524 H   0  0  0  0  0  0  0  0  0  0  0  0
    2.1562   16.0546   -8.3893 H   0  0  0  0  0  0  0  0  0  0  0  0
    0.3092   14.2765  -10.9242 H   0  0  0  0  0  0  0  0  0  0  0  0
    0.7343   15.4979  -12.1709 H   0  0  0  0  0  0  0  0  0  0  0  0
    1.5448   13.8949  -12.1709 H   0  0  0  0  0  0  0  0  0  0  0  0
    3.8324   14.3226   -9.6176 H   0  0  0  0  0  0  0  0  0  0  0  0
    3.3870   13.5425  -11.1732 H   0  0  0  0  0  0  0  0  0  0  0  0
    4.2577   15.1137  -11.1732 H   0  0  0  0  0  0  0  0  0  0  0  0
   -0.3882   13.7638   -6.2505 H   0  0  0  0  0  0  0  0  0  0  0  0
    1.5383   12.9474   -7.4577 H   0  0  0  0  0  0  0  0  0  0  0  0
    2.4850   14.4042   -7.0867 H   0  0  0  0  0  0  0  0  0  0  0  0
    2.7965   11.8560   -5.8307 H   0  0  0  0  0  0  0  0  0  0  0  0
    3.4666   13.3573   -5.1978 H   0  0  0  0  0  0  0  0  0  0  0  0
    0.1559   11.1771   -3.8195 H   0  0  0  0  0  0  0  0  0  0  0  0
   -0.3098   12.0303   -5.3301 H   0  0  0  0  0  0  0  0  0  0  0  0
    1.0882   10.9024   -5.3301 H   0  0  0  0  0  0  0  0  0  0  0  0
    2.8036   13.4776   -2.8717 H   0  0  0  0  0  0  0  0  0  0  0  0
    3.2978   11.0561   -3.5991 H   0  0  0  0  0  0  0  0  0  0  0  0
    3.5508   11.5990   -1.8583 H   0  0  0  0  0  0  0  0  0  0  0  0
    2.4541    9.2277   -2.1916 H   0  0  0  0  0  0  0  0  0  0  0  0
   -0.6860   11.7620   -2.2337 H   0  0  0  0  0  0  0  0  0  0  0  0
    0.2386   11.7392    0.7061 H   0  0  0  0  0  0  0  0  0  0  0  0
   -1.1393   12.6963    0.0021 H   0  0  0  0  0  0  0  0  0  0  0  0
   -1.9199   10.6928    1.2264 H   0  0  0  0  0  0  0  0  0  0  0  0
   -2.3280   10.6487   -0.5338 H   0  0  0  0  0  0  0  0  0  0  0  0
   -1.5638    8.4744    0.1357 H   0  0  0  0  0  0  0  0  0  0  0  0
   -0.0650    9.7950    1.8020 H   0  0  0  0  0  0  0  0  0  0  0  0
   -2.1525    8.7558   -1.9587 H   0  0  0  0  0  0  0  0  0  0  0  0
   -1.1937    9.8192   -3.0434 H   0  0  0  0  0  0  0  0  0  0  0  0
   -0.9091    8.0456   -3.0434 H   0  0  0  0  0  0  0  0  0  0  0  0
    0.8756    7.4650   -0.2204 H   0  0  0  0  0  0  0  0  0  0  0  0
    0.1279    6.9656   -1.7754 H   0  0  0  0  0  0  0  0  0  0  0  0
    1.6667    7.8924   -1.7754 H   0  0  0  0  0  0  0  0  0  0  0  0
    1.2500   13.0829    0.3959 H   0  0  0  0  0  0  0  0  0  0  0  0
    2.7805   12.8302   -0.5097 H   0  0  0  0  0  0  0  0  0  0  0  0
    1.9931   14.4446   -0.5097 H   0  0  0  0  0  0  0  0  0  0  0  0
   -0.8404   14.0915   -1.5038 H   0  0  0  0  0  0  0  0  0  0  0  0
    0.6807   15.0782   -1.8856 H   0  0  0  0  0  0  0  0  0  0  0  0
   -1.0759   13.5605   -3.8341 H   0  0  0  0  0  0  0  0  0  0  0  0
   -0.8173   15.3446   -3.7011 H   0  0  0  0  0  0  0  0  0  0  0  0
    1.9001   15.5477   -3.0893 H   0  0  0  0  0  0  0  0  0  0  0  0
    2.8082   15.2408   -4.6085 H   0  0  0  0  0  0  0  0  0  0  0  0
    1.4144   16.3740   -4.6085 H   0  0  0  0  0  0  0  0  0  0  0  0
  1  2  1  0
  2  3  1  0
  3  4  1  0
  4  5  1  0
  5  6  1  0
  6  7  1  0
  7  8  1  0
  7  9  1  0
  2 10  1  0
 10 11  1  0
 11 12  1  0
 12 13  1  0
 13 14  1  6
 13 15  1  0
 15 16  1  0
 16 17  1  0
 17 18  2  0
 18 19  1  0
 19 20  1  0
 20 21  1  0
 21 22  1  0
 22 23  1  0
 22 24  1  0
 24 25  1  0
 24 26  1  0
 19 27  1  0
 27 28  1  1
 27 29  1  0
 29 30  1  0
 30 31  1  0
 31 32  1  1
  7  5  1  0
 31 10  1  0
 31 13  1  0
 27 15  1  0
 24 18  1  0
  1 33  1  0
  1 34  1  0
  1 35  1  0
  2 36  1  6
  3 37  1  0
  3 38  1  0
  4 39  1  0
  4 40  1  0
  5 41  1  1
  8 42  1  0
  8 43  1  0
  8 44  1  0
  9 45  1  0
  9 46  1  0
  9 47  1  0
 10 48  1  1
 11 49  1  0
 11 50  1  0
 12 51  1  0
 12 52  1  0
 14 53  1  0
 14 54  1  0
 14 55  1  0
 15 56  1  6
 16 57  1  0
 16 58  1  0
 17 59  1  0
 19 60  1  6
 20 61  1  0
 20 62  1  0
 21 63  1  0
 21 64  1  0
 22 65  1  1
 23 66  1  0
 25 67  1  0
 25 68  1  0
 25 69  1  0
 26 70  1  0
 26 71  1  0
 26 72  1  0
 28 73  1  0
 28 74  1  0
 28 75  1  0
 29 76  1  0
 29 77  1  0
 30 78  1  0
 30 79  1  0
 32 80  1  0
 32 81  1  0
 32 82  1  0
M  END
>  <meeko>  (8) 
{"is_sidechain": [false], "intermolecular_energy": 2.731, "internal_energy": -0.839}

$$$$
EPH_relaxed_0001_pdb2pqr_Repair_372_r2_0001_out
     RDKit          3D

 82 86  0  0  0  0  0  0  0  0999 V2000
    3.3660   18.3700   -2.6730 C   0  0  0  0  0  0  0  0  0  0  0  0
    2.0590   17.5790   -2.7800 C   0  0  2  0  0  0  0  0  0  0  0  0
    0.8500   18.3830   -2.2620 C   0  0  0  0  0  0  0  0  0  0  0  0
    1.1780   19.2930   -1.0750 C   0  0  0  0  0  0  0  0  0  0  0  0
   -0.0230   20.0670   -0.6210 C   0  0  2  0  0  0  0  0  0  0  0  0
   -0.1500   20.1940    0.8010 O   0  0  0  0  0  0  0  0  0  0  0  0
   -1.1810   19.4450    0.1360 C   0  0  0  0  0  0  0  0  0  0  0  0
   -1.1950   17.9890    0.4820 C   0  0  0  0  0  0  0  0  0  0  0  0
   -2.5070   20.1380    0.1100 C   0  0  0  0  0  0  0  0  0  0  0  0
    2.1810   16.2680   -2.0110 C   0  0  1  0  0  0  0  0  0  0  0  0
    2.5660   16.4820   -0.5230 C   0  0  0  0  0  0  0  0  0  0  0  0
    1.8370   15.3820    0.2900 C   0  0  0  0  0  0  0  0  0  0  0  0
    1.3310   14.3810   -0.7740 C   0  0  1  0  0  0  0  0  0  0  0  0
    2.5690   13.4900   -1.1080 C   0  0  0  0  0  0  0  0  0  0  0  0
    0.0890   13.5180   -0.3770 C   0  0  2  0  0  0  0  0  0  0  0  0
    0.3050   12.5780    0.8230 C   0  0  0  0  0  0  0  0  0  0  0  0
    0.7950   11.2100    0.4810 C   0  0  0  0  0  0  0  0  0  0  0  0
    0.7810   10.6580   -0.7470 C   0  0  0  0  0  0  0  0  0  0  0  0
    0.1430   11.3930   -1.9340 C   0  0  1  0  0  0  0  0  0  0  0  0
   -0.7640   10.4130   -2.7230 C   0  0  0  0  0  0  0  0  0  0  0  0
   -0.0270    9.1470   -3.1490 C   0  0  0  0  0  0  0  0  0  0  0  0
    0.5430    8.4140   -1.9370 C   0  0  2  0  0  0  0  0  0  0  0  0
   -0.5420    7.9200   -1.1460 O   0  0  0  0  0  0  0  0  0  0  0  0
    1.4660    9.3050   -1.0590 C   0  0  0  0  0  0  0  0  0  0  0  0
    2.7860    9.5920   -1.8170 C   0  0  0  0  0  0  0  0  0  0  0  0
    1.8580    8.4890    0.2020 C   0  0  0  0  0  0  0  0  0  0  0  0
   -0.5890   12.7610   -1.5890 C   0  0  1  0  0  0  0  0  0  0  0  0
   -2.0650   12.4820   -1.1700 C   0  0  0  0  0  0  0  0  0  0  0  0
   -0.6560   13.6490   -2.8870 C   0  0  0  0  0  0  0  0  0  0  0  0
    0.5490   14.5690   -3.1620 C   0  0  0  0  0  0  0  0  0  0  0  0
    0.9160   15.3790   -1.9150 C   0  0  2  0  0  0  0  0  0  0  0  0
   -0.3030   16.3010   -1.5680 C   0  0  0  0  0  0  0  0  0  0  0  0
    3.6169   18.5219   -1.6128 H   0  0  0  0  0  0  0  0  0  0  0  0
    4.1750   17.8098   -3.1647 H   0  0  0  0  0  0  0  0  0  0  0  0
    3.2449   19.3465   -3.1647 H   0  0  0  0  0  0  0  0  0  0  0  0
    1.8843   17.3703   -3.8458 H   0  0  0  0  0  0  0  0  0  0  0  0
    0.4707   19.0078   -3.0840 H   0  0  0  0  0  0  0  0  0  0  0  0
    0.1055   17.6532   -1.9111 H   0  0  0  0  0  0  0  0  0  0  0  0
    1.5395   18.6741   -0.2406 H   0  0  0  0  0  0  0  0  0  0  0  0
    1.9474   20.0108   -1.3957 H   0  0  0  0  0  0  0  0  0  0  0  0
    0.0155   20.7004   -1.5195 H   0  0  0  0  0  0  0  0  0  0  0  0
   -1.1961   17.8720    1.5758 H   0  0  0  0  0  0  0  0  0  0  0  0
   -2.0977   17.5210    0.0623 H   0  0  0  0  0  0  0  0  0  0  0  0
   -0.3015   17.5038    0.0623 H   0  0  0  0  0  0  0  0  0  0  0  0
   -2.8479   20.3162    1.1406 H   0  0  0  0  0  0  0  0  0  0  0  0
   -2.4079   21.0996   -0.4148 H   0  0  0  0  0  0  0  0  0  0  0  0
   -3.2399   19.5076   -0.4148 H   0  0  0  0  0  0  0  0  0  0  0  0
    2.9471   15.7673   -2.6212 H   0  0  0  0  0  0  0  0  0  0  0  0
    3.6546   16.3881   -0.3961 H   0  0  0  0  0  0  0  0  0  0  0  0
    2.2742   17.4856   -0.1799 H   0  0  0  0  0  0  0  0  0  0  0  0
    2.5313   14.8899    0.9870 H   0  0  0  0  0  0  0  0  0  0  0  0
    1.0187   15.7891    0.9021 H   0  0  0  0  0  0  0  0  0  0  0  0
    3.0398   13.1512   -0.1733 H   0  0  0  0  0  0  0  0  0  0  0  0
    2.2450   12.6166   -1.6930 H   0  0  0  0  0  0  0  0  0  0  0  0
    3.2943   14.0745   -1.6930 H   0  0  0  0  0  0  0  0  0  0  0  0
   -0.6280   14.2793   -0.0359 H   0  0  0  0  0  0  0  0  0  0  0  0
    1.0419   13.0455    1.4927 H   0  0  0  0  0  0  0  0  0  0  0  0
   -0.6843   12.4406    1.2840 H   0  0  0  0  0  0  0  0  0  0  0  0
    1.2020   10.6013    1.3019 H   0  0  0  0  0  0  0  0  0  0  0  0
    0.9763   11.7238   -2.5714 H   0  0  0  0  0  0  0  0  0  0  0  0
   -1.6140   10.1284   -2.0854 H   0  0  0  0  0  0  0  0  0  0  0  0
   -1.0971   10.9283   -3.6360 H   0  0  0  0  0  0  0  0  0  0  0  0
   -0.7278    8.4821   -3.6751 H   0  0  0  0  0  0  0  0  0  0  0  0
    0.8044    9.4305   -3.8111 H   0  0  0  0  0  0  0  0  0  0  0  0
    1.1683    7.5911   -2.3134 H   0  0  0  0  0  0  0  0  0  0  0  0
   -0.8290    7.0750   -1.5330 H   0  0  0  0  0  0  0  0  0  0  0  0
    3.5944    9.7678   -1.0920 H   0  0  0  0  0  0  0  0  0  0  0  0
    3.0413    8.7284   -2.4486 H   0  0  0  0  0  0  0  0  0  0  0  0
    2.6597   10.4837   -2.4486 H   0  0  0  0  0  0  0  0  0  0  0  0
    1.5858    9.0556    1.1047 H   0  0  0  0  0  0  0  0  0  0  0  0
    1.3234    7.5276    0.1975 H   0  0  0  0  0  0  0  0  0  0  0  0
    2.9426    8.3055    0.1975 H   0  0  0  0  0  0  0  0  0  0  0  0
   -2.1382   12.4682   -0.0725 H   0  0  0  0  0  0  0  0  0  0  0  0
   -2.7158   13.2730   -1.5710 H   0  0  0  0  0  0  0  0  0  0  0  0
   -2.3821   11.5080   -1.5710 H   0  0  0  0  0  0  0  0  0  0  0  0
   -0.7616   12.9725   -3.7480 H   0  0  0  0  0  0  0  0  0  0  0  0
   -1.5064   14.3283   -2.7276 H   0  0  0  0  0  0  0  0  0  0  0  0
    1.4114   13.9537   -3.4581 H   0  0  0  0  0  0  0  0  0  0  0  0
    0.2800   15.2679   -3.9677 H   0  0  0  0  0  0  0  0  0  0  0  0
   -0.4050   16.3782   -0.4755 H   0  0  0  0  0  0  0  0  0  0  0  0
   -0.1379   17.3023   -1.9925 H   0  0  0  0  0  0  0  0  0  0  0  0
   -1.2215   15.8696   -1.9925 H   0  0  0  0  0  0  0  0  0  0  0  0
  1  2  1  0
  2  3  1  0
  3  4  1  0
  4  5  1  0
  5  6  1  0
  6  7  1  0
  7  8  1  0
  7  9  1  0
  2 10  1  0
 10 11  1  0
 11 12  1  0
 12 13  1  0
 13 14  1  6
 13 15  1  0
 15 16  1  0
 16 17  1  0
 17 18  2  0
 18 19  1  0
 19 20  1  0
 20 21  1  0
 21 22  1  0
 22 23  1  0
 22 24  1  0
 24 25  1  0
 24 26  1  0
 19 27  1  0
 27 28  1  1
 27 29  1  0
 29 30  1  0
 30 31  1  0
 31 32  1  1
  7  5  1  0
 31 10  1  0
 31 13  1  0
 27 15  1  0
 24 18  1  0
  1 33  1  0
  1 34  1  0
  1 35  1  0
  2 36  1  6
  3 37  1  0
  3 38  1  0
  4 39  1  0
  4 40  1  0
  5 41  1  6
  8 42  1  0
  8 43  1  0
  8 44  1  0
  9 45  1  0
  9 46  1  0
  9 47  1  0
 10 48  1  6
 11 49  1  0
 11 50  1  0
 12 51  1  0
 12 52  1  0
 14 53  1  0
 14 54  1  0
 14 55  1  0
 15 56  1  1
 16 57  1  0
 16 58  1  0
 17 59  1  0
 19 60  1  6
 20 61  1  0
 20 62  1  0
 21 63  1  0
 21 64  1  0
 22 65  1  6
 23 66  1  0
 25 67  1  0
 25 68  1  0
 25 69  1  0
 26 70  1  0
 26 71  1  0
 26 72  1  0
 28 73  1  0
 28 74  1  0
 28 75  1  0
 29 76  1  0
 29 77  1  0
 30 78  1  0
 30 79  1  0
 32 80  1  0
 32 81  1  0
 32 82  1  0
M  END
>  <meeko>  (9) 
{"is_sidechain": [false], "intermolecular_energy": 2.731, "internal_energy": -0.839}

$$$$
EPH_relaxed_0001_pdb2pqr_Repair_372_r2_0001_out
     RDKit          3D

 82 86  0  0  0  0  0  0  0  0999 V2000
   -2.5270    7.8980   -2.0320 C   0  0  0  0  0  0  0  0  0  0  0  0
   -2.3430    8.4860   -0.6300 C   0  0  2  0  0  0  0  0  0  0  0  0
   -3.6570    8.4860    0.1770 C   0  0  0  0  0  0  0  0  0  0  0  0
   -4.9130    8.5900   -0.6930 C   0  0  0  0  0  0  0  0  0  0  0  0
   -5.5960    7.2640   -0.8400 C   0  0  2  0  0  0  0  0  0  0  0  0
   -5.4640    6.6630   -2.1350 O   0  0  0  0  0  0  0  0  0  0  0  0
   -6.7950    7.0360   -1.7410 C   0  0  0  0  0  0  0  0  0  0  0  0
   -7.3810    8.1460   -2.5560 C   0  0  0  0  0  0  0  0  0  0  0  0
   -7.6900    5.8690   -1.4600 C   0  0  0  0  0  0  0  0  0  0  0  0
   -1.7920    9.9030   -0.7290 C   0  0  1  0  0  0  0  0  0  0  0  0
   -1.3390   10.4650    0.6450 C   0  0  0  0  0  0  0  0  0  0  0  0
   -0.1020   11.3610    0.3760 C   0  0  0  0  0  0  0  0  0  0  0  0
   -0.0850   11.5520   -1.1580 C   0  0  1  0  0  0  0  0  0  0  0  0
   -1.1230   12.6850   -1.4330 C   0  0  0  0  0  0  0  0  0  0  0  0
    1.3040   11.8740   -1.8000 C   0  0  2  0  0  0  0  0  0  0  0  0
    1.9450   13.1940   -1.3380 C   0  0  0  0  0  0  0  0  0  0  0  0
    1.6030   14.3920   -2.1610 C   0  0  0  0  0  0  0  0  0  0  0  0
    1.0470   14.3660   -3.3860 C   0  0  0  0  0  0  0  0  0  0  0  0
    0.7950   13.0360   -4.1090 C   0  0  1  0  0  0  0  0  0  0  0  0
    1.2870   13.1420   -5.5760 C   0  0  0  0  0  0  0  0  0  0  0  0
    0.6770   14.3310   -6.3130 C   0  0  0  0  0  0  0  0  0  0  0  0
    0.9980   15.6400   -5.5960 C   0  0  2  0  0  0  0  0  0  0  0  0
    2.4060   15.8790   -5.6820 O   0  0  0  0  0  0  0  0  0  0  0  0
    0.5570   15.6470   -4.1060 C   0  0  0  0  0  0  0  0  0  0  0  0
   -0.9890   15.6910   -4.0200 C   0  0  0  0  0  0  0  0  0  0  0  0
    1.0650   16.9660   -3.4630 C   0  0  0  0  0  0  0  0  0  0  0  0
    1.3380   11.7350   -3.3750 C   0  0  1  0  0  0  0  0  0  0  0  0
    2.8270   11.4860   -3.7680 C   0  0  0  0  0  0  0  0  0  0  0  0
    0.5300   10.4830   -3.8830 C   0  0  0  0  0  0  0  0  0  0  0  0
   -0.7730   10.1460   -3.1330 C   0  0  0  0  0  0  0  0  0  0  0  0
   -0.5420   10.1200   -1.6190 C   0  0  2  0  0  0  0  0  0  0  0  0
    0.4810    8.9750   -1.3100 C   0  0  0  0  0  0  0  0  0  0  0  0
   -2.8546    6.8511   -1.9504 H   0  0  0  0  0  0  0  0  0  0  0  0
   -3.2864    8.4785   -2.5763 H   0  0  0  0  0  0  0  0  0  0  0  0
   -1.5721    7.9421   -2.5763 H   0  0  0  0  0  0  0  0  0  0  0  0
   -1.6270    7.8457   -0.0940 H   0  0  0  0  0  0  0  0  0  0  0  0
   -3.7104    7.5509    0.7538 H   0  0  0  0  0  0  0  0  0  0  0  0
   -3.6381    9.3765    0.8225 H   0  0  0  0  0  0  0  0  0  0  0  0
   -5.6113    9.3012   -0.2276 H   0  0  0  0  0  0  0  0  0  0  0  0
   -4.6102    8.9329   -1.6934 H   0  0  0  0  0  0  0  0  0  0  0  0
   -5.4125    7.0256    0.2181 H   0  0  0  0  0  0  0  0  0  0  0  0
   -7.7882    8.9174   -1.8859 H   0  0  0  0  0  0  0  0  0  0  0  0
   -6.5985    8.5875   -3.1906 H   0  0  0  0  0  0  0  0  0  0  0  0
   -8.1870    7.7489   -3.1906 H   0  0  0  0  0  0  0  0  0  0  0  0
   -7.7907    5.7377   -0.3725 H   0  0  0  0  0  0  0  0  0  0  0  0
   -8.6811    6.0526   -1.9005 H   0  0  0  0  0  0  0  0  0  0  0  0
   -7.2557    4.9594   -1.9005 H   0  0  0  0  0  0  0  0  0  0  0  0
   -2.6623   10.4084   -1.1731 H   0  0  0  0  0  0  0  0  0  0  0  0
   -2.1469   11.0600    1.0959 H   0  0  0  0  0  0  0  0  0  0  0  0
   -1.0930    9.6512    1.3430 H   0  0  0  0  0  0  0  0  0  0  0  0
   -0.2057   12.3297    0.8868 H   0  0  0  0  0  0  0  0  0  0  0  0
    0.8289   10.9103    0.7506 H   0  0  0  0  0  0  0  0  0  0  0  0
   -1.4902   13.0858   -0.4767 H   0  0  0  0  0  0  0  0  0  0  0  0
   -0.6429   13.4905   -2.0080 H   0  0  0  0  0  0  0  0  0  0  0  0
   -1.9673   12.2771   -2.0080 H   0  0  0  0  0  0  0  0  0  0  0  0
    1.9420   11.0742   -1.3960 H   0  0  0  0  0  0  0  0  0  0  0  0
    1.6190   13.3869   -0.3053 H   0  0  0  0  0  0  0  0  0  0  0  0
    3.0316   13.0560   -1.4388 H   0  0  0  0  0  0  0  0  0  0  0  0
    1.8243   15.3793   -1.7293 H   0  0  0  0  0  0  0  0  0  0  0  0
   -0.2940   12.8819   -4.0919 H   0  0  0  0  0  0  0  0  0  0  0  0
    2.3815   13.2522   -5.5738 H   0  0  0  0  0  0  0  0  0  0  0  0
    0.9734   12.2273   -6.1004 H   0  0  0  0  0  0  0  0  0  0  0  0
    1.0854   14.3700   -7.3336 H   0  0  0  0  0  0  0  0  0  0  0  0
   -0.4153   14.2043   -6.3405 H   0  0  0  0  0  0  0  0  0  0  0  0
    0.4281   16.4376   -6.0950 H   0  0  0  0  0  0  0  0  0  0  0  0
    2.8480   15.2600   -5.0760 H   0  0  0  0  0  0  0  0  0  0  0  0
   -1.2974   15.6998   -2.9642 H   0  0  0  0  0  0  0  0  0  0  0  0
   -1.3582   16.6000   -4.5174 H   0  0  0  0  0  0  0  0  0  0  0  0
   -1.4093   14.8045   -4.5174 H   0  0  0  0  0  0  0  0  0  0  0  0
    1.0306   16.8767   -2.3672 H   0  0  0  0  0  0  0  0  0  0  0  0
    2.1003   17.1550   -3.7832 H   0  0  0  0  0  0  0  0  0  0  0  0
    0.4240   17.8006   -3.7832 H   0  0  0  0  0  0  0  0  0  0  0  0
    3.4347   11.3844   -2.8567 H   0  0  0  0  0  0  0  0  0  0  0  0
    2.9000   10.5632   -4.3622 H   0  0  0  0  0  0  0  0  0  0  0  0
    3.1963   12.3349   -4.3622 H   0  0  0  0  0  0  0  0  0  0  0  0
    0.2709   10.6596   -4.9374 H   0  0  0  0  0  0  0  0  0  0  0  0
    1.1930    9.6227   -3.7090 H   0  0  0  0  0  0  0  0  0  0  0  0
   -1.5312   10.9074   -3.3685 H   0  0  0  0  0  0  0  0  0  0  0  0
   -1.1151    9.1508   -3.4532 H   0  0  0  0  0  0  0  0  0  0  0  0
    0.5842    8.8595   -0.2210 H   0  0  0  0  0  0  0  0  0  0  0  0
    0.1189    8.0323   -1.7460 H   0  0  0  0  0  0  0  0  0  0  0  0
    1.4584    9.2291   -1.7460 H   0  0  0  0  0  0  0  0  0  0  0  0
  1  2  1  0
  2  3  1  0
  3  4  1  0
  4  5  1  0
  5  6  1  0
  6  7  1  0
  7  8  1  0
  7  9  1  0
  2 10  1  0
 10 11  1  0
 11 12  1  0
 12 13  1  0
 13 14  1  1
 13 15  1  0
 15 16  1  0
 16 17  1  0
 17 18  2  0
 18 19  1  0
 19 20  1  0
 20 21  1  0
 21 22  1  0
 22 23  1  0
 22 24  1  0
 24 25  1  0
 24 26  1  0
 19 27  1  0
 27 28  1  6
 27 29  1  0
 29 30  1  0
 30 31  1  0
 31 32  1  6
  7  5  1  0
 31 10  1  0
 31 13  1  0
 27 15  1  0
 24 18  1  0
  1 33  1  0
  1 34  1  0
  1 35  1  0
  2 36  1  1
  3 37  1  0
  3 38  1  0
  4 39  1  0
  4 40  1  0
  5 41  1  1
  8 42  1  0
  8 43  1  0
  8 44  1  0
  9 45  1  0
  9 46  1  0
  9 47  1  0
 10 48  1  6
 11 49  1  0
 11 50  1  0
 12 51  1  0
 12 52  1  0
 14 53  1  0
 14 54  1  0
 14 55  1  0
 15 56  1  1
 16 57  1  0
 16 58  1  0
 17 59  1  0
 19 60  1  6
 20 61  1  0
 20 62  1  0
 21 63  1  0
 21 64  1  0
 22 65  1  6
 23 66  1  0
 25 67  1  0
 25 68  1  0
 25 69  1  0
 26 70  1  0
 26 71  1  0
 26 72  1  0
 28 73  1  0
 28 74  1  0
 28 75  1  0
 29 76  1  0
 29 77  1  0
 30 78  1  0
 30 79  1  0
 32 80  1  0
 32 81  1  0
 32 82  1  0
M  END
>  <meeko>  (10) 
{"is_sidechain": [false], "intermolecular_energy": 2.731, "internal_energy": -0.839}

$$$$
EPH_relaxed_0001_pdb2pqr_Repair_372_r2_0001_out
     RDKit          3D

 82 86  0  0  0  0  0  0  0  0999 V2000
    2.0560   10.8270   -4.3310 C   0  0  0  0  0  0  0  0  0  0  0  0
    1.2550   10.4360   -3.0860 C   0  0  2  0  0  0  0  0  0  0  0  0
   -0.1920   10.0300   -3.4310 C   0  0  0  0  0  0  0  0  0  0  0  0
   -0.8390    9.1130   -2.3890 C   0  0  0  0  0  0  0  0  0  0  0  0
   -0.1870    9.2510   -1.0470 C   0  0  2  0  0  0  0  0  0  0  0  0
   -0.6640    8.3360   -0.0520 O   0  0  0  0  0  0  0  0  0  0  0  0
   -0.9190    9.7290    0.1930 C   0  0  0  0  0  0  0  0  0  0  0  0
   -2.3680   10.1000    0.1500 C   0  0  0  0  0  0  0  0  0  0  0  0
   -0.1170   10.2980    1.3220 C   0  0  0  0  0  0  0  0  0  0  0  0
    1.2490   11.5880   -2.0890 C   0  0  1  0  0  0  0  0  0  0  0  0
    2.2920   11.4020   -0.9550 C   0  0  0  0  0  0  0  0  0  0  0  0
    2.8250   12.8150   -0.6010 C   0  0  0  0  0  0  0  0  0  0  0  0
    1.8440   13.7870   -1.2970 C   0  0  1  0  0  0  0  0  0  0  0  0
    0.6150   13.8720   -0.3380 C   0  0  0  0  0  0  0  0  0  0  0  0
    2.4050   15.2050   -1.6430 C   0  0  2  0  0  0  0  0  0  0  0  0
    2.8360   16.0490   -0.4310 C   0  0  0  0  0  0  0  0  0  0  0  0
    1.7730   16.9210    0.1500 C   0  0  0  0  0  0  0  0  0  0  0  0
    0.6090   17.2390   -0.4470 C   0  0  0  0  0  0  0  0  0  0  0  0
    0.3100   16.7850   -1.8820 C   0  0  1  0  0  0  0  0  0  0  0  0
   -0.2530   17.9790   -2.6960 C   0  0  0  0  0  0  0  0  0  0  0  0
   -1.4610   18.6260   -2.0250 C   0  0  0  0  0  0  0  0  0  0  0  0
   -1.1080   19.1170   -0.6240 C   0  0  2  0  0  0  0  0  0  0  0  0
   -0.1700   20.1920   -0.7340 O   0  0  0  0  0  0  0  0  0  0  0  0
   -0.5210   18.0020    0.2860 C   0  0  0  0  0  0  0  0  0  0  0  0
   -1.6340   16.9890    0.6520 C   0  0  0  0  0  0  0  0  0  0  0  0
   -0.0780   18.6590    1.6210 C   0  0  0  0  0  0  0  0  0  0  0  0
    1.4950   16.0380   -2.6330 C   0  0  1  0  0  0  0  0  0  0  0  0
    2.4270   17.0800   -3.3240 C   0  0  0  0  0  0  0  0  0  0  0  0
    0.8930   15.1480   -3.7850 C   0  0  0  0  0  0  0  0  0  0  0  0
    0.4680   13.7170   -3.4060 C   0  0  0  0  0  0  0  0  0  0  0  0
    1.5790   13.0010   -2.6320 C   0  0  2  0  0  0  0  0  0  0  0  0
    2.8210   12.8810   -3.5800 C   0  0  0  0  0  0  0  0  0  0  0  0
    3.0056   11.2905   -4.0254 H   0  0  0  0  0  0  0  0  0  0  0  0
    2.2629    9.9286   -4.9310 H   0  0  0  0  0  0  0  0  0  0  0  0
    1.4749   11.5428   -4.9310 H   0  0  0  0  0  0  0  0  0  0  0  0
    1.7461    9.5596   -2.6380 H   0  0  0  0  0  0  0  0  0  0  0  0
   -0.7987   10.9438   -3.5140 H   0  0  0  0  0  0  0  0  0  0  0  0
   -0.1514    9.4661   -4.3746 H   0  0  0  0  0  0  0  0  0  0  0  0
   -1.9035    9.3741   -2.2965 H   0  0  0  0  0  0  0  0  0  0  0  0
   -0.7156    8.0727   -2.7244 H   0  0  0  0  0  0  0  0  0  0  0  0
    0.7587    9.5652   -1.5127 H   0  0  0  0  0  0  0  0  0  0  0  0
   -2.7519   10.1983    1.1761 H   0  0  0  0  0  0  0  0  0  0  0  0
   -2.4859   11.0573   -0.3789 H   0  0  0  0  0  0  0  0  0  0  0  0
   -2.9314    9.3171   -0.3789 H   0  0  0  0  0  0  0  0  0  0  0  0
   -0.5584    9.9848    2.2796 H   0  0  0  0  0  0  0  0  0  0  0  0
    0.9180    9.9311    1.2579 H   0  0  0  0  0  0  0  0  0  0  0  0
   -0.1214   11.3961    1.2579 H   0  0  0  0  0  0  0  0  0  0  0  0
    0.1986   11.5454   -1.7651 H   0  0  0  0  0  0  0  0  0  0  0  0
    1.8168   10.9449   -0.0745 H   0  0  0  0  0  0  0  0  0  0  0  0
    3.1101   10.7402   -1.2755 H   0  0  0  0  0  0  0  0  0  0  0  0
    2.8191   12.9708    0.4879 H   0  0  0  0  0  0  0  0  0  0  0  0
    3.8640   12.9638   -0.9303 H   0  0  0  0  0  0  0  0  0  0  0  0
    0.9619   13.8480    0.7056 H   0  0  0  0  0  0  0  0  0  0  0  0
    0.0706   14.8099   -0.5219 H   0  0  0  0  0  0  0  0  0  0  0  0
   -0.0534   13.0179   -0.5219 H   0  0  0  0  0  0  0  0  0  0  0  0
    3.3315   14.9664   -2.1859 H   0  0  0  0  0  0  0  0  0  0  0  0
    3.1799   15.3621    0.3563 H   0  0  0  0  0  0  0  0  0  0  0  0
    3.6200   16.7283   -0.7969 H   0  0  0  0  0  0  0  0  0  0  0  0
    1.9562   17.3392    1.1508 H   0  0  0  0  0  0  0  0  0  0  0  0
   -0.4534   15.9973   -1.7997 H   0  0  0  0  0  0  0  0  0  0  0  0
    0.5377   18.7360   -2.8045 H   0  0  0  0  0  0  0  0  0  0  0  0
   -0.5802   17.5929   -3.6727 H   0  0  0  0  0  0  0  0  0  0  0  0
   -1.7957   19.4800   -2.6322 H   0  0  0  0  0  0  0  0  0  0  0  0
   -2.2611   17.8756   -1.9431 H   0  0  0  0  0  0  0  0  0  0  0  0
   -2.0411   19.4520   -0.1474 H   0  0  0  0  0  0  0  0  0  0  0  0
    0.2590   20.1200   -1.6030 H   0  0  0  0  0  0  0  0  0  0  0  0
   -1.7162   16.9141    1.7464 H   0  0  0  0  0  0  0  0  0  0  0  0
   -2.5927   17.3309    0.2348 H   0  0  0  0  0  0  0  0  0  0  0  0
   -1.3836   16.0025    0.2348 H   0  0  0  0  0  0  0  0  0  0  0  0
   -0.4720   18.0747    2.4657 H   0  0  0  0  0  0  0  0  0  0  0  0
    1.0206   18.6818    1.6716 H   0  0  0  0  0  0  0  0  0  0  0  0
   -0.4688   19.6860    1.6716 H   0  0  0  0  0  0  0  0  0  0  0  0
    2.9525   17.6675   -2.5568 H   0  0  0  0  0  0  0  0  0  0  0  0
    3.1624   16.5550   -3.9513 H   0  0  0  0  0  0  0  0  0  0  0  0
    1.8235   17.7525   -3.9513 H   0  0  0  0  0  0  0  0  0  0  0  0
    0.0053   15.6662   -4.1767 H   0  0  0  0  0  0  0  0  0  0  0  0
    1.7108   15.0232   -4.5100 H   0  0  0  0  0  0  0  0  0  0  0  0
   -0.4345   13.7640   -2.7788 H   0  0  0  0  0  0  0  0  0  0  0  0
    0.2665   13.1551   -4.3299 H   0  0  0  0  0  0  0  0  0  0  0  0
    3.7361   12.7926   -2.9760 H   0  0  0  0  0  0  0  0  0  0  0  0
    2.7130   11.9891   -4.2147 H   0  0  0  0  0  0  0  0  0  0  0  0
    2.8857   13.7771   -4.2147 H   0  0  0  0  0  0  0  0  0  0  0  0
  1  2  1  0
  2  3  1  0
  3  4  1  0
  4  5  1  0
  5  6  1  0
  6  7  1  0
  7  8  1  0
  7  9  1  0
  2 10  1  0
 10 11  1  0
 11 12  1  0
 12 13  1  0
 13 14  1  1
 13 15  1  0
 15 16  1  0
 16 17  1  0
 17 18  2  0
 18 19  1  0
 19 20  1  0
 20 21  1  0
 21 22  1  0
 22 23  1  0
 22 24  1  0
 24 25  1  0
 24 26  1  0
 19 27  1  0
 27 28  1  6
 27 29  1  0
 29 30  1  0
 30 31  1  0
 31 32  1  6
  7  5  1  0
 31 10  1  0
 31 13  1  0
 27 15  1  0
 24 18  1  0
  1 33  1  0
  1 34  1  0
  1 35  1  0
  2 36  1  1
  3 37  1  0
  3 38  1  0
  4 39  1  0
  4 40  1  0
  5 41  1  6
  8 42  1  0
  8 43  1  0
  8 44  1  0
  9 45  1  0
  9 46  1  0
  9 47  1  0
 10 48  1  1
 11 49  1  0
 11 50  1  0
 12 51  1  0
 12 52  1  0
 14 53  1  0
 14 54  1  0
 14 55  1  0
 15 56  1  6
 16 57  1  0
 16 58  1  0
 17 59  1  0
 19 60  1  1
 20 61  1  0
 20 62  1  0
 21 63  1  0
 21 64  1  0
 22 65  1  1
 23 66  1  0
 25 67  1  0
 25 68  1  0
 25 69  1  0
 26 70  1  0
 26 71  1  0
 26 72  1  0
 28 73  1  0
 28 74  1  0
 28 75  1  0
 29 76  1  0
 29 77  1  0
 30 78  1  0
 30 79  1  0
 32 80  1  0
 32 81  1  0
 32 82  1  0
M  END
>  <meeko>  (11) 
{"is_sidechain": [false], "intermolecular_energy": 2.731, "internal_energy": -0.839}

$$$$
EPH_relaxed_0001_pdb2pqr_Repair_372_r2_0001_out
     RDKit          3D

 82 86  0  0  0  0  0  0  0  0999 V2000
   -4.2850    7.3440   -3.3760 C   0  0  0  0  0  0  0  0  0  0  0  0
   -3.8400    7.2570   -1.9130 C   0  0  2  0  0  0  0  0  0  0  0  0
   -4.9860    6.8110   -0.9840 C   0  0  0  0  0  0  0  0  0  0  0  0
   -6.0410    5.9450   -1.6780 C   0  0  0  0  0  0  0  0  0  0  0  0
   -7.4220    6.4940   -1.4870 C   0  0  2  0  0  0  0  0  0  0  0  0
   -8.4680    5.5140   -1.5380 O   0  0  0  0  0  0  0  0  0  0  0  0
   -8.4760    6.5050   -2.5780 C   0  0  0  0  0  0  0  0  0  0  0  0
   -8.1930    5.9580   -3.9420 C   0  0  0  0  0  0  0  0  0  0  0  0
   -9.6060    7.4820   -2.4720 C   0  0  0  0  0  0  0  0  0  0  0  0
   -3.2920    8.6030   -1.4560 C   0  0  1  0  0  0  0  0  0  0  0  0
   -3.9210    9.0820   -0.1200 C   0  0  0  0  0  0  0  0  0  0  0  0
   -2.8090    9.8350    0.6540 C   0  0  0  0  0  0  0  0  0  0  0  0
   -1.6880   10.0540   -0.3890 C   0  0  1  0  0  0  0  0  0  0  0  0
   -2.1400   11.3040   -1.2070 C   0  0  0  0  0  0  0  0  0  0  0  0
   -0.2410   10.2270    0.1780 C   0  0  2  0  0  0  0  0  0  0  0  0
   -0.0380   11.4560    1.0820 C   0  0  0  0  0  0  0  0  0  0  0  0
    0.3910   12.7010    0.3790 C   0  0  0  0  0  0  0  0  0  0  0  0
    0.8780   12.7640   -0.8750 C   0  0  0  0  0  0  0  0  0  0  0  0
    1.1310   11.4860   -1.6860 C   0  0  1  0  0  0  0  0  0  0  0  0
    2.5290   11.5650   -2.3540 C   0  0  0  0  0  0  0  0  0  0  0  0
    2.7090   12.8310   -3.1860 C   0  0  0  0  0  0  0  0  0  0  0  0
    2.5070   14.0790   -2.3320 C   0  0  2  0  0  0  0  0  0  0  0  0
    3.5650   14.1570   -1.3710 O   0  0  0  0  0  0  0  0  0  0  0  0
    1.1350   14.1070   -1.6010 C   0  0  0  0  0  0  0  0  0  0  0  0
    0.0010   14.3270   -2.6330 C   0  0  0  0  0  0  0  0  0  0  0  0
    1.1170   15.3450   -0.6660 C   0  0  0  0  0  0  0  0  0  0  0  0
    0.9000   10.1170   -0.9130 C   0  0  1  0  0  0  0  0  0  0  0  0
    2.2000    9.7070   -0.1570 C   0  0  0  0  0  0  0  0  0  0  0  0
    0.6170    8.9760   -1.9610 C   0  0  0  0  0  0  0  0  0  0  0  0
   -0.8490    8.7760   -2.3920 C   0  0  0  0  0  0  0  0  0  0  0  0
   -1.7720    8.6930   -1.1720 C   0  0  2  0  0  0  0  0  0  0  0  0
   -1.3550    7.4320   -0.3410 C   0  0  0  0  0  0  0  0  0  0  0  0
   -5.3637    7.5549   -3.4192 H   0  0  0  0  0  0  0  0  0  0  0  0
   -3.7331    8.1512   -3.8797 H   0  0  0  0  0  0  0  0  0  0  0  0
   -4.0778    6.3883   -3.8797 H   0  0  0  0  0  0  0  0  0  0  0  0
   -3.0498    6.4943   -1.8516 H   0  0  0  0  0  0  0  0  0  0  0  0
   -4.5545    6.2333   -0.1533 H   0  0  0  0  0  0  0  0  0  0  0  0
   -5.4950    7.7239   -0.6413 H   0  0  0  0  0  0  0  0  0  0  0  0
   -5.8185    5.9065   -2.7546 H   0  0  0  0  0  0  0  0  0  0  0  0
   -6.0069    4.9400   -1.2321 H   0  0  0  0  0  0  0  0  0  0  0  0
   -7.0422    7.2820   -0.8201 H   0  0  0  0  0  0  0  0  0  0  0  0
   -7.6893    4.9845   -3.8494 H   0  0  0  0  0  0  0  0  0  0  0  0
   -9.1385    5.8310   -4.4896 H   0  0  0  0  0  0  0  0  0  0  0  0
   -7.5431    6.6564   -4.4896 H   0  0  0  0  0  0  0  0  0  0  0  0
   -9.8271    7.6732   -1.4116 H   0  0  0  0  0  0  0  0  0  0  0  0
   -9.3230    8.4246   -2.9633 H   0  0  0  0  0  0  0  0  0  0  0  0
  -10.4979    7.0658   -2.9633 H   0  0  0  0  0  0  0  0  0  0  0  0
   -3.5476    9.2134   -2.3346 H   0  0  0  0  0  0  0  0  0  0  0  0
   -4.7665    9.7566   -0.3199 H   0  0  0  0  0  0  0  0  0  0  0  0
   -4.3018    8.2314    0.4643 H   0  0  0  0  0  0  0  0  0  0  0  0
   -3.1825   10.7986    1.0309 H   0  0  0  0  0  0  0  0  0  0  0  0
   -2.4580    9.2731    1.5321 H   0  0  0  0  0  0  0  0  0  0  0  0
   -2.4310   12.1088   -0.5159 H   0  0  0  0  0  0  0  0  0  0  0  0
   -1.3092   11.6475   -1.8408 H   0  0  0  0  0  0  0  0  0  0  0  0
   -2.9984   11.0367   -1.8408 H   0  0  0  0  0  0  0  0  0  0  0  0
   -0.1384    9.3514    0.8359 H   0  0  0  0  0  0  0  0  0  0  0  0
   -0.9905   11.6643    1.5913 H   0  0  0  0  0  0  0  0  0  0  0  0
    0.7813   11.1966    1.7686 H   0  0  0  0  0  0  0  0  0  0  0  0
    0.3018   13.6475    0.9323 H   0  0  0  0  0  0  0  0  0  0  0  0
    0.3492   11.4566   -2.4592 H   0  0  0  0  0  0  0  0  0  0  0  0
    3.2973   11.5480   -1.5670 H   0  0  0  0  0  0  0  0  0  0  0  0
    2.6245   10.7037   -3.0316 H   0  0  0  0  0  0  0  0  0  0  0  0
    3.7252   12.8436   -3.6068 H   0  0  0  0  0  0  0  0  0  0  0  0
    1.9590   12.8315   -3.9907 H   0  0  0  0  0  0  0  0  0  0  0  0
    2.5197   14.9462   -3.0087 H   0  0  0  0  0  0  0  0  0  0  0  0
    4.3120   14.6150   -1.7930 H   0  0  0  0  0  0  0  0  0  0  0  0
   -0.9457   14.5107   -2.1039 H   0  0  0  0  0  0  0  0  0  0  0  0
    0.2428   15.1950   -3.2640 H   0  0  0  0  0  0  0  0  0  0  0  0
   -0.0993   13.4316   -3.2640 H   0  0  0  0  0  0  0  0  0  0  0  0
    1.1218   15.0126    0.3826 H   0  0  0  0  0  0  0  0  0  0  0  0
    2.0063   15.9631   -0.8588 H   0  0  0  0  0  0  0  0  0  0  0  0
    0.2102   15.9370   -0.8588 H   0  0  0  0  0  0  0  0  0  0  0  0
    2.0261    9.7618    0.9278 H   0  0  0  0  0  0  0  0  0  0  0  0
    2.4755    8.6784   -0.4326 H   0  0  0  0  0  0  0  0  0  0  0  0
    3.0158   10.3915   -0.4326 H   0  0  0  0  0  0  0  0  0  0  0  0
    1.2017    9.2020   -2.8649 H   0  0  0  0  0  0  0  0  0  0  0  0
    0.8972    8.0419   -1.4521 H   0  0  0  0  0  0  0  0  0  0  0  0
   -1.1584    9.6242   -3.0204 H   0  0  0  0  0  0  0  0  0  0  0  0
   -0.9242    7.8334   -2.9539 H   0  0  0  0  0  0  0  0  0  0  0  0
   -1.4301    7.6592    0.7327 H   0  0  0  0  0  0  0  0  0  0  0  0
   -2.0238    6.5938   -0.5861 H   0  0  0  0  0  0  0  0  0  0  0  0
   -0.3183    7.1577   -0.5861 H   0  0  0  0  0  0  0  0  0  0  0  0
  1  2  1  0
  2  3  1  0
  3  4  1  0
  4  5  1  0
  5  6  1  0
  6  7  1  0
  7  8  1  0
  7  9  1  0
  2 10  1  0
 10 11  1  0
 11 12  1  0
 12 13  1  0
 13 14  1  6
 13 15  1  0
 15 16  1  0
 16 17  1  0
 17 18  2  0
 18 19  1  0
 19 20  1  0
 20 21  1  0
 21 22  1  0
 22 23  1  0
 22 24  1  0
 24 25  1  0
 24 26  1  0
 19 27  1  0
 27 28  1  1
 27 29  1  0
 29 30  1  0
 30 31  1  0
 31 32  1  1
  7  5  1  0
 31 10  1  0
 31 13  1  0
 27 15  1  0
 24 18  1  0
  1 33  1  0
  1 34  1  0
  1 35  1  0
  2 36  1  6
  3 37  1  0
  3 38  1  0
  4 39  1  0
  4 40  1  0
  5 41  1  1
  8 42  1  0
  8 43  1  0
  8 44  1  0
  9 45  1  0
  9 46  1  0
  9 47  1  0
 10 48  1  6
 11 49  1  0
 11 50  1  0
 12 51  1  0
 12 52  1  0
 14 53  1  0
 14 54  1  0
 14 55  1  0
 15 56  1  1
 16 57  1  0
 16 58  1  0
 17 59  1  0
 19 60  1  6
 20 61  1  0
 20 62  1  0
 21 63  1  0
 21 64  1  0
 22 65  1  6
 23 66  1  0
 25 67  1  0
 25 68  1  0
 25 69  1  0
 26 70  1  0
 26 71  1  0
 26 72  1  0
 28 73  1  0
 28 74  1  0
 28 75  1  0
 29 76  1  0
 29 77  1  0
 30 78  1  0
 30 79  1  0
 32 80  1  0
 32 81  1  0
 32 82  1  0
M  END
>  <meeko>  (12) 
{"is_sidechain": [false], "intermolecular_energy": 2.731, "internal_energy": -0.839}

$$$$
EPH_relaxed_0001_pdb2pqr_Repair_372_r2_0001_out
     RDKit          3D

 82 86  0  0  0  0  0  0  0  0999 V2000
   -1.3540    6.9030   -3.1000 C   0  0  0  0  0  0  0  0  0  0  0  0
   -2.5720    7.3620   -2.2950 C   0  0  2  0  0  0  0  0  0  0  0  0
   -3.8630    7.3560   -3.1390 C   0  0  0  0  0  0  0  0  0  0  0  0
   -4.9490    6.4240   -2.5960 C   0  0  0  0  0  0  0  0  0  0  0  0
   -6.2680    6.6580   -3.2690 C   0  0  2  0  0  0  0  0  0  0  0  0
   -7.0870    7.6580   -2.6490 O   0  0  0  0  0  0  0  0  0  0  0  0
   -7.6030    6.3170   -2.6340 C   0  0  0  0  0  0  0  0  0  0  0  0
   -7.6860    5.7120   -1.2680 C   0  0  0  0  0  0  0  0  0  0  0  0
   -8.7890    6.1170   -3.5260 C   0  0  0  0  0  0  0  0  0  0  0  0
   -2.3260    8.7560   -1.7300 C   0  0  1  0  0  0  0  0  0  0  0  0
   -3.2050    9.0610   -0.4870 C   0  0  0  0  0  0  0  0  0  0  0  0
   -2.3520    9.9460    0.4580 C   0  0  0  0  0  0  0  0  0  0  0  0
   -1.1510   10.3950   -0.4070 C   0  0  1  0  0  0  0  0  0  0  0  0
   -1.6890   11.5930   -1.2500 C   0  0  0  0  0  0  0  0  0  0  0  0
    0.1540   10.7730    0.3660 C   0  0  2  0  0  0  0  0  0  0  0  0
    0.0230   11.9730    1.3200 C   0  0  0  0  0  0  0  0  0  0  0  0
    0.3290   13.3040    0.7180 C   0  0  0  0  0  0  0  0  0  0  0  0
    0.9660   13.5060   -0.4510 C   0  0  0  0  0  0  0  0  0  0  0  0
    1.5390   12.3270   -1.2490 C   0  0  1  0  0  0  0  0  0  0  0  0
    2.9830   12.6650   -1.7060 C   0  0  0  0  0  0  0  0  0  0  0  0
    3.0610   13.9820   -2.4720 C   0  0  0  0  0  0  0  0  0  0  0  0
    2.5370   15.1380   -1.6250 C   0  0  2  0  0  0  0  0  0  0  0  0
    3.4240   15.3390   -0.5210 O   0  0  0  0  0  0  0  0  0  0  0  0
    1.0920   14.9060   -1.0990 C   0  0  0  0  0  0  0  0  0  0  0  0
    0.0900   14.9890   -2.2770 C   0  0  0  0  0  0  0  0  0  0  0  0
    0.7380   16.0790   -0.1450 C   0  0  0  0  0  0  0  0  0  0  0  0
    1.4370   10.9030   -0.5520 C   0  0  1  0  0  0  0  0  0  0  0  0
    2.6710   10.6730    0.3730 C   0  0  0  0  0  0  0  0  0  0  0  0
    1.4970    9.7840   -1.6580 C   0  0  0  0  0  0  0  0  0  0  0  0
    0.1590    9.3690   -2.3000 C   0  0  0  0  0  0  0  0  0  0  0  0
   -0.8960    9.0780   -1.2280 C   0  0  2  0  0  0  0  0  0  0  0  0
   -0.3930    7.8630   -0.3780 C   0  0  0  0  0  0  0  0  0  0  0  0
   -0.5517    6.6007   -2.4108 H   0  0  0  0  0  0  0  0  0  0  0  0
   -1.6341    6.0488   -3.7339 H   0  0  0  0  0  0  0  0  0  0  0  0
   -1.0007    7.7297   -3.7339 H   0  0  0  0  0  0  0  0  0  0  0  0
   -2.7129    6.6462   -1.4718 H   0  0  0  0  0  0  0  0  0  0  0  0
   -4.2652    8.3795   -3.1656 H   0  0  0  0  0  0  0  0  0  0  0  0
   -3.5918    6.9854   -4.1386 H   0  0  0  0  0  0  0  0  0  0  0  0
   -4.6419    5.3815   -2.7663 H   0  0  0  0  0  0  0  0  0  0  0  0
   -5.0709    6.6287   -1.5221 H   0  0  0  0  0  0  0  0  0  0  0  0
   -5.8360    6.4186   -4.2519 H   0  0  0  0  0  0  0  0  0  0  0  0
   -7.5777    6.5017   -0.5100 H   0  0  0  0  0  0  0  0  0  0  0  0
   -8.6605    5.2168   -1.1449 H   0  0  0  0  0  0  0  0  0  0  0  0
   -6.8809    4.9727   -1.1449 H   0  0  0  0  0  0  0  0  0  0  0  0
   -9.6886    5.9653   -2.9114 H   0  0  0  0  0  0  0  0  0  0  0  0
   -8.9242    7.0050   -4.1609 H   0  0  0  0  0  0  0  0  0  0  0  0
   -8.6255    5.2338   -4.1609 H   0  0  0  0  0  0  0  0  0  0  0  0
   -2.5569    9.3589   -2.6206 H   0  0  0  0  0  0  0  0  0  0  0  0
   -4.1157    9.5985   -0.7898 H   0  0  0  0  0  0  0  0  0  0  0  0
   -3.5153    8.1325    0.0147 H   0  0  0  0  0  0  0  0  0  0  0  0
   -2.9300   10.8165    0.8017 H   0  0  0  0  0  0  0  0  0  0  0  0
   -2.0359    9.4062    1.3628 H   0  0  0  0  0  0  0  0  0  0  0  0
   -2.0449   12.3855   -0.5753 H   0  0  0  0  0  0  0  0  0  0  0  0
   -0.8813   11.9869   -1.8844 H   0  0  0  0  0  0  0  0  0  0  0  0
   -2.5200   11.2510   -1.8844 H   0  0  0  0  0  0  0  0  0  0  0  0
    0.3091    9.8945    1.0096 H   0  0  0  0  0  0  0  0  0  0  0  0
   -1.0114   11.9988    1.6933 H   0  0  0  0  0  0  0  0  0  0  0  0
    0.7732   11.8169    2.1092 H   0  0  0  0  0  0  0  0  0  0  0  0
    0.0069   14.1953    1.2765 H   0  0  0  0  0  0  0  0  0  0  0  0
    0.8873   12.2084   -2.1272 H   0  0  0  0  0  0  0  0  0  0  0  0
    3.6268   12.7355   -0.8169 H   0  0  0  0  0  0  0  0  0  0  0  0
    3.3148   11.8645   -2.3836 H   0  0  0  0  0  0  0  0  0  0  0  0
    4.1088   14.1798   -2.7420 H   0  0  0  0  0  0  0  0  0  0  0  0
    2.4396   13.8995   -3.3759 H   0  0  0  0  0  0  0  0  0  0  0  0
    2.4971   16.0283   -2.2698 H   0  0  0  0  0  0  0  0  0  0  0  0
    2.9860   14.9950    0.2760 H   0  0  0  0  0  0  0  0  0  0  0  0
   -0.9334   15.0738   -1.8826 H   0  0  0  0  0  0  0  0  0  0  0  0
    0.3200   15.8712   -2.8925 H   0  0  0  0  0  0  0  0  0  0  0  0
    0.1717   14.0810   -2.8925 H   0  0  0  0  0  0  0  0  0  0  0  0
    0.8385   15.7460    0.8986 H   0  0  0  0  0  0  0  0  0  0  0  0
    1.4222   16.9205   -0.3289 H   0  0  0  0  0  0  0  0  0  0  0  0
   -0.2975   16.4015   -0.3289 H   0  0  0  0  0  0  0  0  0  0  0  0
    2.3564   10.7316    1.4254 H   0  0  0  0  0  0  0  0  0  0  0  0
    3.0990    9.6796    0.1731 H   0  0  0  0  0  0  0  0  0  0  0  0
    3.4282   11.4455    0.1731 H   0  0  0  0  0  0  0  0  0  0  0  0
    2.1539   10.1462   -2.4625 H   0  0  0  0  0  0  0  0  0  0  0  0
    1.8579    8.8844   -1.1379 H   0  0  0  0  0  0  0  0  0  0  0  0
   -0.1990   10.1848   -2.9452 H   0  0  0  0  0  0  0  0  0  0  0  0
    0.3214    8.4549   -2.8899 H   0  0  0  0  0  0  0  0  0  0  0  0
   -0.4906    8.0987    0.6920 H   0  0  0  0  0  0  0  0  0  0  0  0
   -0.9974    6.9748   -0.6144 H   0  0  0  0  0  0  0  0  0  0  0  0
    0.6623    7.6619   -0.6144 H   0  0  0  0  0  0  0  0  0  0  0  0
  1  2  1  0
  2  3  1  0
  3  4  1  0
  4  5  1  0
  5  6  1  0
  6  7  1  0
  7  8  1  0
  7  9  1  0
  2 10  1  0
 10 11  1  0
 11 12  1  0
 12 13  1  0
 13 14  1  6
 13 15  1  0
 15 16  1  0
 16 17  1  0
 17 18  2  0
 18 19  1  0
 19 20  1  0
 20 21  1  0
 21 22  1  0
 22 23  1  0
 22 24  1  0
 24 25  1  0
 24 26  1  0
 19 27  1  0
 27 28  1  1
 27 29  1  0
 29 30  1  0
 30 31  1  0
 31 32  1  1
  7  5  1  0
 31 10  1  0
 31 13  1  0
 27 15  1  0
 24 18  1  0
  1 33  1  0
  1 34  1  0
  1 35  1  0
  2 36  1  1
  3 37  1  0
  3 38  1  0
  4 39  1  0
  4 40  1  0
  5 41  1  6
  8 42  1  0
  8 43  1  0
  8 44  1  0
  9 45  1  0
  9 46  1  0
  9 47  1  0
 10 48  1  6
 11 49  1  0
 11 50  1  0
 12 51  1  0
 12 52  1  0
 14 53  1  0
 14 54  1  0
 14 55  1  0
 15 56  1  1
 16 57  1  0
 16 58  1  0
 17 59  1  0
 19 60  1  6
 20 61  1  0
 20 62  1  0
 21 63  1  0
 21 64  1  0
 22 65  1  6
 23 66  1  0
 25 67  1  0
 25 68  1  0
 25 69  1  0
 26 70  1  0
 26 71  1  0
 26 72  1  0
 28 73  1  0
 28 74  1  0
 28 75  1  0
 29 76  1  0
 29 77  1  0
 30 78  1  0
 30 79  1  0
 32 80  1  0
 32 81  1  0
 32 82  1  0
M  END
>  <meeko>  (13) 
{"is_sidechain": [false], "intermolecular_energy": 2.731, "internal_energy": -0.839}

$$$$
EPH_relaxed_0001_pdb2pqr_Repair_372_r2_0001_out
     RDKit          3D

 82 86  0  0  0  0  0  0  0  0999 V2000
    2.9940   18.7210   -3.0370 C   0  0  0  0  0  0  0  0  0  0  0  0
    1.7550   18.8420   -2.1460 C   0  0  2  0  0  0  0  0  0  0  0  0
    1.8920   19.9770   -1.1120 C   0  0  0  0  0  0  0  0  0  0  0  0
    1.5600   19.5490    0.3200 C   0  0  0  0  0  0  0  0  0  0  0  0
    2.5880   20.0350    1.2960 C   0  0  2  0  0  0  0  0  0  0  0  0
    3.9040   20.1930    0.7500 O   0  0  0  0  0  0  0  0  0  0  0  0
    3.7570   19.1910    1.7700 C   0  0  0  0  0  0  0  0  0  0  0  0
    3.9560   17.7910    1.2800 C   0  0  0  0  0  0  0  0  0  0  0  0
    4.4180   19.5470    3.0650 C   0  0  0  0  0  0  0  0  0  0  0  0
    1.4960   17.5190   -1.4350 C   0  0  1  0  0  0  0  0  0  0  0  0
    0.4570   17.6490   -0.2900 C   0  0  0  0  0  0  0  0  0  0  0  0
   -0.3500   16.3260   -0.2650 C   0  0  0  0  0  0  0  0  0  0  0  0
    0.4590   15.3590   -1.1620 C   0  0  1  0  0  0  0  0  0  0  0  0
    1.6040   14.8250   -0.2450 C   0  0  0  0  0  0  0  0  0  0  0  0
   -0.3460   14.1910   -1.8200 C   0  0  2  0  0  0  0  0  0  0  0  0
   -0.9850   13.2000   -0.8310 C   0  0  0  0  0  0  0  0  0  0  0  0
   -0.1340   12.0310   -0.4610 C   0  0  0  0  0  0  0  0  0  0  0  0
    0.9740   11.6320   -1.1130 C   0  0  0  0  0  0  0  0  0  0  0  0
    1.4190   12.3250   -2.4070 C   0  0  1  0  0  0  0  0  0  0  0  0
    1.7810   11.2540   -3.4700 C   0  0  0  0  0  0  0  0  0  0  0  0
    2.8120   10.2510   -2.9610 C   0  0  0  0  0  0  0  0  0  0  0  0
    2.3090    9.5410   -1.7070 C   0  0  2  0  0  0  0  0  0  0  0  0
    1.1900    8.7220   -2.0590 O   0  0  0  0  0  0  0  0  0  0  0  0
    1.9040   10.5190   -0.5700 C   0  0  0  0  0  0  0  0  0  0  0  0
    3.1720   11.1890    0.0170 C   0  0  0  0  0  0  0  0  0  0  0  0
    1.2830    9.6820    0.5810 C   0  0  0  0  0  0  0  0  0  0  0  0
    0.4330   13.4360   -2.9720 C   0  0  1  0  0  0  0  0  0  0  0  0
   -0.6470   12.7760   -3.8820 C   0  0  0  0  0  0  0  0  0  0  0  0
    1.2450   14.4240   -3.8920 C   0  0  0  0  0  0  0  0  0  0  0  0
    1.9170   15.6240   -3.1990 C   0  0  0  0  0  0  0  0  0  0  0  0
    0.9290   16.3540   -2.2850 C   0  0  2  0  0  0  0  0  0  0  0  0
   -0.2240   16.9210   -3.1820 C   0  0  0  0  0  0  0  0  0  0  0  0
    3.8915   18.6334   -2.4071 H   0  0  0  0  0  0  0  0  0  0  0  0
    2.9031   17.8275   -3.6721 H   0  0  0  0  0  0  0  0  0  0  0  0
    3.0777   19.6152   -3.6721 H   0  0  0  0  0  0  0  0  0  0  0  0
    0.9025   19.0887   -2.7960 H   0  0  0  0  0  0  0  0  0  0  0  0
    2.9292   20.3428   -1.1334 H   0  0  0  0  0  0  0  0  0  0  0  0
    1.1664   20.7552   -1.3911 H   0  0  0  0  0  0  0  0  0  0  0  0
    0.5800   19.9642    0.5981 H   0  0  0  0  0  0  0  0  0  0  0  0
    1.5466   18.4496    0.3550 H   0  0  0  0  0  0  0  0  0  0  0  0
    1.8301   20.6174    1.8404 H   0  0  0  0  0  0  0  0  0  0  0  0
    4.0525   17.1118    2.1399 H   0  0  0  0  0  0  0  0  0  0  0  0
    3.0917   17.4897    0.6700 H   0  0  0  0  0  0  0  0  0  0  0  0
    4.8701   17.7425    0.6700 H   0  0  0  0  0  0  0  0  0  0  0  0
    3.7900   19.2088    3.9024 H   0  0  0  0  0  0  0  0  0  0  0  0
    5.4008   19.0562    3.1221 H   0  0  0  0  0  0  0  0  0  0  0  0
    4.5490   20.6377    3.1221 H   0  0  0  0  0  0  0  0  0  0  0  0
    2.5192   17.2826   -1.1075 H   0  0  0  0  0  0  0  0  0  0  0  0
    0.9699   17.7979    0.6716 H   0  0  0  0  0  0  0  0  0  0  0  0
   -0.2050   18.5120   -0.4540 H   0  0  0  0  0  0  0  0  0  0  0  0
   -0.4232   15.9350    0.7605 H   0  0  0  0  0  0  0  0  0  0  0  0
   -1.3823   16.4600   -0.6205 H   0  0  0  0  0  0  0  0  0  0  0  0
    1.3208   14.9571    0.8097 H   0  0  0  0  0  0  0  0  0  0  0  0
    1.7694   13.7569   -0.4493 H   0  0  0  0  0  0  0  0  0  0  0  0
    2.5286   15.3848   -0.4493 H   0  0  0  0  0  0  0  0  0  0  0  0
   -1.1846   14.7210   -2.2952 H   0  0  0  0  0  0  0  0  0  0  0  0
   -1.2282   13.7488    0.0908 H   0  0  0  0  0  0  0  0  0  0  0  0
   -1.8664   12.7853   -1.3422 H   0  0  0  0  0  0  0  0  0  0  0  0
   -0.4381   11.4457    0.4193 H   0  0  0  0  0  0  0  0  0  0  0  0
    2.3135   12.9100   -2.1469 H   0  0  0  0  0  0  0  0  0  0  0  0
    0.8665   10.7096   -3.7480 H   0  0  0  0  0  0  0  0  0  0  0  0
    2.2196   11.7751   -4.3337 H   0  0  0  0  0  0  0  0  0  0  0  0
    3.0050    9.5038   -3.7449 H   0  0  0  0  0  0  0  0  0  0  0  0
    3.7358   10.7932   -2.7109 H   0  0  0  0  0  0  0  0  0  0  0  0
    3.1387    8.9335   -1.3165 H   0  0  0  0  0  0  0  0  0  0  0  0
    0.9450    8.9360   -2.9750 H   0  0  0  0  0  0  0  0  0  0  0  0
    3.1247   11.1640    1.1157 H   0  0  0  0  0  0  0  0  0  0  0  0
    4.0653   10.6452   -0.3240 H   0  0  0  0  0  0  0  0  0  0  0  0
    3.2261   12.2334   -0.3240 H   0  0  0  0  0  0  0  0  0  0  0  0
    1.5944   10.1017    1.5489 H   0  0  0  0  0  0  0  0  0  0  0  0
    0.1860    9.7108    0.5047 H   0  0  0  0  0  0  0  0  0  0  0  0
    1.6286    8.6405    0.5047 H   0  0  0  0  0  0  0  0  0  0  0  0
   -1.4176   12.3051   -3.2540 H   0  0  0  0  0  0  0  0  0  0  0  0
   -1.1111   13.5450   -4.5171 H   0  0  0  0  0  0  0  0  0  0  0  0
   -0.1744   12.0122   -4.5171 H   0  0  0  0  0  0  0  0  0  0  0  0
    2.0347   13.8421   -4.3898 H   0  0  0  0  0  0  0  0  0  0  0  0
    0.4994   14.8639   -4.5706 H   0  0  0  0  0  0  0  0  0  0  0  0
    2.7646   15.2636   -2.5975 H   0  0  0  0  0  0  0  0  0  0  0  0
    2.2636   16.3259   -3.9718 H   0  0  0  0  0  0  0  0  0  0  0  0
   -1.0265   17.3156   -2.5415 H   0  0  0  0  0  0  0  0  0  0  0  0
    0.1689   17.7286   -3.8171 H   0  0  0  0  0  0  0  0  0  0  0  0
   -0.6238   16.1167   -3.8171 H   0  0  0  0  0  0  0  0  0  0  0  0
  1  2  1  0
  2  3  1  0
  3  4  1  0
  4  5  1  0
  5  6  1  0
  6  7  1  0
  7  8  1  0
  7  9  1  0
  2 10  1  0
 10 11  1  0
 11 12  1  0
 12 13  1  0
 13 14  1  1
 13 15  1  0
 15 16  1  0
 16 17  1  0
 17 18  2  0
 18 19  1  0
 19 20  1  0
 20 21  1  0
 21 22  1  0
 22 23  1  0
 22 24  1  0
 24 25  1  0
 24 26  1  0
 19 27  1  0
 27 28  1  6
 27 29  1  0
 29 30  1  0
 30 31  1  0
 31 32  1  6
  7  5  1  0
 31 10  1  0
 31 13  1  0
 27 15  1  0
 24 18  1  0
  1 33  1  0
  1 34  1  0
  1 35  1  0
  2 36  1  6
  3 37  1  0
  3 38  1  0
  4 39  1  0
  4 40  1  0
  5 41  1  1
  8 42  1  0
  8 43  1  0
  8 44  1  0
  9 45  1  0
  9 46  1  0
  9 47  1  0
 10 48  1  1
 11 49  1  0
 11 50  1  0
 12 51  1  0
 12 52  1  0
 14 53  1  0
 14 54  1  0
 14 55  1  0
 15 56  1  6
 16 57  1  0
 16 58  1  0
 17 59  1  0
 19 60  1  1
 20 61  1  0
 20 62  1  0
 21 63  1  0
 21 64  1  0
 22 65  1  1
 23 66  1  0
 25 67  1  0
 25 68  1  0
 25 69  1  0
 26 70  1  0
 26 71  1  0
 26 72  1  0
 28 73  1  0
 28 74  1  0
 28 75  1  0
 29 76  1  0
 29 77  1  0
 30 78  1  0
 30 79  1  0
 32 80  1  0
 32 81  1  0
 32 82  1  0
M  END
>  <meeko>  (14) 
{"is_sidechain": [false], "intermolecular_energy": 2.731, "internal_energy": -0.839}

$$$$
EPH_relaxed_0001_pdb2pqr_Repair_372_r2_0001_out
     RDKit          3D

 82 86  0  0  0  0  0  0  0  0999 V2000
    1.5850   10.7640   -4.9850 C   0  0  0  0  0  0  0  0  0  0  0  0
    0.9140   10.6030   -3.6170 C   0  0  2  0  0  0  0  0  0  0  0  0
   -0.2480    9.5900   -3.6560 C   0  0  0  0  0  0  0  0  0  0  0  0
   -0.1330    8.4810   -2.6070 C   0  0  0  0  0  0  0  0  0  0  0  0
    0.0210    9.0390   -1.2250 C   0  0  2  0  0  0  0  0  0  0  0  0
   -0.3020    8.1240   -0.1700 O   0  0  0  0  0  0  0  0  0  0  0  0
   -1.1450    9.2820   -0.2860 C   0  0  0  0  0  0  0  0  0  0  0  0
   -2.5520    8.9730   -0.6920 C   0  0  0  0  0  0  0  0  0  0  0  0
   -0.9730   10.2660    0.8290 C   0  0  0  0  0  0  0  0  0  0  0  0
    0.4120   11.9530   -3.1220 C   0  0  1  0  0  0  0  0  0  0  0  0
   -1.0260   11.8800   -2.5430 C   0  0  0  0  0  0  0  0  0  0  0  0
   -1.0880   12.8910   -1.3690 C   0  0  0  0  0  0  0  0  0  0  0  0
    0.1940   13.7430   -1.5210 C   0  0  1  0  0  0  0  0  0  0  0  0
   -0.1540   14.8000   -2.6150 C   0  0  0  0  0  0  0  0  0  0  0  0
    0.7330   14.4170   -0.2170 C   0  0  2  0  0  0  0  0  0  0  0  0
   -0.2180   15.4400    0.4300 C   0  0  0  0  0  0  0  0  0  0  0  0
   -0.0500   16.8490   -0.0330 C   0  0  0  0  0  0  0  0  0  0  0  0
    1.0080   17.3270   -0.7150 C   0  0  0  0  0  0  0  0  0  0  0  0
    2.2270   16.4410   -1.0020 C   0  0  1  0  0  0  0  0  0  0  0  0
    3.5250   17.2220   -0.6710 C   0  0  0  0  0  0  0  0  0  0  0  0
    3.5990   18.5660   -1.3900 C   0  0  0  0  0  0  0  0  0  0  0  0
    2.4000   19.4410   -1.0340 C   0  0  2  0  0  0  0  0  0  0  0  0
    2.4840   19.7970    0.3490 O   0  0  0  0  0  0  0  0  0  0  0  0
    1.0340   18.7550   -1.3150 C   0  0  0  0  0  0  0  0  0  0  0  0
    0.8130   18.6430   -2.8440 C   0  0  0  0  0  0  0  0  0  0  0  0
   -0.0870   19.6860   -0.7810 C   0  0  0  0  0  0  0  0  0  0  0  0
    2.2010   14.9940   -0.3450 C   0  0  1  0  0  0  0  0  0  0  0  0
    2.7830   15.0550    1.1000 C   0  0  0  0  0  0  0  0  0  0  0  0
    3.1490   14.0400   -1.1650 C   0  0  0  0  0  0  0  0  0  0  0  0
    2.5260   13.3110   -2.3710 C   0  0  0  0  0  0  0  0  0  0  0  0
    1.2080   12.6340   -1.9810 C   0  0  2  0  0  0  0  0  0  0  0  0
    1.5300   11.5490   -0.8970 C   0  0  0  0  0  0  0  0  0  0  0  0
    2.6460   11.0186   -4.8453 H   0  0  0  0  0  0  0  0  0  0  0  0
    1.5049    9.8212   -5.5459 H   0  0  0  0  0  0  0  0  0  0  0  0
    1.0858   11.5679   -5.5459 H   0  0  0  0  0  0  0  0  0  0  0  0
    1.6706   10.2107   -2.9215 H   0  0  0  0  0  0  0  0  0  0  0  0
   -1.1887   10.1338   -3.4848 H   0  0  0  0  0  0  0  0  0  0  0  0
   -0.2178    9.1039   -4.6423 H   0  0  0  0  0  0  0  0  0  0  0  0
   -1.0413    7.8615   -2.6421 H   0  0  0  0  0  0  0  0  0  0  0  0
    0.7612    7.8830   -2.8369 H   0  0  0  0  0  0  0  0  0  0  0  0
    0.8509    9.6825   -1.5524 H   0  0  0  0  0  0  0  0  0  0  0  0
   -3.1715    8.8370    0.2067 H   0  0  0  0  0  0  0  0  0  0  0  0
   -2.9520    9.8047   -1.2906 H   0  0  0  0  0  0  0  0  0  0  0  0
   -2.5667    8.0502   -1.2906 H   0  0  0  0  0  0  0  0  0  0  0  0
   -1.0639    9.7461    1.7941 H   0  0  0  0  0  0  0  0  0  0  0  0
    0.0204   10.7328    0.7561 H   0  0  0  0  0  0  0  0  0  0  0  0
   -1.7491   11.0421    0.7561 H   0  0  0  0  0  0  0  0  0  0  0  0
    0.5102   12.5365   -4.0493 H   0  0  0  0  0  0  0  0  0  0  0  0
   -1.7598   12.1519   -3.3161 H   0  0  0  0  0  0  0  0  0  0  0  0
   -1.2622   10.8619   -2.2000 H   0  0  0  0  0  0  0  0  0  0  0  0
   -1.9855   13.5222   -1.4469 H   0  0  0  0  0  0  0  0  0  0  0  0
   -1.1439   12.3917   -0.3905 H   0  0  0  0  0  0  0  0  0  0  0  0
   -0.4631   15.7389   -2.1325 H   0  0  0  0  0  0  0  0  0  0  0  0
    0.7310   14.9839   -3.2418 H   0  0  0  0  0  0  0  0  0  0  0  0
   -0.9752   14.4222   -3.2418 H   0  0  0  0  0  0  0  0  0  0  0  0
    0.7823   13.5700    0.4832 H   0  0  0  0  0  0  0  0  0  0  0  0
   -1.2504   15.1308    0.2098 H   0  0  0  0  0  0  0  0  0  0  0  0
    0.0222   15.4420    1.5035 H   0  0  0  0  0  0  0  0  0  0  0  0
   -0.8586   17.5565    0.2028 H   0  0  0  0  0  0  0  0  0  0  0  0
    2.1925   16.2152   -2.0780 H   0  0  0  0  0  0  0  0  0  0  0  0
    3.5624   17.4000    0.4139 H   0  0  0  0  0  0  0  0  0  0  0  0
    4.3763   16.6141   -1.0113 H   0  0  0  0  0  0  0  0  0  0  0  0
    4.5232   19.0831   -1.0926 H   0  0  0  0  0  0  0  0  0  0  0  0
    3.5921   18.3850   -2.4750 H   0  0  0  0  0  0  0  0  0  0  0  0
    2.4404   20.3323   -1.6774 H   0  0  0  0  0  0  0  0  0  0  0  0
    1.7330   20.3810    0.5490 H   0  0  0  0  0  0  0  0  0  0  0  0
   -0.1525   18.1537   -3.0401 H   0  0  0  0  0  0  0  0  0  0  0  0
    0.8113   19.6490   -3.2889 H   0  0  0  0  0  0  0  0  0  0  0  0
    1.6233   18.0467   -3.2889 H   0  0  0  0  0  0  0  0  0  0  0  0
   -0.0773   19.6780    0.3189 H   0  0  0  0  0  0  0  0  0  0  0  0
    0.0847   20.7109   -1.1417 H   0  0  0  0  0  0  0  0  0  0  0  0
   -1.0629   19.3290   -1.1417 H   0  0  0  0  0  0  0  0  0  0  0  0
    1.9639   14.9691    1.8291 H   0  0  0  0  0  0  0  0  0  0  0  0
    3.4915   14.2262    1.2452 H   0  0  0  0  0  0  0  0  0  0  0  0
    3.3043   16.0127    1.2452 H   0  0  0  0  0  0  0  0  0  0  0  0
    3.9878   14.6454   -1.5390 H   0  0  0  0  0  0  0  0  0  0  0  0
    3.4334   13.2430   -0.4622 H   0  0  0  0  0  0  0  0  0  0  0  0
    2.3330   14.0400   -3.1718 H   0  0  0  0  0  0  0  0  0  0  0  0
    3.2290   12.5382   -2.7154 H   0  0  0  0  0  0  0  0  0  0  0  0
    1.4012   11.9829    0.1056 H   0  0  0  0  0  0  0  0  0  0  0  0
    0.8464   10.6958   -1.0179 H   0  0  0  0  0  0  0  0  0  0  0  0
    2.5684   11.2068   -1.0179 H   0  0  0  0  0  0  0  0  0  0  0  0
  1  2  1  0
  2  3  1  0
  3  4  1  0
  4  5  1  0
  5  6  1  0
  6  7  1  0
  7  8  1  0
  7  9  1  0
  2 10  1  0
 10 11  1  0
 11 12  1  0
 12 13  1  0
 13 14  1  6
 13 15  1  0
 15 16  1  0
 16 17  1  0
 17 18  2  0
 18 19  1  0
 19 20  1  0
 20 21  1  0
 21 22  1  0
 22 23  1  0
 22 24  1  0
 24 25  1  0
 24 26  1  0
 19 27  1  0
 27 28  1  1
 27 29  1  0
 29 30  1  0
 30 31  1  0
 31 32  1  1
  7  5  1  0
 31 10  1  0
 31 13  1  0
 27 15  1  0
 24 18  1  0
  1 33  1  0
  1 34  1  0
  1 35  1  0
  2 36  1  1
  3 37  1  0
  3 38  1  0
  4 39  1  0
  4 40  1  0
  5 41  1  1
  8 42  1  0
  8 43  1  0
  8 44  1  0
  9 45  1  0
  9 46  1  0
  9 47  1  0
 10 48  1  6
 11 49  1  0
 11 50  1  0
 12 51  1  0
 12 52  1  0
 14 53  1  0
 14 54  1  0
 14 55  1  0
 15 56  1  1
 16 57  1  0
 16 58  1  0
 17 59  1  0
 19 60  1  6
 20 61  1  0
 20 62  1  0
 21 63  1  0
 21 64  1  0
 22 65  1  6
 23 66  1  0
 25 67  1  0
 25 68  1  0
 25 69  1  0
 26 70  1  0
 26 71  1  0
 26 72  1  0
 28 73  1  0
 28 74  1  0
 28 75  1  0
 29 76  1  0
 29 77  1  0
 30 78  1  0
 30 79  1  0
 32 80  1  0
 32 81  1  0
 32 82  1  0
M  END
>  <meeko>  (15) 
{"is_sidechain": [false], "intermolecular_energy": 2.731, "internal_energy": -0.839}

$$$$
EPH_relaxed_0001_pdb2pqr_Repair_372_r2_0001_out
     RDKit          3D

 82 86  0  0  0  0  0  0  0  0999 V2000
    0.8250   14.8090   -2.5780 C   0  0  0  0  0  0  0  0  0  0  0  0
    1.1270   14.1210   -3.9130 C   0  0  2  0  0  0  0  0  0  0  0  0
    0.4750   14.8510   -5.1040 C   0  0  0  0  0  0  0  0  0  0  0  0
    1.1710   14.5900   -6.4420 C   0  0  0  0  0  0  0  0  0  0  0  0
    0.8860   15.6750   -7.4360 C   0  0  2  0  0  0  0  0  0  0  0  0
    0.3900   15.2140   -8.7000 O   0  0  0  0  0  0  0  0  0  0  0  0
    1.6730   15.8620   -8.7200 C   0  0  0  0  0  0  0  0  0  0  0  0
    2.8070   14.9530   -9.0790 C   0  0  0  0  0  0  0  0  0  0  0  0
    1.6600   17.2060   -9.3790 C   0  0  0  0  0  0  0  0  0  0  0  0
    0.6570   12.6720   -3.8690 C   0  0  1  0  0  0  0  0  0  0  0  0
    1.7720   11.6690   -4.2690 C   0  0  0  0  0  0  0  0  0  0  0  0
    1.5610   10.3990   -3.4060 C   0  0  0  0  0  0  0  0  0  0  0  0
    0.1550   10.5760   -2.7870 C   0  0  1  0  0  0  0  0  0  0  0  0
   -0.8360   10.1320   -3.9090 C   0  0  0  0  0  0  0  0  0  0  0  0
   -0.1120    9.8160   -1.4470 C   0  0  2  0  0  0  0  0  0  0  0  0
   -0.0290    8.2820   -1.5400 C   0  0  0  0  0  0  0  0  0  0  0  0
   -1.3140    7.5930   -1.8600 C   0  0  0  0  0  0  0  0  0  0  0  0
   -2.5390    8.1460   -1.7860 C   0  0  0  0  0  0  0  0  0  0  0  0
   -2.7270    9.5710   -1.2500 C   0  0  1  0  0  0  0  0  0  0  0  0
   -3.9000    9.5910   -0.2340 C   0  0  0  0  0  0  0  0  0  0  0  0
   -5.1860    9.0110   -0.8130 C   0  0  0  0  0  0  0  0  0  0  0  0
   -4.9730    7.5730   -1.2810 C   0  0  2  0  0  0  0  0  0  0  0  0
   -4.7180    6.7500   -0.1400 O   0  0  0  0  0  0  0  0  0  0  0  0
   -3.8090    7.4280   -2.3020 C   0  0  0  0  0  0  0  0  0  0  0  0
   -4.2170    8.0690   -3.6510 C   0  0  0  0  0  0  0  0  0  0  0  0
   -3.6090    5.9140   -2.5840 C   0  0  0  0  0  0  0  0  0  0  0  0
   -1.4200   10.2800   -0.6880 C   0  0  1  0  0  0  0  0  0  0  0  0
   -1.2190    9.9100    0.8140 C   0  0  0  0  0  0  0  0  0  0  0  0
   -1.6200   11.8410   -0.7380 C   0  0  0  0  0  0  0  0  0  0  0  0
   -1.2260   12.5500   -2.0480 C   0  0  0  0  0  0  0  0  0  0  0  0
    0.1720   12.1220   -2.5040 C   0  0  2  0  0  0  0  0  0  0  0  0
    1.1930   12.5760   -1.4050 C   0  0  0  0  0  0  0  0  0  0  0  0
    1.1160   14.1461   -1.7498 H   0  0  0  0  0  0  0  0  0  0  0  0
    1.3935   15.7485   -2.5128 H   0  0  0  0  0  0  0  0  0  0  0  0
   -0.2513   15.0265   -2.5128 H   0  0  0  0  0  0  0  0  0  0  0  0
    2.2162   14.1540   -4.0629 H   0  0  0  0  0  0  0  0  0  0  0  0
   -0.5701   14.5178   -5.1855 H   0  0  0  0  0  0  0  0  0  0  0  0
    0.5575   15.9295   -4.9040 H   0  0  0  0  0  0  0  0  0  0  0  0
    2.2568   14.5362   -6.2745 H   0  0  0  0  0  0  0  0  0  0  0  0
    0.7876   13.6427   -6.8490 H   0  0  0  0  0  0  0  0  0  0  0  0
    0.6115   16.3725   -6.6309 H   0  0  0  0  0  0  0  0  0  0  0  0
    3.2788   14.5748   -8.1601 H   0  0  0  0  0  0  0  0  0  0  0  0
    2.4260   14.1073   -9.6703 H   0  0  0  0  0  0  0  0  0  0  0  0
    3.5495   15.5089   -9.6703 H   0  0  0  0  0  0  0  0  0  0  0  0
    1.6524   17.9917   -8.6092 H   0  0  0  0  0  0  0  0  0  0  0  0
    2.5571   17.3156  -10.0060 H   0  0  0  0  0  0  0  0  0  0  0  0
    0.7609   17.2983  -10.0060 H   0  0  0  0  0  0  0  0  0  0  0  0
   -0.1871   12.7315   -4.5719 H   0  0  0  0  0  0  0  0  0  0  0  0
    1.6913   11.4189   -5.3372 H   0  0  0  0  0  0  0  0  0  0  0  0
    2.7700   12.0998   -4.1006 H   0  0  0  0  0  0  0  0  0  0  0  0
    1.5990    9.4944   -4.0308 H   0  0  0  0  0  0  0  0  0  0  0  0
    2.3417   10.2811   -2.6401 H   0  0  0  0  0  0  0  0  0  0  0  0
   -1.7488    9.7230   -3.4512 H   0  0  0  0  0  0  0  0  0  0  0  0
   -1.0959   10.9997   -4.5331 H   0  0  0  0  0  0  0  0  0  0  0  0
   -0.3614    9.3604   -4.5331 H   0  0  0  0  0  0  0  0  0  0  0  0
    0.7422   10.1242   -0.8262 H   0  0  0  0  0  0  0  0  0  0  0  0
    0.6980    8.0278   -2.3254 H   0  0  0  0  0  0  0  0  0  0  0  0
    0.2637    7.9315   -0.5393 H   0  0  0  0  0  0  0  0  0  0  0  0
   -1.2548    6.5435   -2.1840 H   0  0  0  0  0  0  0  0  0  0  0  0
   -2.9771   10.1931   -2.1220 H   0  0  0  0  0  0  0  0  0  0  0  0
   -3.6125    8.9998    0.6480 H   0  0  0  0  0  0  0  0  0  0  0  0
   -4.0962   10.6411    0.0284 H   0  0  0  0  0  0  0  0  0  0  0  0
   -5.9680    9.0259   -0.0395 H   0  0  0  0  0  0  0  0  0  0  0  0
   -5.4886    9.6206   -1.6772 H   0  0  0  0  0  0  0  0  0  0  0  0
   -5.8885    7.2559   -1.8018 H   0  0  0  0  0  0  0  0  0  0  0  0
   -5.5580    6.3320    0.1160 H   0  0  0  0  0  0  0  0  0  0  0  0
   -4.7988    8.9831   -3.4615 H   0  0  0  0  0  0  0  0  0  0  0  0
   -3.3133    8.3219   -4.2250 H   0  0  0  0  0  0  0  0  0  0  0  0
   -4.8287    7.3574   -4.2250 H   0  0  0  0  0  0  0  0  0  0  0  0
   -3.5371    5.3698   -1.6307 H   0  0  0  0  0  0  0  0  0  0  0  0
   -4.4645    5.5323   -3.1605 H   0  0  0  0  0  0  0  0  0  0  0  0
   -2.6837    5.7675   -3.1605 H   0  0  0  0  0  0  0  0  0  0  0  0
   -1.6484   10.7005    1.4470 H   0  0  0  0  0  0  0  0  0  0  0  0
   -1.7226    8.9556    1.0271 H   0  0  0  0  0  0  0  0  0  0  0  0
   -0.1442    9.8130    1.0271 H   0  0  0  0  0  0  0  0  0  0  0  0
   -2.6853   12.0461   -0.5559 H   0  0  0  0  0  0  0  0  0  0  0  0
   -0.9364   12.2434    0.0241 H   0  0  0  0  0  0  0  0  0  0  0  0
   -1.9546   12.2912   -2.8304 H   0  0  0  0  0  0  0  0  0  0  0  0
   -1.2201   13.6357   -1.8711 H   0  0  0  0  0  0  0  0  0  0  0  0
    0.7674   12.3867   -0.4085 H   0  0  0  0  0  0  0  0  0  0  0  0
    2.1290   12.0093   -1.5176 H   0  0  0  0  0  0  0  0  0  0  0  0
    1.3992   13.6506   -1.5176 H   0  0  0  0  0  0  0  0  0  0  0  0
  1  2  1  0
  2  3  1  0
  3  4  1  0
  4  5  1  0
  5  6  1  0
  6  7  1  0
  7  8  1  0
  7  9  1  0
  2 10  1  0
 10 11  1  0
 11 12  1  0
 12 13  1  0
 13 14  1  6
 13 15  1  0
 15 16  1  0
 16 17  1  0
 17 18  2  0
 18 19  1  0
 19 20  1  0
 20 21  1  0
 21 22  1  0
 22 23  1  0
 22 24  1  0
 24 25  1  0
 24 26  1  0
 19 27  1  0
 27 28  1  1
 27 29  1  0
 29 30  1  0
 30 31  1  0
 31 32  1  1
  7  5  1  0
 31 10  1  0
 31 13  1  0
 27 15  1  0
 24 18  1  0
  1 33  1  0
  1 34  1  0
  1 35  1  0
  2 36  1  6
  3 37  1  0
  3 38  1  0
  4 39  1  0
  4 40  1  0
  5 41  1  1
  8 42  1  0
  8 43  1  0
  8 44  1  0
  9 45  1  0
  9 46  1  0
  9 47  1  0
 10 48  1  6
 11 49  1  0
 11 50  1  0
 12 51  1  0
 12 52  1  0
 14 53  1  0
 14 54  1  0
 14 55  1  0
 15 56  1  1
 16 57  1  0
 16 58  1  0
 17 59  1  0
 19 60  1  6
 20 61  1  0
 20 62  1  0
 21 63  1  0
 21 64  1  0
 22 65  1  6
 23 66  1  0
 25 67  1  0
 25 68  1  0
 25 69  1  0
 26 70  1  0
 26 71  1  0
 26 72  1  0
 28 73  1  0
 28 74  1  0
 28 75  1  0
 29 76  1  0
 29 77  1  0
 30 78  1  0
 30 79  1  0
 32 80  1  0
 32 81  1  0
 32 82  1  0
M  END
>  <meeko>  (16) 
{"is_sidechain": [false], "intermolecular_energy": 2.731, "internal_energy": -0.839}

$$$$
EPH_relaxed_0001_pdb2pqr_Repair_372_r2_0001_out
     RDKit          3D

 82 86  0  0  0  0  0  0  0  0999 V2000
   -2.4730    7.7750   -0.0100 C   0  0  0  0  0  0  0  0  0  0  0  0
   -3.0960    9.1740    0.0000 C   0  0  2  0  0  0  0  0  0  0  0  0
   -4.5920    9.1450   -0.3730 C   0  0  0  0  0  0  0  0  0  0  0  0
   -5.3050    7.8540    0.0380 C   0  0  0  0  0  0  0  0  0  0  0  0
   -6.4390    7.5280   -0.8850 C   0  0  2  0  0  0  0  0  0  0  0  0
   -6.8310    6.1490   -0.8900 O   0  0  0  0  0  0  0  0  0  0  0  0
   -6.2900    6.6580   -2.1190 C   0  0  0  0  0  0  0  0  0  0  0  0
   -4.9710    6.0600   -2.4980 C   0  0  0  0  0  0  0  0  0  0  0  0
   -7.3020    6.7900   -3.2140 C   0  0  0  0  0  0  0  0  0  0  0  0
   -2.3380   10.0880   -0.9560 C   0  0  1  0  0  0  0  0  0  0  0  0
   -2.9900   11.4900   -1.0840 C   0  0  0  0  0  0  0  0  0  0  0  0
   -1.8320   12.5060   -1.2640 C   0  0  0  0  0  0  0  0  0  0  0  0
   -0.5910   11.6340   -1.5660 C   0  0  1  0  0  0  0  0  0  0  0  0
   -0.7000   11.2950   -3.0860 C   0  0  0  0  0  0  0  0  0  0  0  0
    0.7960   12.2600   -1.2120 C   0  0  2  0  0  0  0  0  0  0  0  0
    1.1510   13.5420   -1.9850 C   0  0  0  0  0  0  0  0  0  0  0  0
    1.8880   13.3310   -3.2660 C   0  0  0  0  0  0  0  0  0  0  0  0
    2.5010   12.1910   -3.6370 C   0  0  0  0  0  0  0  0  0  0  0  0
    2.5730   10.9900   -2.6850 C   0  0  1  0  0  0  0  0  0  0  0  0
    4.0180   10.4270   -2.6710 C   0  0  0  0  0  0  0  0  0  0  0  0
    4.5310   10.0950   -4.0690 C   0  0  0  0  0  0  0  0  0  0  0  0
    4.4980   11.3280   -4.9690 C   0  0  2  0  0  0  0  0  0  0  0  0
    5.4490   12.2800   -4.4800 O   0  0  0  0  0  0  0  0  0  0  0  0
    3.0940   11.9880   -5.0530 C   0  0  0  0  0  0  0  0  0  0  0  0
    2.1350   11.0720   -5.8540 C   0  0  0  0  0  0  0  0  0  0  0  0
    3.2300   13.2980   -5.8750 C   0  0  0  0  0  0  0  0  0  0  0  0
    1.9960   11.2280   -1.2240 C   0  0  1  0  0  0  0  0  0  0  0  0
    3.1050   11.8230   -0.3040 C   0  0  0  0  0  0  0  0  0  0  0  0
    1.5970    9.8400   -0.5960 C   0  0  0  0  0  0  0  0  0  0  0  0
    0.1710    9.3310   -0.8850 C   0  0  0  0  0  0  0  0  0  0  0  0
   -0.8670   10.4210   -0.6040 C   0  0  2  0  0  0  0  0  0  0  0  0
   -0.7970   10.7670    0.9230 C   0  0  0  0  0  0  0  0  0  0  0  0
   -2.3211    7.4339    1.0247 H   0  0  0  0  0  0  0  0  0  0  0  0
   -3.1457    7.0778   -0.5309 H   0  0  0  0  0  0  0  0  0  0  0  0
   -1.5047    7.8085   -0.5309 H   0  0  0  0  0  0  0  0  0  0  0  0
   -3.0186    9.5638    1.0257 H   0  0  0  0  0  0  0  0  0  0  0  0
   -5.0902    9.9901    0.1246 H   0  0  0  0  0  0  0  0  0  0  0  0
   -4.6507    9.2089   -1.4696 H   0  0  0  0  0  0  0  0  0  0  0  0
   -4.5812    7.0259    0.0195 H   0  0  0  0  0  0  0  0  0  0  0  0
   -5.7160    7.9966    1.0483 H   0  0  0  0  0  0  0  0  0  0  0  0
   -6.8790    8.5247   -0.7332 H   0  0  0  0  0  0  0  0  0  0  0  0
   -4.4088    5.8051   -1.5875 H   0  0  0  0  0  0  0  0  0  0  0  0
   -5.1384    5.1497   -3.0925 H   0  0  0  0  0  0  0  0  0  0  0  0
   -4.3966    6.7857   -3.0925 H   0  0  0  0  0  0  0  0  0  0  0  0
   -8.3022    6.9205   -2.7751 H   0  0  0  0  0  0  0  0  0  0  0  0
   -7.0576    7.6639   -3.8358 H   0  0  0  0  0  0  0  0  0  0  0  0
   -7.2899    5.8827   -3.8358 H   0  0  0  0  0  0  0  0  0  0  0  0
   -2.3762    9.4745   -1.8682 H   0  0  0  0  0  0  0  0  0  0  0  0
   -3.6586   11.5188   -1.9570 H   0  0  0  0  0  0  0  0  0  0  0  0
   -3.5912   11.7292   -0.1944 H   0  0  0  0  0  0  0  0  0  0  0  0
   -2.0405   13.1880   -2.1015 H   0  0  0  0  0  0  0  0  0  0  0  0
   -1.6907   13.1390   -0.3756 H   0  0  0  0  0  0  0  0  0  0  0  0
   -1.0347   10.2541   -3.2064 H   0  0  0  0  0  0  0  0  0  0  0  0
   -1.4261   11.9709   -3.5613 H   0  0  0  0  0  0  0  0  0  0  0  0
    0.2840   11.4211   -3.5613 H   0  0  0  0  0  0  0  0  0  0  0  0
    0.6525   12.5714   -0.1668 H   0  0  0  0  0  0  0  0  0  0  0  0
    0.2142   14.0706   -2.2150 H   0  0  0  0  0  0  0  0  0  0  0  0
    1.8300   14.1118   -1.3337 H   0  0  0  0  0  0  0  0  0  0  0  0
    1.9342   14.1784   -3.9659 H   0  0  0  0  0  0  0  0  0  0  0  0
    1.8830   10.2365   -3.0926 H   0  0  0  0  0  0  0  0  0  0  0  0
    4.6842   11.1772   -2.2200 H   0  0  0  0  0  0  0  0  0  0  0  0
    4.0066    9.4933   -2.0895 H   0  0  0  0  0  0  0  0  0  0  0  0
    5.5662    9.7305   -3.9955 H   0  0  0  0  0  0  0  0  0  0  0  0
    3.8817    9.3227   -4.5072 H   0  0  0  0  0  0  0  0  0  0  0  0
    4.7511   11.0001   -5.9880 H   0  0  0  0  0  0  0  0  0  0  0  0
    5.0590   13.1640   -4.5840 H   0  0  0  0  0  0  0  0  0  0  0  0
    1.5203   10.4849   -5.1558 H   0  0  0  0  0  0  0  0  0  0  0  0
    1.4815   11.6899   -6.4874 H   0  0  0  0  0  0  0  0  0  0  0  0
    2.7223   10.3909   -6.4874 H   0  0  0  0  0  0  0  0  0  0  0  0
    3.3188   14.1536   -5.1893 H   0  0  0  0  0  0  0  0  0  0  0  0
    4.1271   13.2416   -6.5090 H   0  0  0  0  0  0  0  0  0  0  0  0
    2.3404   13.4271   -6.5090 H   0  0  0  0  0  0  0  0  0  0  0  0
    2.8265   11.6736    0.7496 H   0  0  0  0  0  0  0  0  0  0  0  0
    4.0601   11.3162   -0.5062 H   0  0  0  0  0  0  0  0  0  0  0  0
    3.2109   12.8991   -0.5062 H   0  0  0  0  0  0  0  0  0  0  0  0
    2.3027    9.0871   -0.9769 H   0  0  0  0  0  0  0  0  0  0  0  0
    1.6322    9.9956    0.4924 H   0  0  0  0  0  0  0  0  0  0  0  0
    0.1026    9.0326   -1.9415 H   0  0  0  0  0  0  0  0  0  0  0  0
   -0.0350    8.4727   -0.2286 H   0  0  0  0  0  0  0  0  0  0  0  0
   -0.9810    9.8576    1.5138 H   0  0  0  0  0  0  0  0  0  0  0  0
    0.1999   11.1650    1.1635 H   0  0  0  0  0  0  0  0  0  0  0  0
   -1.5608   11.5212    1.1635 H   0  0  0  0  0  0  0  0  0  0  0  0
  1  2  1  0
  2  3  1  0
  3  4  1  0
  4  5  1  0
  5  6  1  0
  6  7  1  0
  7  8  1  0
  7  9  1  0
  2 10  1  0
 10 11  1  0
 11 12  1  0
 12 13  1  0
 13 14  1  6
 13 15  1  0
 15 16  1  0
 16 17  1  0
 17 18  2  0
 18 19  1  0
 19 20  1  0
 20 21  1  0
 21 22  1  0
 22 23  1  0
 22 24  1  0
 24 25  1  0
 24 26  1  0
 19 27  1  0
 27 28  1  1
 27 29  1  0
 29 30  1  0
 30 31  1  0
 31 32  1  1
  7  5  1  0
 31 10  1  0
 31 13  1  0
 27 15  1  0
 24 18  1  0
  1 33  1  0
  1 34  1  0
  1 35  1  0
  2 36  1  1
  3 37  1  0
  3 38  1  0
  4 39  1  0
  4 40  1  0
  5 41  1  6
  8 42  1  0
  8 43  1  0
  8 44  1  0
  9 45  1  0
  9 46  1  0
  9 47  1  0
 10 48  1  6
 11 49  1  0
 11 50  1  0
 12 51  1  0
 12 52  1  0
 14 53  1  0
 14 54  1  0
 14 55  1  0
 15 56  1  1
 16 57  1  0
 16 58  1  0
 17 59  1  0
 19 60  1  6
 20 61  1  0
 20 62  1  0
 21 63  1  0
 21 64  1  0
 22 65  1  6
 23 66  1  0
 25 67  1  0
 25 68  1  0
 25 69  1  0
 26 70  1  0
 26 71  1  0
 26 72  1  0
 28 73  1  0
 28 74  1  0
 28 75  1  0
 29 76  1  0
 29 77  1  0
 30 78  1  0
 30 79  1  0
 32 80  1  0
 32 81  1  0
 32 82  1  0
M  END
>  <meeko>  (17) 
{"is_sidechain": [false], "intermolecular_energy": 2.731, "internal_energy": -0.839}

$$$$
