EPH_relaxed_0001_pdb2pqr_Repair_137_r2_0001_out
     RDKit          3D

 82 86  0  0  0  0  0  0  0  0999 V2000
    3.8370   18.0230    0.6430 C   0  0  0  0  0  0  0  0  0  0  0  0
    2.9450   18.4220   -0.5360 C   0  0  2  0  0  0  0  0  0  0  0  0
    2.1950   19.7440   -0.2760 C   0  0  0  0  0  0  0  0  0  0  0  0
    1.1590   19.6520    0.8470 C   0  0  0  0  0  0  0  0  0  0  0  0
   -0.1730   20.1900    0.4180 C   0  0  2  0  0  0  0  0  0  0  0  0
   -1.1760   20.1940    1.4420 O   0  0  0  0  0  0  0  0  0  0  0  0
   -1.4250   19.3390    0.3150 C   0  0  0  0  0  0  0  0  0  0  0  0
   -1.4050   17.8790    0.6420 C   0  0  0  0  0  0  0  0  0  0  0  0
   -2.5400   19.8110   -0.5650 C   0  0  0  0  0  0  0  0  0  0  0  0
    1.9490   17.3080   -0.8340 C   0  0  1  0  0  0  0  0  0  0  0  0
    0.8090   17.7640   -1.7840 C   0  0  0  0  0  0  0  0  0  0  0  0
    0.4530   16.5440   -2.6730 C   0  0  0  0  0  0  0  0  0  0  0  0
    1.1560   15.3470   -1.9910 C   0  0  1  0  0  0  0  0  0  0  0  0
    0.2030   14.9340   -0.8250 C   0  0  0  0  0  0  0  0  0  0  0  0
    1.5000   14.1320   -2.9130 C   0  0  2  0  0  0  0  0  0  0  0  0
    0.2870   13.4300   -3.5490 C   0  0  0  0  0  0  0  0  0  0  0  0
   -0.2880   12.3050   -2.7540 C   0  0  0  0  0  0  0  0  0  0  0  0
    0.3160   11.6880   -1.7210 C   0  0  0  0  0  0  0  0  0  0  0  0
    1.7520   12.0490   -1.3190 C   0  0  1  0  0  0  0  0  0  0  0  0
    2.5700   10.7500   -1.1000 C   0  0  0  0  0  0  0  0  0  0  0  0
    1.9070    9.8010   -0.1060 C   0  0  0  0  0  0  0  0  0  0  0  0
    0.5040    9.4200   -0.5700 C   0  0  2  0  0  0  0  0  0  0  0  0
    0.6100    8.6350   -1.7620 O   0  0  0  0  0  0  0  0  0  0  0  0
   -0.4100   10.6490   -0.8320 C   0  0  0  0  0  0  0  0  0  0  0  0
   -0.7700   11.3270    0.5130 C   0  0  0  0  0  0  0  0  0  0  0  0
   -1.7470   10.1310   -1.4290 C   0  0  0  0  0  0  0  0  0  0  0  0
    2.4960   13.0880   -2.2640 C   0  0  1  0  0  0  0  0  0  0  0  0
    3.1830   12.3350   -3.4450 C   0  0  0  0  0  0  0  0  0  0  0  0
    3.6500   13.7870   -1.4520 C   0  0  0  0  0  0  0  0  0  0  0  0
    3.2730   15.0510   -0.6580 C   0  0  0  0  0  0  0  0  0  0  0  0
    2.4920   16.0360   -1.5330 C   0  0  2  0  0  0  0  0  0  0  0  0
    3.4320   16.4860   -2.7020 C   0  0  0  0  0  0  0  0  0  0  0  0
    3.3217   18.2535    1.5871 H   0  0  0  0  0  0  0  0  0  0  0  0
    4.0483   16.9446    0.5944 H   0  0  0  0  0  0  0  0  0  0  0  0
    4.7818   18.5843    0.5944 H   0  0  0  0  0  0  0  0  0  0  0  0
    3.5984   18.5794   -1.4068 H   0  0  0  0  0  0  0  0  0  0  0  0
    2.9323   20.5145   -0.0063 H   0  0  0  0  0  0  0  0  0  0  0  0
    1.6488   19.9910   -1.1983 H   0  0  0  0  0  0  0  0  0  0  0  0
    1.0408   18.5977    1.1375 H   0  0  0  0  0  0  0  0  0  0  0  0
    1.5164   20.2565    1.6937 H   0  0  0  0  0  0  0  0  0  0  0  0
    0.3083   20.8834   -0.2873 H   0  0  0  0  0  0  0  0  0  0  0  0
   -1.4032   17.7479    1.7342 H   0  0  0  0  0  0  0  0  0  0  0  0
   -2.2966   17.3956    0.2161 H   0  0  0  0  0  0  0  0  0  0  0  0
   -0.5005   17.4202    0.2161 H   0  0  0  0  0  0  0  0  0  0  0  0
   -3.3746   20.1643    0.0584 H   0  0  0  0  0  0  0  0  0  0  0  0
   -2.1823   20.6349   -1.2000 H   0  0  0  0  0  0  0  0  0  0  0  0
   -2.8825   18.9807   -1.2000 H   0  0  0  0  0  0  0  0  0  0  0  0
    1.6303   17.0670    0.1909 H   0  0  0  0  0  0  0  0  0  0  0  0
   -0.0691   18.0760   -1.1996 H   0  0  0  0  0  0  0  0  0  0  0  0
    1.1247   18.6210   -2.3972 H   0  0  0  0  0  0  0  0  0  0  0  0
   -0.6357   16.3896   -2.7028 H   0  0  0  0  0  0  0  0  0  0  0  0
    0.7759   16.6789   -3.7158 H   0  0  0  0  0  0  0  0  0  0  0  0
    0.6898   15.1450    0.1386 H   0  0  0  0  0  0  0  0  0  0  0  0
   -0.7332   15.5071   -0.8961 H   0  0  0  0  0  0  0  0  0  0  0  0
   -0.0189   13.8590   -0.8961 H   0  0  0  0  0  0  0  0  0  0  0  0
    2.0366   14.6123   -3.7445 H   0  0  0  0  0  0  0  0  0  0  0  0
   -0.5028   14.1816   -3.6947 H   0  0  0  0  0  0  0  0  0  0  0  0
    0.6504   12.9850   -4.4871 H   0  0  0  0  0  0  0  0  0  0  0  0
   -1.2902   11.9500   -3.0361 H   0  0  0  0  0  0  0  0  0  0  0  0
    1.6730   12.6038   -0.3724 H   0  0  0  0  0  0  0  0  0  0  0  0
    2.6750   10.2326   -2.0650 H   0  0  0  0  0  0  0  0  0  0  0  0
    3.5477   11.0372   -0.6858 H   0  0  0  0  0  0  0  0  0  0  0  0
    2.5166    8.8898   -0.0164 H   0  0  0  0  0  0  0  0  0  0  0  0
    1.8298   10.3086    0.8668 H   0  0  0  0  0  0  0  0  0  0  0  0
    0.0323    8.8471    0.2419 H   0  0  0  0  0  0  0  0  0  0  0  0
    0.4400    7.7090   -1.5210 H   0  0  0  0  0  0  0  0  0  0  0  0
   -0.4328   10.6920    1.3455 H   0  0  0  0  0  0  0  0  0  0  0  0
   -0.2732   12.3065    0.5744 H   0  0  0  0  0  0  0  0  0  0  0  0
   -1.8597   11.4641    0.5744 H   0  0  0  0  0  0  0  0  0  0  0  0
   -2.4343    9.8647   -0.6125 H   0  0  0  0  0  0  0  0  0  0  0  0
   -2.2013   10.9182   -2.0486 H   0  0  0  0  0  0  0  0  0  0  0  0
   -1.5523    9.2432   -2.0486 H   0  0  0  0  0  0  0  0  0  0  0  0
    3.8736   11.5780   -3.0450 H   0  0  0  0  0  0  0  0  0  0  0  0
    2.4164   11.8427   -4.0614 H   0  0  0  0  0  0  0  0  0  0  0  0
    3.7434   13.0534   -4.0614 H   0  0  0  0  0  0  0  0  0  0  0  0
    4.0469   13.0511   -0.7372 H   0  0  0  0  0  0  0  0  0  0  0  0
    4.3701   14.1277   -2.2105 H   0  0  0  0  0  0  0  0  0  0  0  0
    2.6513   14.7632    0.2026 H   0  0  0  0  0  0  0  0  0  0  0  0
    4.1977   15.5406   -0.3187 H   0  0  0  0  0  0  0  0  0  0  0  0
    4.3503   16.9256   -2.2856 H   0  0  0  0  0  0  0  0  0  0  0  0
    3.6908   15.6141   -3.3208 H   0  0  0  0  0  0  0  0  0  0  0  0
    2.9151   17.2343   -3.3208 H   0  0  0  0  0  0  0  0  0  0  0  0
  1  2  1  0
  2  3  1  0
  3  4  1  0
  4  5  1  0
  5  6  1  0
  6  7  1  0
  7  8  1  0
  7  9  1  0
  2 10  1  0
 10 11  1  0
 11 12  1  0
 12 13  1  0
 13 14  1  1
 13 15  1  0
 15 16  1  0
 16 17  1  0
 17 18  2  0
 18 19  1  0
 19 20  1  0
 20 21  1  0
 21 22  1  0
 22 23  1  0
 22 24  1  0
 24 25  1  0
 24 26  1  0
 19 27  1  0
 27 28  1  6
 27 29  1  0
 29 30  1  0
 30 31  1  0
 31 32  1  6
  7  5  1  0
 31 10  1  0
 31 13  1  0
 27 15  1  0
 24 18  1  0
  1 33  1  0
  1 34  1  0
  1 35  1  0
  2 36  1  6
  3 37  1  0
  3 38  1  0
  4 39  1  0
  4 40  1  0
  5 41  1  6
  8 42  1  0
  8 43  1  0
  8 44  1  0
  9 45  1  0
  9 46  1  0
  9 47  1  0
 10 48  1  1
 11 49  1  0
 11 50  1  0
 12 51  1  0
 12 52  1  0
 14 53  1  0
 14 54  1  0
 14 55  1  0
 15 56  1  6
 16 57  1  0
 16 58  1  0
 17 59  1  0
 19 60  1  1
 20 61  1  0
 20 62  1  0
 21 63  1  0
 21 64  1  0
 22 65  1  1
 23 66  1  0
 25 67  1  0
 25 68  1  0
 25 69  1  0
 26 70  1  0
 26 71  1  0
 26 72  1  0
 28 73  1  0
 28 74  1  0
 28 75  1  0
 29 76  1  0
 29 77  1  0
 30 78  1  0
 30 79  1  0
 32 80  1  0
 32 81  1  0
 32 82  1  0
M  END
>  <meeko>  (1) 
{"is_sidechain": [false], "intermolecular_energy": 2.731, "internal_energy": -0.839}

$$$$
EPH_relaxed_0001_pdb2pqr_Repair_137_r2_0001_out
     RDKit          3D

 82 86  0  0  0  0  0  0  0  0999 V2000
    4.4920   17.7130   -0.7370 C   0  0  0  0  0  0  0  0  0  0  0  0
    3.1180   18.2830   -0.3760 C   0  0  2  0  0  0  0  0  0  0  0  0
    3.0910   18.8750    1.0480 C   0  0  0  0  0  0  0  0  0  0  0  0
    4.4070   18.7030    1.8110 C   0  0  0  0  0  0  0  0  0  0  0  0
    4.3270   19.2820    3.1910 C   0  0  2  0  0  0  0  0  0  0  0  0
    5.3840   20.1930    3.5200 O   0  0  0  0  0  0  0  0  0  0  0  0
    5.3320   18.9780    4.2860 C   0  0  0  0  0  0  0  0  0  0  0  0
    6.4900   18.0600    4.0480 C   0  0  0  0  0  0  0  0  0  0  0  0
    4.9220   19.1800    5.7110 C   0  0  0  0  0  0  0  0  0  0  0  0
    2.0540   17.2000   -0.5100 C   0  0  1  0  0  0  0  0  0  0  0  0
    0.7220   17.7410   -1.0940 C   0  0  0  0  0  0  0  0  0  0  0  0
    0.1250   16.6090   -1.9700 C   0  0  0  0  0  0  0  0  0  0  0  0
    0.9500   15.3540   -1.6010 C   0  0  1  0  0  0  0  0  0  0  0  0
    0.3160   14.8330   -0.2740 C   0  0  0  0  0  0  0  0  0  0  0  0
    1.0230   14.2310   -2.6860 C   0  0  2  0  0  0  0  0  0  0  0  0
   -0.3270   13.5900   -3.0530 C   0  0  0  0  0  0  0  0  0  0  0  0
   -0.7060   12.3940   -2.2440 C   0  0  0  0  0  0  0  0  0  0  0  0
    0.1260   11.6850   -1.4590 C   0  0  0  0  0  0  0  0  0  0  0  0
    1.6240   12.0090   -1.4040 C   0  0  1  0  0  0  0  0  0  0  0  0
    2.4430   10.6970   -1.5190 C   0  0  0  0  0  0  0  0  0  0  0  0
    2.0320    9.6580   -0.4800 C   0  0  0  0  0  0  0  0  0  0  0  0
    0.5490    9.3190   -0.6040 C   0  0  2  0  0  0  0  0  0  0  0  0
    0.3320    8.6500   -1.8500 O   0  0  0  0  0  0  0  0  0  0  0  0
   -0.3750   10.5660   -0.5130 C   0  0  0  0  0  0  0  0  0  0  0  0
   -0.3670   11.1150    0.9350 C   0  0  0  0  0  0  0  0  0  0  0  0
   -1.8300   10.1040   -0.7940 C   0  0  0  0  0  0  0  0  0  0  0  0
    2.1280   13.1320   -2.4100 C   0  0  1  0  0  0  0  0  0  0  0  0
    2.4760   12.4940   -3.7890 C   0  0  0  0  0  0  0  0  0  0  0  0
    3.4650   13.7550   -1.8580 C   0  0  0  0  0  0  0  0  0  0  0  0
    3.3290   14.9390   -0.8820 C   0  0  0  0  0  0  0  0  0  0  0  0
    2.3740   16.0000   -1.4370 C   0  0  2  0  0  0  0  0  0  0  0  0
    2.9970   16.5590   -2.7610 C   0  0  0  0  0  0  0  0  0  0  0  0
    5.0470   17.4827    0.1844 H   0  0  0  0  0  0  0  0  0  0  0  0
    4.3640   16.7937   -1.3274 H   0  0  0  0  0  0  0  0  0  0  0  0
    5.0523   18.4529   -1.3274 H   0  0  0  0  0  0  0  0  0  0  0  0
    2.9047   19.1022   -1.0784 H   0  0  0  0  0  0  0  0  0  0  0  0
    2.8710   19.9502    0.9730 H   0  0  0  0  0  0  0  0  0  0  0  0
    2.3199   18.3270    1.6094 H   0  0  0  0  0  0  0  0  0  0  0  0
    4.6373   17.6301    1.8873 H   0  0  0  0  0  0  0  0  0  0  0  0
    5.1953   19.2370    1.2601 H   0  0  0  0  0  0  0  0  0  0  0  0
    3.2279   19.2452    3.1680 H   0  0  0  0  0  0  0  0  0  0  0  0
    6.9029   17.7327    5.0136 H   0  0  0  0  0  0  0  0  0  0  0  0
    6.1511   17.1825    3.4777 H   0  0  0  0  0  0  0  0  0  0  0  0
    7.2670   18.5902    3.4777 H   0  0  0  0  0  0  0  0  0  0  0  0
    5.7074   18.7930    6.3769 H   0  0  0  0  0  0  0  0  0  0  0  0
    4.7756   20.2534    5.9018 H   0  0  0  0  0  0  0  0  0  0  0  0
    3.9817   18.6420    5.9018 H   0  0  0  0  0  0  0  0  0  0  0  0
    1.9995   16.8639    0.5360 H   0  0  0  0  0  0  0  0  0  0  0  0
    0.0275   17.9963   -0.2800 H   0  0  0  0  0  0  0  0  0  0  0  0
    0.8919   18.6516   -1.6873 H   0  0  0  0  0  0  0  0  0  0  0  0
   -0.9390   16.4569   -1.7359 H   0  0  0  0  0  0  0  0  0  0  0  0
    0.1767   16.8413   -3.0440 H   0  0  0  0  0  0  0  0  0  0  0  0
    0.8485   15.2706    0.5833 H   0  0  0  0  0  0  0  0  0  0  0  0
   -0.7440   15.1245   -0.2349 H   0  0  0  0  0  0  0  0  0  0  0  0
    0.3965   13.7366   -0.2349 H   0  0  0  0  0  0  0  0  0  0  0  0
    1.3432   14.7875   -3.5792 H   0  0  0  0  0  0  0  0  0  0  0  0
   -1.1109   14.3506   -2.9229 H   0  0  0  0  0  0  0  0  0  0  0  0
   -0.2240   13.2361   -4.0894 H   0  0  0  0  0  0  0  0  0  0  0  0
   -1.7542   12.0643   -2.2937 H   0  0  0  0  0  0  0  0  0  0  0  0
    1.7981   12.4728   -0.4219 H   0  0  0  0  0  0  0  0  0  0  0  0
    2.2897   10.2724   -2.5221 H   0  0  0  0  0  0  0  0  0  0  0  0
    3.4997   10.9463   -1.3421 H   0  0  0  0  0  0  0  0  0  0  0  0
    2.6242    8.7435   -0.6317 H   0  0  0  0  0  0  0  0  0  0  0  0
    2.2145   10.0728    0.5223 H   0  0  0  0  0  0  0  0  0  0  0  0
    0.2867    8.6719    0.2459 H   0  0  0  0  0  0  0  0  0  0  0  0
   -0.5940    8.3550   -1.8680 H   0  0  0  0  0  0  0  0  0  0  0  0
   -0.3792   10.2754    1.6455 H   0  0  0  0  0  0  0  0  0  0  0  0
    0.5400   11.7167    1.0940 H   0  0  0  0  0  0  0  0  0  0  0  0
   -1.2561   11.7429    1.0940 H   0  0  0  0  0  0  0  0  0  0  0  0
   -2.3526    9.9381    0.1596 H   0  0  0  0  0  0  0  0  0  0  0  0
   -2.3560   10.8793   -1.3704 H   0  0  0  0  0  0  0  0  0  0  0  0
   -1.8124    9.1672   -1.3704 H   0  0  0  0  0  0  0  0  0  0  0  0
    2.9972   11.5385   -3.6299 H   0  0  0  0  0  0  0  0  0  0  0  0
    1.5497   12.3166   -4.3551 H   0  0  0  0  0  0  0  0  0  0  0  0
    3.1267   13.1767   -4.3551 H   0  0  0  0  0  0  0  0  0  0  0  0
    4.0142   12.9564   -1.3378 H   0  0  0  0  0  0  0  0  0  0  0  0
    3.9762   14.1670   -2.7406 H   0  0  0  0  0  0  0  0  0  0  0  0
    2.9389   14.5708    0.0783 H   0  0  0  0  0  0  0  0  0  0  0  0
    4.3200   15.3963   -0.7451 H   0  0  0  0  0  0  0  0  0  0  0  0
    3.7953   17.2753   -2.5167 H   0  0  0  0  0  0  0  0  0  0  0  0
    3.4164   15.7286   -3.3480 H   0  0  0  0  0  0  0  0  0  0  0  0
    2.2168   17.0656   -3.3480 H   0  0  0  0  0  0  0  0  0  0  0  0
  1  2  1  0
  2  3  1  0
  3  4  1  0
  4  5  1  0
  5  6  1  0
  6  7  1  0
  7  8  1  0
  7  9  1  0
  2 10  1  0
 10 11  1  0
 11 12  1  0
 12 13  1  0
 13 14  1  1
 13 15  1  0
 15 16  1  0
 16 17  1  0
 17 18  2  0
 18 19  1  0
 19 20  1  0
 20 21  1  0
 21 22  1  0
 22 23  1  0
 22 24  1  0
 24 25  1  0
 24 26  1  0
 19 27  1  0
 27 28  1  6
 27 29  1  0
 29 30  1  0
 30 31  1  0
 31 32  1  6
  7  5  1  0
 31 10  1  0
 31 13  1  0
 27 15  1  0
 24 18  1  0
  1 33  1  0
  1 34  1  0
  1 35  1  0
  2 36  1  6
  3 37  1  0
  3 38  1  0
  4 39  1  0
  4 40  1  0
  5 41  1  1
  8 42  1  0
  8 43  1  0
  8 44  1  0
  9 45  1  0
  9 46  1  0
  9 47  1  0
 10 48  1  1
 11 49  1  0
 11 50  1  0
 12 51  1  0
 12 52  1  0
 14 53  1  0
 14 54  1  0
 14 55  1  0
 15 56  1  6
 16 57  1  0
 16 58  1  0
 17 59  1  0
 19 60  1  1
 20 61  1  0
 20 62  1  0
 21 63  1  0
 21 64  1  0
 22 65  1  1
 23 66  1  0
 25 67  1  0
 25 68  1  0
 25 69  1  0
 26 70  1  0
 26 71  1  0
 26 72  1  0
 28 73  1  0
 28 74  1  0
 28 75  1  0
 29 76  1  0
 29 77  1  0
 30 78  1  0
 30 79  1  0
 32 80  1  0
 32 81  1  0
 32 82  1  0
M  END
>  <meeko>  (2) 
{"is_sidechain": [false], "intermolecular_energy": 2.731, "internal_energy": -0.839}

$$$$
EPH_relaxed_0001_pdb2pqr_Repair_137_r2_0001_out
     RDKit          3D

 82 86  0  0  0  0  0  0  0  0999 V2000
    2.4130   18.1960   -2.3040 C   0  0  0  0  0  0  0  0  0  0  0  0
    1.7590   17.4680   -1.1260 C   0  0  2  0  0  0  0  0  0  0  0  0
    2.7870   17.0690   -0.0480 C   0  0  0  0  0  0  0  0  0  0  0  0
    3.8030   18.1680    0.2710 C   0  0  0  0  0  0  0  0  0  0  0  0
    3.5590   18.7750    1.6200 C   0  0  2  0  0  0  0  0  0  0  0  0
    3.9790   20.1390    1.7480 O   0  0  0  0  0  0  0  0  0  0  0  0
    4.6710   19.1830    2.5670 C   0  0  0  0  0  0  0  0  0  0  0  0
    6.1120   19.0000    2.2050 C   0  0  0  0  0  0  0  0  0  0  0  0
    4.3600   19.3030    4.0270 C   0  0  0  0  0  0  0  0  0  0  0  0
    1.0190   16.2330   -1.6240 C   0  0  1  0  0  0  0  0  0  0  0  0
    0.4940   16.3950   -3.0750 C   0  0  0  0  0  0  0  0  0  0  0  0
    0.6000   15.0020   -3.7480 C   0  0  0  0  0  0  0  0  0  0  0  0
    0.8640   14.0240   -2.5790 C   0  0  1  0  0  0  0  0  0  0  0  0
   -0.5420   13.7550   -1.9560 C   0  0  0  0  0  0  0  0  0  0  0  0
    1.5970   12.6920   -2.9450 C   0  0  2  0  0  0  0  0  0  0  0  0
    0.8380   11.7770   -3.9210 C   0  0  0  0  0  0  0  0  0  0  0  0
   -0.0670   10.7750   -3.2840 C   0  0  0  0  0  0  0  0  0  0  0  0
   -0.0520   10.4230   -1.9850 C   0  0  0  0  0  0  0  0  0  0  0  0
    1.0100   10.9820   -1.0290 C   0  0  1  0  0  0  0  0  0  0  0  0
    1.6000    9.8270   -0.1770 C   0  0  0  0  0  0  0  0  0  0  0  0
    0.5230    9.0280    0.5500 C   0  0  0  0  0  0  0  0  0  0  0  0
   -0.4810    8.4400   -0.4380 C   0  0  2  0  0  0  0  0  0  0  0  0
    0.1820    7.4570   -1.2380 O   0  0  0  0  0  0  0  0  0  0  0  0
   -1.1340    9.5090   -1.3580 C   0  0  0  0  0  0  0  0  0  0  0  0
   -2.0950   10.3950   -0.5260 C   0  0  0  0  0  0  0  0  0  0  0  0
   -2.0170    8.7690   -2.3980 C   0  0  0  0  0  0  0  0  0  0  0  0
    2.1360   11.8850   -1.6950 C   0  0  1  0  0  0  0  0  0  0  0  0
    3.3000   10.9870   -2.2140 C   0  0  0  0  0  0  0  0  0  0  0  0
    2.7570   12.8260   -0.5970 C   0  0  0  0  0  0  0  0  0  0  0  0
    2.0570   14.1790   -0.3660 C   0  0  0  0  0  0  0  0  0  0  0  0
    1.8160   14.9060   -1.6920 C   0  0  2  0  0  0  0  0  0  0  0  0
    3.2140   15.2090   -2.3320 C   0  0  0  0  0  0  0  0  0  0  0  0
    3.1027   18.9637   -1.9233 H   0  0  0  0  0  0  0  0  0  0  0  0
    2.9712   17.4734   -2.9174 H   0  0  0  0  0  0  0  0  0  0  0  0
    1.6349   18.6738   -2.9174 H   0  0  0  0  0  0  0  0  0  0  0  0
    1.0462   18.1645   -0.6605 H   0  0  0  0  0  0  0  0  0  0  0  0
    2.2431   16.8205    0.8753 H   0  0  0  0  0  0  0  0  0  0  0  0
    3.3532   16.2137   -0.4452 H   0  0  0  0  0  0  0  0  0  0  0  0
    4.8140   17.7349    0.2527 H   0  0  0  0  0  0  0  0  0  0  0  0
    3.6994   18.9603   -0.4850 H   0  0  0  0  0  0  0  0  0  0  0  0
    2.6595   18.1577    1.7607 H   0  0  0  0  0  0  0  0  0  0  0  0
    6.7137   18.9236    3.1226 H   0  0  0  0  0  0  0  0  0  0  0  0
    6.2274   18.0800    1.6132 H   0  0  0  0  0  0  0  0  0  0  0  0
    6.4537   19.8620    1.6132 H   0  0  0  0  0  0  0  0  0  0  0  0
    5.2271   18.9684    4.6153 H   0  0  0  0  0  0  0  0  0  0  0  0
    4.1355   20.3523    4.2690 H   0  0  0  0  0  0  0  0  0  0  0  0
    3.4889   18.6764    4.2690 H   0  0  0  0  0  0  0  0  0  0  0  0
    0.2371   16.1637   -0.8534 H   0  0  0  0  0  0  0  0  0  0  0  0
   -0.5533   16.7313   -3.0634 H   0  0  0  0  0  0  0  0  0  0  0  0
    1.0808   17.1450   -3.6256 H   0  0  0  0  0  0  0  0  0  0  0  0
   -0.3378   14.7472   -4.2634 H   0  0  0  0  0  0  0  0  0  0  0  0
    1.3926   14.9656   -4.5099 H   0  0  0  0  0  0  0  0  0  0  0  0
   -0.4657   13.7696   -0.8587 H   0  0  0  0  0  0  0  0  0  0  0  0
   -1.2442   14.5351   -2.2851 H   0  0  0  0  0  0  0  0  0  0  0  0
   -0.9067   12.7708   -2.2851 H   0  0  0  0  0  0  0  0  0  0  0  0
    2.4782   13.0508   -3.4971 H   0  0  0  0  0  0  0  0  0  0  0  0
    0.2296   12.4137   -4.5802 H   0  0  0  0  0  0  0  0  0  0  0  0
    1.6061   11.1973   -4.4539 H   0  0  0  0  0  0  0  0  0  0  0  0
   -0.8084   10.2830   -3.9307 H   0  0  0  0  0  0  0  0  0  0  0  0
    0.4860   11.6966   -0.3773 H   0  0  0  0  0  0  0  0  0  0  0  0
    2.1558    9.1478   -0.8402 H   0  0  0  0  0  0  0  0  0  0  0  0
    2.2553   10.2747    0.5847 H   0  0  0  0  0  0  0  0  0  0  0  0
    0.9986    8.2093    1.1100 H   0  0  0  0  0  0  0  0  0  0  0  0
   -0.0122    9.7024    1.2346 H   0  0  0  0  0  0  0  0  0  0  0  0
   -1.2965    7.9913    0.1482 H   0  0  0  0  0  0  0  0  0  0  0  0
   -0.2850    7.4070   -2.0900 H   0  0  0  0  0  0  0  0  0  0  0  0
   -1.9130   10.2272    0.5458 H   0  0  0  0  0  0  0  0  0  0  0  0
   -1.9183   11.4537   -0.7666 H   0  0  0  0  0  0  0  0  0  0  0  0
   -3.1359   10.1331   -0.7666 H   0  0  0  0  0  0  0  0  0  0  0  0
   -2.7582    8.1478   -1.8739 H   0  0  0  0  0  0  0  0  0  0  0  0
   -2.5362    9.5057   -3.0286 H   0  0  0  0  0  0  0  0  0  0  0  0
   -1.3824    8.1290   -3.0286 H   0  0  0  0  0  0  0  0  0  0  0  0
    3.8471   10.5649   -1.3581 H   0  0  0  0  0  0  0  0  0  0  0  0
    2.8885   10.1701   -2.8250 H   0  0  0  0  0  0  0  0  0  0  0  0
    3.9857   11.5924   -2.8250 H   0  0  0  0  0  0  0  0  0  0  0  0
    2.7451   12.2779    0.3566 H   0  0  0  0  0  0  0  0  0  0  0  0
    3.7603   13.0805   -0.9695 H   0  0  0  0  0  0  0  0  0  0  0  0
    1.0904   14.0040    0.1291 H   0  0  0  0  0  0  0  0  0  0  0  0
    2.7051   14.8056    0.2643 H   0  0  0  0  0  0  0  0  0  0  0  0
    3.9550   15.3696   -1.5351 H   0  0  0  0  0  0  0  0  0  0  0  0
    3.5244   14.3573   -2.9551 H   0  0  0  0  0  0  0  0  0  0  0  0
    3.1439   16.1128   -2.9551 H   0  0  0  0  0  0  0  0  0  0  0  0
  1  2  1  0
  2  3  1  0
  3  4  1  0
  4  5  1  0
  5  6  1  0
  6  7  1  0
  7  8  1  0
  7  9  1  0
  2 10  1  0
 10 11  1  0
 11 12  1  0
 12 13  1  0
 13 14  1  1
 13 15  1  0
 15 16  1  0
 16 17  1  0
 17 18  2  0
 18 19  1  0
 19 20  1  0
 20 21  1  0
 21 22  1  0
 22 23  1  0
 22 24  1  0
 24 25  1  0
 24 26  1  0
 19 27  1  0
 27 28  1  6
 27 29  1  0
 29 30  1  0
 30 31  1  0
 31 32  1  6
  7  5  1  0
 31 10  1  0
 31 13  1  0
 27 15  1  0
 24 18  1  0
  1 33  1  0
  1 34  1  0
  1 35  1  0
  2 36  1  1
  3 37  1  0
  3 38  1  0
  4 39  1  0
  4 40  1  0
  5 41  1  1
  8 42  1  0
  8 43  1  0
  8 44  1  0
  9 45  1  0
  9 46  1  0
  9 47  1  0
 10 48  1  1
 11 49  1  0
 11 50  1  0
 12 51  1  0
 12 52  1  0
 14 53  1  0
 14 54  1  0
 14 55  1  0
 15 56  1  6
 16 57  1  0
 16 58  1  0
 17 59  1  0
 19 60  1  1
 20 61  1  0
 20 62  1  0
 21 63  1  0
 21 64  1  0
 22 65  1  1
 23 66  1  0
 25 67  1  0
 25 68  1  0
 25 69  1  0
 26 70  1  0
 26 71  1  0
 26 72  1  0
 28 73  1  0
 28 74  1  0
 28 75  1  0
 29 76  1  0
 29 77  1  0
 30 78  1  0
 30 79  1  0
 32 80  1  0
 32 81  1  0
 32 82  1  0
M  END
>  <meeko>  (3) 
{"is_sidechain": [false], "intermolecular_energy": 2.731, "internal_energy": -0.839}

$$$$
EPH_relaxed_0001_pdb2pqr_Repair_137_r2_0001_out
     RDKit          3D

 82 86  0  0  0  0  0  0  0  0999 V2000
   -1.1460    8.8100   -1.9000 C   0  0  0  0  0  0  0  0  0  0  0  0
   -1.5660    9.1900   -0.4770 C   0  0  2  0  0  0  0  0  0  0  0  0
   -3.0960    9.3330   -0.3420 C   0  0  0  0  0  0  0  0  0  0  0  0
   -3.8850    8.4070   -1.2720 C   0  0  0  0  0  0  0  0  0  0  0  0
   -5.2360    8.0790   -0.7110 C   0  0  2  0  0  0  0  0  0  0  0  0
   -5.4720    6.6810   -0.4970 O   0  0  0  0  0  0  0  0  0  0  0  0
   -6.3000    7.3210   -1.4820 C   0  0  0  0  0  0  0  0  0  0  0  0
   -6.0600    6.8460   -2.8800 C   0  0  0  0  0  0  0  0  0  0  0  0
   -7.7290    7.4690   -1.0620 C   0  0  0  0  0  0  0  0  0  0  0  0
   -0.8830   10.4880   -0.0630 C   0  0  1  0  0  0  0  0  0  0  0  0
    0.0460   10.3070    1.1670 C   0  0  0  0  0  0  0  0  0  0  0  0
    1.2500   11.2630    0.9630 C   0  0  0  0  0  0  0  0  0  0  0  0
    0.8170   12.1930   -0.1950 C   0  0  1  0  0  0  0  0  0  0  0  0
   -0.0890   13.2730    0.4770 C   0  0  0  0  0  0  0  0  0  0  0  0
    1.9690   12.8430   -1.0270 C   0  0  2  0  0  0  0  0  0  0  0  0
    2.8980   13.7810   -0.2360 C   0  0  0  0  0  0  0  0  0  0  0  0
    2.4860   15.2150   -0.2130 C   0  0  0  0  0  0  0  0  0  0  0  0
    1.5790   15.7820   -1.0310 C   0  0  0  0  0  0  0  0  0  0  0  0
    0.9350   14.9800   -2.1690 C   0  0  1  0  0  0  0  0  0  0  0  0
    0.9580   15.8210   -3.4720 C   0  0  0  0  0  0  0  0  0  0  0  0
    0.3210   17.1960   -3.2930 C   0  0  0  0  0  0  0  0  0  0  0  0
    1.0250   17.9850   -2.1930 C   0  0  2  0  0  0  0  0  0  0  0  0
    2.3560   18.2870   -2.6220 O   0  0  0  0  0  0  0  0  0  0  0  0
    1.0730   17.2320   -0.8340 C   0  0  0  0  0  0  0  0  0  0  0  0
   -0.3490   17.1710   -0.2220 C   0  0  0  0  0  0  0  0  0  0  0  0
    1.9320   18.0740    0.1480 C   0  0  0  0  0  0  0  0  0  0  0  0
    1.4950   13.5080   -2.3830 C   0  0  1  0  0  0  0  0  0  0  0  0
    2.7390   13.5430   -3.3210 C   0  0  0  0  0  0  0  0  0  0  0  0
    0.4040   12.6460   -3.1220 C   0  0  0  0  0  0  0  0  0  0  0  0
   -0.6350   11.9330   -2.2370 C   0  0  0  0  0  0  0  0  0  0  0  0
    0.0470   11.1650   -1.1010 C   0  0  2  0  0  0  0  0  0  0  0  0
    0.9470   10.0560   -1.7450 C   0  0  0  0  0  0  0  0  0  0  0  0
   -0.3309    8.0726   -1.8571 H   0  0  0  0  0  0  0  0  0  0  0  0
   -2.0053    8.3763   -2.4324 H   0  0  0  0  0  0  0  0  0  0  0  0
   -0.8001    9.7083   -2.4324 H   0  0  0  0  0  0  0  0  0  0  0  0
   -1.2504    8.3746    0.1905 H   0  0  0  0  0  0  0  0  0  0  0  0
   -3.3760    9.1029    0.6966 H   0  0  0  0  0  0  0  0  0  0  0  0
   -3.3488   10.3652   -0.6259 H   0  0  0  0  0  0  0  0  0  0  0  0
   -4.0139    8.9041   -2.2448 H   0  0  0  0  0  0  0  0  0  0  0  0
   -3.3215    7.4686   -1.3809 H   0  0  0  0  0  0  0  0  0  0  0  0
   -5.2626    9.0287   -0.1566 H   0  0  0  0  0  0  0  0  0  0  0  0
   -5.5641    5.8645   -2.8537 H   0  0  0  0  0  0  0  0  0  0  0  0
   -7.0213    6.7571   -3.4072 H   0  0  0  0  0  0  0  0  0  0  0  0
   -5.4181    7.5671   -3.4072 H   0  0  0  0  0  0  0  0  0  0  0  0
   -7.7896    7.4753    0.0363 H   0  0  0  0  0  0  0  0  0  0  0  0
   -8.1313    8.4136   -1.4568 H   0  0  0  0  0  0  0  0  0  0  0  0
   -8.3163    6.6269   -1.4568 H   0  0  0  0  0  0  0  0  0  0  0  0
   -1.7693   11.1154    0.1130 H   0  0  0  0  0  0  0  0  0  0  0  0
   -0.4925   10.5677    2.0900 H   0  0  0  0  0  0  0  0  0  0  0  0
    0.3814    9.2634    1.2584 H   0  0  0  0  0  0  0  0  0  0  0  0
    1.4435   11.8444    1.8765 H   0  0  0  0  0  0  0  0  0  0  0  0
    2.1801   10.7207    0.7374 H   0  0  0  0  0  0  0  0  0  0  0  0
   -0.0149   13.1847    1.5709 H   0  0  0  0  0  0  0  0  0  0  0  0
    0.2430   14.2748    0.1667 H   0  0  0  0  0  0  0  0  0  0  0  0
   -1.1332   13.1203    0.1667 H   0  0  0  0  0  0  0  0  0  0  0  0
    2.5839   11.9716   -1.2965 H   0  0  0  0  0  0  0  0  0  0  0  0
    2.9386   13.4223    0.8031 H   0  0  0  0  0  0  0  0  0  0  0  0
    3.8699   13.7517   -0.7504 H   0  0  0  0  0  0  0  0  0  0  0  0
    2.9637   15.8640    0.5357 H   0  0  0  0  0  0  0  0  0  0  0  0
   -0.1050   14.7964   -1.8613 H   0  0  0  0  0  0  0  0  0  0  0  0
    2.0035   15.9551   -3.7866 H   0  0  0  0  0  0  0  0  0  0  0  0
    0.3734   15.2785   -4.2296 H   0  0  0  0  0  0  0  0  0  0  0  0
    0.3950   17.7527   -4.2388 H   0  0  0  0  0  0  0  0  0  0  0  0
   -0.7326   17.0600   -3.0077 H   0  0  0  0  0  0  0  0  0  0  0  0
    0.4442   18.9035   -2.0228 H   0  0  0  0  0  0  0  0  0  0  0  0
    2.5700   17.6900   -3.3590 H   0  0  0  0  0  0  0  0  0  0  0  0
   -0.2762   17.1741    0.8756 H   0  0  0  0  0  0  0  0  0  0  0  0
   -0.9287   18.0451   -0.5535 H   0  0  0  0  0  0  0  0  0  0  0  0
   -0.8517   16.2505   -0.5535 H   0  0  0  0  0  0  0  0  0  0  0  0
    1.6665   17.8137    1.1832 H   0  0  0  0  0  0  0  0  0  0  0  0
    2.9977   17.8610   -0.0218 H   0  0  0  0  0  0  0  0  0  0  0  0
    1.7403   19.1438   -0.0218 H   0  0  0  0  0  0  0  0  0  0  0  0
    3.6557   13.5688   -2.7135 H   0  0  0  0  0  0  0  0  0  0  0  0
    2.7450   12.6447   -3.9558 H   0  0  0  0  0  0  0  0  0  0  0  0
    2.6944   14.4402   -3.9558 H   0  0  0  0  0  0  0  0  0  0  0  0
   -0.1423   13.3143   -3.8038 H   0  0  0  0  0  0  0  0  0  0  0  0
    0.9627   11.8382   -3.6173 H   0  0  0  0  0  0  0  0  0  0  0  0
   -1.3159   12.6822   -1.8068 H   0  0  0  0  0  0  0  0  0  0  0  0
   -1.1930   11.2173   -2.8586 H   0  0  0  0  0  0  0  0  0  0  0  0
    1.4263    9.4654   -0.9503 H   0  0  0  0  0  0  0  0  0  0  0  0
    0.3259    9.3960   -2.3684 H   0  0  0  0  0  0  0  0  0  0  0  0
    1.7207   10.5279   -2.3684 H   0  0  0  0  0  0  0  0  0  0  0  0
  1  2  1  0
  2  3  1  0
  3  4  1  0
  4  5  1  0
  5  6  1  0
  6  7  1  0
  7  8  1  0
  7  9  1  0
  2 10  1  0
 10 11  1  0
 11 12  1  0
 12 13  1  0
 13 14  1  1
 13 15  1  0
 15 16  1  0
 16 17  1  0
 17 18  2  0
 18 19  1  0
 19 20  1  0
 20 21  1  0
 21 22  1  0
 22 23  1  0
 22 24  1  0
 24 25  1  0
 24 26  1  0
 19 27  1  0
 27 28  1  6
 27 29  1  0
 29 30  1  0
 30 31  1  0
 31 32  1  6
  7  5  1  0
 31 10  1  0
 31 13  1  0
 27 15  1  0
 24 18  1  0
  1 33  1  0
  1 34  1  0
  1 35  1  0
  2 36  1  1
  3 37  1  0
  3 38  1  0
  4 39  1  0
  4 40  1  0
  5 41  1  1
  8 42  1  0
  8 43  1  0
  8 44  1  0
  9 45  1  0
  9 46  1  0
  9 47  1  0
 10 48  1  1
 11 49  1  0
 11 50  1  0
 12 51  1  0
 12 52  1  0
 14 53  1  0
 14 54  1  0
 14 55  1  0
 15 56  1  6
 16 57  1  0
 16 58  1  0
 17 59  1  0
 19 60  1  1
 20 61  1  0
 20 62  1  0
 21 63  1  0
 21 64  1  0
 22 65  1  1
 23 66  1  0
 25 67  1  0
 25 68  1  0
 25 69  1  0
 26 70  1  0
 26 71  1  0
 26 72  1  0
 28 73  1  0
 28 74  1  0
 28 75  1  0
 29 76  1  0
 29 77  1  0
 30 78  1  0
 30 79  1  0
 32 80  1  0
 32 81  1  0
 32 82  1  0
M  END
>  <meeko>  (4) 
{"is_sidechain": [false], "intermolecular_energy": 2.731, "internal_energy": -0.839}

$$$$
EPH_relaxed_0001_pdb2pqr_Repair_137_r2_0001_out
     RDKit          3D

 82 86  0  0  0  0  0  0  0  0999 V2000
   -0.6630    7.8550   -0.5940 C   0  0  0  0  0  0  0  0  0  0  0  0
   -1.0850    9.2160   -0.0340 C   0  0  2  0  0  0  0  0  0  0  0  0
   -2.3440    9.7670   -0.7320 C   0  0  0  0  0  0  0  0  0  0  0  0
   -3.6550    9.2900   -0.1010 C   0  0  0  0  0  0  0  0  0  0  0  0
   -4.0400    7.9250   -0.5860 C   0  0  2  0  0  0  0  0  0  0  0  0
   -4.1190    7.7970   -2.0120 O   0  0  0  0  0  0  0  0  0  0  0  0
   -5.3500    7.6260   -1.2900 C   0  0  0  0  0  0  0  0  0  0  0  0
   -6.3610    8.6990   -1.5480 C   0  0  0  0  0  0  0  0  0  0  0  0
   -5.8570    6.2170   -1.2890 C   0  0  0  0  0  0  0  0  0  0  0  0
    0.0620   10.2110   -0.1680 C   0  0  1  0  0  0  0  0  0  0  0  0
    1.4530    9.5230   -0.1650 C   0  0  0  0  0  0  0  0  0  0  0  0
    2.3580   10.3400   -1.1240 C   0  0  0  0  0  0  0  0  0  0  0  0
    1.5710   11.6460   -1.3850 C   0  0  1  0  0  0  0  0  0  0  0  0
    1.8620   12.5440   -0.1420 C   0  0  0  0  0  0  0  0  0  0  0  0
    1.8900   12.3900   -2.7220 C   0  0  2  0  0  0  0  0  0  0  0  0
    3.3380   12.8930   -2.8590 C   0  0  0  0  0  0  0  0  0  0  0  0
    3.5810   14.2780   -2.3580 C   0  0  0  0  0  0  0  0  0  0  0  0
    2.6290   15.1890   -2.0820 C   0  0  0  0  0  0  0  0  0  0  0  0
    1.1510   14.8930   -2.3640 C   0  0  1  0  0  0  0  0  0  0  0  0
    0.5070   16.1080   -3.0820 C   0  0  0  0  0  0  0  0  0  0  0  0
    0.7050   17.4120   -2.3160 C   0  0  0  0  0  0  0  0  0  0  0  0
    2.1890   17.7020   -2.1060 C   0  0  2  0  0  0  0  0  0  0  0  0
    2.7910   17.9650   -3.3760 O   0  0  0  0  0  0  0  0  0  0  0  0
    2.9450   16.5420   -1.3990 C   0  0  0  0  0  0  0  0  0  0  0  0
    2.4980   16.4550    0.0810 C   0  0  0  0  0  0  0  0  0  0  0  0
    4.4550   16.9010   -1.3760 C   0  0  0  0  0  0  0  0  0  0  0  0
    0.8470   13.5180   -3.1020 C   0  0  1  0  0  0  0  0  0  0  0  0
    0.9420   13.7100   -4.6460 C   0  0  0  0  0  0  0  0  0  0  0  0
   -0.6360   13.0880   -2.7970 C   0  0  0  0  0  0  0  0  0  0  0  0
   -0.8710   12.2530   -1.5240 C   0  0  0  0  0  0  0  0  0  0  0  0
    0.1070   11.0760   -1.4520 C   0  0  2  0  0  0  0  0  0  0  0  0
   -0.1770   10.1430   -2.6780 C   0  0  0  0  0  0  0  0  0  0  0  0
   -0.4496    7.1667    0.2371 H   0  0  0  0  0  0  0  0  0  0  0  0
   -1.4760    7.4442   -1.2107 H   0  0  0  0  0  0  0  0  0  0  0  0
    0.2397    7.9762   -1.2107 H   0  0  0  0  0  0  0  0  0  0  0  0
   -1.3326    9.0739    1.0283 H   0  0  0  0  0  0  0  0  0  0  0  0
   -2.3150   10.8656   -0.6844 H   0  0  0  0  0  0  0  0  0  0  0  0
   -2.3291    9.3917   -1.7659 H   0  0  0  0  0  0  0  0  0  0  0  0
   -3.5339    9.2588    0.9919 H   0  0  0  0  0  0  0  0  0  0  0  0
   -4.4501    9.9931   -0.3899 H   0  0  0  0  0  0  0  0  0  0  0  0
   -3.5395    7.4529    0.2723 H   0  0  0  0  0  0  0  0  0  0  0  0
   -6.7313    9.0920   -0.5896 H   0  0  0  0  0  0  0  0  0  0  0  0
   -5.8937    9.5127   -2.1220 H   0  0  0  0  0  0  0  0  0  0  0  0
   -7.2011    8.2809   -2.1220 H   0  0  0  0  0  0  0  0  0  0  0  0
   -5.9809    5.8726   -0.2517 H   0  0  0  0  0  0  0  0  0  0  0  0
   -6.8264    6.1758   -1.8073 H   0  0  0  0  0  0  0  0  0  0  0  0
   -5.1362    5.5676   -1.8073 H   0  0  0  0  0  0  0  0  0  0  0  0
   -0.1425   10.8467    0.7061 H   0  0  0  0  0  0  0  0  0  0  0  0
    1.8757    9.5275    0.8505 H   0  0  0  0  0  0  0  0  0  0  0  0
    1.3763    8.4752   -0.4910 H   0  0  0  0  0  0  0  0  0  0  0  0
    3.3271   10.5584   -0.6516 H   0  0  0  0  0  0  0  0  0  0  0  0
    2.5811    9.7946   -2.0529 H   0  0  0  0  0  0  0  0  0  0  0  0
    1.6758   11.9693    0.7772 H   0  0  0  0  0  0  0  0  0  0  0  0
    2.9121   12.8709   -0.1636 H   0  0  0  0  0  0  0  0  0  0  0  0
    1.2033   13.4247   -0.1636 H   0  0  0  0  0  0  0  0  0  0  0  0
    1.7797   11.5901   -3.4690 H   0  0  0  0  0  0  0  0  0  0  0  0
    3.9904   12.2086   -2.2968 H   0  0  0  0  0  0  0  0  0  0  0  0
    3.5513   12.9174   -3.9378 H   0  0  0  0  0  0  0  0  0  0  0  0
    4.6270   14.5800   -2.2010 H   0  0  0  0  0  0  0  0  0  0  0  0
    0.6785   14.7457   -1.3816 H   0  0  0  0  0  0  0  0  0  0  0  0
    0.9626   16.2113   -4.0778 H   0  0  0  0  0  0  0  0  0  0  0  0
   -0.5749   15.9212   -3.1494 H   0  0  0  0  0  0  0  0  0  0  0  0
    0.2544   18.2370   -2.8873 H   0  0  0  0  0  0  0  0  0  0  0  0
    0.2232   17.3173   -1.3316 H   0  0  0  0  0  0  0  0  0  0  0  0
    2.2643   18.5761   -1.4424 H   0  0  0  0  0  0  0  0  0  0  0  0
    2.7560   18.9250   -3.5250 H   0  0  0  0  0  0  0  0  0  0  0  0
    3.3651   16.6238    0.7364 H   0  0  0  0  0  0  0  0  0  0  0  0
    1.7341   17.2213    0.2790 H   0  0  0  0  0  0  0  0  0  0  0  0
    2.0773   15.4581    0.2790 H   0  0  0  0  0  0  0  0  0  0  0  0
    4.7967   16.9822   -0.3336 H   0  0  0  0  0  0  0  0  0  0  0  0
    5.0269   16.1138   -1.8891 H   0  0  0  0  0  0  0  0  0  0  0  0
    4.6114   17.8614   -1.8891 H   0  0  0  0  0  0  0  0  0  0  0  0
    1.4199   14.6759   -4.8667 H   0  0  0  0  0  0  0  0  0  0  0  0
    1.5416   12.8965   -5.0805 H   0  0  0  0  0  0  0  0  0  0  0  0
   -0.0684   13.6931   -5.0805 H   0  0  0  0  0  0  0  0  0  0  0  0
   -1.2366   14.0053   -2.7085 H   0  0  0  0  0  0  0  0  0  0  0  0
   -0.9206   12.4281   -3.6298 H   0  0  0  0  0  0  0  0  0  0  0  0
   -0.7281   12.8941   -0.6416 H   0  0  0  0  0  0  0  0  0  0  0  0
   -1.8965   11.8559   -1.5493 H   0  0  0  0  0  0  0  0  0  0  0  0
   -0.4798    9.1482   -2.3193 H   0  0  0  0  0  0  0  0  0  0  0  0
   -0.9845   10.5744   -3.2878 H   0  0  0  0  0  0  0  0  0  0  0  0
    0.7339   10.0513   -3.2878 H   0  0  0  0  0  0  0  0  0  0  0  0
  1  2  1  0
  2  3  1  0
  3  4  1  0
  4  5  1  0
  5  6  1  0
  6  7  1  0
  7  8  1  0
  7  9  1  0
  2 10  1  0
 10 11  1  0
 11 12  1  0
 12 13  1  0
 13 14  1  1
 13 15  1  0
 15 16  1  0
 16 17  1  0
 17 18  2  0
 18 19  1  0
 19 20  1  0
 20 21  1  0
 21 22  1  0
 22 23  1  0
 22 24  1  0
 24 25  1  0
 24 26  1  0
 19 27  1  0
 27 28  1  6
 27 29  1  0
 29 30  1  0
 30 31  1  0
 31 32  1  6
  7  5  1  0
 31 10  1  0
 31 13  1  0
 27 15  1  0
 24 18  1  0
  1 33  1  0
  1 34  1  0
  1 35  1  0
  2 36  1  1
  3 37  1  0
  3 38  1  0
  4 39  1  0
  4 40  1  0
  5 41  1  1
  8 42  1  0
  8 43  1  0
  8 44  1  0
  9 45  1  0
  9 46  1  0
  9 47  1  0
 10 48  1  1
 11 49  1  0
 11 50  1  0
 12 51  1  0
 12 52  1  0
 14 53  1  0
 14 54  1  0
 14 55  1  0
 15 56  1  6
 16 57  1  0
 16 58  1  0
 17 59  1  0
 19 60  1  1
 20 61  1  0
 20 62  1  0
 21 63  1  0
 21 64  1  0
 22 65  1  1
 23 66  1  0
 25 67  1  0
 25 68  1  0
 25 69  1  0
 26 70  1  0
 26 71  1  0
 26 72  1  0
 28 73  1  0
 28 74  1  0
 28 75  1  0
 29 76  1  0
 29 77  1  0
 30 78  1  0
 30 79  1  0
 32 80  1  0
 32 81  1  0
 32 82  1  0
M  END
>  <meeko>  (5) 
{"is_sidechain": [false], "intermolecular_energy": 2.731, "internal_energy": -0.839}

$$$$
EPH_relaxed_0001_pdb2pqr_Repair_137_r2_0001_out
     RDKit          3D

 82 86  0  0  0  0  0  0  0  0999 V2000
    3.6830   17.9380   -1.4450 C   0  0  0  0  0  0  0  0  0  0  0  0
    2.6390   17.4640   -2.4600 C   0  0  2  0  0  0  0  0  0  0  0  0
    1.2230   17.9670   -2.1140 C   0  0  0  0  0  0  0  0  0  0  0  0
    1.1660   18.8210   -0.8450 C   0  0  0  0  0  0  0  0  0  0  0  0
   -0.0780   19.6550   -0.7930 C   0  0  2  0  0  0  0  0  0  0  0  0
   -0.3940   20.1790    0.5030 O   0  0  0  0  0  0  0  0  0  0  0  0
   -1.3330   19.2410   -0.0480 C   0  0  0  0  0  0  0  0  0  0  0  0
   -1.4060   17.9450    0.6970 C   0  0  0  0  0  0  0  0  0  0  0  0
   -2.6380   19.8570   -0.4460 C   0  0  0  0  0  0  0  0  0  0  0  0
    2.6460   15.9420   -2.5410 C   0  0  1  0  0  0  0  0  0  0  0  0
    4.0740   15.3590   -2.7080 C   0  0  0  0  0  0  0  0  0  0  0  0
    4.1050   14.0190   -1.9300 C   0  0  0  0  0  0  0  0  0  0  0  0
    2.6200   13.7120   -1.6240 C   0  0  1  0  0  0  0  0  0  0  0  0
    2.0610   13.0810   -2.9380 C   0  0  0  0  0  0  0  0  0  0  0  0
    2.3440   12.8000   -0.3840 C   0  0  2  0  0  0  0  0  0  0  0  0
    2.9180   11.3760   -0.4800 C   0  0  0  0  0  0  0  0  0  0  0  0
    2.0040   10.3590   -1.0790 C   0  0  0  0  0  0  0  0  0  0  0  0
    0.6790   10.5090   -1.2600 C   0  0  0  0  0  0  0  0  0  0  0  0
   -0.0480   11.7610   -0.7550 C   0  0  1  0  0  0  0  0  0  0  0  0
   -1.3450   11.3440   -0.0130 C   0  0  0  0  0  0  0  0  0  0  0  0
   -2.2440   10.4500   -0.8630 C   0  0  0  0  0  0  0  0  0  0  0  0
   -1.5040    9.1880   -1.2970 C   0  0  2  0  0  0  0  0  0  0  0  0
   -1.2360    8.3900   -0.1400 O   0  0  0  0  0  0  0  0  0  0  0  0
   -0.1750    9.4840   -2.0470 C   0  0  0  0  0  0  0  0  0  0  0  0
   -0.4860   10.0800   -3.4420 C   0  0  0  0  0  0  0  0  0  0  0  0
    0.5410    8.1300   -2.3030 C   0  0  0  0  0  0  0  0  0  0  0  0
    0.8330   12.7830    0.0850 C   0  0  1  0  0  0  0  0  0  0  0  0
    0.8380   12.3710    1.5890 C   0  0  0  0  0  0  0  0  0  0  0  0
    0.1700   14.2100    0.0180 C   0  0  0  0  0  0  0  0  0  0  0  0
    0.5730   15.1090   -1.1670 C   0  0  0  0  0  0  0  0  0  0  0  0
    2.0970   15.1630   -1.3190 C   0  0  2  0  0  0  0  0  0  0  0  0
    2.6850   15.8130   -0.0210 C   0  0  0  0  0  0  0  0  0  0  0  0
    3.3070   17.7673   -0.4254 H   0  0  0  0  0  0  0  0  0  0  0  0
    4.6173   17.3758   -1.5902 H   0  0  0  0  0  0  0  0  0  0  0  0
    3.8747   19.0114   -1.5902 H   0  0  0  0  0  0  0  0  0  0  0  0
    2.9108   17.8892   -3.4374 H   0  0  0  0  0  0  0  0  0  0  0  0
    0.8538   18.5710   -2.9559 H   0  0  0  0  0  0  0  0  0  0  0  0
    0.6019   17.0777   -1.9310 H   0  0  0  0  0  0  0  0  0  0  0  0
    1.1873   18.1577    0.0322 H   0  0  0  0  0  0  0  0  0  0  0  0
    2.0328   19.4983   -0.8485 H   0  0  0  0  0  0  0  0  0  0  0  0
    0.0867   20.0059   -1.8224 H   0  0  0  0  0  0  0  0  0  0  0  0
   -1.3949   18.1429    1.7790 H   0  0  0  0  0  0  0  0  0  0  0  0
   -2.3351   17.4203    0.4298 H   0  0  0  0  0  0  0  0  0  0  0  0
   -0.5417   17.3193    0.4298 H   0  0  0  0  0  0  0  0  0  0  0  0
   -3.2070   20.1256    0.4563 H   0  0  0  0  0  0  0  0  0  0  0  0
   -2.4496   20.7612   -1.0434 H   0  0  0  0  0  0  0  0  0  0  0  0
   -3.2164   19.1368   -1.0434 H   0  0  0  0  0  0  0  0  0  0  0  0
    1.9832   15.8002   -3.4074 H   0  0  0  0  0  0  0  0  0  0  0  0
    4.2893   15.1838   -3.7724 H   0  0  0  0  0  0  0  0  0  0  0  0
    4.8324   16.0565   -2.3227 H   0  0  0  0  0  0  0  0  0  0  0  0
    4.5475   13.2223   -2.5460 H   0  0  0  0  0  0  0  0  0  0  0  0
    4.7154   14.0804   -1.0169 H   0  0  0  0  0  0  0  0  0  0  0  0
    1.3509   12.2794   -2.6866 H   0  0  0  0  0  0  0  0  0  0  0  0
    1.5468   13.8551   -3.5266 H   0  0  0  0  0  0  0  0  0  0  0  0
    2.8914   12.6639   -3.5266 H   0  0  0  0  0  0  0  0  0  0  0  0
    2.9190   13.3010    0.4087 H   0  0  0  0  0  0  0  0  0  0  0  0
    3.8294   11.4177   -1.0944 H   0  0  0  0  0  0  0  0  0  0  0  0
    3.0989   11.0504    0.5550 H   0  0  0  0  0  0  0  0  0  0  0  0
    2.4514    9.4066   -1.3995 H   0  0  0  0  0  0  0  0  0  0  0  0
   -0.3025   12.3461   -1.6511 H   0  0  0  0  0  0  0  0  0  0  0  0
   -1.0683   10.7985    0.9013 H   0  0  0  0  0  0  0  0  0  0  0  0
   -1.9075   12.2609    0.2171 H   0  0  0  0  0  0  0  0  0  0  0  0
   -3.1281   10.1644   -0.2741 H   0  0  0  0  0  0  0  0  0  0  0  0
   -2.5447   11.0076   -1.7622 H   0  0  0  0  0  0  0  0  0  0  0  0
   -2.1521    8.6534   -2.0070 H   0  0  0  0  0  0  0  0  0  0  0  0
   -0.6000    8.8760    0.4120 H   0  0  0  0  0  0  0  0  0  0  0  0
   -0.9918   11.0494   -3.3221 H   0  0  0  0  0  0  0  0  0  0  0  0
    0.4527   10.2225   -3.9974 H   0  0  0  0  0  0  0  0  0  0  0  0
   -1.1398    9.3915   -3.9974 H   0  0  0  0  0  0  0  0  0  0  0  0
    0.7900    7.6592   -1.3405 H   0  0  0  0  0  0  0  0  0  0  0  0
   -0.1239    7.4660   -2.8749 H   0  0  0  0  0  0  0  0  0  0  0  0
    1.4641    8.3057   -2.8749 H   0  0  0  0  0  0  0  0  0  0  0  0
    0.8270   13.2743    2.2167 H   0  0  0  0  0  0  0  0  0  0  0  0
   -0.0528   11.7631    1.8056 H   0  0  0  0  0  0  0  0  0  0  0  0
    1.7433   11.7849    1.8056 H   0  0  0  0  0  0  0  0  0  0  0  0
   -0.9199   14.0686   -0.0273 H   0  0  0  0  0  0  0  0  0  0  0  0
    0.5300   14.7367    0.9141 H   0  0  0  0  0  0  0  0  0  0  0  0
    0.1330   14.7057   -2.0910 H   0  0  0  0  0  0  0  0  0  0  0  0
    0.2024   16.1272   -0.9776 H   0  0  0  0  0  0  0  0  0  0  0  0
    2.2461   15.3278    0.8633 H   0  0  0  0  0  0  0  0  0  0  0  0
    3.7770   15.6813   -0.0073 H   0  0  0  0  0  0  0  0  0  0  0  0
    2.4449   16.8864   -0.0073 H   0  0  0  0  0  0  0  0  0  0  0  0
  1  2  1  0
  2  3  1  0
  3  4  1  0
  4  5  1  0
  5  6  1  0
  6  7  1  0
  7  8  1  0
  7  9  1  0
  2 10  1  0
 10 11  1  0
 11 12  1  0
 12 13  1  0
 13 14  1  6
 13 15  1  0
 15 16  1  0
 16 17  1  0
 17 18  2  0
 18 19  1  0
 19 20  1  0
 20 21  1  0
 21 22  1  0
 22 23  1  0
 22 24  1  0
 24 25  1  0
 24 26  1  0
 19 27  1  0
 27 28  1  1
 27 29  1  0
 29 30  1  0
 30 31  1  0
 31 32  1  1
  7  5  1  0
 31 10  1  0
 31 13  1  0
 27 15  1  0
 24 18  1  0
  1 33  1  0
  1 34  1  0
  1 35  1  0
  2 36  1  6
  3 37  1  0
  3 38  1  0
  4 39  1  0
  4 40  1  0
  5 41  1  6
  8 42  1  0
  8 43  1  0
  8 44  1  0
  9 45  1  0
  9 46  1  0
  9 47  1  0
 10 48  1  6
 11 49  1  0
 11 50  1  0
 12 51  1  0
 12 52  1  0
 14 53  1  0
 14 54  1  0
 14 55  1  0
 15 56  1  1
 16 57  1  0
 16 58  1  0
 17 59  1  0
 19 60  1  6
 20 61  1  0
 20 62  1  0
 21 63  1  0
 21 64  1  0
 22 65  1  6
 23 66  1  0
 25 67  1  0
 25 68  1  0
 25 69  1  0
 26 70  1  0
 26 71  1  0
 26 72  1  0
 28 73  1  0
 28 74  1  0
 28 75  1  0
 29 76  1  0
 29 77  1  0
 30 78  1  0
 30 79  1  0
 32 80  1  0
 32 81  1  0
 32 82  1  0
M  END
>  <meeko>  (6) 
{"is_sidechain": [false], "intermolecular_energy": 2.731, "internal_energy": -0.839}

$$$$
EPH_relaxed_0001_pdb2pqr_Repair_137_r2_0001_out
     RDKit          3D

 82 86  0  0  0  0  0  0  0  0999 V2000
    3.4280   18.3640    0.3760 C   0  0  0  0  0  0  0  0  0  0  0  0
    3.6180   17.1510   -0.5390 C   0  0  2  0  0  0  0  0  0  0  0  0
    3.8280   17.5610   -2.0100 C   0  0  0  0  0  0  0  0  0  0  0  0
    5.2010   17.1730   -2.5670 C   0  0  0  0  0  0  0  0  0  0  0  0
    5.2560   15.7230   -2.9450 C   0  0  2  0  0  0  0  0  0  0  0  0
    6.3850   15.0110   -2.4230 O   0  0  0  0  0  0  0  0  0  0  0  0
    6.3200   15.1360   -3.8530 C   0  0  0  0  0  0  0  0  0  0  0  0
    7.4010   15.9870   -4.4400 C   0  0  0  0  0  0  0  0  0  0  0  0
    6.0270   13.8480   -4.5580 C   0  0  0  0  0  0  0  0  0  0  0  0
    2.4160   16.2200   -0.4240 C   0  0  1  0  0  0  0  0  0  0  0  0
    1.0660   16.9860   -0.4090 C   0  0  0  0  0  0  0  0  0  0  0  0
    0.0390   16.0960   -1.1540 C   0  0  0  0  0  0  0  0  0  0  0  0
    0.7330   14.7200   -1.2790 C   0  0  1  0  0  0  0  0  0  0  0  0
    0.5140   14.0320    0.1050 C   0  0  0  0  0  0  0  0  0  0  0  0
    0.2560   13.8090   -2.4580 C   0  0  2  0  0  0  0  0  0  0  0  0
   -1.2210   13.3820   -2.3950 C   0  0  0  0  0  0  0  0  0  0  0  0
   -1.4840   12.1030   -1.6710 C   0  0  0  0  0  0  0  0  0  0  0  0
   -0.5560   11.1850   -1.3420 C   0  0  0  0  0  0  0  0  0  0  0  0
    0.9030   11.3440   -1.7880 C   0  0  1  0  0  0  0  0  0  0  0  0
    1.4170   10.0000   -2.3650 C   0  0  0  0  0  0  0  0  0  0  0  0
    1.2280    8.8360   -1.3970 C   0  0  0  0  0  0  0  0  0  0  0  0
   -0.2430    8.6730   -1.0220 C   0  0  2  0  0  0  0  0  0  0  0  0
   -0.9720    8.2650   -2.1830 O   0  0  0  0  0  0  0  0  0  0  0  0
   -0.8740    9.9690   -0.4380 C   0  0  0  0  0  0  0  0  0  0  0  0
   -0.2890   10.2430    0.9700 C   0  0  0  0  0  0  0  0  0  0  0  0
   -2.3910    9.7110   -0.2340 C   0  0  0  0  0  0  0  0  0  0  0  0
    1.2030   12.5750   -2.7480 C   0  0  1  0  0  0  0  0  0  0  0  0
    0.9580   12.1650   -4.2320 C   0  0  0  0  0  0  0  0  0  0  0  0
    2.7280   12.9520   -2.6380 C   0  0  0  0  0  0  0  0  0  0  0  0
    3.1190   13.9480   -1.5290 C   0  0  0  0  0  0  0  0  0  0  0  0
    2.2110   15.1810   -1.5550 C   0  0  2  0  0  0  0  0  0  0  0  0
    2.4260   15.9060   -2.9270 C   0  0  0  0  0  0  0  0  0  0  0  0
    3.4784   18.0422    1.4267 H   0  0  0  0  0  0  0  0  0  0  0  0
    4.2219   19.0996    0.1793 H   0  0  0  0  0  0  0  0  0  0  0  0
    2.4472   18.8216    0.1793 H   0  0  0  0  0  0  0  0  0  0  0  0
    4.5272   16.6268   -0.2095 H   0  0  0  0  0  0  0  0  0  0  0  0
    3.0546   17.0721   -2.6206 H   0  0  0  0  0  0  0  0  0  0  0  0
    3.7629   18.6583   -2.0504 H   0  0  0  0  0  0  0  0  0  0  0  0
    5.4091   17.7822   -3.4590 H   0  0  0  0  0  0  0  0  0  0  0  0
    5.9522   17.3521   -1.7836 H   0  0  0  0  0  0  0  0  0  0  0  0
    4.1579   15.6601   -2.9584 H   0  0  0  0  0  0  0  0  0  0  0  0
    7.9858   16.4474   -3.6300 H   0  0  0  0  0  0  0  0  0  0  0  0
    8.0617   15.3640   -5.0608 H   0  0  0  0  0  0  0  0  0  0  0  0
    6.9505   16.7754   -5.0608 H   0  0  0  0  0  0  0  0  0  0  0  0
    5.8469   13.0564   -3.8157 H   0  0  0  0  0  0  0  0  0  0  0  0
    5.1336   13.9699   -5.1881 H   0  0  0  0  0  0  0  0  0  0  0  0
    6.8852   13.5714   -5.1881 H   0  0  0  0  0  0  0  0  0  0  0  0
    2.6685   15.7078    0.5162 H   0  0  0  0  0  0  0  0  0  0  0  0
    0.7385   17.1562    0.6272 H   0  0  0  0  0  0  0  0  0  0  0  0
    1.1636   17.9681   -0.8948 H   0  0  0  0  0  0  0  0  0  0  0  0
   -0.8923   16.0100   -0.5750 H   0  0  0  0  0  0  0  0  0  0  0  0
   -0.2409   16.5123   -2.1329 H   0  0  0  0  0  0  0  0  0  0  0  0
    0.7415   14.7466    0.9098 H   0  0  0  0  0  0  0  0  0  0  0  0
   -0.5327   13.7047    0.1902 H   0  0  0  0  0  0  0  0  0  0  0  0
    1.1789   13.1599    0.1902 H   0  0  0  0  0  0  0  0  0  0  0  0
    0.3360   14.4822   -3.3243 H   0  0  0  0  0  0  0  0  0  0  0  0
   -1.7846   14.1805   -1.8903 H   0  0  0  0  0  0  0  0  0  0  0  0
   -1.5339   13.2128   -3.4359 H   0  0  0  0  0  0  0  0  0  0  0  0
   -2.5243   11.8930   -1.3819 H   0  0  0  0  0  0  0  0  0  0  0  0
    1.4720   11.6031   -0.8830 H   0  0  0  0  0  0  0  0  0  0  0  0
    0.8663    9.7807   -3.2916 H   0  0  0  0  0  0  0  0  0  0  0  0
    2.4959   10.1076   -2.5504 H   0  0  0  0  0  0  0  0  0  0  0  0
    1.5830    7.9102   -1.8732 H   0  0  0  0  0  0  0  0  0  0  0  0
    1.8032    9.0424   -0.4824 H   0  0  0  0  0  0  0  0  0  0  0  0
   -0.2989    7.9120   -0.2297 H   0  0  0  0  0  0  0  0  0  0  0  0
   -1.9120    8.2160   -1.9380 H   0  0  0  0  0  0  0  0  0  0  0  0
   -1.0042    9.9080    1.7357 H   0  0  0  0  0  0  0  0  0  0  0  0
    0.6572    9.6944    1.0870 H   0  0  0  0  0  0  0  0  0  0  0  0
   -0.1047   11.3211    1.0870 H   0  0  0  0  0  0  0  0  0  0  0  0
   -2.6150    9.6729    0.8423 H   0  0  0  0  0  0  0  0  0  0  0  0
   -2.9671   10.5241   -0.6999 H   0  0  0  0  0  0  0  0  0  0  0  0
   -2.6659    8.7532   -0.6999 H   0  0  0  0  0  0  0  0  0  0  0  0
    0.3940   11.2211   -4.2633 H   0  0  0  0  0  0  0  0  0  0  0  0
    0.3826   12.9530   -4.7399 H   0  0  0  0  0  0  0  0  0  0  0  0
    1.9246   12.0316   -4.7399 H   0  0  0  0  0  0  0  0  0  0  0  0
    3.2890   12.0221   -2.4631 H   0  0  0  0  0  0  0  0  0  0  0  0
    2.9669   13.4637   -3.5820 H   0  0  0  0  0  0  0  0  0  0  0  0
    3.0256   13.4528   -0.5512 H   0  0  0  0  0  0  0  0  0  0  0  0
    4.1563   14.2725   -1.6986 H   0  0  0  0  0  0  0  0  0  0  0  0
    2.7346   16.9465   -2.7475 H   0  0  0  0  0  0  0  0  0  0  0  0
    3.2083   15.3849   -3.4984 H   0  0  0  0  0  0  0  0  0  0  0  0
    1.4861   15.8957   -3.4984 H   0  0  0  0  0  0  0  0  0  0  0  0
  1  2  1  0
  2  3  1  0
  3  4  1  0
  4  5  1  0
  5  6  1  0
  6  7  1  0
  7  8  1  0
  7  9  1  0
  2 10  1  0
 10 11  1  0
 11 12  1  0
 12 13  1  0
 13 14  1  1
 13 15  1  0
 15 16  1  0
 16 17  1  0
 17 18  2  0
 18 19  1  0
 19 20  1  0
 20 21  1  0
 21 22  1  0
 22 23  1  0
 22 24  1  0
 24 25  1  0
 24 26  1  0
 19 27  1  0
 27 28  1  6
 27 29  1  0
 29 30  1  0
 30 31  1  0
 31 32  1  6
  7  5  1  0
 31 10  1  0
 31 13  1  0
 27 15  1  0
 24 18  1  0
  1 33  1  0
  1 34  1  0
  1 35  1  0
  2 36  1  1
  3 37  1  0
  3 38  1  0
  4 39  1  0
  4 40  1  0
  5 41  1  6
  8 42  1  0
  8 43  1  0
  8 44  1  0
  9 45  1  0
  9 46  1  0
  9 47  1  0
 10 48  1  1
 11 49  1  0
 11 50  1  0
 12 51  1  0
 12 52  1  0
 14 53  1  0
 14 54  1  0
 14 55  1  0
 15 56  1  6
 16 57  1  0
 16 58  1  0
 17 59  1  0
 19 60  1  1
 20 61  1  0
 20 62  1  0
 21 63  1  0
 21 64  1  0
 22 65  1  1
 23 66  1  0
 25 67  1  0
 25 68  1  0
 25 69  1  0
 26 70  1  0
 26 71  1  0
 26 72  1  0
 28 73  1  0
 28 74  1  0
 28 75  1  0
 29 76  1  0
 29 77  1  0
 30 78  1  0
 30 79  1  0
 32 80  1  0
 32 81  1  0
 32 82  1  0
M  END
>  <meeko>  (7) 
{"is_sidechain": [false], "intermolecular_energy": 2.731, "internal_energy": -0.839}

$$$$
EPH_relaxed_0001_pdb2pqr_Repair_137_r2_0001_out
     RDKit          3D

 82 86  0  0  0  0  0  0  0  0999 V2000
   -2.5130    7.5770   -3.0760 C   0  0  0  0  0  0  0  0  0  0  0  0
   -2.8420    7.8500   -1.6060 C   0  0  2  0  0  0  0  0  0  0  0  0
   -4.3580    7.7990   -1.3300 C   0  0  0  0  0  0  0  0  0  0  0  0
   -5.0750    6.6480   -2.0410 C   0  0  0  0  0  0  0  0  0  0  0  0
   -6.3030    7.1190   -2.7590 C   0  0  2  0  0  0  0  0  0  0  0  0
   -6.8490    8.3500   -2.2670 O   0  0  0  0  0  0  0  0  0  0  0  0
   -7.6750    7.1840   -2.1140 C   0  0  0  0  0  0  0  0  0  0  0  0
   -7.8900    6.7730   -0.6910 C   0  0  0  0  0  0  0  0  0  0  0  0
   -8.8820    7.1810   -2.9990 C   0  0  0  0  0  0  0  0  0  0  0  0
   -2.2810    9.2050   -1.1910 C   0  0  1  0  0  0  0  0  0  0  0  0
   -2.8240    9.6800    0.1840 C   0  0  0  0  0  0  0  0  0  0  0  0
   -1.6710   10.4510    0.8770 C   0  0  0  0  0  0  0  0  0  0  0  0
   -0.6270   10.6810   -0.2410 C   0  0  1  0  0  0  0  0  0  0  0  0
   -1.1510   11.9210   -1.0300 C   0  0  0  0  0  0  0  0  0  0  0  0
    0.8530   10.8750    0.2240 C   0  0  2  0  0  0  0  0  0  0  0  0
    1.1020   12.1090    1.1080 C   0  0  0  0  0  0  0  0  0  0  0  0
    1.4640   13.3570    0.3740 C   0  0  0  0  0  0  0  0  0  0  0  0
    1.8630   13.4210   -0.9100 C   0  0  0  0  0  0  0  0  0  0  0  0
    2.0760   12.1450   -1.7340 C   0  0  1  0  0  0  0  0  0  0  0  0
    3.4240   12.2390   -2.4960 C   0  0  0  0  0  0  0  0  0  0  0  0
    3.5300   13.5040   -3.3430 C   0  0  0  0  0  0  0  0  0  0  0  0
    3.3700   14.7530   -2.4800 C   0  0  2  0  0  0  0  0  0  0  0  0
    4.4910   14.8480   -1.5950 O   0  0  0  0  0  0  0  0  0  0  0  0
    2.0520   14.7650   -1.6570 C   0  0  0  0  0  0  0  0  0  0  0  0
    0.8460   14.9660   -2.6080 C   0  0  0  0  0  0  0  0  0  0  0  0
    2.0820   16.0070   -0.7260 C   0  0  0  0  0  0  0  0  0  0  0  0
    1.9170   10.7750   -0.9430 C   0  0  1  0  0  0  0  0  0  0  0  0
    3.2720   10.3850   -0.2770 C   0  0  0  0  0  0  0  0  0  0  0  0
    1.5780    9.6270   -1.9650 C   0  0  0  0  0  0  0  0  0  0  0  0
    0.0890    9.4060   -2.2930 C   0  0  0  0  0  0  0  0  0  0  0  0
   -0.7460    9.3160   -1.0130 C   0  0  2  0  0  0  0  0  0  0  0  0
   -0.2570    8.0630   -0.2090 C   0  0  0  0  0  0  0  0  0  0  0  0
   -1.6678    6.8757   -3.1385 H   0  0  0  0  0  0  0  0  0  0  0  0
   -3.3909    7.1384   -3.5729 H   0  0  0  0  0  0  0  0  0  0  0  0
   -2.2438    8.5207   -3.5729 H   0  0  0  0  0  0  0  0  0  0  0  0
   -2.3722    7.0547   -1.0087 H   0  0  0  0  0  0  0  0  0  0  0  0
   -4.5100    7.6862   -0.2464 H   0  0  0  0  0  0  0  0  0  0  0  0
   -4.7871    8.7341   -1.7191 H   0  0  0  0  0  0  0  0  0  0  0  0
   -4.3870    6.1958   -2.7705 H   0  0  0  0  0  0  0  0  0  0  0  0
   -5.3823    5.9141   -1.2814 H   0  0  0  0  0  0  0  0  0  0  0  0
   -5.9511    6.6752   -3.7020 H   0  0  0  0  0  0  0  0  0  0  0  0
   -7.4856    7.5460   -0.0210 H   0  0  0  0  0  0  0  0  0  0  0  0
   -8.9670    6.6518   -0.5031 H   0  0  0  0  0  0  0  0  0  0  0  0
   -7.3754    5.8191   -0.5031 H   0  0  0  0  0  0  0  0  0  0  0  0
   -9.7909    7.1787   -2.3794 H   0  0  0  0  0  0  0  0  0  0  0  0
   -8.8733    8.0792   -3.6340 H   0  0  0  0  0  0  0  0  0  0  0  0
   -8.8688    6.2829   -3.6340 H   0  0  0  0  0  0  0  0  0  0  0  0
   -2.6037    9.8095   -2.0515 H   0  0  0  0  0  0  0  0  0  0  0  0
   -3.6905   10.3423    0.0410 H   0  0  0  0  0  0  0  0  0  0  0  0
   -3.1526    8.8267    0.7955 H   0  0  0  0  0  0  0  0  0  0  0  0
   -2.0306   11.4110    1.2758 H   0  0  0  0  0  0  0  0  0  0  0  0
   -1.2528    9.8969    1.7303 H   0  0  0  0  0  0  0  0  0  0  0  0
   -1.4783   12.6954   -0.3207 H   0  0  0  0  0  0  0  0  0  0  0  0
   -0.3448   12.3205   -1.6628 H   0  0  0  0  0  0  0  0  0  0  0  0
   -1.9994   11.6213   -1.6628 H   0  0  0  0  0  0  0  0  0  0  0  0
    1.0122   10.0036    0.8762 H   0  0  0  0  0  0  0  0  0  0  0  0
    0.1847   12.3064    1.6821 H   0  0  0  0  0  0  0  0  0  0  0  0
    1.9708   11.8628    1.7361 H   0  0  0  0  0  0  0  0  0  0  0  0
    1.3993   14.3045    0.9291 H   0  0  0  0  0  0  0  0  0  0  0  0
    1.2437   12.1043   -2.4520 H   0  0  0  0  0  0  0  0  0  0  0  0
    4.2444   12.2354   -1.7632 H   0  0  0  0  0  0  0  0  0  0  0  0
    3.4846   11.3760   -3.1754 H   0  0  0  0  0  0  0  0  0  0  0  0
    4.5149   13.5282   -3.8323 H   0  0  0  0  0  0  0  0  0  0  0  0
    2.7273   13.4915   -4.0950 H   0  0  0  0  0  0  0  0  0  0  0  0
    3.3237   15.6183   -3.1575 H   0  0  0  0  0  0  0  0  0  0  0  0
    4.5170   14.0330   -1.0650 H   0  0  0  0  0  0  0  0  0  0  0  0
   -0.0676   15.1183   -2.0145 H   0  0  0  0  0  0  0  0  0  0  0  0
    1.0222   15.8472   -3.2424 H   0  0  0  0  0  0  0  0  0  0  0  0
    0.7269   14.0753   -3.2424 H   0  0  0  0  0  0  0  0  0  0  0  0
    2.0741   15.6786    0.3238 H   0  0  0  0  0  0  0  0  0  0  0  0
    2.9945   16.5895   -0.9211 H   0  0  0  0  0  0  0  0  0  0  0  0
    1.1987   16.6329   -0.9211 H   0  0  0  0  0  0  0  0  0  0  0  0
    3.1650   10.4158    0.8173 H   0  0  0  0  0  0  0  0  0  0  0  0
    3.5550    9.3689   -0.5893 H   0  0  0  0  0  0  0  0  0  0  0  0
    4.0519   11.0951   -0.5893 H   0  0  0  0  0  0  0  0  0  0  0  0
    2.0958    9.8572   -2.9078 H   0  0  0  0  0  0  0  0  0  0  0  0
    1.9053    8.6987   -1.4739 H   0  0  0  0  0  0  0  0  0  0  0  0
   -0.2743   10.2474   -2.9013 H   0  0  0  0  0  0  0  0  0  0  0  0
   -0.0121    8.4601   -2.8452 H   0  0  0  0  0  0  0  0  0  0  0  0
   -0.3360    8.2655    0.8693 H   0  0  0  0  0  0  0  0  0  0  0  0
   -0.8825    7.1954   -0.4660 H   0  0  0  0  0  0  0  0  0  0  0  0
    0.7908    7.8485   -0.4660 H   0  0  0  0  0  0  0  0  0  0  0  0
  1  2  1  0
  2  3  1  0
  3  4  1  0
  4  5  1  0
  5  6  1  0
  6  7  1  0
  7  8  1  0
  7  9  1  0
  2 10  1  0
 10 11  1  0
 11 12  1  0
 12 13  1  0
 13 14  1  6
 13 15  1  0
 15 16  1  0
 16 17  1  0
 17 18  2  0
 18 19  1  0
 19 20  1  0
 20 21  1  0
 21 22  1  0
 22 23  1  0
 22 24  1  0
 24 25  1  0
 24 26  1  0
 19 27  1  0
 27 28  1  1
 27 29  1  0
 29 30  1  0
 30 31  1  0
 31 32  1  1
  7  5  1  0
 31 10  1  0
 31 13  1  0
 27 15  1  0
 24 18  1  0
  1 33  1  0
  1 34  1  0
  1 35  1  0
  2 36  1  1
  3 37  1  0
  3 38  1  0
  4 39  1  0
  4 40  1  0
  5 41  1  6
  8 42  1  0
  8 43  1  0
  8 44  1  0
  9 45  1  0
  9 46  1  0
  9 47  1  0
 10 48  1  6
 11 49  1  0
 11 50  1  0
 12 51  1  0
 12 52  1  0
 14 53  1  0
 14 54  1  0
 14 55  1  0
 15 56  1  1
 16 57  1  0
 16 58  1  0
 17 59  1  0
 19 60  1  6
 20 61  1  0
 20 62  1  0
 21 63  1  0
 21 64  1  0
 22 65  1  6
 23 66  1  0
 25 67  1  0
 25 68  1  0
 25 69  1  0
 26 70  1  0
 26 71  1  0
 26 72  1  0
 28 73  1  0
 28 74  1  0
 28 75  1  0
 29 76  1  0
 29 77  1  0
 30 78  1  0
 30 79  1  0
 32 80  1  0
 32 81  1  0
 32 82  1  0
M  END
>  <meeko>  (8) 
{"is_sidechain": [false], "intermolecular_energy": 2.731, "internal_energy": -0.839}

$$$$
EPH_relaxed_0001_pdb2pqr_Repair_137_r2_0001_out
     RDKit          3D

 82 86  0  0  0  0  0  0  0  0999 V2000
    0.6130   17.8010   -0.2020 C   0  0  0  0  0  0  0  0  0  0  0  0
    1.4870   17.0770   -1.2300 C   0  0  2  0  0  0  0  0  0  0  0  0
    1.8560   17.9830   -2.4210 C   0  0  0  0  0  0  0  0  0  0  0  0
    3.3590   18.2400   -2.5570 C   0  0  0  0  0  0  0  0  0  0  0  0
    4.1560   16.9850   -2.3610 C   0  0  2  0  0  0  0  0  0  0  0  0
    5.3120   17.1350   -1.5260 O   0  0  0  0  0  0  0  0  0  0  0  0
    5.5610   16.7940   -2.9000 C   0  0  0  0  0  0  0  0  0  0  0  0
    6.2510   17.8690   -3.6780 C   0  0  0  0  0  0  0  0  0  0  0  0
    6.0700   15.3990   -3.0910 C   0  0  0  0  0  0  0  0  0  0  0  0
    0.7740   15.8250   -1.7280 C   0  0  1  0  0  0  0  0  0  0  0  0
    0.2960   15.9560   -3.1990 C   0  0  0  0  0  0  0  0  0  0  0  0
    0.4350   14.5510   -3.8410 C   0  0  0  0  0  0  0  0  0  0  0  0
    0.6680   13.5980   -2.6460 C   0  0  1  0  0  0  0  0  0  0  0  0
   -0.7560   13.3290   -2.0640 C   0  0  0  0  0  0  0  0  0  0  0  0
    1.4230   12.2650   -2.9610 C   0  0  2  0  0  0  0  0  0  0  0  0
    0.7040   11.3250   -3.9440 C   0  0  0  0  0  0  0  0  0  0  0  0
   -0.2140   10.3280   -3.3180 C   0  0  0  0  0  0  0  0  0  0  0  0
   -0.2400   10.0010   -2.0130 C   0  0  0  0  0  0  0  0  0  0  0  0
    0.7850   10.5870   -1.0330 C   0  0  1  0  0  0  0  0  0  0  0  0
    1.3550    9.4530   -0.1400 C   0  0  0  0  0  0  0  0  0  0  0  0
    0.2600    8.6590    0.5660 C   0  0  0  0  0  0  0  0  0  0  0  0
   -0.7060    8.0440   -0.4430 C   0  0  2  0  0  0  0  0  0  0  0  0
   -0.0090    7.0520   -1.2020 O   0  0  0  0  0  0  0  0  0  0  0  0
   -1.3360    9.0910   -1.4050 C   0  0  0  0  0  0  0  0  0  0  0  0
   -2.3310    9.9840   -0.6230 C   0  0  0  0  0  0  0  0  0  0  0  0
   -2.1770    8.3240   -2.4600 C   0  0  0  0  0  0  0  0  0  0  0  0
    1.9250   11.4860   -1.6790 C   0  0  1  0  0  0  0  0  0  0  0  0
    3.1140   10.5880   -2.1410 C   0  0  0  0  0  0  0  0  0  0  0  0
    2.5020   12.4540   -0.5780 C   0  0  0  0  0  0  0  0  0  0  0  0
    1.7850   13.8050   -0.3970 C   0  0  0  0  0  0  0  0  0  0  0  0
    1.5830   14.5040   -1.7440 C   0  0  2  0  0  0  0  0  0  0  0  0
    2.9990   14.8070   -2.3430 C   0  0  0  0  0  0  0  0  0  0  0  0
    0.9399   17.5302    0.8128 H   0  0  0  0  0  0  0  0  0  0  0  0
    0.7086   18.8881   -0.3402 H   0  0  0  0  0  0  0  0  0  0  0  0
   -0.4373   17.5048   -0.3402 H   0  0  0  0  0  0  0  0  0  0  0  0
    2.4245   16.7962   -0.7277 H   0  0  0  0  0  0  0  0  0  0  0  0
    1.5008   17.5035   -3.3451 H   0  0  0  0  0  0  0  0  0  0  0  0
    1.3783   18.9578   -2.2432 H   0  0  0  0  0  0  0  0  0  0  0  0
    3.5631   18.6387   -3.5617 H   0  0  0  0  0  0  0  0  0  0  0  0
    3.6556   18.9596   -1.7797 H   0  0  0  0  0  0  0  0  0  0  0  0
    3.2480   16.3683   -2.4338 H   0  0  0  0  0  0  0  0  0  0  0  0
    6.7116   18.5865   -2.9830 H   0  0  0  0  0  0  0  0  0  0  0  0
    7.0303   17.4204   -4.3116 H   0  0  0  0  0  0  0  0  0  0  0  0
    5.5186   18.3907   -4.3116 H   0  0  0  0  0  0  0  0  0  0  0  0
    6.2400   14.9331   -2.1092 H   0  0  0  0  0  0  0  0  0  0  0  0
    5.3282   14.8116   -3.6521 H   0  0  0  0  0  0  0  0  0  0  0  0
    7.0157   15.4274   -3.6521 H   0  0  0  0  0  0  0  0  0  0  0  0
   -0.0319   15.7624   -0.9820 H   0  0  0  0  0  0  0  0  0  0  0  0
   -0.7536   16.2839   -3.2285 H   0  0  0  0  0  0  0  0  0  0  0  0
    0.8947   16.7005   -3.7442 H   0  0  0  0  0  0  0  0  0  0  0  0
   -0.4833   14.2785   -4.3818 H   0  0  0  0  0  0  0  0  0  0  0  0
    1.2526   14.5069   -4.5756 H   0  0  0  0  0  0  0  0  0  0  0  0
   -0.7106   13.3376   -0.9650 H   0  0  0  0  0  0  0  0  0  0  0  0
   -1.4469   14.1125   -2.4085 H   0  0  0  0  0  0  0  0  0  0  0  0
   -1.1135   12.3474   -2.4085 H   0  0  0  0  0  0  0  0  0  0  0  0
    2.3197   12.6209   -3.4894 H   0  0  0  0  0  0  0  0  0  0  0  0
    0.1131   11.9438   -4.6353 H   0  0  0  0  0  0  0  0  0  0  0  0
    1.4939   10.7417   -4.4398 H   0  0  0  0  0  0  0  0  0  0  0  0
   -0.9296    9.8176   -3.9794 H   0  0  0  0  0  0  0  0  0  0  0  0
    0.2346   11.3094   -0.4124 H   0  0  0  0  0  0  0  0  0  0  0  0
    1.9377    8.7660   -0.7713 H   0  0  0  0  0  0  0  0  0  0  0  0
    1.9812    9.9201    0.6343 H   0  0  0  0  0  0  0  0  0  0  0  0
    0.7228    7.8551    1.1572 H   0  0  0  0  0  0  0  0  0  0  0  0
   -0.3029    9.3421    1.2190 H   0  0  0  0  0  0  0  0  0  0  0  0
   -1.5370    7.5993    0.1242 H   0  0  0  0  0  0  0  0  0  0  0  0
   -0.4350    6.1950   -1.0280 H   0  0  0  0  0  0  0  0  0  0  0  0
   -2.1769    9.8457    0.4573 H   0  0  0  0  0  0  0  0  0  0  0  0
   -2.1615   11.0387   -0.8855 H   0  0  0  0  0  0  0  0  0  0  0  0
   -3.3613    9.7019   -0.8855 H   0  0  0  0  0  0  0  0  0  0  0  0
   -2.8966    7.6677   -1.9486 H   0  0  0  0  0  0  0  0  0  0  0  0
   -2.7205    9.0439   -3.0896 H   0  0  0  0  0  0  0  0  0  0  0  0
   -1.5100    7.7167   -3.0896 H   0  0  0  0  0  0  0  0  0  0  0  0
    3.6386   10.1918   -1.2590 H   0  0  0  0  0  0  0  0  0  0  0  0
    2.7296    9.7528   -2.7449 H   0  0  0  0  0  0  0  0  0  0  0  0
    3.8122   11.1862   -2.7449 H   0  0  0  0  0  0  0  0  0  0  0  0
    2.4619   11.9242    0.3852 H   0  0  0  0  0  0  0  0  0  0  0  0
    3.5153   12.7094   -0.9215 H   0  0  0  0  0  0  0  0  0  0  0  0
    0.8038   13.6318    0.0691 H   0  0  0  0  0  0  0  0  0  0  0  0
    2.4071   14.4489    0.2421 H   0  0  0  0  0  0  0  0  0  0  0  0
    3.7180   14.9608   -1.5248 H   0  0  0  0  0  0  0  0  0  0  0  0
    3.3244   13.9582   -2.9623 H   0  0  0  0  0  0  0  0  0  0  0  0
    2.9486   15.7147   -2.9623 H   0  0  0  0  0  0  0  0  0  0  0  0
  1  2  1  0
  2  3  1  0
  3  4  1  0
  4  5  1  0
  5  6  1  0
  6  7  1  0
  7  8  1  0
  7  9  1  0
  2 10  1  0
 10 11  1  0
 11 12  1  0
 12 13  1  0
 13 14  1  1
 13 15  1  0
 15 16  1  0
 16 17  1  0
 17 18  2  0
 18 19  1  0
 19 20  1  0
 20 21  1  0
 21 22  1  0
 22 23  1  0
 22 24  1  0
 24 25  1  0
 24 26  1  0
 19 27  1  0
 27 28  1  6
 27 29  1  0
 29 30  1  0
 30 31  1  0
 31 32  1  6
  7  5  1  0
 31 10  1  0
 31 13  1  0
 27 15  1  0
 24 18  1  0
  1 33  1  0
  1 34  1  0
  1 35  1  0
  2 36  1  1
  3 37  1  0
  3 38  1  0
  4 39  1  0
  4 40  1  0
  5 41  1  1
  8 42  1  0
  8 43  1  0
  8 44  1  0
  9 45  1  0
  9 46  1  0
  9 47  1  0
 10 48  1  1
 11 49  1  0
 11 50  1  0
 12 51  1  0
 12 52  1  0
 14 53  1  0
 14 54  1  0
 14 55  1  0
 15 56  1  6
 16 57  1  0
 16 58  1  0
 17 59  1  0
 19 60  1  1
 20 61  1  0
 20 62  1  0
 21 63  1  0
 21 64  1  0
 22 65  1  1
 23 66  1  0
 25 67  1  0
 25 68  1  0
 25 69  1  0
 26 70  1  0
 26 71  1  0
 26 72  1  0
 28 73  1  0
 28 74  1  0
 28 75  1  0
 29 76  1  0
 29 77  1  0
 30 78  1  0
 30 79  1  0
 32 80  1  0
 32 81  1  0
 32 82  1  0
M  END
>  <meeko>  (9) 
{"is_sidechain": [false], "intermolecular_energy": 2.731, "internal_energy": -0.839}

$$$$
EPH_relaxed_0001_pdb2pqr_Repair_137_r2_0001_out
     RDKit          3D

 82 86  0  0  0  0  0  0  0  0999 V2000
    0.7290   18.4020   -2.6650 C   0  0  0  0  0  0  0  0  0  0  0  0
    1.4230   17.6480   -1.5280 C   0  0  2  0  0  0  0  0  0  0  0  0
    2.7880   18.2690   -1.1680 C   0  0  0  0  0  0  0  0  0  0  0  0
    2.7420   19.1900    0.0550 C   0  0  0  0  0  0  0  0  0  0  0  0
    4.0440   19.1910    0.7970 C   0  0  2  0  0  0  0  0  0  0  0  0
    4.1080   18.2740    1.8960 O   0  0  0  0  0  0  0  0  0  0  0  0
    4.1900   19.6690    2.2300 C   0  0  0  0  0  0  0  0  0  0  0  0
    3.0160   20.1800    3.0050 C   0  0  0  0  0  0  0  0  0  0  0  0
    5.5430   20.0960    2.7070 C   0  0  0  0  0  0  0  0  0  0  0  0
    1.6020   16.1830   -1.9080 C   0  0  1  0  0  0  0  0  0  0  0  0
    2.9920   15.8940   -2.5350 C   0  0  0  0  0  0  0  0  0  0  0  0
    3.4040   14.4730   -2.0710 C   0  0  0  0  0  0  0  0  0  0  0  0
    2.1120   13.8660   -1.4760 C   0  0  1  0  0  0  0  0  0  0  0  0
    1.2990   13.3640   -2.7100 C   0  0  0  0  0  0  0  0  0  0  0  0
    2.3040   12.7360   -0.4130 C   0  0  2  0  0  0  0  0  0  0  0  0
    3.0070   11.4680   -0.9290 C   0  0  0  0  0  0  0  0  0  0  0  0
    2.1010   10.4140   -1.4740 C   0  0  0  0  0  0  0  0  0  0  0  0
    0.7690   10.3560   -1.2890 C   0  0  0  0  0  0  0  0  0  0  0  0
    0.0540   11.3660   -0.3820 C   0  0  1  0  0  0  0  0  0  0  0  0
   -0.9260   10.6160    0.5580 C   0  0  0  0  0  0  0  0  0  0  0  0
   -1.9010    9.7250   -0.2050 C   0  0  0  0  0  0  0  0  0  0  0  0
   -1.1540    8.6960   -1.0500 C   0  0  2  0  0  0  0  0  0  0  0  0
   -0.4800    7.7850   -0.1770 O   0  0  0  0  0  0  0  0  0  0  0  0
   -0.1300    9.3350   -2.0300 C   0  0  0  0  0  0  0  0  0  0  0  0
   -0.8850   10.0810   -3.1580 C   0  0  0  0  0  0  0  0  0  0  0  0
    0.6540    8.1860   -2.7180 C   0  0  0  0  0  0  0  0  0  0  0  0
    0.9940   12.3810    0.4010 C   0  0  1  0  0  0  0  0  0  0  0  0
    1.4630   11.7430    1.7440 C   0  0  0  0  0  0  0  0  0  0  0  0
    0.1620   13.6620    0.7840 C   0  0  0  0  0  0  0  0  0  0  0  0
    0.1080   14.7930   -0.2610 C   0  0  0  0  0  0  0  0  0  0  0  0
    1.5120   15.1370   -0.7700 C   0  0  2  0  0  0  0  0  0  0  0  0
    2.3460   15.6660    0.4460 C   0  0  0  0  0  0  0  0  0  0  0  0
    0.0410   19.1494   -2.2430 H   0  0  0  0  0  0  0  0  0  0  0  0
    1.4844   18.9075   -3.2845 H   0  0  0  0  0  0  0  0  0  0  0  0
    0.1628   17.6910   -3.2845 H   0  0  0  0  0  0  0  0  0  0  0  0
    0.7797   17.7253   -0.6391 H   0  0  0  0  0  0  0  0  0  0  0  0
    3.4971   17.4536   -0.9622 H   0  0  0  0  0  0  0  0  0  0  0  0
    3.0960   18.8869   -2.0244 H   0  0  0  0  0  0  0  0  0  0  0  0
    2.5209   20.2147   -0.2784 H   0  0  0  0  0  0  0  0  0  0  0  0
    1.9603   18.8193    0.7344 H   0  0  0  0  0  0  0  0  0  0  0  0
    4.5946   19.4374   -0.1229 H   0  0  0  0  0  0  0  0  0  0  0  0
    3.2208   20.0909    4.0821 H   0  0  0  0  0  0  0  0  0  0  0  0
    2.8406   21.2359    2.7513 H   0  0  0  0  0  0  0  0  0  0  0  0
    2.1237   19.5888    2.7513 H   0  0  0  0  0  0  0  0  0  0  0  0
    5.5593   20.1011    3.8069 H   0  0  0  0  0  0  0  0  0  0  0  0
    6.3023   19.3938    2.3323 H   0  0  0  0  0  0  0  0  0  0  0  0
    5.7617   21.1068    2.3323 H   0  0  0  0  0  0  0  0  0  0  0  0
    0.7505   16.0654   -2.5943 H   0  0  0  0  0  0  0  0  0  0  0  0
    2.9277   15.9306   -3.6325 H   0  0  0  0  0  0  0  0  0  0  0  0
    3.7322   16.6435   -2.2183 H   0  0  0  0  0  0  0  0  0  0  0  0
    3.7578   13.8738   -2.9229 H   0  0  0  0  0  0  0  0  0  0  0  0
    4.2280   14.4949   -1.3426 H   0  0  0  0  0  0  0  0  0  0  0  0
    0.4103   12.8152   -2.3650 H   0  0  0  0  0  0  0  0  0  0  0  0
    0.9850   14.2257   -3.3174 H   0  0  0  0  0  0  0  0  0  0  0  0
    1.9287   12.6973   -3.3174 H   0  0  0  0  0  0  0  0  0  0  0  0
    3.0048   13.1979    0.2980 H   0  0  0  0  0  0  0  0  0  0  0  0
    3.7016   11.7658   -1.7283 H   0  0  0  0  0  0  0  0  0  0  0  0
    3.5054   11.0199   -0.0568 H   0  0  0  0  0  0  0  0  0  0  0  0
    2.5608    9.6176   -2.0777 H   0  0  0  0  0  0  0  0  0  0  0  0
   -0.5089   12.0315   -1.0530 H   0  0  0  0  0  0  0  0  0  0  0  0
   -0.3424    9.9897    1.2488 H   0  0  0  0  0  0  0  0  0  0  0  0
   -1.5159   11.3717    1.0973 H   0  0  0  0  0  0  0  0  0  0  0  0
   -2.5467    9.1997    0.5141 H   0  0  0  0  0  0  0  0  0  0  0  0
   -2.5040   10.3569   -0.8737 H   0  0  0  0  0  0  0  0  0  0  0  0
   -1.8985    8.1751   -1.6700 H   0  0  0  0  0  0  0  0  0  0  0  0
   -1.1590    7.2810    0.3040 H   0  0  0  0  0  0  0  0  0  0  0  0
   -1.6010   10.7885   -2.7143 H   0  0  0  0  0  0  0  0  0  0  0  0
   -0.1638   10.6311   -3.7804 H   0  0  0  0  0  0  0  0  0  0  0  0
   -1.4264    9.3533   -3.7804 H   0  0  0  0  0  0  0  0  0  0  0  0
    1.0984    7.5347   -1.9510 H   0  0  0  0  0  0  0  0  0  0  0  0
   -0.0322    7.5982   -3.3454 H   0  0  0  0  0  0  0  0  0  0  0  0
    1.4516    8.6106   -3.3454 H   0  0  0  0  0  0  0  0  0  0  0  0
    1.0442   12.3128    2.5866 H   0  0  0  0  0  0  0  0  0  0  0  0
    1.1142   10.7011    1.7965 H   0  0  0  0  0  0  0  0  0  0  0  0
    2.5615   11.7650    1.7965 H   0  0  0  0  0  0  0  0  0  0  0  0
   -0.8716   13.3410    0.9808 H   0  0  0  0  0  0  0  0  0  0  0  0
    0.6829   14.0952    1.6506 H   0  0  0  0  0  0  0  0  0  0  0  0
   -0.5131   14.4697   -1.1093 H   0  0  0  0  0  0  0  0  0  0  0  0
   -0.3224   15.6877    0.2125 H   0  0  0  0  0  0  0  0  0  0  0  0
    1.8614   15.3586    1.3844 H   0  0  0  0  0  0  0  0  0  0  0  0
    3.3622   15.2470    0.4037 H   0  0  0  0  0  0  0  0  0  0  0  0
    2.4000   16.7639    0.4037 H   0  0  0  0  0  0  0  0  0  0  0  0
  1  2  1  0
  2  3  1  0
  3  4  1  0
  4  5  1  0
  5  6  1  0
  6  7  1  0
  7  8  1  0
  7  9  1  0
  2 10  1  0
 10 11  1  0
 11 12  1  0
 12 13  1  0
 13 14  1  6
 13 15  1  0
 15 16  1  0
 16 17  1  0
 17 18  2  0
 18 19  1  0
 19 20  1  0
 20 21  1  0
 21 22  1  0
 22 23  1  0
 22 24  1  0
 24 25  1  0
 24 26  1  0
 19 27  1  0
 27 28  1  1
 27 29  1  0
 29 30  1  0
 30 31  1  0
 31 32  1  1
  7  5  1  0
 31 10  1  0
 31 13  1  0
 27 15  1  0
 24 18  1  0
  1 33  1  0
  1 34  1  0
  1 35  1  0
  2 36  1  1
  3 37  1  0
  3 38  1  0
  4 39  1  0
  4 40  1  0
  5 41  1  6
  8 42  1  0
  8 43  1  0
  8 44  1  0
  9 45  1  0
  9 46  1  0
  9 47  1  0
 10 48  1  6
 11 49  1  0
 11 50  1  0
 12 51  1  0
 12 52  1  0
 14 53  1  0
 14 54  1  0
 14 55  1  0
 15 56  1  1
 16 57  1  0
 16 58  1  0
 17 59  1  0
 19 60  1  6
 20 61  1  0
 20 62  1  0
 21 63  1  0
 21 64  1  0
 22 65  1  6
 23 66  1  0
 25 67  1  0
 25 68  1  0
 25 69  1  0
 26 70  1  0
 26 71  1  0
 26 72  1  0
 28 73  1  0
 28 74  1  0
 28 75  1  0
 29 76  1  0
 29 77  1  0
 30 78  1  0
 30 79  1  0
 32 80  1  0
 32 81  1  0
 32 82  1  0
M  END
>  <meeko>  (10) 
{"is_sidechain": [false], "intermolecular_energy": 2.731, "internal_energy": -0.839}

$$$$
EPH_relaxed_0001_pdb2pqr_Repair_137_r2_0001_out
     RDKit          3D

 82 86  0  0  0  0  0  0  0  0999 V2000
    0.9100    8.7150   -0.2640 C   0  0  0  0  0  0  0  0  0  0  0  0
   -0.1460    9.4660   -1.0790 C   0  0  2  0  0  0  0  0  0  0  0  0
   -0.8440    8.5530   -2.1080 C   0  0  0  0  0  0  0  0  0  0  0  0
   -2.3460    8.3850   -1.8630 C   0  0  0  0  0  0  0  0  0  0  0  0
   -2.8990    7.2020   -2.5980 C   0  0  2  0  0  0  0  0  0  0  0  0
   -3.9130    7.5170   -3.5610 O   0  0  0  0  0  0  0  0  0  0  0  0
   -4.3270    6.7140   -2.4440 C   0  0  0  0  0  0  0  0  0  0  0  0
   -5.2900    7.3980   -1.5260 C   0  0  0  0  0  0  0  0  0  0  0  0
   -4.6400    5.2950   -2.8040 C   0  0  0  0  0  0  0  0  0  0  0  0
    0.4930   10.6550   -1.7870 C   0  0  1  0  0  0  0  0  0  0  0  0
    0.1480   10.7060   -3.3000 C   0  0  0  0  0  0  0  0  0  0  0  0
    0.0330   12.2030   -3.6820 C   0  0  0  0  0  0  0  0  0  0  0  0
    0.6350   12.9620   -2.4760 C   0  0  1  0  0  0  0  0  0  0  0  0
    2.1790   12.8960   -2.6910 C   0  0  0  0  0  0  0  0  0  0  0  0
    0.1430   14.4310   -2.2680 C   0  0  2  0  0  0  0  0  0  0  0  0
    0.4800   15.4000   -3.4150 C   0  0  0  0  0  0  0  0  0  0  0  0
    1.7830   16.1160   -3.2820 C   0  0  0  0  0  0  0  0  0  0  0  0
    2.5160   16.2050   -2.1560 C   0  0  0  0  0  0  0  0  0  0  0  0
    1.9980   15.6300   -0.8320 C   0  0  1  0  0  0  0  0  0  0  0  0
    2.2070   16.6690    0.3010 C   0  0  0  0  0  0  0  0  0  0  0  0
    3.6540   17.1450    0.3980 C   0  0  0  0  0  0  0  0  0  0  0  0
    4.1140   17.7630   -0.9200 C   0  0  2  0  0  0  0  0  0  0  0  0
    3.3780   18.9690   -1.1450 O   0  0  0  0  0  0  0  0  0  0  0  0
    3.9410   16.8110   -2.1370 C   0  0  0  0  0  0  0  0  0  0  0  0
    4.9610   15.6500   -2.0390 C   0  0  0  0  0  0  0  0  0  0  0  0
    4.3080   17.6050   -3.4200 C   0  0  0  0  0  0  0  0  0  0  0  0
    0.5190   15.0480   -0.8600 C   0  0  1  0  0  0  0  0  0  0  0  0
   -0.5070   16.1890   -0.5850 C   0  0  0  0  0  0  0  0  0  0  0  0
    0.3530   14.0090    0.3120 C   0  0  0  0  0  0  0  0  0  0  0  0
    0.7430   12.5500    0.0080 C   0  0  0  0  0  0  0  0  0  0  0  0
    0.0990   12.0710   -1.2960 C   0  0  2  0  0  0  0  0  0  0  0  0
   -1.4550   12.1050   -1.1030 C   0  0  0  0  0  0  0  0  0  0  0  0
    0.7130    8.8551    0.8091 H   0  0  0  0  0  0  0  0  0  0  0  0
    0.8674    7.6432   -0.5077 H   0  0  0  0  0  0  0  0  0  0  0  0
    1.9084    9.1070   -0.5077 H   0  0  0  0  0  0  0  0  0  0  0  0
   -0.9152    9.8203   -0.3770 H   0  0  0  0  0  0  0  0  0  0  0  0
   -0.7018    8.9859   -3.1092 H   0  0  0  0  0  0  0  0  0  0  0  0
   -0.3894    7.5558   -2.0134 H   0  0  0  0  0  0  0  0  0  0  0  0
   -2.5181    8.2473   -0.7853 H   0  0  0  0  0  0  0  0  0  0  0  0
   -2.8564    9.2869   -2.2319 H   0  0  0  0  0  0  0  0  0  0  0  0
   -1.9314    6.6822   -2.5377 H   0  0  0  0  0  0  0  0  0  0  0  0
   -5.0072    7.1971   -0.4821 H   0  0  0  0  0  0  0  0  0  0  0  0
   -5.2654    8.4821   -1.7104 H   0  0  0  0  0  0  0  0  0  0  0  0
   -6.3055    7.0177   -1.7104 H   0  0  0  0  0  0  0  0  0  0  0  0
   -4.7704    4.7039   -1.8855 H   0  0  0  0  0  0  0  0  0  0  0  0
   -5.5669    5.2627   -3.3955 H   0  0  0  0  0  0  0  0  0  0  0  0
   -3.8127    4.8758   -3.3955 H   0  0  0  0  0  0  0  0  0  0  0  0
    1.5510   10.4583   -1.5589 H   0  0  0  0  0  0  0  0  0  0  0  0
    0.9449   10.2255   -3.8866 H   0  0  0  0  0  0  0  0  0  0  0  0
   -0.7905   10.1718   -3.5093 H   0  0  0  0  0  0  0  0  0  0  0  0
    0.6039   12.4148   -4.5981 H   0  0  0  0  0  0  0  0  0  0  0  0
   -1.0056   12.5023   -3.8864 H   0  0  0  0  0  0  0  0  0  0  0  0
    2.6846   12.8744   -1.7143 H   0  0  0  0  0  0  0  0  0  0  0  0
    2.4321   11.9862   -3.2551 H   0  0  0  0  0  0  0  0  0  0  0  0
    2.5088   13.7809   -3.2551 H   0  0  0  0  0  0  0  0  0  0  0  0
   -0.9511   14.3179   -2.2840 H   0  0  0  0  0  0  0  0  0  0  0  0
    0.5029   14.8234   -4.3515 H   0  0  0  0  0  0  0  0  0  0  0  0
   -0.2980   16.1774   -3.3955 H   0  0  0  0  0  0  0  0  0  0  0  0
    2.1780   16.6132   -4.1802 H   0  0  0  0  0  0  0  0  0  0  0  0
    2.6032   14.7333   -0.6329 H   0  0  0  0  0  0  0  0  0  0  0  0
    1.5620   17.5384    0.1057 H   0  0  0  0  0  0  0  0  0  0  0  0
    1.9511   16.1812    1.2531 H   0  0  0  0  0  0  0  0  0  0  0  0
    3.7326   17.8983    1.1957 H   0  0  0  0  0  0  0  0  0  0  0  0
    4.2944   16.2792    0.6225 H   0  0  0  0  0  0  0  0  0  0  0  0
    5.1915   17.9654   -0.8309 H   0  0  0  0  0  0  0  0  0  0  0  0
    4.0070   19.7100   -1.1030 H   0  0  0  0  0  0  0  0  0  0  0  0
    5.1592   15.4244   -0.9808 H   0  0  0  0  0  0  0  0  0  0  0  0
    4.5494   14.7576   -2.5333 H   0  0  0  0  0  0  0  0  0  0  0  0
    5.8989   15.9432   -2.5333 H   0  0  0  0  0  0  0  0  0  0  0  0
    4.7542   18.5703   -3.1387 H   0  0  0  0  0  0  0  0  0  0  0  0
    5.0302   17.0267   -4.0151 H   0  0  0  0  0  0  0  0  0  0  0  0
    3.3996   17.7804   -4.0151 H   0  0  0  0  0  0  0  0  0  0  0  0
   -0.6260   16.3213    0.5005 H   0  0  0  0  0  0  0  0  0  0  0  0
   -0.1416   17.1259   -1.0307 H   0  0  0  0  0  0  0  0  0  0  0  0
   -1.4773   15.9249   -1.0307 H   0  0  0  0  0  0  0  0  0  0  0  0
    0.9759   14.3519    1.1513 H   0  0  0  0  0  0  0  0  0  0  0  0
   -0.7267   13.9806    0.5204 H   0  0  0  0  0  0  0  0  0  0  0  0
    1.8370   12.4818   -0.0846 H   0  0  0  0  0  0  0  0  0  0  0  0
    0.3858   11.9128    0.8304 H   0  0  0  0  0  0  0  0  0  0  0  0
   -1.6910   12.1102   -0.0286 H   0  0  0  0  0  0  0  0  0  0  0  0
   -1.8630   13.0123   -1.5724 H   0  0  0  0  0  0  0  0  0  0  0  0
   -1.9023   11.2164   -1.5724 H   0  0  0  0  0  0  0  0  0  0  0  0
  1  2  1  0
  2  3  1  0
  3  4  1  0
  4  5  1  0
  5  6  1  0
  6  7  1  0
  7  8  1  0
  7  9  1  0
  2 10  1  0
 10 11  1  0
 11 12  1  0
 12 13  1  0
 13 14  1  6
 13 15  1  0
 15 16  1  0
 16 17  1  0
 17 18  2  0
 18 19  1  0
 19 20  1  0
 20 21  1  0
 21 22  1  0
 22 23  1  0
 22 24  1  0
 24 25  1  0
 24 26  1  0
 19 27  1  0
 27 28  1  1
 27 29  1  0
 29 30  1  0
 30 31  1  0
 31 32  1  1
  7  5  1  0
 31 10  1  0
 31 13  1  0
 27 15  1  0
 24 18  1  0
  1 33  1  0
  1 34  1  0
  1 35  1  0
  2 36  1  1
  3 37  1  0
  3 38  1  0
  4 39  1  0
  4 40  1  0
  5 41  1  6
  8 42  1  0
  8 43  1  0
  8 44  1  0
  9 45  1  0
  9 46  1  0
  9 47  1  0
 10 48  1  6
 11 49  1  0
 11 50  1  0
 12 51  1  0
 12 52  1  0
 14 53  1  0
 14 54  1  0
 14 55  1  0
 15 56  1  1
 16 57  1  0
 16 58  1  0
 17 59  1  0
 19 60  1  1
 20 61  1  0
 20 62  1  0
 21 63  1  0
 21 64  1  0
 22 65  1  1
 23 66  1  0
 25 67  1  0
 25 68  1  0
 25 69  1  0
 26 70  1  0
 26 71  1  0
 26 72  1  0
 28 73  1  0
 28 74  1  0
 28 75  1  0
 29 76  1  0
 29 77  1  0
 30 78  1  0
 30 79  1  0
 32 80  1  0
 32 81  1  0
 32 82  1  0
M  END
>  <meeko>  (11) 
{"is_sidechain": [false], "intermolecular_energy": 2.731, "internal_energy": -0.839}

$$$$
EPH_relaxed_0001_pdb2pqr_Repair_137_r2_0001_out
     RDKit          3D

 82 86  0  0  0  0  0  0  0  0999 V2000
    4.6710   17.5060   -3.1760 C   0  0  0  0  0  0  0  0  0  0  0  0
    3.2160   17.4640   -2.7020 C   0  0  2  0  0  0  0  0  0  0  0  0
    2.8280   18.7240   -1.9030 C   0  0  0  0  0  0  0  0  0  0  0  0
    1.3700   19.1500   -2.0950 C   0  0  0  0  0  0  0  0  0  0  0  0
    0.8430   19.8790   -0.8960 C   0  0  2  0  0  0  0  0  0  0  0  0
    1.2640   19.3400    0.3650 O   0  0  0  0  0  0  0  0  0  0  0  0
   -0.1430   19.2720    0.0850 C   0  0  0  0  0  0  0  0  0  0  0  0
   -0.6620   17.8790   -0.0910 C   0  0  0  0  0  0  0  0  0  0  0  0
   -0.9710   20.1910    0.9280 C   0  0  0  0  0  0  0  0  0  0  0  0
    2.9810   16.2180   -1.8570 C   0  0  1  0  0  0  0  0  0  0  0  0
    3.0210   16.5140   -0.3340 C   0  0  0  0  0  0  0  0  0  0  0  0
    1.9830   15.5740    0.3320 C   0  0  0  0  0  0  0  0  0  0  0  0
    1.6240   14.5480   -0.7680 C   0  0  1  0  0  0  0  0  0  0  0  0
    2.7810   13.5010   -0.7340 C   0  0  0  0  0  0  0  0  0  0  0  0
    0.2230   13.8640   -0.6450 C   0  0  2  0  0  0  0  0  0  0  0  0
    0.0220   13.0110    0.6200 C   0  0  0  0  0  0  0  0  0  0  0  0
    0.4010   11.5730    0.4870 C   0  0  0  0  0  0  0  0  0  0  0  0
    0.6120   10.9250   -0.6730 C   0  0  0  0  0  0  0  0  0  0  0  0
    0.3780   11.6220   -2.0200 C   0  0  1  0  0  0  0  0  0  0  0  0
   -0.4300   10.6840   -2.9550 C   0  0  0  0  0  0  0  0  0  0  0  0
    0.2200    9.3130   -3.1130 C   0  0  0  0  0  0  0  0  0  0  0  0
    0.3820    8.6270   -1.7590 C   0  0  2  0  0  0  0  0  0  0  0  0
   -0.9150    8.3250   -1.2370 O   0  0  0  0  0  0  0  0  0  0  0  0
    1.1730    9.4820   -0.7300 C   0  0  0  0  0  0  0  0  0  0  0  0
    2.6620    9.5560   -1.1500 C   0  0  0  0  0  0  0  0  0  0  0  0
    1.1430    8.7390    0.6330 C   0  0  0  0  0  0  0  0  0  0  0  0
   -0.2350   13.0860   -1.9450 C   0  0  1  0  0  0  0  0  0  0  0  0
   -1.7910   13.0090   -1.8920 C   0  0  0  0  0  0  0  0  0  0  0  0
    0.1270   13.8630   -3.2660 C   0  0  0  0  0  0  0  0  0  0  0  0
    1.4700   14.6180   -3.2820 C   0  0  0  0  0  0  0  0  0  0  0  0
    1.6270   15.4860   -2.0300 C   0  0  2  0  0  0  0  0  0  0  0  0
    0.4890   16.5620   -2.0490 C   0  0  0  0  0  0  0  0  0  0  0  0
    5.3405   17.5253   -2.3034 H   0  0  0  0  0  0  0  0  0  0  0  0
    4.8849   16.6137   -3.7826 H   0  0  0  0  0  0  0  0  0  0  0  0
    4.8331   18.4092   -3.7826 H   0  0  0  0  0  0  0  0  0  0  0  0
    2.5774   17.4323   -3.5971 H   0  0  0  0  0  0  0  0  0  0  0  0
    2.9929   18.5220   -0.8344 H   0  0  0  0  0  0  0  0  0  0  0  0
    3.4551   19.5470   -2.2763 H   0  0  0  0  0  0  0  0  0  0  0  0
    1.3043   19.8113   -2.9716 H   0  0  0  0  0  0  0  0  0  0  0  0
    0.7639   18.2434   -2.2389 H   0  0  0  0  0  0  0  0  0  0  0  0
    0.8465   20.8326   -1.4442 H   0  0  0  0  0  0  0  0  0  0  0  0
   -0.8317   17.4235    0.8958 H   0  0  0  0  0  0  0  0  0  0  0  0
   -1.6095   17.9085   -0.6491 H   0  0  0  0  0  0  0  0  0  0  0  0
    0.0738   17.2813   -0.6491 H   0  0  0  0  0  0  0  0  0  0  0  0
   -0.7829   19.9822    1.9915 H   0  0  0  0  0  0  0  0  0  0  0  0
   -0.7020   21.2342    0.7060 H   0  0  0  0  0  0  0  0  0  0  0  0
   -2.0365   20.0319    0.7060 H   0  0  0  0  0  0  0  0  0  0  0  0
    3.8005   15.5854   -2.2289 H   0  0  0  0  0  0  0  0  0  0  0  0
    4.0260   16.3117    0.0649 H   0  0  0  0  0  0  0  0  0  0  0  0
    2.7860   17.5692   -0.1305 H   0  0  0  0  0  0  0  0  0  0  0  0
    2.4206   15.0693    1.2059 H   0  0  0  0  0  0  0  0  0  0  0  0
    1.1006   16.1194    0.6979 H   0  0  0  0  0  0  0  0  0  0  0  0
    3.0361   13.2702    0.3108 H   0  0  0  0  0  0  0  0  0  0  0  0
    2.4585   12.5815   -1.2444 H   0  0  0  0  0  0  0  0  0  0  0  0
    3.6638   13.9134   -1.2444 H   0  0  0  0  0  0  0  0  0  0  0  0
   -0.4512   14.7261   -0.5345 H   0  0  0  0  0  0  0  0  0  0  0  0
    0.6294   13.4494    1.4255 H   0  0  0  0  0  0  0  0  0  0  0  0
   -1.0584   13.0229    0.8263 H   0  0  0  0  0  0  0  0  0  0  0  0
    0.5175   10.9948    1.4155 H   0  0  0  0  0  0  0  0  0  0  0  0
    1.3756   11.8038   -2.4463 H   0  0  0  0  0  0  0  0  0  0  0  0
   -1.4377   10.5500   -2.5347 H   0  0  0  0  0  0  0  0  0  0  0  0
   -0.4648   11.1533   -3.9493 H   0  0  0  0  0  0  0  0  0  0  0  0
   -0.4121    8.6873   -3.7603 H   0  0  0  0  0  0  0  0  0  0  0  0
    1.2159    9.4460   -3.5607 H   0  0  0  0  0  0  0  0  0  0  0  0
    0.9679    7.7104   -1.9218 H   0  0  0  0  0  0  0  0  0  0  0  0
   -1.4350    9.1460   -1.2470 H   0  0  0  0  0  0  0  0  0  0  0  0
    3.2954    9.5875   -0.2512 H   0  0  0  0  0  0  0  0  0  0  0  0
    2.9186    8.6695   -1.7485 H   0  0  0  0  0  0  0  0  0  0  0  0
    2.8295   10.4636   -1.7485 H   0  0  0  0  0  0  0  0  0  0  0  0
    1.1726    9.4732    1.4516 H   0  0  0  0  0  0  0  0  0  0  0  0
    0.2201    8.1449    0.7065 H   0  0  0  0  0  0  0  0  0  0  0  0
    2.0150    8.0725    0.7065 H   0  0  0  0  0  0  0  0  0  0  0  0
   -2.1218   12.9926   -0.8430 H   0  0  0  0  0  0  0  0  0  0  0  0
   -2.2190   13.8871   -2.3978 H   0  0  0  0  0  0  0  0  0  0  0  0
   -2.1302   12.0930   -2.3978 H   0  0  0  0  0  0  0  0  0  0  0  0
    0.1465   13.1317   -4.0875 H   0  0  0  0  0  0  0  0  0  0  0  0
   -0.6428   14.6429   -3.3613 H   0  0  0  0  0  0  0  0  0  0  0  0
    2.2923   13.8884   -3.3192 H   0  0  0  0  0  0  0  0  0  0  0  0
    1.4940   15.2714   -4.1666 H   0  0  0  0  0  0  0  0  0  0  0  0
    0.2135   16.8225   -1.0164 H   0  0  0  0  0  0  0  0  0  0  0  0
    0.8442   17.4622   -2.5720 H   0  0  0  0  0  0  0  0  0  0  0  0
   -0.3899   16.1570   -2.5720 H   0  0  0  0  0  0  0  0  0  0  0  0
  1  2  1  0
  2  3  1  0
  3  4  1  0
  4  5  1  0
  5  6  1  0
  6  7  1  0
  7  8  1  0
  7  9  1  0
  2 10  1  0
 10 11  1  0
 11 12  1  0
 12 13  1  0
 13 14  1  6
 13 15  1  0
 15 16  1  0
 16 17  1  0
 17 18  2  0
 18 19  1  0
 19 20  1  0
 20 21  1  0
 21 22  1  0
 22 23  1  0
 22 24  1  0
 24 25  1  0
 24 26  1  0
 19 27  1  0
 27 28  1  1
 27 29  1  0
 29 30  1  0
 30 31  1  0
 31 32  1  1
  7  5  1  0
 31 10  1  0
 31 13  1  0
 27 15  1  0
 24 18  1  0
  1 33  1  0
  1 34  1  0
  1 35  1  0
  2 36  1  6
  3 37  1  0
  3 38  1  0
  4 39  1  0
  4 40  1  0
  5 41  1  6
  8 42  1  0
  8 43  1  0
  8 44  1  0
  9 45  1  0
  9 46  1  0
  9 47  1  0
 10 48  1  1
 11 49  1  0
 11 50  1  0
 12 51  1  0
 12 52  1  0
 14 53  1  0
 14 54  1  0
 14 55  1  0
 15 56  1  1
 16 57  1  0
 16 58  1  0
 17 59  1  0
 19 60  1  6
 20 61  1  0
 20 62  1  0
 21 63  1  0
 21 64  1  0
 22 65  1  6
 23 66  1  0
 25 67  1  0
 25 68  1  0
 25 69  1  0
 26 70  1  0
 26 71  1  0
 26 72  1  0
 28 73  1  0
 28 74  1  0
 28 75  1  0
 29 76  1  0
 29 77  1  0
 30 78  1  0
 30 79  1  0
 32 80  1  0
 32 81  1  0
 32 82  1  0
M  END
>  <meeko>  (12) 
{"is_sidechain": [false], "intermolecular_energy": 2.731, "internal_energy": -0.839}

$$$$
EPH_relaxed_0001_pdb2pqr_Repair_137_r2_0001_out
     RDKit          3D

 82 86  0  0  0  0  0  0  0  0999 V2000
   -5.1780    5.8120   -1.7830 C   0  0  0  0  0  0  0  0  0  0  0  0
   -5.4720    7.3150   -1.8270 C   0  0  2  0  0  0  0  0  0  0  0  0
   -5.2410    7.9910   -0.4610 C   0  0  0  0  0  0  0  0  0  0  0  0
   -4.2090    9.1220   -0.5010 C   0  0  0  0  0  0  0  0  0  0  0  0
   -2.8340    8.6070   -0.8040 C   0  0  2  0  0  0  0  0  0  0  0  0
   -1.8390    8.9500    0.1690 O   0  0  0  0  0  0  0  0  0  0  0  0
   -1.6600    9.5070   -1.1430 C   0  0  0  0  0  0  0  0  0  0  0  0
   -1.8080   10.9950   -1.1970 C   0  0  0  0  0  0  0  0  0  0  0  0
   -0.5050    8.9220   -1.8940 C   0  0  0  0  0  0  0  0  0  0  0  0
   -6.9050    7.5510   -2.2900 C   0  0  1  0  0  0  0  0  0  0  0  0
   -7.2190    6.8550   -3.6410 C   0  0  0  0  0  0  0  0  0  0  0  0
   -8.6970    6.3930   -3.5740 C   0  0  0  0  0  0  0  0  0  0  0  0
   -9.2770    7.1210   -2.3380 C   0  0  1  0  0  0  0  0  0  0  0  0
   -9.6180    8.5580   -2.8430 C   0  0  0  0  0  0  0  0  0  0  0  0
  -10.5080    6.4440   -1.6520 C   0  0  2  0  0  0  0  0  0  0  0  0
  -11.7640    6.3260   -2.5330 C   0  0  0  0  0  0  0  0  0  0  0  0
  -12.7090    7.4780   -2.4530 C   0  0  0  0  0  0  0  0  0  0  0  0
  -12.7050    8.4290   -1.5000 C   0  0  0  0  0  0  0  0  0  0  0  0
  -11.7400    8.3470   -0.3100 C   0  0  1  0  0  0  0  0  0  0  0  0
  -12.5120    8.6340    1.0040 C   0  0  0  0  0  0  0  0  0  0  0  0
  -13.2720    9.9570    0.9590 C   0  0  0  0  0  0  0  0  0  0  0  0
  -14.2630    9.9770   -0.2020 C   0  0  2  0  0  0  0  0  0  0  0  0
  -15.2870    9.0100    0.0490 O   0  0  0  0  0  0  0  0  0  0  0  0
  -13.6000    9.6900   -1.5790 C   0  0  0  0  0  0  0  0  0  0  0  0
  -12.7130   10.8910   -1.9900 C   0  0  0  0  0  0  0  0  0  0  0  0
  -14.7280    9.5990   -2.6420 C   0  0  0  0  0  0  0  0  0  0  0  0
  -10.8570    7.0290   -0.2240 C   0  0  1  0  0  0  0  0  0  0  0  0
  -11.6390    5.9130    0.5350 C   0  0  0  0  0  0  0  0  0  0  0  0
   -9.5690    7.3280    0.6310 C   0  0  0  0  0  0  0  0  0  0  0  0
   -8.3470    7.8840   -0.1250 C   0  0  0  0  0  0  0  0  0  0  0  0
   -8.0420    7.0430   -1.3680 C   0  0  2  0  0  0  0  0  0  0  0  0
   -7.6740    5.5970   -0.8910 C   0  0  0  0  0  0  0  0  0  0  0  0
   -5.1134    5.4815   -0.7358 H   0  0  0  0  0  0  0  0  0  0  0  0
   -5.9862    5.2653   -2.2908 H   0  0  0  0  0  0  0  0  0  0  0  0
   -4.2233    5.6101   -2.2908 H   0  0  0  0  0  0  0  0  0  0  0  0
   -4.7711    7.7691   -2.5429 H   0  0  0  0  0  0  0  0  0  0  0  0
   -6.1982    8.4063   -0.1127 H   0  0  0  0  0  0  0  0  0  0  0  0
   -4.8469    7.2197    0.2171 H   0  0  0  0  0  0  0  0  0  0  0  0
   -4.4996    9.8424   -1.2798 H   0  0  0  0  0  0  0  0  0  0  0  0
   -4.1857    9.6004    0.4893 H   0  0  0  0  0  0  0  0  0  0  0  0
   -3.2502    7.7183   -1.3010 H   0  0  0  0  0  0  0  0  0  0  0  0
   -1.8480   11.3969   -0.1738 H   0  0  0  0  0  0  0  0  0  0  0  0
   -0.9487   11.4299   -1.7284 H   0  0  0  0  0  0  0  0  0  0  0  0
   -2.7361   11.2521   -1.7284 H   0  0  0  0  0  0  0  0  0  0  0  0
    0.2422    8.5436   -1.1809 H   0  0  0  0  0  0  0  0  0  0  0  0
   -0.8600    8.0950   -2.5265 H   0  0  0  0  0  0  0  0  0  0  0  0
   -0.0483    9.6975   -2.5265 H   0  0  0  0  0  0  0  0  0  0  0  0
   -6.9097    8.6505   -2.3233 H   0  0  0  0  0  0  0  0  0  0  0  0
   -7.0806    7.5619   -4.4723 H   0  0  0  0  0  0  0  0  0  0  0  0
   -6.5461    6.0016   -3.8111 H   0  0  0  0  0  0  0  0  0  0  0  0
   -9.2373    6.6859   -4.4863 H   0  0  0  0  0  0  0  0  0  0  0  0
   -8.7895    5.2997   -3.4960 H   0  0  0  0  0  0  0  0  0  0  0  0
   -9.7756    9.2220   -1.9803 H   0  0  0  0  0  0  0  0  0  0  0  0
   -8.7855    8.9397   -3.4523 H   0  0  0  0  0  0  0  0  0  0  0  0
  -10.5332    8.5250   -3.4523 H   0  0  0  0  0  0  0  0  0  0  0  0
  -10.1541    5.4140   -1.4977 H   0  0  0  0  0  0  0  0  0  0  0  0
  -11.4376    6.2261   -3.5787 H   0  0  0  0  0  0  0  0  0  0  0  0
  -12.3172    5.4520   -2.1588 H   0  0  0  0  0  0  0  0  0  0  0  0
  -13.4739    7.5570   -3.2395 H   0  0  0  0  0  0  0  0  0  0  0  0
  -10.9845    9.1290   -0.4765 H   0  0  0  0  0  0  0  0  0  0  0  0
  -13.2314    7.8197    1.1754 H   0  0  0  0  0  0  0  0  0  0  0  0
  -11.7742    8.7001    1.8172 H   0  0  0  0  0  0  0  0  0  0  0  0
  -13.8207   10.0894    1.9031 H   0  0  0  0  0  0  0  0  0  0  0  0
  -12.5484   10.7733    0.8173 H   0  0  0  0  0  0  0  0  0  0  0  0
  -14.6813   10.9927   -0.2607 H   0  0  0  0  0  0  0  0  0  0  0  0
  -15.3000    8.3930   -0.7020 H   0  0  0  0  0  0  0  0  0  0  0  0
  -12.3395   11.3968   -1.0874 H   0  0  0  0  0  0  0  0  0  0  0  0
  -11.8623   10.5311   -2.5873 H   0  0  0  0  0  0  0  0  0  0  0  0
  -13.3072   11.5982   -2.5873 H   0  0  0  0  0  0  0  0  0  0  0  0
  -15.7021    9.5204   -2.1371 H   0  0  0  0  0  0  0  0  0  0  0  0
  -14.7127   10.5013   -3.2710 H   0  0  0  0  0  0  0  0  0  0  0  0
  -14.5683    8.7108   -3.2710 H   0  0  0  0  0  0  0  0  0  0  0  0
  -11.5332    6.0639    1.6194 H   0  0  0  0  0  0  0  0  0  0  0  0
  -12.7032    5.9594    0.2604 H   0  0  0  0  0  0  0  0  0  0  0  0
  -11.2321    4.9286    0.2604 H   0  0  0  0  0  0  0  0  0  0  0  0
   -9.8448    8.0616    1.4029 H   0  0  0  0  0  0  0  0  0  0  0  0
   -9.2473    6.3501    1.0185 H   0  0  0  0  0  0  0  0  0  0  0  0
   -8.5550    8.9193   -0.4332 H   0  0  0  0  0  0  0  0  0  0  0  0
   -7.4749    7.8493    0.5445 H   0  0  0  0  0  0  0  0  0  0  0  0
   -7.6657    5.5646    0.2085 H   0  0  0  0  0  0  0  0  0  0  0  0
   -8.4193    4.8840   -1.2733 H   0  0  0  0  0  0  0  0  0  0  0  0
   -6.6785    5.3270   -1.2733 H   0  0  0  0  0  0  0  0  0  0  0  0
  1  2  1  0
  2  3  1  0
  3  4  1  0
  4  5  1  0
  5  6  1  0
  6  7  1  0
  7  8  1  0
  7  9  1  0
  2 10  1  0
 10 11  1  0
 11 12  1  0
 12 13  1  0
 13 14  1  6
 13 15  1  0
 15 16  1  0
 16 17  1  0
 17 18  2  0
 18 19  1  0
 19 20  1  0
 20 21  1  0
 21 22  1  0
 22 23  1  0
 22 24  1  0
 24 25  1  0
 24 26  1  0
 19 27  1  0
 27 28  1  1
 27 29  1  0
 29 30  1  0
 30 31  1  0
 31 32  1  1
  7  5  1  0
 31 10  1  0
 31 13  1  0
 27 15  1  0
 24 18  1  0
  1 33  1  0
  1 34  1  0
  1 35  1  0
  2 36  1  6
  3 37  1  0
  3 38  1  0
  4 39  1  0
  4 40  1  0
  5 41  1  6
  8 42  1  0
  8 43  1  0
  8 44  1  0
  9 45  1  0
  9 46  1  0
  9 47  1  0
 10 48  1  6
 11 49  1  0
 11 50  1  0
 12 51  1  0
 12 52  1  0
 14 53  1  0
 14 54  1  0
 14 55  1  0
 15 56  1  1
 16 57  1  0
 16 58  1  0
 17 59  1  0
 19 60  1  6
 20 61  1  0
 20 62  1  0
 21 63  1  0
 21 64  1  0
 22 65  1  6
 23 66  1  0
 25 67  1  0
 25 68  1  0
 25 69  1  0
 26 70  1  0
 26 71  1  0
 26 72  1  0
 28 73  1  0
 28 74  1  0
 28 75  1  0
 29 76  1  0
 29 77  1  0
 30 78  1  0
 30 79  1  0
 32 80  1  0
 32 81  1  0
 32 82  1  0
M  END
>  <meeko>  (13) 
{"is_sidechain": [false], "intermolecular_energy": 2.731, "internal_energy": -0.839}

$$$$
EPH_relaxed_0001_pdb2pqr_Repair_137_r2_0001_out
     RDKit          3D

 82 86  0  0  0  0  0  0  0  0999 V2000
    1.2750   17.7140   -2.6100 C   0  0  0  0  0  0  0  0  0  0  0  0
    2.5830   17.0790   -2.1310 C   0  0  2  0  0  0  0  0  0  0  0  0
    3.8120   17.6560   -2.8620 C   0  0  0  0  0  0  0  0  0  0  0  0
    5.1440   17.3150   -2.1900 C   0  0  0  0  0  0  0  0  0  0  0  0
    6.3120   17.7740   -3.0100 C   0  0  2  0  0  0  0  0  0  0  0  0
    6.0750   17.8060   -4.4230 O   0  0  0  0  0  0  0  0  0  0  0  0
    7.0680   16.8720   -3.9680 C   0  0  0  0  0  0  0  0  0  0  0  0
    6.6850   15.4380   -4.1550 C   0  0  0  0  0  0  0  0  0  0  0  0
    8.4660   17.2450   -4.3490 C   0  0  0  0  0  0  0  0  0  0  0  0
    2.5270   15.5670   -2.3200 C   0  0  1  0  0  0  0  0  0  0  0  0
    3.9120   14.9560   -2.6630 C   0  0  0  0  0  0  0  0  0  0  0  0
    3.9640   13.5610   -1.9890 C   0  0  0  0  0  0  0  0  0  0  0  0
    2.5040   13.2770   -1.5660 C   0  0  1  0  0  0  0  0  0  0  0  0
    1.8040   12.7630   -2.8630 C   0  0  0  0  0  0  0  0  0  0  0  0
    2.3110   12.2840   -0.3730 C   0  0  2  0  0  0  0  0  0  0  0  0
    2.8210   10.8550   -0.6250 C   0  0  0  0  0  0  0  0  0  0  0  0
    1.8190    9.9130   -1.2050 C   0  0  0  0  0  0  0  0  0  0  0  0
    0.4890   10.1150   -1.2480 C   0  0  0  0  0  0  0  0  0  0  0  0
   -0.1420   11.3480   -0.5890 C   0  0  1  0  0  0  0  0  0  0  0  0
   -1.3790   10.9150    0.2410 C   0  0  0  0  0  0  0  0  0  0  0  0
   -2.3840   10.1140   -0.5810 C   0  0  0  0  0  0  0  0  0  0  0  0
   -1.7340    8.8660   -1.1730 C   0  0  2  0  0  0  0  0  0  0  0  0
   -1.3900    7.9760   -0.1060 O   0  0  0  0  0  0  0  0  0  0  0  0
   -0.4700    9.1770   -2.0220 C   0  0  0  0  0  0  0  0  0  0  0  0
   -0.8870    9.8840   -3.3350 C   0  0  0  0  0  0  0  0  0  0  0  0
    0.1680    7.8250   -2.4410 C   0  0  0  0  0  0  0  0  0  0  0  0
    0.8500   12.2780    0.2340 C   0  0  1  0  0  0  0  0  0  0  0  0
    0.9780   11.7550    1.6980 C   0  0  0  0  0  0  0  0  0  0  0  0
    0.2360   13.7240    0.3320 C   0  0  0  0  0  0  0  0  0  0  0  0
    0.5610   14.6960   -0.8180 C   0  0  0  0  0  0  0  0  0  0  0  0
    2.0650   14.7160   -1.1110 C   0  0  2  0  0  0  0  0  0  0  0  0
    2.7940   15.2500    0.1690 C   0  0  0  0  0  0  0  0  0  0  0  0
    0.6698   18.0078   -1.7397 H   0  0  0  0  0  0  0  0  0  0  0  0
    1.4999   18.6032   -3.2172 H   0  0  0  0  0  0  0  0  0  0  0  0
    0.7154   16.9873   -3.2172 H   0  0  0  0  0  0  0  0  0  0  0  0
    2.6934   17.3166   -1.0627 H   0  0  0  0  0  0  0  0  0  0  0  0
    3.8270   17.2547   -3.8861 H   0  0  0  0  0  0  0  0  0  0  0  0
    3.7130   18.7513   -2.8417 H   0  0  0  0  0  0  0  0  0  0  0  0
    5.1835   17.8067   -1.2068 H   0  0  0  0  0  0  0  0  0  0  0  0
    5.2060   16.2216   -2.0866 H   0  0  0  0  0  0  0  0  0  0  0  0
    6.6495   18.4381   -2.2007 H   0  0  0  0  0  0  0  0  0  0  0  0
    6.5577   14.9613   -3.1719 H   0  0  0  0  0  0  0  0  0  0  0  0
    5.7401   15.3809   -4.7153 H   0  0  0  0  0  0  0  0  0  0  0  0
    7.4756   14.9174   -4.7153 H   0  0  0  0  0  0  0  0  0  0  0  0
    9.0638   17.4045   -3.4395 H   0  0  0  0  0  0  0  0  0  0  0  0
    8.9126   16.4346   -4.9438 H   0  0  0  0  0  0  0  0  0  0  0  0
    8.4495   18.1702   -4.9438 H   0  0  0  0  0  0  0  0  0  0  0  0
    1.7820   15.5096   -3.1273 H   0  0  0  0  0  0  0  0  0  0  0  0
    4.0220   14.8546   -3.7528 H   0  0  0  0  0  0  0  0  0  0  0  0
    4.7281   15.5996   -2.3028 H   0  0  0  0  0  0  0  0  0  0  0  0
    4.3175   12.7994   -2.6996 H   0  0  0  0  0  0  0  0  0  0  0  0
    4.6578   13.5358   -1.1357 H   0  0  0  0  0  0  0  0  0  0  0  0
    0.9450   12.1322   -2.5907 H   0  0  0  0  0  0  0  0  0  0  0  0
    1.4553   13.6212   -3.4562 H   0  0  0  0  0  0  0  0  0  0  0  0
    2.5184   12.1733   -3.4562 H   0  0  0  0  0  0  0  0  0  0  0  0
    2.9746   12.7062    0.3960 H   0  0  0  0  0  0  0  0  0  0  0  0
    3.6722   10.9154   -1.3192 H   0  0  0  0  0  0  0  0  0  0  0  0
    3.0853   10.4479    0.3621 H   0  0  0  0  0  0  0  0  0  0  0  0
    2.1997    8.9742   -1.6336 H   0  0  0  0  0  0  0  0  0  0  0  0
   -0.4567   12.0059   -1.4125 H   0  0  0  0  0  0  0  0  0  0  0  0
   -1.0388   10.2950    1.0836 H   0  0  0  0  0  0  0  0  0  0  0  0
   -1.8843   11.8283    0.5883 H   0  0  0  0  0  0  0  0  0  0  0  0
   -3.2195    9.8115    0.0674 H   0  0  0  0  0  0  0  0  0  0  0  0
   -2.7459   10.7459   -1.4055 H   0  0  0  0  0  0  0  0  0  0  0  0
   -2.4639    8.4058   -1.8553 H   0  0  0  0  0  0  0  0  0  0  0  0
   -1.1400    8.5190    0.6610 H   0  0  0  0  0  0  0  0  0  0  0  0
   -1.4325   10.8089   -3.0962 H   0  0  0  0  0  0  0  0  0  0  0  0
    0.0112   10.1290   -3.9208 H   0  0  0  0  0  0  0  0  0  0  0  0
   -1.5360    9.2164   -3.9208 H   0  0  0  0  0  0  0  0  0  0  0  0
    0.4381    7.2526   -1.5413 H   0  0  0  0  0  0  0  0  0  0  0  0
   -0.5533    7.2490   -3.0393 H   0  0  0  0  0  0  0  0  0  0  0  0
    1.0712    8.0156   -3.0393 H   0  0  0  0  0  0  0  0  0  0  0  0
    0.7767   12.5775    2.4001 H   0  0  0  0  0  0  0  0  0  0  0  0
    0.2514   10.9458    1.8631 H   0  0  0  0  0  0  0  0  0  0  0  0
    1.9962   11.3729    1.8631 H   0  0  0  0  0  0  0  0  0  0  0  0
   -0.8579   13.6185    0.3794 H   0  0  0  0  0  0  0  0  0  0  0  0
    0.6952   14.1717    1.2257 H   0  0  0  0  0  0  0  0  0  0  0  0
    0.0225   14.3763   -1.7223 H   0  0  0  0  0  0  0  0  0  0  0  0
    0.2481   15.7079   -0.5209 H   0  0  0  0  0  0  0  0  0  0  0  0
    2.2811   14.8743    1.0667 H   0  0  0  0  0  0  0  0  0  0  0  0
    3.8371   14.9007    0.1695 H   0  0  0  0  0  0  0  0  0  0  0  0
    2.7756   16.3498    0.1695 H   0  0  0  0  0  0  0  0  0  0  0  0
  1  2  1  0
  2  3  1  0
  3  4  1  0
  4  5  1  0
  5  6  1  0
  6  7  1  0
  7  8  1  0
  7  9  1  0
  2 10  1  0
 10 11  1  0
 11 12  1  0
 12 13  1  0
 13 14  1  6
 13 15  1  0
 15 16  1  0
 16 17  1  0
 17 18  2  0
 18 19  1  0
 19 20  1  0
 20 21  1  0
 21 22  1  0
 22 23  1  0
 22 24  1  0
 24 25  1  0
 24 26  1  0
 19 27  1  0
 27 28  1  1
 27 29  1  0
 29 30  1  0
 30 31  1  0
 31 32  1  1
  7  5  1  0
 31 10  1  0
 31 13  1  0
 27 15  1  0
 24 18  1  0
  1 33  1  0
  1 34  1  0
  1 35  1  0
  2 36  1  1
  3 37  1  0
  3 38  1  0
  4 39  1  0
  4 40  1  0
  5 41  1  1
  8 42  1  0
  8 43  1  0
  8 44  1  0
  9 45  1  0
  9 46  1  0
  9 47  1  0
 10 48  1  6
 11 49  1  0
 11 50  1  0
 12 51  1  0
 12 52  1  0
 14 53  1  0
 14 54  1  0
 14 55  1  0
 15 56  1  1
 16 57  1  0
 16 58  1  0
 17 59  1  0
 19 60  1  6
 20 61  1  0
 20 62  1  0
 21 63  1  0
 21 64  1  0
 22 65  1  6
 23 66  1  0
 25 67  1  0
 25 68  1  0
 25 69  1  0
 26 70  1  0
 26 71  1  0
 26 72  1  0
 28 73  1  0
 28 74  1  0
 28 75  1  0
 29 76  1  0
 29 77  1  0
 30 78  1  0
 30 79  1  0
 32 80  1  0
 32 81  1  0
 32 82  1  0
M  END
>  <meeko>  (14) 
{"is_sidechain": [false], "intermolecular_energy": 2.731, "internal_energy": -0.839}

$$$$
EPH_relaxed_0001_pdb2pqr_Repair_137_r2_0001_out
     RDKit          3D

 82 86  0  0  0  0  0  0  0  0999 V2000
    0.1210    8.9520   -2.3960 C   0  0  0  0  0  0  0  0  0  0  0  0
    1.0030   10.0790   -2.9420 C   0  0  2  0  0  0  0  0  0  0  0  0
    2.4540    9.9820   -2.4270 C   0  0  0  0  0  0  0  0  0  0  0  0
    3.4980    9.9000   -3.5440 C   0  0  0  0  0  0  0  0  0  0  0  0
    3.9380   11.2610   -3.9920 C   0  0  2  0  0  0  0  0  0  0  0  0
    4.6420   11.2820   -5.2410 O   0  0  0  0  0  0  0  0  0  0  0  0
    5.3930   11.6820   -4.0830 C   0  0  0  0  0  0  0  0  0  0  0  0
    6.5010   10.7430   -3.7230 C   0  0  0  0  0  0  0  0  0  0  0  0
    5.7190   13.1430   -4.0510 C   0  0  0  0  0  0  0  0  0  0  0  0
    0.4080   11.4320   -2.5690 C   0  0  1  0  0  0  0  0  0  0  0  0
   -0.8420   11.3040   -1.6580 C   0  0  0  0  0  0  0  0  0  0  0  0
   -0.8120   12.5110   -0.6850 C   0  0  0  0  0  0  0  0  0  0  0  0
    0.2540   13.4620   -1.2770 C   0  0  1  0  0  0  0  0  0  0  0  0
   -0.4850   14.2350   -2.4140 C   0  0  0  0  0  0  0  0  0  0  0  0
    0.9440   14.4390   -0.2700 C   0  0  2  0  0  0  0  0  0  0  0  0
    0.0020   15.4480    0.4100 C   0  0  0  0  0  0  0  0  0  0  0  0
   -0.1610   16.7490   -0.3050 C   0  0  0  0  0  0  0  0  0  0  0  0
    0.6360   17.2060   -1.2890 C   0  0  0  0  0  0  0  0  0  0  0  0
    1.8910   16.4310   -1.7100 C   0  0  1  0  0  0  0  0  0  0  0  0
    3.0870   17.4100   -1.8330 C   0  0  0  0  0  0  0  0  0  0  0  0
    2.7890   18.5860   -2.7590 C   0  0  0  0  0  0  0  0  0  0  0  0
    1.5690   19.3660   -2.2750 C   0  0  2  0  0  0  0  0  0  0  0  0
    1.8890   19.9940   -1.0290 O   0  0  0  0  0  0  0  0  0  0  0  0
    0.3040   18.4800   -2.1040 C   0  0  0  0  0  0  0  0  0  0  0  0
   -0.2190   18.0450   -3.4950 C   0  0  0  0  0  0  0  0  0  0  0  0
   -0.8120   19.3590   -1.4770 C   0  0  0  0  0  0  0  0  0  0  0  0
    2.2390   15.1480   -0.8390 C   0  0  1  0  0  0  0  0  0  0  0  0
    3.0990   15.5610    0.3950 C   0  0  0  0  0  0  0  0  0  0  0  0
    3.1300   14.1720   -1.6940 C   0  0  0  0  0  0  0  0  0  0  0  0
    2.3890   13.1510   -2.5790 C   0  0  0  0  0  0  0  0  0  0  0  0
    1.3110   12.4130   -1.7790 C   0  0  2  0  0  0  0  0  0  0  0  0
    2.0270   11.6080   -0.6410 C   0  0  0  0  0  0  0  0  0  0  0  0
    0.1377    8.9733   -1.2963 H   0  0  0  0  0  0  0  0  0  0  0  0
   -0.9113    9.0902   -2.7498 H   0  0  0  0  0  0  0  0  0  0  0  0
    0.5032    7.9831   -2.7498 H   0  0  0  0  0  0  0  0  0  0  0  0
    1.0330    9.9749   -4.0367 H   0  0  0  0  0  0  0  0  0  0  0  0
    2.6666   10.8725   -1.8173 H   0  0  0  0  0  0  0  0  0  0  0  0
    2.5284    9.0499   -1.8476 H   0  0  0  0  0  0  0  0  0  0  0  0
    4.3734    9.3461   -3.1739 H   0  0  0  0  0  0  0  0  0  0  0  0
    3.0415    9.3869   -4.4033 H   0  0  0  0  0  0  0  0  0  0  0  0
    3.0636   11.7268   -3.5140 H   0  0  0  0  0  0  0  0  0  0  0  0
    6.5822   10.6742   -2.6282 H   0  0  0  0  0  0  0  0  0  0  0  0
    6.2870    9.7471   -4.1381 H   0  0  0  0  0  0  0  0  0  0  0  0
    7.4484   11.1174   -4.1381 H   0  0  0  0  0  0  0  0  0  0  0  0
    5.7940   13.4791   -3.0063 H   0  0  0  0  0  0  0  0  0  0  0  0
    6.6778   13.3160   -4.5616 H   0  0  0  0  0  0  0  0  0  0  0  0
    4.9247   13.7072   -4.5616 H   0  0  0  0  0  0  0  0  0  0  0  0
    0.2101   11.8300   -3.5752 H   0  0  0  0  0  0  0  0  0  0  0  0
   -1.7582   11.3304   -2.2661 H   0  0  0  0  0  0  0  0  0  0  0  0
   -0.8332   10.3521   -1.1068 H   0  0  0  0  0  0  0  0  0  0  0  0
   -1.7945   13.0041   -0.6474 H   0  0  0  0  0  0  0  0  0  0  0  0
   -0.5762   12.2100    0.3464 H   0  0  0  0  0  0  0  0  0  0  0  0
   -1.1806   14.9626   -1.9705 H   0  0  0  0  0  0  0  0  0  0  0  0
    0.2516   14.7642   -3.0364 H   0  0  0  0  0  0  0  0  0  0  0  0
   -1.0468   13.5229   -3.0364 H   0  0  0  0  0  0  0  0  0  0  0  0
    1.2777   13.7590    0.5276 H   0  0  0  0  0  0  0  0  0  0  0  0
   -0.9903   14.9813    0.4975 H   0  0  0  0  0  0  0  0  0  0  0  0
    0.4620   15.6887    1.3798 H   0  0  0  0  0  0  0  0  0  0  0  0
   -1.0036   17.3879   -0.0020 H   0  0  0  0  0  0  0  0  0  0  0  0
    1.6631   15.9950   -2.6938 H   0  0  0  0  0  0  0  0  0  0  0  0
    3.3269   17.8007   -0.8331 H   0  0  0  0  0  0  0  0  0  0  0  0
    3.9317   16.8522   -2.2636 H   0  0  0  0  0  0  0  0  0  0  0  0
    3.6602   19.2572   -2.7803 H   0  0  0  0  0  0  0  0  0  0  0  0
    2.5795   18.1958   -3.7659 H   0  0  0  0  0  0  0  0  0  0  0  0
    1.3267   20.1124   -3.0459 H   0  0  0  0  0  0  0  0  0  0  0  0
    1.6230   19.3870   -0.3170 H   0  0  0  0  0  0  0  0  0  0  0  0
   -1.0591   17.3462   -3.3688 H   0  0  0  0  0  0  0  0  0  0  0  0
   -0.5590   18.9304   -4.0522 H   0  0  0  0  0  0  0  0  0  0  0  0
    0.5896   17.5494   -4.0522 H   0  0  0  0  0  0  0  0  0  0  0  0
   -0.7465   19.3074   -0.3802 H   0  0  0  0  0  0  0  0  0  0  0  0
   -0.6843   20.4017   -1.8033 H   0  0  0  0  0  0  0  0  0  0  0  0
   -1.7957   18.9905   -1.8033 H   0  0  0  0  0  0  0  0  0  0  0  0
    2.5615   15.3029    1.3194 H   0  0  0  0  0  0  0  0  0  0  0  0
    4.0598   15.0261    0.3679 H   0  0  0  0  0  0  0  0  0  0  0  0
    3.2822   16.6453    0.3679 H   0  0  0  0  0  0  0  0  0  0  0  0
    3.7605   14.7876   -2.3525 H   0  0  0  0  0  0  0  0  0  0  0  0
    3.6829   13.5685   -0.9591 H   0  0  0  0  0  0  0  0  0  0  0  0
    1.9150   13.6799   -3.4190 H   0  0  0  0  0  0  0  0  0  0  0  0
    3.1169   12.4143   -2.9497 H   0  0  0  0  0  0  0  0  0  0  0  0
    1.6940   11.9824    0.3383 H   0  0  0  0  0  0  0  0  0  0  0  0
    1.7737   10.5414   -0.7312 H   0  0  0  0  0  0  0  0  0  0  0  0
    3.1159   11.7352   -0.7312 H   0  0  0  0  0  0  0  0  0  0  0  0
  1  2  1  0
  2  3  1  0
  3  4  1  0
  4  5  1  0
  5  6  1  0
  6  7  1  0
  7  8  1  0
  7  9  1  0
  2 10  1  0
 10 11  1  0
 11 12  1  0
 12 13  1  0
 13 14  1  6
 13 15  1  0
 15 16  1  0
 16 17  1  0
 17 18  2  0
 18 19  1  0
 19 20  1  0
 20 21  1  0
 21 22  1  0
 22 23  1  0
 22 24  1  0
 24 25  1  0
 24 26  1  0
 19 27  1  0
 27 28  1  1
 27 29  1  0
 29 30  1  0
 30 31  1  0
 31 32  1  1
  7  5  1  0
 31 10  1  0
 31 13  1  0
 27 15  1  0
 24 18  1  0
  1 33  1  0
  1 34  1  0
  1 35  1  0
  2 36  1  6
  3 37  1  0
  3 38  1  0
  4 39  1  0
  4 40  1  0
  5 41  1  6
  8 42  1  0
  8 43  1  0
  8 44  1  0
  9 45  1  0
  9 46  1  0
  9 47  1  0
 10 48  1  6
 11 49  1  0
 11 50  1  0
 12 51  1  0
 12 52  1  0
 14 53  1  0
 14 54  1  0
 14 55  1  0
 15 56  1  1
 16 57  1  0
 16 58  1  0
 17 59  1  0
 19 60  1  6
 20 61  1  0
 20 62  1  0
 21 63  1  0
 21 64  1  0
 22 65  1  6
 23 66  1  0
 25 67  1  0
 25 68  1  0
 25 69  1  0
 26 70  1  0
 26 71  1  0
 26 72  1  0
 28 73  1  0
 28 74  1  0
 28 75  1  0
 29 76  1  0
 29 77  1  0
 30 78  1  0
 30 79  1  0
 32 80  1  0
 32 81  1  0
 32 82  1  0
M  END
>  <meeko>  (15) 
{"is_sidechain": [false], "intermolecular_energy": 2.731, "internal_energy": -0.839}

$$$$
EPH_relaxed_0001_pdb2pqr_Repair_137_r2_0001_out
     RDKit          3D

 82 86  0  0  0  0  0  0  0  0999 V2000
   -0.1480    8.4560   -3.4120 C   0  0  0  0  0  0  0  0  0  0  0  0
   -0.6260    8.8690   -2.0170 C   0  0  2  0  0  0  0  0  0  0  0  0
   -1.9580    8.1910   -1.6360 C   0  0  0  0  0  0  0  0  0  0  0  0
   -2.5640    7.3480   -2.7610 C   0  0  0  0  0  0  0  0  0  0  0  0
   -4.0500    7.5220   -2.8450 C   0  0  2  0  0  0  0  0  0  0  0  0
   -4.7560    7.2380   -1.6300 O   0  0  0  0  0  0  0  0  0  0  0  0
   -5.0340    6.3710   -2.7410 C   0  0  0  0  0  0  0  0  0  0  0  0
   -4.5690    4.9620   -2.5460 C   0  0  0  0  0  0  0  0  0  0  0  0
   -6.4050    6.5490   -3.3150 C   0  0  0  0  0  0  0  0  0  0  0  0
   -0.7740   10.3840   -1.9460 C   0  0  1  0  0  0  0  0  0  0  0  0
   -2.1020   10.8240   -1.2740 C   0  0  0  0  0  0  0  0  0  0  0  0
   -1.7950   12.1220   -0.4840 C   0  0  0  0  0  0  0  0  0  0  0  0
   -0.4030   12.5660   -0.9890 C   0  0  1  0  0  0  0  0  0  0  0  0
   -0.6810   13.3030   -2.3360 C   0  0  0  0  0  0  0  0  0  0  0  0
    0.4380   13.4500   -0.0110 C   0  0  2  0  0  0  0  0  0  0  0  0
   -0.1890   14.8110    0.3410 C   0  0  0  0  0  0  0  0  0  0  0  0
    0.1920   15.9400   -0.5590 C   0  0  0  0  0  0  0  0  0  0  0  0
    1.2180   15.9340   -1.4300 C   0  0  0  0  0  0  0  0  0  0  0  0
    2.1820   14.7430   -1.5040 C   0  0  1  0  0  0  0  0  0  0  0  0
    3.6440   15.2600   -1.5330 C   0  0  0  0  0  0  0  0  0  0  0  0
    3.8830   16.2750   -2.6470 C   0  0  0  0  0  0  0  0  0  0  0  0
    2.9460   17.4710   -2.5060 C   0  0  2  0  0  0  0  0  0  0  0  0
    3.2930   18.1900   -1.3180 O   0  0  0  0  0  0  0  0  0  0  0  0
    1.4450   17.0720   -2.4560 C   0  0  0  0  0  0  0  0  0  0  0  0
    0.9940   16.5680   -3.8490 C   0  0  0  0  0  0  0  0  0  0  0  0
    0.6190   18.3550   -2.1700 C   0  0  0  0  0  0  0  0  0  0  0  0
    1.9590   13.6030   -0.4190 C   0  0  1  0  0  0  0  0  0  0  0  0
    2.7380   13.9510    0.8860 C   0  0  0  0  0  0  0  0  0  0  0  0
    2.5720   12.2550   -0.9560 C   0  0  0  0  0  0  0  0  0  0  0  0
    1.6530   11.3690   -1.8180 C   0  0  0  0  0  0  0  0  0  0  0  0
    0.2950   11.1650   -1.1410 C   0  0  2  0  0  0  0  0  0  0  0  0
    0.5410   10.4060    0.2080 C   0  0  0  0  0  0  0  0  0  0  0  0
    0.6813    7.7395   -3.3182 H   0  0  0  0  0  0  0  0  0  0  0  0
   -0.9782    7.9863   -3.9599 H   0  0  0  0  0  0  0  0  0  0  0  0
    0.1962    9.3455   -3.9599 H   0  0  0  0  0  0  0  0  0  0  0  0
    0.1332    8.5355   -1.2943 H   0  0  0  0  0  0  0  0  0  0  0  0
   -1.7793    7.5370   -0.7698 H   0  0  0  0  0  0  0  0  0  0  0  0
   -2.6757    8.9947   -1.4146 H   0  0  0  0  0  0  0  0  0  0  0  0
   -2.1146    7.6538   -3.7173 H   0  0  0  0  0  0  0  0  0  0  0  0
   -2.3542    6.2895   -2.5475 H   0  0  0  0  0  0  0  0  0  0  0  0
   -3.9373    8.3328   -3.5798 H   0  0  0  0  0  0  0  0  0  0  0  0
   -4.4974    4.7451   -1.4700 H   0  0  0  0  0  0  0  0  0  0  0  0
   -5.2868    4.2711   -3.0123 H   0  0  0  0  0  0  0  0  0  0  0  0
   -3.5810    4.8341   -3.0123 H   0  0  0  0  0  0  0  0  0  0  0  0
   -7.1352    6.6438   -2.4978 H   0  0  0  0  0  0  0  0  0  0  0  0
   -6.4280    7.4577   -3.9345 H   0  0  0  0  0  0  0  0  0  0  0  0
   -6.6593    5.6763   -3.9345 H   0  0  0  0  0  0  0  0  0  0  0  0
   -0.6930   10.6279   -3.0155 H   0  0  0  0  0  0  0  0  0  0  0  0
   -2.8676   11.0186   -2.0395 H   0  0  0  0  0  0  0  0  0  0  0  0
   -2.4868   10.0379   -0.6077 H   0  0  0  0  0  0  0  0  0  0  0  0
   -2.5495   12.8937   -0.6967 H   0  0  0  0  0  0  0  0  0  0  0  0
   -1.8124   11.9620    0.6042 H   0  0  0  0  0  0  0  0  0  0  0  0
   -1.0623   14.3138   -2.1290 H   0  0  0  0  0  0  0  0  0  0  0  0
    0.2520   13.3743   -2.9143 H   0  0  0  0  0  0  0  0  0  0  0  0
   -1.4287   12.7404   -2.9143 H   0  0  0  0  0  0  0  0  0  0  0  0
    0.4151   12.8606    0.9175 H   0  0  0  0  0  0  0  0  0  0  0  0
   -1.2829   14.7011    0.3042 H   0  0  0  0  0  0  0  0  0  0  0  0
    0.1938   15.0739    1.3382 H   0  0  0  0  0  0  0  0  0  0  0  0
   -0.4176   16.8541   -0.5056 H   0  0  0  0  0  0  0  0  0  0  0  0
    1.9519   14.2238   -2.4460 H   0  0  0  0  0  0  0  0  0  0  0  0
    3.8688   15.7365   -0.5674 H   0  0  0  0  0  0  0  0  0  0  0  0
    4.2999   14.3971   -1.7207 H   0  0  0  0  0  0  0  0  0  0  0  0
    4.9244   16.6258   -2.5969 H   0  0  0  0  0  0  0  0  0  0  0  0
    3.6870   15.7878   -3.6135 H   0  0  0  0  0  0  0  0  0  0  0  0
    3.0733   18.0971   -3.4014 H   0  0  0  0  0  0  0  0  0  0  0  0
    3.0380   17.6410   -0.5570 H   0  0  0  0  0  0  0  0  0  0  0  0
    0.2651   15.7534   -3.7259 H   0  0  0  0  0  0  0  0  0  0  0  0
    0.5290   17.3952   -4.4053 H   0  0  0  0  0  0  0  0  0  0  0  0
    1.8676   16.1974   -4.4053 H   0  0  0  0  0  0  0  0  0  0  0  0
    0.5273   18.4974   -1.0831 H   0  0  0  0  0  0  0  0  0  0  0  0
    1.1274   19.2245   -2.6121 H   0  0  0  0  0  0  0  0  0  0  0  0
   -0.3830   18.2522   -2.6121 H   0  0  0  0  0  0  0  0  0  0  0  0
    2.1286   13.6788    1.7604 H   0  0  0  0  0  0  0  0  0  0  0  0
    3.6838   13.3898    0.9091 H   0  0  0  0  0  0  0  0  0  0  0  0
    2.9511   15.0299    0.9091 H   0  0  0  0  0  0  0  0  0  0  0  0
    3.4539   12.5088   -1.5624 H   0  0  0  0  0  0  0  0  0  0  0  0
    2.7868   11.6583   -0.0572 H   0  0  0  0  0  0  0  0  0  0  0  0
    1.4994   11.8526   -2.7940 H   0  0  0  0  0  0  0  0  0  0  0  0
    2.1320   10.3870   -1.9456 H   0  0  0  0  0  0  0  0  0  0  0  0
    0.3233   11.0776    1.0516 H   0  0  0  0  0  0  0  0  0  0  0  0
   -0.1182    9.5269    0.2596 H   0  0  0  0  0  0  0  0  0  0  0  0
    1.5906   10.0808    0.2596 H   0  0  0  0  0  0  0  0  0  0  0  0
  1  2  1  0
  2  3  1  0
  3  4  1  0
  4  5  1  0
  5  6  1  0
  6  7  1  0
  7  8  1  0
  7  9  1  0
  2 10  1  0
 10 11  1  0
 11 12  1  0
 12 13  1  0
 13 14  1  6
 13 15  1  0
 15 16  1  0
 16 17  1  0
 17 18  2  0
 18 19  1  0
 19 20  1  0
 20 21  1  0
 21 22  1  0
 22 23  1  0
 22 24  1  0
 24 25  1  0
 24 26  1  0
 19 27  1  0
 27 28  1  1
 27 29  1  0
 29 30  1  0
 30 31  1  0
 31 32  1  1
  7  5  1  0
 31 10  1  0
 31 13  1  0
 27 15  1  0
 24 18  1  0
  1 33  1  0
  1 34  1  0
  1 35  1  0
  2 36  1  1
  3 37  1  0
  3 38  1  0
  4 39  1  0
  4 40  1  0
  5 41  1  6
  8 42  1  0
  8 43  1  0
  8 44  1  0
  9 45  1  0
  9 46  1  0
  9 47  1  0
 10 48  1  6
 11 49  1  0
 11 50  1  0
 12 51  1  0
 12 52  1  0
 14 53  1  0
 14 54  1  0
 14 55  1  0
 15 56  1  1
 16 57  1  0
 16 58  1  0
 17 59  1  0
 19 60  1  6
 20 61  1  0
 20 62  1  0
 21 63  1  0
 21 64  1  0
 22 65  1  6
 23 66  1  0
 25 67  1  0
 25 68  1  0
 25 69  1  0
 26 70  1  0
 26 71  1  0
 26 72  1  0
 28 73  1  0
 28 74  1  0
 28 75  1  0
 29 76  1  0
 29 77  1  0
 30 78  1  0
 30 79  1  0
 32 80  1  0
 32 81  1  0
 32 82  1  0
M  END
>  <meeko>  (16) 
{"is_sidechain": [false], "intermolecular_energy": 2.731, "internal_energy": -0.839}

$$$$
EPH_relaxed_0001_pdb2pqr_Repair_137_r2_0001_out
     RDKit          3D

 82 86  0  0  0  0  0  0  0  0999 V2000
    2.6200    9.8330   -2.2830 C   0  0  0  0  0  0  0  0  0  0  0  0
    1.2750   10.0720   -1.5920 C   0  0  2  0  0  0  0  0  0  0  0  0
    0.0950   10.0220   -2.5830 C   0  0  0  0  0  0  0  0  0  0  0  0
   -0.7540    8.7540   -2.4640 C   0  0  0  0  0  0  0  0  0  0  0  0
   -2.0770    9.0310   -1.8160 C   0  0  2  0  0  0  0  0  0  0  0  0
   -2.3140   10.4110   -1.5060 O   0  0  0  0  0  0  0  0  0  0  0  0
   -2.2220    9.5160   -0.3850 C   0  0  0  0  0  0  0  0  0  0  0  0
   -1.0260    9.7500    0.4840 C   0  0  0  0  0  0  0  0  0  0  0  0
   -3.5250    9.2930    0.3170 C   0  0  0  0  0  0  0  0  0  0  0  0
    1.2930   11.4160   -0.8720 C   0  0  1  0  0  0  0  0  0  0  0  0
    2.1800   11.3990    0.4020 C   0  0  0  0  0  0  0  0  0  0  0  0
    2.8290   12.8020    0.5140 C   0  0  0  0  0  0  0  0  0  0  0  0
    2.0460   13.6750   -0.4940 C   0  0  1  0  0  0  0  0  0  0  0  0
    0.7390   14.0810    0.2560 C   0  0  0  0  0  0  0  0  0  0  0  0
    2.7990   14.9240   -1.0580 C   0  0  2  0  0  0  0  0  0  0  0  0
    3.1910   15.9790   -0.0070 C   0  0  0  0  0  0  0  0  0  0  0  0
    2.1770   17.0480    0.2310 C   0  0  0  0  0  0  0  0  0  0  0  0
    1.1290   17.3240   -0.5670 C   0  0  0  0  0  0  0  0  0  0  0  0
    0.9370   16.5870   -1.8980 C   0  0  1  0  0  0  0  0  0  0  0  0
    0.6050   17.6120   -3.0140 C   0  0  0  0  0  0  0  0  0  0  0  0
   -0.5860   18.4970   -2.6600 C   0  0  0  0  0  0  0  0  0  0  0  0
   -0.3340   19.2570   -1.3610 C   0  0  2  0  0  0  0  0  0  0  0  0
    0.7270   20.1940   -1.5740 O   0  0  0  0  0  0  0  0  0  0  0  0
    0.0200   18.3290   -0.1660 C   0  0  0  0  0  0  0  0  0  0  0  0
   -1.2340   17.5250    0.2580 C   0  0  0  0  0  0  0  0  0  0  0  0
    0.3890   19.2280    1.0440 C   0  0  0  0  0  0  0  0  0  0  0  0
    2.1030   15.5900   -2.3130 C   0  0  1  0  0  0  0  0  0  0  0  0
    3.2170   16.3640   -3.0820 C   0  0  0  0  0  0  0  0  0  0  0  0
    1.5320   14.5200   -3.3170 C   0  0  0  0  0  0  0  0  0  0  0  0
    0.9070   13.2530   -2.7020 C   0  0  0  0  0  0  0  0  0  0  0  0
    1.8390   12.6360   -1.6550 C   0  0  2  0  0  0  0  0  0  0  0  0
    3.1550   12.1970   -2.3850 C   0  0  0  0  0  0  0  0  0  0  0  0
    3.4030    9.6939   -1.5231 H   0  0  0  0  0  0  0  0  0  0  0  0
    2.5546    8.9324   -2.9112 H   0  0  0  0  0  0  0  0  0  0  0  0
    2.8688   10.7010   -2.9112 H   0  0  0  0  0  0  0  0  0  0  0  0
    1.1286    9.2607   -0.8637 H   0  0  0  0  0  0  0  0  0  0  0  0
   -0.5519   10.8920   -2.3971 H   0  0  0  0  0  0  0  0  0  0  0  0
    0.5247   10.0278   -3.5956 H   0  0  0  0  0  0  0  0  0  0  0  0
   -0.9286    8.3462   -3.4706 H   0  0  0  0  0  0  0  0  0  0  0  0
   -0.2087    8.0341   -1.8359 H   0  0  0  0  0  0  0  0  0  0  0  0
   -2.5470    8.2019   -2.3652 H   0  0  0  0  0  0  0  0  0  0  0  0
   -1.3239    9.6917    1.5413 H   0  0  0  0  0  0  0  0  0  0  0  0
   -0.2651    8.9837    0.2747 H   0  0  0  0  0  0  0  0  0  0  0  0
   -0.6100   10.7466    0.2747 H   0  0  0  0  0  0  0  0  0  0  0  0
   -3.3648    9.3204    1.4049 H   0  0  0  0  0  0  0  0  0  0  0  0
   -4.2354   10.0826    0.0310 H   0  0  0  0  0  0  0  0  0  0  0  0
   -3.9324    8.3121    0.0310 H   0  0  0  0  0  0  0  0  0  0  0  0
    0.2158   11.5398   -0.6865 H   0  0  0  0  0  0  0  0  0  0  0  0
    1.5637   11.1948    1.2899 H   0  0  0  0  0  0  0  0  0  0  0  0
    2.9470   10.6130    0.3387 H   0  0  0  0  0  0  0  0  0  0  0  0
    2.7238   13.1982    1.5347 H   0  0  0  0  0  0  0  0  0  0  0  0
    3.9075   12.7813    0.2986 H   0  0  0  0  0  0  0  0  0  0  0  0
    0.9079   14.0285    1.3417 H   0  0  0  0  0  0  0  0  0  0  0  0
    0.4604   15.1080   -0.0225 H   0  0  0  0  0  0  0  0  0  0  0  0
   -0.0725   13.3926   -0.0225 H   0  0  0  0  0  0  0  0  0  0  0  0
    3.7448   14.4882   -1.4124 H   0  0  0  0  0  0  0  0  0  0  0  0
    3.3679   15.4598    0.9465 H   0  0  0  0  0  0  0  0  0  0  0  0
    4.0824   16.4873   -0.4033 H   0  0  0  0  0  0  0  0  0  0  0  0
    2.2964   17.6625    1.1355 H   0  0  0  0  0  0  0  0  0  0  0  0
    0.0848   15.9076   -1.7492 H   0  0  0  0  0  0  0  0  0  0  0  0
    1.4842   18.2527   -3.1772 H   0  0  0  0  0  0  0  0  0  0  0  0
    0.3427   17.0459   -3.9200 H   0  0  0  0  0  0  0  0  0  0  0  0
   -0.7521   19.2190   -3.4730 H   0  0  0  0  0  0  0  0  0  0  0  0
   -1.4710   17.8575   -2.5265 H   0  0  0  0  0  0  0  0  0  0  0  0
   -1.2693   19.7697   -1.0922 H   0  0  0  0  0  0  0  0  0  0  0  0
    0.8560   20.6850   -0.7450 H   0  0  0  0  0  0  0  0  0  0  0  0
   -1.2919   17.4879    1.3559 H   0  0  0  0  0  0  0  0  0  0  0  0
   -2.1352   18.0141   -0.1404 H   0  0  0  0  0  0  0  0  0  0  0  0
   -1.1656   16.5019   -0.1404 H   0  0  0  0  0  0  0  0  0  0  0  0
    0.1691   18.6924    1.9793 H   0  0  0  0  0  0  0  0  0  0  0  0
    1.4606   19.4734    1.0052 H   0  0  0  0  0  0  0  0  0  0  0  0
   -0.2012   20.1555    1.0052 H   0  0  0  0  0  0  0  0  0  0  0  0
    3.8990   16.8378   -2.3606 H   0  0  0  0  0  0  0  0  0  0  0  0
    3.7814   15.6625   -3.7139 H   0  0  0  0  0  0  0  0  0  0  0  0
    2.7565   17.1377   -3.7139 H   0  0  0  0  0  0  0  0  0  0  0  0
    0.7573   15.0126   -3.9229 H   0  0  0  0  0  0  0  0  0  0  0  0
    2.4045   14.1638   -3.8844 H   0  0  0  0  0  0  0  0  0  0  0  0
   -0.0470   13.5183   -2.2230 H   0  0  0  0  0  0  0  0  0  0  0  0
    0.7435   12.5176   -3.5035 H   0  0  0  0  0  0  0  0  0  0  0  0
    3.9209   11.9415   -1.6380 H   0  0  0  0  0  0  0  0  0  0  0  0
    2.9495   11.3187   -3.0146 H   0  0  0  0  0  0  0  0  0  0  0  0
    3.5180   13.0227   -3.0146 H   0  0  0  0  0  0  0  0  0  0  0  0
  1  2  1  0
  2  3  1  0
  3  4  1  0
  4  5  1  0
  5  6  1  0
  6  7  1  0
  7  8  1  0
  7  9  1  0
  2 10  1  0
 10 11  1  0
 11 12  1  0
 12 13  1  0
 13 14  1  1
 13 15  1  0
 15 16  1  0
 16 17  1  0
 17 18  2  0
 18 19  1  0
 19 20  1  0
 20 21  1  0
 21 22  1  0
 22 23  1  0
 22 24  1  0
 24 25  1  0
 24 26  1  0
 19 27  1  0
 27 28  1  6
 27 29  1  0
 29 30  1  0
 30 31  1  0
 31 32  1  6
  7  5  1  0
 31 10  1  0
 31 13  1  0
 27 15  1  0
 24 18  1  0
  1 33  1  0
  1 34  1  0
  1 35  1  0
  2 36  1  1
  3 37  1  0
  3 38  1  0
  4 39  1  0
  4 40  1  0
  5 41  1  6
  8 42  1  0
  8 43  1  0
  8 44  1  0
  9 45  1  0
  9 46  1  0
  9 47  1  0
 10 48  1  1
 11 49  1  0
 11 50  1  0
 12 51  1  0
 12 52  1  0
 14 53  1  0
 14 54  1  0
 14 55  1  0
 15 56  1  6
 16 57  1  0
 16 58  1  0
 17 59  1  0
 19 60  1  1
 20 61  1  0
 20 62  1  0
 21 63  1  0
 21 64  1  0
 22 65  1  1
 23 66  1  0
 25 67  1  0
 25 68  1  0
 25 69  1  0
 26 70  1  0
 26 71  1  0
 26 72  1  0
 28 73  1  0
 28 74  1  0
 28 75  1  0
 29 76  1  0
 29 77  1  0
 30 78  1  0
 30 79  1  0
 32 80  1  0
 32 81  1  0
 32 82  1  0
M  END
>  <meeko>  (17) 
{"is_sidechain": [false], "intermolecular_energy": 2.731, "internal_energy": -0.839}

$$$$
EPH_relaxed_0001_pdb2pqr_Repair_137_r2_0001_out
     RDKit          3D

 82 86  0  0  0  0  0  0  0  0999 V2000
   -0.2100   10.3300   -2.2410 C   0  0  0  0  0  0  0  0  0  0  0  0
    0.6860   10.2280   -1.0030 C   0  0  2  0  0  0  0  0  0  0  0  0
   -0.1330   10.1490    0.3010 C   0  0  0  0  0  0  0  0  0  0  0  0
    0.6210   10.6600    1.5320 C   0  0  0  0  0  0  0  0  0  0  0  0
   -0.1380   11.7440    2.2360 C   0  0  2  0  0  0  0  0  0  0  0  0
    0.4640   13.0420    2.1620 O   0  0  0  0  0  0  0  0  0  0  0  0
    0.3770   12.4590    3.4720 C   0  0  0  0  0  0  0  0  0  0  0  0
    1.7030   12.1170    4.0750 C   0  0  0  0  0  0  0  0  0  0  0  0
   -0.6110   13.1370    4.3690 C   0  0  0  0  0  0  0  0  0  0  0  0
    1.6370   11.4170   -0.9510 C   0  0  1  0  0  0  0  0  0  0  0  0
    2.9860   11.1360   -1.6650 C   0  0  0  0  0  0  0  0  0  0  0  0
    3.4340   12.4690   -2.3170 C   0  0  0  0  0  0  0  0  0  0  0  0
    2.5140   13.5400   -1.6860 C   0  0  1  0  0  0  0  0  0  0  0  0
    3.1570   13.8560   -0.3000 C   0  0  0  0  0  0  0  0  0  0  0  0
    2.2880   14.8390   -2.5270 C   0  0  2  0  0  0  0  0  0  0  0  0
    3.5540   15.6700   -2.7970 C   0  0  0  0  0  0  0  0  0  0  0  0
    3.8580   16.7190   -1.7790 C   0  0  0  0  0  0  0  0  0  0  0  0
    3.0000   17.1760   -0.8480 C   0  0  0  0  0  0  0  0  0  0  0  0
    1.5420   16.6990   -0.8170 C   0  0  1  0  0  0  0  0  0  0  0  0
    0.6010   17.9210   -0.6500 C   0  0  0  0  0  0  0  0  0  0  0  0
    0.9610   18.7750    0.5620 C   0  0  0  0  0  0  0  0  0  0  0  0
    2.3990   19.2780    0.4670 C   0  0  2  0  0  0  0  0  0  0  0  0
    2.4950   20.1940   -0.6280 O   0  0  0  0  0  0  0  0  0  0  0  0
    3.4370   18.1360    0.2870 C   0  0  0  0  0  0  0  0  0  0  0  0
    3.5470   17.3200    1.5980 C   0  0  0  0  0  0  0  0  0  0  0  0
    4.8290   18.7860    0.0620 C   0  0  0  0  0  0  0  0  0  0  0  0
    1.0990   15.7470   -2.0100 C   0  0  1  0  0  0  0  0  0  0  0  0
    0.6300   16.6020   -3.2270 C   0  0  0  0  0  0  0  0  0  0  0  0
   -0.1470   14.9000   -1.5560 C   0  0  0  0  0  0  0  0  0  0  0  0
    0.1420   13.5690   -0.8360 C   0  0  0  0  0  0  0  0  0  0  0  0
    1.1650   12.7350   -1.6140 C   0  0  2  0  0  0  0  0  0  0  0  0
    0.5360   12.3830   -3.0050 C   0  0  0  0  0  0  0  0  0  0  0  0
   -1.2574   10.4492   -1.9268 H   0  0  0  0  0  0  0  0  0  0  0  0
    0.0935   11.1994   -2.8427 H   0  0  0  0  0  0  0  0  0  0  0  0
   -0.1096    9.4146   -2.8427 H   0  0  0  0  0  0  0  0  0  0  0  0
    1.2627    9.2950   -1.0869 H   0  0  0  0  0  0  0  0  0  0  0  0
   -1.0441   10.7526    0.1762 H   0  0  0  0  0  0  0  0  0  0  0  0
   -0.3553    9.0863    0.4777 H   0  0  0  0  0  0  0  0  0  0  0  0
    0.7754    9.8227    2.2285 H   0  0  0  0  0  0  0  0  0  0  0  0
    1.5825   11.0763    1.1971 H   0  0  0  0  0  0  0  0  0  0  0  0
   -1.0953   11.2495    2.0145 H   0  0  0  0  0  0  0  0  0  0  0  0
    1.6232   12.1376    5.1719 H   0  0  0  0  0  0  0  0  0  0  0  0
    2.0060   11.1113    3.7482 H   0  0  0  0  0  0  0  0  0  0  0  0
    2.4546   12.8507    3.7482 H   0  0  0  0  0  0  0  0  0  0  0  0
   -0.3406   12.9514    5.4190 H   0  0  0  0  0  0  0  0  0  0  0  0
   -0.6011   14.2195    4.1736 H   0  0  0  0  0  0  0  0  0  0  0  0
   -1.6174   12.7384    4.1736 H   0  0  0  0  0  0  0  0  0  0  0  0
    1.7076   11.5478    0.1389 H   0  0  0  0  0  0  0  0  0  0  0  0
    3.7376   10.7998   -0.9356 H   0  0  0  0  0  0  0  0  0  0  0  0
    2.8750   10.3447   -2.4209 H   0  0  0  0  0  0  0  0  0  0  0  0
    4.4890   12.6787   -2.0867 H   0  0  0  0  0  0  0  0  0  0  0  0
    3.3546   12.4444   -3.4139 H   0  0  0  0  0  0  0  0  0  0  0  0
    2.4813   13.5239    0.5019 H   0  0  0  0  0  0  0  0  0  0  0  0
    4.1177   13.3274   -0.2124 H   0  0  0  0  0  0  0  0  0  0  0  0
    3.3254   14.9395   -0.2124 H   0  0  0  0  0  0  0  0  0  0  0  0
    1.9812   14.4373   -3.5040 H   0  0  0  0  0  0  0  0  0  0  0  0
    4.4101   14.9806   -2.8406 H   0  0  0  0  0  0  0  0  0  0  0  0
    3.3708   16.2056   -3.7402 H   0  0  0  0  0  0  0  0  0  0  0  0
    4.8679   17.1550   -1.7908 H   0  0  0  0  0  0  0  0  0  0  0  0
    1.4563   16.0392    0.0589 H   0  0  0  0  0  0  0  0  0  0  0  0
    0.6691   18.5446   -1.5536 H   0  0  0  0  0  0  0  0  0  0  0  0
   -0.4192   17.5387   -0.4980 H   0  0  0  0  0  0  0  0  0  0  0  0
    0.2802   19.6377    0.6095 H   0  0  0  0  0  0  0  0  0  0  0  0
    0.8639   18.1581    1.4676 H   0  0  0  0  0  0  0  0  0  0  0  0
    2.6398   19.7718    1.4200 H   0  0  0  0  0  0  0  0  0  0  0  0
    2.9910   19.7520   -1.3380 H   0  0  0  0  0  0  0  0  0  0  0  0
    3.4557   17.9971    2.4601 H   0  0  0  0  0  0  0  0  0  0  0  0
    2.7416   16.5716    1.6327 H   0  0  0  0  0  0  0  0  0  0  0  0
    4.5218   16.8115    1.6327 H   0  0  0  0  0  0  0  0  0  0  0  0
    5.2939   19.0031    1.0350 H   0  0  0  0  0  0  0  0  0  0  0  0
    5.4696   18.0939   -0.5042 H   0  0  0  0  0  0  0  0  0  0  0  0
    4.7096   19.7215   -0.5042 H   0  0  0  0  0  0  0  0  0  0  0  0
    0.1305   17.5126   -2.8646 H   0  0  0  0  0  0  0  0  0  0  0  0
    1.5018   16.8802   -3.8374 H   0  0  0  0  0  0  0  0  0  0  0  0
   -0.0731   16.0163   -3.8374 H   0  0  0  0  0  0  0  0  0  0  0  0
   -0.7431   15.5244   -0.8742 H   0  0  0  0  0  0  0  0  0  0  0  0
   -0.6578   14.6175   -2.4884 H   0  0  0  0  0  0  0  0  0  0  0  0
    0.5396   13.7817    0.1673 H   0  0  0  0  0  0  0  0  0  0  0  0
   -0.7954   12.9977   -0.7658 H   0  0  0  0  0  0  0  0  0  0  0  0
   -0.4148   11.8509   -2.8534 H   0  0  0  0  0  0  0  0  0  0  0  0
    0.3519   13.3092   -3.5691 H   0  0  0  0  0  0  0  0  0  0  0  0
    1.2292   11.7417   -3.5691 H   0  0  0  0  0  0  0  0  0  0  0  0
  1  2  1  0
  2  3  1  0
  3  4  1  0
  4  5  1  0
  5  6  1  0
  6  7  1  0
  7  8  1  0
  7  9  1  0
  2 10  1  0
 10 11  1  0
 11 12  1  0
 12 13  1  0
 13 14  1  1
 13 15  1  0
 15 16  1  0
 16 17  1  0
 17 18  2  0
 18 19  1  0
 19 20  1  0
 20 21  1  0
 21 22  1  0
 22 23  1  0
 22 24  1  0
 24 25  1  0
 24 26  1  0
 19 27  1  0
 27 28  1  6
 27 29  1  0
 29 30  1  0
 30 31  1  0
 31 32  1  6
  7  5  1  0
 31 10  1  0
 31 13  1  0
 27 15  1  0
 24 18  1  0
  1 33  1  0
  1 34  1  0
  1 35  1  0
  2 36  1  6
  3 37  1  0
  3 38  1  0
  4 39  1  0
  4 40  1  0
  5 41  1  1
  8 42  1  0
  8 43  1  0
  8 44  1  0
  9 45  1  0
  9 46  1  0
  9 47  1  0
 10 48  1  1
 11 49  1  0
 11 50  1  0
 12 51  1  0
 12 52  1  0
 14 53  1  0
 14 54  1  0
 14 55  1  0
 15 56  1  6
 16 57  1  0
 16 58  1  0
 17 59  1  0
 19 60  1  1
 20 61  1  0
 20 62  1  0
 21 63  1  0
 21 64  1  0
 22 65  1  1
 23 66  1  0
 25 67  1  0
 25 68  1  0
 25 69  1  0
 26 70  1  0
 26 71  1  0
 26 72  1  0
 28 73  1  0
 28 74  1  0
 28 75  1  0
 29 76  1  0
 29 77  1  0
 30 78  1  0
 30 79  1  0
 32 80  1  0
 32 81  1  0
 32 82  1  0
M  END
>  <meeko>  (18) 
{"is_sidechain": [false], "intermolecular_energy": 2.731, "internal_energy": -0.839}

$$$$
EPH_relaxed_0001_pdb2pqr_Repair_137_r2_0001_out
     RDKit          3D

 82 86  0  0  0  0  0  0  0  0999 V2000
   -1.2930   10.4760    1.6450 C   0  0  0  0  0  0  0  0  0  0  0  0
   -1.9490   10.1760    0.2950 C   0  0  2  0  0  0  0  0  0  0  0  0
   -2.7770    8.8750    0.3280 C   0  0  0  0  0  0  0  0  0  0  0  0
   -4.1010    8.9690   -0.4360 C   0  0  0  0  0  0  0  0  0  0  0  0
   -4.6140    7.6150   -0.8240 C   0  0  2  0  0  0  0  0  0  0  0  0
   -4.7740    7.4180   -2.2350 O   0  0  0  0  0  0  0  0  0  0  0  0
   -5.9770    7.3850   -1.4490 C   0  0  0  0  0  0  0  0  0  0  0  0
   -6.9130    8.5210   -1.7210 C   0  0  0  0  0  0  0  0  0  0  0  0
   -6.5910    6.0240   -1.3440 C   0  0  0  0  0  0  0  0  0  0  0  0
   -0.8840   10.0880   -0.7920 C   0  0  1  0  0  0  0  0  0  0  0  0
   -1.3330    9.2220   -2.0000 C   0  0  0  0  0  0  0  0  0  0  0  0
   -0.7160    9.8670   -3.2670 C   0  0  0  0  0  0  0  0  0  0  0  0
    0.3260   10.8730   -2.7250 C   0  0  1  0  0  0  0  0  0  0  0  0
    1.5850   10.0090   -2.3980 C   0  0  0  0  0  0  0  0  0  0  0  0
    0.6780   12.0750   -3.6600 C   0  0  2  0  0  0  0  0  0  0  0  0
    1.3210   11.6900   -5.0040 C   0  0  0  0  0  0  0  0  0  0  0  0
    2.8130   11.6210   -5.0000 C   0  0  0  0  0  0  0  0  0  0  0  0
    3.6170   12.1300   -4.0480 C   0  0  0  0  0  0  0  0  0  0  0  0
    3.0410   12.9430   -2.8820 C   0  0  1  0  0  0  0  0  0  0  0  0
    3.8830   14.2310   -2.6830 C   0  0  0  0  0  0  0  0  0  0  0  0
    5.3700   13.9370   -2.5110 C   0  0  0  0  0  0  0  0  0  0  0  0
    5.9190   13.1780   -3.7160 C   0  0  2  0  0  0  0  0  0  0  0  0
    5.8780   14.0380   -4.8590 O   0  0  0  0  0  0  0  0  0  0  0  0
    5.1430   11.8660   -4.0200 C   0  0  0  0  0  0  0  0  0  0  0  0
    5.4350   10.8200   -2.9160 C   0  0  0  0  0  0  0  0  0  0  0  0
    5.7060   11.2730   -5.3400 C   0  0  0  0  0  0  0  0  0  0  0  0
    1.4800   13.2380   -2.9470 C   0  0  1  0  0  0  0  0  0  0  0  0
    1.2180   14.5330   -3.7750 C   0  0  0  0  0  0  0  0  0  0  0  0
    0.9510   13.5260   -1.4920 C   0  0  0  0  0  0  0  0  0  0  0  0
    0.5060   12.3070   -0.6610 C   0  0  0  0  0  0  0  0  0  0  0  0
   -0.4430   11.4120   -1.4640 C   0  0  2  0  0  0  0  0  0  0  0  0
   -1.7280   12.2470   -1.7880 C   0  0  0  0  0  0  0  0  0  0  0  0
   -1.9677   10.1674    2.4571 H   0  0  0  0  0  0  0  0  0  0  0  0
   -0.3464    9.9213    1.7240 H   0  0  0  0  0  0  0  0  0  0  0  0
   -1.0935   11.5549    1.7240 H   0  0  0  0  0  0  0  0  0  0  0  0
   -2.6405   11.0019    0.0722 H   0  0  0  0  0  0  0  0  0  0  0  0
   -2.1754    8.0690   -0.1174 H   0  0  0  0  0  0  0  0  0  0  0  0
   -3.0266    8.6791    1.3813 H   0  0  0  0  0  0  0  0  0  0  0  0
   -4.8473    9.4633    0.2033 H   0  0  0  0  0  0  0  0  0  0  0  0
   -3.9261    9.5462   -1.3559 H   0  0  0  0  0  0  0  0  0  0  0  0
   -4.1091    7.1506    0.0359 H   0  0  0  0  0  0  0  0  0  0  0  0
   -7.2621    8.9447   -0.7678 H   0  0  0  0  0  0  0  0  0  0  0  0
   -6.3892    9.2977   -2.2975 H   0  0  0  0  0  0  0  0  0  0  0  0
   -7.7755    8.1554   -2.2975 H   0  0  0  0  0  0  0  0  0  0  0  0
   -6.7115    5.7569   -0.2837 H   0  0  0  0  0  0  0  0  0  0  0  0
   -7.5751    6.0268   -1.8355 H   0  0  0  0  0  0  0  0  0  0  0  0
   -5.9377    5.2881   -1.8355 H   0  0  0  0  0  0  0  0  0  0  0  0
   -0.0543    9.6694   -0.2035 H   0  0  0  0  0  0  0  0  0  0  0  0
   -0.9675    8.1911   -1.8836 H   0  0  0  0  0  0  0  0  0  0  0  0
   -2.4300    9.1825   -2.0714 H   0  0  0  0  0  0  0  0  0  0  0  0
   -0.2302    9.1045   -3.8935 H   0  0  0  0  0  0  0  0  0  0  0  0
   -1.4742   10.3520   -3.8995 H   0  0  0  0  0  0  0  0  0  0  0  0
    1.7016    9.9290   -1.3071 H   0  0  0  0  0  0  0  0  0  0  0  0
    1.4620    9.0041   -2.8283 H   0  0  0  0  0  0  0  0  0  0  0  0
    2.4784   10.4852   -2.8283 H   0  0  0  0  0  0  0  0  0  0  0  0
   -0.3146   12.4784   -3.9089 H   0  0  0  0  0  0  0  0  0  0  0  0
    0.9357   10.7015   -5.2945 H   0  0  0  0  0  0  0  0  0  0  0  0
    1.0549   12.4909   -5.7095 H   0  0  0  0  0  0  0  0  0  0  0  0
    3.2957   11.1110   -5.8467 H   0  0  0  0  0  0  0  0  0  0  0  0
    3.1250   12.3012   -1.9926 H   0  0  0  0  0  0  0  0  0  0  0  0
    3.7509   14.8780   -3.5627 H   0  0  0  0  0  0  0  0  0  0  0  0
    3.5310   14.7213   -1.7634 H   0  0  0  0  0  0  0  0  0  0  0  0
    5.9148   14.8867   -2.4050 H   0  0  0  0  0  0  0  0  0  0  0  0
    5.5033   13.3148   -1.6137 H   0  0  0  0  0  0  0  0  0  0  0  0
    6.9514   12.8824   -3.4778 H   0  0  0  0  0  0  0  0  0  0  0  0
    4.9520   14.0980   -5.1490 H   0  0  0  0  0  0  0  0  0  0  0  0
    5.3053   11.2845   -1.9273 H   0  0  0  0  0  0  0  0  0  0  0  0
    4.7385    9.9748   -3.0182 H   0  0  0  0  0  0  0  0  0  0  0  0
    6.4686   10.4578   -3.0182 H   0  0  0  0  0  0  0  0  0  0  0  0
    6.4460   10.4936   -5.1056 H   0  0  0  0  0  0  0  0  0  0  0  0
    4.8841   10.8343   -5.9248 H   0  0  0  0  0  0  0  0  0  0  0  0
    6.1868   12.0711   -5.9248 H   0  0  0  0  0  0  0  0  0  0  0  0
    1.0472   15.3773   -3.0909 H   0  0  0  0  0  0  0  0  0  0  0  0
    2.0913   14.7457   -4.4091 H   0  0  0  0  0  0  0  0  0  0  0  0
    0.3307   14.3895   -4.4091 H   0  0  0  0  0  0  0  0  0  0  0  0
    1.7570   14.0299   -0.9384 H   0  0  0  0  0  0  0  0  0  0  0  0
    0.0408   14.1280   -1.6304 H   0  0  0  0  0  0  0  0  0  0  0  0
    1.3935   11.7240   -0.3739 H   0  0  0  0  0  0  0  0  0  0  0  0
   -0.0243   12.6670    0.2329 H   0  0  0  0  0  0  0  0  0  0  0  0
   -2.2087   12.5594   -0.8492 H   0  0  0  0  0  0  0  0  0  0  0  0
   -1.4495   13.1371   -2.3712 H   0  0  0  0  0  0  0  0  0  0  0  0
   -2.4282   11.6309   -2.3712 H   0  0  0  0  0  0  0  0  0  0  0  0
  1  2  1  0
  2  3  1  0
  3  4  1  0
  4  5  1  0
  5  6  1  0
  6  7  1  0
  7  8  1  0
  7  9  1  0
  2 10  1  0
 10 11  1  0
 11 12  1  0
 12 13  1  0
 13 14  1  1
 13 15  1  0
 15 16  1  0
 16 17  1  0
 17 18  2  0
 18 19  1  0
 19 20  1  0
 20 21  1  0
 21 22  1  0
 22 23  1  0
 22 24  1  0
 24 25  1  0
 24 26  1  0
 19 27  1  0
 27 28  1  6
 27 29  1  0
 29 30  1  0
 30 31  1  0
 31 32  1  6
  7  5  1  0
 31 10  1  0
 31 13  1  0
 27 15  1  0
 24 18  1  0
  1 33  1  0
  1 34  1  0
  1 35  1  0
  2 36  1  6
  3 37  1  0
  3 38  1  0
  4 39  1  0
  4 40  1  0
  5 41  1  1
  8 42  1  0
  8 43  1  0
  8 44  1  0
  9 45  1  0
  9 46  1  0
  9 47  1  0
 10 48  1  1
 11 49  1  0
 11 50  1  0
 12 51  1  0
 12 52  1  0
 14 53  1  0
 14 54  1  0
 14 55  1  0
 15 56  1  6
 16 57  1  0
 16 58  1  0
 17 59  1  0
 19 60  1  1
 20 61  1  0
 20 62  1  0
 21 63  1  0
 21 64  1  0
 22 65  1  1
 23 66  1  0
 25 67  1  0
 25 68  1  0
 25 69  1  0
 26 70  1  0
 26 71  1  0
 26 72  1  0
 28 73  1  0
 28 74  1  0
 28 75  1  0
 29 76  1  0
 29 77  1  0
 30 78  1  0
 30 79  1  0
 32 80  1  0
 32 81  1  0
 32 82  1  0
M  END
>  <meeko>  (19) 
{"is_sidechain": [false], "intermolecular_energy": 2.731, "internal_energy": -0.839}

$$$$
EPH_relaxed_0001_pdb2pqr_Repair_137_r2_0001_out
     RDKit          3D

 82 86  0  0  0  0  0  0  0  0999 V2000
    0.5740   10.4250   -3.0340 C   0  0  0  0  0  0  0  0  0  0  0  0
    1.8590   10.2370   -2.2230 C   0  0  2  0  0  0  0  0  0  0  0  0
    1.5990    9.5250   -0.8800 C   0  0  0  0  0  0  0  0  0  0  0  0
    0.5300   10.2050   -0.0210 C   0  0  0  0  0  0  0  0  0  0  0  0
   -0.7270    9.3910    0.0450 C   0  0  2  0  0  0  0  0  0  0  0  0
   -1.2230    8.9520   -1.2270 O   0  0  0  0  0  0  0  0  0  0  0  0
   -2.0610    9.8660   -0.5020 C   0  0  0  0  0  0  0  0  0  0  0  0
   -2.2040   11.2060   -1.1530 C   0  0  0  0  0  0  0  0  0  0  0  0
   -3.3140    9.2440    0.0300 C   0  0  0  0  0  0  0  0  0  0  0  0
    2.5210   11.5880   -1.9780 C   0  0  1  0  0  0  0  0  0  0  0  0
    3.8930   11.7190   -2.6910 C   0  0  0  0  0  0  0  0  0  0  0  0
    4.0270   13.1990   -3.1340 C   0  0  0  0  0  0  0  0  0  0  0  0
    2.8960   13.9360   -2.3800 C   0  0  1  0  0  0  0  0  0  0  0  0
    3.4640   14.1820   -0.9470 C   0  0  0  0  0  0  0  0  0  0  0  0
    2.3780   15.2600   -3.0310 C   0  0  2  0  0  0  0  0  0  0  0  0
    3.4250   16.3820   -3.1480 C   0  0  0  0  0  0  0  0  0  0  0  0
    3.4950   17.3130   -1.9830 C   0  0  0  0  0  0  0  0  0  0  0  0
    2.5640   17.4280   -1.0170 C   0  0  0  0  0  0  0  0  0  0  0  0
    1.2500   16.6400   -1.0910 C   0  0  1  0  0  0  0  0  0  0  0  0
    0.0610   17.5850   -0.7740 C   0  0  0  0  0  0  0  0  0  0  0  0
    0.2310   18.3120    0.5570 C   0  0  0  0  0  0  0  0  0  0  0  0
    1.5200   19.1300    0.5700 C   0  0  2  0  0  0  0  0  0  0  0  0
    1.4000   20.1940   -0.3800 O   0  0  0  0  0  0  0  0  0  0  0  0
    2.7860   18.2860    0.2530 C   0  0  0  0  0  0  0  0  0  0  0  0
    3.0860   17.3330    1.4370 C   0  0  0  0  0  0  0  0  0  0  0  0
    3.9950   19.2550    0.1590 C   0  0  0  0  0  0  0  0  0  0  0  0
    1.0210   15.7970   -2.4190 C   0  0  1  0  0  0  0  0  0  0  0  0
    0.3630   16.6930   -3.5120 C   0  0  0  0  0  0  0  0  0  0  0  0
   -0.0010   14.6370   -2.1210 C   0  0  0  0  0  0  0  0  0  0  0  0
    0.5840   13.3130   -1.5920 C   0  0  0  0  0  0  0  0  0  0  0  0
    1.7610   12.8500   -2.4560 C   0  0  2  0  0  0  0  0  0  0  0  0
    1.2160   12.5730   -3.8990 C   0  0  0  0  0  0  0  0  0  0  0  0
   -0.2773   10.5495   -2.3486 H   0  0  0  0  0  0  0  0  0  0  0  0
    0.6681   11.3189   -3.6680 H   0  0  0  0  0  0  0  0  0  0  0  0
    0.4080    9.5416   -3.6680 H   0  0  0  0  0  0  0  0  0  0  0  0
    2.5314    9.5953   -2.8114 H   0  0  0  0  0  0  0  0  0  0  0  0
    1.2731    8.4956   -1.0899 H   0  0  0  0  0  0  0  0  0  0  0  0
    2.5394    9.5590   -0.3103 H   0  0  0  0  0  0  0  0  0  0  0  0
    0.9227   10.3381    0.9979 H   0  0  0  0  0  0  0  0  0  0  0  0
    0.2872   11.1751   -0.4792 H   0  0  0  0  0  0  0  0  0  0  0  0
   -0.4353    8.9755    1.0208 H   0  0  0  0  0  0  0  0  0  0  0  0
   -2.2869   11.9829   -0.3787 H   0  0  0  0  0  0  0  0  0  0  0  0
   -1.3220   11.4053   -1.7794 H   0  0  0  0  0  0  0  0  0  0  0  0
   -3.1082   11.2147   -1.7794 H   0  0  0  0  0  0  0  0  0  0  0  0
   -3.2908    9.2555    1.1297 H   0  0  0  0  0  0  0  0  0  0  0  0
   -4.1854    9.8141   -0.3243 H   0  0  0  0  0  0  0  0  0  0  0  0
   -3.3867    8.2052   -0.3243 H   0  0  0  0  0  0  0  0  0  0  0  0
    2.5693   11.5727   -0.8792 H   0  0  0  0  0  0  0  0  0  0  0  0
    4.7063   11.4556   -1.9988 H   0  0  0  0  0  0  0  0  0  0  0  0
    3.9558   11.0408   -3.5548 H   0  0  0  0  0  0  0  0  0  0  0  0
    5.0102   13.6020   -2.8494 H   0  0  0  0  0  0  0  0  0  0  0  0
    3.9468   13.3168   -4.2247 H   0  0  0  0  0  0  0  0  0  0  0  0
    2.7238   13.8614   -0.1992 H   0  0  0  0  0  0  0  0  0  0  0  0
    4.3912   13.6048   -0.8160 H   0  0  0  0  0  0  0  0  0  0  0  0
    3.6773   15.2531   -0.8160 H   0  0  0  0  0  0  0  0  0  0  0  0
    2.1595   14.9457   -4.0622 H   0  0  0  0  0  0  0  0  0  0  0  0
    4.4130   15.9137   -3.2687 H   0  0  0  0  0  0  0  0  0  0  0  0
    3.1196   16.9946   -4.0091 H   0  0  0  0  0  0  0  0  0  0  0  0
    4.3818   17.9594   -1.9074 H   0  0  0  0  0  0  0  0  0  0  0  0
    1.3211   15.8575   -0.3211 H   0  0  0  0  0  0  0  0  0  0  0  0
   -0.0190   18.3328   -1.5767 H   0  0  0  0  0  0  0  0  0  0  0  0
   -0.8469   16.9679   -0.7042 H   0  0  0  0  0  0  0  0  0  0  0  0
   -0.6247   18.9858    0.7113 H   0  0  0  0  0  0  0  0  0  0  0  0
    0.2811   17.5642    1.3621 H   0  0  0  0  0  0  0  0  0  0  0  0
    1.6522   19.5205    1.5898 H   0  0  0  0  0  0  0  0  0  0  0  0
    0.8280   20.8750    0.0120 H   0  0  0  0  0  0  0  0  0  0  0  0
    2.9190   17.8635    2.3861 H   0  0  0  0  0  0  0  0  0  0  0  0
    2.4193   16.4597    1.3828 H   0  0  0  0  0  0  0  0  0  0  0  0
    4.1327   16.9991    1.3828 H   0  0  0  0  0  0  0  0  0  0  0  0
    4.3296   19.5232    1.1720 H   0  0  0  0  0  0  0  0  0  0  0  0
    4.8178   18.7634   -0.3808 H   0  0  0  0  0  0  0  0  0  0  0  0
    3.6944   20.1651   -0.3808 H   0  0  0  0  0  0  0  0  0  0  0  0
   -0.2221   17.4898   -3.0296 H   0  0  0  0  0  0  0  0  0  0  0  0
    1.1473   17.1423   -4.1388 H   0  0  0  0  0  0  0  0  0  0  0  0
   -0.3005   16.0791   -4.1388 H   0  0  0  0  0  0  0  0  0  0  0  0
   -0.7157   15.0078   -1.3715 H   0  0  0  0  0  0  0  0  0  0  0  0
   -0.4435   14.3863   -3.0963 H   0  0  0  0  0  0  0  0  0  0  0  0
    0.9320   13.4606   -0.5590 H   0  0  0  0  0  0  0  0  0  0  0  0
   -0.2013   12.5435   -1.6274 H   0  0  0  0  0  0  0  0  0  0  0  0
    0.2372   12.0755   -3.8320 H   0  0  0  0  0  0  0  0  0  0  0  0
    1.1072   13.5252   -4.4389 H   0  0  0  0  0  0  0  0  0  0  0  0
    1.9211   11.9239   -4.4389 H   0  0  0  0  0  0  0  0  0  0  0  0
  1  2  1  0
  2  3  1  0
  3  4  1  0
  4  5  1  0
  5  6  1  0
  6  7  1  0
  7  8  1  0
  7  9  1  0
  2 10  1  0
 10 11  1  0
 11 12  1  0
 12 13  1  0
 13 14  1  1
 13 15  1  0
 15 16  1  0
 16 17  1  0
 17 18  2  0
 18 19  1  0
 19 20  1  0
 20 21  1  0
 21 22  1  0
 22 23  1  0
 22 24  1  0
 24 25  1  0
 24 26  1  0
 19 27  1  0
 27 28  1  6
 27 29  1  0
 29 30  1  0
 30 31  1  0
 31 32  1  6
  7  5  1  0
 31 10  1  0
 31 13  1  0
 27 15  1  0
 24 18  1  0
  1 33  1  0
  1 34  1  0
  1 35  1  0
  2 36  1  6
  3 37  1  0
  3 38  1  0
  4 39  1  0
  4 40  1  0
  5 41  1  1
  8 42  1  0
  8 43  1  0
  8 44  1  0
  9 45  1  0
  9 46  1  0
  9 47  1  0
 10 48  1  1
 11 49  1  0
 11 50  1  0
 12 51  1  0
 12 52  1  0
 14 53  1  0
 14 54  1  0
 14 55  1  0
 15 56  1  6
 16 57  1  0
 16 58  1  0
 17 59  1  0
 19 60  1  1
 20 61  1  0
 20 62  1  0
 21 63  1  0
 21 64  1  0
 22 65  1  1
 23 66  1  0
 25 67  1  0
 25 68  1  0
 25 69  1  0
 26 70  1  0
 26 71  1  0
 26 72  1  0
 28 73  1  0
 28 74  1  0
 28 75  1  0
 29 76  1  0
 29 77  1  0
 30 78  1  0
 30 79  1  0
 32 80  1  0
 32 81  1  0
 32 82  1  0
M  END
>  <meeko>  (20) 
{"is_sidechain": [false], "intermolecular_energy": 2.731, "internal_energy": -0.839}

$$$$
