EPH_relaxed_0001_pdb2pqr_Repair_239_r2_0001_out
     RDKit          3D

 82 86  0  0  0  0  0  0  0  0999 V2000
   -1.7180    8.5860   -1.8750 C   0  0  0  0  0  0  0  0  0  0  0  0
   -2.0960    9.1050   -0.4850 C   0  0  2  0  0  0  0  0  0  0  0  0
   -3.5910    9.4700   -0.3880 C   0  0  0  0  0  0  0  0  0  0  0  0
   -4.5120    8.2580   -0.2260 C   0  0  0  0  0  0  0  0  0  0  0  0
   -5.2140    7.9200   -1.5060 C   0  0  2  0  0  0  0  0  0  0  0  0
   -6.3530    8.7400   -1.7990 O   0  0  0  0  0  0  0  0  0  0  0  0
   -6.6180    7.3480   -1.5650 C   0  0  0  0  0  0  0  0  0  0  0  0
   -7.4040    7.0800   -0.3190 C   0  0  0  0  0  0  0  0  0  0  0  0
   -7.0350    6.5990   -2.7910 C   0  0  0  0  0  0  0  0  0  0  0  0
   -1.2400   10.3150   -0.1310 C   0  0  1  0  0  0  0  0  0  0  0  0
   -0.2170   10.0140    0.9970 C   0  0  0  0  0  0  0  0  0  0  0  0
    1.0550   10.8420    0.6790 C   0  0  0  0  0  0  0  0  0  0  0  0
    0.6100   11.8350   -0.4200 C   0  0  1  0  0  0  0  0  0  0  0  0
   -0.1030   12.9910    0.3490 C   0  0  0  0  0  0  0  0  0  0  0  0
    1.7360   12.3760   -1.3600 C   0  0  2  0  0  0  0  0  0  0  0  0
    2.8340   13.1950   -0.6590 C   0  0  0  0  0  0  0  0  0  0  0  0
    2.5810   14.6640   -0.5810 C   0  0  0  0  0  0  0  0  0  0  0  0
    1.6630   15.3390   -1.2980 C   0  0  0  0  0  0  0  0  0  0  0  0
    0.8270   14.6320   -2.3720 C   0  0  1  0  0  0  0  0  0  0  0  0
    0.8090   15.4910   -3.6630 C   0  0  0  0  0  0  0  0  0  0  0  0
    0.3420   16.9210   -3.4090 C   0  0  0  0  0  0  0  0  0  0  0  0
    1.2340   17.6100   -2.3790 C   0  0  2  0  0  0  0  0  0  0  0  0
    2.5400   17.7780   -2.9390 O   0  0  0  0  0  0  0  0  0  0  0  0
    1.3370   16.8300   -1.0380 C   0  0  0  0  0  0  0  0  0  0  0  0
   -0.0150   16.9080   -0.2860 C   0  0  0  0  0  0  0  0  0  0  0  0
    2.3740   17.5580   -0.1410 C   0  0  0  0  0  0  0  0  0  0  0  0
    1.2020   13.1130   -2.6540 C   0  0  1  0  0  0  0  0  0  0  0  0
    2.3430   13.0350   -3.7140 C   0  0  0  0  0  0  0  0  0  0  0  0
   -0.0430   12.3850   -3.2860 C   0  0  0  0  0  0  0  0  0  0  0  0
   -1.0590   11.7680   -2.3060 C   0  0  0  0  0  0  0  0  0  0  0  0
   -0.3520   10.9110   -1.2520 C   0  0  2  0  0  0  0  0  0  0  0  0
    0.3560    9.7270   -1.9940 C   0  0  0  0  0  0  0  0  0  0  0  0
   -1.0732    7.7007   -1.7730 H   0  0  0  0  0  0  0  0  0  0  0  0
   -2.6306    8.3135   -2.4253 H   0  0  0  0  0  0  0  0  0  0  0  0
   -1.1786    9.3710   -2.4253 H   0  0  0  0  0  0  0  0  0  0  0  0
   -1.9073    8.2937    0.2335 H   0  0  0  0  0  0  0  0  0  0  0  0
   -3.7313   10.1311    0.4799 H   0  0  0  0  0  0  0  0  0  0  0  0
   -3.8648    9.9569   -1.3356 H   0  0  0  0  0  0  0  0  0  0  0  0
   -3.9104    7.3929    0.0898 H   0  0  0  0  0  0  0  0  0  0  0  0
   -5.2739    8.5048    0.5280 H   0  0  0  0  0  0  0  0  0  0  0  0
   -4.2677    7.6020   -1.9680 H   0  0  0  0  0  0  0  0  0  0  0  0
   -6.7797    7.2929    0.5613 H   0  0  0  0  0  0  0  0  0  0  0  0
   -8.2947    7.7252   -0.3015 H   0  0  0  0  0  0  0  0  0  0  0  0
   -7.7150    6.0250   -0.3015 H   0  0  0  0  0  0  0  0  0  0  0  0
   -7.5506    5.6728   -2.4972 H   0  0  0  0  0  0  0  0  0  0  0  0
   -7.7152    7.2236   -3.3886 H   0  0  0  0  0  0  0  0  0  0  0  0
   -6.1458    6.3498   -3.3886 H   0  0  0  0  0  0  0  0  0  0  0  0
   -2.0325   11.0281    0.1399 H   0  0  0  0  0  0  0  0  0  0  0  0
   -0.6294   10.3124    1.9721 H   0  0  0  0  0  0  0  0  0  0  0  0
    0.0128    8.9394    1.0457 H   0  0  0  0  0  0  0  0  0  0  0  0
    1.4005   11.3817    1.5731 H   0  0  0  0  0  0  0  0  0  0  0  0
    1.8941   10.2092    0.3542 H   0  0  0  0  0  0  0  0  0  0  0  0
   -0.0023   12.8277    1.4321 H   0  0  0  0  0  0  0  0  0  0  0  0
    0.3598   13.9515    0.0784 H   0  0  0  0  0  0  0  0  0  0  0  0
   -1.1691   13.0085    0.0784 H   0  0  0  0  0  0  0  0  0  0  0  0
    2.2245   11.4506   -1.6990 H   0  0  0  0  0  0  0  0  0  0  0  0
    2.9401   12.8133    0.3672 H   0  0  0  0  0  0  0  0  0  0  0  0
    3.7409   13.0741   -1.2696 H   0  0  0  0  0  0  0  0  0  0  0  0
    3.1968   15.2442    0.1219 H   0  0  0  0  0  0  0  0  0  0  0  0
   -0.1909   14.5534   -1.9624 H   0  0  0  0  0  0  0  0  0  0  0  0
    1.8263   15.5214   -4.0803 H   0  0  0  0  0  0  0  0  0  0  0  0
    0.0977   15.0272   -4.3622 H   0  0  0  0  0  0  0  0  0  0  0  0
    0.3792   17.4851   -4.3526 H   0  0  0  0  0  0  0  0  0  0  0  0
   -0.6864   16.8912   -3.0198 H   0  0  0  0  0  0  0  0  0  0  0  0
    0.7751   18.5813   -2.1425 H   0  0  0  0  0  0  0  0  0  0  0  0
    2.7000   17.0330   -3.5420 H   0  0  0  0  0  0  0  0  0  0  0  0
    0.1676   16.8975    0.7987 H   0  0  0  0  0  0  0  0  0  0  0  0
   -0.5346   17.8376   -0.5613 H   0  0  0  0  0  0  0  0  0  0  0  0
   -0.6381   16.0443   -0.5613 H   0  0  0  0  0  0  0  0  0  0  0  0
    2.1285   17.3856    0.9173 H   0  0  0  0  0  0  0  0  0  0  0  0
    3.3802   17.1670   -0.3524 H   0  0  0  0  0  0  0  0  0  0  0  0
    2.3481   18.6372   -0.3524 H   0  0  0  0  0  0  0  0  0  0  0  0
    3.3146   12.9686   -3.2026 H   0  0  0  0  0  0  0  0  0  0  0  0
    2.1984   12.1446   -4.3436 H   0  0  0  0  0  0  0  0  0  0  0  0
    2.3209   13.9368   -4.3436 H   0  0  0  0  0  0  0  0  0  0  0  0
   -0.5803   13.1201   -3.9031 H   0  0  0  0  0  0  0  0  0  0  0  0
    0.3741   11.5326   -3.8422 H   0  0  0  0  0  0  0  0  0  0  0  0
   -1.6099   12.5761   -1.8025 H   0  0  0  0  0  0  0  0  0  0  0  0
   -1.7497   11.1272   -2.8737 H   0  0  0  0  0  0  0  0  0  0  0  0
    0.7738    9.0282   -1.2543 H   0  0  0  0  0  0  0  0  0  0  0  0
   -0.3752    9.1997   -2.6244 H   0  0  0  0  0  0  0  0  0  0  0  0
    1.1665   10.1216   -2.6244 H   0  0  0  0  0  0  0  0  0  0  0  0
  1  2  1  0
  2  3  1  0
  3  4  1  0
  4  5  1  0
  5  6  1  0
  6  7  1  0
  7  8  1  0
  7  9  1  0
  2 10  1  0
 10 11  1  0
 11 12  1  0
 12 13  1  0
 13 14  1  1
 13 15  1  0
 15 16  1  0
 16 17  1  0
 17 18  2  0
 18 19  1  0
 19 20  1  0
 20 21  1  0
 21 22  1  0
 22 23  1  0
 22 24  1  0
 24 25  1  0
 24 26  1  0
 19 27  1  0
 27 28  1  6
 27 29  1  0
 29 30  1  0
 30 31  1  0
 31 32  1  6
  7  5  1  0
 31 10  1  0
 31 13  1  0
 27 15  1  0
 24 18  1  0
  1 33  1  0
  1 34  1  0
  1 35  1  0
  2 36  1  1
  3 37  1  0
  3 38  1  0
  4 39  1  0
  4 40  1  0
  5 41  1  6
  8 42  1  0
  8 43  1  0
  8 44  1  0
  9 45  1  0
  9 46  1  0
  9 47  1  0
 10 48  1  1
 11 49  1  0
 11 50  1  0
 12 51  1  0
 12 52  1  0
 14 53  1  0
 14 54  1  0
 14 55  1  0
 15 56  1  6
 16 57  1  0
 16 58  1  0
 17 59  1  0
 19 60  1  1
 20 61  1  0
 20 62  1  0
 21 63  1  0
 21 64  1  0
 22 65  1  1
 23 66  1  0
 25 67  1  0
 25 68  1  0
 25 69  1  0
 26 70  1  0
 26 71  1  0
 26 72  1  0
 28 73  1  0
 28 74  1  0
 28 75  1  0
 29 76  1  0
 29 77  1  0
 30 78  1  0
 30 79  1  0
 32 80  1  0
 32 81  1  0
 32 82  1  0
M  END
>  <meeko>  (1) 
{"is_sidechain": [false], "intermolecular_energy": 2.731, "internal_energy": -0.839}

$$$$
EPH_relaxed_0001_pdb2pqr_Repair_239_r2_0001_out
     RDKit          3D

 82 86  0  0  0  0  0  0  0  0999 V2000
    4.2110   17.5660   -0.5400 C   0  0  0  0  0  0  0  0  0  0  0  0
    2.8470   18.1340   -0.1390 C   0  0  2  0  0  0  0  0  0  0  0  0
    2.8880   18.8280    1.2370 C   0  0  0  0  0  0  0  0  0  0  0  0
    4.2640   18.7860    1.9060 C   0  0  0  0  0  0  0  0  0  0  0  0
    4.2030   19.2520    3.3300 C   0  0  2  0  0  0  0  0  0  0  0  0
    5.2190   20.1940    3.6950 O   0  0  0  0  0  0  0  0  0  0  0  0
    5.2630   18.9230    4.3640 C   0  0  0  0  0  0  0  0  0  0  0  0
    6.4600   18.0940    4.0190 C   0  0  0  0  0  0  0  0  0  0  0  0
    4.8940   18.9920    5.8130 C   0  0  0  0  0  0  0  0  0  0  0  0
    1.8040   17.0230   -0.1310 C   0  0  1  0  0  0  0  0  0  0  0  0
    0.3750   17.5430   -0.4430 C   0  0  0  0  0  0  0  0  0  0  0  0
   -0.3410   16.4280   -1.2490 C   0  0  0  0  0  0  0  0  0  0  0  0
    0.5680   15.1870   -1.0910 C   0  0  1  0  0  0  0  0  0  0  0  0
    0.1960   14.5920    0.3030 C   0  0  0  0  0  0  0  0  0  0  0  0
    0.4730   14.1120   -2.2220 C   0  0  2  0  0  0  0  0  0  0  0  0
   -0.9040   13.4430   -2.3710 C   0  0  0  0  0  0  0  0  0  0  0  0
   -1.1020   12.2030   -1.5630 C   0  0  0  0  0  0  0  0  0  0  0  0
   -0.1250   11.4910   -0.9720 C   0  0  0  0  0  0  0  0  0  0  0  0
    1.3500   11.8610   -1.1700 C   0  0  1  0  0  0  0  0  0  0  0  0
    2.1670   10.5820   -1.4890 C   0  0  0  0  0  0  0  0  0  0  0  0
    1.9760    9.4890   -0.4410 C   0  0  0  0  0  0  0  0  0  0  0  0
    0.5040    9.1070   -0.3140 C   0  0  2  0  0  0  0  0  0  0  0  0
    0.0830    8.4820   -1.5310 O   0  0  0  0  0  0  0  0  0  0  0  0
   -0.4190   10.3180   -0.0030 C   0  0  0  0  0  0  0  0  0  0  0  0
   -0.1660   10.8080    1.4440 C   0  0  0  0  0  0  0  0  0  0  0  0
   -1.8890    9.8210   -0.0420 C   0  0  0  0  0  0  0  0  0  0  0  0
    1.6370   13.0400   -2.1970 C   0  0  1  0  0  0  0  0  0  0  0  0
    1.7480   12.4700   -3.6440 C   0  0  0  0  0  0  0  0  0  0  0  0
    3.0350   13.6830   -1.8650 C   0  0  0  0  0  0  0  0  0  0  0  0
    3.0470   14.8220   -0.8270 C   0  0  0  0  0  0  0  0  0  0  0  0
    1.9820   15.8720   -1.1540 C   0  0  2  0  0  0  0  0  0  0  0  0
    2.3430   16.5050   -2.5410 C   0  0  0  0  0  0  0  0  0  0  0  0
    4.7884   17.3255    0.3648 H   0  0  0  0  0  0  0  0  0  0  0  0
    4.0670   16.6530   -1.1365 H   0  0  0  0  0  0  0  0  0  0  0  0
    4.7576   18.3113   -1.1365 H   0  0  0  0  0  0  0  0  0  0  0  0
    2.5738   18.8956   -0.8842 H   0  0  0  0  0  0  0  0  0  0  0  0
    2.5985   19.8808    1.1038 H   0  0  0  0  0  0  0  0  0  0  0  0
    2.1944   18.2821    1.8934 H   0  0  0  0  0  0  0  0  0  0  0  0
    4.6391   17.7522    1.8850 H   0  0  0  0  0  0  0  0  0  0  0  0
    4.9347   19.4601    1.3531 H   0  0  0  0  0  0  0  0  0  0  0  0
    3.1074   19.1538    3.3400 H   0  0  0  0  0  0  0  0  0  0  0  0
    6.9499   17.7547    4.9436 H   0  0  0  0  0  0  0  0  0  0  0  0
    6.1437   17.2206    3.4299 H   0  0  0  0  0  0  0  0  0  0  0  0
    7.1664   18.6973    3.4299 H   0  0  0  0  0  0  0  0  0  0  0  0
    5.7905   18.8244    6.4280 H   0  0  0  0  0  0  0  0  0  0  0  0
    4.4753   19.9840    6.0379 H   0  0  0  0  0  0  0  0  0  0  0  0
    4.1451   18.2183    6.0379 H   0  0  0  0  0  0  0  0  0  0  0  0
    1.9472   16.6434    0.8915 H   0  0  0  0  0  0  0  0  0  0  0  0
   -0.1682   17.7424    0.4925 H   0  0  0  0  0  0  0  0  0  0  0  0
    0.4125   18.4818   -1.0151 H   0  0  0  0  0  0  0  0  0  0  0  0
   -1.3414   16.2317   -0.8359 H   0  0  0  0  0  0  0  0  0  0  0  0
   -0.4890   16.7050   -2.3032 H   0  0  0  0  0  0  0  0  0  0  0  0
    0.5997   15.2377    1.0968 H   0  0  0  0  0  0  0  0  0  0  0  0
   -0.8985   14.5356    0.3974 H   0  0  0  0  0  0  0  0  0  0  0  0
    0.6246   13.5833    0.3974 H   0  0  0  0  0  0  0  0  0  0  0  0
    0.6132   14.7136   -3.1322 H   0  0  0  0  0  0  0  0  0  0  0  0
   -1.6704   14.1718   -2.0684 H   0  0  0  0  0  0  0  0  0  0  0  0
   -0.9801   13.1350   -3.4243 H   0  0  0  0  0  0  0  0  0  0  0  0
   -2.1335   11.8410   -1.4406 H   0  0  0  0  0  0  0  0  0  0  0  0
    1.6865   12.2898   -0.2146 H   0  0  0  0  0  0  0  0  0  0  0  0
    1.8459   10.1932   -2.4666 H   0  0  0  0  0  0  0  0  0  0  0  0
    3.2317   10.8583   -1.4931 H   0  0  0  0  0  0  0  0  0  0  0  0
    2.5541    8.6013   -0.7371 H   0  0  0  0  0  0  0  0  0  0  0  0
    2.3254    9.8689    0.5304 H   0  0  0  0  0  0  0  0  0  0  0  0
    0.4150    8.4176    0.5386 H   0  0  0  0  0  0  0  0  0  0  0  0
    0.6900    8.7700   -2.2340 H   0  0  0  0  0  0  0  0  0  0  0  0
   -0.5507   10.0629    2.1560 H   0  0  0  0  0  0  0  0  0  0  0  0
    0.9143   10.9425    1.6020 H   0  0  0  0  0  0  0  0  0  0  0  0
   -0.6818   11.7666    1.6020 H   0  0  0  0  0  0  0  0  0  0  0  0
   -2.2609    9.6953    0.9856 H   0  0  0  0  0  0  0  0  0  0  0  0
   -2.5116   10.5586   -0.5696 H   0  0  0  0  0  0  0  0  0  0  0  0
   -1.9362    8.8569   -0.5696 H   0  0  0  0  0  0  0  0  0  0  0  0
    1.9581   11.3912   -3.5980 H   0  0  0  0  0  0  0  0  0  0  0  0
    0.8005   12.6366   -4.1774 H   0  0  0  0  0  0  0  0  0  0  0  0
    2.5637   12.9800   -4.1774 H   0  0  0  0  0  0  0  0  0  0  0  0
    3.6884   12.8824   -1.4881 H   0  0  0  0  0  0  0  0  0  0  0  0
    3.3691   14.1466   -2.8049 H   0  0  0  0  0  0  0  0  0  0  0  0
    2.8450   14.4028    0.1697 H   0  0  0  0  0  0  0  0  0  0  0  0
    4.0348   15.3056   -0.8481 H   0  0  0  0  0  0  0  0  0  0  0  0
    2.8823   17.4507   -2.3832 H   0  0  0  0  0  0  0  0  0  0  0  0
    2.9803   15.8094   -3.1068 H   0  0  0  0  0  0  0  0  0  0  0  0
    1.4199   16.6993   -3.1068 H   0  0  0  0  0  0  0  0  0  0  0  0
  1  2  1  0
  2  3  1  0
  3  4  1  0
  4  5  1  0
  5  6  1  0
  6  7  1  0
  7  8  1  0
  7  9  1  0
  2 10  1  0
 10 11  1  0
 11 12  1  0
 12 13  1  0
 13 14  1  1
 13 15  1  0
 15 16  1  0
 16 17  1  0
 17 18  2  0
 18 19  1  0
 19 20  1  0
 20 21  1  0
 21 22  1  0
 22 23  1  0
 22 24  1  0
 24 25  1  0
 24 26  1  0
 19 27  1  0
 27 28  1  6
 27 29  1  0
 29 30  1  0
 30 31  1  0
 31 32  1  6
  7  5  1  0
 31 10  1  0
 31 13  1  0
 27 15  1  0
 24 18  1  0
  1 33  1  0
  1 34  1  0
  1 35  1  0
  2 36  1  6
  3 37  1  0
  3 38  1  0
  4 39  1  0
  4 40  1  0
  5 41  1  1
  8 42  1  0
  8 43  1  0
  8 44  1  0
  9 45  1  0
  9 46  1  0
  9 47  1  0
 10 48  1  1
 11 49  1  0
 11 50  1  0
 12 51  1  0
 12 52  1  0
 14 53  1  0
 14 54  1  0
 14 55  1  0
 15 56  1  6
 16 57  1  0
 16 58  1  0
 17 59  1  0
 19 60  1  1
 20 61  1  0
 20 62  1  0
 21 63  1  0
 21 64  1  0
 22 65  1  1
 23 66  1  0
 25 67  1  0
 25 68  1  0
 25 69  1  0
 26 70  1  0
 26 71  1  0
 26 72  1  0
 28 73  1  0
 28 74  1  0
 28 75  1  0
 29 76  1  0
 29 77  1  0
 30 78  1  0
 30 79  1  0
 32 80  1  0
 32 81  1  0
 32 82  1  0
M  END
>  <meeko>  (2) 
{"is_sidechain": [false], "intermolecular_energy": 2.731, "internal_energy": -0.839}

$$$$
EPH_relaxed_0001_pdb2pqr_Repair_239_r2_0001_out
     RDKit          3D

 82 86  0  0  0  0  0  0  0  0999 V2000
    2.3410   17.9310   -2.7400 C   0  0  0  0  0  0  0  0  0  0  0  0
    1.0500   17.5560   -2.0070 C   0  0  2  0  0  0  0  0  0  0  0  0
    1.2140   17.6180   -0.4750 C   0  0  0  0  0  0  0  0  0  0  0  0
    0.9250   18.9990    0.1200 C   0  0  0  0  0  0  0  0  0  0  0  0
   -0.5080   19.1330    0.5390 C   0  0  2  0  0  0  0  0  0  0  0  0
   -1.4110   18.2340   -0.1170 O   0  0  0  0  0  0  0  0  0  0  0  0
   -1.6050   19.6330   -0.3810 C   0  0  0  0  0  0  0  0  0  0  0  0
   -1.3170   20.0310   -1.7950 C   0  0  0  0  0  0  0  0  0  0  0  0
   -2.8520   20.1940    0.2300 C   0  0  0  0  0  0  0  0  0  0  0  0
    0.5990   16.1620   -2.4270 C   0  0  1  0  0  0  0  0  0  0  0  0
    0.6660   15.9500   -3.9630 C   0  0  0  0  0  0  0  0  0  0  0  0
    1.0680   14.4700   -4.1930 C   0  0  0  0  0  0  0  0  0  0  0  0
    0.8960   13.8000   -2.8100 C   0  0  1  0  0  0  0  0  0  0  0  0
   -0.6320   13.4990   -2.6980 C   0  0  0  0  0  0  0  0  0  0  0  0
    1.7570   12.5210   -2.5500 C   0  0  2  0  0  0  0  0  0  0  0  0
    1.4620   11.3340   -3.4840 C   0  0  0  0  0  0  0  0  0  0  0  0
    0.4150   10.3860   -3.0000 C   0  0  0  0  0  0  0  0  0  0  0  0
   -0.0580   10.3200   -1.7410 C   0  0  0  0  0  0  0  0  0  0  0  0
    0.5370   11.1930   -0.6290 C   0  0  1  0  0  0  0  0  0  0  0  0
    0.7920   10.3240    0.6310 C   0  0  0  0  0  0  0  0  0  0  0  0
   -0.4550    9.5710    1.0840 C   0  0  0  0  0  0  0  0  0  0  0  0
   -0.9820    8.6700   -0.0290 C   0  0  2  0  0  0  0  0  0  0  0  0
   -0.0310    7.6290   -0.2700 O   0  0  0  0  0  0  0  0  0  0  0  0
   -1.2670    9.4340   -1.3520 C   0  0  0  0  0  0  0  0  0  0  0  0
   -2.5020   10.3500   -1.1690 C   0  0  0  0  0  0  0  0  0  0  0  0
   -1.6580    8.3890   -2.4320 C   0  0  0  0  0  0  0  0  0  0  0  0
    1.8010   12.0660   -1.0350 C   0  0  1  0  0  0  0  0  0  0  0  0
    3.1050   11.2290   -0.8590 C   0  0  0  0  0  0  0  0  0  0  0  0
    1.9210   13.2870   -0.0470 C   0  0  0  0  0  0  0  0  0  0  0  0
    1.1420   14.5620   -0.4210 C   0  0  0  0  0  0  0  0  0  0  0  0
    1.4050   14.9580   -1.8770 C   0  0  2  0  0  0  0  0  0  0  0  0
    2.9300   15.2890   -2.0150 C   0  0  0  0  0  0  0  0  0  0  0  0
    3.1269   18.1593   -2.0050 H   0  0  0  0  0  0  0  0  0  0  0  0
    2.6623   17.0891   -3.3708 H   0  0  0  0  0  0  0  0  0  0  0  0
    2.1612   18.8141   -3.3708 H   0  0  0  0  0  0  0  0  0  0  0  0
    0.2839   18.2939   -2.2874 H   0  0  0  0  0  0  0  0  0  0  0  0
    0.5217   16.8930   -0.0221 H   0  0  0  0  0  0  0  0  0  0  0  0
    2.2668   17.3873   -0.2550 H   0  0  0  0  0  0  0  0  0  0  0  0
    1.5691   19.1505    0.9988 H   0  0  0  0  0  0  0  0  0  0  0  0
    1.1286   19.7549   -0.6528 H   0  0  0  0  0  0  0  0  0  0  0  0
   -0.2073   19.4258    1.5558 H   0  0  0  0  0  0  0  0  0  0  0  0
   -0.6722   20.9221   -1.8010 H   0  0  0  0  0  0  0  0  0  0  0  0
   -0.8060   19.2051   -2.3115 H   0  0  0  0  0  0  0  0  0  0  0  0
   -2.2612   20.2582   -2.3115 H   0  0  0  0  0  0  0  0  0  0  0  0
   -2.7714   20.1578    1.3264 H   0  0  0  0  0  0  0  0  0  0  0  0
   -2.9817   21.2372   -0.0938 H   0  0  0  0  0  0  0  0  0  0  0  0
   -3.7187   19.5991   -0.0938 H   0  0  0  0  0  0  0  0  0  0  0  0
   -0.4159   16.1607   -2.0027 H   0  0  0  0  0  0  0  0  0  0  0  0
   -0.3160   16.1507   -4.4163 H   0  0  0  0  0  0  0  0  0  0  0  0
    1.3938   16.6334   -4.4248 H   0  0  0  0  0  0  0  0  0  0  0  0
    0.4085   13.9996   -4.9372 H   0  0  0  0  0  0  0  0  0  0  0  0
    2.0930   14.3713   -4.5799 H   0  0  0  0  0  0  0  0  0  0  0  0
   -0.9178   13.4427   -1.6373 H   0  0  0  0  0  0  0  0  0  0  0  0
   -1.2009   14.3023   -3.1889 H   0  0  0  0  0  0  0  0  0  0  0  0
   -0.8537   12.5399   -3.1889 H   0  0  0  0  0  0  0  0  0  0  0  0
    2.7696   12.8623   -2.8110 H   0  0  0  0  0  0  0  0  0  0  0  0
    1.1332   11.7376   -4.4530 H   0  0  0  0  0  0  0  0  0  0  0  0
    2.3946   10.7535   -3.5419 H   0  0  0  0  0  0  0  0  0  0  0  0
   -0.0053    9.6823   -3.7336 H   0  0  0  0  0  0  0  0  0  0  0  0
   -0.2195   11.9598   -0.4061 H   0  0  0  0  0  0  0  0  0  0  0  0
    1.5814    9.5931    0.4015 H   0  0  0  0  0  0  0  0  0  0  0  0
    1.0899   10.9985    1.4473 H   0  0  0  0  0  0  0  0  0  0  0  0
   -0.2046    8.9533    1.9591 H   0  0  0  0  0  0  0  0  0  0  0  0
   -1.2339   10.3040    1.3410 H   0  0  0  0  0  0  0  0  0  0  0  0
   -1.9442    8.2577    0.3089 H   0  0  0  0  0  0  0  0  0  0  0  0
    0.8440    8.0440   -0.3560 H   0  0  0  0  0  0  0  0  0  0  0  0
   -2.6960   10.4939   -0.0958 H   0  0  0  0  0  0  0  0  0  0  0  0
   -2.3086   11.3248   -1.6406 H   0  0  0  0  0  0  0  0  0  0  0  0
   -3.3787    9.8820   -1.6406 H   0  0  0  0  0  0  0  0  0  0  0  0
   -2.0031    7.4667   -1.9418 H   0  0  0  0  0  0  0  0  0  0  0  0
   -2.4651    8.7948   -3.0596 H   0  0  0  0  0  0  0  0  0  0  0  0
   -0.7828    8.1653   -3.0596 H   0  0  0  0  0  0  0  0  0  0  0  0
    3.3131   11.0954    0.2128 H   0  0  0  0  0  0  0  0  0  0  0  0
    2.9757   10.2448   -1.3329 H   0  0  0  0  0  0  0  0  0  0  0  0
    3.9460   11.7564   -1.3329 H   0  0  0  0  0  0  0  0  0  0  0  0
    1.5619   12.9545    0.9381 H   0  0  0  0  0  0  0  0  0  0  0  0
    2.9813   13.5783   -0.0768 H   0  0  0  0  0  0  0  0  0  0  0  0
    0.0658   14.3785   -0.2868 H   0  0  0  0  0  0  0  0  0  0  0  0
    1.4771   15.3818    0.2314 H   0  0  0  0  0  0  0  0  0  0  0  0
    3.3762   15.3858   -1.0142 H   0  0  0  0  0  0  0  0  0  0  0  0
    3.4328   14.4791   -2.5638 H   0  0  0  0  0  0  0  0  0  0  0  0
    3.0518   16.2345   -2.5638 H   0  0  0  0  0  0  0  0  0  0  0  0
  1  2  1  0
  2  3  1  0
  3  4  1  0
  4  5  1  0
  5  6  1  0
  6  7  1  0
  7  8  1  0
  7  9  1  0
  2 10  1  0
 10 11  1  0
 11 12  1  0
 12 13  1  0
 13 14  1  1
 13 15  1  0
 15 16  1  0
 16 17  1  0
 17 18  2  0
 18 19  1  0
 19 20  1  0
 20 21  1  0
 21 22  1  0
 22 23  1  0
 22 24  1  0
 24 25  1  0
 24 26  1  0
 19 27  1  0
 27 28  1  6
 27 29  1  0
 29 30  1  0
 30 31  1  0
 31 32  1  1
  7  5  1  0
 31 10  1  0
 31 13  1  0
 27 15  1  0
 24 18  1  0
  1 33  1  0
  1 34  1  0
  1 35  1  0
  2 36  1  6
  3 37  1  0
  3 38  1  0
  4 39  1  0
  4 40  1  0
  5 41  1  1
  8 42  1  0
  8 43  1  0
  8 44  1  0
  9 45  1  0
  9 46  1  0
  9 47  1  0
 10 48  1  1
 11 49  1  0
 11 50  1  0
 12 51  1  0
 12 52  1  0
 14 53  1  0
 14 54  1  0
 14 55  1  0
 15 56  1  6
 16 57  1  0
 16 58  1  0
 17 59  1  0
 19 60  1  1
 20 61  1  0
 20 62  1  0
 21 63  1  0
 21 64  1  0
 22 65  1  1
 23 66  1  0
 25 67  1  0
 25 68  1  0
 25 69  1  0
 26 70  1  0
 26 71  1  0
 26 72  1  0
 28 73  1  0
 28 74  1  0
 28 75  1  0
 29 76  1  0
 29 77  1  0
 30 78  1  0
 30 79  1  0
 32 80  1  0
 32 81  1  0
 32 82  1  0
M  END
>  <meeko>  (3) 
{"is_sidechain": [false], "intermolecular_energy": 2.731, "internal_energy": -0.839}

$$$$
EPH_relaxed_0001_pdb2pqr_Repair_239_r2_0001_out
     RDKit          3D

 82 86  0  0  0  0  0  0  0  0999 V2000
    0.3960   18.4400   -0.0970 C   0  0  0  0  0  0  0  0  0  0  0  0
    1.4790   17.3730   -0.2810 C   0  0  2  0  0  0  0  0  0  0  0  0
    2.7090   17.9190   -1.0350 C   0  0  0  0  0  0  0  0  0  0  0  0
    3.9380   18.1190   -0.1440 C   0  0  0  0  0  0  0  0  0  0  0  0
    3.5580   18.5950    1.2260 C   0  0  2  0  0  0  0  0  0  0  0  0
    3.7890   19.9900    1.4600 O   0  0  0  0  0  0  0  0  0  0  0  0
    4.5650   19.0780    2.2520 C   0  0  0  0  0  0  0  0  0  0  0  0
    6.0310   19.1080    1.9530 C   0  0  0  0  0  0  0  0  0  0  0  0
    4.1790   19.0560    3.6990 C   0  0  0  0  0  0  0  0  0  0  0  0
    0.9040   16.1720   -1.0230 C   0  0  1  0  0  0  0  0  0  0  0  0
    0.7770   16.4170   -2.5500 C   0  0  0  0  0  0  0  0  0  0  0  0
    1.0660   15.0630   -3.2460 C   0  0  0  0  0  0  0  0  0  0  0  0
    1.0210   14.0200   -2.1050 C   0  0  1  0  0  0  0  0  0  0  0  0
   -0.4970   13.7280   -1.8870 C   0  0  0  0  0  0  0  0  0  0  0  0
    1.8340   12.7050   -2.3380 C   0  0  2  0  0  0  0  0  0  0  0  0
    1.3640   11.8500   -3.5270 C   0  0  0  0  0  0  0  0  0  0  0  0
    0.3310   10.8210   -3.2050 C   0  0  0  0  0  0  0  0  0  0  0  0
    0.0070   10.3990   -1.9690 C   0  0  0  0  0  0  0  0  0  0  0  0
    0.7770   10.8970   -0.7390 C   0  0  1  0  0  0  0  0  0  0  0  0
    1.1310    9.6930    0.1730 C   0  0  0  0  0  0  0  0  0  0  0  0
   -0.0930    8.8630    0.5480 C   0  0  0  0  0  0  0  0  0  0  0  0
   -0.7990    8.3380   -0.6990 C   0  0  2  0  0  0  0  0  0  0  0  0
    0.0580    7.3950   -1.3510 O   0  0  0  0  0  0  0  0  0  0  0  0
   -1.1950    9.4610   -1.6980 C   0  0  0  0  0  0  0  0  0  0  0  0
   -2.3470   10.3060   -1.1010 C   0  0  0  0  0  0  0  0  0  0  0  0
   -1.7690    8.7850   -2.9730 C   0  0  0  0  0  0  0  0  0  0  0  0
    2.0320   11.8260   -1.0360 C   0  0  1  0  0  0  0  0  0  0  0  0
    3.2980   10.9490   -1.2800 C   0  0  0  0  0  0  0  0  0  0  0  0
    2.3360   12.7020    0.2360 C   0  0  0  0  0  0  0  0  0  0  0  0
    1.5910   14.0450    0.3500 C   0  0  0  0  0  0  0  0  0  0  0  0
    1.7010   14.8450   -0.9520 C   0  0  2  0  0  0  0  0  0  0  0  0
    3.2150   15.1720   -1.1860 C   0  0  0  0  0  0  0  0  0  0  0  0
    0.2255   18.6080    0.9766 H   0  0  0  0  0  0  0  0  0  0  0  0
    0.7227   19.3790   -0.5677 H   0  0  0  0  0  0  0  0  0  0  0  0
   -0.5380   18.0994   -0.5677 H   0  0  0  0  0  0  0  0  0  0  0  0
    1.8150   17.0654    0.7202 H   0  0  0  0  0  0  0  0  0  0  0  0
    2.9706   17.2088   -1.8332 H   0  0  0  0  0  0  0  0  0  0  0  0
    2.4322   18.9085   -1.4279 H   0  0  0  0  0  0  0  0  0  0  0  0
    4.4722   17.1617   -0.0534 H   0  0  0  0  0  0  0  0  0  0  0  0
    4.5771   18.8846   -0.6081 H   0  0  0  0  0  0  0  0  0  0  0  0
    2.7428   17.8586    1.2819 H   0  0  0  0  0  0  0  0  0  0  0  0
    6.5974   19.1196    2.8959 H   0  0  0  0  0  0  0  0  0  0  0  0
    6.3050   18.2153    1.3716 H   0  0  0  0  0  0  0  0  0  0  0  0
    6.2682   20.0112    1.3716 H   0  0  0  0  0  0  0  0  0  0  0  0
    5.0848   19.1076    4.3209 H   0  0  0  0  0  0  0  0  0  0  0  0
    3.5332   19.9188    3.9194 H   0  0  0  0  0  0  0  0  0  0  0  0
    3.6354   18.1254    3.9194 H   0  0  0  0  0  0  0  0  0  0  0  0
   -0.0523   16.0664   -0.4898 H   0  0  0  0  0  0  0  0  0  0  0  0
   -0.2390   16.7597   -2.7954 H   0  0  0  0  0  0  0  0  0  0  0  0
    1.4821   17.1918   -2.8855 H   0  0  0  0  0  0  0  0  0  0  0  0
    0.2984   14.8439   -4.0028 H   0  0  0  0  0  0  0  0  0  0  0  0
    2.0314   15.0628   -3.7733 H   0  0  0  0  0  0  0  0  0  0  0  0
   -0.7113   13.6868   -0.8089 H   0  0  0  0  0  0  0  0  0  0  0  0
   -1.0943   14.5277   -2.3493 H   0  0  0  0  0  0  0  0  0  0  0  0
   -0.7550   12.7638   -2.3493 H   0  0  0  0  0  0  0  0  0  0  0  0
    2.8264   13.0874   -2.6189 H   0  0  0  0  0  0  0  0  0  0  0  0
    0.9448   12.5260   -4.2868 H   0  0  0  0  0  0  0  0  0  0  0  0
    2.2492   11.2948   -3.8707 H   0  0  0  0  0  0  0  0  0  0  0  0
   -0.2108   10.3699   -4.0494 H   0  0  0  0  0  0  0  0  0  0  0  0
    0.0954   11.5790   -0.2096 H   0  0  0  0  0  0  0  0  0  0  0  0
    1.8459    9.0470   -0.3576 H   0  0  0  0  0  0  0  0  0  0  0  0
    1.5603   10.0937    1.1031 H   0  0  0  0  0  0  0  0  0  0  0  0
    0.2255    8.0112    1.1668 H   0  0  0  0  0  0  0  0  0  0  0  0
   -0.7936    9.5025    1.1050 H   0  0  0  0  0  0  0  0  0  0  0  0
   -1.7364    7.8642   -0.3723 H   0  0  0  0  0  0  0  0  0  0  0  0
    0.2520    7.7380   -2.2390 H   0  0  0  0  0  0  0  0  0  0  0  0
   -2.2974   10.2696   -0.0027 H   0  0  0  0  0  0  0  0  0  0  0  0
   -2.2498   11.3486   -1.4381 H   0  0  0  0  0  0  0  0  0  0  0  0
   -3.3122    9.9001   -1.4381 H   0  0  0  0  0  0  0  0  0  0  0  0
   -2.4556    7.9764   -2.6818 H   0  0  0  0  0  0  0  0  0  0  0  0
   -2.3136    9.5312   -3.5701 H   0  0  0  0  0  0  0  0  0  0  0  0
   -0.9443    8.3686   -3.5701 H   0  0  0  0  0  0  0  0  0  0  0  0
    3.7291   10.6504   -0.3131 H   0  0  0  0  0  0  0  0  0  0  0  0
    3.0176   10.0507   -1.8495 H   0  0  0  0  0  0  0  0  0  0  0  0
    4.0404   11.5273   -1.8495 H   0  0  0  0  0  0  0  0  0  0  0  0
    2.0786   12.1027    1.1218 H   0  0  0  0  0  0  0  0  0  0  0  0
    3.3997   12.9697    0.1529 H   0  0  0  0  0  0  0  0  0  0  0  0
    0.5297   13.8508    0.5645 H   0  0  0  0  0  0  0  0  0  0  0  0
    2.0467   14.6312    1.1616 H   0  0  0  0  0  0  0  0  0  0  0  0
    3.7208   15.2812   -0.2153 H   0  0  0  0  0  0  0  0  0  0  0  0
    3.6833   14.3543   -1.7535 H   0  0  0  0  0  0  0  0  0  0  0  0
    3.3041   16.1101   -1.7535 H   0  0  0  0  0  0  0  0  0  0  0  0
  1  2  1  0
  2  3  1  0
  3  4  1  0
  4  5  1  0
  5  6  1  0
  6  7  1  0
  7  8  1  0
  7  9  1  0
  2 10  1  0
 10 11  1  0
 11 12  1  0
 12 13  1  0
 13 14  1  1
 13 15  1  0
 15 16  1  0
 16 17  1  0
 17 18  2  0
 18 19  1  0
 19 20  1  0
 20 21  1  0
 21 22  1  0
 22 23  1  0
 22 24  1  0
 24 25  1  0
 24 26  1  0
 19 27  1  0
 27 28  1  6
 27 29  1  0
 29 30  1  0
 30 31  1  0
 31 32  1  6
  7  5  1  0
 31 10  1  0
 31 13  1  0
 27 15  1  0
 24 18  1  0
  1 33  1  0
  1 34  1  0
  1 35  1  0
  2 36  1  1
  3 37  1  0
  3 38  1  0
  4 39  1  0
  4 40  1  0
  5 41  1  1
  8 42  1  0
  8 43  1  0
  8 44  1  0
  9 45  1  0
  9 46  1  0
  9 47  1  0
 10 48  1  1
 11 49  1  0
 11 50  1  0
 12 51  1  0
 12 52  1  0
 14 53  1  0
 14 54  1  0
 14 55  1  0
 15 56  1  6
 16 57  1  0
 16 58  1  0
 17 59  1  0
 19 60  1  1
 20 61  1  0
 20 62  1  0
 21 63  1  0
 21 64  1  0
 22 65  1  1
 23 66  1  0
 25 67  1  0
 25 68  1  0
 25 69  1  0
 26 70  1  0
 26 71  1  0
 26 72  1  0
 28 73  1  0
 28 74  1  0
 28 75  1  0
 29 76  1  0
 29 77  1  0
 30 78  1  0
 30 79  1  0
 32 80  1  0
 32 81  1  0
 32 82  1  0
M  END
>  <meeko>  (4) 
{"is_sidechain": [false], "intermolecular_energy": 2.731, "internal_energy": -0.839}

$$$$
EPH_relaxed_0001_pdb2pqr_Repair_239_r2_0001_out
     RDKit          3D

 82 86  0  0  0  0  0  0  0  0999 V2000
   -3.4170    9.3280    0.5480 C   0  0  0  0  0  0  0  0  0  0  0  0
   -2.5830    9.6800   -0.6870 C   0  0  2  0  0  0  0  0  0  0  0  0
   -1.9160    8.4380   -1.3110 C   0  0  0  0  0  0  0  0  0  0  0  0
   -2.8240    7.6690   -2.2730 C   0  0  0  0  0  0  0  0  0  0  0  0
   -4.2650    7.7620   -1.8700 C   0  0  2  0  0  0  0  0  0  0  0  0
   -4.8120    6.5550   -1.3220 O   0  0  0  0  0  0  0  0  0  0  0  0
   -5.3790    7.0020   -2.5650 C   0  0  0  0  0  0  0  0  0  0  0  0
   -5.1010    6.0950   -3.7220 C   0  0  0  0  0  0  0  0  0  0  0  0
   -6.7800    7.5130   -2.4390 C   0  0  0  0  0  0  0  0  0  0  0  0
   -1.5240   10.7130   -0.3220 C   0  0  1  0  0  0  0  0  0  0  0  0
   -0.4240   10.1370    0.6100 C   0  0  0  0  0  0  0  0  0  0  0  0
    0.9060   10.8280    0.2130 C   0  0  0  0  0  0  0  0  0  0  0  0
    0.4770   12.0060   -0.6930 C   0  0  1  0  0  0  0  0  0  0  0  0
    0.0400   13.1330    0.2940 C   0  0  0  0  0  0  0  0  0  0  0  0
    1.5460   12.5170   -1.7140 C   0  0  2  0  0  0  0  0  0  0  0  0
    2.8290   13.0880   -1.0860 C   0  0  0  0  0  0  0  0  0  0  0  0
    2.8040   14.5550   -0.8070 C   0  0  0  0  0  0  0  0  0  0  0  0
    1.9120   15.4310   -1.3070 C   0  0  0  0  0  0  0  0  0  0  0  0
    0.8560   14.9840   -2.3270 C   0  0  1  0  0  0  0  0  0  0  0  0
    0.8040   16.0010   -3.4970 C   0  0  0  0  0  0  0  0  0  0  0  0
    0.5850   17.4330   -3.0190 C   0  0  0  0  0  0  0  0  0  0  0  0
    1.6870   17.8600   -2.0530 C   0  0  2  0  0  0  0  0  0  0  0  0
    2.9250   17.9310   -2.7670 O   0  0  0  0  0  0  0  0  0  0  0  0
    1.8400   16.9040   -0.8370 C   0  0  0  0  0  0  0  0  0  0  0  0
    0.6170   17.0550    0.1010 C   0  0  0  0  0  0  0  0  0  0  0  0
    3.0750   17.3670   -0.0170 C   0  0  0  0  0  0  0  0  0  0  0  0
    0.9690   13.4810   -2.8290 C   0  0  1  0  0  0  0  0  0  0  0  0
    1.9470   13.3960   -4.0400 C   0  0  0  0  0  0  0  0  0  0  0  0
   -0.4360   13.0090   -3.3590 C   0  0  0  0  0  0  0  0  0  0  0  0
   -1.4030   12.4040   -2.3230 C   0  0  0  0  0  0  0  0  0  0  0  0
   -0.7030   11.3320   -1.4810 C   0  0  2  0  0  0  0  0  0  0  0  0
   -0.2720   10.1740   -2.4450 C   0  0  0  0  0  0  0  0  0  0  0  0
   -2.8461    9.5690    1.4568 H   0  0  0  0  0  0  0  0  0  0  0  0
   -4.3513    9.9085    0.5372 H   0  0  0  0  0  0  0  0  0  0  0  0
   -3.6528    8.2536    0.5372 H   0  0  0  0  0  0  0  0  0  0  0  0
   -3.2670   10.0995   -1.4394 H   0  0  0  0  0  0  0  0  0  0  0  0
   -1.0225    8.7645   -1.8633 H   0  0  0  0  0  0  0  0  0  0  0  0
   -1.6725    7.7548   -0.4840 H   0  0  0  0  0  0  0  0  0  0  0  0
   -2.7088    8.0880   -3.2835 H   0  0  0  0  0  0  0  0  0  0  0  0
   -2.5292    6.6095   -2.2493 H   0  0  0  0  0  0  0  0  0  0  0  0
   -4.1481    8.8242   -1.6093 H   0  0  0  0  0  0  0  0  0  0  0  0
   -4.7979    5.1060   -3.3480 H   0  0  0  0  0  0  0  0  0  0  0  0
   -6.0091    5.9929   -4.3343 H   0  0  0  0  0  0  0  0  0  0  0  0
   -4.2917    6.5193   -4.3343 H   0  0  0  0  0  0  0  0  0  0  0  0
   -7.0412    7.6083   -1.3747 H   0  0  0  0  0  0  0  0  0  0  0  0
   -6.8565    8.4969   -2.9248 H   0  0  0  0  0  0  0  0  0  0  0  0
   -7.4720    6.8094   -2.9248 H   0  0  0  0  0  0  0  0  0  0  0  0
   -2.1660   11.4802    0.1355 H   0  0  0  0  0  0  0  0  0  0  0  0
   -0.6653   10.3554    1.6607 H   0  0  0  0  0  0  0  0  0  0  0  0
   -0.3486    9.0448    0.5036 H   0  0  0  0  0  0  0  0  0  0  0  0
    1.4339   11.1962    1.1050 H   0  0  0  0  0  0  0  0  0  0  0  0
    1.5982   10.1407   -0.2954 H   0  0  0  0  0  0  0  0  0  0  0  0
    0.1745   12.7862    1.3292 H   0  0  0  0  0  0  0  0  0  0  0  0
    0.6561   14.0283    0.1243 H   0  0  0  0  0  0  0  0  0  0  0  0
   -1.0186   13.3789    0.1243 H   0  0  0  0  0  0  0  0  0  0  0  0
    1.8499   11.5890   -2.2204 H   0  0  0  0  0  0  0  0  0  0  0  0
    3.0043   12.5640   -0.1349 H   0  0  0  0  0  0  0  0  0  0  0  0
    3.6263   12.9327   -1.8278 H   0  0  0  0  0  0  0  0  0  0  0  0
    3.5797   14.9534   -0.1365 H   0  0  0  0  0  0  0  0  0  0  0  0
   -0.1042   14.9829   -1.7902 H   0  0  0  0  0  0  0  0  0  0  0  0
    1.7556   15.9546   -4.0469 H   0  0  0  0  0  0  0  0  0  0  0  0
   -0.0479   15.7292   -4.1376 H   0  0  0  0  0  0  0  0  0  0  0  0
    0.5872   18.1070   -3.8883 H   0  0  0  0  0  0  0  0  0  0  0  0
   -0.3808   17.4845   -2.4949 H   0  0  0  0  0  0  0  0  0  0  0  0
    1.4060   18.8428   -1.6466 H   0  0  0  0  0  0  0  0  0  0  0  0
    3.5820   17.4150   -2.2700 H   0  0  0  0  0  0  0  0  0  0  0  0
    0.9509   17.0138    1.1483 H   0  0  0  0  0  0  0  0  0  0  0  0
    0.1258   18.0206   -0.0895 H   0  0  0  0  0  0  0  0  0  0  0  0
   -0.0943   16.2379   -0.0895 H   0  0  0  0  0  0  0  0  0  0  0  0
    2.8538   17.2841    1.0573 H   0  0  0  0  0  0  0  0  0  0  0  0
    3.9382   16.7314   -0.2638 H   0  0  0  0  0  0  0  0  0  0  0  0
    3.3077   18.4134   -0.2638 H   0  0  0  0  0  0  0  0  0  0  0  0
    2.9796   13.3063   -3.6718 H   0  0  0  0  0  0  0  0  0  0  0  0
    1.6980   12.5161   -4.6514 H   0  0  0  0  0  0  0  0  0  0  0  0
    1.8535   14.3057   -4.6514 H   0  0  0  0  0  0  0  0  0  0  0  0
   -0.9327   13.8820   -3.8075 H   0  0  0  0  0  0  0  0  0  0  0  0
   -0.2182   12.1907   -4.0611 H   0  0  0  0  0  0  0  0  0  0  0  0
   -1.7656   13.2029   -1.6595 H   0  0  0  0  0  0  0  0  0  0  0  0
   -2.2433   11.9371   -2.8578 H   0  0  0  0  0  0  0  0  0  0  0  0
    0.0514    9.3052   -1.8529 H   0  0  0  0  0  0  0  0  0  0  0  0
   -1.1242    9.8887   -3.0794 H   0  0  0  0  0  0  0  0  0  0  0  0
    0.5593   10.5153   -3.0794 H   0  0  0  0  0  0  0  0  0  0  0  0
  1  2  1  0
  2  3  1  0
  3  4  1  0
  4  5  1  0
  5  6  1  0
  6  7  1  0
  7  8  1  0
  7  9  1  0
  2 10  1  0
 10 11  1  0
 11 12  1  0
 12 13  1  0
 13 14  1  1
 13 15  1  0
 15 16  1  0
 16 17  1  0
 17 18  2  0
 18 19  1  0
 19 20  1  0
 20 21  1  0
 21 22  1  0
 22 23  1  0
 22 24  1  0
 24 25  1  0
 24 26  1  0
 19 27  1  0
 27 28  1  6
 27 29  1  0
 29 30  1  0
 30 31  1  0
 31 32  1  6
  7  5  1  0
 31 10  1  0
 31 13  1  0
 27 15  1  0
 24 18  1  0
  1 33  1  0
  1 34  1  0
  1 35  1  0
  2 36  1  6
  3 37  1  0
  3 38  1  0
  4 39  1  0
  4 40  1  0
  5 41  1  1
  8 42  1  0
  8 43  1  0
  8 44  1  0
  9 45  1  0
  9 46  1  0
  9 47  1  0
 10 48  1  1
 11 49  1  0
 11 50  1  0
 12 51  1  0
 12 52  1  0
 14 53  1  0
 14 54  1  0
 14 55  1  0
 15 56  1  6
 16 57  1  0
 16 58  1  0
 17 59  1  0
 19 60  1  1
 20 61  1  0
 20 62  1  0
 21 63  1  0
 21 64  1  0
 22 65  1  1
 23 66  1  0
 25 67  1  0
 25 68  1  0
 25 69  1  0
 26 70  1  0
 26 71  1  0
 26 72  1  0
 28 73  1  0
 28 74  1  0
 28 75  1  0
 29 76  1  0
 29 77  1  0
 30 78  1  0
 30 79  1  0
 32 80  1  0
 32 81  1  0
 32 82  1  0
M  END
>  <meeko>  (5) 
{"is_sidechain": [false], "intermolecular_energy": 2.731, "internal_energy": -0.839}

$$$$
EPH_relaxed_0001_pdb2pqr_Repair_239_r2_0001_out
     RDKit          3D

 82 86  0  0  0  0  0  0  0  0999 V2000
    3.7520   18.0080    0.7200 C   0  0  0  0  0  0  0  0  0  0  0  0
    2.7380   18.4300   -0.3470 C   0  0  2  0  0  0  0  0  0  0  0  0
    2.0040   19.7320    0.0320 C   0  0  0  0  0  0  0  0  0  0  0  0
    0.8480   19.5220    1.0150 C   0  0  0  0  0  0  0  0  0  0  0  0
   -0.4320   20.1050    0.4970 C   0  0  2  0  0  0  0  0  0  0  0  0
   -1.4850   20.1930    1.4660 O   0  0  0  0  0  0  0  0  0  0  0  0
   -1.7170   19.3090    0.3570 C   0  0  0  0  0  0  0  0  0  0  0  0
   -1.7840   17.8630    0.7360 C   0  0  0  0  0  0  0  0  0  0  0  0
   -2.7620   19.8000   -0.5960 C   0  0  0  0  0  0  0  0  0  0  0  0
    1.7290   17.3110   -0.5770 C   0  0  1  0  0  0  0  0  0  0  0  0
    0.5600   17.7410   -1.5020 C   0  0  0  0  0  0  0  0  0  0  0  0
    0.1710   16.4970   -2.3400 C   0  0  0  0  0  0  0  0  0  0  0  0
    0.8920   15.3180   -1.6460 C   0  0  1  0  0  0  0  0  0  0  0  0
   -0.0210   14.9450   -0.4370 C   0  0  0  0  0  0  0  0  0  0  0  0
    1.2020   14.0740   -2.5410 C   0  0  2  0  0  0  0  0  0  0  0  0
   -0.0330   13.3580   -3.1140 C   0  0  0  0  0  0  0  0  0  0  0  0
   -0.5840   12.2590   -2.2660 C   0  0  0  0  0  0  0  0  0  0  0  0
    0.0530   11.6730   -1.2350 C   0  0  0  0  0  0  0  0  0  0  0  0
    1.5020   12.0410   -0.8920 C   0  0  1  0  0  0  0  0  0  0  0  0
    2.3240   10.7460   -0.6610 C   0  0  0  0  0  0  0  0  0  0  0  0
    1.6920    9.8310    0.3840 C   0  0  0  0  0  0  0  0  0  0  0  0
    0.2730    9.4400   -0.0210 C   0  0  2  0  0  0  0  0  0  0  0  0
    0.3370    8.6190   -1.1910 O   0  0  0  0  0  0  0  0  0  0  0  0
   -0.6460   10.6640   -0.2910 C   0  0  0  0  0  0  0  0  0  0  0  0
   -0.9590   11.3840    1.0440 C   0  0  0  0  0  0  0  0  0  0  0  0
   -2.0040   10.1330   -0.8260 C   0  0  0  0  0  0  0  0  0  0  0  0
    2.2170   13.0460   -1.8940 C   0  0  1  0  0  0  0  0  0  0  0  0
    2.8620   12.2550   -3.0730 C   0  0  0  0  0  0  0  0  0  0  0  0
    3.3990   13.7660   -1.1430 C   0  0  0  0  0  0  0  0  0  0  0  0
    3.0520   15.0560   -0.3750 C   0  0  0  0  0  0  0  0  0  0  0  0
    2.2450   16.0160   -1.2540 C   0  0  2  0  0  0  0  0  0  0  0  0
    3.1470   16.4270   -2.4680 C   0  0  0  0  0  0  0  0  0  0  0  0
    3.3276   18.1846    1.7194 H   0  0  0  0  0  0  0  0  0  0  0  0
    3.9833   16.9389    0.6036 H   0  0  0  0  0  0  0  0  0  0  0  0
    4.6735   18.5973    0.6036 H   0  0  0  0  0  0  0  0  0  0  0  0
    3.2958   18.6238   -1.2751 H   0  0  0  0  0  0  0  0  0  0  0  0
    2.7300   20.4192    0.4910 H   0  0  0  0  0  0  0  0  0  0  0  0
    1.5699   20.1380   -0.8936 H   0  0  0  0  0  0  0  0  0  0  0  0
    0.7087   18.4429    1.1765 H   0  0  0  0  0  0  0  0  0  0  0  0
    1.1011   20.0316    1.9564 H   0  0  0  0  0  0  0  0  0  0  0  0
    0.1175   20.7490   -0.2054 H   0  0  0  0  0  0  0  0  0  0  0  0
   -1.7883   17.7711    1.8321 H   0  0  0  0  0  0  0  0  0  0  0  0
   -2.7037   17.4190    0.3272 H   0  0  0  0  0  0  0  0  0  0  0  0
   -0.9093   17.3359    0.3272 H   0  0  0  0  0  0  0  0  0  0  0  0
   -3.6154   20.2010   -0.0296 H   0  0  0  0  0  0  0  0  0  0  0  0
   -2.3372   20.5928   -1.2293 H   0  0  0  0  0  0  0  0  0  0  0  0
   -3.1011   18.9670   -1.2293 H   0  0  0  0  0  0  0  0  0  0  0  0
    1.4438   17.1035    0.4649 H   0  0  0  0  0  0  0  0  0  0  0  0
   -0.2973   18.0743   -0.8987 H   0  0  0  0  0  0  0  0  0  0  0  0
    0.8580   18.5771   -2.1518 H   0  0  0  0  0  0  0  0  0  0  0  0
   -0.9186   16.3465   -2.3289 H   0  0  0  0  0  0  0  0  0  0  0  0
    0.4598   16.5988   -3.3965 H   0  0  0  0  0  0  0  0  0  0  0  0
    0.5084   15.1613    0.5027 H   0  0  0  0  0  0  0  0  0  0  0  0
   -0.9472   15.5368   -0.4807 H   0  0  0  0  0  0  0  0  0  0  0  0
   -0.2678   13.8739   -0.4807 H   0  0  0  0  0  0  0  0  0  0  0  0
    1.7123   14.5267   -3.4040 H   0  0  0  0  0  0  0  0  0  0  0  0
   -0.8253   14.1078   -3.2557 H   0  0  0  0  0  0  0  0  0  0  0  0
    0.2972   12.8837   -4.0499 H   0  0  0  0  0  0  0  0  0  0  0  0
   -1.5955   11.8980   -2.5039 H   0  0  0  0  0  0  0  0  0  0  0  0
    1.4556   12.6250    0.0390 H   0  0  0  0  0  0  0  0  0  0  0  0
    2.3947   10.1987   -1.6125 H   0  0  0  0  0  0  0  0  0  0  0  0
    3.3163   11.0419   -0.2898 H   0  0  0  0  0  0  0  0  0  0  0  0
    2.3022    8.9210    0.4822 H   0  0  0  0  0  0  0  0  0  0  0  0
    1.6482   10.3695    1.3422 H   0  0  0  0  0  0  0  0  0  0  0  0
   -0.1724    8.8936    0.8235 H   0  0  0  0  0  0  0  0  0  0  0  0
    1.1090    8.9040   -1.7090 H   0  0  0  0  0  0  0  0  0  0  0  0
   -0.6767   10.7346    1.8858 H   0  0  0  0  0  0  0  0  0  0  0  0
   -0.3876   12.3225    1.0972 H   0  0  0  0  0  0  0  0  0  0  0  0
   -2.0350   11.6063    1.0972 H   0  0  0  0  0  0  0  0  0  0  0  0
   -2.6573    9.8776    0.0213 H   0  0  0  0  0  0  0  0  0  0  0  0
   -2.4853   10.9092   -1.4391 H   0  0  0  0  0  0  0  0  0  0  0  0
   -1.8312    9.2362   -1.4391 H   0  0  0  0  0  0  0  0  0  0  0  0
    3.5092   11.4613   -2.6714 H   0  0  0  0  0  0  0  0  0  0  0  0
    2.0698   11.8053   -3.6896 H   0  0  0  0  0  0  0  0  0  0  0  0
    3.4620   12.9404   -3.6896 H   0  0  0  0  0  0  0  0  0  0  0  0
    3.8182   13.0509   -0.4198 H   0  0  0  0  0  0  0  0  0  0  0  0
    4.0934   14.0814   -1.9357 H   0  0  0  0  0  0  0  0  0  0  0  0
    2.4585   14.7970    0.5142 H   0  0  0  0  0  0  0  0  0  0  0  0
    3.9886   15.5523   -0.0811 H   0  0  0  0  0  0  0  0  0  0  0  0
    4.0890   16.8562   -2.0961 H   0  0  0  0  0  0  0  0  0  0  0  0
    3.3649   15.5393   -3.0800 H   0  0  0  0  0  0  0  0  0  0  0  0
    2.6201   17.1739   -3.0800 H   0  0  0  0  0  0  0  0  0  0  0  0
  1  2  1  0
  2  3  1  0
  3  4  1  0
  4  5  1  0
  5  6  1  0
  6  7  1  0
  7  8  1  0
  7  9  1  0
  2 10  1  0
 10 11  1  0
 11 12  1  0
 12 13  1  0
 13 14  1  1
 13 15  1  0
 15 16  1  0
 16 17  1  0
 17 18  2  0
 18 19  1  0
 19 20  1  0
 20 21  1  0
 21 22  1  0
 22 23  1  0
 22 24  1  0
 24 25  1  0
 24 26  1  0
 19 27  1  0
 27 28  1  6
 27 29  1  0
 29 30  1  0
 30 31  1  0
 31 32  1  6
  7  5  1  0
 31 10  1  0
 31 13  1  0
 27 15  1  0
 24 18  1  0
  1 33  1  0
  1 34  1  0
  1 35  1  0
  2 36  1  6
  3 37  1  0
  3 38  1  0
  4 39  1  0
  4 40  1  0
  5 41  1  6
  8 42  1  0
  8 43  1  0
  8 44  1  0
  9 45  1  0
  9 46  1  0
  9 47  1  0
 10 48  1  1
 11 49  1  0
 11 50  1  0
 12 51  1  0
 12 52  1  0
 14 53  1  0
 14 54  1  0
 14 55  1  0
 15 56  1  6
 16 57  1  0
 16 58  1  0
 17 59  1  0
 19 60  1  1
 20 61  1  0
 20 62  1  0
 21 63  1  0
 21 64  1  0
 22 65  1  1
 23 66  1  0
 25 67  1  0
 25 68  1  0
 25 69  1  0
 26 70  1  0
 26 71  1  0
 26 72  1  0
 28 73  1  0
 28 74  1  0
 28 75  1  0
 29 76  1  0
 29 77  1  0
 30 78  1  0
 30 79  1  0
 32 80  1  0
 32 81  1  0
 32 82  1  0
M  END
>  <meeko>  (6) 
{"is_sidechain": [false], "intermolecular_energy": 2.731, "internal_energy": -0.839}

$$$$
EPH_relaxed_0001_pdb2pqr_Repair_239_r2_0001_out
     RDKit          3D

 82 86  0  0  0  0  0  0  0  0999 V2000
   -5.1020    5.9440   -1.7680 C   0  0  0  0  0  0  0  0  0  0  0  0
   -5.4330    7.4380   -1.8040 C   0  0  2  0  0  0  0  0  0  0  0  0
   -5.2230    8.1130   -0.4340 C   0  0  0  0  0  0  0  0  0  0  0  0
   -4.1520    9.2070   -0.4440 C   0  0  0  0  0  0  0  0  0  0  0  0
   -2.8020    8.6580   -0.7930 C   0  0  2  0  0  0  0  0  0  0  0  0
   -1.7670    8.9720    0.1480 O   0  0  0  0  0  0  0  0  0  0  0  0
   -1.6170    9.5270   -1.1690 C   0  0  0  0  0  0  0  0  0  0  0  0
   -1.7270   11.0190   -1.2160 C   0  0  0  0  0  0  0  0  0  0  0  0
   -0.5020    8.9150   -1.9580 C   0  0  0  0  0  0  0  0  0  0  0  0
   -6.8700    7.6410   -2.2690 C   0  0  1  0  0  0  0  0  0  0  0  0
   -7.1670    6.9330   -3.6190 C   0  0  0  0  0  0  0  0  0  0  0  0
   -8.6340    6.4390   -3.5510 C   0  0  0  0  0  0  0  0  0  0  0  0
   -9.2320    7.1580   -2.3200 C   0  0  1  0  0  0  0  0  0  0  0  0
   -9.6040    8.5850   -2.8300 C   0  0  0  0  0  0  0  0  0  0  0  0
  -10.4480    6.4560   -1.6320 C   0  0  2  0  0  0  0  0  0  0  0  0
  -11.7000    6.3070   -2.5150 C   0  0  0  0  0  0  0  0  0  0  0  0
  -12.6710    7.4380   -2.4400 C   0  0  0  0  0  0  0  0  0  0  0  0
  -12.6890    8.3920   -1.4910 C   0  0  0  0  0  0  0  0  0  0  0  0
  -11.7240    8.3360   -0.2990 C   0  0  1  0  0  0  0  0  0  0  0  0
  -12.5050    8.6110    1.0130 C   0  0  0  0  0  0  0  0  0  0  0  0
  -13.2940    9.9160    0.9620 C   0  0  0  0  0  0  0  0  0  0  0  0
  -14.2830    9.9100   -0.2010 C   0  0  2  0  0  0  0  0  0  0  0  0
  -15.2860    8.9220    0.0530 O   0  0  0  0  0  0  0  0  0  0  0  0
  -13.6120    9.6330   -1.5750 C   0  0  0  0  0  0  0  0  0  0  0  0
  -12.7520   10.8520   -1.9890 C   0  0  0  0  0  0  0  0  0  0  0  0
  -14.7360    9.5130   -2.6390 C   0  0  0  0  0  0  0  0  0  0  0  0
  -10.8120    7.0380   -0.2070 C   0  0  1  0  0  0  0  0  0  0  0  0
  -11.5700    5.9090    0.5550 C   0  0  0  0  0  0  0  0  0  0  0  0
   -9.5320    7.3690    0.6490 C   0  0  0  0  0  0  0  0  0  0  0  0
   -8.3220    7.9490   -0.1080 C   0  0  0  0  0  0  0  0  0  0  0  0
   -7.9980    7.1110   -1.3480 C   0  0  2  0  0  0  0  0  0  0  0  0
   -7.5980    5.6760   -0.8640 C   0  0  0  0  0  0  0  0  0  0  0  0
   -5.0280    5.6099   -0.7226 H   0  0  0  0  0  0  0  0  0  0  0  0
   -5.8970    5.3799   -2.2778 H   0  0  0  0  0  0  0  0  0  0  0  0
   -4.1432    5.7685   -2.2778 H   0  0  0  0  0  0  0  0  0  0  0  0
   -4.7411    7.9126   -2.5153 H   0  0  0  0  0  0  0  0  0  0  0  0
   -6.1760    8.5630   -0.1190 H   0  0  0  0  0  0  0  0  0  0  0  0
   -4.8778    7.3319    0.2594 H   0  0  0  0  0  0  0  0  0  0  0  0
   -4.4291    9.9703   -1.1860 H   0  0  0  0  0  0  0  0  0  0  0  0
   -4.0953    9.6406    0.5654 H   0  0  0  0  0  0  0  0  0  0  0  0
   -3.2575    7.7821   -1.2780 H   0  0  0  0  0  0  0  0  0  0  0  0
   -1.7563   11.4170   -0.1909 H   0  0  0  0  0  0  0  0  0  0  0  0
   -0.8570   11.4343   -1.7458 H   0  0  0  0  0  0  0  0  0  0  0  0
   -2.6485   11.3022   -1.7458 H   0  0  0  0  0  0  0  0  0  0  0  0
    0.2504    8.5020   -1.2700 H   0  0  0  0  0  0  0  0  0  0  0  0
   -0.9006    8.1093   -2.5919 H   0  0  0  0  0  0  0  0  0  0  0  0
   -0.0363    9.6839   -2.5919 H   0  0  0  0  0  0  0  0  0  0  0  0
   -6.8981    8.7401   -2.3046 H   0  0  0  0  0  0  0  0  0  0  0  0
   -7.0435    7.6399   -4.4527 H   0  0  0  0  0  0  0  0  0  0  0  0
   -6.4750    6.0944   -3.7860 H   0  0  0  0  0  0  0  0  0  0  0  0
   -9.1796    6.7158   -4.4652 H   0  0  0  0  0  0  0  0  0  0  0  0
   -8.7017    5.3442   -3.4678 H   0  0  0  0  0  0  0  0  0  0  0  0
   -9.7769    9.2483   -1.9697 H   0  0  0  0  0  0  0  0  0  0  0  0
   -8.7796    8.9829   -3.4399 H   0  0  0  0  0  0  0  0  0  0  0  0
  -10.5178    8.5298   -3.4399 H   0  0  0  0  0  0  0  0  0  0  0  0
  -10.0712    5.4350   -1.4722 H   0  0  0  0  0  0  0  0  0  0  0  0
  -11.3697    6.2113   -3.5598 H   0  0  0  0  0  0  0  0  0  0  0  0
  -12.2340    5.4218   -2.1391 H   0  0  0  0  0  0  0  0  0  0  0  0
  -13.4370    7.4968   -3.2273 H   0  0  0  0  0  0  0  0  0  0  0  0
  -10.9855    9.1338   -0.4668 H   0  0  0  0  0  0  0  0  0  0  0  0
  -13.2064    7.7815    1.1863 H   0  0  0  0  0  0  0  0  0  0  0  0
  -11.7702    8.6968    1.8271 H   0  0  0  0  0  0  0  0  0  0  0  0
  -13.8474   10.0393    1.9046 H   0  0  0  0  0  0  0  0  0  0  0  0
  -12.5885   10.7477    0.8189 H   0  0  0  0  0  0  0  0  0  0  0  0
  -14.7233   10.9160   -0.2651 H   0  0  0  0  0  0  0  0  0  0  0  0
  -14.8850    8.2300    0.6070 H   0  0  0  0  0  0  0  0  0  0  0  0
  -12.3885   11.3673   -1.0877 H   0  0  0  0  0  0  0  0  0  0  0  0
  -11.8944   10.5096   -2.5867 H   0  0  0  0  0  0  0  0  0  0  0  0
  -13.3621   11.5452   -2.5867 H   0  0  0  0  0  0  0  0  0  0  0  0
  -15.7083    9.4092   -2.1351 H   0  0  0  0  0  0  0  0  0  0  0  0
  -14.7434   10.4155   -3.2679 H   0  0  0  0  0  0  0  0  0  0  0  0
  -14.5527    8.6293   -3.2679 H   0  0  0  0  0  0  0  0  0  0  0  0
  -11.4657    6.0643    1.6390 H   0  0  0  0  0  0  0  0  0  0  0  0
  -12.6353    5.9336    0.2819 H   0  0  0  0  0  0  0  0  0  0  0  0
  -11.1439    4.9323    0.2819 H   0  0  0  0  0  0  0  0  0  0  0  0
   -9.8252    8.0993    1.4176 H   0  0  0  0  0  0  0  0  0  0  0  0
   -9.1892    6.4002    1.0413 H   0  0  0  0  0  0  0  0  0  0  0  0
   -8.5523    8.9785   -0.4196 H   0  0  0  0  0  0  0  0  0  0  0  0
   -7.4498    7.9354    0.5621 H   0  0  0  0  0  0  0  0  0  0  0  0
   -7.5904    5.6488    0.2356 H   0  0  0  0  0  0  0  0  0  0  0  0
   -8.3265    4.9446   -1.2439 H   0  0  0  0  0  0  0  0  0  0  0  0
   -6.5962    5.4269   -1.2439 H   0  0  0  0  0  0  0  0  0  0  0  0
  1  2  1  0
  2  3  1  0
  3  4  1  0
  4  5  1  0
  5  6  1  0
  6  7  1  0
  7  8  1  0
  7  9  1  0
  2 10  1  0
 10 11  1  0
 11 12  1  0
 12 13  1  0
 13 14  1  6
 13 15  1  0
 15 16  1  0
 16 17  1  0
 17 18  2  0
 18 19  1  0
 19 20  1  0
 20 21  1  0
 21 22  1  0
 22 23  1  0
 22 24  1  0
 24 25  1  0
 24 26  1  0
 19 27  1  0
 27 28  1  1
 27 29  1  0
 29 30  1  0
 30 31  1  0
 31 32  1  1
  7  5  1  0
 31 10  1  0
 31 13  1  0
 27 15  1  0
 24 18  1  0
  1 33  1  0
  1 34  1  0
  1 35  1  0
  2 36  1  6
  3 37  1  0
  3 38  1  0
  4 39  1  0
  4 40  1  0
  5 41  1  6
  8 42  1  0
  8 43  1  0
  8 44  1  0
  9 45  1  0
  9 46  1  0
  9 47  1  0
 10 48  1  6
 11 49  1  0
 11 50  1  0
 12 51  1  0
 12 52  1  0
 14 53  1  0
 14 54  1  0
 14 55  1  0
 15 56  1  1
 16 57  1  0
 16 58  1  0
 17 59  1  0
 19 60  1  6
 20 61  1  0
 20 62  1  0
 21 63  1  0
 21 64  1  0
 22 65  1  6
 23 66  1  0
 25 67  1  0
 25 68  1  0
 25 69  1  0
 26 70  1  0
 26 71  1  0
 26 72  1  0
 28 73  1  0
 28 74  1  0
 28 75  1  0
 29 76  1  0
 29 77  1  0
 30 78  1  0
 30 79  1  0
 32 80  1  0
 32 81  1  0
 32 82  1  0
M  END
>  <meeko>  (7) 
{"is_sidechain": [false], "intermolecular_energy": 2.731, "internal_energy": -0.839}

$$$$
EPH_relaxed_0001_pdb2pqr_Repair_239_r2_0001_out
     RDKit          3D

 82 86  0  0  0  0  0  0  0  0999 V2000
    0.4380    8.8450   -2.5030 C   0  0  0  0  0  0  0  0  0  0  0  0
    1.1930   10.0060   -3.1570 C   0  0  2  0  0  0  0  0  0  0  0  0
    2.6880   10.0140   -2.7760 C   0  0  0  0  0  0  0  0  0  0  0  0
    3.5950   10.6060   -3.8580 C   0  0  0  0  0  0  0  0  0  0  0  0
    4.9890   10.8250   -3.3530 C   0  0  2  0  0  0  0  0  0  0  0  0
    5.6020   12.0430   -3.7950 O   0  0  0  0  0  0  0  0  0  0  0  0
    6.2130   10.8250   -4.2490 C   0  0  0  0  0  0  0  0  0  0  0  0
    6.1000   10.6010   -5.7250 C   0  0  0  0  0  0  0  0  0  0  0  0
    7.5510   10.5560   -3.6340 C   0  0  0  0  0  0  0  0  0  0  0  0
    0.5490   11.3310   -2.7670 C   0  0  1  0  0  0  0  0  0  0  0  0
   -0.8250   11.1450   -2.0690 C   0  0  0  0  0  0  0  0  0  0  0  0
   -0.9430   12.2670   -1.0060 C   0  0  0  0  0  0  0  0  0  0  0  0
    0.2010   13.2500   -1.3490 C   0  0  1  0  0  0  0  0  0  0  0  0
   -0.3570   14.1240   -2.5160 C   0  0  0  0  0  0  0  0  0  0  0  0
    0.7310   14.1310   -0.1710 C   0  0  2  0  0  0  0  0  0  0  0  0
   -0.3020   15.0930    0.4410 C   0  0  0  0  0  0  0  0  0  0  0  0
   -0.3550   16.4500   -0.1790 C   0  0  0  0  0  0  0  0  0  0  0  0
    0.5820   16.9770   -0.9900 C   0  0  0  0  0  0  0  0  0  0  0  0
    1.8860   16.2230   -1.2810 C   0  0  1  0  0  0  0  0  0  0  0  0
    3.0880   17.1940   -1.1390 C   0  0  0  0  0  0  0  0  0  0  0  0
    2.9330   18.4450   -1.9990 C   0  0  0  0  0  0  0  0  0  0  0  0
    1.6550   19.1980   -1.6400 C   0  0  2  0  0  0  0  0  0  0  0  0
    1.7820   19.7170   -0.3130 O   0  0  0  0  0  0  0  0  0  0  0  0
    0.3770   18.3180   -1.7370 C   0  0  0  0  0  0  0  0  0  0  0  0
    0.0720   18.0050   -3.2230 C   0  0  0  0  0  0  0  0  0  0  0  0
   -0.8210   19.1560   -1.2150 C   0  0  0  0  0  0  0  0  0  0  0  0
    2.0980   14.8690   -0.4760 C   0  0  1  0  0  0  0  0  0  0  0  0
    2.7610   15.1670    0.9030 C   0  0  0  0  0  0  0  0  0  0  0  0
    3.1070   13.9540   -1.2660 C   0  0  0  0  0  0  0  0  0  0  0  0
    2.5090   13.0190   -2.3340 C   0  0  0  0  0  0  0  0  0  0  0  0
    1.3220   12.2320   -1.7710 C   0  0  2  0  0  0  0  0  0  0  0  0
    1.8570   11.3270   -0.6090 C   0  0  0  0  0  0  0  0  0  0  0  0
    0.4987    8.9383   -1.4086 H   0  0  0  0  0  0  0  0  0  0  0  0
   -0.6164    8.8711   -2.8153 H   0  0  0  0  0  0  0  0  0  0  0  0
    0.8895    7.8918   -2.8153 H   0  0  0  0  0  0  0  0  0  0  0  0
    1.1303    9.8694   -4.2467 H   0  0  0  0  0  0  0  0  0  0  0  0
    2.8094   10.6076   -1.8579 H   0  0  0  0  0  0  0  0  0  0  0  0
    2.9911    8.9653   -2.6404 H   0  0  0  0  0  0  0  0  0  0  0  0
    3.6298    9.9138   -4.7122 H   0  0  0  0  0  0  0  0  0  0  0  0
    3.1814   11.5803   -4.1573 H   0  0  0  0  0  0  0  0  0  0  0  0
    4.7587   10.2929   -2.4182 H   0  0  0  0  0  0  0  0  0  0  0  0
    5.6118    9.6333   -5.9127 H   0  0  0  0  0  0  0  0  0  0  0  0
    5.5007   11.4071   -6.1734 H   0  0  0  0  0  0  0  0  0  0  0  0
    7.1045   10.5980   -6.1734 H   0  0  0  0  0  0  0  0  0  0  0  0
    7.4610   10.5741   -2.5378 H   0  0  0  0  0  0  0  0  0  0  0  0
    7.9106    9.5676   -3.9561 H   0  0  0  0  0  0  0  0  0  0  0  0
    8.2646   11.3286   -3.9561 H   0  0  0  0  0  0  0  0  0  0  0  0
    0.5061   11.8127   -3.7550 H   0  0  0  0  0  0  0  0  0  0  0  0
   -1.6383   11.2330   -2.8044 H   0  0  0  0  0  0  0  0  0  0  0  0
   -0.8999   10.1511   -1.6037 H   0  0  0  0  0  0  0  0  0  0  0  0
   -1.9198   12.7679   -1.0766 H   0  0  0  0  0  0  0  0  0  0  0  0
   -0.8666   11.8793    0.0206 H   0  0  0  0  0  0  0  0  0  0  0  0
   -0.9052   14.9827   -2.1012 H   0  0  0  0  0  0  0  0  0  0  0  0
    0.4775   14.4859   -3.1345 H   0  0  0  0  0  0  0  0  0  0  0  0
   -1.0365   13.5192   -3.1345 H   0  0  0  0  0  0  0  0  0  0  0  0
    0.9395   13.3818    0.6070 H   0  0  0  0  0  0  0  0  0  0  0  0
   -1.2963   14.6337    0.3392 H   0  0  0  0  0  0  0  0  0  0  0  0
    0.0071   15.2473    1.4853 H   0  0  0  0  0  0  0  0  0  0  0  0
   -1.2339   17.0721    0.0457 H   0  0  0  0  0  0  0  0  0  0  0  0
    1.8094   15.8727   -2.3209 H   0  0  0  0  0  0  0  0  0  0  0  0
    3.1730   17.4985   -0.0854 H   0  0  0  0  0  0  0  0  0  0  0  0
    3.9889   16.6631   -1.4804 H   0  0  0  0  0  0  0  0  0  0  0  0
    3.7978   19.1045   -1.8345 H   0  0  0  0  0  0  0  0  0  0  0  0
    2.8769   18.1409   -3.0547 H   0  0  0  0  0  0  0  0  0  0  0  0
    1.5338   20.0089   -2.3733 H   0  0  0  0  0  0  0  0  0  0  0  0
    0.9680   20.2070   -0.1090 H   0  0  0  0  0  0  0  0  0  0  0  0
   -0.6946   17.2183   -3.2822 H   0  0  0  0  0  0  0  0  0  0  0  0
   -0.2963   18.9140   -3.7211 H   0  0  0  0  0  0  0  0  0  0  0  0
    0.9902   17.6604   -3.7211 H   0  0  0  0  0  0  0  0  0  0  0  0
   -0.8182   19.1540   -0.1150 H   0  0  0  0  0  0  0  0  0  0  0  0
   -0.7320   20.1898   -1.5801 H   0  0  0  0  0  0  0  0  0  0  0  0
   -1.7616   18.7179   -1.5801 H   0  0  0  0  0  0  0  0  0  0  0  0
    2.0801   14.8610    1.7110 H   0  0  0  0  0  0  0  0  0  0  0  0
    3.7036   14.6060    0.9856 H   0  0  0  0  0  0  0  0  0  0  0  0
    2.9671   16.2444    0.9856 H   0  0  0  0  0  0  0  0  0  0  0  0
    3.8302   14.6132   -1.7685 H   0  0  0  0  0  0  0  0  0  0  0  0
    3.5409   13.2845   -0.5087 H   0  0  0  0  0  0  0  0  0  0  0  0
    2.1684   13.6210   -3.1893 H   0  0  0  0  0  0  0  0  0  0  0  0
    3.2846   12.3058   -2.6497 H   0  0  0  0  0  0  0  0  0  0  0  0
    1.5908   11.7773    0.3587 H   0  0  0  0  0  0  0  0  0  0  0  0
    1.4047   10.3272   -0.6850 H   0  0  0  0  0  0  0  0  0  0  0  0
    2.9510   11.2413   -0.6850 H   0  0  0  0  0  0  0  0  0  0  0  0
  1  2  1  0
  2  3  1  0
  3  4  1  0
  4  5  1  0
  5  6  1  0
  6  7  1  0
  7  8  1  0
  7  9  1  0
  2 10  1  0
 10 11  1  0
 11 12  1  0
 12 13  1  0
 13 14  1  6
 13 15  1  0
 15 16  1  0
 16 17  1  0
 17 18  2  0
 18 19  1  0
 19 20  1  0
 20 21  1  0
 21 22  1  0
 22 23  1  0
 22 24  1  0
 24 25  1  0
 24 26  1  0
 19 27  1  0
 27 28  1  1
 27 29  1  0
 29 30  1  0
 30 31  1  0
 31 32  1  1
  7  5  1  0
 31 10  1  0
 31 13  1  0
 27 15  1  0
 24 18  1  0
  1 33  1  0
  1 34  1  0
  1 35  1  0
  2 36  1  6
  3 37  1  0
  3 38  1  0
  4 39  1  0
  4 40  1  0
  5 41  1  1
  8 42  1  0
  8 43  1  0
  8 44  1  0
  9 45  1  0
  9 46  1  0
  9 47  1  0
 10 48  1  6
 11 49  1  0
 11 50  1  0
 12 51  1  0
 12 52  1  0
 14 53  1  0
 14 54  1  0
 14 55  1  0
 15 56  1  1
 16 57  1  0
 16 58  1  0
 17 59  1  0
 19 60  1  6
 20 61  1  0
 20 62  1  0
 21 63  1  0
 21 64  1  0
 22 65  1  6
 23 66  1  0
 25 67  1  0
 25 68  1  0
 25 69  1  0
 26 70  1  0
 26 71  1  0
 26 72  1  0
 28 73  1  0
 28 74  1  0
 28 75  1  0
 29 76  1  0
 29 77  1  0
 30 78  1  0
 30 79  1  0
 32 80  1  0
 32 81  1  0
 32 82  1  0
M  END
>  <meeko>  (8) 
{"is_sidechain": [false], "intermolecular_energy": 2.731, "internal_energy": -0.839}

$$$$
EPH_relaxed_0001_pdb2pqr_Repair_239_r2_0001_out
     RDKit          3D

 82 86  0  0  0  0  0  0  0  0999 V2000
   -0.0350   10.5590   -4.0310 C   0  0  0  0  0  0  0  0  0  0  0  0
    1.0340   10.3220   -2.9610 C   0  0  2  0  0  0  0  0  0  0  0  0
    0.7960    9.0130   -2.1820 C   0  0  0  0  0  0  0  0  0  0  0  0
   -0.6810    8.6250   -2.0670 C   0  0  0  0  0  0  0  0  0  0  0  0
   -1.2110    8.8640   -0.6860 C   0  0  2  0  0  0  0  0  0  0  0  0
   -2.6340    9.0240   -0.6100 O   0  0  0  0  0  0  0  0  0  0  0  0
   -1.8470   10.1700   -0.2480 C   0  0  0  0  0  0  0  0  0  0  0  0
   -1.9850   11.3250   -1.1900 C   0  0  0  0  0  0  0  0  0  0  0  0
   -1.8870   10.4920    1.2140 C   0  0  0  0  0  0  0  0  0  0  0  0
    1.0750   11.5020   -1.9970 C   0  0  1  0  0  0  0  0  0  0  0  0
    2.1050   11.3050   -0.8540 C   0  0  0  0  0  0  0  0  0  0  0  0
    2.6960   12.7020   -0.5370 C   0  0  0  0  0  0  0  0  0  0  0  0
    1.7610   13.6950   -1.2660 C   0  0  1  0  0  0  0  0  0  0  0  0
    0.5330   13.8610   -0.3150 C   0  0  0  0  0  0  0  0  0  0  0  0
    2.3830   15.0770   -1.6490 C   0  0  2  0  0  0  0  0  0  0  0  0
    2.8470   15.9370   -0.4600 C   0  0  0  0  0  0  0  0  0  0  0  0
    1.8190   16.8700    0.0910 C   0  0  0  0  0  0  0  0  0  0  0  0
    0.6730   17.2200   -0.5210 C   0  0  0  0  0  0  0  0  0  0  0  0
    0.3600   16.7380   -1.9430 C   0  0  1  0  0  0  0  0  0  0  0  0
   -0.1490   17.9310   -2.7940 C   0  0  0  0  0  0  0  0  0  0  0  0
   -1.3300   18.6490   -2.1480 C   0  0  0  0  0  0  0  0  0  0  0  0
   -0.9620   19.1640   -0.7590 C   0  0  2  0  0  0  0  0  0  0  0  0
    0.0220   20.1940   -0.8960 O   0  0  0  0  0  0  0  0  0  0  0  0
   -0.4260   18.0520    0.1850 C   0  0  0  0  0  0  0  0  0  0  0  0
   -1.5830   17.0980    0.5740 C   0  0  0  0  0  0  0  0  0  0  0  0
    0.0400   18.7280    1.5020 C   0  0  0  0  0  0  0  0  0  0  0  0
    1.5140   15.9200   -2.6680 C   0  0  1  0  0  0  0  0  0  0  0  0
    2.4920   16.9000   -3.3840 C   0  0  0  0  0  0  0  0  0  0  0  0
    0.8780   15.0240   -3.7960 C   0  0  0  0  0  0  0  0  0  0  0  0
    0.3900   13.6240   -3.3790 C   0  0  0  0  0  0  0  0  0  0  0  0
    1.4670   12.8830   -2.5790 C   0  0  2  0  0  0  0  0  0  0  0  0
    2.7060   12.6830   -3.5170 C   0  0  0  0  0  0  0  0  0  0  0  0
   -0.9987   10.7726   -3.5455 H   0  0  0  0  0  0  0  0  0  0  0  0
    0.2572   11.4142   -4.6581 H   0  0  0  0  0  0  0  0  0  0  0  0
   -0.1316    9.6605   -4.6581 H   0  0  0  0  0  0  0  0  0  0  0  0
    2.0018   10.2283   -3.4753 H   0  0  0  0  0  0  0  0  0  0  0  0
    1.3294    8.2005   -2.6970 H   0  0  0  0  0  0  0  0  0  0  0  0
    1.1662    9.1758   -1.1590 H   0  0  0  0  0  0  0  0  0  0  0  0
   -1.2638    9.2251   -2.7813 H   0  0  0  0  0  0  0  0  0  0  0  0
   -0.7716    7.5512   -2.2879 H   0  0  0  0  0  0  0  0  0  0  0  0
   -0.4111    8.2493   -0.2474 H   0  0  0  0  0  0  0  0  0  0  0  0
   -2.0962   12.2560   -0.6148 H   0  0  0  0  0  0  0  0  0  0  0  0
   -1.0883   11.3905   -1.8237 H   0  0  0  0  0  0  0  0  0  0  0  0
   -2.8719   11.1773   -1.8237 H   0  0  0  0  0  0  0  0  0  0  0  0
   -1.7720    9.5661    1.7967 H   0  0  0  0  0  0  0  0  0  0  0  0
   -1.0679   11.1839    1.4596 H   0  0  0  0  0  0  0  0  0  0  0  0
   -2.8505   10.9625    1.4596 H   0  0  0  0  0  0  0  0  0  0  0  0
    0.0228   11.5134   -1.6763 H   0  0  0  0  0  0  0  0  0  0  0  0
    1.6079   10.8933    0.0367 H   0  0  0  0  0  0  0  0  0  0  0  0
    2.8956   10.6009   -1.1526 H   0  0  0  0  0  0  0  0  0  0  0  0
    2.6916   12.8887    0.5470 H   0  0  0  0  0  0  0  0  0  0  0  0
    3.7420   12.7967   -0.8640 H   0  0  0  0  0  0  0  0  0  0  0  0
    0.8705   13.8154    0.7310 H   0  0  0  0  0  0  0  0  0  0  0  0
    0.0522   14.8323   -0.5031 H   0  0  0  0  0  0  0  0  0  0  0  0
   -0.1884   13.0522   -0.5031 H   0  0  0  0  0  0  0  0  0  0  0  0
    3.3002   14.7823   -2.1799 H   0  0  0  0  0  0  0  0  0  0  0  0
    3.1594   15.2595    0.3483 H   0  0  0  0  0  0  0  0  0  0  0  0
    3.6607   16.5712   -0.8418 H   0  0  0  0  0  0  0  0  0  0  0  0
    2.0154   17.3080    1.0807 H   0  0  0  0  0  0  0  0  0  0  0  0
   -0.4362   15.9859   -1.8404 H   0  0  0  0  0  0  0  0  0  0  0  0
    0.6739   18.6498   -2.9212 H   0  0  0  0  0  0  0  0  0  0  0  0
   -0.4898   17.5304   -3.7601 H   0  0  0  0  0  0  0  0  0  0  0  0
   -1.6243   19.4992   -2.7809 H   0  0  0  0  0  0  0  0  0  0  0  0
   -2.1624   17.9368   -2.0492 H   0  0  0  0  0  0  0  0  0  0  0  0
   -1.8817   19.5512   -0.2962 H   0  0  0  0  0  0  0  0  0  0  0  0
   -0.1160   20.8300   -0.1740 H   0  0  0  0  0  0  0  0  0  0  0  0
   -1.6559   17.0379    1.6699 H   0  0  0  0  0  0  0  0  0  0  0  0
   -2.5287   17.4823    0.1641 H   0  0  0  0  0  0  0  0  0  0  0  0
   -1.3859   16.0964    0.1641 H   0  0  0  0  0  0  0  0  0  0  0  0
   -0.3494   18.1631    2.3618 H   0  0  0  0  0  0  0  0  0  0  0  0
    1.1393   18.7403    1.5388 H   0  0  0  0  0  0  0  0  0  0  0  0
   -0.3396   19.7598    1.5388 H   0  0  0  0  0  0  0  0  0  0  0  0
    3.0586   17.4677   -2.6312 H   0  0  0  0  0  0  0  0  0  0  0  0
    3.1895   16.3275   -4.0130 H   0  0  0  0  0  0  0  0  0  0  0  0
    1.9181   17.5964   -4.0130 H   0  0  0  0  0  0  0  0  0  0  0  0
    0.0149   15.5686   -4.2063 H   0  0  0  0  0  0  0  0  0  0  0  0
    1.6925   14.8429   -4.5129 H   0  0  0  0  0  0  0  0  0  0  0  0
   -0.5120   13.7276   -2.7580 H   0  0  0  0  0  0  0  0  0  0  0  0
    0.1677   13.0452   -4.2876 H   0  0  0  0  0  0  0  0  0  0  0  0
    3.6089   12.5373   -2.9058 H   0  0  0  0  0  0  0  0  0  0  0  0
    2.5464   11.7990   -4.1519 H   0  0  0  0  0  0  0  0  0  0  0  0
    2.8326   13.5723   -4.1519 H   0  0  0  0  0  0  0  0  0  0  0  0
  1  2  1  0
  2  3  1  0
  3  4  1  0
  4  5  1  0
  5  6  1  0
  6  7  1  0
  7  8  1  0
  7  9  1  0
  2 10  1  0
 10 11  1  0
 11 12  1  0
 12 13  1  0
 13 14  1  1
 13 15  1  0
 15 16  1  0
 16 17  1  0
 17 18  2  0
 18 19  1  0
 19 20  1  0
 20 21  1  0
 21 22  1  0
 22 23  1  0
 22 24  1  0
 24 25  1  0
 24 26  1  0
 19 27  1  0
 27 28  1  6
 27 29  1  0
 29 30  1  0
 30 31  1  0
 31 32  1  6
  7  5  1  0
 31 10  1  0
 31 13  1  0
 27 15  1  0
 24 18  1  0
  1 33  1  0
  1 34  1  0
  1 35  1  0
  2 36  1  6
  3 37  1  0
  3 38  1  0
  4 39  1  0
  4 40  1  0
  5 41  1  1
  8 42  1  0
  8 43  1  0
  8 44  1  0
  9 45  1  0
  9 46  1  0
  9 47  1  0
 10 48  1  1
 11 49  1  0
 11 50  1  0
 12 51  1  0
 12 52  1  0
 14 53  1  0
 14 54  1  0
 14 55  1  0
 15 56  1  6
 16 57  1  0
 16 58  1  0
 17 59  1  0
 19 60  1  1
 20 61  1  0
 20 62  1  0
 21 63  1  0
 21 64  1  0
 22 65  1  1
 23 66  1  0
 25 67  1  0
 25 68  1  0
 25 69  1  0
 26 70  1  0
 26 71  1  0
 26 72  1  0
 28 73  1  0
 28 74  1  0
 28 75  1  0
 29 76  1  0
 29 77  1  0
 30 78  1  0
 30 79  1  0
 32 80  1  0
 32 81  1  0
 32 82  1  0
M  END
>  <meeko>  (9) 
{"is_sidechain": [false], "intermolecular_energy": 2.731, "internal_energy": -0.839}

$$$$
EPH_relaxed_0001_pdb2pqr_Repair_239_r2_0001_out
     RDKit          3D

 82 86  0  0  0  0  0  0  0  0999 V2000
    4.1160   16.6730    0.9210 C   0  0  0  0  0  0  0  0  0  0  0  0
    3.0050   17.0710   -0.0550 C   0  0  2  0  0  0  0  0  0  0  0  0
    2.4370   18.4720    0.2510 C   0  0  0  0  0  0  0  0  0  0  0  0
    2.5840   19.4620   -0.9070 C   0  0  0  0  0  0  0  0  0  0  0  0
    1.7180   19.0860   -2.0710 C   0  0  2  0  0  0  0  0  0  0  0  0
    1.0180   20.1810   -2.6740 O   0  0  0  0  0  0  0  0  0  0  0  0
    0.2040   19.1750   -2.0510 C   0  0  0  0  0  0  0  0  0  0  0  0
   -0.5330   19.6530   -0.8390 C   0  0  0  0  0  0  0  0  0  0  0  0
   -0.5750   18.3420   -3.0210 C   0  0  0  0  0  0  0  0  0  0  0  0
    1.8870   16.0360   -0.0200 C   0  0  1  0  0  0  0  0  0  0  0  0
    0.4760   16.6790   -0.0890 C   0  0  0  0  0  0  0  0  0  0  0  0
   -0.4190   15.7070   -0.9000 C   0  0  0  0  0  0  0  0  0  0  0  0
    0.4020   14.3990   -0.9850 C   0  0  1  0  0  0  0  0  0  0  0  0
    0.1580   13.6840    0.3810 C   0  0  0  0  0  0  0  0  0  0  0  0
    0.0830   13.4600   -2.1930 C   0  0  2  0  0  0  0  0  0  0  0  0
   -1.3500   12.9030   -2.2260 C   0  0  0  0  0  0  0  0  0  0  0  0
   -1.5440   11.5990   -1.5240 C   0  0  0  0  0  0  0  0  0  0  0  0
   -0.5610   10.7650   -1.1390 C   0  0  0  0  0  0  0  0  0  0  0  0
    0.9040   11.0570   -1.4910 C   0  0  1  0  0  0  0  0  0  0  0  0
    1.5720    9.7680   -2.0380 C   0  0  0  0  0  0  0  0  0  0  0  0
    1.4260    8.5850   -1.0860 C   0  0  0  0  0  0  0  0  0  0  0  0
   -0.0450    8.2880   -0.8060 C   0  0  2  0  0  0  0  0  0  0  0  0
   -0.6600    7.8260   -2.0130 O   0  0  0  0  0  0  0  0  0  0  0  0
   -0.8250    9.5170   -0.2600 C   0  0  0  0  0  0  0  0  0  0  0  0
   -0.3570    9.8310    1.1820 C   0  0  0  0  0  0  0  0  0  0  0  0
   -2.3230    9.1240   -0.1550 C   0  0  0  0  0  0  0  0  0  0  0  0
    1.1530   12.3180   -2.4260 C   0  0  1  0  0  0  0  0  0  0  0  0
    1.0400   11.9000   -3.9240 C   0  0  0  0  0  0  0  0  0  0  0  0
    2.6280   12.8280   -2.2180 C   0  0  0  0  0  0  0  0  0  0  0  0
    2.8580   13.8460   -1.0840 C   0  0  0  0  0  0  0  0  0  0  0  0
    1.8470   14.9930   -1.1640 C   0  0  2  0  0  0  0  0  0  0  0  0
    2.0830   15.7450   -2.5180 C   0  0  0  0  0  0  0  0  0  0  0  0
    3.7598   16.8006    1.9539 H   0  0  0  0  0  0  0  0  0  0  0  0
    4.3902   15.6207    0.7551 H   0  0  0  0  0  0  0  0  0  0  0  0
    4.9960   17.3118    0.7551 H   0  0  0  0  0  0  0  0  0  0  0  0
    3.4464   17.1070   -1.0619 H   0  0  0  0  0  0  0  0  0  0  0  0
    1.3674   18.3693    0.4864 H   0  0  0  0  0  0  0  0  0  0  0  0
    3.0155   18.8761    1.0948 H   0  0  0  0  0  0  0  0  0  0  0  0
    2.2961   20.4645   -0.5576 H   0  0  0  0  0  0  0  0  0  0  0  0
    3.6322   19.4466   -1.2403 H   0  0  0  0  0  0  0  0  0  0  0  0
    2.4054   18.2739   -2.3500 H   0  0  0  0  0  0  0  0  0  0  0  0
   -0.0090   19.3132    0.0665 H   0  0  0  0  0  0  0  0  0  0  0  0
   -0.5771   20.7521   -0.8464 H   0  0  0  0  0  0  0  0  0  0  0  0
   -1.5545   19.2450   -0.8464 H   0  0  0  0  0  0  0  0  0  0  0  0
   -1.2247   17.6473   -2.4685 H   0  0  0  0  0  0  0  0  0  0  0  0
   -1.1923   18.9968   -3.6536 H   0  0  0  0  0  0  0  0  0  0  0  0
    0.1197   17.7699   -3.6536 H   0  0  0  0  0  0  0  0  0  0  0  0
    2.1248   15.5398    0.9325 H   0  0  0  0  0  0  0  0  0  0  0  0
    0.0700   16.8113    0.9247 H   0  0  0  0  0  0  0  0  0  0  0  0
    0.5162   17.6697   -0.5654 H   0  0  0  0  0  0  0  0  0  0  0  0
   -1.3732   15.5334   -0.3811 H   0  0  0  0  0  0  0  0  0  0  0  0
   -0.6733   16.1050   -1.8934 H   0  0  0  0  0  0  0  0  0  0  0  0
    0.3938   14.3750    1.2038 H   0  0  0  0  0  0  0  0  0  0  0  0
   -0.8959   13.3767    0.4509 H   0  0  0  0  0  0  0  0  0  0  0  0
    0.8041   12.7965    0.4509 H   0  0  0  0  0  0  0  0  0  0  0  0
    0.1560   14.1455   -3.0502 H   0  0  0  0  0  0  0  0  0  0  0  0
   -2.0136   13.6439   -1.7562 H   0  0  0  0  0  0  0  0  0  0  0  0
   -1.5792   12.7153   -3.2854 H   0  0  0  0  0  0  0  0  0  0  0  0
   -2.5778   11.2949   -1.3031 H   0  0  0  0  0  0  0  0  0  0  0  0
    1.3894   11.3579   -0.5509 H   0  0  0  0  0  0  0  0  0  0  0  0
    1.1029    9.5079   -2.9984 H   0  0  0  0  0  0  0  0  0  0  0  0
    2.6465    9.9723   -2.1548 H   0  0  0  0  0  0  0  0  0  0  0  0
    1.8922    7.6981   -1.5399 H   0  0  0  0  0  0  0  0  0  0  0  0
    1.9204    8.8359   -0.1360 H   0  0  0  0  0  0  0  0  0  0  0  0
   -0.0824    7.5184   -0.0210 H   0  0  0  0  0  0  0  0  0  0  0  0
    0.0480    7.6490   -2.6550 H   0  0  0  0  0  0  0  0  0  0  0  0
   -1.0483    9.3672    1.9010 H   0  0  0  0  0  0  0  0  0  0  0  0
    0.6553    9.4286    1.3348 H   0  0  0  0  0  0  0  0  0  0  0  0
   -0.3455   10.9203    1.3348 H   0  0  0  0  0  0  0  0  0  0  0  0
   -2.6090    9.0490    0.9045 H   0  0  0  0  0  0  0  0  0  0  0  0
   -2.9387    9.8910   -0.6476 H   0  0  0  0  0  0  0  0  0  0  0  0
   -2.4829    8.1535   -0.6476 H   0  0  0  0  0  0  0  0  0  0  0  0
    0.7534   10.8399   -3.9883 H   0  0  0  0  0  0  0  0  0  0  0  0
    0.2764   12.5170   -4.4202 H   0  0  0  0  0  0  0  0  0  0  0  0
    2.0105   12.0482   -4.4202 H   0  0  0  0  0  0  0  0  0  0  0  0
    3.2574   11.9502   -2.0098 H   0  0  0  0  0  0  0  0  0  0  0  0
    2.8795   13.3666   -3.1436 H   0  0  0  0  0  0  0  0  0  0  0  0
    2.7483   13.3365   -0.1153 H   0  0  0  0  0  0  0  0  0  0  0  0
    3.8706   14.2631   -1.1871 H   0  0  0  0  0  0  0  0  0  0  0  0
    2.4066   16.7762   -2.3132 H   0  0  0  0  0  0  0  0  0  0  0  0
    2.8610   15.2245   -3.0958 H   0  0  0  0  0  0  0  0  0  0  0  0
    1.1471   15.7623   -3.0958 H   0  0  0  0  0  0  0  0  0  0  0  0
  1  2  1  0
  2  3  1  0
  3  4  1  0
  4  5  1  0
  5  6  1  0
  6  7  1  0
  7  8  1  0
  7  9  1  0
  2 10  1  0
 10 11  1  0
 11 12  1  0
 12 13  1  0
 13 14  1  1
 13 15  1  0
 15 16  1  0
 16 17  1  0
 17 18  2  0
 18 19  1  0
 19 20  1  0
 20 21  1  0
 21 22  1  0
 22 23  1  0
 22 24  1  0
 24 25  1  0
 24 26  1  0
 19 27  1  0
 27 28  1  6
 27 29  1  0
 29 30  1  0
 30 31  1  0
 31 32  1  6
  7  5  1  0
 31 10  1  0
 31 13  1  0
 27 15  1  0
 24 18  1  0
  1 33  1  0
  1 34  1  0
  1 35  1  0
  2 36  1  6
  3 37  1  0
  3 38  1  0
  4 39  1  0
  4 40  1  0
  5 41  1  6
  8 42  1  0
  8 43  1  0
  8 44  1  0
  9 45  1  0
  9 46  1  0
  9 47  1  0
 10 48  1  1
 11 49  1  0
 11 50  1  0
 12 51  1  0
 12 52  1  0
 14 53  1  0
 14 54  1  0
 14 55  1  0
 15 56  1  6
 16 57  1  0
 16 58  1  0
 17 59  1  0
 19 60  1  1
 20 61  1  0
 20 62  1  0
 21 63  1  0
 21 64  1  0
 22 65  1  1
 23 66  1  0
 25 67  1  0
 25 68  1  0
 25 69  1  0
 26 70  1  0
 26 71  1  0
 26 72  1  0
 28 73  1  0
 28 74  1  0
 28 75  1  0
 29 76  1  0
 29 77  1  0
 30 78  1  0
 30 79  1  0
 32 80  1  0
 32 81  1  0
 32 82  1  0
M  END
>  <meeko>  (10) 
{"is_sidechain": [false], "intermolecular_energy": 2.731, "internal_energy": -0.839}

$$$$
EPH_relaxed_0001_pdb2pqr_Repair_239_r2_0001_out
     RDKit          3D

 82 86  0  0  0  0  0  0  0  0999 V2000
    3.0230   18.6910   -0.7660 C   0  0  0  0  0  0  0  0  0  0  0  0
    2.8490   17.6880   -1.9100 C   0  0  2  0  0  0  0  0  0  0  0  0
    1.5440   17.9270   -2.6970 C   0  0  0  0  0  0  0  0  0  0  0  0
    0.8420   19.2400   -2.3410 C   0  0  0  0  0  0  0  0  0  0  0  0
   -0.5430   19.0040   -1.8200 C   0  0  2  0  0  0  0  0  0  0  0  0
   -1.3280   20.1920   -1.6480 O   0  0  0  0  0  0  0  0  0  0  0  0
   -1.0120   19.4620   -0.4510 C   0  0  0  0  0  0  0  0  0  0  0  0
   -0.0970   20.1920    0.4820 C   0  0  0  0  0  0  0  0  0  0  0  0
   -2.1910   18.7780    0.1680 C   0  0  0  0  0  0  0  0  0  0  0  0
    2.8750   16.2660   -1.3630 C   0  0  1  0  0  0  0  0  0  0  0  0
    3.4210   16.1940    0.0880 C   0  0  0  0  0  0  0  0  0  0  0  0
    2.6370   15.0650    0.8060 C   0  0  0  0  0  0  0  0  0  0  0  0
    1.9110   14.3100   -0.3320 C   0  0  1  0  0  0  0  0  0  0  0  0
    2.9890   13.3530   -0.9310 C   0  0  0  0  0  0  0  0  0  0  0  0
    0.6130   13.5370    0.0700 C   0  0  2  0  0  0  0  0  0  0  0  0
    0.8190   12.3990    1.0840 C   0  0  0  0  0  0  0  0  0  0  0  0
    1.0960   11.0580    0.4900 C   0  0  0  0  0  0  0  0  0  0  0  0
    0.8980   10.7160   -0.7960 C   0  0  0  0  0  0  0  0  0  0  0  0
    0.2510   11.6980   -1.7810 C   0  0  1  0  0  0  0  0  0  0  0  0
   -0.8440   10.9640   -2.6000 C   0  0  0  0  0  0  0  0  0  0  0  0
   -0.3160    9.7090   -3.2890 C   0  0  0  0  0  0  0  0  0  0  0  0
    0.2660    8.7320   -2.2710 C   0  0  2  0  0  0  0  0  0  0  0  0
   -0.7940    8.2410   -1.4450 O   0  0  0  0  0  0  0  0  0  0  0  0
    1.3730    9.3630   -1.3810 C   0  0  0  0  0  0  0  0  0  0  0  0
    2.6420    9.6190   -2.2310 C   0  0  0  0  0  0  0  0  0  0  0  0
    1.7750    8.3170   -0.3060 C   0  0  0  0  0  0  0  0  0  0  0  0
   -0.2670   13.0650   -1.1580 C   0  0  1  0  0  0  0  0  0  0  0  0
   -1.7210   12.8890   -0.6220 C   0  0  0  0  0  0  0  0  0  0  0  0
   -0.3420   14.1530   -2.2940 C   0  0  0  0  0  0  0  0  0  0  0  0
    0.9390   14.9650   -2.5630 C   0  0  0  0  0  0  0  0  0  0  0  0
    1.5210   15.5190   -1.2590 C   0  0  2  0  0  0  0  0  0  0  0  0
    0.4670   16.5030   -0.6440 C   0  0  0  0  0  0  0  0  0  0  0  0
    2.9322   18.1678    0.1973 H   0  0  0  0  0  0  0  0  0  0  0  0
    4.0158   19.1593   -0.8368 H   0  0  0  0  0  0  0  0  0  0  0  0
    2.2459   19.4664   -0.8368 H   0  0  0  0  0  0  0  0  0  0  0  0
    3.6869   17.8324   -2.6079 H   0  0  0  0  0  0  0  0  0  0  0  0
    1.7836   17.9413   -3.7705 H   0  0  0  0  0  0  0  0  0  0  0  0
    0.8548   17.1119   -2.4315 H   0  0  0  0  0  0  0  0  0  0  0  0
    1.4291   19.7606   -1.5700 H   0  0  0  0  0  0  0  0  0  0  0  0
    0.7658   19.8471   -3.2551 H   0  0  0  0  0  0  0  0  0  0  0  0
   -0.5944   18.0306   -2.3297 H   0  0  0  0  0  0  0  0  0  0  0  0
   -0.3782   19.9677    1.5215 H   0  0  0  0  0  0  0  0  0  0  0  0
    0.9399   19.8703    0.3051 H   0  0  0  0  0  0  0  0  0  0  0  0
   -0.1803   21.2745    0.3051 H   0  0  0  0  0  0  0  0  0  0  0  0
   -2.1088   18.8257    1.2639 H   0  0  0  0  0  0  0  0  0  0  0  0
   -3.1159   19.2797   -0.1525 H   0  0  0  0  0  0  0  0  0  0  0  0
   -2.2145   17.7260   -0.1525 H   0  0  0  0  0  0  0  0  0  0  0  0
    3.5113   15.7880   -2.1223 H   0  0  0  0  0  0  0  0  0  0  0  0
    4.4959   15.9608    0.0770 H   0  0  0  0  0  0  0  0  0  0  0  0
    3.2921   17.1555    0.6065 H   0  0  0  0  0  0  0  0  0  0  0  0
    3.3252   14.3935    1.3403 H   0  0  0  0  0  0  0  0  0  0  0  0
    1.9377   15.4566    1.5594 H   0  0  0  0  0  0  0  0  0  0  0  0
    3.5398   12.8640   -0.1140 H   0  0  0  0  0  0  0  0  0  0  0  0
    2.4971   12.5886   -1.5505 H   0  0  0  0  0  0  0  0  0  0  0  0
    3.6897   13.9320   -1.5505 H   0  0  0  0  0  0  0  0  0  0  0  0
    0.0342   14.3078    0.5999 H   0  0  0  0  0  0  0  0  0  0  0  0
    1.6692   12.6676    1.7282 H   0  0  0  0  0  0  0  0  0  0  0  0
   -0.1320   12.3003    1.6279 H   0  0  0  0  0  0  0  0  0  0  0  0
    1.4961   10.2834    1.1608 H   0  0  0  0  0  0  0  0  0  0  0  0
    1.0572   12.0323   -2.4506 H   0  0  0  0  0  0  0  0  0  0  0  0
   -1.6596   10.6765   -1.9202 H   0  0  0  0  0  0  0  0  0  0  0  0
   -1.1938   11.6529   -3.3830 H   0  0  0  0  0  0  0  0  0  0  0  0
   -1.1412    9.2194   -3.8269 H   0  0  0  0  0  0  0  0  0  0  0  0
    0.4798   10.0015   -3.9898 H   0  0  0  0  0  0  0  0  0  0  0  0
    0.7426    7.9149   -2.8324 H   0  0  0  0  0  0  0  0  0  0  0  0
   -1.5030    8.9050   -1.4510 H   0  0  0  0  0  0  0  0  0  0  0  0
    3.5004    9.7922   -1.5653 H   0  0  0  0  0  0  0  0  0  0  0  0
    2.8411    8.7429   -2.8657 H   0  0  0  0  0  0  0  0  0  0  0  0
    2.4859   10.5037   -2.8657 H   0  0  0  0  0  0  0  0  0  0  0  0
    1.6124    8.7402    0.6962 H   0  0  0  0  0  0  0  0  0  0  0  0
    1.1603    7.4127   -0.4264 H   0  0  0  0  0  0  0  0  0  0  0  0
    2.8371    8.0571   -0.4264 H   0  0  0  0  0  0  0  0  0  0  0  0
   -1.7090   12.8905    0.4779 H   0  0  0  0  0  0  0  0  0  0  0  0
   -2.3477   13.7178   -0.9829 H   0  0  0  0  0  0  0  0  0  0  0  0
   -2.1318   11.9346   -0.9829 H   0  0  0  0  0  0  0  0  0  0  0  0
   -0.6135   13.6403   -3.2286 H   0  0  0  0  0  0  0  0  0  0  0  0
   -1.0801   14.8881   -1.9406 H   0  0  0  0  0  0  0  0  0  0  0  0
    1.6846   14.3129   -3.0414 H   0  0  0  0  0  0  0  0  0  0  0  0
    0.6871   15.8095   -3.2213 H   0  0  0  0  0  0  0  0  0  0  0  0
    0.5179   16.4555    0.4538 H   0  0  0  0  0  0  0  0  0  0  0  0
    0.6847   17.5285   -0.9771 H   0  0  0  0  0  0  0  0  0  0  0  0
   -0.5411   16.2155   -0.9771 H   0  0  0  0  0  0  0  0  0  0  0  0
  1  2  1  0
  2  3  1  0
  3  4  1  0
  4  5  1  0
  5  6  1  0
  6  7  1  0
  7  8  1  0
  7  9  1  0
  2 10  1  0
 10 11  1  0
 11 12  1  0
 12 13  1  0
 13 14  1  6
 13 15  1  0
 15 16  1  0
 16 17  1  0
 17 18  2  0
 18 19  1  0
 19 20  1  0
 20 21  1  0
 21 22  1  0
 22 23  1  0
 22 24  1  0
 24 25  1  0
 24 26  1  0
 19 27  1  0
 27 28  1  1
 27 29  1  0
 29 30  1  0
 30 31  1  0
 31 32  1  1
  7  5  1  0
 31 10  1  0
 31 13  1  0
 27 15  1  0
 24 18  1  0
  1 33  1  0
  1 34  1  0
  1 35  1  0
  2 36  1  6
  3 37  1  0
  3 38  1  0
  4 39  1  0
  4 40  1  0
  5 41  1  6
  8 42  1  0
  8 43  1  0
  8 44  1  0
  9 45  1  0
  9 46  1  0
  9 47  1  0
 10 48  1  6
 11 49  1  0
 11 50  1  0
 12 51  1  0
 12 52  1  0
 14 53  1  0
 14 54  1  0
 14 55  1  0
 15 56  1  1
 16 57  1  0
 16 58  1  0
 17 59  1  0
 19 60  1  6
 20 61  1  0
 20 62  1  0
 21 63  1  0
 21 64  1  0
 22 65  1  6
 23 66  1  0
 25 67  1  0
 25 68  1  0
 25 69  1  0
 26 70  1  0
 26 71  1  0
 26 72  1  0
 28 73  1  0
 28 74  1  0
 28 75  1  0
 29 76  1  0
 29 77  1  0
 30 78  1  0
 30 79  1  0
 32 80  1  0
 32 81  1  0
 32 82  1  0
M  END
>  <meeko>  (11) 
{"is_sidechain": [false], "intermolecular_energy": 2.731, "internal_energy": -0.839}

$$$$
EPH_relaxed_0001_pdb2pqr_Repair_239_r2_0001_out
     RDKit          3D

 82 86  0  0  0  0  0  0  0  0999 V2000
   -3.7290    7.1880   -3.4300 C   0  0  0  0  0  0  0  0  0  0  0  0
   -3.7730    7.2730   -1.9010 C   0  0  2  0  0  0  0  0  0  0  0  0
   -5.1960    7.0580   -1.3490 C   0  0  0  0  0  0  0  0  0  0  0  0
   -6.3030    7.3930   -2.3520 C   0  0  0  0  0  0  0  0  0  0  0  0
   -7.6310    7.5610   -1.6760 C   0  0  2  0  0  0  0  0  0  0  0  0
   -8.1620    6.3630   -1.0940 O   0  0  0  0  0  0  0  0  0  0  0  0
   -8.9130    6.9250   -2.1820 C   0  0  0  0  0  0  0  0  0  0  0  0
   -8.9290    6.0750   -3.4130 C   0  0  0  0  0  0  0  0  0  0  0  0
  -10.2200    7.5240   -1.7660 C   0  0  0  0  0  0  0  0  0  0  0  0
   -3.2330    8.6220   -1.4400 C   0  0  1  0  0  0  0  0  0  0  0  0
   -3.8530    9.0850   -0.0950 C   0  0  0  0  0  0  0  0  0  0  0  0
   -2.7400    9.8430    0.6730 C   0  0  0  0  0  0  0  0  0  0  0  0
   -1.6320   10.0800   -0.3800 C   0  0  1  0  0  0  0  0  0  0  0  0
   -2.1040   11.3310   -1.1850 C   0  0  0  0  0  0  0  0  0  0  0  0
   -0.1810   10.2640    0.1720 C   0  0  2  0  0  0  0  0  0  0  0  0
    0.0210   11.4880    1.0830 C   0  0  0  0  0  0  0  0  0  0  0  0
    0.4300   12.7420    0.3840 C   0  0  0  0  0  0  0  0  0  0  0  0
    0.9030   12.8170   -0.8740 C   0  0  0  0  0  0  0  0  0  0  0  0
    1.1600   11.5480   -1.6970 C   0  0  1  0  0  0  0  0  0  0  0  0
    2.5500   11.6450   -2.3780 C   0  0  0  0  0  0  0  0  0  0  0  0
    2.7090   12.9180   -3.2040 C   0  0  0  0  0  0  0  0  0  0  0  0
    2.5040   14.1590   -2.3390 C   0  0  2  0  0  0  0  0  0  0  0  0
    3.5710   14.2400   -1.3890 O   0  0  0  0  0  0  0  0  0  0  0  0
    1.1400   14.1680   -1.5940 C   0  0  0  0  0  0  0  0  0  0  0  0
   -0.0070   14.3840   -2.6120 C   0  0  0  0  0  0  0  0  0  0  0  0
    1.1200   15.4000   -0.6500 C   0  0  0  0  0  0  0  0  0  0  0  0
    0.9500   10.1710   -0.9310 C   0  0  1  0  0  0  0  0  0  0  0  0
    2.2620    9.7690   -0.1910 C   0  0  0  0  0  0  0  0  0  0  0  0
    0.6670    9.0350   -1.9840 C   0  0  0  0  0  0  0  0  0  0  0  0
   -0.8010    8.8240   -2.4000 C   0  0  0  0  0  0  0  0  0  0  0  0
   -1.7110    8.7240   -1.1720 C   0  0  2  0  0  0  0  0  0  0  0  0
   -1.2730    7.4610   -0.3540 C   0  0  0  0  0  0  0  0  0  0  0  0
   -3.2426    6.2484   -3.7312 H   0  0  0  0  0  0  0  0  0  0  0  0
   -4.7540    7.2144   -3.8283 H   0  0  0  0  0  0  0  0  0  0  0  0
   -3.1588    8.0401   -3.8283 H   0  0  0  0  0  0  0  0  0  0  0  0
   -3.1402    6.4648   -1.5056 H   0  0  0  0  0  0  0  0  0  0  0  0
   -5.2995    6.0024   -1.0575 H   0  0  0  0  0  0  0  0  0  0  0  0
   -5.3168    7.7429   -0.4967 H   0  0  0  0  0  0  0  0  0  0  0  0
   -6.0448    8.3293   -2.8685 H   0  0  0  0  0  0  0  0  0  0  0  0
   -6.3839    6.5592   -3.0649 H   0  0  0  0  0  0  0  0  0  0  0  0
   -7.3821    8.5937   -1.3902 H   0  0  0  0  0  0  0  0  0  0  0  0
   -8.9490    5.0135   -3.1254 H   0  0  0  0  0  0  0  0  0  0  0  0
   -9.8229    6.3102   -4.0094 H   0  0  0  0  0  0  0  0  0  0  0  0
   -8.0269    6.2764   -4.0094 H   0  0  0  0  0  0  0  0  0  0  0  0
  -10.2781    7.5506   -0.6679 H   0  0  0  0  0  0  0  0  0  0  0  0
  -10.2970    8.5473   -2.1622 H   0  0  0  0  0  0  0  0  0  0  0  0
  -11.0454    6.9143   -2.1622 H   0  0  0  0  0  0  0  0  0  0  0  0
   -3.5034    9.2370   -2.3110 H   0  0  0  0  0  0  0  0  0  0  0  0
   -4.7068    9.7530   -0.2815 H   0  0  0  0  0  0  0  0  0  0  0  0
   -4.2202    8.2267    0.4869 H   0  0  0  0  0  0  0  0  0  0  0  0
   -3.1185   10.8003    1.0607 H   0  0  0  0  0  0  0  0  0  0  0  0
   -2.3747    9.2782    1.5434 H   0  0  0  0  0  0  0  0  0  0  0  0
   -2.4037   12.1254   -0.4856 H   0  0  0  0  0  0  0  0  0  0  0  0
   -1.2802   11.6917   -1.8184 H   0  0  0  0  0  0  0  0  0  0  0  0
   -2.9608   11.0576   -1.8184 H   0  0  0  0  0  0  0  0  0  0  0  0
   -0.0642    9.3850    0.8229 H   0  0  0  0  0  0  0  0  0  0  0  0
   -0.9273   11.6835    1.6050 H   0  0  0  0  0  0  0  0  0  0  0  0
    0.8505   11.2314    1.7583 H   0  0  0  0  0  0  0  0  0  0  0  0
    0.3370   13.6841    0.9441 H   0  0  0  0  0  0  0  0  0  0  0  0
    0.3711   11.5170   -2.4629 H   0  0  0  0  0  0  0  0  0  0  0  0
    3.3262   11.6310   -1.5987 H   0  0  0  0  0  0  0  0  0  0  0  0
    2.6474   10.7888   -3.0617 H   0  0  0  0  0  0  0  0  0  0  0  0
    3.7205   12.9431   -3.6355 H   0  0  0  0  0  0  0  0  0  0  0  0
    1.9507   12.9164   -4.0009 H   0  0  0  0  0  0  0  0  0  0  0  0
    2.5013   15.0313   -3.0091 H   0  0  0  0  0  0  0  0  0  0  0  0
    3.9750   13.3580   -1.3240 H   0  0  0  0  0  0  0  0  0  0  0  0
   -0.9485   14.5613   -2.0714 H   0  0  0  0  0  0  0  0  0  0  0  0
    0.2226   15.2547   -3.2438 H   0  0  0  0  0  0  0  0  0  0  0  0
   -0.1098   13.4894   -3.2438 H   0  0  0  0  0  0  0  0  0  0  0  0
    1.1255   15.0604    0.3962 H   0  0  0  0  0  0  0  0  0  0  0  0
    2.0082   16.0209   -0.8386 H   0  0  0  0  0  0  0  0  0  0  0  0
    0.2121   15.9918   -0.8386 H   0  0  0  0  0  0  0  0  0  0  0  0
    2.0999    9.8187    0.8959 H   0  0  0  0  0  0  0  0  0  0  0  0
    2.5428    8.7436   -0.4734 H   0  0  0  0  0  0  0  0  0  0  0  0
    3.0690   10.4611   -0.4734 H   0  0  0  0  0  0  0  0  0  0  0  0
    1.2394    9.2733   -2.8926 H   0  0  0  0  0  0  0  0  0  0  0  0
    0.9622    8.1001   -1.4853 H   0  0  0  0  0  0  0  0  0  0  0  0
   -1.1249    9.6733   -3.0194 H   0  0  0  0  0  0  0  0  0  0  0  0
   -0.8728    7.8839   -2.9667 H   0  0  0  0  0  0  0  0  0  0  0  0
   -1.3479    7.6769    0.7220 H   0  0  0  0  0  0  0  0  0  0  0  0
   -1.9304    6.6155   -0.6049 H   0  0  0  0  0  0  0  0  0  0  0  0
   -0.2333    7.2041   -0.6049 H   0  0  0  0  0  0  0  0  0  0  0  0
  1  2  1  0
  2  3  1  0
  3  4  1  0
  4  5  1  0
  5  6  1  0
  6  7  1  0
  7  8  1  0
  7  9  1  0
  2 10  1  0
 10 11  1  0
 11 12  1  0
 12 13  1  0
 13 14  1  6
 13 15  1  0
 15 16  1  0
 16 17  1  0
 17 18  2  0
 18 19  1  0
 19 20  1  0
 20 21  1  0
 21 22  1  0
 22 23  1  0
 22 24  1  0
 24 25  1  0
 24 26  1  0
 19 27  1  0
 27 28  1  1
 27 29  1  0
 29 30  1  0
 30 31  1  0
 31 32  1  1
  7  5  1  0
 31 10  1  0
 31 13  1  0
 27 15  1  0
 24 18  1  0
  1 33  1  0
  1 34  1  0
  1 35  1  0
  2 36  1  1
  3 37  1  0
  3 38  1  0
  4 39  1  0
  4 40  1  0
  5 41  1  1
  8 42  1  0
  8 43  1  0
  8 44  1  0
  9 45  1  0
  9 46  1  0
  9 47  1  0
 10 48  1  6
 11 49  1  0
 11 50  1  0
 12 51  1  0
 12 52  1  0
 14 53  1  0
 14 54  1  0
 14 55  1  0
 15 56  1  1
 16 57  1  0
 16 58  1  0
 17 59  1  0
 19 60  1  6
 20 61  1  0
 20 62  1  0
 21 63  1  0
 21 64  1  0
 22 65  1  6
 23 66  1  0
 25 67  1  0
 25 68  1  0
 25 69  1  0
 26 70  1  0
 26 71  1  0
 26 72  1  0
 28 73  1  0
 28 74  1  0
 28 75  1  0
 29 76  1  0
 29 77  1  0
 30 78  1  0
 30 79  1  0
 32 80  1  0
 32 81  1  0
 32 82  1  0
M  END
>  <meeko>  (12) 
{"is_sidechain": [false], "intermolecular_energy": 2.731, "internal_energy": -0.839}

$$$$
EPH_relaxed_0001_pdb2pqr_Repair_239_r2_0001_out
     RDKit          3D

 82 86  0  0  0  0  0  0  0  0999 V2000
   -0.8590   16.3500   -5.8410 C   0  0  0  0  0  0  0  0  0  0  0  0
    0.2280   15.6480   -6.6600 C   0  0  2  0  0  0  0  0  0  0  0  0
   -0.1790   15.4720   -8.1360 C   0  0  0  0  0  0  0  0  0  0  0  0
    0.4630   16.4940   -9.0780 C   0  0  0  0  0  0  0  0  0  0  0  0
    1.8630   16.1060   -9.4450 C   0  0  2  0  0  0  0  0  0  0  0  0
    2.3350   16.6620  -10.6790 O   0  0  0  0  0  0  0  0  0  0  0  0
    2.2040   15.2310  -10.6370 C   0  0  0  0  0  0  0  0  0  0  0  0
    1.1390   14.6910  -11.5380 C   0  0  0  0  0  0  0  0  0  0  0  0
    3.5140   14.5070  -10.6410 C   0  0  0  0  0  0  0  0  0  0  0  0
    0.5490   14.2920   -6.0420 C   0  0  1  0  0  0  0  0  0  0  0  0
    1.8140   13.6390   -6.6600 C   0  0  0  0  0  0  0  0  0  0  0  0
    2.5240   12.8680   -5.5170 C   0  0  0  0  0  0  0  0  0  0  0  0
    1.4840   12.8250   -4.3730 C   0  0  1  0  0  0  0  0  0  0  0  0
    0.5290   11.6470   -4.7430 C   0  0  0  0  0  0  0  0  0  0  0  0
    2.0560   12.6700   -2.9250 C   0  0  2  0  0  0  0  0  0  0  0  0
    2.8270   11.3650   -2.6640 C   0  0  0  0  0  0  0  0  0  0  0  0
    2.0030   10.2280   -2.1570 C   0  0  0  0  0  0  0  0  0  0  0  0
    0.7590   10.3280   -1.6520 C   0  0  0  0  0  0  0  0  0  0  0  0
    0.0940   11.6970   -1.4620 C   0  0  1  0  0  0  0  0  0  0  0  0
   -0.5520   11.7670   -0.0530 C   0  0  0  0  0  0  0  0  0  0  0  0
   -1.5120   10.6100    0.2080 C   0  0  0  0  0  0  0  0  0  0  0  0
   -0.8000    9.2670    0.0660 C   0  0  2  0  0  0  0  0  0  0  0  0
    0.1660    9.1450    1.1150 O   0  0  0  0  0  0  0  0  0  0  0  0
   -0.1020    9.0870   -1.3110 C   0  0  0  0  0  0  0  0  0  0  0  0
   -1.1720    8.9170   -2.4180 C   0  0  0  0  0  0  0  0  0  0  0  0
    0.6950    7.7550   -1.2710 C   0  0  0  0  0  0  0  0  0  0  0  0
    1.0040   12.9600   -1.7790 C   0  0  1  0  0  0  0  0  0  0  0  0
    1.8240   13.3570   -0.5130 C   0  0  0  0  0  0  0  0  0  0  0  0
    0.0790   14.1900   -2.1120 C   0  0  0  0  0  0  0  0  0  0  0  0
   -0.3540   14.3550   -3.5820 C   0  0  0  0  0  0  0  0  0  0  0  0
    0.8500   14.2550   -4.5230 C   0  0  2  0  0  0  0  0  0  0  0  0
    1.8180   15.4400   -4.1880 C   0  0  0  0  0  0  0  0  0  0  0  0
   -0.6533   16.2172   -4.7686 H   0  0  0  0  0  0  0  0  0  0  0  0
   -0.8650   17.4230   -6.0831 H   0  0  0  0  0  0  0  0  0  0  0  0
   -1.8395   15.9141   -6.0831 H   0  0  0  0  0  0  0  0  0  0  0  0
    1.1229   16.2873   -6.6395 H   0  0  0  0  0  0  0  0  0  0  0  0
    0.1201   14.4645   -8.4609 H   0  0  0  0  0  0  0  0  0  0  0  0
   -1.2670   15.6248   -8.1896 H   0  0  0  0  0  0  0  0  0  0  0  0
   -0.1403   16.5616   -9.9953 H   0  0  0  0  0  0  0  0  0  0  0  0
    0.5005   17.4630   -8.5587 H   0  0  0  0  0  0  0  0  0  0  0  0
    2.1508   16.0529   -8.3846 H   0  0  0  0  0  0  0  0  0  0  0  0
    0.3208   14.2761  -10.9310 H   0  0  0  0  0  0  0  0  0  0  0  0
    0.7503   15.5009  -12.1728 H   0  0  0  0  0  0  0  0  0  0  0  0
    1.5627   13.8988  -12.1728 H   0  0  0  0  0  0  0  0  0  0  0  0
    3.8373   14.3283   -9.6049 H   0  0  0  0  0  0  0  0  0  0  0  0
    3.3993   13.5442  -11.1605 H   0  0  0  0  0  0  0  0  0  0  0  0
    4.2681   15.1164  -11.1605 H   0  0  0  0  0  0  0  0  0  0  0  0
   -0.3945   13.7665   -6.2511 H   0  0  0  0  0  0  0  0  0  0  0  0
    1.5276   12.9451   -7.4640 H   0  0  0  0  0  0  0  0  0  0  0  0
    2.4786   14.4000   -7.0950 H   0  0  0  0  0  0  0  0  0  0  0  0
    2.7883   11.8504   -5.8404 H   0  0  0  0  0  0  0  0  0  0  0  0
    3.4640   13.3494   -5.2093 H   0  0  0  0  0  0  0  0  0  0  0  0
    0.1499   11.1793   -3.8224 H   0  0  0  0  0  0  0  0  0  0  0  0
   -0.3156   12.0314   -5.3337 H   0  0  0  0  0  0  0  0  0  0  0  0
    1.0798   10.9002   -5.3337 H   0  0  0  0  0  0  0  0  0  0  0  0
    2.8065   13.4730   -2.8802 H   0  0  0  0  0  0  0  0  0  0  0  0
    3.2941   11.0513   -3.6092 H   0  0  0  0  0  0  0  0  0  0  0  0
    3.5520   11.5937   -1.8689 H   0  0  0  0  0  0  0  0  0  0  0  0
    2.4500    9.2238   -2.1996 H   0  0  0  0  0  0  0  0  0  0  0  0
   -0.6858   11.7663   -2.2347 H   0  0  0  0  0  0  0  0  0  0  0  0
    0.2466   11.7401    0.7029 H   0  0  0  0  0  0  0  0  0  0  0  0
   -1.1309   12.7007    0.0032 H   0  0  0  0  0  0  0  0  0  0  0  0
   -1.9133   10.6985    1.2284 H   0  0  0  0  0  0  0  0  0  0  0  0
   -2.3256   10.6557   -0.5309 H   0  0  0  0  0  0  0  0  0  0  0  0
   -1.5640    8.4787    0.1357 H   0  0  0  0  0  0  0  0  0  0  0  0
    0.2470   10.0140    1.5440 H   0  0  0  0  0  0  0  0  0  0  0  0
   -2.1573    8.7605   -1.9546 H   0  0  0  0  0  0  0  0  0  0  0  0
   -1.2002    9.8219   -3.0427 H   0  0  0  0  0  0  0  0  0  0  0  0
   -0.9184    8.0479   -3.0427 H   0  0  0  0  0  0  0  0  0  0  0  0
    0.8695    7.4634   -0.2248 H   0  0  0  0  0  0  0  0  0  0  0  0
    0.1193    6.9678   -1.7799 H   0  0  0  0  0  0  0  0  0  0  0  0
    1.6608    7.8902   -1.7799 H   0  0  0  0  0  0  0  0  0  0  0  0
    1.2591   13.0835    0.3904 H   0  0  0  0  0  0  0  0  0  0  0  0
    2.7870   12.8254   -0.5183 H   0  0  0  0  0  0  0  0  0  0  0  0
    2.0042   14.4421   -0.5183 H   0  0  0  0  0  0  0  0  0  0  0  0
   -0.8333   14.0945   -1.5049 H   0  0  0  0  0  0  0  0  0  0  0  0
    0.6891   15.0779   -1.8899 H   0  0  0  0  0  0  0  0  0  0  0  0
   -1.0754   13.5642   -3.8355 H   0  0  0  0  0  0  0  0  0  0  0  0
   -0.8122   15.3477   -3.7032 H   0  0  0  0  0  0  0  0  0  0  0  0
    1.9043   15.5456   -3.0965 H   0  0  0  0  0  0  0  0  0  0  0  0
    2.8103   15.2351   -4.6161 H   0  0  0  0  0  0  0  0  0  0  0  0
    1.4192   16.3715   -4.6161 H   0  0  0  0  0  0  0  0  0  0  0  0
  1  2  1  0
  2  3  1  0
  3  4  1  0
  4  5  1  0
  5  6  1  0
  6  7  1  0
  7  8  1  0
  7  9  1  0
  2 10  1  0
 10 11  1  0
 11 12  1  0
 12 13  1  0
 13 14  1  6
 13 15  1  0
 15 16  1  0
 16 17  1  0
 17 18  2  0
 18 19  1  0
 19 20  1  0
 20 21  1  0
 21 22  1  0
 22 23  1  0
 22 24  1  0
 24 25  1  0
 24 26  1  0
 19 27  1  0
 27 28  1  1
 27 29  1  0
 29 30  1  0
 30 31  1  0
 31 32  1  1
  7  5  1  0
 31 10  1  0
 31 13  1  0
 27 15  1  0
 24 18  1  0
  1 33  1  0
  1 34  1  0
  1 35  1  0
  2 36  1  6
  3 37  1  0
  3 38  1  0
  4 39  1  0
  4 40  1  0
  5 41  1  1
  8 42  1  0
  8 43  1  0
  8 44  1  0
  9 45  1  0
  9 46  1  0
  9 47  1  0
 10 48  1  1
 11 49  1  0
 11 50  1  0
 12 51  1  0
 12 52  1  0
 14 53  1  0
 14 54  1  0
 14 55  1  0
 15 56  1  6
 16 57  1  0
 16 58  1  0
 17 59  1  0
 19 60  1  6
 20 61  1  0
 20 62  1  0
 21 63  1  0
 21 64  1  0
 22 65  1  1
 23 66  1  0
 25 67  1  0
 25 68  1  0
 25 69  1  0
 26 70  1  0
 26 71  1  0
 26 72  1  0
 28 73  1  0
 28 74  1  0
 28 75  1  0
 29 76  1  0
 29 77  1  0
 30 78  1  0
 30 79  1  0
 32 80  1  0
 32 81  1  0
 32 82  1  0
M  END
>  <meeko>  (13) 
{"is_sidechain": [false], "intermolecular_energy": 2.731, "internal_energy": -0.839}

$$$$
EPH_relaxed_0001_pdb2pqr_Repair_239_r2_0001_out
     RDKit          3D

 82 86  0  0  0  0  0  0  0  0999 V2000
    0.1110    9.4210   -2.5660 C   0  0  0  0  0  0  0  0  0  0  0  0
    1.2000   10.4260   -2.9510 C   0  0  2  0  0  0  0  0  0  0  0  0
    2.5970    9.7770   -3.0040 C   0  0  0  0  0  0  0  0  0  0  0  0
    3.5600   10.4670   -3.9740 C   0  0  0  0  0  0  0  0  0  0  0  0
    4.9250   10.6340   -3.3750 C   0  0  2  0  0  0  0  0  0  0  0  0
    5.5450   11.8980   -3.6440 O   0  0  0  0  0  0  0  0  0  0  0  0
    6.1930   10.7430   -4.2010 C   0  0  0  0  0  0  0  0  0  0  0  0
    6.1570   10.6880   -5.6970 C   0  0  0  0  0  0  0  0  0  0  0  0
    7.5000   10.4120   -3.5520 C   0  0  0  0  0  0  0  0  0  0  0  0
    1.2030   11.5910   -1.9680 C   0  0  1  0  0  0  0  0  0  0  0  0
    2.2740   11.4310   -0.8560 C   0  0  0  0  0  0  0  0  0  0  0  0
    2.7980   12.8530   -0.5310 C   0  0  0  0  0  0  0  0  0  0  0  0
    1.7910   13.8060   -1.2170 C   0  0  1  0  0  0  0  0  0  0  0  0
    0.5830   13.8890   -0.2320 C   0  0  0  0  0  0  0  0  0  0  0  0
    2.3280   15.2250   -1.5930 C   0  0  2  0  0  0  0  0  0  0  0  0
    2.7770   16.0900   -0.4020 C   0  0  0  0  0  0  0  0  0  0  0  0
    1.7160   16.9570    0.1920 C   0  0  0  0  0  0  0  0  0  0  0  0
    0.5360   17.2540   -0.3830 C   0  0  0  0  0  0  0  0  0  0  0  0
    0.2110   16.7790   -1.8050 C   0  0  1  0  0  0  0  0  0  0  0  0
   -0.3840   17.9560   -2.6210 C   0  0  0  0  0  0  0  0  0  0  0  0
   -1.5840   18.5990   -1.9320 C   0  0  0  0  0  0  0  0  0  0  0  0
   -1.2060   19.1110   -0.5440 C   0  0  2  0  0  0  0  0  0  0  0  0
   -0.2830   20.1940   -0.6890 O   0  0  0  0  0  0  0  0  0  0  0  0
   -0.5860   18.0140    0.3660 C   0  0  0  0  0  0  0  0  0  0  0  0
   -1.6790   16.9930    0.7690 C   0  0  0  0  0  0  0  0  0  0  0  0
   -0.1210   18.6930    1.6820 C   0  0  0  0  0  0  0  0  0  0  0  0
    1.3870   16.0360   -2.5730 C   0  0  1  0  0  0  0  0  0  0  0  0
    2.2910   17.0790   -3.2980 C   0  0  0  0  0  0  0  0  0  0  0  0
    0.7700   15.1250   -3.7000 C   0  0  0  0  0  0  0  0  0  0  0  0
    0.3690   13.6940   -3.2940 C   0  0  0  0  0  0  0  0  0  0  0  0
    1.5050   13.0000   -2.5360 C   0  0  2  0  0  0  0  0  0  0  0  0
    2.7270   12.8820   -3.5100 C   0  0  0  0  0  0  0  0  0  0  0  0
    0.0419    9.3572   -1.4700 H   0  0  0  0  0  0  0  0  0  0  0  0
   -0.8547    9.7519   -2.9757 H   0  0  0  0  0  0  0  0  0  0  0  0
    0.3635    8.4319   -2.9757 H   0  0  0  0  0  0  0  0  0  0  0  0
    0.9689   10.7933   -3.9618 H   0  0  0  0  0  0  0  0  0  0  0  0
    3.0350    9.8128   -1.9956 H   0  0  0  0  0  0  0  0  0  0  0  0
    2.4595    8.7473   -3.3657 H   0  0  0  0  0  0  0  0  0  0  0  0
    3.6432    9.8589   -4.8869 H   0  0  0  0  0  0  0  0  0  0  0  0
    3.1605   11.4663   -4.2014 H   0  0  0  0  0  0  0  0  0  0  0  0
    4.6542    9.9973   -2.5198 H   0  0  0  0  0  0  0  0  0  0  0  0
    5.5808    9.8076   -6.0178 H   0  0  0  0  0  0  0  0  0  0  0  0
    5.6804   11.5999   -6.0861 H   0  0  0  0  0  0  0  0  0  0  0  0
    7.1834   10.6161   -6.0861 H   0  0  0  0  0  0  0  0  0  0  0  0
    7.3842   10.4413   -2.4585 H   0  0  0  0  0  0  0  0  0  0  0  0
    7.8178    9.4050   -3.8602 H   0  0  0  0  0  0  0  0  0  0  0  0
    8.2588   11.1463   -3.8602 H   0  0  0  0  0  0  0  0  0  0  0  0
    0.1608   11.5411   -1.6196 H   0  0  0  0  0  0  0  0  0  0  0  0
    1.8245   10.9790    0.0405 H   0  0  0  0  0  0  0  0  0  0  0  0
    3.0924   10.7750   -1.1877 H   0  0  0  0  0  0  0  0  0  0  0  0
    2.8141   13.0220    0.5558 H   0  0  0  0  0  0  0  0  0  0  0  0
    3.8278   13.0092   -0.8849 H   0  0  0  0  0  0  0  0  0  0  0  0
    0.9522   13.8636    0.8039 H   0  0  0  0  0  0  0  0  0  0  0  0
    0.0343   14.8270   -0.4029 H   0  0  0  0  0  0  0  0  0  0  0  0
   -0.0888   13.0349   -0.4029 H   0  0  0  0  0  0  0  0  0  0  0  0
    3.2446   14.9885   -2.1532 H   0  0  0  0  0  0  0  0  0  0  0  0
    3.1473   15.4177    0.3860 H   0  0  0  0  0  0  0  0  0  0  0  0
    3.5445   16.7735   -0.7943 H   0  0  0  0  0  0  0  0  0  0  0  0
    1.9159   17.3895    1.1835 H   0  0  0  0  0  0  0  0  0  0  0  0
   -0.5411   15.9837   -1.6958 H   0  0  0  0  0  0  0  0  0  0  0  0
    0.3955   18.7201   -2.7571 H   0  0  0  0  0  0  0  0  0  0  0  0
   -0.7291   17.5530   -3.5846 H   0  0  0  0  0  0  0  0  0  0  0  0
   -1.9404   19.4421   -2.5421 H   0  0  0  0  0  0  0  0  0  0  0  0
   -2.3744   17.8416   -1.8238 H   0  0  0  0  0  0  0  0  0  0  0  0
   -2.1319   19.4410   -0.0502 H   0  0  0  0  0  0  0  0  0  0  0  0
   -0.7360   21.0070   -0.4050 H   0  0  0  0  0  0  0  0  0  0  0  0
   -1.7405   16.9355    1.8658 H   0  0  0  0  0  0  0  0  0  0  0  0
   -2.6494   17.3156    0.3637 H   0  0  0  0  0  0  0  0  0  0  0  0
   -1.4232   16.0029    0.3637 H   0  0  0  0  0  0  0  0  0  0  0  0
   -0.5080   18.1279    2.5428 H   0  0  0  0  0  0  0  0  0  0  0  0
    0.9783   18.7087    1.7179 H   0  0  0  0  0  0  0  0  0  0  0  0
   -0.5038   19.7236    1.7179 H   0  0  0  0  0  0  0  0  0  0  0  0
    2.8195   17.6887   -2.5504 H   0  0  0  0  0  0  0  0  0  0  0  0
    3.0244   16.5538   -3.9276 H   0  0  0  0  0  0  0  0  0  0  0  0
    1.6670   17.7303   -3.9276 H   0  0  0  0  0  0  0  0  0  0  0  0
   -0.1317   15.6286   -4.0786 H   0  0  0  0  0  0  0  0  0  0  0  0
    1.5733   14.9997   -4.4410 H   0  0  0  0  0  0  0  0  0  0  0  0
   -0.5199   13.7392   -2.6476 H   0  0  0  0  0  0  0  0  0  0  0  0
    0.1532   13.1183   -4.2061 H   0  0  0  0  0  0  0  0  0  0  0  0
    3.6545   12.7924   -2.9254 H   0  0  0  0  0  0  0  0  0  0  0  0
    2.6058   11.9914   -4.1441 H   0  0  0  0  0  0  0  0  0  0  0  0
    2.7784   13.7794   -4.1441 H   0  0  0  0  0  0  0  0  0  0  0  0
  1  2  1  0
  2  3  1  0
  3  4  1  0
  4  5  1  0
  5  6  1  0
  6  7  1  0
  7  8  1  0
  7  9  1  0
  2 10  1  0
 10 11  1  0
 11 12  1  0
 12 13  1  0
 13 14  1  1
 13 15  1  0
 15 16  1  0
 16 17  1  0
 17 18  2  0
 18 19  1  0
 19 20  1  0
 20 21  1  0
 21 22  1  0
 22 23  1  0
 22 24  1  0
 24 25  1  0
 24 26  1  0
 19 27  1  0
 27 28  1  6
 27 29  1  0
 29 30  1  0
 30 31  1  0
 31 32  1  6
  7  5  1  0
 31 10  1  0
 31 13  1  0
 27 15  1  0
 24 18  1  0
  1 33  1  0
  1 34  1  0
  1 35  1  0
  2 36  1  6
  3 37  1  0
  3 38  1  0
  4 39  1  0
  4 40  1  0
  5 41  1  1
  8 42  1  0
  8 43  1  0
  8 44  1  0
  9 45  1  0
  9 46  1  0
  9 47  1  0
 10 48  1  1
 11 49  1  0
 11 50  1  0
 12 51  1  0
 12 52  1  0
 14 53  1  0
 14 54  1  0
 14 55  1  0
 15 56  1  6
 16 57  1  0
 16 58  1  0
 17 59  1  0
 19 60  1  1
 20 61  1  0
 20 62  1  0
 21 63  1  0
 21 64  1  0
 22 65  1  1
 23 66  1  0
 25 67  1  0
 25 68  1  0
 25 69  1  0
 26 70  1  0
 26 71  1  0
 26 72  1  0
 28 73  1  0
 28 74  1  0
 28 75  1  0
 29 76  1  0
 29 77  1  0
 30 78  1  0
 30 79  1  0
 32 80  1  0
 32 81  1  0
 32 82  1  0
M  END
>  <meeko>  (14) 
{"is_sidechain": [false], "intermolecular_energy": 2.731, "internal_energy": -0.839}

$$$$
EPH_relaxed_0001_pdb2pqr_Repair_239_r2_0001_out
     RDKit          3D

 82 86  0  0  0  0  0  0  0  0999 V2000
   -0.2830   15.0500   -7.6620 C   0  0  0  0  0  0  0  0  0  0  0  0
    1.0770   15.0530   -6.9580 C   0  0  2  0  0  0  0  0  0  0  0  0
    2.2470   15.1580   -7.9570 C   0  0  0  0  0  0  0  0  0  0  0  0
    2.2830   16.4810   -8.7260 C   0  0  0  0  0  0  0  0  0  0  0  0
    1.8860   16.3000  -10.1600 C   0  0  2  0  0  0  0  0  0  0  0  0
    1.1970   15.0750  -10.4400 O   0  0  0  0  0  0  0  0  0  0  0  0
    2.4810   15.2370  -11.0640 C   0  0  0  0  0  0  0  0  0  0  0  0
    3.5230   14.2850  -10.5690 C   0  0  0  0  0  0  0  0  0  0  0  0
    2.4090   15.4370  -12.5460 C   0  0  0  0  0  0  0  0  0  0  0  0
    1.2260   13.7940   -6.1120 C   0  0  1  0  0  0  0  0  0  0  0  0
    2.6600   13.2030   -6.1680 C   0  0  0  0  0  0  0  0  0  0  0  0
    2.9540   12.6080   -4.7670 C   0  0  0  0  0  0  0  0  0  0  0  0
    1.5790   12.5780   -4.0600 C   0  0  1  0  0  0  0  0  0  0  0  0
    0.8800   11.2900   -4.5970 C   0  0  0  0  0  0  0  0  0  0  0  0
    1.6050   12.6110   -2.4970 C   0  0  2  0  0  0  0  0  0  0  0  0
    2.2980   11.4100   -1.8300 C   0  0  0  0  0  0  0  0  0  0  0  0
    1.4070   10.2550   -1.5110 C   0  0  0  0  0  0  0  0  0  0  0  0
    0.0610   10.2890   -1.4870 C   0  0  0  0  0  0  0  0  0  0  0  0
   -0.6980   11.6040   -1.7040 C   0  0  1  0  0  0  0  0  0  0  0  0
   -1.8060   11.7460   -0.6280 C   0  0  0  0  0  0  0  0  0  0  0  0
   -2.7350   10.5370   -0.5820 C   0  0  0  0  0  0  0  0  0  0  0  0
   -1.9510    9.2570   -0.3060 C   0  0  2  0  0  0  0  0  0  0  0  0
   -1.4170    9.3200    1.0200 O   0  0  0  0  0  0  0  0  0  0  0  0
   -0.8000    9.0130   -1.3220 C   0  0  0  0  0  0  0  0  0  0  0  0
   -1.3950    8.6460   -2.7040 C   0  0  0  0  0  0  0  0  0  0  0  0
   -0.0020    7.7680   -0.8490 C   0  0  0  0  0  0  0  0  0  0  0  0
    0.2000   12.9100   -1.8310 C   0  0  1  0  0  0  0  0  0  0  0  0
    0.4930   13.4940   -0.4160 C   0  0  0  0  0  0  0  0  0  0  0  0
   -0.6070   14.0150   -2.6100 C   0  0  0  0  0  0  0  0  0  0  0  0
   -0.4970   14.0040   -4.1460 C   0  0  0  0  0  0  0  0  0  0  0  0
    0.9670   13.9250   -4.5900 C   0  0  2  0  0  0  0  0  0  0  0  0
    1.6910   15.2190   -4.0820 C   0  0  0  0  0  0  0  0  0  0  0  0
   -1.0854   15.0482   -6.9095 H   0  0  0  0  0  0  0  0  0  0  0  0
   -0.3722   15.9480   -8.2911 H   0  0  0  0  0  0  0  0  0  0  0  0
   -0.3683   14.1517   -8.2911 H   0  0  0  0  0  0  0  0  0  0  0  0
    1.1140   15.9422   -6.3115 H   0  0  0  0  0  0  0  0  0  0  0  0
    3.1897   15.0545   -7.3997 H   0  0  0  0  0  0  0  0  0  0  0  0
    2.1083   14.3584   -8.6995 H   0  0  0  0  0  0  0  0  0  0  0  0
    1.5881   17.1887   -8.2504 H   0  0  0  0  0  0  0  0  0  0  0  0
    3.3139   16.8638   -8.7014 H   0  0  0  0  0  0  0  0  0  0  0  0
    1.7527   17.3847  -10.2850 H   0  0  0  0  0  0  0  0  0  0  0  0
    3.5250   14.2831   -9.4690 H   0  0  0  0  0  0  0  0  0  0  0  0
    3.2993   13.2728  -10.9370 H   0  0  0  0  0  0  0  0  0  0  0  0
    4.5109   14.5989  -10.9370 H   0  0  0  0  0  0  0  0  0  0  0  0
    2.0436   16.4519  -12.7617 H   0  0  0  0  0  0  0  0  0  0  0  0
    3.4103   15.3073  -12.9826 H   0  0  0  0  0  0  0  0  0  0  0  0
    1.7202   14.6988  -12.9826 H   0  0  0  0  0  0  0  0  0  0  0  0
    0.4479   13.1685   -6.5738 H   0  0  0  0  0  0  0  0  0  0  0  0
    2.7152   12.4149   -6.9334 H   0  0  0  0  0  0  0  0  0  0  0  0
    3.3961   13.9771   -6.4305 H   0  0  0  0  0  0  0  0  0  0  0  0
    3.3676   11.5925   -4.8553 H   0  0  0  0  0  0  0  0  0  0  0  0
    3.6967   13.1984   -4.2103 H   0  0  0  0  0  0  0  0  0  0  0  0
    0.5456   10.6738   -3.7494 H   0  0  0  0  0  0  0  0  0  0  0  0
    0.0115   11.5726   -5.2100 H   0  0  0  0  0  0  0  0  0  0  0  0
    1.5903   10.7158   -5.2100 H   0  0  0  0  0  0  0  0  0  0  0  0
    2.2478   13.4795   -2.2908 H   0  0  0  0  0  0  0  0  0  0  0  0
    3.0870   11.0532   -2.5084 H   0  0  0  0  0  0  0  0  0  0  0  0
    2.6785   11.7760   -0.8650 H   0  0  0  0  0  0  0  0  0  0  0  0
    1.8909    9.2955   -1.2758 H   0  0  0  0  0  0  0  0  0  0  0  0
   -1.1543   11.5306   -2.7022 H   0  0  0  0  0  0  0  0  0  0  0  0
   -1.3289   11.8617    0.3563 H   0  0  0  0  0  0  0  0  0  0  0  0
   -2.4142   12.6247   -0.8889 H   0  0  0  0  0  0  0  0  0  0  0  0
   -3.4774   10.6836    0.2163 H   0  0  0  0  0  0  0  0  0  0  0  0
   -3.2335   10.4399   -1.5577 H   0  0  0  0  0  0  0  0  0  0  0  0
   -2.6485    8.4132   -0.4133 H   0  0  0  0  0  0  0  0  0  0  0  0
   -1.2790   10.2570    1.2370 H   0  0  0  0  0  0  0  0  0  0  0  0
   -2.3235    8.0733   -2.5631 H   0  0  0  0  0  0  0  0  0  0  0  0
   -1.6135    9.5665   -3.2653 H   0  0  0  0  0  0  0  0  0  0  0  0
   -0.6705    8.0376   -3.2653 H   0  0  0  0  0  0  0  0  0  0  0  0
    0.0160    7.7400    0.2505 H   0  0  0  0  0  0  0  0  0  0  0  0
   -0.4844    6.8563   -1.2312 H   0  0  0  0  0  0  0  0  0  0  0  0
    1.0279    7.8256   -1.2312 H   0  0  0  0  0  0  0  0  0  0  0  0
    0.1397   12.7898    0.3517 H   0  0  0  0  0  0  0  0  0  0  0  0
    1.5758   13.6494   -0.3005 H   0  0  0  0  0  0  0  0  0  0  0  0
   -0.0297   14.4549   -0.3005 H   0  0  0  0  0  0  0  0  0  0  0  0
   -1.6695   13.8948   -2.3519 H   0  0  0  0  0  0  0  0  0  0  0  0
   -0.1610   14.9706   -2.2970 H   0  0  0  0  0  0  0  0  0  0  0  0
   -1.0400   13.1320   -4.5395 H   0  0  0  0  0  0  0  0  0  0  0  0
   -0.9320   14.9362   -4.5356 H   0  0  0  0  0  0  0  0  0  0  0  0
    1.6962   15.2284   -2.9821 H   0  0  0  0  0  0  0  0  0  0  0  0
    2.7262   15.2298   -4.4537 H   0  0  0  0  0  0  0  0  0  0  0  0
    1.1586   16.1069   -4.4537 H   0  0  0  0  0  0  0  0  0  0  0  0
  1  2  1  0
  2  3  1  0
  3  4  1  0
  4  5  1  0
  5  6  1  0
  6  7  1  0
  7  8  1  0
  7  9  1  0
  2 10  1  0
 10 11  1  0
 11 12  1  0
 12 13  1  0
 13 14  1  1
 13 15  1  0
 15 16  1  0
 16 17  1  0
 17 18  2  0
 18 19  1  0
 19 20  1  0
 20 21  1  0
 21 22  1  0
 22 23  1  0
 22 24  1  0
 24 25  1  0
 24 26  1  0
 19 27  1  0
 27 28  1  1
 27 29  1  0
 29 30  1  0
 30 31  1  0
 31 32  1  1
  7  5  1  0
 31 10  1  0
 31 13  1  0
 27 15  1  0
 24 18  1  0
  1 33  1  0
  1 34  1  0
  1 35  1  0
  2 36  1  1
  3 37  1  0
  3 38  1  0
  4 39  1  0
  4 40  1  0
  5 41  1  6
  8 42  1  0
  8 43  1  0
  8 44  1  0
  9 45  1  0
  9 46  1  0
  9 47  1  0
 10 48  1  6
 11 49  1  0
 11 50  1  0
 12 51  1  0
 12 52  1  0
 14 53  1  0
 14 54  1  0
 14 55  1  0
 15 56  1  6
 16 57  1  0
 16 58  1  0
 17 59  1  0
 19 60  1  6
 20 61  1  0
 20 62  1  0
 21 63  1  0
 21 64  1  0
 22 65  1  1
 23 66  1  0
 25 67  1  0
 25 68  1  0
 25 69  1  0
 26 70  1  0
 26 71  1  0
 26 72  1  0
 28 73  1  0
 28 74  1  0
 28 75  1  0
 29 76  1  0
 29 77  1  0
 30 78  1  0
 30 79  1  0
 32 80  1  0
 32 81  1  0
 32 82  1  0
M  END
>  <meeko>  (15) 
{"is_sidechain": [false], "intermolecular_energy": 2.731, "internal_energy": -0.839}

$$$$
EPH_relaxed_0001_pdb2pqr_Repair_239_r2_0001_out
     RDKit          3D

 82 86  0  0  0  0  0  0  0  0999 V2000
   -2.1290    7.7980   -1.9780 C   0  0  0  0  0  0  0  0  0  0  0  0
   -2.4300    8.5590   -0.6830 C   0  0  2  0  0  0  0  0  0  0  0  0
   -3.9420    8.6290   -0.3900 C   0  0  0  0  0  0  0  0  0  0  0  0
   -4.6700    7.2960   -0.5880 C   0  0  0  0  0  0  0  0  0  0  0  0
   -5.5390    7.3160   -1.8090 C   0  0  2  0  0  0  0  0  0  0  0  0
   -6.4380    8.4300   -1.8860 O   0  0  0  0  0  0  0  0  0  0  0  0
   -7.0450    7.1330   -1.7660 C   0  0  0  0  0  0  0  0  0  0  0  0
   -7.7690    6.9170   -0.4740 C   0  0  0  0  0  0  0  0  0  0  0  0
   -7.7460    6.6780   -3.0090 C   0  0  0  0  0  0  0  0  0  0  0  0
   -1.8490    9.9660   -0.7600 C   0  0  1  0  0  0  0  0  0  0  0  0
   -1.3870   10.4970    0.6230 C   0  0  0  0  0  0  0  0  0  0  0  0
   -0.1310   11.3710    0.3690 C   0  0  0  0  0  0  0  0  0  0  0  0
   -0.1080   11.5850   -1.1630 C   0  0  1  0  0  0  0  0  0  0  0  0
   -1.1210   12.7430   -1.4220 C   0  0  0  0  0  0  0  0  0  0  0  0
    1.2890   11.8870   -1.7970 C   0  0  2  0  0  0  0  0  0  0  0  0
    1.9580   13.1860   -1.3140 C   0  0  0  0  0  0  0  0  0  0  0  0
    1.6420   14.4030   -2.1200 C   0  0  0  0  0  0  0  0  0  0  0  0
    1.0880   14.4060   -3.3460 C   0  0  0  0  0  0  0  0  0  0  0  0
    0.8090   13.0930   -4.0890 C   0  0  1  0  0  0  0  0  0  0  0  0
    1.3060   13.2110   -5.5540 C   0  0  0  0  0  0  0  0  0  0  0  0
    0.7230   14.4230   -6.2740 C   0  0  0  0  0  0  0  0  0  0  0  0
    1.0700   15.7140   -5.5370 C   0  0  2  0  0  0  0  0  0  0  0  0
    2.4840   15.9240   -5.6170 O   0  0  0  0  0  0  0  0  0  0  0  0
    0.6270   15.7080   -4.0470 C   0  0  0  0  0  0  0  0  0  0  0  0
   -0.9180   15.7840   -3.9640 C   0  0  0  0  0  0  0  0  0  0  0  0
    1.1620   17.0060   -3.3850 C   0  0  0  0  0  0  0  0  0  0  0  0
    1.3240   11.7700   -3.3740 C   0  0  1  0  0  0  0  0  0  0  0  0
    2.8080   11.4950   -3.7680 C   0  0  0  0  0  0  0  0  0  0  0  0
    0.4900   10.5430   -3.9020 C   0  0  0  0  0  0  0  0  0  0  0  0
   -0.8210   10.2220   -3.1590 C   0  0  0  0  0  0  0  0  0  0  0  0
   -0.5940   10.1690   -1.6450 C   0  0  2  0  0  0  0  0  0  0  0  0
    0.4050    8.9980   -1.3520 C   0  0  0  0  0  0  0  0  0  0  0  0
   -1.7345    6.8006   -1.7339 H   0  0  0  0  0  0  0  0  0  0  0  0
   -3.0534    7.6931   -2.5650 H   0  0  0  0  0  0  0  0  0  0  0  0
   -1.3830    8.3538   -2.5650 H   0  0  0  0  0  0  0  0  0  0  0  0
   -1.9582    8.0068    0.1432 H   0  0  0  0  0  0  0  0  0  0  0  0
   -4.0790    8.9478    0.6538 H   0  0  0  0  0  0  0  0  0  0  0  0
   -4.3757    9.3417   -1.1070 H   0  0  0  0  0  0  0  0  0  0  0  0
   -3.9241    6.4946   -0.6942 H   0  0  0  0  0  0  0  0  0  0  0  0
   -5.3125    7.1223    0.2878 H   0  0  0  0  0  0  0  0  0  0  0  0
   -4.7531    6.8298   -2.4056 H   0  0  0  0  0  0  0  0  0  0  0  0
   -7.0885    7.1200    0.3660 H   0  0  0  0  0  0  0  0  0  0  0  0
   -8.6321    7.5968   -0.4192 H   0  0  0  0  0  0  0  0  0  0  0  0
   -8.1185    5.8755   -0.4192 H   0  0  0  0  0  0  0  0  0  0  0  0
   -8.6395    6.0980   -2.7346 H   0  0  0  0  0  0  0  0  0  0  0  0
   -8.0456    7.5543   -3.6026 H   0  0  0  0  0  0  0  0  0  0  0  0
   -7.0677    6.0475   -3.6026 H   0  0  0  0  0  0  0  0  0  0  0  0
   -2.7072   10.4973   -1.1974 H   0  0  0  0  0  0  0  0  0  0  0  0
   -2.1830   11.1018    1.0819 H   0  0  0  0  0  0  0  0  0  0  0  0
   -1.1594    9.6677    1.3089 H   0  0  0  0  0  0  0  0  0  0  0  0
   -0.2151   12.3338    0.8944 H   0  0  0  0  0  0  0  0  0  0  0  0
    0.7898   10.8954    0.7377 H   0  0  0  0  0  0  0  0  0  0  0  0
   -1.4724   13.1447   -0.4602 H   0  0  0  0  0  0  0  0  0  0  0  0
   -0.6264   13.5417   -1.9942 H   0  0  0  0  0  0  0  0  0  0  0  0
   -1.9784   12.3590   -1.9942 H   0  0  0  0  0  0  0  0  0  0  0  0
    1.9087   11.0681   -1.4029 H   0  0  0  0  0  0  0  0  0  0  0  0
    1.6350   13.3704   -0.2788 H   0  0  0  0  0  0  0  0  0  0  0  0
    3.0417   13.0265   -1.4150 H   0  0  0  0  0  0  0  0  0  0  0  0
    1.8825   15.3792   -1.6736 H   0  0  0  0  0  0  0  0  0  0  0  0
   -0.2830   12.9614   -4.0756 H   0  0  0  0  0  0  0  0  0  0  0  0
    2.4025   13.2980   -5.5484 H   0  0  0  0  0  0  0  0  0  0  0  0
    0.9739   12.3112   -6.0926 H   0  0  0  0  0  0  0  0  0  0  0  0
    1.1343   14.4686   -7.2932 H   0  0  0  0  0  0  0  0  0  0  0  0
   -0.3717   14.3199   -6.3054 H   0  0  0  0  0  0  0  0  0  0  0  0
    0.5177   16.5307   -6.0248 H   0  0  0  0  0  0  0  0  0  0  0  0
    2.8100   15.4390   -6.3940 H   0  0  0  0  0  0  0  0  0  0  0  0
   -1.2282   15.7993   -2.9088 H   0  0  0  0  0  0  0  0  0  0  0  0
   -1.2673   16.7004   -4.4622 H   0  0  0  0  0  0  0  0  0  0  0  0
   -1.3556   14.9063   -4.4622 H   0  0  0  0  0  0  0  0  0  0  0  0
    1.1198   16.9037   -2.2906 H   0  0  0  0  0  0  0  0  0  0  0  0
    2.2030   17.1748   -3.6976 H   0  0  0  0  0  0  0  0  0  0  0  0
    0.5423   17.8594   -3.6976 H   0  0  0  0  0  0  0  0  0  0  0  0
    3.4144   11.3826   -2.8572 H   0  0  0  0  0  0  0  0  0  0  0  0
    2.8644   10.5711   -4.3623 H   0  0  0  0  0  0  0  0  0  0  0  0
    3.1917   12.3373   -4.3623 H   0  0  0  0  0  0  0  0  0  0  0  0
    0.2363   10.7411   -4.9538 H   0  0  0  0  0  0  0  0  0  0  0  0
    1.1344    9.6663   -3.7401 H   0  0  0  0  0  0  0  0  0  0  0  0
   -1.5628   11.0022   -3.3846 H   0  0  0  0  0  0  0  0  0  0  0  0
   -1.1825    9.2387   -3.4942 H   0  0  0  0  0  0  0  0  0  0  0  0
    0.5129    8.8715   -0.2646 H   0  0  0  0  0  0  0  0  0  0  0  0
    0.0184    8.0673   -1.7928 H   0  0  0  0  0  0  0  0  0  0  0  0
    1.3850    9.2331   -1.7928 H   0  0  0  0  0  0  0  0  0  0  0  0
  1  2  1  0
  2  3  1  0
  3  4  1  0
  4  5  1  0
  5  6  1  0
  6  7  1  0
  7  8  1  0
  7  9  1  0
  2 10  1  0
 10 11  1  0
 11 12  1  0
 12 13  1  0
 13 14  1  1
 13 15  1  0
 15 16  1  0
 16 17  1  0
 17 18  2  0
 18 19  1  0
 19 20  1  0
 20 21  1  0
 21 22  1  0
 22 23  1  0
 22 24  1  0
 24 25  1  0
 24 26  1  0
 19 27  1  0
 27 28  1  6
 27 29  1  0
 29 30  1  0
 30 31  1  0
 31 32  1  6
  7  5  1  0
 31 10  1  0
 31 13  1  0
 27 15  1  0
 24 18  1  0
  1 33  1  0
  1 34  1  0
  1 35  1  0
  2 36  1  1
  3 37  1  0
  3 38  1  0
  4 39  1  0
  4 40  1  0
  5 41  1  6
  8 42  1  0
  8 43  1  0
  8 44  1  0
  9 45  1  0
  9 46  1  0
  9 47  1  0
 10 48  1  6
 11 49  1  0
 11 50  1  0
 12 51  1  0
 12 52  1  0
 14 53  1  0
 14 54  1  0
 14 55  1  0
 15 56  1  1
 16 57  1  0
 16 58  1  0
 17 59  1  0
 19 60  1  6
 20 61  1  0
 20 62  1  0
 21 63  1  0
 21 64  1  0
 22 65  1  6
 23 66  1  0
 25 67  1  0
 25 68  1  0
 25 69  1  0
 26 70  1  0
 26 71  1  0
 26 72  1  0
 28 73  1  0
 28 74  1  0
 28 75  1  0
 29 76  1  0
 29 77  1  0
 30 78  1  0
 30 79  1  0
 32 80  1  0
 32 81  1  0
 32 82  1  0
M  END
>  <meeko>  (16) 
{"is_sidechain": [false], "intermolecular_energy": 2.731, "internal_energy": -0.839}

$$$$
EPH_relaxed_0001_pdb2pqr_Repair_239_r2_0001_out
     RDKit          3D

 82 86  0  0  0  0  0  0  0  0999 V2000
    1.7930   10.7630   -4.8670 C   0  0  0  0  0  0  0  0  0  0  0  0
    1.0310   10.6140   -3.5480 C   0  0  2  0  0  0  0  0  0  0  0  0
   -0.1360    9.6120   -3.6610 C   0  0  0  0  0  0  0  0  0  0  0  0
   -0.1040    8.5070   -2.6020 C   0  0  0  0  0  0  0  0  0  0  0  0
   -0.0120    9.0700   -1.2160 C   0  0  2  0  0  0  0  0  0  0  0  0
   -0.3740    8.1560   -0.1730 O   0  0  0  0  0  0  0  0  0  0  0  0
   -1.2180    9.3080   -0.3270 C   0  0  0  0  0  0  0  0  0  0  0  0
   -2.6040    8.9880   -0.7920 C   0  0  0  0  0  0  0  0  0  0  0  0
   -1.1000   10.2960    0.7910 C   0  0  0  0  0  0  0  0  0  0  0  0
    0.5100   11.9720   -3.0920 C   0  0  1  0  0  0  0  0  0  0  0  0
   -0.9460   11.9050   -2.5610 C   0  0  0  0  0  0  0  0  0  0  0  0
   -1.0490   12.9360   -1.4070 C   0  0  0  0  0  0  0  0  0  0  0  0
    0.2360   13.7880   -1.5290 C   0  0  1  0  0  0  0  0  0  0  0  0
   -0.0770   14.8260   -2.6520 C   0  0  0  0  0  0  0  0  0  0  0  0
    0.7310   14.4850   -0.2200 C   0  0  2  0  0  0  0  0  0  0  0  0
   -0.2430   15.5160    0.3770 C   0  0  0  0  0  0  0  0  0  0  0  0
   -0.0610   16.9180   -0.1040 C   0  0  0  0  0  0  0  0  0  0  0  0
    1.0180   17.3870   -0.7570 C   0  0  0  0  0  0  0  0  0  0  0  0
    2.2460   16.4980   -0.9890 C   0  0  1  0  0  0  0  0  0  0  0  0
    3.5320   17.2880   -0.6280 C   0  0  0  0  0  0  0  0  0  0  0  0
    3.6280   18.6190   -1.3670 C   0  0  0  0  0  0  0  0  0  0  0  0
    2.4160   19.4980   -1.0660 C   0  0  2  0  0  0  0  0  0  0  0  0
    2.4530   19.8770    0.3130 O   0  0  0  0  0  0  0  0  0  0  0  0
    1.0620   18.8040   -1.3810 C   0  0  0  0  0  0  0  0  0  0  0  0
    0.8920   18.6650   -2.9140 C   0  0  0  0  0  0  0  0  0  0  0  0
   -0.0780   19.7410   -0.9010 C   0  0  0  0  0  0  0  0  0  0  0  0
    2.2010   15.0620   -0.3090 C   0  0  1  0  0  0  0  0  0  0  0  0
    2.7340   15.1490    1.1540 C   0  0  0  0  0  0  0  0  0  0  0  0
    3.1770   14.0970   -1.0810 C   0  0  0  0  0  0  0  0  0  0  0  0
    2.5960   13.3460   -2.2940 C   0  0  0  0  0  0  0  0  0  0  0  0
    1.2670   12.6730   -1.9370 C   0  0  2  0  0  0  0  0  0  0  0  0
    1.5540   11.6070   -0.8240 C   0  0  0  0  0  0  0  0  0  0  0  0
    2.8527   10.9702   -4.6569 H   0  0  0  0  0  0  0  0  0  0  0  0
    1.7093    9.8315   -5.4460 H   0  0  0  0  0  0  0  0  0  0  0  0
    1.3646   11.5944   -5.4460 H   0  0  0  0  0  0  0  0  0  0  0  0
    1.7354   10.2169   -2.8022 H   0  0  0  0  0  0  0  0  0  0  0  0
   -1.0805   10.1660   -3.5563 H   0  0  0  0  0  0  0  0  0  0  0  0
   -0.0436    9.1206   -4.6408 H   0  0  0  0  0  0  0  0  0  0  0  0
   -1.0233    7.9085   -2.6834 H   0  0  0  0  0  0  0  0  0  0  0  0
    0.7870    7.8870   -2.7801 H   0  0  0  0  0  0  0  0  0  0  0  0
    0.8269    9.7179   -1.5102 H   0  0  0  0  0  0  0  0  0  0  0  0
   -3.2576    8.8371    0.0798 H   0  0  0  0  0  0  0  0  0  0  0  0
   -2.9886    9.8210   -1.3988 H   0  0  0  0  0  0  0  0  0  0  0  0
   -2.5845    8.0707   -1.3988 H   0  0  0  0  0  0  0  0  0  0  0  0
   -1.1630    9.7688    1.7544 H   0  0  0  0  0  0  0  0  0  0  0  0
   -0.1333   10.8162    0.7202 H   0  0  0  0  0  0  0  0  0  0  0  0
   -1.9170   11.0292    0.7202 H   0  0  0  0  0  0  0  0  0  0  0  0
    0.6377   12.5411   -4.0246 H   0  0  0  0  0  0  0  0  0  0  0  0
   -1.6539   12.1619   -3.3628 H   0  0  0  0  0  0  0  0  0  0  0  0
   -1.1920   10.8923   -2.2091 H   0  0  0  0  0  0  0  0  0  0  0  0
   -1.9441   13.5641   -1.5262 H   0  0  0  0  0  0  0  0  0  0  0  0
   -1.1372   12.4529   -0.4227 H   0  0  0  0  0  0  0  0  0  0  0  0
   -0.3659   15.7842   -2.1955 H   0  0  0  0  0  0  0  0  0  0  0  0
    0.8171   14.9719   -3.2760 H   0  0  0  0  0  0  0  0  0  0  0  0
   -0.9027   14.4534   -3.2760 H   0  0  0  0  0  0  0  0  0  0  0  0
    0.7596   13.6506    0.4962 H   0  0  0  0  0  0  0  0  0  0  0  0
   -1.2668   15.2010    0.1269 H   0  0  0  0  0  0  0  0  0  0  0  0
   -0.0401   15.5362    1.4579 H   0  0  0  0  0  0  0  0  0  0  0  0
   -0.8784   17.6275    0.0922 H   0  0  0  0  0  0  0  0  0  0  0  0
    2.2464   16.2532   -2.0614 H   0  0  0  0  0  0  0  0  0  0  0  0
    3.5328   17.4848    0.4543 H   0  0  0  0  0  0  0  0  0  0  0  0
    4.3951   16.6761   -0.9290 H   0  0  0  0  0  0  0  0  0  0  0  0
    4.5411   19.1430   -1.0480 H   0  0  0  0  0  0  0  0  0  0  0  0
    3.6575   18.4193   -2.4483 H   0  0  0  0  0  0  0  0  0  0  0  0
    2.4764   20.3788   -1.7221 H   0  0  0  0  0  0  0  0  0  0  0  0
    1.5520   20.1310    0.5730 H   0  0  0  0  0  0  0  0  0  0  0  0
    0.0570   17.9823   -3.1299 H   0  0  0  0  0  0  0  0  0  0  0  0
    0.6806   19.6523   -3.3505 H   0  0  0  0  0  0  0  0  0  0  0  0
    1.8176   18.2617   -3.3505 H   0  0  0  0  0  0  0  0  0  0  0  0
   -0.0995   19.7587    0.1986 H   0  0  0  0  0  0  0  0  0  0  0  0
    0.0990   20.7581   -1.2807 H   0  0  0  0  0  0  0  0  0  0  0  0
   -1.0416   19.3704   -1.2807 H   0  0  0  0  0  0  0  0  0  0  0  0
    1.8991   15.0127    1.8571 H   0  0  0  0  0  0  0  0  0  0  0  0
    3.4841   14.3614    1.3184 H   0  0  0  0  0  0  0  0  0  0  0  0
    3.1947   16.1342    1.3184 H   0  0  0  0  0  0  0  0  0  0  0  0
    4.0263   14.6983   -1.4375 H   0  0  0  0  0  0  0  0  0  0  0  0
    3.4394   13.3127   -0.3557 H   0  0  0  0  0  0  0  0  0  0  0  0
    2.4288   14.0606   -3.1134 H   0  0  0  0  0  0  0  0  0  0  0  0
    3.3114   12.5688   -2.6009 H   0  0  0  0  0  0  0  0  0  0  0  0
    1.4297   12.0687    0.1667 H   0  0  0  0  0  0  0  0  0  0  0  0
    0.8496   10.7687   -0.9288 H   0  0  0  0  0  0  0  0  0  0  0  0
    2.5841   11.2357   -0.9288 H   0  0  0  0  0  0  0  0  0  0  0  0
  1  2  1  0
  2  3  1  0
  3  4  1  0
  4  5  1  0
  5  6  1  0
  6  7  1  0
  7  8  1  0
  7  9  1  0
  2 10  1  0
 10 11  1  0
 11 12  1  0
 12 13  1  0
 13 14  1  6
 13 15  1  0
 15 16  1  0
 16 17  1  0
 17 18  2  0
 18 19  1  0
 19 20  1  0
 20 21  1  0
 21 22  1  0
 22 23  1  0
 22 24  1  0
 24 25  1  0
 24 26  1  0
 19 27  1  0
 27 28  1  1
 27 29  1  0
 29 30  1  0
 30 31  1  0
 31 32  1  1
  7  5  1  0
 31 10  1  0
 31 13  1  0
 27 15  1  0
 24 18  1  0
  1 33  1  0
  1 34  1  0
  1 35  1  0
  2 36  1  1
  3 37  1  0
  3 38  1  0
  4 39  1  0
  4 40  1  0
  5 41  1  1
  8 42  1  0
  8 43  1  0
  8 44  1  0
  9 45  1  0
  9 46  1  0
  9 47  1  0
 10 48  1  6
 11 49  1  0
 11 50  1  0
 12 51  1  0
 12 52  1  0
 14 53  1  0
 14 54  1  0
 14 55  1  0
 15 56  1  1
 16 57  1  0
 16 58  1  0
 17 59  1  0
 19 60  1  6
 20 61  1  0
 20 62  1  0
 21 63  1  0
 21 64  1  0
 22 65  1  6
 23 66  1  0
 25 67  1  0
 25 68  1  0
 25 69  1  0
 26 70  1  0
 26 71  1  0
 26 72  1  0
 28 73  1  0
 28 74  1  0
 28 75  1  0
 29 76  1  0
 29 77  1  0
 30 78  1  0
 30 79  1  0
 32 80  1  0
 32 81  1  0
 32 82  1  0
M  END
>  <meeko>  (17) 
{"is_sidechain": [false], "intermolecular_energy": 2.731, "internal_energy": -0.839}

$$$$
EPH_relaxed_0001_pdb2pqr_Repair_239_r2_0001_out
     RDKit          3D

 82 86  0  0  0  0  0  0  0  0999 V2000
   -4.4060    7.0350   -2.7810 C   0  0  0  0  0  0  0  0  0  0  0  0
   -4.8050    7.6330   -1.4290 C   0  0  2  0  0  0  0  0  0  0  0  0
   -6.3050    7.9840   -1.3690 C   0  0  0  0  0  0  0  0  0  0  0  0
   -7.2260    6.7630   -1.4420 C   0  0  0  0  0  0  0  0  0  0  0  0
   -8.2430    6.7700   -0.3410 C   0  0  2  0  0  0  0  0  0  0  0  0
   -9.3020    5.8160   -0.4970 O   0  0  0  0  0  0  0  0  0  0  0  0
   -9.6850    7.2000   -0.5360 C   0  0  0  0  0  0  0  0  0  0  0  0
  -10.1900    7.6550   -1.8690 C   0  0  0  0  0  0  0  0  0  0  0  0
  -10.4680    7.6420    0.6610 C   0  0  0  0  0  0  0  0  0  0  0  0
   -3.9680    8.8740   -1.1420 C   0  0  1  0  0  0  0  0  0  0  0  0
   -4.3620    9.5650    0.1900 C   0  0  0  0  0  0  0  0  0  0  0  0
   -3.0560   10.1380    0.8000 C   0  0  0  0  0  0  0  0  0  0  0  0
   -2.0200   10.0520   -0.3450 C   0  0  1  0  0  0  0  0  0  0  0  0
   -2.3020   11.3030   -1.2360 C   0  0  0  0  0  0  0  0  0  0  0  0
   -0.5190    9.9750    0.0850 C   0  0  2  0  0  0  0  0  0  0  0  0
    0.0020   11.2020    0.8530 C   0  0  0  0  0  0  0  0  0  0  0  0
    0.5910   12.2820    0.0070 C   0  0  0  0  0  0  0  0  0  0  0  0
    0.9570   12.1530   -1.2820 C   0  0  0  0  0  0  0  0  0  0  0  0
    0.8810   10.7950   -1.9910 C   0  0  1  0  0  0  0  0  0  0  0  0
    2.1980   10.5450   -2.7730 C   0  0  0  0  0  0  0  0  0  0  0  0
    2.5350   11.6840   -3.7300 C   0  0  0  0  0  0  0  0  0  0  0  0
    2.6590   13.0070   -2.9800 C   0  0  2  0  0  0  0  0  0  0  0  0
    3.8010   12.9440   -2.1190 O   0  0  0  0  0  0  0  0  0  0  0  0
    1.3950   13.3610   -2.1470 C   0  0  0  0  0  0  0  0  0  0  0  0
    0.2300   13.7250   -3.0990 C   0  0  0  0  0  0  0  0  0  0  0  0
    1.7050   14.6440   -1.3300 C   0  0  0  0  0  0  0  0  0  0  0  0
    0.4690    9.5600   -1.0790 C   0  0  1  0  0  0  0  0  0  0  0  0
    1.7340    8.9560   -0.3960 C   0  0  0  0  0  0  0  0  0  0  0  0
   -0.1270    8.4240   -1.9930 C   0  0  0  0  0  0  0  0  0  0  0  0
   -1.6390    8.4870   -2.2830 C   0  0  0  0  0  0  0  0  0  0  0  0
   -2.4380    8.6810   -0.9910 C   0  0  2  0  0  0  0  0  0  0  0  0
   -2.1920    7.4270   -0.0850 C   0  0  0  0  0  0  0  0  0  0  0  0
   -3.8022    6.1301   -2.6178 H   0  0  0  0  0  0  0  0  0  0  0  0
   -5.3117    6.7742   -3.3482 H   0  0  0  0  0  0  0  0  0  0  0  0
   -3.8175    7.7711   -3.3482 H   0  0  0  0  0  0  0  0  0  0  0  0
   -4.6137    6.8696   -0.6605 H   0  0  0  0  0  0  0  0  0  0  0  0
   -6.5009    8.5108   -0.4234 H   0  0  0  0  0  0  0  0  0  0  0  0
   -6.5252    8.6059   -2.2492 H   0  0  0  0  0  0  0  0  0  0  0  0
   -7.7484    6.7677   -2.4100 H   0  0  0  0  0  0  0  0  0  0  0  0
   -6.6078    5.8598   -1.3325 H   0  0  0  0  0  0  0  0  0  0  0  0
   -7.4787    7.0624    0.3941 H   0  0  0  0  0  0  0  0  0  0  0  0
  -11.0001    8.3849   -1.7245 H   0  0  0  0  0  0  0  0  0  0  0  0
   -9.3694    8.1245   -2.4312 H   0  0  0  0  0  0  0  0  0  0  0  0
  -10.5717    6.7900   -2.4312 H   0  0  0  0  0  0  0  0  0  0  0  0
   -9.9377    7.3426    1.5770 H   0  0  0  0  0  0  0  0  0  0  0  0
  -10.5793    8.7362    0.6427 H   0  0  0  0  0  0  0  0  0  0  0  0
  -11.4623    7.1719    0.6427 H   0  0  0  0  0  0  0  0  0  0  0  0
   -4.1857    9.4569   -2.0491 H   0  0  0  0  0  0  0  0  0  0  0  0
   -5.0786   10.3772   -0.0020 H   0  0  0  0  0  0  0  0  0  0  0  0
   -4.8401    8.8525    0.8783 H   0  0  0  0  0  0  0  0  0  0  0  0
   -3.2002   11.1818    1.1156 H   0  0  0  0  0  0  0  0  0  0  0  0
   -2.7356    9.5843    1.6948 H   0  0  0  0  0  0  0  0  0  0  0  0
   -2.4983   12.1740   -0.5935 H   0  0  0  0  0  0  0  0  0  0  0  0
   -1.4270   11.5056   -1.8711 H   0  0  0  0  0  0  0  0  0  0  0  0
   -3.1793   11.1106   -1.8711 H   0  0  0  0  0  0  0  0  0  0  0  0
   -0.5232    9.1472    0.8094 H   0  0  0  0  0  0  0  0  0  0  0  0
   -0.8390   11.6324    1.4165 H   0  0  0  0  0  0  0  0  0  0  0  0
    0.8195   10.8362    1.4916 H   0  0  0  0  0  0  0  0  0  0  0  0
    0.7383   13.2658    0.4765 H   0  0  0  0  0  0  0  0  0  0  0  0
    0.0374   10.8645   -2.6935 H   0  0  0  0  0  0  0  0  0  0  0  0
    3.0211   10.4353   -2.0516 H   0  0  0  0  0  0  0  0  0  0  0  0
    2.0620    9.6335   -3.3735 H   0  0  0  0  0  0  0  0  0  0  0  0
    3.4892   11.4632   -4.2308 H   0  0  0  0  0  0  0  0  0  0  0  0
    1.7249   11.7735   -4.4687 H   0  0  0  0  0  0  0  0  0  0  0  0
    2.7714   13.8023   -3.7315 H   0  0  0  0  0  0  0  0  0  0  0  0
    4.3930   13.6750   -2.3610 H   0  0  0  0  0  0  0  0  0  0  0  0
   -0.6548   14.0014   -2.5067 H   0  0  0  0  0  0  0  0  0  0  0  0
    0.5263   14.5734   -3.7334 H   0  0  0  0  0  0  0  0  0  0  0  0
   -0.0094   12.8588   -3.7334 H   0  0  0  0  0  0  0  0  0  0  0  0
    1.6500   14.4165   -0.2552 H   0  0  0  0  0  0  0  0  0  0  0  0
    2.7153   15.0014   -1.5779 H   0  0  0  0  0  0  0  0  0  0  0  0
    0.9693   15.4233   -1.5779 H   0  0  0  0  0  0  0  0  0  0  0  0
    1.6215    9.0097    0.6969 H   0  0  0  0  0  0  0  0  0  0  0  0
    1.8494    7.9056   -0.7016 H   0  0  0  0  0  0  0  0  0  0  0  0
    2.6234    9.5266   -0.7016 H   0  0  0  0  0  0  0  0  0  0  0  0
    0.3989    8.4634   -2.9583 H   0  0  0  0  0  0  0  0  0  0  0  0
    0.0187    7.4926   -1.4262 H   0  0  0  0  0  0  0  0  0  0  0  0
   -1.8405    9.3298   -2.9606 H   0  0  0  0  0  0  0  0  0  0  0  0
   -1.9468    7.5380   -2.7463 H   0  0  0  0  0  0  0  0  0  0  0  0
   -2.2499    7.7221    0.9731 H   0  0  0  0  0  0  0  0  0  0  0  0
   -2.9580    6.6663   -0.2959 H   0  0  0  0  0  0  0  0  0  0  0  0
   -1.1953    7.0121   -0.2959 H   0  0  0  0  0  0  0  0  0  0  0  0
  1  2  1  0
  2  3  1  0
  3  4  1  0
  4  5  1  0
  5  6  1  0
  6  7  1  0
  7  8  1  0
  7  9  1  0
  2 10  1  0
 10 11  1  0
 11 12  1  0
 12 13  1  0
 13 14  1  6
 13 15  1  0
 15 16  1  0
 16 17  1  0
 17 18  2  0
 18 19  1  0
 19 20  1  0
 20 21  1  0
 21 22  1  0
 22 23  1  0
 22 24  1  0
 24 25  1  0
 24 26  1  0
 19 27  1  0
 27 28  1  1
 27 29  1  0
 29 30  1  0
 30 31  1  0
 31 32  1  1
  7  5  1  0
 31 10  1  0
 31 13  1  0
 27 15  1  0
 24 18  1  0
  1 33  1  0
  1 34  1  0
  1 35  1  0
  2 36  1  1
  3 37  1  0
  3 38  1  0
  4 39  1  0
  4 40  1  0
  5 41  1  1
  8 42  1  0
  8 43  1  0
  8 44  1  0
  9 45  1  0
  9 46  1  0
  9 47  1  0
 10 48  1  6
 11 49  1  0
 11 50  1  0
 12 51  1  0
 12 52  1  0
 14 53  1  0
 14 54  1  0
 14 55  1  0
 15 56  1  1
 16 57  1  0
 16 58  1  0
 17 59  1  0
 19 60  1  6
 20 61  1  0
 20 62  1  0
 21 63  1  0
 21 64  1  0
 22 65  1  6
 23 66  1  0
 25 67  1  0
 25 68  1  0
 25 69  1  0
 26 70  1  0
 26 71  1  0
 26 72  1  0
 28 73  1  0
 28 74  1  0
 28 75  1  0
 29 76  1  0
 29 77  1  0
 30 78  1  0
 30 79  1  0
 32 80  1  0
 32 81  1  0
 32 82  1  0
M  END
>  <meeko>  (18) 
{"is_sidechain": [false], "intermolecular_energy": 2.731, "internal_energy": -0.839}

$$$$
EPH_relaxed_0001_pdb2pqr_Repair_239_r2_0001_out
     RDKit          3D

 82 86  0  0  0  0  0  0  0  0999 V2000
    0.1370   17.5780   -2.8670 C   0  0  0  0  0  0  0  0  0  0  0  0
    0.1420   17.0200   -1.4420 C   0  0  2  0  0  0  0  0  0  0  0  0
    0.4390   18.1090   -0.3920 C   0  0  0  0  0  0  0  0  0  0  0  0
    1.9170   18.4990   -0.3100 C   0  0  0  0  0  0  0  0  0  0  0  0
    2.1970   19.3620    0.8830 C   0  0  2  0  0  0  0  0  0  0  0  0
    3.3590   20.1930    0.7610 O   0  0  0  0  0  0  0  0  0  0  0  0
    3.4070   19.1820    1.7810 C   0  0  0  0  0  0  0  0  0  0  0  0
    4.4160   18.1060    1.5240 C   0  0  0  0  0  0  0  0  0  0  0  0
    3.3520   19.7280    3.1730 C   0  0  0  0  0  0  0  0  0  0  0  0
    1.1650   15.8950   -1.3280 C   0  0  1  0  0  0  0  0  0  0  0  0
    1.2850   15.3400    0.1160 C   0  0  0  0  0  0  0  0  0  0  0  0
    1.5610   13.8190   -0.0110 C   0  0  0  0  0  0  0  0  0  0  0  0
    1.9200   13.6110   -1.5010 C   0  0  1  0  0  0  0  0  0  0  0  0
    3.4220   14.0220   -1.6130 C   0  0  0  0  0  0  0  0  0  0  0  0
    1.6680   12.1810   -2.0790 C   0  0  2  0  0  0  0  0  0  0  0  0
    2.4930   11.0580   -1.4250 C   0  0  0  0  0  0  0  0  0  0  0  0
    3.8120   10.7790   -2.0660 C   0  0  0  0  0  0  0  0  0  0  0  0
    4.1940   11.2020   -3.2860 C   0  0  0  0  0  0  0  0  0  0  0  0
    3.2210   11.9620   -4.1970 C   0  0  1  0  0  0  0  0  0  0  0  0
    3.2840   11.3700   -5.6300 C   0  0  0  0  0  0  0  0  0  0  0  0
    4.7030   11.3410   -6.1880 C   0  0  0  0  0  0  0  0  0  0  0  0
    5.6280   10.5280   -5.2850 C   0  0  2  0  0  0  0  0  0  0  0  0
    5.2230    9.1560   -5.3270 O   0  0  0  0  0  0  0  0  0  0  0  0
    5.6390   11.0250   -3.8130 C   0  0  0  0  0  0  0  0  0  0  0  0
    6.3570   12.3950   -3.7320 C   0  0  0  0  0  0  0  0  0  0  0  0
    6.4990   10.0350   -2.9810 C   0  0  0  0  0  0  0  0  0  0  0  0
    1.7320   12.0990   -3.6590 C   0  0  1  0  0  0  0  0  0  0  0  0
    0.8980   10.8490   -4.0740 C   0  0  0  0  0  0  0  0  0  0  0  0
    1.0480   13.3380   -4.3490 C   0  0  0  0  0  0  0  0  0  0  0  0
    1.2340   14.7060   -3.6650 C   0  0  0  0  0  0  0  0  0  0  0  0
    0.9140   14.6180   -2.1690 C   0  0  2  0  0  0  0  0  0  0  0  0
   -0.5960   14.2280   -2.0250 C   0  0  0  0  0  0  0  0  0  0  0  0
    0.1271   18.6773   -2.8303 H   0  0  0  0  0  0  0  0  0  0  0  0
    1.0382   17.2369   -3.3975 H   0  0  0  0  0  0  0  0  0  0  0  0
   -0.7580   17.2208   -3.3975 H   0  0  0  0  0  0  0  0  0  0  0  0
   -0.8657   16.6297   -1.2367 H   0  0  0  0  0  0  0  0  0  0  0  0
   -0.1431   19.0064   -0.6484 H   0  0  0  0  0  0  0  0  0  0  0  0
    0.1615   17.6942    0.5882 H   0  0  0  0  0  0  0  0  0  0  0  0
    2.5237   17.5842   -0.2386 H   0  0  0  0  0  0  0  0  0  0  0  0
    2.1715   19.0710   -1.2144 H   0  0  0  0  0  0  0  0  0  0  0  0
    1.1225   19.4488    1.1018 H   0  0  0  0  0  0  0  0  0  0  0  0
    4.7849   17.7127    2.4828 H   0  0  0  0  0  0  0  0  0  0  0  0
    3.9471   17.2931    0.9502 H   0  0  0  0  0  0  0  0  0  0  0  0
    5.2574   18.5218    0.9502 H   0  0  0  0  0  0  0  0  0  0  0  0
    3.4352   18.9018    3.8945 H   0  0  0  0  0  0  0  0  0  0  0  0
    4.1838   20.4318    3.3239 H   0  0  0  0  0  0  0  0  0  0  0  0
    2.3965   20.2518    3.3239 H   0  0  0  0  0  0  0  0  0  0  0  0
    2.0581   16.4199   -1.6981 H   0  0  0  0  0  0  0  0  0  0  0  0
    2.1149   15.8329    0.6436 H   0  0  0  0  0  0  0  0  0  0  0  0
    0.3652   15.5281    0.6892 H   0  0  0  0  0  0  0  0  0  0  0  0
    2.3994   13.5211    0.6358 H   0  0  0  0  0  0  0  0  0  0  0  0
    0.6983   13.2111    0.2992 H   0  0  0  0  0  0  0  0  0  0  0  0
    3.8465   14.1382   -0.6049 H   0  0  0  0  0  0  0  0  0  0  0  0
    3.9759   13.2424   -2.1565 H   0  0  0  0  0  0  0  0  0  0  0  0
    3.5018   14.9750   -2.1565 H   0  0  0  0  0  0  0  0  0  0  0  0
    0.6233   11.9917   -1.7913 H   0  0  0  0  0  0  0  0  0  0  0  0
    2.6768   11.3375   -0.3771 H   0  0  0  0  0  0  0  0  0  0  0  0
    1.8993   10.1390   -1.5385 H   0  0  0  0  0  0  0  0  0  0  0  0
    4.5328   10.1770   -1.4933 H   0  0  0  0  0  0  0  0  0  0  0  0
    3.5673   13.0060   -4.2086 H   0  0  0  0  0  0  0  0  0  0  0  0
    2.8939   10.3418   -5.6044 H   0  0  0  0  0  0  0  0  0  0  0  0
    2.6804   12.0153   -6.2851 H   0  0  0  0  0  0  0  0  0  0  0  0
    4.6868   10.8864   -7.1895 H   0  0  0  0  0  0  0  0  0  0  0  0
    5.0810   12.3727   -6.2400 H   0  0  0  0  0  0  0  0  0  0  0  0
    6.6529   10.6517   -5.6649 H   0  0  0  0  0  0  0  0  0  0  0  0
    5.1480    8.8430   -4.4090 H   0  0  0  0  0  0  0  0  0  0  0  0
    6.5018   12.6713   -2.6772 H   0  0  0  0  0  0  0  0  0  0  0  0
    7.3351   12.3264   -4.2307 H   0  0  0  0  0  0  0  0  0  0  0  0
    5.7440   13.1603   -4.2307 H   0  0  0  0  0  0  0  0  0  0  0  0
    6.3377   10.2207   -1.9089 H   0  0  0  0  0  0  0  0  0  0  0  0
    6.2062    9.0025   -3.2224 H   0  0  0  0  0  0  0  0  0  0  0  0
    7.5623   10.1805   -3.2224 H   0  0  0  0  0  0  0  0  0  0  0  0
    0.5486   10.3253   -3.1719 H   0  0  0  0  0  0  0  0  0  0  0  0
    0.0313   11.1683   -4.6714 H   0  0  0  0  0  0  0  0  0  0  0  0
    1.5256   10.1713   -4.6714 H   0  0  0  0  0  0  0  0  0  0  0  0
    1.4547   13.4177   -5.3679 H   0  0  0  0  0  0  0  0  0  0  0  0
   -0.0320   13.1355   -4.2975 H   0  0  0  0  0  0  0  0  0  0  0  0
    2.2766   15.0330   -3.7915 H   0  0  0  0  0  0  0  0  0  0  0  0
    0.5457   15.4274   -4.1295 H   0  0  0  0  0  0  0  0  0  0  0  0
   -0.8572   14.1605   -0.9586 H   0  0  0  0  0  0  0  0  0  0  0  0
   -1.2203   14.9944   -2.5076 H   0  0  0  0  0  0  0  0  0  0  0  0
   -0.7711   13.2552   -2.5076 H   0  0  0  0  0  0  0  0  0  0  0  0
  1  2  1  0
  2  3  1  0
  3  4  1  0
  4  5  1  0
  5  6  1  0
  6  7  1  0
  7  8  1  0
  7  9  1  0
  2 10  1  0
 10 11  1  0
 11 12  1  0
 12 13  1  0
 13 14  1  1
 13 15  1  0
 15 16  1  0
 16 17  1  0
 17 18  2  0
 18 19  1  0
 19 20  1  0
 20 21  1  0
 21 22  1  0
 22 23  1  0
 22 24  1  0
 24 25  1  0
 24 26  1  0
 19 27  1  0
 27 28  1  6
 27 29  1  0
 29 30  1  0
 30 31  1  0
 31 32  1  6
  7  5  1  0
 31 10  1  0
 31 13  1  0
 27 15  1  0
 24 18  1  0
  1 33  1  0
  1 34  1  0
  1 35  1  0
  2 36  1  1
  3 37  1  0
  3 38  1  0
  4 39  1  0
  4 40  1  0
  5 41  1  1
  8 42  1  0
  8 43  1  0
  8 44  1  0
  9 45  1  0
  9 46  1  0
  9 47  1  0
 10 48  1  6
 11 49  1  0
 11 50  1  0
 12 51  1  0
 12 52  1  0
 14 53  1  0
 14 54  1  0
 14 55  1  0
 15 56  1  6
 16 57  1  0
 16 58  1  0
 17 59  1  0
 19 60  1  6
 20 61  1  0
 20 62  1  0
 21 63  1  0
 21 64  1  0
 22 65  1  6
 23 66  1  0
 25 67  1  0
 25 68  1  0
 25 69  1  0
 26 70  1  0
 26 71  1  0
 26 72  1  0
 28 73  1  0
 28 74  1  0
 28 75  1  0
 29 76  1  0
 29 77  1  0
 30 78  1  0
 30 79  1  0
 32 80  1  0
 32 81  1  0
 32 82  1  0
M  END
>  <meeko>  (19) 
{"is_sidechain": [false], "intermolecular_energy": 2.731, "internal_energy": -0.839}

$$$$
EPH_relaxed_0001_pdb2pqr_Repair_239_r2_0001_out
     RDKit          3D

 82 86  0  0  0  0  0  0  0  0999 V2000
    2.9200   18.5200   -3.3660 C   0  0  0  0  0  0  0  0  0  0  0  0
    2.0430   18.1700   -2.1610 C   0  0  2  0  0  0  0  0  0  0  0  0
    2.2140   19.1780   -1.0070 C   0  0  0  0  0  0  0  0  0  0  0  0
    3.5450   19.0440   -0.2630 C   0  0  0  0  0  0  0  0  0  0  0  0
    3.3500   19.0100    1.2220 C   0  0  2  0  0  0  0  0  0  0  0  0
    3.8030   20.1820    1.9130 O   0  0  0  0  0  0  0  0  0  0  0  0
    4.4960   18.9600    2.2160 C   0  0  0  0  0  0  0  0  0  0  0  0
    5.9220   18.9410    1.7620 C   0  0  0  0  0  0  0  0  0  0  0  0
    4.2260   18.4400    3.5930 C   0  0  0  0  0  0  0  0  0  0  0  0
    2.3660   16.7620   -1.6750 C   0  0  1  0  0  0  0  0  0  0  0  0
    3.1580   16.7580   -0.3400 C   0  0  0  0  0  0  0  0  0  0  0  0
    2.6790   15.5200    0.4610 C   0  0  0  0  0  0  0  0  0  0  0  0
    1.8840   14.6770   -0.5640 C   0  0  1  0  0  0  0  0  0  0  0  0
    2.9690   13.8940   -1.3680 C   0  0  0  0  0  0  0  0  0  0  0  0
    0.7980   13.7180    0.0240 C   0  0  2  0  0  0  0  0  0  0  0  0
    1.3360   12.6130    0.9500 C   0  0  0  0  0  0  0  0  0  0  0  0
    1.6970   11.3330    0.2730 C   0  0  0  0  0  0  0  0  0  0  0  0
    1.3320   10.9770   -0.9730 C   0  0  0  0  0  0  0  0  0  0  0  0
    0.3920   11.8620   -1.8020 C   0  0  1  0  0  0  0  0  0  0  0  0
   -0.7100   10.9830   -2.4500 C   0  0  0  0  0  0  0  0  0  0  0  0
   -0.1340    9.8260   -3.2600 C   0  0  0  0  0  0  0  0  0  0  0  0
    0.7480    8.9360   -2.3880 C   0  0  2  0  0  0  0  0  0  0  0  0
   -0.0730    8.2860   -1.4130 O   0  0  0  0  0  0  0  0  0  0  0  0
    1.8890    9.7140   -1.6750 C   0  0  0  0  0  0  0  0  0  0  0  0
    2.9440   10.1620   -2.7170 C   0  0  0  0  0  0  0  0  0  0  0  0
    2.6150    8.7280   -0.7190 C   0  0  0  0  0  0  0  0  0  0  0  0
   -0.2020   13.1330   -1.0540 C   0  0  1  0  0  0  0  0  0  0  0  0
   -1.5020   12.7390   -0.2880 C   0  0  0  0  0  0  0  0  0  0  0  0
   -0.6250   14.2080   -2.1240 C   0  0  0  0  0  0  0  0  0  0  0  0
    0.4610   15.2020   -2.5760 C   0  0  0  0  0  0  0  0  0  0  0  0
    1.1720   15.8240   -1.3700 C   0  0  2  0  0  0  0  0  0  0  0  0
    0.1090   16.6360   -0.5540 C   0  0  0  0  0  0  0  0  0  0  0  0
    3.8882   18.9064   -3.0149 H   0  0  0  0  0  0  0  0  0  0  0  0
    3.0839   17.6184   -3.9745 H   0  0  0  0  0  0  0  0  0  0  0  0
    2.4181   19.2867   -3.9745 H   0  0  0  0  0  0  0  0  0  0  0  0
    0.9942   18.2185   -2.4891 H   0  0  0  0  0  0  0  0  0  0  0  0
    2.1492   20.1947   -1.4219 H   0  0  0  0  0  0  0  0  0  0  0  0
    1.4168   18.9696   -0.2783 H   0  0  0  0  0  0  0  0  0  0  0  0
    4.0376   18.1126   -0.5791 H   0  0  0  0  0  0  0  0  0  0  0  0
    4.1635   19.9203   -0.5072 H   0  0  0  0  0  0  0  0  0  0  0  0
    2.4416   18.3996    1.1119 H   0  0  0  0  0  0  0  0  0  0  0  0
    6.5859   18.9322    2.6390 H   0  0  0  0  0  0  0  0  0  0  0  0
    6.1021   18.0404    1.1567 H   0  0  0  0  0  0  0  0  0  0  0  0
    6.1260   19.8365    1.1567 H   0  0  0  0  0  0  0  0  0  0  0  0
    4.5996   19.1595    4.3364 H   0  0  0  0  0  0  0  0  0  0  0  0
    3.1429   18.3030    3.7274 H   0  0  0  0  0  0  0  0  0  0  0  0
    4.7371   17.4752    3.7274 H   0  0  0  0  0  0  0  0  0  0  0  0
    2.9241   16.3894   -2.5466 H   0  0  0  0  0  0  0  0  0  0  0  0
    4.2372   16.6853   -0.5401 H   0  0  0  0  0  0  0  0  0  0  0  0
    2.9838   17.6855    0.2252 H   0  0  0  0  0  0  0  0  0  0  0  0
    3.5376   14.9520    0.8486 H   0  0  0  0  0  0  0  0  0  0  0  0
    2.0709   15.7976    1.3346 H   0  0  0  0  0  0  0  0  0  0  0  0
    3.6570   13.3975   -0.6679 H   0  0  0  0  0  0  0  0  0  0  0  0
    2.4817   13.1381   -2.0013 H   0  0  0  0  0  0  0  0  0  0  0  0
    3.5329   14.5947   -2.0013 H   0  0  0  0  0  0  0  0  0  0  0  0
    0.2138   14.3903    0.6695 H   0  0  0  0  0  0  0  0  0  0  0  0
    2.2364   12.9981    1.4511 H   0  0  0  0  0  0  0  0  0  0  0  0
    0.5161   12.3703    1.6420 H   0  0  0  0  0  0  0  0  0  0  0  0
    2.3135   10.6200    0.8401 H   0  0  0  0  0  0  0  0  0  0  0  0
    1.0151   12.3168   -2.5862 H   0  0  0  0  0  0  0  0  0  0  0  0
   -1.3477   10.5726   -1.6532 H   0  0  0  0  0  0  0  0  0  0  0  0
   -1.2833   11.6204   -3.1392 H   0  0  0  0  0  0  0  0  0  0  0  0
   -0.9604    9.2253   -3.6676 H   0  0  0  0  0  0  0  0  0  0  0  0
    0.4795   10.2385   -4.0745 H   0  0  0  0  0  0  0  0  0  0  0  0
    1.2336    8.2039   -3.0499 H   0  0  0  0  0  0  0  0  0  0  0  0
    0.3430    7.4340   -1.1980 H   0  0  0  0  0  0  0  0  0  0  0  0
    3.8359   10.5407   -2.1963 H   0  0  0  0  0  0  0  0  0  0  0  0
    3.2237    9.3050   -3.3473 H   0  0  0  0  0  0  0  0  0  0  0  0
    2.5216   10.9584   -3.3473 H   0  0  0  0  0  0  0  0  0  0  0  0
    2.4079    9.0092    0.3241 H   0  0  0  0  0  0  0  0  0  0  0  0
    2.2523    7.7058   -0.9021 H   0  0  0  0  0  0  0  0  0  0  0  0
    3.6988    8.7708   -0.9021 H   0  0  0  0  0  0  0  0  0  0  0  0
   -1.3201   12.7941    0.7955 H   0  0  0  0  0  0  0  0  0  0  0  0
   -2.3119   13.4320   -0.5596 H   0  0  0  0  0  0  0  0  0  0  0  0
   -1.7909   11.7130   -0.5596 H   0  0  0  0  0  0  0  0  0  0  0  0
   -0.9753   13.6691   -3.0167 H   0  0  0  0  0  0  0  0  0  0  0  0
   -1.3898   14.8232   -1.6274 H   0  0  0  0  0  0  0  0  0  0  0  0
    1.1996   14.6711   -3.1946 H   0  0  0  0  0  0  0  0  0  0  0  0
   -0.0184   16.0062   -3.1534 H   0  0  0  0  0  0  0  0  0  0  0  0
    0.2894   16.4982    0.5223 H   0  0  0  0  0  0  0  0  0  0  0  0
    0.1909   17.7037   -0.8057 H   0  0  0  0  0  0  0  0  0  0  0  0
   -0.8996   16.2762   -0.8057 H   0  0  0  0  0  0  0  0  0  0  0  0
  1  2  1  0
  2  3  1  0
  3  4  1  0
  4  5  1  0
  5  6  1  0
  6  7  1  0
  7  8  1  0
  7  9  1  0
  2 10  1  0
 10 11  1  0
 11 12  1  0
 12 13  1  0
 13 14  1  6
 13 15  1  0
 15 16  1  0
 16 17  1  0
 17 18  2  0
 18 19  1  0
 19 20  1  0
 20 21  1  0
 21 22  1  0
 22 23  1  0
 22 24  1  0
 24 25  1  0
 24 26  1  0
 19 27  1  0
 27 28  1  1
 27 29  1  0
 29 30  1  0
 30 31  1  0
 31 32  1  1
  7  5  1  0
 31 10  1  0
 31 13  1  0
 27 15  1  0
 24 18  1  0
  1 33  1  0
  1 34  1  0
  1 35  1  0
  2 36  1  6
  3 37  1  0
  3 38  1  0
  4 39  1  0
  4 40  1  0
  5 41  1  6
  8 42  1  0
  8 43  1  0
  8 44  1  0
  9 45  1  0
  9 46  1  0
  9 47  1  0
 10 48  1  6
 11 49  1  0
 11 50  1  0
 12 51  1  0
 12 52  1  0
 14 53  1  0
 14 54  1  0
 14 55  1  0
 15 56  1  1
 16 57  1  0
 16 58  1  0
 17 59  1  0
 19 60  1  6
 20 61  1  0
 20 62  1  0
 21 63  1  0
 21 64  1  0
 22 65  1  6
 23 66  1  0
 25 67  1  0
 25 68  1  0
 25 69  1  0
 26 70  1  0
 26 71  1  0
 26 72  1  0
 28 73  1  0
 28 74  1  0
 28 75  1  0
 29 76  1  0
 29 77  1  0
 30 78  1  0
 30 79  1  0
 32 80  1  0
 32 81  1  0
 32 82  1  0
M  END
>  <meeko>  (20) 
{"is_sidechain": [false], "intermolecular_energy": 2.731, "internal_energy": -0.839}

$$$$
