EPH_relaxed_0001_pdb2pqr_Repair_416_r2_0001_out
     RDKit          3D

 82 86  0  0  0  0  0  0  0  0999 V2000
   -1.6600    8.5840   -1.8700 C   0  0  0  0  0  0  0  0  0  0  0  0
   -2.0220    9.1050   -0.4760 C   0  0  2  0  0  0  0  0  0  0  0  0
   -3.5150    9.4710   -0.3630 C   0  0  0  0  0  0  0  0  0  0  0  0
   -4.4400    8.2560   -0.2500 C   0  0  0  0  0  0  0  0  0  0  0  0
   -5.1270    7.9590   -1.5490 C   0  0  2  0  0  0  0  0  0  0  0  0
   -6.3260    8.7110   -1.7770 O   0  0  0  0  0  0  0  0  0  0  0  0
   -6.4850    7.2890   -1.6430 C   0  0  0  0  0  0  0  0  0  0  0  0
   -7.2370    6.8740   -0.4170 C   0  0  0  0  0  0  0  0  0  0  0  0
   -6.8570    6.6020   -2.9190 C   0  0  0  0  0  0  0  0  0  0  0  0
   -1.1610   10.3150   -0.1340 C   0  0  1  0  0  0  0  0  0  0  0  0
   -0.1060   10.0070    0.9620 C   0  0  0  0  0  0  0  0  0  0  0  0
    1.1530   10.8430    0.6180 C   0  0  0  0  0  0  0  0  0  0  0  0
    0.6740   11.8450   -0.4580 C   0  0  1  0  0  0  0  0  0  0  0  0
   -0.0220   12.9910    0.3420 C   0  0  0  0  0  0  0  0  0  0  0  0
    1.7720   12.4000   -1.4240 C   0  0  2  0  0  0  0  0  0  0  0  0
    2.8850   13.2170   -0.7450 C   0  0  0  0  0  0  0  0  0  0  0  0
    2.6290   14.6850   -0.6460 C   0  0  0  0  0  0  0  0  0  0  0  0
    1.6890   15.3630   -1.3300 C   0  0  0  0  0  0  0  0  0  0  0  0
    0.8250   14.6630   -2.3870 C   0  0  1  0  0  0  0  0  0  0  0  0
    0.7680   15.5350   -3.6690 C   0  0  0  0  0  0  0  0  0  0  0  0
    0.3030   16.9600   -3.3860 C   0  0  0  0  0  0  0  0  0  0  0  0
    1.2200   17.6420   -2.3750 C   0  0  2  0  0  0  0  0  0  0  0  0
    2.5090   17.8220   -2.9690 O   0  0  0  0  0  0  0  0  0  0  0  0
    1.3630   16.8500   -1.0450 C   0  0  0  0  0  0  0  0  0  0  0  0
    0.0330   16.9140   -0.2550 C   0  0  0  0  0  0  0  0  0  0  0  0
    2.4230   17.5730   -0.1700 C   0  0  0  0  0  0  0  0  0  0  0  0
    1.1980   13.1490   -2.6950 C   0  0  1  0  0  0  0  0  0  0  0  0
    2.3100   13.0860   -3.7870 C   0  0  0  0  0  0  0  0  0  0  0  0
   -0.0600   12.4220   -3.3000 C   0  0  0  0  0  0  0  0  0  0  0  0
   -1.0460   11.7900   -2.2990 C   0  0  0  0  0  0  0  0  0  0  0  0
   -0.3070   10.9260   -1.2730 C   0  0  2  0  0  0  0  0  0  0  0  0
    0.3850    9.7520   -2.0460 C   0  0  0  0  0  0  0  0  0  0  0  0
   -1.0347    7.6841   -1.7741 H   0  0  0  0  0  0  0  0  0  0  0  0
   -2.5802    8.3344   -2.4185 H   0  0  0  0  0  0  0  0  0  0  0  0
   -1.1051    9.3593   -2.4185 H   0  0  0  0  0  0  0  0  0  0  0  0
   -1.8259    8.2948    0.2418 H   0  0  0  0  0  0  0  0  0  0  0  0
   -3.6525   10.0964    0.5314 H   0  0  0  0  0  0  0  0  0  0  0  0
   -3.7878    9.9975   -1.2895 H   0  0  0  0  0  0  0  0  0  0  0  0
   -3.8437    7.3804    0.0462 H   0  0  0  0  0  0  0  0  0  0  0  0
   -5.2108    8.4808    0.5019 H   0  0  0  0  0  0  0  0  0  0  0  0
   -4.1644    7.7465   -2.0370 H   0  0  0  0  0  0  0  0  0  0  0  0
   -6.6775    7.1827    0.4784 H   0  0  0  0  0  0  0  0  0  0  0  0
   -8.2270    7.3535   -0.4142 H   0  0  0  0  0  0  0  0  0  0  0  0
   -7.3591    5.7808   -0.4142 H   0  0  0  0  0  0  0  0  0  0  0  0
   -7.3693    5.6559   -2.6902 H   0  0  0  0  0  0  0  0  0  0  0  0
   -7.5274    7.2502   -3.5025 H   0  0  0  0  0  0  0  0  0  0  0  0
   -5.9478    6.3949   -3.5025 H   0  0  0  0  0  0  0  0  0  0  0  0
   -1.9485   11.0221    0.1658 H   0  0  0  0  0  0  0  0  0  0  0  0
   -0.4925   10.2937    1.9511 H   0  0  0  0  0  0  0  0  0  0  0  0
    0.1294    8.9329    0.9930 H   0  0  0  0  0  0  0  0  0  0  0  0
    1.5209   11.3750    1.5077 H   0  0  0  0  0  0  0  0  0  0  0  0
    1.9854   10.2171    0.2640 H   0  0  0  0  0  0  0  0  0  0  0  0
    0.0904   12.8059    1.4205 H   0  0  0  0  0  0  0  0  0  0  0  0
    0.4443   13.9534    0.0846 H   0  0  0  0  0  0  0  0  0  0  0  0
   -1.0910   13.0210    0.0846 H   0  0  0  0  0  0  0  0  0  0  0  0
    2.2551   11.4806   -1.7864 H   0  0  0  0  0  0  0  0  0  0  0  0
    3.0200   12.8260    0.2743 H   0  0  0  0  0  0  0  0  0  0  0  0
    3.7754   13.1057   -1.3812 H   0  0  0  0  0  0  0  0  0  0  0  0
    3.2625   15.2610    0.0446 H   0  0  0  0  0  0  0  0  0  0  0  0
   -0.1805   14.5761   -1.9495 H   0  0  0  0  0  0  0  0  0  0  0  0
    1.7731   15.5738   -4.1142 H   0  0  0  0  0  0  0  0  0  0  0  0
    0.0399   15.0756   -4.3536 H   0  0  0  0  0  0  0  0  0  0  0  0
    0.3111   17.5343   -4.3241 H   0  0  0  0  0  0  0  0  0  0  0  0
   -0.7136   16.9211   -2.9677 H   0  0  0  0  0  0  0  0  0  0  0  0
    0.7637   18.6089   -2.1163 H   0  0  0  0  0  0  0  0  0  0  0  0
    2.9840   16.9760   -2.9030 H   0  0  0  0  0  0  0  0  0  0  0  0
    0.2466   16.9037    0.8240 H   0  0  0  0  0  0  0  0  0  0  0  0
   -0.5031   17.8390   -0.5139 H   0  0  0  0  0  0  0  0  0  0  0  0
   -0.5894   16.0448   -0.5139 H   0  0  0  0  0  0  0  0  0  0  0  0
    2.1905   17.4144    0.8934 H   0  0  0  0  0  0  0  0  0  0  0  0
    3.4207   17.1663   -0.3918 H   0  0  0  0  0  0  0  0  0  0  0  0
    2.4085   18.6503   -0.3918 H   0  0  0  0  0  0  0  0  0  0  0  0
    3.2963   13.0301   -3.3032 H   0  0  0  0  0  0  0  0  0  0  0  0
    2.1582   12.1950   -4.4140 H   0  0  0  0  0  0  0  0  0  0  0  0
    2.2598   13.9884   -4.4140 H   0  0  0  0  0  0  0  0  0  0  0  0
   -0.6173   13.1609   -3.8944 H   0  0  0  0  0  0  0  0  0  0  0  0
    0.3455   11.5774   -3.8764 H   0  0  0  0  0  0  0  0  0  0  0  0
   -1.5869   12.5903   -1.7726 H   0  0  0  0  0  0  0  0  0  0  0  0
   -1.7485   11.1513   -2.8544 H   0  0  0  0  0  0  0  0  0  0  0  0
    0.8068    9.0364   -1.3248 H   0  0  0  0  0  0  0  0  0  0  0  0
   -0.3567    9.2416   -2.6779 H   0  0  0  0  0  0  0  0  0  0  0  0
    1.1908   10.1537   -2.6779 H   0  0  0  0  0  0  0  0  0  0  0  0
  1  2  1  0
  2  3  1  0
  3  4  1  0
  4  5  1  0
  5  6  1  0
  6  7  1  0
  7  8  1  0
  7  9  1  0
  2 10  1  0
 10 11  1  0
 11 12  1  0
 12 13  1  0
 13 14  1  1
 13 15  1  0
 15 16  1  0
 16 17  1  0
 17 18  2  0
 18 19  1  0
 19 20  1  0
 20 21  1  0
 21 22  1  0
 22 23  1  0
 22 24  1  0
 24 25  1  0
 24 26  1  0
 19 27  1  0
 27 28  1  6
 27 29  1  0
 29 30  1  0
 30 31  1  0
 31 32  1  6
  7  5  1  0
 31 10  1  0
 31 13  1  0
 27 15  1  0
 24 18  1  0
  1 33  1  0
  1 34  1  0
  1 35  1  0
  2 36  1  1
  3 37  1  0
  3 38  1  0
  4 39  1  0
  4 40  1  0
  5 41  1  6
  8 42  1  0
  8 43  1  0
  8 44  1  0
  9 45  1  0
  9 46  1  0
  9 47  1  0
 10 48  1  1
 11 49  1  0
 11 50  1  0
 12 51  1  0
 12 52  1  0
 14 53  1  0
 14 54  1  0
 14 55  1  0
 15 56  1  6
 16 57  1  0
 16 58  1  0
 17 59  1  0
 19 60  1  1
 20 61  1  0
 20 62  1  0
 21 63  1  0
 21 64  1  0
 22 65  1  1
 23 66  1  0
 25 67  1  0
 25 68  1  0
 25 69  1  0
 26 70  1  0
 26 71  1  0
 26 72  1  0
 28 73  1  0
 28 74  1  0
 28 75  1  0
 29 76  1  0
 29 77  1  0
 30 78  1  0
 30 79  1  0
 32 80  1  0
 32 81  1  0
 32 82  1  0
M  END
>  <meeko>  (1) 
{"is_sidechain": [false], "intermolecular_energy": 2.731, "internal_energy": -0.839}

$$$$
EPH_relaxed_0001_pdb2pqr_Repair_416_r2_0001_out
     RDKit          3D

 82 86  0  0  0  0  0  0  0  0999 V2000
    2.3830   19.6830   -0.9960 C   0  0  0  0  0  0  0  0  0  0  0  0
    2.1550   18.8370    0.2600 C   0  0  2  0  0  0  0  0  0  0  0  0
    3.4810   18.3800    0.9000 C   0  0  0  0  0  0  0  0  0  0  0  0
    3.7620   19.0220    2.2610 C   0  0  0  0  0  0  0  0  0  0  0  0
    5.2230   19.0010    2.5940 C   0  0  2  0  0  0  0  0  0  0  0  0
    5.6320   17.9060    3.4240 O   0  0  0  0  0  0  0  0  0  0  0  0
    5.7650   19.2190    3.9940 C   0  0  0  0  0  0  0  0  0  0  0  0
    4.8540   19.4750    5.1530 C   0  0  0  0  0  0  0  0  0  0  0  0
    7.1850   19.6670    4.1490 C   0  0  0  0  0  0  0  0  0  0  0  0
    1.2950   17.6260   -0.0790 C   0  0  1  0  0  0  0  0  0  0  0  0
    0.1230   17.9730   -1.0350 C   0  0  0  0  0  0  0  0  0  0  0  0
   -0.0820   16.7440   -1.9570 C   0  0  0  0  0  0  0  0  0  0  0  0
    0.7420   15.6160   -1.2920 C   0  0  1  0  0  0  0  0  0  0  0  0
   -0.1720   15.0710   -0.1510 C   0  0  0  0  0  0  0  0  0  0  0  0
    1.2330   14.4700   -2.2360 C   0  0  2  0  0  0  0  0  0  0  0  0
    0.1140   13.6530   -2.9060 C   0  0  0  0  0  0  0  0  0  0  0  0
   -0.3390   12.4510   -2.1460 C   0  0  0  0  0  0  0  0  0  0  0  0
    0.3170   11.8810   -1.1180 C   0  0  0  0  0  0  0  0  0  0  0  0
    1.6980   12.3920   -0.6860 C   0  0  1  0  0  0  0  0  0  0  0  0
    2.6550   11.1880   -0.4840 C   0  0  0  0  0  0  0  0  0  0  0  0
    2.0910   10.1470    0.4780 C   0  0  0  0  0  0  0  0  0  0  0  0
    0.7450    9.6210   -0.0160 C   0  0  2  0  0  0  0  0  0  0  0  0
    0.9540    8.8830   -1.2240 O   0  0  0  0  0  0  0  0  0  0  0  0
   -0.2980   10.7460   -0.2640 C   0  0  0  0  0  0  0  0  0  0  0  0
   -0.7490   11.3460    1.0900 C   0  0  0  0  0  0  0  0  0  0  0  0
   -1.5600   10.0950   -0.8930 C   0  0  0  0  0  0  0  0  0  0  0  0
    2.3330   13.5300   -1.5960 C   0  0  1  0  0  0  0  0  0  0  0  0
    3.1140   12.8880   -2.7830 C   0  0  0  0  0  0  0  0  0  0  0  0
    3.3900   14.3340   -0.7510 C   0  0  0  0  0  0  0  0  0  0  0  0
    2.8620   15.5280    0.0660 C   0  0  0  0  0  0  0  0  0  0  0  0
    1.9870   16.4400   -0.7980 C   0  0  2  0  0  0  0  0  0  0  0  0
    2.8850   17.0220   -1.9420 C   0  0  0  0  0  0  0  0  0  0  0  0
    2.6589   20.7068   -0.7034 H   0  0  0  0  0  0  0  0  0  0  0  0
    3.1941   19.2412   -1.5934 H   0  0  0  0  0  0  0  0  0  0  0  0
    1.4597   19.7086   -1.5934 H   0  0  0  0  0  0  0  0  0  0  0  0
    1.6343   19.4683    0.9951 H   0  0  0  0  0  0  0  0  0  0  0  0
    3.4447   17.2885    1.0320 H   0  0  0  0  0  0  0  0  0  0  0  0
    4.2892   18.6949    0.2235 H   0  0  0  0  0  0  0  0  0  0  0  0
    3.4162   20.0660    2.2406 H   0  0  0  0  0  0  0  0  0  0  0  0
    3.2274   18.4440    3.0292 H   0  0  0  0  0  0  0  0  0  0  0  0
    5.4743   19.4594    1.6262 H   0  0  0  0  0  0  0  0  0  0  0  0
    5.4041   19.3204    6.0929 H   0  0  0  0  0  0  0  0  0  0  0  0
    4.4870   20.5111    5.1091 H   0  0  0  0  0  0  0  0  0  0  0  0
    4.0011   18.7817    5.1091 H   0  0  0  0  0  0  0  0  0  0  0  0
    7.4304   19.7444    5.2185 H   0  0  0  0  0  0  0  0  0  0  0  0
    7.8542   18.9364    3.6712 H   0  0  0  0  0  0  0  0  0  0  0  0
    7.3138   20.6494    3.6712 H   0  0  0  0  0  0  0  0  0  0  0  0
    0.9926   17.3263    0.9353 H   0  0  0  0  0  0  0  0  0  0  0  0
   -0.7919   18.1693   -0.4567 H   0  0  0  0  0  0  0  0  0  0  0  0
    0.3476   18.8748   -1.6235 H   0  0  0  0  0  0  0  0  0  0  0  0
   -1.1460   16.4696   -2.0076 H   0  0  0  0  0  0  0  0  0  0  0  0
    0.2376   16.9402   -2.9911 H   0  0  0  0  0  0  0  0  0  0  0  0
    0.2646   15.3313    0.8245 H   0  0  0  0  0  0  0  0  0  0  0  0
   -1.1725   15.5201   -0.2365 H   0  0  0  0  0  0  0  0  0  0  0  0
   -0.2525   13.9773   -0.2365 H   0  0  0  0  0  0  0  0  0  0  0  0
    1.7235   15.0262   -3.0484 H   0  0  0  0  0  0  0  0  0  0  0  0
   -0.7538   14.3146   -3.0447 H   0  0  0  0  0  0  0  0  0  0  0  0
    0.5352   13.2760   -3.8497 H   0  0  0  0  0  0  0  0  0  0  0  0
   -1.2904   11.9916   -2.4521 H   0  0  0  0  0  0  0  0  0  0  0  0
    1.5439   12.9119    0.2711 H   0  0  0  0  0  0  0  0  0  0  0  0
    2.8298   10.7092   -1.4588 H   0  0  0  0  0  0  0  0  0  0  0  0
    3.5889   11.5733   -0.0488 H   0  0  0  0  0  0  0  0  0  0  0  0
    2.7985    9.3084    0.5565 H   0  0  0  0  0  0  0  0  0  0  0  0
    1.9445   10.6194    1.4606 H   0  0  0  0  0  0  0  0  0  0  0  0
    0.3308    8.9785    0.7750 H   0  0  0  0  0  0  0  0  0  0  0  0
    0.5110    9.3640   -1.9430 H   0  0  0  0  0  0  0  0  0  0  0  0
   -0.3108   10.7631    1.9135 H   0  0  0  0  0  0  0  0  0  0  0  0
   -0.4104   12.3903    1.1593 H   0  0  0  0  0  0  0  0  0  0  0  0
   -1.8463   11.3110    1.1593 H   0  0  0  0  0  0  0  0  0  0  0  0
   -2.2312    9.7488   -0.0933 H   0  0  0  0  0  0  0  0  0  0  0  0
   -2.0831   10.8358   -1.5156 H   0  0  0  0  0  0  0  0  0  0  0  0
   -1.2596    9.2394   -1.5156 H   0  0  0  0  0  0  0  0  0  0  0  0
    3.9076   12.2357   -2.3897 H   0  0  0  0  0  0  0  0  0  0  0  0
    2.4224   12.2939   -3.3984 H   0  0  0  0  0  0  0  0  0  0  0  0
    3.5630   13.6815   -3.3984 H   0  0  0  0  0  0  0  0  0  0  0  0
    3.8584   13.6302   -0.0472 H   0  0  0  0  0  0  0  0  0  0  0  0
    4.0768   14.7720   -1.4902 H   0  0  0  0  0  0  0  0  0  0  0  0
    2.2653   15.1509    0.9096 H   0  0  0  0  0  0  0  0  0  0  0  0
    3.7210   16.1099    0.4313 H   0  0  0  0  0  0  0  0  0  0  0  0
    3.7308   17.5701   -1.5013 H   0  0  0  0  0  0  0  0  0  0  0  0
    3.2659   16.1986   -2.5640 H   0  0  0  0  0  0  0  0  0  0  0  0
    2.2889   17.7060   -2.5640 H   0  0  0  0  0  0  0  0  0  0  0  0
  1  2  1  0
  2  3  1  0
  3  4  1  0
  4  5  1  0
  5  6  1  0
  6  7  1  0
  7  8  1  0
  7  9  1  0
  2 10  1  0
 10 11  1  0
 11 12  1  0
 12 13  1  0
 13 14  1  1
 13 15  1  0
 15 16  1  0
 16 17  1  0
 17 18  2  0
 18 19  1  0
 19 20  1  0
 20 21  1  0
 21 22  1  0
 22 23  1  0
 22 24  1  0
 24 25  1  0
 24 26  1  0
 19 27  1  0
 27 28  1  6
 27 29  1  0
 29 30  1  0
 30 31  1  0
 31 32  1  6
  7  5  1  0
 31 10  1  0
 31 13  1  0
 27 15  1  0
 24 18  1  0
  1 33  1  0
  1 34  1  0
  1 35  1  0
  2 36  1  1
  3 37  1  0
  3 38  1  0
  4 39  1  0
  4 40  1  0
  5 41  1  6
  8 42  1  0
  8 43  1  0
  8 44  1  0
  9 45  1  0
  9 46  1  0
  9 47  1  0
 10 48  1  1
 11 49  1  0
 11 50  1  0
 12 51  1  0
 12 52  1  0
 14 53  1  0
 14 54  1  0
 14 55  1  0
 15 56  1  6
 16 57  1  0
 16 58  1  0
 17 59  1  0
 19 60  1  1
 20 61  1  0
 20 62  1  0
 21 63  1  0
 21 64  1  0
 22 65  1  1
 23 66  1  0
 25 67  1  0
 25 68  1  0
 25 69  1  0
 26 70  1  0
 26 71  1  0
 26 72  1  0
 28 73  1  0
 28 74  1  0
 28 75  1  0
 29 76  1  0
 29 77  1  0
 30 78  1  0
 30 79  1  0
 32 80  1  0
 32 81  1  0
 32 82  1  0
M  END
>  <meeko>  (2) 
{"is_sidechain": [false], "intermolecular_energy": 2.731, "internal_energy": -0.839}

$$$$
EPH_relaxed_0001_pdb2pqr_Repair_416_r2_0001_out
     RDKit          3D

 82 86  0  0  0  0  0  0  0  0999 V2000
    0.4540   18.4050   -0.0330 C   0  0  0  0  0  0  0  0  0  0  0  0
    1.5300   17.3340   -0.2330 C   0  0  2  0  0  0  0  0  0  0  0  0
    2.7600   17.8790   -0.9870 C   0  0  0  0  0  0  0  0  0  0  0  0
    3.9910   18.0740   -0.0980 C   0  0  0  0  0  0  0  0  0  0  0  0
    3.6160   18.5680    1.2670 C   0  0  2  0  0  0  0  0  0  0  0  0
    3.8320   19.9700    1.4760 O   0  0  0  0  0  0  0  0  0  0  0  0
    4.6250   19.0800    2.2780 C   0  0  0  0  0  0  0  0  0  0  0  0
    6.0890   19.1220    1.9660 C   0  0  0  0  0  0  0  0  0  0  0  0
    4.2510   19.0780    3.7270 C   0  0  0  0  0  0  0  0  0  0  0  0
    0.9450   16.1430   -0.9820 C   0  0  1  0  0  0  0  0  0  0  0  0
    0.8000   16.4080   -2.5050 C   0  0  0  0  0  0  0  0  0  0  0  0
    1.0780   15.0620   -3.2220 C   0  0  0  0  0  0  0  0  0  0  0  0
    1.0460   14.0050   -2.0930 C   0  0  1  0  0  0  0  0  0  0  0  0
   -0.4700   13.7120   -1.8610 C   0  0  0  0  0  0  0  0  0  0  0  0
    1.8540   12.6920   -2.3530 C   0  0  2  0  0  0  0  0  0  0  0  0
    1.3690   11.8530   -3.5480 C   0  0  0  0  0  0  0  0  0  0  0  0
    0.3380   10.8220   -3.2260 C   0  0  0  0  0  0  0  0  0  0  0  0
    0.0290   10.3830   -1.9910 C   0  0  0  0  0  0  0  0  0  0  0  0
    0.8150   10.8650   -0.7650 C   0  0  1  0  0  0  0  0  0  0  0  0
    1.1780    9.6490    0.1270 C   0  0  0  0  0  0  0  0  0  0  0  0
   -0.0430    8.8160    0.5070 C   0  0  0  0  0  0  0  0  0  0  0  0
   -0.7640    8.3070   -0.7390 C   0  0  2  0  0  0  0  0  0  0  0  0
    0.0840    7.3720   -1.4120 O   0  0  0  0  0  0  0  0  0  0  0  0
   -1.1710    9.4430   -1.7180 C   0  0  0  0  0  0  0  0  0  0  0  0
   -2.3140   10.2830   -1.0960 C   0  0  0  0  0  0  0  0  0  0  0  0
   -1.7610    8.7850   -2.9950 C   0  0  0  0  0  0  0  0  0  0  0  0
    2.0670   11.7970   -1.0660 C   0  0  1  0  0  0  0  0  0  0  0  0
    3.3290   10.9220   -1.3360 C   0  0  0  0  0  0  0  0  0  0  0  0
    2.3880   12.6560    0.2140 C   0  0  0  0  0  0  0  0  0  0  0  0
    1.6450   13.9980    0.3540 C   0  0  0  0  0  0  0  0  0  0  0  0
    1.7410   14.8150   -0.9380 C   0  0  2  0  0  0  0  0  0  0  0  0
    3.2530   15.1430   -1.1860 C   0  0  0  0  0  0  0  0  0  0  0  0
    0.2924   18.5659    1.0431 H   0  0  0  0  0  0  0  0  0  0  0  0
    0.7820   19.3458   -0.4992 H   0  0  0  0  0  0  0  0  0  0  0  0
   -0.4853   18.0727   -0.4992 H   0  0  0  0  0  0  0  0  0  0  0  0
    1.8691   17.0159    0.7639 H   0  0  0  0  0  0  0  0  0  0  0  0
    3.0186   17.1702   -1.7875 H   0  0  0  0  0  0  0  0  0  0  0  0
    2.4848   18.8703   -1.3764 H   0  0  0  0  0  0  0  0  0  0  0  0
    4.5144   17.1117    0.0024 H   0  0  0  0  0  0  0  0  0  0  0  0
    4.6389   18.8275   -0.5696 H   0  0  0  0  0  0  0  0  0  0  0  0
    2.8103   17.8228    1.3414 H   0  0  0  0  0  0  0  0  0  0  0  0
    6.6635   19.1385    2.9039 H   0  0  0  0  0  0  0  0  0  0  0  0
    6.3652   18.2314    1.3824 H   0  0  0  0  0  0  0  0  0  0  0  0
    6.3137   20.0270    1.3824 H   0  0  0  0  0  0  0  0  0  0  0  0
    5.1635   19.0829    4.3412 H   0  0  0  0  0  0  0  0  0  0  0  0
    3.6525   19.9730    3.9524 H   0  0  0  0  0  0  0  0  0  0  0  0
    3.6621   18.1767    3.9524 H   0  0  0  0  0  0  0  0  0  0  0  0
   -0.0045   16.0309   -0.4380 H   0  0  0  0  0  0  0  0  0  0  0  0
   -0.2182   16.7557   -2.7337 H   0  0  0  0  0  0  0  0  0  0  0  0
    1.5025   17.1857   -2.8391 H   0  0  0  0  0  0  0  0  0  0  0  0
    0.3004   14.8534   -3.9715 H   0  0  0  0  0  0  0  0  0  0  0  0
    2.0363   15.0670   -3.7619 H   0  0  0  0  0  0  0  0  0  0  0  0
   -0.6747   13.6724   -0.7809 H   0  0  0  0  0  0  0  0  0  0  0  0
   -1.0721   14.5104   -2.3193 H   0  0  0  0  0  0  0  0  0  0  0  0
   -0.7312   12.7467   -2.3193 H   0  0  0  0  0  0  0  0  0  0  0  0
    2.8434   13.0768   -2.6412 H   0  0  0  0  0  0  0  0  0  0  0  0
    0.9422   12.5392   -4.2943 H   0  0  0  0  0  0  0  0  0  0  0  0
    2.2490   11.3011   -3.9099 H   0  0  0  0  0  0  0  0  0  0  0  0
   -0.2162   10.3839   -4.0692 H   0  0  0  0  0  0  0  0  0  0  0  0
    0.1417   11.5416   -0.2183 H   0  0  0  0  0  0  0  0  0  0  0  0
    1.8850    9.0086   -0.4207 H   0  0  0  0  0  0  0  0  0  0  0  0
    1.6195   10.0372    1.0567 H   0  0  0  0  0  0  0  0  0  0  0  0
    0.2814    7.9564    1.1119 H   0  0  0  0  0  0  0  0  0  0  0  0
   -0.7361    9.4492    1.0803 H   0  0  0  0  0  0  0  0  0  0  0  0
   -1.6980    7.8293   -0.4082 H   0  0  0  0  0  0  0  0  0  0  0  0
    0.9920    7.5190   -1.0990 H   0  0  0  0  0  0  0  0  0  0  0  0
   -2.2490   10.2352    0.0010 H   0  0  0  0  0  0  0  0  0  0  0  0
   -2.2205   11.3289   -1.4236 H   0  0  0  0  0  0  0  0  0  0  0  0
   -3.2843    9.8815   -1.4236 H   0  0  0  0  0  0  0  0  0  0  0  0
   -2.4696    7.9947   -2.7063 H   0  0  0  0  0  0  0  0  0  0  0  0
   -2.2843    9.5467   -3.5916 H   0  0  0  0  0  0  0  0  0  0  0  0
   -0.9470    8.3475   -3.5916 H   0  0  0  0  0  0  0  0  0  0  0  0
    3.7734   10.6139   -0.3781 H   0  0  0  0  0  0  0  0  0  0  0  0
    3.0402   10.0293   -1.9102 H   0  0  0  0  0  0  0  0  0  0  0  0
    4.0637   11.5055   -1.9102 H   0  0  0  0  0  0  0  0  0  0  0  0
    2.1411   12.0454    1.0950 H   0  0  0  0  0  0  0  0  0  0  0  0
    3.4509   12.9237    0.1219 H   0  0  0  0  0  0  0  0  0  0  0  0
    0.5861   13.8014    0.5776 H   0  0  0  0  0  0  0  0  0  0  0  0
    2.1101   14.5732    1.1682 H   0  0  0  0  0  0  0  0  0  0  0  0
    3.7672   15.2546   -0.2200 H   0  0  0  0  0  0  0  0  0  0  0  0
    3.7170   14.3246   -1.7560 H   0  0  0  0  0  0  0  0  0  0  0  0
    3.3362   16.0801   -1.7560 H   0  0  0  0  0  0  0  0  0  0  0  0
  1  2  1  0
  2  3  1  0
  3  4  1  0
  4  5  1  0
  5  6  1  0
  6  7  1  0
  7  8  1  0
  7  9  1  0
  2 10  1  0
 10 11  1  0
 11 12  1  0
 12 13  1  0
 13 14  1  1
 13 15  1  0
 15 16  1  0
 16 17  1  0
 17 18  2  0
 18 19  1  0
 19 20  1  0
 20 21  1  0
 21 22  1  0
 22 23  1  0
 22 24  1  0
 24 25  1  0
 24 26  1  0
 19 27  1  0
 27 28  1  6
 27 29  1  0
 29 30  1  0
 30 31  1  0
 31 32  1  6
  7  5  1  0
 31 10  1  0
 31 13  1  0
 27 15  1  0
 24 18  1  0
  1 33  1  0
  1 34  1  0
  1 35  1  0
  2 36  1  1
  3 37  1  0
  3 38  1  0
  4 39  1  0
  4 40  1  0
  5 41  1  1
  8 42  1  0
  8 43  1  0
  8 44  1  0
  9 45  1  0
  9 46  1  0
  9 47  1  0
 10 48  1  1
 11 49  1  0
 11 50  1  0
 12 51  1  0
 12 52  1  0
 14 53  1  0
 14 54  1  0
 14 55  1  0
 15 56  1  6
 16 57  1  0
 16 58  1  0
 17 59  1  0
 19 60  1  1
 20 61  1  0
 20 62  1  0
 21 63  1  0
 21 64  1  0
 22 65  1  1
 23 66  1  0
 25 67  1  0
 25 68  1  0
 25 69  1  0
 26 70  1  0
 26 71  1  0
 26 72  1  0
 28 73  1  0
 28 74  1  0
 28 75  1  0
 29 76  1  0
 29 77  1  0
 30 78  1  0
 30 79  1  0
 32 80  1  0
 32 81  1  0
 32 82  1  0
M  END
>  <meeko>  (3) 
{"is_sidechain": [false], "intermolecular_energy": 2.731, "internal_energy": -0.839}

$$$$
EPH_relaxed_0001_pdb2pqr_Repair_416_r2_0001_out
     RDKit          3D

 82 86  0  0  0  0  0  0  0  0999 V2000
    2.6150   17.9430   -2.3430 C   0  0  0  0  0  0  0  0  0  0  0  0
    1.2010   17.6770   -1.8210 C   0  0  2  0  0  0  0  0  0  0  0  0
    1.1190   17.7800   -0.2850 C   0  0  0  0  0  0  0  0  0  0  0  0
    0.7230   19.1710    0.2180 C   0  0  0  0  0  0  0  0  0  0  0  0
   -0.7410   19.2530    0.5260 C   0  0  2  0  0  0  0  0  0  0  0  0
   -1.5520   18.2910   -0.1620 O   0  0  0  0  0  0  0  0  0  0  0  0
   -1.7870   19.6700   -0.4910 C   0  0  0  0  0  0  0  0  0  0  0  0
   -1.4110   20.0330   -1.8940 C   0  0  0  0  0  0  0  0  0  0  0  0
   -3.0990   20.1930    0.0050 C   0  0  0  0  0  0  0  0  0  0  0  0
    0.7290   16.3010   -2.2770 C   0  0  1  0  0  0  0  0  0  0  0  0
    0.8290   16.1140   -3.8140 C   0  0  0  0  0  0  0  0  0  0  0  0
    1.2030   14.6300   -4.0610 C   0  0  0  0  0  0  0  0  0  0  0  0
    0.9820   13.9390   -2.6950 C   0  0  1  0  0  0  0  0  0  0  0  0
   -0.5540   13.6710   -2.6250 C   0  0  0  0  0  0  0  0  0  0  0  0
    1.8080   12.6370   -2.4370 C   0  0  2  0  0  0  0  0  0  0  0  0
    1.5090   11.4740   -3.3990 C   0  0  0  0  0  0  0  0  0  0  0  0
    0.4300   10.5420   -2.9570 C   0  0  0  0  0  0  0  0  0  0  0  0
   -0.0740   10.4640   -1.7120 C   0  0  0  0  0  0  0  0  0  0  0  0
    0.5130   11.3040   -0.5700 C   0  0  1  0  0  0  0  0  0  0  0  0
    0.7180   10.4080    0.6800 C   0  0  0  0  0  0  0  0  0  0  0  0
   -0.5560    9.6760    1.0900 C   0  0  0  0  0  0  0  0  0  0  0  0
   -1.0770    8.8060   -0.0520 C   0  0  2  0  0  0  0  0  0  0  0  0
   -0.1430    7.7480   -0.2880 O   0  0  0  0  0  0  0  0  0  0  0  0
   -1.3120    9.5990   -1.3680 C   0  0  0  0  0  0  0  0  0  0  0  0
   -2.5310   10.5390   -1.1980 C   0  0  0  0  0  0  0  0  0  0  0  0
   -1.7000    8.5820   -2.4750 C   0  0  0  0  0  0  0  0  0  0  0  0
    1.8060   12.1550   -0.9300 C   0  0  1  0  0  0  0  0  0  0  0  0
    3.0860   11.2860   -0.7380 C   0  0  0  0  0  0  0  0  0  0  0  0
    1.9290   13.3560    0.0820 C   0  0  0  0  0  0  0  0  0  0  0  0
    1.1880   14.6550   -0.2880 C   0  0  0  0  0  0  0  0  0  0  0  0
    1.4940   15.0700   -1.7300 C   0  0  2  0  0  0  0  0  0  0  0  0
    3.0300   15.3680   -1.8250 C   0  0  0  0  0  0  0  0  0  0  0  0
    3.3013   18.0721   -1.4931 H   0  0  0  0  0  0  0  0  0  0  0  0
    2.9460   17.0914   -2.9555 H   0  0  0  0  0  0  0  0  0  0  0  0
    2.6139   18.8567   -2.9555 H   0  0  0  0  0  0  0  0  0  0  0  0
    0.5431   18.4533   -2.2387 H   0  0  0  0  0  0  0  0  0  0  0  0
    0.3721   17.0558    0.0723 H   0  0  0  0  0  0  0  0  0  0  0  0
    2.1260   17.5714    0.1056 H   0  0  0  0  0  0  0  0  0  0  0  0
    1.2926   19.3951    1.1319 H   0  0  0  0  0  0  0  0  0  0  0  0
    0.9478   19.8992   -0.5752 H   0  0  0  0  0  0  0  0  0  0  0  0
   -0.5310   19.5937    1.5506 H   0  0  0  0  0  0  0  0  0  0  0  0
   -0.6197   20.7969   -1.8756 H   0  0  0  0  0  0  0  0  0  0  0  0
   -1.0447   19.1382   -2.4186 H   0  0  0  0  0  0  0  0  0  0  0  0
   -2.2923   20.4306   -2.4186 H   0  0  0  0  0  0  0  0  0  0  0  0
   -3.1012   20.1939    1.1050 H   0  0  0  0  0  0  0  0  0  0  0  0
   -3.2474   21.2190   -0.3628 H   0  0  0  0  0  0  0  0  0  0  0  0
   -3.9125   19.5504   -0.3628 H   0  0  0  0  0  0  0  0  0  0  0  0
   -0.2958   16.3158   -1.8774 H   0  0  0  0  0  0  0  0  0  0  0  0
   -0.1367   16.3450   -4.2873 H   0  0  0  0  0  0  0  0  0  0  0  0
    1.5834   16.7883   -4.2455 H   0  0  0  0  0  0  0  0  0  0  0  0
    0.5517   14.1882   -4.8295 H   0  0  0  0  0  0  0  0  0  0  0  0
    2.2348   14.5149   -4.4244 H   0  0  0  0  0  0  0  0  0  0  0  0
   -0.8690   13.6160   -1.5725 H   0  0  0  0  0  0  0  0  0  0  0  0
   -1.0921   14.4888   -3.1266 H   0  0  0  0  0  0  0  0  0  0  0  0
   -0.7834   12.7193   -3.1266 H   0  0  0  0  0  0  0  0  0  0  0  0
    2.8342   12.9597   -2.6669 H   0  0  0  0  0  0  0  0  0  0  0  0
    1.2125   11.9021   -4.3679 H   0  0  0  0  0  0  0  0  0  0  0  0
    2.4294   10.8735   -3.4457 H   0  0  0  0  0  0  0  0  0  0  0  0
    0.0116    9.8614   -3.7131 H   0  0  0  0  0  0  0  0  0  0  0  0
   -0.2317   12.0835   -0.3516 H   0  0  0  0  0  0  0  0  0  0  0  0
    1.4961    9.6634    0.4564 H   0  0  0  0  0  0  0  0  0  0  0  0
    1.0111   11.0615    1.5149 H   0  0  0  0  0  0  0  0  0  0  0  0
   -0.3405    9.0376    1.9595 H   0  0  0  0  0  0  0  0  0  0  0  0
   -1.3241   10.4221    1.3417 H   0  0  0  0  0  0  0  0  0  0  0  0
   -2.0565    8.4103    0.2547 H   0  0  0  0  0  0  0  0  0  0  0  0
    0.1100    7.3800    0.5760 H   0  0  0  0  0  0  0  0  0  0  0  0
   -2.7295   10.6920   -0.1269 H   0  0  0  0  0  0  0  0  0  0  0  0
   -2.3162   11.5076   -1.6732 H   0  0  0  0  0  0  0  0  0  0  0  0
   -3.4131   10.0851   -1.6732 H   0  0  0  0  0  0  0  0  0  0  0  0
   -2.0552    7.6509   -2.0093 H   0  0  0  0  0  0  0  0  0  0  0  0
   -2.4990    9.0074   -3.1000 H   0  0  0  0  0  0  0  0  0  0  0  0
   -0.8207    8.3671   -3.1000 H   0  0  0  0  0  0  0  0  0  0  0  0
    3.2814   11.1534    0.3364 H   0  0  0  0  0  0  0  0  0  0  0  0
    2.9354   10.3027   -1.2074 H   0  0  0  0  0  0  0  0  0  0  0  0
    3.9444   11.7888   -1.2074 H   0  0  0  0  0  0  0  0  0  0  0  0
    1.5385   13.0150    1.0522 H   0  0  0  0  0  0  0  0  0  0  0  0
    2.9960   13.6236    0.0827 H   0  0  0  0  0  0  0  0  0  0  0  0
    0.1050   14.4939   -0.1822 H   0  0  0  0  0  0  0  0  0  0  0  0
    1.5264   15.4556    0.3863 H   0  0  0  0  0  0  0  0  0  0  0  0
    3.4510   15.4497   -0.8120 H   0  0  0  0  0  0  0  0  0  0  0  0
    3.5295   14.5500   -2.3648 H   0  0  0  0  0  0  0  0  0  0  0  0
    3.1874   16.3134   -2.3648 H   0  0  0  0  0  0  0  0  0  0  0  0
  1  2  1  0
  2  3  1  0
  3  4  1  0
  4  5  1  0
  5  6  1  0
  6  7  1  0
  7  8  1  0
  7  9  1  0
  2 10  1  0
 10 11  1  0
 11 12  1  0
 12 13  1  0
 13 14  1  1
 13 15  1  0
 15 16  1  0
 16 17  1  0
 17 18  2  0
 18 19  1  0
 19 20  1  0
 20 21  1  0
 21 22  1  0
 22 23  1  0
 22 24  1  0
 24 25  1  0
 24 26  1  0
 19 27  1  0
 27 28  1  6
 27 29  1  0
 29 30  1  0
 30 31  1  0
 31 32  1  1
  7  5  1  0
 31 10  1  0
 31 13  1  0
 27 15  1  0
 24 18  1  0
  1 33  1  0
  1 34  1  0
  1 35  1  0
  2 36  1  6
  3 37  1  0
  3 38  1  0
  4 39  1  0
  4 40  1  0
  5 41  1  1
  8 42  1  0
  8 43  1  0
  8 44  1  0
  9 45  1  0
  9 46  1  0
  9 47  1  0
 10 48  1  1
 11 49  1  0
 11 50  1  0
 12 51  1  0
 12 52  1  0
 14 53  1  0
 14 54  1  0
 14 55  1  0
 15 56  1  6
 16 57  1  0
 16 58  1  0
 17 59  1  0
 19 60  1  1
 20 61  1  0
 20 62  1  0
 21 63  1  0
 21 64  1  0
 22 65  1  1
 23 66  1  0
 25 67  1  0
 25 68  1  0
 25 69  1  0
 26 70  1  0
 26 71  1  0
 26 72  1  0
 28 73  1  0
 28 74  1  0
 28 75  1  0
 29 76  1  0
 29 77  1  0
 30 78  1  0
 30 79  1  0
 32 80  1  0
 32 81  1  0
 32 82  1  0
M  END
>  <meeko>  (4) 
{"is_sidechain": [false], "intermolecular_energy": 2.731, "internal_energy": -0.839}

$$$$
EPH_relaxed_0001_pdb2pqr_Repair_416_r2_0001_out
     RDKit          3D

 82 86  0  0  0  0  0  0  0  0999 V2000
    2.7840   12.4030   -5.2910 C   0  0  0  0  0  0  0  0  0  0  0  0
    1.3260   12.8510   -5.1480 C   0  0  2  0  0  0  0  0  0  0  0  0
    1.0730   14.2220   -5.8060 C   0  0  0  0  0  0  0  0  0  0  0  0
    1.6510   14.3430   -7.2190 C   0  0  0  0  0  0  0  0  0  0  0  0
    1.3240   15.6670   -7.8400 C   0  0  2  0  0  0  0  0  0  0  0  0
    0.4140   15.6010   -8.9460 O   0  0  0  0  0  0  0  0  0  0  0  0
    1.7430   16.0580   -9.2450 C   0  0  0  0  0  0  0  0  0  0  0  0
    2.5270   15.1250  -10.1140 C   0  0  0  0  0  0  0  0  0  0  0  0
    1.8160   17.5130   -9.5910 C   0  0  0  0  0  0  0  0  0  0  0  0
    0.9410   12.9020   -3.6740 C   0  0  1  0  0  0  0  0  0  0  0  0
   -0.4920   13.4520   -3.4490 C   0  0  0  0  0  0  0  0  0  0  0  0
   -1.0790   12.6890   -2.2340 C   0  0  0  0  0  0  0  0  0  0  0  0
    0.1360   11.9730   -1.5990 C   0  0  1  0  0  0  0  0  0  0  0  0
    0.8380   13.0670   -0.7340 C   0  0  0  0  0  0  0  0  0  0  0  0
   -0.1770   10.6890   -0.7640 C   0  0  2  0  0  0  0  0  0  0  0  0
   -1.0580   10.9160    0.4760 C   0  0  0  0  0  0  0  0  0  0  0  0
   -0.3180   11.2150    1.7380 C   0  0  0  0  0  0  0  0  0  0  0  0
    0.9990   11.0210    1.9380 C   0  0  0  0  0  0  0  0  0  0  0  0
    1.8680   10.3560    0.8630 C   0  0  1  0  0  0  0  0  0  0  0  0
    2.7650    9.2730    1.5190 C   0  0  0  0  0  0  0  0  0  0  0  0
    3.5890    9.8210    2.6800 C   0  0  0  0  0  0  0  0  0  0  0  0
    2.6860   10.4210    3.7550 C   0  0  2  0  0  0  0  0  0  0  0  0
    1.9210    9.3700    4.3530 O   0  0  0  0  0  0  0  0  0  0  0  0
    1.7300   11.5180    3.2090 C   0  0  0  0  0  0  0  0  0  0  0  0
    2.5460   12.7810    2.8370 C   0  0  0  0  0  0  0  0  0  0  0  0
    0.7790   11.9390    4.3610 C   0  0  0  0  0  0  0  0  0  0  0  0
    1.0970    9.8160   -0.4170 C   0  0  1  0  0  0  0  0  0  0  0  0
    0.5850    8.3660   -0.1570 C   0  0  0  0  0  0  0  0  0  0  0  0
    2.1040    9.7210   -1.6230 C   0  0  0  0  0  0  0  0  0  0  0  0
    2.2800   10.9880   -2.4830 C   0  0  0  0  0  0  0  0  0  0  0  0
    0.9220   11.5620   -2.8970 C   0  0  2  0  0  0  0  0  0  0  0  0
    0.2020   10.4930   -3.7880 C   0  0  0  0  0  0  0  0  0  0  0  0
    3.2255   12.2673   -4.2927 H   0  0  0  0  0  0  0  0  0  0  0  0
    2.8229   11.4515   -5.8415 H   0  0  0  0  0  0  0  0  0  0  0  0
    3.3505   13.1685   -5.8415 H   0  0  0  0  0  0  0  0  0  0  0  0
    0.6998   12.1132   -5.6710 H   0  0  0  0  0  0  0  0  0  0  0  0
   -0.0134   14.3861   -5.8600 H   0  0  0  0  0  0  0  0  0  0  0  0
    1.5810   14.9749   -5.1854 H   0  0  0  0  0  0  0  0  0  0  0  0
    2.7443   14.2337   -7.1675 H   0  0  0  0  0  0  0  0  0  0  0  0
    1.2048   13.5530   -7.8409 H   0  0  0  0  0  0  0  0  0  0  0  0
    1.4301   16.1750   -6.8701 H   0  0  0  0  0  0  0  0  0  0  0  0
    3.1064   14.4355   -9.4825 H   0  0  0  0  0  0  0  0  0  0  0  0
    1.8378   14.5491  -10.7491 H   0  0  0  0  0  0  0  0  0  0  0  0
    3.2130   15.7047  -10.7491 H   0  0  0  0  0  0  0  0  0  0  0  0
    1.8459   18.1086   -8.6667 H   0  0  0  0  0  0  0  0  0  0  0  0
    2.7249   17.7046  -10.1802 H   0  0  0  0  0  0  0  0  0  0  0  0
    0.9309   17.7946  -10.1802 H   0  0  0  0  0  0  0  0  0  0  0  0
    1.7490   13.5451   -3.2952 H   0  0  0  0  0  0  0  0  0  0  0  0
   -0.4546   14.5307   -3.2367 H   0  0  0  0  0  0  0  0  0  0  0  0
   -1.1151   13.3080   -4.3440 H   0  0  0  0  0  0  0  0  0  0  0  0
   -1.5344   13.3896   -1.5186 H   0  0  0  0  0  0  0  0  0  0  0  0
   -1.8719   11.9850   -2.5269 H   0  0  0  0  0  0  0  0  0  0  0  0
    0.6926   12.8404    0.3325 H   0  0  0  0  0  0  0  0  0  0  0  0
    1.9139   13.0806   -0.9626 H   0  0  0  0  0  0  0  0  0  0  0  0
    0.4021   14.0507   -0.9626 H   0  0  0  0  0  0  0  0  0  0  0  0
   -0.7895   10.0974   -1.4603 H   0  0  0  0  0  0  0  0  0  0  0  0
   -1.7284   11.7626    0.2663 H   0  0  0  0  0  0  0  0  0  0  0  0
   -1.5873    9.9678    0.6510 H   0  0  0  0  0  0  0  0  0  0  0  0
   -0.8985   11.6291    2.5756 H   0  0  0  0  0  0  0  0  0  0  0  0
    2.4950   11.1558    0.4422 H   0  0  0  0  0  0  0  0  0  0  0  0
    2.1225    8.4627    1.8941 H   0  0  0  0  0  0  0  0  0  0  0  0
    3.4666    8.9114    0.7528 H   0  0  0  0  0  0  0  0  0  0  0  0
    4.1786    9.0034    3.1204 H   0  0  0  0  0  0  0  0  0  0  0  0
    4.2521   10.6110    2.2976 H   0  0  0  0  0  0  0  0  0  0  0  0
    3.3348   10.9110    4.4959 H   0  0  0  0  0  0  0  0  0  0  0  0
    1.1070    9.7650    4.7090 H   0  0  0  0  0  0  0  0  0  0  0  0
    2.8743   13.2892    3.7557 H   0  0  0  0  0  0  0  0  0  0  0  0
    3.4260   12.4880    2.2456 H   0  0  0  0  0  0  0  0  0  0  0  0
    1.9172   13.4628    2.2456 H   0  0  0  0  0  0  0  0  0  0  0  0
    1.2582   11.7268    5.3281 H   0  0  0  0  0  0  0  0  0  0  0  0
    0.5659   13.0155    4.2857 H   0  0  0  0  0  0  0  0  0  0  0  0
   -0.1612   11.3730    4.2857 H   0  0  0  0  0  0  0  0  0  0  0  0
    0.5222    8.1881    0.9267 H   0  0  0  0  0  0  0  0  0  0  0  0
   -0.4111    8.2426   -0.6072 H   0  0  0  0  0  0  0  0  0  0  0  0
    1.2827    7.6445   -0.6072 H   0  0  0  0  0  0  0  0  0  0  0  0
    3.0902    9.4574   -1.2131 H   0  0  0  0  0  0  0  0  0  0  0  0
    1.6710    8.9708   -2.3010 H   0  0  0  0  0  0  0  0  0  0  0  0
    2.8283   11.7441   -1.9019 H   0  0  0  0  0  0  0  0  0  0  0  0
    2.8396   10.7205   -3.3915 H   0  0  0  0  0  0  0  0  0  0  0  0
   -0.2959    9.7537   -3.1434 H   0  0  0  0  0  0  0  0  0  0  0  0
   -0.5467   10.9891   -4.4231 H   0  0  0  0  0  0  0  0  0  0  0  0
    0.9432    9.9857   -4.4231 H   0  0  0  0  0  0  0  0  0  0  0  0
  1  2  1  0
  2  3  1  0
  3  4  1  0
  4  5  1  0
  5  6  1  0
  6  7  1  0
  7  8  1  0
  7  9  1  0
  2 10  1  0
 10 11  1  0
 11 12  1  0
 12 13  1  0
 13 14  1  1
 13 15  1  0
 15 16  1  0
 16 17  1  0
 17 18  2  0
 18 19  1  0
 19 20  1  0
 20 21  1  0
 21 22  1  0
 22 23  1  0
 22 24  1  0
 24 25  1  0
 24 26  1  0
 19 27  1  0
 27 28  1  1
 27 29  1  0
 29 30  1  0
 30 31  1  0
 31 32  1  6
  7  5  1  0
 31 10  1  0
 31 13  1  0
 27 15  1  0
 24 18  1  0
  1 33  1  0
  1 34  1  0
  1 35  1  0
  2 36  1  6
  3 37  1  0
  3 38  1  0
  4 39  1  0
  4 40  1  0
  5 41  1  1
  8 42  1  0
  8 43  1  0
  8 44  1  0
  9 45  1  0
  9 46  1  0
  9 47  1  0
 10 48  1  1
 11 49  1  0
 11 50  1  0
 12 51  1  0
 12 52  1  0
 14 53  1  0
 14 54  1  0
 14 55  1  0
 15 56  1  6
 16 57  1  0
 16 58  1  0
 17 59  1  0
 19 60  1  6
 20 61  1  0
 20 62  1  0
 21 63  1  0
 21 64  1  0
 22 65  1  1
 23 66  1  0
 25 67  1  0
 25 68  1  0
 25 69  1  0
 26 70  1  0
 26 71  1  0
 26 72  1  0
 28 73  1  0
 28 74  1  0
 28 75  1  0
 29 76  1  0
 29 77  1  0
 30 78  1  0
 30 79  1  0
 32 80  1  0
 32 81  1  0
 32 82  1  0
M  END
>  <meeko>  (5) 
{"is_sidechain": [false], "intermolecular_energy": 2.731, "internal_energy": -0.839}

$$$$
EPH_relaxed_0001_pdb2pqr_Repair_416_r2_0001_out
     RDKit          3D

 82 86  0  0  0  0  0  0  0  0999 V2000
    3.6620   18.0980    0.7770 C   0  0  0  0  0  0  0  0  0  0  0  0
    2.6280   18.4930   -0.2820 C   0  0  2  0  0  0  0  0  0  0  0  0
    1.8670   19.7780    0.1020 C   0  0  0  0  0  0  0  0  0  0  0  0
    0.6820   19.5340    1.0390 C   0  0  0  0  0  0  0  0  0  0  0  0
   -0.5820   20.1350    0.5030 C   0  0  2  0  0  0  0  0  0  0  0  0
   -1.6640   20.1940    1.4420 O   0  0  0  0  0  0  0  0  0  0  0  0
   -1.8630   19.3470    0.2990 C   0  0  0  0  0  0  0  0  0  0  0  0
   -1.9420   17.8890    0.6280 C   0  0  0  0  0  0  0  0  0  0  0  0
   -2.8780   19.8690   -0.6690 C   0  0  0  0  0  0  0  0  0  0  0  0
    1.6440   17.3500   -0.5000 C   0  0  1  0  0  0  0  0  0  0  0  0
    0.4470   17.7560   -1.4010 C   0  0  0  0  0  0  0  0  0  0  0  0
    0.0750   16.5060   -2.2390 C   0  0  0  0  0  0  0  0  0  0  0  0
    0.8380   15.3420   -1.5650 C   0  0  1  0  0  0  0  0  0  0  0  0
   -0.0430   14.9400   -0.3420 C   0  0  0  0  0  0  0  0  0  0  0  0
    1.1630   14.1120   -2.4730 C   0  0  2  0  0  0  0  0  0  0  0  0
   -0.0650   13.3680   -3.0270 C   0  0  0  0  0  0  0  0  0  0  0  0
   -0.5720   12.2510   -2.1760 C   0  0  0  0  0  0  0  0  0  0  0  0
    0.0990   11.6750   -1.1610 C   0  0  0  0  0  0  0  0  0  0  0  0
    1.5440   12.0780   -0.8420 C   0  0  1  0  0  0  0  0  0  0  0  0
    2.4030   10.8030   -0.6330 C   0  0  0  0  0  0  0  0  0  0  0  0
    1.8130    9.8660    0.4170 C   0  0  0  0  0  0  0  0  0  0  0  0
    0.3970    9.4420    0.0360 C   0  0  2  0  0  0  0  0  0  0  0  0
    0.4600    8.6290   -1.1400 O   0  0  0  0  0  0  0  0  0  0  0  0
   -0.5570   10.6440   -0.2100 C   0  0  0  0  0  0  0  0  0  0  0  0
   -0.8640   11.3480    1.1350 C   0  0  0  0  0  0  0  0  0  0  0  0
   -1.9100   10.0810   -0.7230 C   0  0  0  0  0  0  0  0  0  0  0  0
    2.2150   13.1070   -1.8500 C   0  0  1  0  0  0  0  0  0  0  0  0
    2.8580   12.3380   -3.0460 C   0  0  0  0  0  0  0  0  0  0  0  0
    3.3930   13.8520   -1.1170 C   0  0  0  0  0  0  0  0  0  0  0  0
    3.0270   15.1280   -0.3350 C   0  0  0  0  0  0  0  0  0  0  0  0
    2.1800   16.0730   -1.1940 C   0  0  2  0  0  0  0  0  0  0  0  0
    3.0490   16.5130   -2.4210 C   0  0  0  0  0  0  0  0  0  0  0  0
    3.2397   18.2593    1.7798 H   0  0  0  0  0  0  0  0  0  0  0  0
    3.9239   17.0365    0.6558 H   0  0  0  0  0  0  0  0  0  0  0  0
    4.5649   18.7145    0.6558 H   0  0  0  0  0  0  0  0  0  0  0  0
    3.1719   18.6975   -1.2160 H   0  0  0  0  0  0  0  0  0  0  0  0
    2.5695   20.4617    0.6012 H   0  0  0  0  0  0  0  0  0  0  0  0
    1.4597   20.2007   -0.8283 H   0  0  0  0  0  0  0  0  0  0  0  0
    0.5388   18.4498    1.1576 H   0  0  0  0  0  0  0  0  0  0  0  0
    0.9052   20.0104    2.0050 H   0  0  0  0  0  0  0  0  0  0  0  0
   -0.0106   20.8000   -0.1613 H   0  0  0  0  0  0  0  0  0  0  0  0
   -1.9490   17.7595    1.7203 H   0  0  0  0  0  0  0  0  0  0  0  0
   -2.8643   17.4666    0.2027 H   0  0  0  0  0  0  0  0  0  0  0  0
   -1.0707   17.3694    0.2027 H   0  0  0  0  0  0  0  0  0  0  0  0
   -3.7232   20.3037   -0.1152 H   0  0  0  0  0  0  0  0  0  0  0  0
   -2.4176   20.6422   -1.3016 H   0  0  0  0  0  0  0  0  0  0  0  0
   -3.2392   19.0448   -1.3016 H   0  0  0  0  0  0  0  0  0  0  0  0
    1.3835   17.1289    0.5456 H   0  0  0  0  0  0  0  0  0  0  0  0
   -0.4072   18.0640   -0.7802 H   0  0  0  0  0  0  0  0  0  0  0  0
    0.7109   18.6034   -2.0509 H   0  0  0  0  0  0  0  0  0  0  0  0
   -1.0100   16.3276   -2.2093 H   0  0  0  0  0  0  0  0  0  0  0  0
    0.3425   16.6207   -3.2998 H   0  0  0  0  0  0  0  0  0  0  0  0
    0.4896   15.1830    0.5893 H   0  0  0  0  0  0  0  0  0  0  0  0
   -0.9928   15.4938   -0.3764 H   0  0  0  0  0  0  0  0  0  0  0  0
   -0.2471   13.8596   -0.3764 H   0  0  0  0  0  0  0  0  0  0  0  0
    1.6459   14.5812   -3.3429 H   0  0  0  0  0  0  0  0  0  0  0  0
   -0.8784   14.0984   -3.1489 H   0  0  0  0  0  0  0  0  0  0  0  0
    0.2592   12.9074   -3.9718 H   0  0  0  0  0  0  0  0  0  0  0  0
   -1.5786   11.8663   -2.3970 H   0  0  0  0  0  0  0  0  0  0  0  0
    1.4994   12.6555    0.0931 H   0  0  0  0  0  0  0  0  0  0  0  0
    2.4713   10.2631   -1.5890 H   0  0  0  0  0  0  0  0  0  0  0  0
    3.3936   11.1223   -0.2769 H   0  0  0  0  0  0  0  0  0  0  0  0
    2.4473    8.9709    0.4978 H   0  0  0  0  0  0  0  0  0  0  0  0
    1.7733   10.3976    1.3792 H   0  0  0  0  0  0  0  0  0  0  0  0
   -0.0191    8.8803    0.8853 H   0  0  0  0  0  0  0  0  0  0  0  0
    0.8960    7.7940   -0.8980 H   0  0  0  0  0  0  0  0  0  0  0  0
   -0.5767   10.6891    1.9677 H   0  0  0  0  0  0  0  0  0  0  0  0
   -0.2934   12.2864    1.1963 H   0  0  0  0  0  0  0  0  0  0  0  0
   -1.9399   11.5684    1.1963 H   0  0  0  0  0  0  0  0  0  0  0  0
   -2.5459    9.8164    0.1347 H   0  0  0  0  0  0  0  0  0  0  0  0
   -2.4164   10.8431   -1.3336 H   0  0  0  0  0  0  0  0  0  0  0  0
   -1.7263    9.1846   -1.3336 H   0  0  0  0  0  0  0  0  0  0  0  0
    3.5189   11.5475   -2.6608 H   0  0  0  0  0  0  0  0  0  0  0  0
    2.0651   11.8861   -3.6601 H   0  0  0  0  0  0  0  0  0  0  0  0
    3.4432   13.0383   -3.6601 H   0  0  0  0  0  0  0  0  0  0  0  0
    3.8438   13.1437   -0.4063 H   0  0  0  0  0  0  0  0  0  0  0  0
    4.0649   14.1889   -1.9201 H   0  0  0  0  0  0  0  0  0  0  0  0
    2.4561   14.8487    0.5628 H   0  0  0  0  0  0  0  0  0  0  0  0
    3.9558   15.6463   -0.0545 H   0  0  0  0  0  0  0  0  0  0  0  0
    3.9771   16.9829   -2.0634 H   0  0  0  0  0  0  0  0  0  0  0  0
    3.2958   15.6312   -3.0306 H   0  0  0  0  0  0  0  0  0  0  0  0
    2.4843   17.2338   -3.0306 H   0  0  0  0  0  0  0  0  0  0  0  0
  1  2  1  0
  2  3  1  0
  3  4  1  0
  4  5  1  0
  5  6  1  0
  6  7  1  0
  7  8  1  0
  7  9  1  0
  2 10  1  0
 10 11  1  0
 11 12  1  0
 12 13  1  0
 13 14  1  1
 13 15  1  0
 15 16  1  0
 16 17  1  0
 17 18  2  0
 18 19  1  0
 19 20  1  0
 20 21  1  0
 21 22  1  0
 22 23  1  0
 22 24  1  0
 24 25  1  0
 24 26  1  0
 19 27  1  0
 27 28  1  6
 27 29  1  0
 29 30  1  0
 30 31  1  0
 31 32  1  6
  7  5  1  0
 31 10  1  0
 31 13  1  0
 27 15  1  0
 24 18  1  0
  1 33  1  0
  1 34  1  0
  1 35  1  0
  2 36  1  6
  3 37  1  0
  3 38  1  0
  4 39  1  0
  4 40  1  0
  5 41  1  6
  8 42  1  0
  8 43  1  0
  8 44  1  0
  9 45  1  0
  9 46  1  0
  9 47  1  0
 10 48  1  1
 11 49  1  0
 11 50  1  0
 12 51  1  0
 12 52  1  0
 14 53  1  0
 14 54  1  0
 14 55  1  0
 15 56  1  6
 16 57  1  0
 16 58  1  0
 17 59  1  0
 19 60  1  1
 20 61  1  0
 20 62  1  0
 21 63  1  0
 21 64  1  0
 22 65  1  1
 23 66  1  0
 25 67  1  0
 25 68  1  0
 25 69  1  0
 26 70  1  0
 26 71  1  0
 26 72  1  0
 28 73  1  0
 28 74  1  0
 28 75  1  0
 29 76  1  0
 29 77  1  0
 30 78  1  0
 30 79  1  0
 32 80  1  0
 32 81  1  0
 32 82  1  0
M  END
>  <meeko>  (6) 
{"is_sidechain": [false], "intermolecular_energy": 2.731, "internal_energy": -0.839}

$$$$
EPH_relaxed_0001_pdb2pqr_Repair_416_r2_0001_out
     RDKit          3D

 82 86  0  0  0  0  0  0  0  0999 V2000
    1.6510   12.6940   -5.8370 C   0  0  0  0  0  0  0  0  0  0  0  0
    0.8480   13.5730   -4.8740 C   0  0  2  0  0  0  0  0  0  0  0  0
    0.9580   15.0700   -5.2260 C   0  0  0  0  0  0  0  0  0  0  0  0
    0.6440   15.3820   -6.6910 C   0  0  0  0  0  0  0  0  0  0  0  0
    1.8710   15.3090   -7.5490 C   0  0  2  0  0  0  0  0  0  0  0  0
    2.2410   16.5460   -8.1720 O   0  0  0  0  0  0  0  0  0  0  0  0
    1.8500   15.4820   -9.0560 C   0  0  0  0  0  0  0  0  0  0  0  0
    0.5740   15.7420   -9.7940 C   0  0  0  0  0  0  0  0  0  0  0  0
    2.9810   14.9170   -9.8570 C   0  0  0  0  0  0  0  0  0  0  0  0
    1.3180   13.3390   -3.4430 C   0  0  1  0  0  0  0  0  0  0  0  0
    1.3220   14.6390   -2.5950 C   0  0  0  0  0  0  0  0  0  0  0  0
    0.9310   14.2330   -1.1510 C   0  0  0  0  0  0  0  0  0  0  0  0
    1.0380   12.6900   -1.1370 C   0  0  1  0  0  0  0  0  0  0  0  0
    2.5590   12.3960   -0.9420 C   0  0  0  0  0  0  0  0  0  0  0  0
    0.1660   11.9460   -0.0740 C   0  0  2  0  0  0  0  0  0  0  0  0
    0.5040   12.2710    1.3910 C   0  0  0  0  0  0  0  0  0  0  0  0
    1.5260   11.3850    2.0220 C   0  0  0  0  0  0  0  0  0  0  0  0
    1.9400   10.2000    1.5360 C   0  0  0  0  0  0  0  0  0  0  0  0
    1.2940    9.5930    0.2840 C   0  0  1  0  0  0  0  0  0  0  0  0
    0.9800    8.0950    0.5380 C   0  0  0  0  0  0  0  0  0  0  0  0
    2.2040    7.3110    1.0020 C   0  0  0  0  0  0  0  0  0  0  0  0
    2.7830    7.9100    2.2810 C   0  0  2  0  0  0  0  0  0  0  0  0
    1.8430    7.7230    3.3440 O   0  0  0  0  0  0  0  0  0  0  0  0
    3.1290    9.4190    2.1490 C   0  0  0  0  0  0  0  0  0  0  0  0
    4.3550    9.5920    1.2180 C   0  0  0  0  0  0  0  0  0  0  0  0
    3.5700    9.9330    3.5460 C   0  0  0  0  0  0  0  0  0  0  0  0
    0.0500   10.3850   -0.3080 C   0  0  1  0  0  0  0  0  0  0  0  0
   -1.2600    9.9250    0.4010 C   0  0  0  0  0  0  0  0  0  0  0  0
   -0.1150   10.0190   -1.8300 C   0  0  0  0  0  0  0  0  0  0  0  0
    0.6810   10.8670   -2.8400 C   0  0  0  0  0  0  0  0  0  0  0  0
    0.4870   12.3630   -2.5720 C   0  0  2  0  0  0  0  0  0  0  0  0
   -1.0300   12.6930   -2.7820 C   0  0  0  0  0  0  0  0  0  0  0  0
    2.2832   12.0020   -5.2613 H   0  0  0  0  0  0  0  0  0  0  0  0
    0.9602   12.1185   -6.4708 H   0  0  0  0  0  0  0  0  0  0  0  0
    2.2864   13.3301   -6.4708 H   0  0  0  0  0  0  0  0  0  0  0  0
   -0.2102   13.2881   -4.9695 H   0  0  0  0  0  0  0  0  0  0  0  0
    0.2526   15.6284   -4.5931 H   0  0  0  0  0  0  0  0  0  0  0  0
    2.0030   15.3655   -5.0512 H   0  0  0  0  0  0  0  0  0  0  0  0
   -0.0931   14.6538   -7.0604 H   0  0  0  0  0  0  0  0  0  0  0  0
    0.2478   16.4067   -6.7459 H   0  0  0  0  0  0  0  0  0  0  0  0
    2.3055   14.5330   -6.9017 H   0  0  0  0  0  0  0  0  0  0  0  0
   -0.2396   15.9078   -9.0725 H   0  0  0  0  0  0  0  0  0  0  0  0
    0.6913   16.6347  -10.4259 H   0  0  0  0  0  0  0  0  0  0  0  0
    0.3326   14.8746  -10.4259 H   0  0  0  0  0  0  0  0  0  0  0  0
    3.7546   14.5305   -9.1772 H   0  0  0  0  0  0  0  0  0  0  0  0
    2.6084   14.0991  -10.4913 H   0  0  0  0  0  0  0  0  0  0  0  0
    3.4112   15.7061  -10.4913 H   0  0  0  0  0  0  0  0  0  0  0  0
    2.3120   12.9125   -3.6432 H   0  0  0  0  0  0  0  0  0  0  0  0
    2.3239   15.0930   -2.6026 H   0  0  0  0  0  0  0  0  0  0  0  0
    0.6161   15.3779   -3.0021 H   0  0  0  0  0  0  0  0  0  0  0  0
    1.6244   14.6770   -0.4216 H   0  0  0  0  0  0  0  0  0  0  0  0
   -0.0749   14.5839   -0.8769 H   0  0  0  0  0  0  0  0  0  0  0  0
    2.7890   12.3515    0.1328 H   0  0  0  0  0  0  0  0  0  0  0  0
    2.8093   11.4328   -1.4107 H   0  0  0  0  0  0  0  0  0  0  0  0
    3.1502   13.1965   -1.4107 H   0  0  0  0  0  0  0  0  0  0  0  0
   -0.8333   12.3704   -0.2508 H   0  0  0  0  0  0  0  0  0  0  0  0
    0.8785   13.3045    1.4320 H   0  0  0  0  0  0  0  0  0  0  0  0
   -0.4252   12.1157    1.9589 H   0  0  0  0  0  0  0  0  0  0  0  0
    1.9790   11.7294    2.9634 H   0  0  0  0  0  0  0  0  0  0  0  0
    2.0398    9.6875   -0.5190 H   0  0  0  0  0  0  0  0  0  0  0  0
    0.2017    8.0242    1.3121 H   0  0  0  0  0  0  0  0  0  0  0  0
    0.6449    7.6580   -0.4142 H   0  0  0  0  0  0  0  0  0  0  0  0
    1.9121    6.2678    1.1931 H   0  0  0  0  0  0  0  0  0  0  0  0
    2.9703    7.3579    0.2142 H   0  0  0  0  0  0  0  0  0  0  0  0
    3.7288    7.3889    2.4905 H   0  0  0  0  0  0  0  0  0  0  0  0
    1.3890    8.5710    3.4880 H   0  0  0  0  0  0  0  0  0  0  0  0
    5.2623    9.7200    1.8265 H   0  0  0  0  0  0  0  0  0  0  0  0
    4.4621    8.7001    0.5832 H   0  0  0  0  0  0  0  0  0  0  0  0
    4.2111   10.4787    0.5832 H   0  0  0  0  0  0  0  0  0  0  0  0
    3.0665    9.3461    4.3283 H   0  0  0  0  0  0  0  0  0  0  0  0
    4.6596    9.8237    3.6497 H   0  0  0  0  0  0  0  0  0  0  0  0
    3.2963   10.9934    3.6497 H   0  0  0  0  0  0  0  0  0  0  0  0
   -1.1231    9.9731    1.4914 H   0  0  0  0  0  0  0  0  0  0  0  0
   -2.0882   10.5861    0.1059 H   0  0  0  0  0  0  0  0  0  0  0  0
   -1.4931    8.8913    0.1059 H   0  0  0  0  0  0  0  0  0  0  0  0
    0.1974    8.9718   -1.9559 H   0  0  0  0  0  0  0  0  0  0  0  0
   -1.1725   10.2163   -2.0598 H   0  0  0  0  0  0  0  0  0  0  0  0
    1.7497   10.6213   -2.7531 H   0  0  0  0  0  0  0  0  0  0  0  0
    0.3156   10.6415   -3.8527 H   0  0  0  0  0  0  0  0  0  0  0  0
   -1.5209   12.7998   -1.8034 H   0  0  0  0  0  0  0  0  0  0  0  0
   -1.1262   13.6331   -3.3450 H   0  0  0  0  0  0  0  0  0  0  0  0
   -1.5080   11.8778   -3.3450 H   0  0  0  0  0  0  0  0  0  0  0  0
  1  2  1  0
  2  3  1  0
  3  4  1  0
  4  5  1  0
  5  6  1  0
  6  7  1  0
  7  8  1  0
  7  9  1  0
  2 10  1  0
 10 11  1  0
 11 12  1  0
 12 13  1  0
 13 14  1  6
 13 15  1  0
 15 16  1  0
 16 17  1  0
 17 18  2  0
 18 19  1  0
 19 20  1  0
 20 21  1  0
 21 22  1  0
 22 23  1  0
 22 24  1  0
 24 25  1  0
 24 26  1  0
 19 27  1  0
 27 28  1  1
 27 29  1  0
 29 30  1  0
 30 31  1  0
 31 32  1  1
  7  5  1  0
 31 10  1  0
 31 13  1  0
 27 15  1  0
 24 18  1  0
  1 33  1  0
  1 34  1  0
  1 35  1  0
  2 36  1  1
  3 37  1  0
  3 38  1  0
  4 39  1  0
  4 40  1  0
  5 41  1  6
  8 42  1  0
  8 43  1  0
  8 44  1  0
  9 45  1  0
  9 46  1  0
  9 47  1  0
 10 48  1  6
 11 49  1  0
 11 50  1  0
 12 51  1  0
 12 52  1  0
 14 53  1  0
 14 54  1  0
 14 55  1  0
 15 56  1  6
 16 57  1  0
 16 58  1  0
 17 59  1  0
 19 60  1  6
 20 61  1  0
 20 62  1  0
 21 63  1  0
 21 64  1  0
 22 65  1  1
 23 66  1  0
 25 67  1  0
 25 68  1  0
 25 69  1  0
 26 70  1  0
 26 71  1  0
 26 72  1  0
 28 73  1  0
 28 74  1  0
 28 75  1  0
 29 76  1  0
 29 77  1  0
 30 78  1  0
 30 79  1  0
 32 80  1  0
 32 81  1  0
 32 82  1  0
M  END
>  <meeko>  (7) 
{"is_sidechain": [false], "intermolecular_energy": 2.731, "internal_energy": -0.839}

$$$$
EPH_relaxed_0001_pdb2pqr_Repair_416_r2_0001_out
     RDKit          3D

 82 86  0  0  0  0  0  0  0  0999 V2000
   -2.1560    9.9490   -0.6650 C   0  0  0  0  0  0  0  0  0  0  0  0
   -0.7810   10.2590   -1.2630 C   0  0  2  0  0  0  0  0  0  0  0  0
    0.2250    9.1150   -1.0270 C   0  0  0  0  0  0  0  0  0  0  0  0
    0.6100    8.9260    0.4430 C   0  0  0  0  0  0  0  0  0  0  0  0
    2.0670    8.6090    0.5980 C   0  0  2  0  0  0  0  0  0  0  0  0
    2.3820    7.7800    1.7240 O   0  0  0  0  0  0  0  0  0  0  0  0
    2.9150    9.1140    1.7510 C   0  0  0  0  0  0  0  0  0  0  0  0
    2.3350    9.9790    2.8250 C   0  0  0  0  0  0  0  0  0  0  0  0
    4.4000    9.1740    1.5740 C   0  0  0  0  0  0  0  0  0  0  0  0
   -0.2400   11.5570   -0.6760 C   0  0  1  0  0  0  0  0  0  0  0  0
    0.9370   11.3230    0.3090 C   0  0  0  0  0  0  0  0  0  0  0  0
    1.9080   12.5190    0.1370 C   0  0  0  0  0  0  0  0  0  0  0  0
    1.1080   13.5570   -0.6840 C   0  0  1  0  0  0  0  0  0  0  0  0
    0.2000   14.2810    0.3590 C   0  0  0  0  0  0  0  0  0  0  0  0
    1.9500   14.5740   -1.5210 C   0  0  2  0  0  0  0  0  0  0  0  0
    2.8610   15.5010   -0.6970 C   0  0  0  0  0  0  0  0  0  0  0  0
    2.2430   16.7910   -0.2730 C   0  0  0  0  0  0  0  0  0  0  0  0
    1.1110   17.3190   -0.7760 C   0  0  0  0  0  0  0  0  0  0  0  0
    0.3830   16.6480   -1.9480 C   0  0  1  0  0  0  0  0  0  0  0  0
    0.0080   17.7190   -3.0060 C   0  0  0  0  0  0  0  0  0  0  0  0
   -0.7880   18.8760   -2.4100 C   0  0  0  0  0  0  0  0  0  0  0  0
   -0.0070   19.5540   -1.2870 C   0  0  2  0  0  0  0  0  0  0  0  0
    1.1450   20.1930   -1.8470 O   0  0  0  0  0  0  0  0  0  0  0  0
    0.4340   18.5710   -0.1670 C   0  0  0  0  0  0  0  0  0  0  0  0
   -0.8060   18.1100    0.6380 C   0  0  0  0  0  0  0  0  0  0  0  0
    1.3320   19.3540    0.8290 C   0  0  0  0  0  0  0  0  0  0  0  0
    1.1110   15.3880   -2.5870 C   0  0  1  0  0  0  0  0  0  0  0  0
    2.1170   15.8550   -3.6840 C   0  0  0  0  0  0  0  0  0  0  0  0
    0.0420   14.4930   -3.3180 C   0  0  0  0  0  0  0  0  0  0  0  0
   -0.6700   13.4260   -2.4650 C   0  0  0  0  0  0  0  0  0  0  0  0
    0.3410   12.5980   -1.6660 C   0  0  2  0  0  0  0  0  0  0  0  0
    1.2540   11.8400   -2.6890 C   0  0  0  0  0  0  0  0  0  0  0  0
   -2.0901    9.9638    0.4329 H   0  0  0  0  0  0  0  0  0  0  0  0
   -2.8804   10.7064   -0.9992 H   0  0  0  0  0  0  0  0  0  0  0  0
   -2.4853    8.9541   -0.9992 H   0  0  0  0  0  0  0  0  0  0  0  0
   -0.9092   10.3676   -2.3501 H   0  0  0  0  0  0  0  0  0  0  0  0
   -0.2224    8.1786   -1.3918 H   0  0  0  0  0  0  0  0  0  0  0  0
    1.1452    9.3799   -1.5684 H   0  0  0  0  0  0  0  0  0  0  0  0
    0.3863    9.8525    0.9921 H   0  0  0  0  0  0  0  0  0  0  0  0
    0.0306    8.0810    0.8434 H   0  0  0  0  0  0  0  0  0  0  0  0
    2.2132    8.6349   -0.4919 H   0  0  0  0  0  0  0  0  0  0  0  0
    2.6075    9.5726    3.8102 H   0  0  0  0  0  0  0  0  0  0  0  0
    2.7315   11.0004    2.7272 H   0  0  0  0  0  0  0  0  0  0  0  0
    1.2396   10.0000    2.7272 H   0  0  0  0  0  0  0  0  0  0  0  0
    4.8863    9.1936    2.5605 H   0  0  0  0  0  0  0  0  0  0  0  0
    4.7388    8.2888    1.0157 H   0  0  0  0  0  0  0  0  0  0  0  0
    4.6663   10.0836    1.0157 H   0  0  0  0  0  0  0  0  0  0  0  0
   -1.1594   11.9478   -0.2156 H   0  0  0  0  0  0  0  0  0  0  0  0
    0.5637   11.2838    1.3430 H   0  0  0  0  0  0  0  0  0  0  0  0
    1.4437   10.3694    0.0997 H   0  0  0  0  0  0  0  0  0  0  0  0
    2.1911   12.9331    1.1160 H   0  0  0  0  0  0  0  0  0  0  0  0
    2.8450   12.2271   -0.3599 H   0  0  0  0  0  0  0  0  0  0  0  0
    0.5285   14.0190    1.3756 H   0  0  0  0  0  0  0  0  0  0  0  0
    0.2757   15.3693    0.2182 H   0  0  0  0  0  0  0  0  0  0  0  0
   -0.8441   13.9648    0.2182 H   0  0  0  0  0  0  0  0  0  0  0  0
    2.6259   13.9132   -2.0836 H   0  0  0  0  0  0  0  0  0  0  0  0
    3.1684   14.9577    0.2087 H   0  0  0  0  0  0  0  0  0  0  0  0
    3.6994   15.7682   -1.3571 H   0  0  0  0  0  0  0  0  0  0  0  0
    2.7555   17.3589    0.5175 H   0  0  0  0  0  0  0  0  0  0  0  0
   -0.5306   16.2051   -1.5247 H   0  0  0  0  0  0  0  0  0  0  0  0
    0.9333   18.1179   -3.4473 H   0  0  0  0  0  0  0  0  0  0  0  0
   -0.6249   17.2332   -3.7633 H   0  0  0  0  0  0  0  0  0  0  0  0
   -0.9972   19.6133   -3.1991 H   0  0  0  0  0  0  0  0  0  0  0  0
   -1.7266   18.4797   -1.9954 H   0  0  0  0  0  0  0  0  0  0  0  0
   -0.6779   20.2868   -0.8148 H   0  0  0  0  0  0  0  0  0  0  0  0
    0.8320   20.8470   -2.4950 H   0  0  0  0  0  0  0  0  0  0  0  0
   -0.5943   18.1887    1.7146 H   0  0  0  0  0  0  0  0  0  0  0  0
   -1.6652   18.7488    0.3856 H   0  0  0  0  0  0  0  0  0  0  0  0
   -1.0393   17.0651    0.3856 H   0  0  0  0  0  0  0  0  0  0  0  0
    1.0427   19.1017    1.8599 H   0  0  0  0  0  0  0  0  0  0  0  0
    2.3850   19.0805    0.6663 H   0  0  0  0  0  0  0  0  0  0  0  0
    1.2045   20.4344    0.6663 H   0  0  0  0  0  0  0  0  0  0  0  0
    3.0150   16.2718   -3.2045 H   0  0  0  0  0  0  0  0  0  0  0  0
    2.4009   14.9966   -4.3105 H   0  0  0  0  0  0  0  0  0  0  0  0
    1.6445   16.6259   -4.3105 H   0  0  0  0  0  0  0  0  0  0  0  0
   -0.7297   15.1624   -3.7260 H   0  0  0  0  0  0  0  0  0  0  0  0
    0.6076   13.9277   -4.0733 H   0  0  0  0  0  0  0  0  0  0  0  0
   -1.3587   13.9243   -1.7669 H   0  0  0  0  0  0  0  0  0  0  0  0
   -1.2226   12.7521   -3.1362 H   0  0  0  0  0  0  0  0  0  0  0  0
    1.9887   11.2300   -2.1429 H   0  0  0  0  0  0  0  0  0  0  0  0
    0.6335   11.1879   -3.3212 H   0  0  0  0  0  0  0  0  0  0  0  0
    1.7809   12.5699   -3.3212 H   0  0  0  0  0  0  0  0  0  0  0  0
  1  2  1  0
  2  3  1  0
  3  4  1  0
  4  5  1  0
  5  6  1  0
  6  7  1  0
  7  8  1  0
  7  9  1  0
  2 10  1  0
 10 11  1  0
 11 12  1  0
 12 13  1  0
 13 14  1  1
 13 15  1  0
 15 16  1  0
 16 17  1  0
 17 18  2  0
 18 19  1  0
 19 20  1  0
 20 21  1  0
 21 22  1  0
 22 23  1  0
 22 24  1  0
 24 25  1  0
 24 26  1  0
 19 27  1  0
 27 28  1  6
 27 29  1  0
 29 30  1  0
 30 31  1  0
 31 32  1  6
  7  5  1  0
 31 10  1  0
 31 13  1  0
 27 15  1  0
 24 18  1  0
  1 33  1  0
  1 34  1  0
  1 35  1  0
  2 36  1  6
  3 37  1  0
  3 38  1  0
  4 39  1  0
  4 40  1  0
  5 41  1  6
  8 42  1  0
  8 43  1  0
  8 44  1  0
  9 45  1  0
  9 46  1  0
  9 47  1  0
 10 48  1  1
 11 49  1  0
 11 50  1  0
 12 51  1  0
 12 52  1  0
 14 53  1  0
 14 54  1  0
 14 55  1  0
 15 56  1  6
 16 57  1  0
 16 58  1  0
 17 59  1  0
 19 60  1  1
 20 61  1  0
 20 62  1  0
 21 63  1  0
 21 64  1  0
 22 65  1  1
 23 66  1  0
 25 67  1  0
 25 68  1  0
 25 69  1  0
 26 70  1  0
 26 71  1  0
 26 72  1  0
 28 73  1  0
 28 74  1  0
 28 75  1  0
 29 76  1  0
 29 77  1  0
 30 78  1  0
 30 79  1  0
 32 80  1  0
 32 81  1  0
 32 82  1  0
M  END
>  <meeko>  (8) 
{"is_sidechain": [false], "intermolecular_energy": 2.731, "internal_energy": -0.839}

$$$$
EPH_relaxed_0001_pdb2pqr_Repair_416_r2_0001_out
     RDKit          3D

 82 86  0  0  0  0  0  0  0  0999 V2000
   -5.2360    5.7800   -1.7870 C   0  0  0  0  0  0  0  0  0  0  0  0
   -5.5050    7.2830   -1.8970 C   0  0  2  0  0  0  0  0  0  0  0  0
   -5.2290    8.0210   -0.5710 C   0  0  0  0  0  0  0  0  0  0  0  0
   -4.2560    9.1950   -0.7110 C   0  0  0  0  0  0  0  0  0  0  0  0
   -2.8760    8.8280   -0.2560 C   0  0  2  0  0  0  0  0  0  0  0  0
   -2.3520    9.6540    0.7920 O   0  0  0  0  0  0  0  0  0  0  0  0
   -1.6620    9.7130   -0.4670 C   0  0  0  0  0  0  0  0  0  0  0  0
   -1.7720   11.0350   -1.1590 C   0  0  0  0  0  0  0  0  0  0  0  0
   -0.3040    9.0840   -0.4410 C   0  0  0  0  0  0  0  0  0  0  0  0
   -6.9440    7.5230   -2.3370 C   0  0  1  0  0  0  0  0  0  0  0  0
   -7.2800    6.8310   -3.6850 C   0  0  0  0  0  0  0  0  0  0  0  0
   -8.7590    6.3710   -3.5950 C   0  0  0  0  0  0  0  0  0  0  0  0
   -9.3180    7.0980   -2.3500 C   0  0  1  0  0  0  0  0  0  0  0  0
   -9.6640    8.5370   -2.8460 C   0  0  0  0  0  0  0  0  0  0  0  0
  -10.5390    6.4220   -1.6460 C   0  0  2  0  0  0  0  0  0  0  0  0
  -11.8090    6.3080   -2.5070 C   0  0  0  0  0  0  0  0  0  0  0  0
  -12.7510    7.4620   -2.4100 C   0  0  0  0  0  0  0  0  0  0  0  0
  -12.7300    8.4110   -1.4560 C   0  0  0  0  0  0  0  0  0  0  0  0
  -11.7460    8.3250   -0.2810 C   0  0  1  0  0  0  0  0  0  0  0  0
  -12.4980    8.6110    1.0450 C   0  0  0  0  0  0  0  0  0  0  0  0
  -13.2560    9.9350    1.0150 C   0  0  0  0  0  0  0  0  0  0  0  0
  -14.2640    9.9590   -0.1310 C   0  0  2  0  0  0  0  0  0  0  0  0
  -15.2870    8.9940    0.1350 O   0  0  0  0  0  0  0  0  0  0  0  0
  -13.6240    9.6740   -1.5180 C   0  0  0  0  0  0  0  0  0  0  0  0
  -12.7410   10.8740   -1.9400 C   0  0  0  0  0  0  0  0  0  0  0  0
  -14.7680    9.5870   -2.5640 C   0  0  0  0  0  0  0  0  0  0  0  0
  -10.8650    7.0040   -0.2110 C   0  0  1  0  0  0  0  0  0  0  0  0
  -11.6370    5.8890    0.5580 C   0  0  0  0  0  0  0  0  0  0  0  0
   -9.5630    7.2990    0.6250 C   0  0  0  0  0  0  0  0  0  0  0  0
   -8.3520    7.8550   -0.1490 C   0  0  0  0  0  0  0  0  0  0  0  0
   -8.0690    7.0160   -1.3990 C   0  0  2  0  0  0  0  0  0  0  0  0
   -7.6960    5.5680   -0.9300 C   0  0  0  0  0  0  0  0  0  0  0  0
   -5.1847    5.4934   -0.7262 H   0  0  0  0  0  0  0  0  0  0  0  0
   -6.0491    5.2251   -2.2779 H   0  0  0  0  0  0  0  0  0  0  0  0
   -4.2809    5.5416   -2.2779 H   0  0  0  0  0  0  0  0  0  0  0  0
   -4.8137    7.6884   -2.6505 H   0  0  0  0  0  0  0  0  0  0  0  0
   -6.1835    8.4055   -0.1823 H   0  0  0  0  0  0  0  0  0  0  0  0
   -4.7607    7.2948    0.1097 H   0  0  0  0  0  0  0  0  0  0  0  0
   -4.2140    9.4993   -1.7672 H   0  0  0  0  0  0  0  0  0  0  0  0
   -4.6184   10.0183   -0.0779 H   0  0  0  0  0  0  0  0  0  0  0  0
   -3.0612    7.7659   -0.4741 H   0  0  0  0  0  0  0  0  0  0  0  0
   -1.8387   11.8370   -0.4091 H   0  0  0  0  0  0  0  0  0  0  0  0
   -0.8840   11.1944   -1.7883 H   0  0  0  0  0  0  0  0  0  0  0  0
   -2.6741   11.0455   -1.7883 H   0  0  0  0  0  0  0  0  0  0  0  0
    0.0123    8.9375    0.6023 H   0  0  0  0  0  0  0  0  0  0  0  0
   -0.3406    8.1112   -0.9531 H   0  0  0  0  0  0  0  0  0  0  0  0
    0.4143    9.7411   -0.9531 H   0  0  0  0  0  0  0  0  0  0  0  0
   -6.9464    8.6226   -2.3670 H   0  0  0  0  0  0  0  0  0  0  0  0
   -7.1536    7.5398   -4.5166 H   0  0  0  0  0  0  0  0  0  0  0  0
   -6.6111    5.9772   -3.8684 H   0  0  0  0  0  0  0  0  0  0  0  0
   -9.3131    6.6658   -4.4984 H   0  0  0  0  0  0  0  0  0  0  0  0
   -8.8520    5.2777   -3.5167 H   0  0  0  0  0  0  0  0  0  0  0  0
   -9.8223    9.1954   -1.9792 H   0  0  0  0  0  0  0  0  0  0  0  0
   -8.8335    8.9248   -3.4542 H   0  0  0  0  0  0  0  0  0  0  0  0
  -10.5800    8.5049   -3.4542 H   0  0  0  0  0  0  0  0  0  0  0  0
  -10.1837    5.3913   -1.4996 H   0  0  0  0  0  0  0  0  0  0  0  0
  -11.4994    6.2094   -3.5579 H   0  0  0  0  0  0  0  0  0  0  0  0
  -12.3578    5.4344   -2.1255 H   0  0  0  0  0  0  0  0  0  0  0  0
  -13.5283    7.5436   -3.1840 H   0  0  0  0  0  0  0  0  0  0  0  0
  -10.9910    9.1053   -0.4574 H   0  0  0  0  0  0  0  0  0  0  0  0
  -13.2163    7.7977    1.2253 H   0  0  0  0  0  0  0  0  0  0  0  0
  -11.7477    8.6743    1.8469 H   0  0  0  0  0  0  0  0  0  0  0  0
  -13.7903   10.0659    1.9676 H   0  0  0  0  0  0  0  0  0  0  0  0
  -12.5334   10.7507    0.8649 H   0  0  0  0  0  0  0  0  0  0  0  0
  -14.6802   10.9759   -0.1823 H   0  0  0  0  0  0  0  0  0  0  0  0
  -15.5180    8.5710   -0.7100 H   0  0  0  0  0  0  0  0  0  0  0  0
  -12.3644   11.3858   -1.0421 H   0  0  0  0  0  0  0  0  0  0  0  0
  -11.8923   10.5120   -2.5388 H   0  0  0  0  0  0  0  0  0  0  0  0
  -13.3391   11.5766   -2.5388 H   0  0  0  0  0  0  0  0  0  0  0  0
  -15.7349    9.5135   -2.0446 H   0  0  0  0  0  0  0  0  0  0  0  0
  -14.7579   10.4885   -3.1942 H   0  0  0  0  0  0  0  0  0  0  0  0
  -14.6217    8.6974   -3.1942 H   0  0  0  0  0  0  0  0  0  0  0  0
  -11.5274    6.0473    1.6410 H   0  0  0  0  0  0  0  0  0  0  0  0
  -12.7026    5.9277    0.2878 H   0  0  0  0  0  0  0  0  0  0  0  0
  -11.2257    4.9052    0.2878 H   0  0  0  0  0  0  0  0  0  0  0  0
   -9.8256    8.0312    1.4028 H   0  0  0  0  0  0  0  0  0  0  0  0
   -9.2369    6.3197    1.0053 H   0  0  0  0  0  0  0  0  0  0  0  0
   -8.5629    8.8914   -0.4513 H   0  0  0  0  0  0  0  0  0  0  0  0
   -7.4693    7.8175    0.5062 H   0  0  0  0  0  0  0  0  0  0  0  0
   -7.6862    5.5298    0.1693 H   0  0  0  0  0  0  0  0  0  0  0  0
   -8.4398    4.8549   -1.3150 H   0  0  0  0  0  0  0  0  0  0  0  0
   -6.7003    5.3030   -1.3150 H   0  0  0  0  0  0  0  0  0  0  0  0
  1  2  1  0
  2  3  1  0
  3  4  1  0
  4  5  1  0
  5  6  1  0
  6  7  1  0
  7  8  1  0
  7  9  1  0
  2 10  1  0
 10 11  1  0
 11 12  1  0
 12 13  1  0
 13 14  1  6
 13 15  1  0
 15 16  1  0
 16 17  1  0
 17 18  2  0
 18 19  1  0
 19 20  1  0
 20 21  1  0
 21 22  1  0
 22 23  1  0
 22 24  1  0
 24 25  1  0
 24 26  1  0
 19 27  1  0
 27 28  1  1
 27 29  1  0
 29 30  1  0
 30 31  1  0
 31 32  1  1
  7  5  1  0
 31 10  1  0
 31 13  1  0
 27 15  1  0
 24 18  1  0
  1 33  1  0
  1 34  1  0
  1 35  1  0
  2 36  1  6
  3 37  1  0
  3 38  1  0
  4 39  1  0
  4 40  1  0
  5 41  1  1
  8 42  1  0
  8 43  1  0
  8 44  1  0
  9 45  1  0
  9 46  1  0
  9 47  1  0
 10 48  1  6
 11 49  1  0
 11 50  1  0
 12 51  1  0
 12 52  1  0
 14 53  1  0
 14 54  1  0
 14 55  1  0
 15 56  1  1
 16 57  1  0
 16 58  1  0
 17 59  1  0
 19 60  1  6
 20 61  1  0
 20 62  1  0
 21 63  1  0
 21 64  1  0
 22 65  1  6
 23 66  1  0
 25 67  1  0
 25 68  1  0
 25 69  1  0
 26 70  1  0
 26 71  1  0
 26 72  1  0
 28 73  1  0
 28 74  1  0
 28 75  1  0
 29 76  1  0
 29 77  1  0
 30 78  1  0
 30 79  1  0
 32 80  1  0
 32 81  1  0
 32 82  1  0
M  END
>  <meeko>  (9) 
{"is_sidechain": [false], "intermolecular_energy": 2.731, "internal_energy": -0.839}

$$$$
EPH_relaxed_0001_pdb2pqr_Repair_416_r2_0001_out
     RDKit          3D

 82 86  0  0  0  0  0  0  0  0999 V2000
    3.0850   17.3420   -1.5520 C   0  0  0  0  0  0  0  0  0  0  0  0
    1.7160   16.7610   -1.9190 C   0  0  2  0  0  0  0  0  0  0  0  0
    0.6020   17.8260   -1.8710 C   0  0  0  0  0  0  0  0  0  0  0  0
    0.8140   18.8900   -0.7900 C   0  0  0  0  0  0  0  0  0  0  0  0
   -0.3820   19.7820   -0.6490 C   0  0  2  0  0  0  0  0  0  0  0  0
   -0.6660   20.1940    0.6940 O   0  0  0  0  0  0  0  0  0  0  0  0
   -1.6560   19.3660    0.0630 C   0  0  0  0  0  0  0  0  0  0  0  0
   -1.7980   18.0100    0.6800 C   0  0  0  0  0  0  0  0  0  0  0  0
   -2.9260   20.0880   -0.2630 C   0  0  0  0  0  0  0  0  0  0  0  0
    1.3740   15.6060   -0.9850 C   0  0  1  0  0  0  0  0  0  0  0  0
   -0.1240   15.5890   -0.5790 C   0  0  0  0  0  0  0  0  0  0  0  0
   -0.5370   14.1000   -0.4540 C   0  0  0  0  0  0  0  0  0  0  0  0
    0.8000   13.3230   -0.4630 C   0  0  1  0  0  0  0  0  0  0  0  0
    1.3360   13.4280    0.9990 C   0  0  0  0  0  0  0  0  0  0  0  0
    0.7330   11.8380   -0.9480 C   0  0  2  0  0  0  0  0  0  0  0  0
   -0.1350   10.9080   -0.0820 C   0  0  0  0  0  0  0  0  0  0  0  0
    0.5830   10.2180    1.0300 C   0  0  0  0  0  0  0  0  0  0  0  0
    1.9200   10.1140    1.1530 C   0  0  0  0  0  0  0  0  0  0  0  0
    2.8540   10.6410    0.0570 C   0  0  1  0  0  0  0  0  0  0  0  0
    3.9390    9.5770   -0.2550 C   0  0  0  0  0  0  0  0  0  0  0  0
    4.6960    9.1310    0.9920 C   0  0  0  0  0  0  0  0  0  0  0  0
    3.7390    8.5590    2.0350 C   0  0  2  0  0  0  0  0  0  0  0  0
    3.1790    7.3430    1.5290 O   0  0  0  0  0  0  0  0  0  0  0  0
    2.5970    9.5390    2.4210 C   0  0  0  0  0  0  0  0  0  0  0  0
    3.1780   10.7190    3.2390 C   0  0  0  0  0  0  0  0  0  0  0  0
    1.6250    8.7890    3.3720 C   0  0  0  0  0  0  0  0  0  0  0  0
    2.1440   11.1910   -1.2550 C   0  0  1  0  0  0  0  0  0  0  0  0
    1.8900   10.0210   -2.2530 C   0  0  0  0  0  0  0  0  0  0  0  0
    3.1160   12.1940   -1.9830 C   0  0  0  0  0  0  0  0  0  0  0  0
    3.0510   13.6690   -1.5430 C   0  0  0  0  0  0  0  0  0  0  0  0
    1.6030   14.1690   -1.5170 C   0  0  2  0  0  0  0  0  0  0  0  0
    1.0450   14.0960   -2.9790 C   0  0  0  0  0  0  0  0  0  0  0  0
    3.1840   17.3840   -0.4573 H   0  0  0  0  0  0  0  0  0  0  0  0
    3.8779   16.7028   -1.9676 H   0  0  0  0  0  0  0  0  0  0  0  0
    3.1762   18.3564   -1.9676 H   0  0  0  0  0  0  0  0  0  0  0  0
    1.7783   16.3950   -2.9545 H   0  0  0  0  0  0  0  0  0  0  0  0
    0.5591   18.3280   -2.8488 H   0  0  0  0  0  0  0  0  0  0  0  0
   -0.3338   17.3018   -1.6271 H   0  0  0  0  0  0  0  0  0  0  0  0
    1.0007   18.3893    0.1715 H   0  0  0  0  0  0  0  0  0  0  0  0
    1.6728   19.5114   -1.0838 H   0  0  0  0  0  0  0  0  0  0  0  0
   -0.2009   20.2218   -1.6408 H   0  0  0  0  0  0  0  0  0  0  0  0
   -1.7883   18.1030    1.7760 H   0  0  0  0  0  0  0  0  0  0  0  0
   -2.7483   17.5587    0.3588 H   0  0  0  0  0  0  0  0  0  0  0  0
   -0.9618   17.3716    0.3588 H   0  0  0  0  0  0  0  0  0  0  0  0
   -3.4335   20.3765    0.6693 H   0  0  0  0  0  0  0  0  0  0  0  0
   -2.6950   20.9898   -0.8490 H   0  0  0  0  0  0  0  0  0  0  0  0
   -3.5828   19.4283   -0.8490 H   0  0  0  0  0  0  0  0  0  0  0  0
    2.0746   15.8195   -0.1643 H   0  0  0  0  0  0  0  0  0  0  0  0
   -0.2612   16.1022    0.3842 H   0  0  0  0  0  0  0  0  0  0  0  0
   -0.7416   16.1086   -1.3264 H   0  0  0  0  0  0  0  0  0  0  0  0
   -1.0814   13.9255    0.4858 H   0  0  0  0  0  0  0  0  0  0  0  0
   -1.2091   13.7837   -1.2653 H   0  0  0  0  0  0  0  0  0  0  0  0
    0.5085   13.2659    1.7054 H   0  0  0  0  0  0  0  0  0  0  0  0
    2.1113   12.6647    1.1610 H   0  0  0  0  0  0  0  0  0  0  0  0
    1.7660   14.4274    1.1610 H   0  0  0  0  0  0  0  0  0  0  0  0
    0.2078   11.9280   -1.9103 H   0  0  0  0  0  0  0  0  0  0  0  0
   -0.9439   11.5100    0.3576 H   0  0  0  0  0  0  0  0  0  0  0  0
   -0.4921   10.1130   -0.7531 H   0  0  0  0  0  0  0  0  0  0  0  0
   -0.0322    9.7552    1.8157 H   0  0  0  0  0  0  0  0  0  0  0  0
    3.3253   11.5454    0.4692 H   0  0  0  0  0  0  0  0  0  0  0  0
    3.4528    8.6990   -0.7053 H   0  0  0  0  0  0  0  0  0  0  0  0
    4.6667   10.0334   -0.9421 H   0  0  0  0  0  0  0  0  0  0  0  0
    5.4274    8.3584    0.7122 H   0  0  0  0  0  0  0  0  0  0  0  0
    5.2060   10.0043    1.4246 H   0  0  0  0  0  0  0  0  0  0  0  0
    4.3198    8.3778    2.9514 H   0  0  0  0  0  0  0  0  0  0  0  0
    3.7780    6.6180    1.7760 H   0  0  0  0  0  0  0  0  0  0  0  0
    3.0736   10.5070    4.3133 H   0  0  0  0  0  0  0  0  0  0  0  0
    4.2423   10.8473    2.9923 H   0  0  0  0  0  0  0  0  0  0  0  0
    2.6307   11.6408    2.9923 H   0  0  0  0  0  0  0  0  0  0  0  0
    1.8983    8.9999    4.4164 H   0  0  0  0  0  0  0  0  0  0  0  0
    0.5954    9.1290    3.1866 H   0  0  0  0  0  0  0  0  0  0  0  0
    1.6928    7.7069    3.1866 H   0  0  0  0  0  0  0  0  0  0  0  0
    1.6894    9.0968   -1.6912 H   0  0  0  0  0  0  0  0  0  0  0  0
    1.0230   10.2608   -2.8861 H   0  0  0  0  0  0  0  0  0  0  0  0
    2.7784    9.8797   -2.8861 H   0  0  0  0  0  0  0  0  0  0  0  0
    4.1444   11.8418   -1.8147 H   0  0  0  0  0  0  0  0  0  0  0  0
    2.7942   12.1935   -3.0349 H   0  0  0  0  0  0  0  0  0  0  0  0
    3.4827   13.7636   -0.5357 H   0  0  0  0  0  0  0  0  0  0  0  0
    3.6192   14.2758   -2.2634 H   0  0  0  0  0  0  0  0  0  0  0  0
   -0.0453   13.9534   -2.9486 H   0  0  0  0  0  0  0  0  0  0  0  0
    1.2777   15.0322   -3.5075 H   0  0  0  0  0  0  0  0  0  0  0  0
    1.5107   13.2511   -3.5075 H   0  0  0  0  0  0  0  0  0  0  0  0
  1  2  1  0
  2  3  1  0
  3  4  1  0
  4  5  1  0
  5  6  1  0
  6  7  1  0
  7  8  1  0
  7  9  1  0
  2 10  1  0
 10 11  1  0
 11 12  1  0
 12 13  1  0
 13 14  1  1
 13 15  1  0
 15 16  1  0
 16 17  1  0
 17 18  2  0
 18 19  1  0
 19 20  1  0
 20 21  1  0
 21 22  1  0
 22 23  1  0
 22 24  1  0
 24 25  1  0
 24 26  1  0
 19 27  1  0
 27 28  1  6
 27 29  1  0
 29 30  1  0
 30 31  1  0
 31 32  1  6
  7  5  1  0
 31 10  1  0
 31 13  1  0
 27 15  1  0
 24 18  1  0
  1 33  1  0
  1 34  1  0
  1 35  1  0
  2 36  1  6
  3 37  1  0
  3 38  1  0
  4 39  1  0
  4 40  1  0
  5 41  1  6
  8 42  1  0
  8 43  1  0
  8 44  1  0
  9 45  1  0
  9 46  1  0
  9 47  1  0
 10 48  1  1
 11 49  1  0
 11 50  1  0
 12 51  1  0
 12 52  1  0
 14 53  1  0
 14 54  1  0
 14 55  1  0
 15 56  1  6
 16 57  1  0
 16 58  1  0
 17 59  1  0
 19 60  1  1
 20 61  1  0
 20 62  1  0
 21 63  1  0
 21 64  1  0
 22 65  1  1
 23 66  1  0
 25 67  1  0
 25 68  1  0
 25 69  1  0
 26 70  1  0
 26 71  1  0
 26 72  1  0
 28 73  1  0
 28 74  1  0
 28 75  1  0
 29 76  1  0
 29 77  1  0
 30 78  1  0
 30 79  1  0
 32 80  1  0
 32 81  1  0
 32 82  1  0
M  END
>  <meeko>  (10) 
{"is_sidechain": [false], "intermolecular_energy": 2.731, "internal_energy": -0.839}

$$$$
EPH_relaxed_0001_pdb2pqr_Repair_416_r2_0001_out
     RDKit          3D

 82 86  0  0  0  0  0  0  0  0999 V2000
    1.2260   13.7090   -5.2510 C   0  0  0  0  0  0  0  0  0  0  0  0
    0.3980   14.3480   -4.1330 C   0  0  2  0  0  0  0  0  0  0  0  0
    0.3810   15.8860   -4.2290 C   0  0  0  0  0  0  0  0  0  0  0  0
    1.4630   16.5670   -3.3860 C   0  0  0  0  0  0  0  0  0  0  0  0
    0.9040   17.6990   -2.5770 C   0  0  2  0  0  0  0  0  0  0  0  0
    1.5770   18.9520   -2.7580 O   0  0  0  0  0  0  0  0  0  0  0  0
    1.6600   18.3710   -1.4460 C   0  0  0  0  0  0  0  0  0  0  0  0
    3.0380   17.9340   -1.0600 C   0  0  0  0  0  0  0  0  0  0  0  0
    0.8790   19.1150   -0.4070 C   0  0  0  0  0  0  0  0  0  0  0  0
    0.9370   13.9160   -2.7740 C   0  0  1  0  0  0  0  0  0  0  0  0
    0.9360   15.0710   -1.7370 C   0  0  0  0  0  0  0  0  0  0  0  0
    0.6230   14.4330   -0.3590 C   0  0  0  0  0  0  0  0  0  0  0  0
    0.7830   12.9120   -0.5880 C   0  0  1  0  0  0  0  0  0  0  0  0
    2.3190   12.6520   -0.5000 C   0  0  0  0  0  0  0  0  0  0  0  0
   -0.0170   11.9800    0.3810 C   0  0  2  0  0  0  0  0  0  0  0  0
    0.3750   12.0910    1.8640 C   0  0  0  0  0  0  0  0  0  0  0  0
    1.4530   11.1600    2.3110 C   0  0  0  0  0  0  0  0  0  0  0  0
    1.8840   10.0800    1.6330 C   0  0  0  0  0  0  0  0  0  0  0  0
    1.2040    9.6460    0.3280 C   0  0  1  0  0  0  0  0  0  0  0  0
    0.9520    8.1160    0.3590 C   0  0  0  0  0  0  0  0  0  0  0  0
    2.2210    7.3200    0.6490 C   0  0  0  0  0  0  0  0  0  0  0  0
    2.8350    7.7390    1.9820 C   0  0  2  0  0  0  0  0  0  0  0  0
    1.9500    7.3550    3.0390 O   0  0  0  0  0  0  0  0  0  0  0  0
    3.1250    9.2630    2.0700 C   0  0  0  0  0  0  0  0  0  0  0  0
    4.3020    9.6250    1.1310 C   0  0  0  0  0  0  0  0  0  0  0  0
    3.6100    9.5740    3.5120 C   0  0  0  0  0  0  0  0  0  0  0  0
   -0.0900   10.4700   -0.0870 C   0  0  1  0  0  0  0  0  0  0  0  0
   -1.3520    9.8550    0.5920 C   0  0  0  0  0  0  0  0  0  0  0  0
   -0.3110   10.3340   -1.6400 C   0  0  0  0  0  0  0  0  0  0  0  0
    0.4110   11.3580   -2.5360 C   0  0  0  0  0  0  0  0  0  0  0  0
    0.1790   12.7870   -2.0340 C   0  0  2  0  0  0  0  0  0  0  0  0
   -1.3560   13.0850   -2.1320 C   0  0  0  0  0  0  0  0  0  0  0  0
    2.0239   13.0933   -4.8103 H   0  0  0  0  0  0  0  0  0  0  0  0
    0.5758   13.0763   -5.8730 H   0  0  0  0  0  0  0  0  0  0  0  0
    1.6733   14.4983   -5.8730 H   0  0  0  0  0  0  0  0  0  0  0  0
   -0.6387   13.9992   -4.2491 H   0  0  0  0  0  0  0  0  0  0  0  0
    0.5304   16.1700   -5.2812 H   0  0  0  0  0  0  0  0  0  0  0  0
   -0.5906   16.2220   -3.8377 H   0  0  0  0  0  0  0  0  0  0  0  0
    1.9036   15.8248   -2.7041 H   0  0  0  0  0  0  0  0  0  0  0  0
    2.2233   16.9752   -4.0681 H   0  0  0  0  0  0  0  0  0  0  0  0
   -0.1090   17.2744   -2.6372 H   0  0  0  0  0  0  0  0  0  0  0  0
    3.1207   17.9078    0.0366 H   0  0  0  0  0  0  0  0  0  0  0  0
    3.2317   16.9303   -1.4664 H   0  0  0  0  0  0  0  0  0  0  0  0
    3.7747   18.6426   -1.4664 H   0  0  0  0  0  0  0  0  0  0  0  0
    1.2087   18.8009    0.5943 H   0  0  0  0  0  0  0  0  0  0  0  0
    1.0468   20.1956   -0.5261 H   0  0  0  0  0  0  0  0  0  0  0  0
   -0.1922   18.8950   -0.5261 H   0  0  0  0  0  0  0  0  0  0  0  0
    1.9346   13.5635   -3.0750 H   0  0  0  0  0  0  0  0  0  0  0  0
    1.9211   15.5599   -1.7133 H   0  0  0  0  0  0  0  0  0  0  0  0
    0.1894   15.8357   -1.9975 H   0  0  0  0  0  0  0  0  0  0  0  0
    1.3323   14.7877    0.4033 H   0  0  0  0  0  0  0  0  0  0  0  0
   -0.3812   14.6968    0.0044 H   0  0  0  0  0  0  0  0  0  0  0  0
    2.6223   12.6007    0.5561 H   0  0  0  0  0  0  0  0  0  0  0  0
    2.5589   11.7005   -0.9970 H   0  0  0  0  0  0  0  0  0  0  0  0
    2.8587   13.4716   -0.9970 H   0  0  0  0  0  0  0  0  0  0  0  0
   -1.0371   12.3855    0.3113 H   0  0  0  0  0  0  0  0  0  0  0  0
    0.7166   13.1201    2.0490 H   0  0  0  0  0  0  0  0  0  0  0  0
   -0.5223   11.8144    2.4370 H   0  0  0  0  0  0  0  0  0  0  0  0
    1.9358   11.3747    3.2758 H   0  0  0  0  0  0  0  0  0  0  0  0
    1.9103    9.8911   -0.4789 H   0  0  0  0  0  0  0  0  0  0  0  0
    0.2113    7.8964    1.1420 H   0  0  0  0  0  0  0  0  0  0  0  0
    0.5901    7.8169   -0.6358 H   0  0  0  0  0  0  0  0  0  0  0  0
    1.9732    6.2490    0.6876 H   0  0  0  0  0  0  0  0  0  0  0  0
    2.9499    7.5176   -0.1508 H   0  0  0  0  0  0  0  0  0  0  0  0
    3.8056    7.2294    2.0729 H   0  0  0  0  0  0  0  0  0  0  0  0
    2.4010    7.5380    3.8810 H   0  0  0  0  0  0  0  0  0  0  0  0
    5.1817    9.8956    1.7334 H   0  0  0  0  0  0  0  0  0  0  0  0
    4.5442    8.7598    0.4963 H   0  0  0  0  0  0  0  0  0  0  0  0
    4.0161   10.4767    0.4963 H   0  0  0  0  0  0  0  0  0  0  0  0
    2.9138    9.1276    4.2373 H   0  0  0  0  0  0  0  0  0  0  0  0
    4.6147    9.1513    3.6601 H   0  0  0  0  0  0  0  0  0  0  0  0
    3.6451   10.6634    3.6601 H   0  0  0  0  0  0  0  0  0  0  0  0
   -1.2428    9.9082    1.6853 H   0  0  0  0  0  0  0  0  0  0  0  0
   -2.2451   10.4189    0.2848 H   0  0  0  0  0  0  0  0  0  0  0  0
   -1.4582    8.8041    0.2848 H   0  0  0  0  0  0  0  0  0  0  0  0
    0.0302    9.3317   -1.9383 H   0  0  0  0  0  0  0  0  0  0  0  0
   -1.3838   10.5208   -1.7958 H   0  0  0  0  0  0  0  0  0  0  0  0
    1.4901   11.1448   -2.5284 H   0  0  0  0  0  0  0  0  0  0  0  0
    0.0090   11.2755   -3.5566 H   0  0  0  0  0  0  0  0  0  0  0  0
   -1.7789   13.1671   -1.1199 H   0  0  0  0  0  0  0  0  0  0  0  0
   -1.5122   14.0302   -2.6725 H   0  0  0  0  0  0  0  0  0  0  0  0
   -1.8546   12.2669   -2.6725 H   0  0  0  0  0  0  0  0  0  0  0  0
  1  2  1  0
  2  3  1  0
  3  4  1  0
  4  5  1  0
  5  6  1  0
  6  7  1  0
  7  8  1  0
  7  9  1  0
  2 10  1  0
 10 11  1  0
 11 12  1  0
 12 13  1  0
 13 14  1  6
 13 15  1  0
 15 16  1  0
 16 17  1  0
 17 18  2  0
 18 19  1  0
 19 20  1  0
 20 21  1  0
 21 22  1  0
 22 23  1  0
 22 24  1  0
 24 25  1  0
 24 26  1  0
 19 27  1  0
 27 28  1  1
 27 29  1  0
 29 30  1  0
 30 31  1  0
 31 32  1  1
  7  5  1  0
 31 10  1  0
 31 13  1  0
 27 15  1  0
 24 18  1  0
  1 33  1  0
  1 34  1  0
  1 35  1  0
  2 36  1  6
  3 37  1  0
  3 38  1  0
  4 39  1  0
  4 40  1  0
  5 41  1  1
  8 42  1  0
  8 43  1  0
  8 44  1  0
  9 45  1  0
  9 46  1  0
  9 47  1  0
 10 48  1  6
 11 49  1  0
 11 50  1  0
 12 51  1  0
 12 52  1  0
 14 53  1  0
 14 54  1  0
 14 55  1  0
 15 56  1  1
 16 57  1  0
 16 58  1  0
 17 59  1  0
 19 60  1  6
 20 61  1  0
 20 62  1  0
 21 63  1  0
 21 64  1  0
 22 65  1  1
 23 66  1  0
 25 67  1  0
 25 68  1  0
 25 69  1  0
 26 70  1  0
 26 71  1  0
 26 72  1  0
 28 73  1  0
 28 74  1  0
 28 75  1  0
 29 76  1  0
 29 77  1  0
 30 78  1  0
 30 79  1  0
 32 80  1  0
 32 81  1  0
 32 82  1  0
M  END
>  <meeko>  (11) 
{"is_sidechain": [false], "intermolecular_energy": 2.731, "internal_energy": -0.839}

$$$$
EPH_relaxed_0001_pdb2pqr_Repair_416_r2_0001_out
     RDKit          3D

 82 86  0  0  0  0  0  0  0  0999 V2000
    2.4000   12.3950   -5.1550 C   0  0  0  0  0  0  0  0  0  0  0  0
    1.0270   13.0380   -4.9390 C   0  0  2  0  0  0  0  0  0  0  0  0
    0.9760   14.4880   -5.4600 C   0  0  0  0  0  0  0  0  0  0  0  0
    0.4440   15.4920   -4.4350 C   0  0  0  0  0  0  0  0  0  0  0  0
    1.5470   16.0690   -3.5990 C   0  0  2  0  0  0  0  0  0  0  0  0
    1.3640   15.9260   -2.1850 O   0  0  0  0  0  0  0  0  0  0  0  0
    1.3680   17.2710   -2.6910 C   0  0  0  0  0  0  0  0  0  0  0  0
    0.0500   17.9700   -2.5730 C   0  0  0  0  0  0  0  0  0  0  0  0
    2.5790   18.0590   -2.3000 C   0  0  0  0  0  0  0  0  0  0  0  0
    0.6640   13.0030   -3.4590 C   0  0  1  0  0  0  0  0  0  0  0  0
   -0.8120   13.4060   -3.1960 C   0  0  0  0  0  0  0  0  0  0  0  0
   -1.3020   12.5500   -2.0000 C   0  0  0  0  0  0  0  0  0  0  0  0
   -0.0140   11.9350   -1.4060 C   0  0  1  0  0  0  0  0  0  0  0  0
    0.5950   13.0610   -0.5140 C   0  0  0  0  0  0  0  0  0  0  0  0
   -0.1880   10.6000   -0.6110 C   0  0  2  0  0  0  0  0  0  0  0  0
   -1.0660   10.7000    0.6480 C   0  0  0  0  0  0  0  0  0  0  0  0
   -0.3370   11.0280    1.9090 C   0  0  0  0  0  0  0  0  0  0  0  0
    0.9960   10.9540    2.0840 C   0  0  0  0  0  0  0  0  0  0  0  0
    1.9060   10.4110    0.9750 C   0  0  1  0  0  0  0  0  0  0  0  0
    2.9130    9.3980    1.5810 C   0  0  0  0  0  0  0  0  0  0  0  0
    3.7010    9.9840    2.7490 C   0  0  0  0  0  0  0  0  0  0  0  0
    2.7630   10.4600    3.8560 C   0  0  2  0  0  0  0  0  0  0  0  0
    2.1120    9.3220    4.4290 O   0  0  0  0  0  0  0  0  0  0  0  0
    1.6980   11.4770    3.3610 C   0  0  0  0  0  0  0  0  0  0  0  0
    2.3830   12.8240    3.0210 C   0  0  0  0  0  0  0  0  0  0  0  0
    0.7310   11.7680    4.5400 C   0  0  0  0  0  0  0  0  0  0  0  0
    1.1680    9.8410   -0.3120 C   0  0  1  0  0  0  0  0  0  0  0  0
    0.8010    8.3410   -0.0950 C   0  0  0  0  0  0  0  0  0  0  0  0
    2.1590    9.8830   -1.5340 C   0  0  0  0  0  0  0  0  0  0  0  0
    2.1990   11.1880   -2.3520 C   0  0  0  0  0  0  0  0  0  0  0  0
    0.7860   11.6430   -2.7280 C   0  0  2  0  0  0  0  0  0  0  0  0
    0.1560   10.5390   -3.6450 C   0  0  0  0  0  0  0  0  0  0  0  0
    2.8612   12.1790   -4.1800 H   0  0  0  0  0  0  0  0  0  0  0  0
    2.2816   11.4587   -5.7201 H   0  0  0  0  0  0  0  0  0  0  0  0
    3.0434   13.0854   -5.7201 H   0  0  0  0  0  0  0  0  0  0  0  0
    0.2941   12.4546   -5.5156 H   0  0  0  0  0  0  0  0  0  0  0  0
    1.9943   14.7902   -5.7459 H   0  0  0  0  0  0  0  0  0  0  0  0
    0.2800   14.4991   -6.3117 H   0  0  0  0  0  0  0  0  0  0  0  0
   -0.0645   16.3093   -4.9674 H   0  0  0  0  0  0  0  0  0  0  0  0
   -0.2518   14.9635   -3.7668 H   0  0  0  0  0  0  0  0  0  0  0  0
    2.2894   15.8362   -4.3766 H   0  0  0  0  0  0  0  0  0  0  0  0
   -0.2007   18.1029   -1.5102 H   0  0  0  0  0  0  0  0  0  0  0  0
    0.1118   18.9539   -3.0610 H   0  0  0  0  0  0  0  0  0  0  0  0
   -0.7299   17.3670   -3.0610 H   0  0  0  0  0  0  0  0  0  0  0  0
    2.6486   18.1043   -1.2031 H   0  0  0  0  0  0  0  0  0  0  0  0
    3.4790   17.5731   -2.7048 H   0  0  0  0  0  0  0  0  0  0  0  0
    2.4993   19.0787   -2.7048 H   0  0  0  0  0  0  0  0  0  0  0  0
    1.4136   13.7073   -3.0692 H   0  0  0  0  0  0  0  0  0  0  0  0
   -0.8742   14.4757   -2.9471 H   0  0  0  0  0  0  0  0  0  0  0  0
   -1.4337   13.2332   -4.0868 H   0  0  0  0  0  0  0  0  0  0  0  0
   -1.8111   13.1792   -1.2551 H   0  0  0  0  0  0  0  0  0  0  0  0
   -2.0276   11.7822   -2.3065 H   0  0  0  0  0  0  0  0  0  0  0  0
    0.4561   12.8041    0.5465 H   0  0  0  0  0  0  0  0  0  0  0  0
    1.6691   13.1591   -0.7298 H   0  0  0  0  0  0  0  0  0  0  0  0
    0.0891   14.0136   -0.7298 H   0  0  0  0  0  0  0  0  0  0  0  0
   -0.7524    9.9761   -1.3197 H   0  0  0  0  0  0  0  0  0  0  0  0
   -1.8183   11.4840    0.4765 H   0  0  0  0  0  0  0  0  0  0  0  0
   -1.4986    9.6998    0.7978 H   0  0  0  0  0  0  0  0  0  0  0  0
   -0.9399   11.3581    2.7678 H   0  0  0  0  0  0  0  0  0  0  0  0
    2.4465   11.2807    0.5732 H   0  0  0  0  0  0  0  0  0  0  0  0
    2.3570    8.5181    1.9368 H   0  0  0  0  0  0  0  0  0  0  0  0
    3.6327    9.1307    0.7932 H   0  0  0  0  0  0  0  0  0  0  0  0
    4.3727    9.2124    3.1533 H   0  0  0  0  0  0  0  0  0  0  0  0
    4.2800   10.8455    2.3849 H   0  0  0  0  0  0  0  0  0  0  0  0
    3.3748   10.9860    4.6036 H   0  0  0  0  0  0  0  0  0  0  0  0
    1.9070    8.7050    3.7060 H   0  0  0  0  0  0  0  0  0  0  0  0
    2.6483   13.3458    3.9523 H   0  0  0  0  0  0  0  0  0  0  0  0
    3.2941   12.6343    2.4346 H   0  0  0  0  0  0  0  0  0  0  0  0
    1.6930   13.4485    2.4346 H   0  0  0  0  0  0  0  0  0  0  0  0
    1.2568   11.6098    5.4931 H   0  0  0  0  0  0  0  0  0  0  0  0
    0.3843   12.8103    4.4812 H   0  0  0  0  0  0  0  0  0  0  0  0
   -0.1333   11.0902    4.4812 H   0  0  0  0  0  0  0  0  0  0  0  0
    0.7490    8.1285    0.9830 H   0  0  0  0  0  0  0  0  0  0  0  0
   -0.1749    8.1317   -0.5575 H   0  0  0  0  0  0  0  0  0  0  0  0
    1.5700    7.7048   -0.5575 H   0  0  0  0  0  0  0  0  0  0  0  0
    3.1725    9.7019   -1.1468 H   0  0  0  0  0  0  0  0  0  0  0  0
    1.7881    9.1176   -2.2315 H   0  0  0  0  0  0  0  0  0  0  0  0
    2.6824   11.9736   -1.7527 H   0  0  0  0  0  0  0  0  0  0  0  0
    2.7661   11.0050   -3.2766 H   0  0  0  0  0  0  0  0  0  0  0  0
   -0.2921    9.7537   -3.0185 H   0  0  0  0  0  0  0  0  0  0  0  0
   -0.6211   10.9894   -4.2801 H   0  0  0  0  0  0  0  0  0  0  0  0
    0.9391   10.0991   -4.2801 H   0  0  0  0  0  0  0  0  0  0  0  0
  1  2  1  0
  2  3  1  0
  3  4  1  0
  4  5  1  0
  5  6  1  0
  6  7  1  0
  7  8  1  0
  7  9  1  0
  2 10  1  0
 10 11  1  0
 11 12  1  0
 12 13  1  0
 13 14  1  1
 13 15  1  0
 15 16  1  0
 16 17  1  0
 17 18  2  0
 18 19  1  0
 19 20  1  0
 20 21  1  0
 21 22  1  0
 22 23  1  0
 22 24  1  0
 24 25  1  0
 24 26  1  0
 19 27  1  0
 27 28  1  1
 27 29  1  0
 29 30  1  0
 30 31  1  0
 31 32  1  6
  7  5  1  0
 31 10  1  0
 31 13  1  0
 27 15  1  0
 24 18  1  0
  1 33  1  0
  1 34  1  0
  1 35  1  0
  2 36  1  6
  3 37  1  0
  3 38  1  0
  4 39  1  0
  4 40  1  0
  5 41  1  6
  8 42  1  0
  8 43  1  0
  8 44  1  0
  9 45  1  0
  9 46  1  0
  9 47  1  0
 10 48  1  1
 11 49  1  0
 11 50  1  0
 12 51  1  0
 12 52  1  0
 14 53  1  0
 14 54  1  0
 14 55  1  0
 15 56  1  6
 16 57  1  0
 16 58  1  0
 17 59  1  0
 19 60  1  6
 20 61  1  0
 20 62  1  0
 21 63  1  0
 21 64  1  0
 22 65  1  1
 23 66  1  0
 25 67  1  0
 25 68  1  0
 25 69  1  0
 26 70  1  0
 26 71  1  0
 26 72  1  0
 28 73  1  0
 28 74  1  0
 28 75  1  0
 29 76  1  0
 29 77  1  0
 30 78  1  0
 30 79  1  0
 32 80  1  0
 32 81  1  0
 32 82  1  0
M  END
>  <meeko>  (12) 
{"is_sidechain": [false], "intermolecular_energy": 2.731, "internal_energy": -0.839}

$$$$
EPH_relaxed_0001_pdb2pqr_Repair_416_r2_0001_out
     RDKit          3D

 82 86  0  0  0  0  0  0  0  0999 V2000
   -0.3010   15.1140   -4.3600 C   0  0  0  0  0  0  0  0  0  0  0  0
    1.0180   14.3360   -4.4070 C   0  0  2  0  0  0  0  0  0  0  0  0
    0.9220   13.0840   -5.3010 C   0  0  0  0  0  0  0  0  0  0  0  0
    1.7820   11.9140   -4.8160 C   0  0  0  0  0  0  0  0  0  0  0  0
    3.2080   12.0550   -5.2540 C   0  0  2  0  0  0  0  0  0  0  0  0
    3.8220   10.8380   -5.6980 O   0  0  0  0  0  0  0  0  0  0  0  0
    4.3770   11.4320   -4.5130 C   0  0  0  0  0  0  0  0  0  0  0  0
    4.1710   10.6210   -3.2720 C   0  0  0  0  0  0  0  0  0  0  0  0
    5.7420   12.0120   -4.7130 C   0  0  0  0  0  0  0  0  0  0  0  0
    1.4370   13.9380   -2.9960 C   0  0  1  0  0  0  0  0  0  0  0  0
    1.4130   15.1330   -2.0060 C   0  0  0  0  0  0  0  0  0  0  0  0
    0.9710   14.5670   -0.6320 C   0  0  0  0  0  0  0  0  0  0  0  0
    1.0770   13.0320   -0.7910 C   0  0  1  0  0  0  0  0  0  0  0  0
    2.5890   12.7090   -0.5780 C   0  0  0  0  0  0  0  0  0  0  0  0
    0.1670   12.1760    0.1500 C   0  0  2  0  0  0  0  0  0  0  0  0
    0.4540   12.3300    1.6530 C   0  0  0  0  0  0  0  0  0  0  0  0
    1.4530   11.3730    2.2130 C   0  0  0  0  0  0  0  0  0  0  0  0
    1.8820   10.2480    1.6110 C   0  0  0  0  0  0  0  0  0  0  0  0
    1.2790    9.7910    0.2760 C   0  0  1  0  0  0  0  0  0  0  0  0
    0.9550    8.2760    0.3460 C   0  0  0  0  0  0  0  0  0  0  0  0
    2.1610    7.4380    0.7600 C   0  0  0  0  0  0  0  0  0  0  0  0
    2.6960    7.8840    2.1180 C   0  0  2  0  0  0  0  0  0  0  0  0
    1.7190    7.5830    3.1190 O   0  0  0  0  0  0  0  0  0  0  0  0
    3.0480    9.3970    2.1700 C   0  0  0  0  0  0  0  0  0  0  0  0
    4.3060    9.6690    1.3080 C   0  0  0  0  0  0  0  0  0  0  0  0
    3.4400    9.7460    3.6320 C   0  0  0  0  0  0  0  0  0  0  0  0
    0.0580   10.6520   -0.2650 C   0  0  1  0  0  0  0  0  0  0  0  0
   -1.2770   10.1210    0.3410 C   0  0  0  0  0  0  0  0  0  0  0  0
   -0.0550   10.4630   -1.8230 C   0  0  0  0  0  0  0  0  0  0  0  0
    0.7770   11.4170   -2.7020 C   0  0  0  0  0  0  0  0  0  0  0  0
    0.5750   12.8730   -2.2720 C   0  0  2  0  0  0  0  0  0  0  0  0
   -0.9340   13.2330   -2.4950 C   0  0  0  0  0  0  0  0  0  0  0  0
   -0.5893   15.2840   -3.3121 H   0  0  0  0  0  0  0  0  0  0  0  0
   -0.1741   16.0819   -4.8671 H   0  0  0  0  0  0  0  0  0  0  0  0
   -1.0867   14.5347   -4.8671 H   0  0  0  0  0  0  0  0  0  0  0  0
    1.7776   14.9985   -4.8476 H   0  0  0  0  0  0  0  0  0  0  0  0
   -0.1276   12.7559   -5.3275 H   0  0  0  0  0  0  0  0  0  0  0  0
    1.2979   13.3690   -6.2947 H   0  0  0  0  0  0  0  0  0  0  0  0
    1.7485   11.8786   -3.7171 H   0  0  0  0  0  0  0  0  0  0  0  0
    1.3792   10.9883   -5.2529 H   0  0  0  0  0  0  0  0  0  0  0  0
    3.0213   13.0789   -5.6102 H   0  0  0  0  0  0  0  0  0  0  0  0
    4.3322   11.2557   -2.3882 H   0  0  0  0  0  0  0  0  0  0  0  0
    3.1442   10.2267   -3.2579 H   0  0  0  0  0  0  0  0  0  0  0  0
    4.8852    9.7845   -3.2579 H   0  0  0  0  0  0  0  0  0  0  0  0
    6.2040   12.2083   -3.7342 H   0  0  0  0  0  0  0  0  0  0  0  0
    6.3639   11.3004   -5.2759 H   0  0  0  0  0  0  0  0  0  0  0  0
    5.6614   12.9536   -5.2759 H   0  0  0  0  0  0  0  0  0  0  0  0
    2.4370   13.5319   -3.2083 H   0  0  0  0  0  0  0  0  0  0  0  0
    2.4151   15.5796   -1.9270 H   0  0  0  0  0  0  0  0  0  0  0  0
    0.7229   15.9173   -2.3504 H   0  0  0  0  0  0  0  0  0  0  0  0
    1.6384   14.9218    0.1672 H   0  0  0  0  0  0  0  0  0  0  0  0
   -0.0436   14.8889   -0.3547 H   0  0  0  0  0  0  0  0  0  0  0  0
    2.8058   12.6627    0.4994 H   0  0  0  0  0  0  0  0  0  0  0  0
    2.8258   11.7400   -1.0417 H   0  0  0  0  0  0  0  0  0  0  0  0
    3.2011   13.4967   -1.0417 H   0  0  0  0  0  0  0  0  0  0  0  0
   -0.8251   12.6229   -0.0110 H   0  0  0  0  0  0  0  0  0  0  0  0
    0.8274   13.3503    1.8249 H   0  0  0  0  0  0  0  0  0  0  0  0
   -0.4944   12.1152    2.1673 H   0  0  0  0  0  0  0  0  0  0  0  0
    1.8746   11.6068    3.2017 H   0  0  0  0  0  0  0  0  0  0  0  0
    2.0525    9.9726   -0.4847 H   0  0  0  0  0  0  0  0  0  0  0  0
    0.1497    8.1212    1.0792 H   0  0  0  0  0  0  0  0  0  0  0  0
    0.6535    7.9523   -0.6611 H   0  0  0  0  0  0  0  0  0  0  0  0
    1.8612    6.3814    0.8207 H   0  0  0  0  0  0  0  0  0  0  0  0
    2.9544    7.5706    0.0097 H   0  0  0  0  0  0  0  0  0  0  0  0
    3.6330    7.3373    2.3000 H   0  0  0  0  0  0  0  0  0  0  0  0
    2.1930    7.4170    3.9520 H   0  0  0  0  0  0  0  0  0  0  0  0
    5.1678    9.8553    1.9657 H   0  0  0  0  0  0  0  0  0  0  0  0
    4.5115    8.7945    0.6731 H   0  0  0  0  0  0  0  0  0  0  0  0
    4.1319   10.5503    0.6731 H   0  0  0  0  0  0  0  0  0  0  0  0
    2.8035    9.1793    4.3275 H   0  0  0  0  0  0  0  0  0  0  0  0
    4.4943    9.4821    3.8019 H   0  0  0  0  0  0  0  0  0  0  0  0
    3.2998   10.8237    3.8019 H   0  0  0  0  0  0  0  0  0  0  0  0
   -1.2164   10.1451    1.4391 H   0  0  0  0  0  0  0  0  0  0  0  0
   -2.1101   10.7562    0.0057 H   0  0  0  0  0  0  0  0  0  0  0  0
   -1.4462    9.0871    0.0057 H   0  0  0  0  0  0  0  0  0  0  0  0
    0.2600    9.4354   -2.0570 H   0  0  0  0  0  0  0  0  0  0  0  0
   -1.1037   10.6907   -2.0647 H   0  0  0  0  0  0  0  0  0  0  0  0
    1.8418   11.1578   -2.6067 H   0  0  0  0  0  0  0  0  0  0  0  0
    0.4473   11.3101   -3.7460 H   0  0  0  0  0  0  0  0  0  0  0  0
   -1.4306   13.3515   -1.5206 H   0  0  0  0  0  0  0  0  0  0  0  0
   -1.0068   14.1737   -3.0604 H   0  0  0  0  0  0  0  0  0  0  0  0
   -1.4237   12.4265   -3.0604 H   0  0  0  0  0  0  0  0  0  0  0  0
  1  2  1  0
  2  3  1  0
  3  4  1  0
  4  5  1  0
  5  6  1  0
  6  7  1  0
  7  8  1  0
  7  9  1  0
  2 10  1  0
 10 11  1  0
 11 12  1  0
 12 13  1  0
 13 14  1  6
 13 15  1  0
 15 16  1  0
 16 17  1  0
 17 18  2  0
 18 19  1  0
 19 20  1  0
 20 21  1  0
 21 22  1  0
 22 23  1  0
 22 24  1  0
 24 25  1  0
 24 26  1  0
 19 27  1  0
 27 28  1  1
 27 29  1  0
 29 30  1  0
 30 31  1  0
 31 32  1  1
  7  5  1  0
 31 10  1  0
 31 13  1  0
 27 15  1  0
 24 18  1  0
  1 33  1  0
  1 34  1  0
  1 35  1  0
  2 36  1  6
  3 37  1  0
  3 38  1  0
  4 39  1  0
  4 40  1  0
  5 41  1  6
  8 42  1  0
  8 43  1  0
  8 44  1  0
  9 45  1  0
  9 46  1  0
  9 47  1  0
 10 48  1  6
 11 49  1  0
 11 50  1  0
 12 51  1  0
 12 52  1  0
 14 53  1  0
 14 54  1  0
 14 55  1  0
 15 56  1  1
 16 57  1  0
 16 58  1  0
 17 59  1  0
 19 60  1  6
 20 61  1  0
 20 62  1  0
 21 63  1  0
 21 64  1  0
 22 65  1  1
 23 66  1  0
 25 67  1  0
 25 68  1  0
 25 69  1  0
 26 70  1  0
 26 71  1  0
 26 72  1  0
 28 73  1  0
 28 74  1  0
 28 75  1  0
 29 76  1  0
 29 77  1  0
 30 78  1  0
 30 79  1  0
 32 80  1  0
 32 81  1  0
 32 82  1  0
M  END
>  <meeko>  (13) 
{"is_sidechain": [false], "intermolecular_energy": 2.731, "internal_energy": -0.839}

$$$$
EPH_relaxed_0001_pdb2pqr_Repair_416_r2_0001_out
     RDKit          3D

 82 86  0  0  0  0  0  0  0  0999 V2000
    0.4470    8.8520   -2.4880 C   0  0  0  0  0  0  0  0  0  0  0  0
    1.2010   10.0090   -3.1480 C   0  0  2  0  0  0  0  0  0  0  0  0
    2.6960   10.0190   -2.7690 C   0  0  0  0  0  0  0  0  0  0  0  0
    3.6020   10.6060   -3.8540 C   0  0  0  0  0  0  0  0  0  0  0  0
    4.9910   10.8480   -3.3450 C   0  0  2  0  0  0  0  0  0  0  0  0
    5.5920   12.0680   -3.8000 O   0  0  0  0  0  0  0  0  0  0  0  0
    6.2200   10.8510   -4.2360 C   0  0  0  0  0  0  0  0  0  0  0  0
    6.1160   10.6070   -5.7080 C   0  0  0  0  0  0  0  0  0  0  0  0
    7.5570   10.6060   -3.6100 C   0  0  0  0  0  0  0  0  0  0  0  0
    0.5570   11.3360   -2.7630 C   0  0  1  0  0  0  0  0  0  0  0  0
   -0.8170   11.1530   -2.0650 C   0  0  0  0  0  0  0  0  0  0  0  0
   -0.9350   12.2790   -1.0060 C   0  0  0  0  0  0  0  0  0  0  0  0
    0.2100   13.2600   -1.3520 C   0  0  1  0  0  0  0  0  0  0  0  0
   -0.3470   14.1300   -2.5220 C   0  0  0  0  0  0  0  0  0  0  0  0
    0.7390   14.1450   -0.1770 C   0  0  2  0  0  0  0  0  0  0  0  0
   -0.2940   15.1100    0.4310 C   0  0  0  0  0  0  0  0  0  0  0  0
   -0.3460   16.4650   -0.1940 C   0  0  0  0  0  0  0  0  0  0  0  0
    0.5920   16.9880   -1.0060 C   0  0  0  0  0  0  0  0  0  0  0  0
    1.8960   16.2320   -1.2930 C   0  0  1  0  0  0  0  0  0  0  0  0
    3.0980   17.2030   -1.1550 C   0  0  0  0  0  0  0  0  0  0  0  0
    2.9450   18.4510   -2.0190 C   0  0  0  0  0  0  0  0  0  0  0  0
    1.6660   19.2060   -1.6640 C   0  0  2  0  0  0  0  0  0  0  0  0
    1.7930   19.7300   -0.3380 O   0  0  0  0  0  0  0  0  0  0  0  0
    0.3890   18.3270   -1.7580 C   0  0  0  0  0  0  0  0  0  0  0  0
    0.0840   18.0090   -3.2430 C   0  0  0  0  0  0  0  0  0  0  0  0
   -0.8090   19.1670   -1.2390 C   0  0  0  0  0  0  0  0  0  0  0  0
    2.1060   14.8810   -0.4840 C   0  0  1  0  0  0  0  0  0  0  0  0
    2.7690   15.1840    0.8940 C   0  0  0  0  0  0  0  0  0  0  0  0
    3.1160   13.9630   -1.2700 C   0  0  0  0  0  0  0  0  0  0  0  0
    2.5180   13.0250   -2.3350 C   0  0  0  0  0  0  0  0  0  0  0  0
    1.3300   12.2400   -1.7690 C   0  0  2  0  0  0  0  0  0  0  0  0
    1.8640   11.3390   -0.6040 C   0  0  0  0  0  0  0  0  0  0  0  0
    0.5105    8.9495   -1.3942 H   0  0  0  0  0  0  0  0  0  0  0  0
   -0.6082    8.8779   -2.7978 H   0  0  0  0  0  0  0  0  0  0  0  0
    0.8968    7.8971   -2.7978 H   0  0  0  0  0  0  0  0  0  0  0  0
    1.1374    9.8672   -4.2370 H   0  0  0  0  0  0  0  0  0  0  0  0
    2.8182   10.6167   -1.8537 H   0  0  0  0  0  0  0  0  0  0  0  0
    2.9992    8.9709   -2.6295 H   0  0  0  0  0  0  0  0  0  0  0  0
    3.6492    9.9024   -4.6982 H   0  0  0  0  0  0  0  0  0  0  0  0
    3.1790   11.5714   -4.1688 H   0  0  0  0  0  0  0  0  0  0  0  0
    4.7626   10.3253   -2.4045 H   0  0  0  0  0  0  0  0  0  0  0  0
    5.6903    9.6083   -5.8849 H   0  0  0  0  0  0  0  0  0  0  0  0
    5.4644   11.3688   -6.1608 H   0  0  0  0  0  0  0  0  0  0  0  0
    7.1168   10.6645   -6.1608 H   0  0  0  0  0  0  0  0  0  0  0  0
    7.4579   10.6242   -2.5146 H   0  0  0  0  0  0  0  0  0  0  0  0
    7.9361    9.6234   -3.9276 H   0  0  0  0  0  0  0  0  0  0  0  0
    8.2598   11.3903   -3.9276 H   0  0  0  0  0  0  0  0  0  0  0  0
    0.5147   11.8143   -3.7527 H   0  0  0  0  0  0  0  0  0  0  0  0
   -1.6300   11.2387   -2.8010 H   0  0  0  0  0  0  0  0  0  0  0  0
   -0.8924   10.1608   -1.5962 H   0  0  0  0  0  0  0  0  0  0  0  0
   -1.9114   12.7802   -1.0790 H   0  0  0  0  0  0  0  0  0  0  0  0
   -0.8596   11.8950    0.0220 H   0  0  0  0  0  0  0  0  0  0  0  0
   -0.8970   14.9891   -2.1104 H   0  0  0  0  0  0  0  0  0  0  0  0
    0.4881   14.4913   -3.1401 H   0  0  0  0  0  0  0  0  0  0  0  0
   -1.0247   13.5227   -3.1401 H   0  0  0  0  0  0  0  0  0  0  0  0
    0.9460   13.3987    0.6041 H   0  0  0  0  0  0  0  0  0  0  0  0
   -1.2885   14.6509    0.3303 H   0  0  0  0  0  0  0  0  0  0  0  0
    0.0147   15.2680    1.4749 H   0  0  0  0  0  0  0  0  0  0  0  0
   -1.2247   17.0885    0.0276 H   0  0  0  0  0  0  0  0  0  0  0  0
    1.8204   15.8773   -2.3315 H   0  0  0  0  0  0  0  0  0  0  0  0
    3.1831   17.5112   -0.1025 H   0  0  0  0  0  0  0  0  0  0  0  0
    3.9981   16.6700   -1.4952 H   0  0  0  0  0  0  0  0  0  0  0  0
    3.8099   19.1107   -1.8552 H   0  0  0  0  0  0  0  0  0  0  0  0
    2.8905   18.1437   -3.0738 H   0  0  0  0  0  0  0  0  0  0  0  0
    1.5449   20.0137   -2.4008 H   0  0  0  0  0  0  0  0  0  0  0  0
    2.0670   20.6600   -0.4140 H   0  0  0  0  0  0  0  0  0  0  0  0
   -0.6764   17.2162   -3.2995 H   0  0  0  0  0  0  0  0  0  0  0  0
   -0.2923   18.9142   -3.7420 H   0  0  0  0  0  0  0  0  0  0  0  0
    1.0041   17.6708   -3.7420 H   0  0  0  0  0  0  0  0  0  0  0  0
   -0.8081   19.1663   -0.1390 H   0  0  0  0  0  0  0  0  0  0  0  0
   -0.7183   20.2003   -1.6051 H   0  0  0  0  0  0  0  0  0  0  0  0
   -1.7495   18.7295   -1.6051 H   0  0  0  0  0  0  0  0  0  0  0  0
    2.0912   14.8742    1.7031 H   0  0  0  0  0  0  0  0  0  0  0  0
    3.7152   14.6289    0.9756 H   0  0  0  0  0  0  0  0  0  0  0  0
    2.9685   16.2627    0.9756 H   0  0  0  0  0  0  0  0  0  0  0  0
    3.8398   14.6202   -1.7742 H   0  0  0  0  0  0  0  0  0  0  0  0
    3.5497   13.2962   -0.5103 H   0  0  0  0  0  0  0  0  0  0  0  0
    2.1777   13.6244   -3.1923 H   0  0  0  0  0  0  0  0  0  0  0  0
    3.2934   12.3105   -2.6485 H   0  0  0  0  0  0  0  0  0  0  0  0
    1.5958   11.7916    0.3620 H   0  0  0  0  0  0  0  0  0  0  0  0
    1.4130   10.3385   -0.6780 H   0  0  0  0  0  0  0  0  0  0  0  0
    2.9582   11.2543   -0.6780 H   0  0  0  0  0  0  0  0  0  0  0  0
  1  2  1  0
  2  3  1  0
  3  4  1  0
  4  5  1  0
  5  6  1  0
  6  7  1  0
  7  8  1  0
  7  9  1  0
  2 10  1  0
 10 11  1  0
 11 12  1  0
 12 13  1  0
 13 14  1  6
 13 15  1  0
 15 16  1  0
 16 17  1  0
 17 18  2  0
 18 19  1  0
 19 20  1  0
 20 21  1  0
 21 22  1  0
 22 23  1  0
 22 24  1  0
 24 25  1  0
 24 26  1  0
 19 27  1  0
 27 28  1  1
 27 29  1  0
 29 30  1  0
 30 31  1  0
 31 32  1  1
  7  5  1  0
 31 10  1  0
 31 13  1  0
 27 15  1  0
 24 18  1  0
  1 33  1  0
  1 34  1  0
  1 35  1  0
  2 36  1  6
  3 37  1  0
  3 38  1  0
  4 39  1  0
  4 40  1  0
  5 41  1  1
  8 42  1  0
  8 43  1  0
  8 44  1  0
  9 45  1  0
  9 46  1  0
  9 47  1  0
 10 48  1  6
 11 49  1  0
 11 50  1  0
 12 51  1  0
 12 52  1  0
 14 53  1  0
 14 54  1  0
 14 55  1  0
 15 56  1  1
 16 57  1  0
 16 58  1  0
 17 59  1  0
 19 60  1  6
 20 61  1  0
 20 62  1  0
 21 63  1  0
 21 64  1  0
 22 65  1  6
 23 66  1  0
 25 67  1  0
 25 68  1  0
 25 69  1  0
 26 70  1  0
 26 71  1  0
 26 72  1  0
 28 73  1  0
 28 74  1  0
 28 75  1  0
 29 76  1  0
 29 77  1  0
 30 78  1  0
 30 79  1  0
 32 80  1  0
 32 81  1  0
 32 82  1  0
M  END
>  <meeko>  (14) 
{"is_sidechain": [false], "intermolecular_energy": 2.731, "internal_energy": -0.839}

$$$$
EPH_relaxed_0001_pdb2pqr_Repair_416_r2_0001_out
     RDKit          3D

 82 86  0  0  0  0  0  0  0  0999 V2000
    0.8890   13.2820   -5.8880 C   0  0  0  0  0  0  0  0  0  0  0  0
    2.0290   13.0230   -4.8990 C   0  0  2  0  0  0  0  0  0  0  0  0
    2.7270   11.6730   -5.1580 C   0  0  0  0  0  0  0  0  0  0  0  0
    4.1160   11.8090   -5.7870 C   0  0  0  0  0  0  0  0  0  0  0  0
    5.0850   10.8220   -5.2100 C   0  0  2  0  0  0  0  0  0  0  0  0
    4.8070   10.4290   -3.8600 O   0  0  0  0  0  0  0  0  0  0  0  0
    6.0330   11.1480   -4.0710 C   0  0  0  0  0  0  0  0  0  0  0  0
    6.0590   12.5060   -3.4420 C   0  0  0  0  0  0  0  0  0  0  0  0
    7.2610   10.3090   -3.9000 C   0  0  0  0  0  0  0  0  0  0  0  0
    1.4980   13.0690   -3.4710 C   0  0  1  0  0  0  0  0  0  0  0  0
    0.0400   13.5960   -3.3920 C   0  0  0  0  0  0  0  0  0  0  0  0
   -0.6530   12.8240   -2.2400 C   0  0  0  0  0  0  0  0  0  0  0  0
    0.5050   12.1290   -1.4850 C   0  0  1  0  0  0  0  0  0  0  0  0
    1.0990   13.2340   -0.5560 C   0  0  0  0  0  0  0  0  0  0  0  0
    0.1300   10.8410   -0.6820 C   0  0  2  0  0  0  0  0  0  0  0  0
   -0.8740   11.0550    0.4640 C   0  0  0  0  0  0  0  0  0  0  0  0
   -0.2680   11.3670    1.7920 C   0  0  0  0  0  0  0  0  0  0  0  0
    1.0250   11.1940    2.1230 C   0  0  0  0  0  0  0  0  0  0  0  0
    2.0080   10.5420    1.1420 C   0  0  1  0  0  0  0  0  0  0  0  0
    2.8510    9.4740    1.8870 C   0  0  0  0  0  0  0  0  0  0  0  0
    3.5470   10.0360    3.1230 C   0  0  0  0  0  0  0  0  0  0  0  0
    2.5320   10.6230    4.1010 C   0  0  2  0  0  0  0  0  0  0  0  0
    1.7270    9.5610    4.6230 O   0  0  0  0  0  0  0  0  0  0  0  0
    1.6180   11.7040    3.4590 C   0  0  0  0  0  0  0  0  0  0  0  0
    2.4460   12.9800    3.1680 C   0  0  0  0  0  0  0  0  0  0  0  0
    0.5500   12.1110    4.5100 C   0  0  0  0  0  0  0  0  0  0  0  0
    1.3760    9.9880   -0.2070 C   0  0  1  0  0  0  0  0  0  0  0  0
    0.8640    8.5310    0.0040 C   0  0  0  0  0  0  0  0  0  0  0  0
    2.5010    9.9090   -1.3070 C   0  0  0  0  0  0  0  0  0  0  0  0
    2.7410   11.1770   -2.1470 C   0  0  0  0  0  0  0  0  0  0  0  0
    1.4220   11.7290   -2.6970 C   0  0  2  0  0  0  0  0  0  0  0  0
    0.8120   10.6480   -3.6520 C   0  0  0  0  0  0  0  0  0  0  0  0
   -0.0372   13.4924   -5.3330 H   0  0  0  0  0  0  0  0  0  0  0  0
    1.1416   14.1456   -6.5207 H   0  0  0  0  0  0  0  0  0  0  0  0
    0.7436   12.3940   -6.5207 H   0  0  0  0  0  0  0  0  0  0  0  0
    2.7786   13.8151   -5.0430 H   0  0  0  0  0  0  0  0  0  0  0  0
    2.8306   11.1458   -4.1981 H   0  0  0  0  0  0  0  0  0  0  0  0
    2.1021   11.1204   -5.8751 H   0  0  0  0  0  0  0  0  0  0  0  0
    4.0350   11.6373   -6.8705 H   0  0  0  0  0  0  0  0  0  0  0  0
    4.4907   12.8213   -5.5751 H   0  0  0  0  0  0  0  0  0  0  0  0
    5.2482   10.3688   -6.1989 H   0  0  0  0  0  0  0  0  0  0  0  0
    6.0570   12.4029   -2.3468 H   0  0  0  0  0  0  0  0  0  0  0  0
    6.9675   13.0393   -3.7585 H   0  0  0  0  0  0  0  0  0  0  0  0
    5.1716   13.0737   -3.7585 H   0  0  0  0  0  0  0  0  0  0  0  0
    7.4640   10.1703   -2.8278 H   0  0  0  0  0  0  0  0  0  0  0  0
    7.1040    9.3285   -4.3733 H   0  0  0  0  0  0  0  0  0  0  0  0
    8.1173   10.8117   -4.3733 H   0  0  0  0  0  0  0  0  0  0  0  0
    2.2538   13.7252   -3.0146 H   0  0  0  0  0  0  0  0  0  0  0  0
    0.0384   14.6753   -3.1794 H   0  0  0  0  0  0  0  0  0  0  0  0
   -0.4879   13.4414   -4.3446 H   0  0  0  0  0  0  0  0  0  0  0  0
   -1.1893   13.5172   -1.5753 H   0  0  0  0  0  0  0  0  0  0  0  0
   -1.4009   12.1066   -2.6088 H   0  0  0  0  0  0  0  0  0  0  0  0
    0.9463   12.9499    0.4957 H   0  0  0  0  0  0  0  0  0  0  0  0
    2.1757   13.3401   -0.7545 H   0  0  0  0  0  0  0  0  0  0  0  0
    0.5935   14.1906   -0.7545 H   0  0  0  0  0  0  0  0  0  0  0  0
   -0.4007   10.2400   -1.4351 H   0  0  0  0  0  0  0  0  0  0  0  0
   -1.5336   11.8904    0.1866 H   0  0  0  0  0  0  0  0  0  0  0  0
   -1.4031   10.0986    0.5879 H   0  0  0  0  0  0  0  0  0  0  0  0
   -0.9354   11.7731    2.5664 H   0  0  0  0  0  0  0  0  0  0  0  0
    2.6620   11.3508    0.7840 H   0  0  0  0  0  0  0  0  0  0  0  0
    2.1865    8.6546    2.1984 H   0  0  0  0  0  0  0  0  0  0  0  0
    3.6308    9.1222    1.1956 H   0  0  0  0  0  0  0  0  0  0  0  0
    4.1023    9.2282    3.6221 H   0  0  0  0  0  0  0  0  0  0  0  0
    4.2329   10.8356    2.8067 H   0  0  0  0  0  0  0  0  0  0  0  0
    3.0964   11.1238    4.9014 H   0  0  0  0  0  0  0  0  0  0  0  0
    2.3270    8.8510    4.9100 H   0  0  0  0  0  0  0  0  0  0  0  0
    2.7481   13.4456    4.1177 H   0  0  0  0  0  0  0  0  0  0  0  0
    3.3424   12.7115    2.5898 H   0  0  0  0  0  0  0  0  0  0  0  0
    1.8356   13.6893    2.5898 H   0  0  0  0  0  0  0  0  0  0  0  0
    0.9538   11.9571    5.5216 H   0  0  0  0  0  0  0  0  0  0  0  0
    0.2896   13.1714    4.3765 H   0  0  0  0  0  0  0  0  0  0  0  0
   -0.3500   11.4928    4.3765 H   0  0  0  0  0  0  0  0  0  0  0  0
    0.7901    8.3207    1.0812 H   0  0  0  0  0  0  0  0  0  0  0  0
   -0.1271    8.4198   -0.4601 H   0  0  0  0  0  0  0  0  0  0  0  0
    1.5676    7.8243   -0.4601 H   0  0  0  0  0  0  0  0  0  0  0  0
    3.4454    9.6620   -0.8000 H   0  0  0  0  0  0  0  0  0  0  0  0
    2.1505    9.1513   -2.0233 H   0  0  0  0  0  0  0  0  0  0  0  0
    3.2158   11.9423   -1.5155 H   0  0  0  0  0  0  0  0  0  0  0  0
    3.3929   10.9179   -2.9943 H   0  0  0  0  0  0  0  0  0  0  0  0
    0.3584    9.8441   -3.0536 H   0  0  0  0  0  0  0  0  0  0  0  0
    0.0424   11.1117   -4.2866 H   0  0  0  0  0  0  0  0  0  0  0  0
    1.6068   10.2289   -4.2866 H   0  0  0  0  0  0  0  0  0  0  0  0
  1  2  1  0
  2  3  1  0
  3  4  1  0
  4  5  1  0
  5  6  1  0
  6  7  1  0
  7  8  1  0
  7  9  1  0
  2 10  1  0
 10 11  1  0
 11 12  1  0
 12 13  1  0
 13 14  1  1
 13 15  1  0
 15 16  1  0
 16 17  1  0
 17 18  2  0
 18 19  1  0
 19 20  1  0
 20 21  1  0
 21 22  1  0
 22 23  1  0
 22 24  1  0
 24 25  1  0
 24 26  1  0
 19 27  1  0
 27 28  1  1
 27 29  1  0
 29 30  1  0
 30 31  1  0
 31 32  1  6
  7  5  1  0
 31 10  1  0
 31 13  1  0
 27 15  1  0
 24 18  1  0
  1 33  1  0
  1 34  1  0
  1 35  1  0
  2 36  1  1
  3 37  1  0
  3 38  1  0
  4 39  1  0
  4 40  1  0
  5 41  1  6
  8 42  1  0
  8 43  1  0
  8 44  1  0
  9 45  1  0
  9 46  1  0
  9 47  1  0
 10 48  1  1
 11 49  1  0
 11 50  1  0
 12 51  1  0
 12 52  1  0
 14 53  1  0
 14 54  1  0
 14 55  1  0
 15 56  1  6
 16 57  1  0
 16 58  1  0
 17 59  1  0
 19 60  1  6
 20 61  1  0
 20 62  1  0
 21 63  1  0
 21 64  1  0
 22 65  1  1
 23 66  1  0
 25 67  1  0
 25 68  1  0
 25 69  1  0
 26 70  1  0
 26 71  1  0
 26 72  1  0
 28 73  1  0
 28 74  1  0
 28 75  1  0
 29 76  1  0
 29 77  1  0
 30 78  1  0
 30 79  1  0
 32 80  1  0
 32 81  1  0
 32 82  1  0
M  END
>  <meeko>  (15) 
{"is_sidechain": [false], "intermolecular_energy": 2.731, "internal_energy": -0.839}

$$$$
EPH_relaxed_0001_pdb2pqr_Repair_416_r2_0001_out
     RDKit          3D

 82 86  0  0  0  0  0  0  0  0999 V2000
    1.4910    8.8610    0.5840 C   0  0  0  0  0  0  0  0  0  0  0  0
    2.9430    9.3080    0.3890 C   0  0  2  0  0  0  0  0  0  0  0  0
    3.6560    9.5650    1.7320 C   0  0  0  0  0  0  0  0  0  0  0  0
    2.7110    9.5910    2.9360 C   0  0  0  0  0  0  0  0  0  0  0  0
    1.8720   10.8330    2.9550 C   0  0  2  0  0  0  0  0  0  0  0  0
    2.5990   12.0440    3.2010 O   0  0  0  0  0  0  0  0  0  0  0  0
    1.6390   11.6670    4.2010 C   0  0  0  0  0  0  0  0  0  0  0  0
    2.2470   11.2900    5.5160 C   0  0  0  0  0  0  0  0  0  0  0  0
    0.4390   12.5590    4.2510 C   0  0  0  0  0  0  0  0  0  0  0  0
    2.9890   10.5640   -0.4730 C   0  0  1  0  0  0  0  0  0  0  0  0
    3.4420   10.2730   -1.9290 C   0  0  0  0  0  0  0  0  0  0  0  0
    2.6590   11.2470   -2.8450 C   0  0  0  0  0  0  0  0  0  0  0  0
    2.0380   12.2800   -1.8760 C   0  0  1  0  0  0  0  0  0  0  0  0
    3.1890   13.2900   -1.5740 C   0  0  0  0  0  0  0  0  0  0  0  0
    0.7470   13.0080   -2.3750 C   0  0  2  0  0  0  0  0  0  0  0  0
    0.9310   13.8710   -3.6360 C   0  0  0  0  0  0  0  0  0  0  0  0
    1.2990   15.2960   -3.3850 C   0  0  0  0  0  0  0  0  0  0  0  0
    1.1980   15.9330   -2.2040 C   0  0  0  0  0  0  0  0  0  0  0  0
    0.5780   15.2390   -0.9850 C   0  0  1  0  0  0  0  0  0  0  0  0
   -0.4310   16.1980   -0.3000 C   0  0  0  0  0  0  0  0  0  0  0  0
    0.1890   17.5470    0.0490 C   0  0  0  0  0  0  0  0  0  0  0  0
    0.7420   18.2330   -1.1980 C   0  0  2  0  0  0  0  0  0  0  0  0
   -0.3500   18.5770   -2.0560 O   0  0  0  0  0  0  0  0  0  0  0  0
    1.7630   17.3570   -1.9760 C   0  0  0  0  0  0  0  0  0  0  0  0
    3.0730   17.2350   -1.1600 C   0  0  0  0  0  0  0  0  0  0  0  0
    2.1350   18.1060   -3.2840 C   0  0  0  0  0  0  0  0  0  0  0  0
   -0.0320   13.7950   -1.2450 C   0  0  1  0  0  0  0  0  0  0  0  0
   -1.5090   13.9210   -1.7270 C   0  0  0  0  0  0  0  0  0  0  0  0
   -0.0750   13.0020    0.1150 C   0  0  0  0  0  0  0  0  0  0  0  0
    1.1880   12.2060    0.4950 C   0  0  0  0  0  0  0  0  0  0  0  0
    1.6620   11.3380   -0.6740 C   0  0  2  0  0  0  0  0  0  0  0  0
    0.5330   10.2970   -0.9860 C   0  0  0  0  0  0  0  0  0  0  0  0
    1.2696    8.7928    1.6593 H   0  0  0  0  0  0  0  0  0  0  0  0
    0.8161    9.5930    0.1164 H   0  0  0  0  0  0  0  0  0  0  0  0
    1.3446    7.8762    0.1164 H   0  0  0  0  0  0  0  0  0  0  0  0
    3.4761    8.4898   -0.1174 H   0  0  0  0  0  0  0  0  0  0  0  0
    4.3973    8.7677    1.8896 H   0  0  0  0  0  0  0  0  0  0  0  0
    4.1182   10.5609    1.6649 H   0  0  0  0  0  0  0  0  0  0  0  0
    2.0487    8.7140    2.8885 H   0  0  0  0  0  0  0  0  0  0  0  0
    3.3209    9.5749    3.8513 H   0  0  0  0  0  0  0  0  0  0  0  0
    1.1812   10.4051    2.2136 H   0  0  0  0  0  0  0  0  0  0  0  0
    1.6217   11.6777    6.3337 H   0  0  0  0  0  0  0  0  0  0  0  0
    2.3097   10.1943    5.5903 H   0  0  0  0  0  0  0  0  0  0  0  0
    3.2563   11.7209    5.5903 H   0  0  0  0  0  0  0  0  0  0  0  0
    0.1727   12.7569    5.2998 H   0  0  0  0  0  0  0  0  0  0  0  0
    0.6668   13.5088    3.7450 H   0  0  0  0  0  0  0  0  0  0  0  0
   -0.4048   12.0671    3.7450 H   0  0  0  0  0  0  0  0  0  0  0  0
    3.6913   11.1685    0.1197 H   0  0  0  0  0  0  0  0  0  0  0  0
    4.5237   10.4449   -2.0305 H   0  0  0  0  0  0  0  0  0  0  0  0
    3.2416    9.2267   -2.2029 H   0  0  0  0  0  0  0  0  0  0  0  0
    3.3372   11.7408   -3.5565 H   0  0  0  0  0  0  0  0  0  0  0  0
    1.8977   10.7310   -3.4484 H   0  0  0  0  0  0  0  0  0  0  0  0
    3.3086   13.3949   -0.4856 H   0  0  0  0  0  0  0  0  0  0  0  0
    4.1272   12.9184   -2.0118 H   0  0  0  0  0  0  0  0  0  0  0  0
    2.9424   14.2685   -2.0118 H   0  0  0  0  0  0  0  0  0  0  0  0
    0.1052   12.1678   -2.6784 H   0  0  0  0  0  0  0  0  0  0  0  0
    1.7260   13.4169   -4.2457 H   0  0  0  0  0  0  0  0  0  0  0  0
   -0.0488   13.8930   -4.1355 H   0  0  0  0  0  0  0  0  0  0  0  0
    1.6853   15.8740   -4.2375 H   0  0  0  0  0  0  0  0  0  0  0  0
    1.4121   15.0247   -0.3006 H   0  0  0  0  0  0  0  0  0  0  0  0
   -1.2777   16.3649   -0.9821 H   0  0  0  0  0  0  0  0  0  0  0  0
   -0.7550   15.7263    0.6394 H   0  0  0  0  0  0  0  0  0  0  0  0
   -0.5798   18.1899    0.5024 H   0  0  0  0  0  0  0  0  0  0  0  0
    1.0167   17.3808    0.7542 H   0  0  0  0  0  0  0  0  0  0  0  0
    1.2862   19.1304   -0.8685 H   0  0  0  0  0  0  0  0  0  0  0  0
   -0.9080   17.7870   -2.1550 H   0  0  0  0  0  0  0  0  0  0  0  0
    2.8390   17.2568   -0.0854 H   0  0  0  0  0  0  0  0  0  0  0  0
    3.5721   16.2865   -1.4074 H   0  0  0  0  0  0  0  0  0  0  0  0
    3.7387   18.0750   -1.4074 H   0  0  0  0  0  0  0  0  0  0  0  0
    2.6115   19.0655   -3.0343 H   0  0  0  0  0  0  0  0  0  0  0  0
    2.8329   17.4921   -3.8723 H   0  0  0  0  0  0  0  0  0  0  0  0
    1.2241   18.2911   -3.8723 H   0  0  0  0  0  0  0  0  0  0  0  0
   -2.1760   13.9779   -0.8541 H   0  0  0  0  0  0  0  0  0  0  0  0
   -1.6203   14.8319   -2.3335 H   0  0  0  0  0  0  0  0  0  0  0  0
   -1.7730   13.0421   -2.3335 H   0  0  0  0  0  0  0  0  0  0  0  0
   -0.2644   13.7291    0.9184 H   0  0  0  0  0  0  0  0  0  0  0  0
   -0.8628   12.2459   -0.0174 H   0  0  0  0  0  0  0  0  0  0  0  0
    1.9881   12.9097    0.7681 H   0  0  0  0  0  0  0  0  0  0  0  0
    0.9462   11.5492    1.3436 H   0  0  0  0  0  0  0  0  0  0  0  0
    0.1170    9.9135   -0.0427 H   0  0  0  0  0  0  0  0  0  0  0  0
   -0.2641   10.7837   -1.5672 H   0  0  0  0  0  0  0  0  0  0  0  0
    0.9536    9.4631   -1.5672 H   0  0  0  0  0  0  0  0  0  0  0  0
  1  2  1  0
  2  3  1  0
  3  4  1  0
  4  5  1  0
  5  6  1  0
  6  7  1  0
  7  8  1  0
  7  9  1  0
  2 10  1  0
 10 11  1  0
 11 12  1  0
 12 13  1  0
 13 14  1  1
 13 15  1  0
 15 16  1  0
 16 17  1  0
 17 18  2  0
 18 19  1  0
 19 20  1  0
 20 21  1  0
 21 22  1  0
 22 23  1  0
 22 24  1  0
 24 25  1  0
 24 26  1  0
 19 27  1  0
 27 28  1  6
 27 29  1  0
 29 30  1  0
 30 31  1  0
 31 32  1  6
  7  5  1  0
 31 10  1  0
 31 13  1  0
 27 15  1  0
 24 18  1  0
  1 33  1  0
  1 34  1  0
  1 35  1  0
  2 36  1  6
  3 37  1  0
  3 38  1  0
  4 39  1  0
  4 40  1  0
  5 41  1  6
  8 42  1  0
  8 43  1  0
  8 44  1  0
  9 45  1  0
  9 46  1  0
  9 47  1  0
 10 48  1  1
 11 49  1  0
 11 50  1  0
 12 51  1  0
 12 52  1  0
 14 53  1  0
 14 54  1  0
 14 55  1  0
 15 56  1  6
 16 57  1  0
 16 58  1  0
 17 59  1  0
 19 60  1  1
 20 61  1  0
 20 62  1  0
 21 63  1  0
 21 64  1  0
 22 65  1  1
 23 66  1  0
 25 67  1  0
 25 68  1  0
 25 69  1  0
 26 70  1  0
 26 71  1  0
 26 72  1  0
 28 73  1  0
 28 74  1  0
 28 75  1  0
 29 76  1  0
 29 77  1  0
 30 78  1  0
 30 79  1  0
 32 80  1  0
 32 81  1  0
 32 82  1  0
M  END
>  <meeko>  (16) 
{"is_sidechain": [false], "intermolecular_energy": 2.731, "internal_energy": -0.839}

$$$$
EPH_relaxed_0001_pdb2pqr_Repair_416_r2_0001_out
     RDKit          3D

 82 86  0  0  0  0  0  0  0  0999 V2000
   -1.1910   16.1930   -5.5570 C   0  0  0  0  0  0  0  0  0  0  0  0
    0.0010   15.4990   -6.2200 C   0  0  2  0  0  0  0  0  0  0  0  0
   -0.2960   15.1040   -7.6810 C   0  0  0  0  0  0  0  0  0  0  0  0
    0.1690   16.1430   -8.7060 C   0  0  0  0  0  0  0  0  0  0  0  0
    1.5980   15.9280   -9.1030 C   0  0  2  0  0  0  0  0  0  0  0  0
    2.0300   16.7080  -10.2260 O   0  0  0  0  0  0  0  0  0  0  0  0
    2.0140   15.2830  -10.4120 C   0  0  0  0  0  0  0  0  0  0  0  0
    1.0010   14.8110  -11.4060 C   0  0  0  0  0  0  0  0  0  0  0  0
    3.3780   14.6730  -10.5060 C   0  0  0  0  0  0  0  0  0  0  0  0
    0.3960   14.2650   -5.4170 C   0  0  1  0  0  0  0  0  0  0  0  0
    1.4300   13.3750   -6.1590 C   0  0  0  0  0  0  0  0  0  0  0  0
    2.3630   12.7760   -5.0750 C   0  0  0  0  0  0  0  0  0  0  0  0
    1.6440   13.0670   -3.7370 C   0  0  1  0  0  0  0  0  0  0  0  0
    0.5660   11.9450   -3.6090 C   0  0  0  0  0  0  0  0  0  0  0  0
    2.5520   13.1420   -2.4670 C   0  0  2  0  0  0  0  0  0  0  0  0
    3.2950   11.8410   -2.1180 C   0  0  0  0  0  0  0  0  0  0  0  0
    2.5670   10.9180   -1.1980 C   0  0  0  0  0  0  0  0  0  0  0  0
    1.4970   11.2430   -0.4490 C   0  0  0  0  0  0  0  0  0  0  0  0
    0.9730   12.6840   -0.4080 C   0  0  1  0  0  0  0  0  0  0  0  0
    0.7070   13.0970    1.0640 C   0  0  0  0  0  0  0  0  0  0  0  0
   -0.2150   12.1200    1.7870 C   0  0  0  0  0  0  0  0  0  0  0  0
    0.3680   10.7090    1.7760 C   0  0  2  0  0  0  0  0  0  0  0  0
    1.5590   10.6970    2.5690 O   0  0  0  0  0  0  0  0  0  0  0  0
    0.6870   10.1900    0.3460 C   0  0  0  0  0  0  0  0  0  0  0  0
   -0.6340    9.9170   -0.4150 C   0  0  0  0  0  0  0  0  0  0  0  0
    1.3990    8.8170    0.4850 C   0  0  0  0  0  0  0  0  0  0  0  0
    1.8390   13.7590   -1.1960 C   0  0  1  0  0  0  0  0  0  0  0  0
    2.9700   14.3110   -0.2750 C   0  0  0  0  0  0  0  0  0  0  0  0
    0.9250   14.9880   -1.5610 C   0  0  0  0  0  0  0  0  0  0  0  0
    0.1450   14.9050   -2.8870 C   0  0  0  0  0  0  0  0  0  0  0  0
    1.0670   14.4970   -4.0400 C   0  0  2  0  0  0  0  0  0  0  0  0
    2.1480   15.6180   -4.2070 C   0  0  0  0  0  0  0  0  0  0  0  0
   -1.0883   16.1332   -4.4634 H   0  0  0  0  0  0  0  0  0  0  0  0
   -1.2188   17.2485   -5.8655 H   0  0  0  0  0  0  0  0  0  0  0  0
   -2.1226   15.6961   -5.8655 H   0  0  0  0  0  0  0  0  0  0  0  0
    0.8352   16.2159   -6.2349 H   0  0  0  0  0  0  0  0  0  0  0  0
    0.2142   14.1531   -7.8943 H   0  0  0  0  0  0  0  0  0  0  0  0
   -1.3889   15.0244   -7.7769 H   0  0  0  0  0  0  0  0  0  0  0  0
   -0.4650   16.0687   -9.6018 H   0  0  0  0  0  0  0  0  0  0  0  0
    0.0866   17.1391   -8.2466 H   0  0  0  0  0  0  0  0  0  0  0  0
    1.8838   15.7297   -8.0594 H   0  0  0  0  0  0  0  0  0  0  0  0
    0.1279   14.4042  -10.8748 H   0  0  0  0  0  0  0  0  0  0  0  0
    0.6857   15.6549  -12.0371 H   0  0  0  0  0  0  0  0  0  0  0  0
    1.4444   14.0267  -12.0371 H   0  0  0  0  0  0  0  0  0  0  0  0
    3.7715   14.4970   -9.4940 H   0  0  0  0  0  0  0  0  0  0  0  0
    3.3157   13.7170  -11.0465 H   0  0  0  0  0  0  0  0  0  0  0  0
    4.0490   15.3568  -11.0465 H   0  0  0  0  0  0  0  0  0  0  0  0
   -0.5956   13.8090   -5.2803 H   0  0  0  0  0  0  0  0  0  0  0  0
    0.9153   12.5694   -6.7032 H   0  0  0  0  0  0  0  0  0  0  0  0
    2.0022   13.9617   -6.8927 H   0  0  0  0  0  0  0  0  0  0  0  0
    2.4847   11.6928   -5.2229 H   0  0  0  0  0  0  0  0  0  0  0  0
    3.3734   13.2096   -5.1084 H   0  0  0  0  0  0  0  0  0  0  0  0
    0.3717   11.7428   -2.5453 H   0  0  0  0  0  0  0  0  0  0  0  0
   -0.3643   12.2731   -4.0957 H   0  0  0  0  0  0  0  0  0  0  0  0
    0.9310   11.0286   -4.0957 H   0  0  0  0  0  0  0  0  0  0  0  0
    3.3296   13.8563   -2.7753 H   0  0  0  0  0  0  0  0  0  0  0  0
    3.4925   11.3005   -3.0554 H   0  0  0  0  0  0  0  0  0  0  0  0
    4.2074   12.1455   -1.5843 H   0  0  0  0  0  0  0  0  0  0  0  0
    2.9364    9.8844   -1.1261 H   0  0  0  0  0  0  0  0  0  0  0  0
    0.0281   12.6800   -0.9711 H   0  0  0  0  0  0  0  0  0  0  0  0
    1.6677   13.1368    1.5984 H   0  0  0  0  0  0  0  0  0  0  0  0
    0.2104   14.0785    1.0514 H   0  0  0  0  0  0  0  0  0  0  0  0
   -0.3419   12.4489    2.8290 H   0  0  0  0  0  0  0  0  0  0  0  0
   -1.1847   12.1031    1.2680 H   0  0  0  0  0  0  0  0  0  0  0  0
   -0.3935   10.0332    2.1924 H   0  0  0  0  0  0  0  0  0  0  0  0
    1.3090   10.9320    3.4790 H   0  0  0  0  0  0  0  0  0  0  0  0
   -1.4458    9.7492    0.3081 H   0  0  0  0  0  0  0  0  0  0  0  0
   -0.8790   10.7835   -1.0468 H   0  0  0  0  0  0  0  0  0  0  0  0
   -0.5155    9.0244   -1.0468 H   0  0  0  0  0  0  0  0  0  0  0  0
    1.5244    8.5752    1.5507 H   0  0  0  0  0  0  0  0  0  0  0  0
    0.7912    8.0381    0.0014 H   0  0  0  0  0  0  0  0  0  0  0  0
    2.3858    8.8651    0.0014 H   0  0  0  0  0  0  0  0  0  0  0  0
    2.6855   14.1721    0.7785 H   0  0  0  0  0  0  0  0  0  0  0  0
    3.9051   13.7680   -0.4769 H   0  0  0  0  0  0  0  0  0  0  0  0
    3.1172   15.3822   -0.4769 H   0  0  0  0  0  0  0  0  0  0  0  0
    0.1912   15.1092   -0.7505 H   0  0  0  0  0  0  0  0  0  0  0  0
    1.6171   15.8336   -1.6870 H   0  0  0  0  0  0  0  0  0  0  0  0
   -0.6574   14.1593   -2.7866 H   0  0  0  0  0  0  0  0  0  0  0  0
   -0.2768   15.8964   -3.1088 H   0  0  0  0  0  0  0  0  0  0  0  0
    2.4778   15.9600   -3.2149 H   0  0  0  0  0  0  0  0  0  0  0  0
    3.0092   15.2172   -4.7617 H   0  0  0  0  0  0  0  0  0  0  0  0
    1.7162   16.4641   -4.7617 H   0  0  0  0  0  0  0  0  0  0  0  0
  1  2  1  0
  2  3  1  0
  3  4  1  0
  4  5  1  0
  5  6  1  0
  6  7  1  0
  7  8  1  0
  7  9  1  0
  2 10  1  0
 10 11  1  0
 11 12  1  0
 12 13  1  0
 13 14  1  1
 13 15  1  0
 15 16  1  0
 16 17  1  0
 17 18  2  0
 18 19  1  0
 19 20  1  0
 20 21  1  0
 21 22  1  0
 22 23  1  0
 22 24  1  0
 24 25  1  0
 24 26  1  0
 19 27  1  0
 27 28  1  1
 27 29  1  0
 29 30  1  0
 30 31  1  0
 31 32  1  6
  7  5  1  0
 31 10  1  0
 31 13  1  0
 27 15  1  0
 24 18  1  0
  1 33  1  0
  1 34  1  0
  1 35  1  0
  2 36  1  6
  3 37  1  0
  3 38  1  0
  4 39  1  0
  4 40  1  0
  5 41  1  1
  8 42  1  0
  8 43  1  0
  8 44  1  0
  9 45  1  0
  9 46  1  0
  9 47  1  0
 10 48  1  1
 11 49  1  0
 11 50  1  0
 12 51  1  0
 12 52  1  0
 14 53  1  0
 14 54  1  0
 14 55  1  0
 15 56  1  6
 16 57  1  0
 16 58  1  0
 17 59  1  0
 19 60  1  6
 20 61  1  0
 20 62  1  0
 21 63  1  0
 21 64  1  0
 22 65  1  1
 23 66  1  0
 25 67  1  0
 25 68  1  0
 25 69  1  0
 26 70  1  0
 26 71  1  0
 26 72  1  0
 28 73  1  0
 28 74  1  0
 28 75  1  0
 29 76  1  0
 29 77  1  0
 30 78  1  0
 30 79  1  0
 32 80  1  0
 32 81  1  0
 32 82  1  0
M  END
>  <meeko>  (17) 
{"is_sidechain": [false], "intermolecular_energy": 2.731, "internal_energy": -0.839}

$$$$
EPH_relaxed_0001_pdb2pqr_Repair_416_r2_0001_out
     RDKit          3D

 82 86  0  0  0  0  0  0  0  0999 V2000
   -3.6680    7.1710   -3.4050 C   0  0  0  0  0  0  0  0  0  0  0  0
   -3.6980    7.2550   -1.8760 C   0  0  2  0  0  0  0  0  0  0  0  0
   -5.1160    7.0370   -1.3100 C   0  0  0  0  0  0  0  0  0  0  0  0
   -6.2210    7.1360   -2.3650 C   0  0  0  0  0  0  0  0  0  0  0  0
   -7.5530    7.4380   -1.7450 C   0  0  2  0  0  0  0  0  0  0  0  0
   -8.1830    6.3200   -1.1080 O   0  0  0  0  0  0  0  0  0  0  0  0
   -8.8610    6.8620   -2.2530 C   0  0  0  0  0  0  0  0  0  0  0  0
   -8.9030    5.9380   -3.4300 C   0  0  0  0  0  0  0  0  0  0  0  0
  -10.1340    7.5740   -1.9180 C   0  0  0  0  0  0  0  0  0  0  0  0
   -3.1560    8.6040   -1.4190 C   0  0  1  0  0  0  0  0  0  0  0  0
   -3.8280    9.1060   -0.1130 C   0  0  0  0  0  0  0  0  0  0  0  0
   -2.7380    9.8620    0.6890 C   0  0  0  0  0  0  0  0  0  0  0  0
   -1.5790   10.0580   -0.3170 C   0  0  1  0  0  0  0  0  0  0  0  0
   -1.9930   11.2990   -1.1680 C   0  0  0  0  0  0  0  0  0  0  0  0
   -0.1520   10.2290    0.2980 C   0  0  2  0  0  0  0  0  0  0  0  0
    0.0290   11.4690    1.1910 C   0  0  0  0  0  0  0  0  0  0  0  0
    0.4920   12.7010    0.4860 C   0  0  0  0  0  0  0  0  0  0  0  0
    1.0230   12.7420   -0.7500 C   0  0  0  0  0  0  0  0  0  0  0  0
    1.2940   11.4510   -1.5340 C   0  0  1  0  0  0  0  0  0  0  0  0
    2.7160   11.5100   -2.1530 C   0  0  0  0  0  0  0  0  0  0  0  0
    2.9350   12.7620   -2.9960 C   0  0  0  0  0  0  0  0  0  0  0  0
    2.7120   14.0240   -2.1670 C   0  0  2  0  0  0  0  0  0  0  0  0
    3.7370   14.1080   -1.1710 O   0  0  0  0  0  0  0  0  0  0  0  0
    1.3160   14.0720   -1.4860 C   0  0  0  0  0  0  0  0  0  0  0  0
    0.2200   14.2850   -2.5590 C   0  0  0  0  0  0  0  0  0  0  0  0
    1.2750   15.3240   -0.5690 C   0  0  0  0  0  0  0  0  0  0  0  0
    1.0260   10.0950   -0.7500 C   0  0  1  0  0  0  0  0  0  0  0  0
    2.2960    9.6860    0.0570 C   0  0  0  0  0  0  0  0  0  0  0  0
    0.7710    8.9410   -1.7910 C   0  0  0  0  0  0  0  0  0  0  0  0
   -0.6800    8.7450   -2.2700 C   0  0  0  0  0  0  0  0  0  0  0  0
   -1.6460    8.6870   -1.0830 C   0  0  2  0  0  0  0  0  0  0  0  0
   -1.2690    7.4350   -0.2200 C   0  0  0  0  0  0  0  0  0  0  0  0
   -3.3126    6.1759   -3.7106 H   0  0  0  0  0  0  0  0  0  0  0  0
   -4.6807    7.3363   -3.8012 H   0  0  0  0  0  0  0  0  0  0  0  0
   -2.9891    7.9405   -3.8012 H   0  0  0  0  0  0  0  0  0  0  0  0
   -3.0601    6.4474   -1.4875 H   0  0  0  0  0  0  0  0  0  0  0  0
   -5.1585    6.0363   -0.8553 H   0  0  0  0  0  0  0  0  0  0  0  0
   -5.2970    7.8382   -0.5783 H   0  0  0  0  0  0  0  0  0  0  0  0
   -5.9671    7.9384   -3.0733 H   0  0  0  0  0  0  0  0  0  0  0  0
   -6.2933    6.1660   -2.8786 H   0  0  0  0  0  0  0  0  0  0  0  0
   -7.2400    8.4672   -1.5154 H   0  0  0  0  0  0  0  0  0  0  0  0
   -8.9503    4.8971   -3.0775 H   0  0  0  0  0  0  0  0  0  0  0  0
   -9.7920    6.1597   -4.0387 H   0  0  0  0  0  0  0  0  0  0  0  0
   -7.9976    6.0782   -4.0387 H   0  0  0  0  0  0  0  0  0  0  0  0
  -10.2433    7.6351   -0.8251 H   0  0  0  0  0  0  0  0  0  0  0  0
  -10.1088    8.5890   -2.3413 H   0  0  0  0  0  0  0  0  0  0  0  0
  -10.9856    7.0212   -2.3413 H   0  0  0  0  0  0  0  0  0  0  0  0
   -3.3757    9.2040   -2.3144 H   0  0  0  0  0  0  0  0  0  0  0  0
   -4.6609    9.7837   -0.3519 H   0  0  0  0  0  0  0  0  0  0  0  0
   -4.2357    8.2665    0.4692 H   0  0  0  0  0  0  0  0  0  0  0  0
   -3.1170   10.8336    1.0389 H   0  0  0  0  0  0  0  0  0  0  0  0
   -2.4224    9.3102    1.5867 H   0  0  0  0  0  0  0  0  0  0  0  0
   -2.2692   12.1270   -0.4986 H   0  0  0  0  0  0  0  0  0  0  0  0
   -1.1488   11.6066   -1.8026 H   0  0  0  0  0  0  0  0  0  0  0  0
   -2.8528   11.0381   -1.8026 H   0  0  0  0  0  0  0  0  0  0  0  0
   -0.0801    9.3623    0.9715 H   0  0  0  0  0  0  0  0  0  0  0  0
   -0.9390   11.6915    1.6638 H   0  0  0  0  0  0  0  0  0  0  0  0
    0.8220   11.2134    1.9092 H   0  0  0  0  0  0  0  0  0  0  0  0
    0.3905   13.6561    1.0222 H   0  0  0  0  0  0  0  0  0  0  0  0
    0.5397   11.4167   -2.3339 H   0  0  0  0  0  0  0  0  0  0  0  0
    3.4557   11.4991   -1.3390 H   0  0  0  0  0  0  0  0  0  0  0  0
    2.8290   10.6381   -2.8141 H   0  0  0  0  0  0  0  0  0  0  0  0
    3.9656   12.7613   -3.3805 H   0  0  0  0  0  0  0  0  0  0  0  0
    2.2143   12.7561   -3.8270 H   0  0  0  0  0  0  0  0  0  0  0  0
    2.7542   14.8818   -2.8543 H   0  0  0  0  0  0  0  0  0  0  0  0
    3.4810   13.5250   -0.4360 H   0  0  0  0  0  0  0  0  0  0  0  0
   -0.7449   14.4725   -2.0653 H   0  0  0  0  0  0  0  0  0  0  0  0
    0.4845   15.1485   -3.1870 H   0  0  0  0  0  0  0  0  0  0  0  0
    0.1419   13.3852   -3.1870 H   0  0  0  0  0  0  0  0  0  0  0  0
    1.2854   15.0074    0.4844 H   0  0  0  0  0  0  0  0  0  0  0  0
    2.1530   15.9552   -0.7708 H   0  0  0  0  0  0  0  0  0  0  0  0
    0.3576   15.8964   -0.7708 H   0  0  0  0  0  0  0  0  0  0  0  0
    2.0837    9.7544    1.1342 H   0  0  0  0  0  0  0  0  0  0  0  0
    2.5748    8.6527   -0.1969 H   0  0  0  0  0  0  0  0  0  0  0  0
    3.1254   10.3625   -0.1969 H   0  0  0  0  0  0  0  0  0  0  0  0
    1.3885    9.1498   -2.6771 H   0  0  0  0  0  0  0  0  0  0  0  0
    1.0262    8.0125   -1.2593 H   0  0  0  0  0  0  0  0  0  0  0  0
   -0.9605    9.5857   -2.9215 H   0  0  0  0  0  0  0  0  0  0  0  0
   -0.7425    7.7943   -2.8198 H   0  0  0  0  0  0  0  0  0  0  0  0
   -1.3455    7.6890    0.8475 H   0  0  0  0  0  0  0  0  0  0  0  0
   -1.9584    6.6095   -0.4508 H   0  0  0  0  0  0  0  0  0  0  0  0
   -0.2384    7.1274   -0.4508 H   0  0  0  0  0  0  0  0  0  0  0  0
  1  2  1  0
  2  3  1  0
  3  4  1  0
  4  5  1  0
  5  6  1  0
  6  7  1  0
  7  8  1  0
  7  9  1  0
  2 10  1  0
 10 11  1  0
 11 12  1  0
 12 13  1  0
 13 14  1  6
 13 15  1  0
 15 16  1  0
 16 17  1  0
 17 18  2  0
 18 19  1  0
 19 20  1  0
 20 21  1  0
 21 22  1  0
 22 23  1  0
 22 24  1  0
 24 25  1  0
 24 26  1  0
 19 27  1  0
 27 28  1  1
 27 29  1  0
 29 30  1  0
 30 31  1  0
 31 32  1  1
  7  5  1  0
 31 10  1  0
 31 13  1  0
 27 15  1  0
 24 18  1  0
  1 33  1  0
  1 34  1  0
  1 35  1  0
  2 36  1  1
  3 37  1  0
  3 38  1  0
  4 39  1  0
  4 40  1  0
  5 41  1  1
  8 42  1  0
  8 43  1  0
  8 44  1  0
  9 45  1  0
  9 46  1  0
  9 47  1  0
 10 48  1  6
 11 49  1  0
 11 50  1  0
 12 51  1  0
 12 52  1  0
 14 53  1  0
 14 54  1  0
 14 55  1  0
 15 56  1  1
 16 57  1  0
 16 58  1  0
 17 59  1  0
 19 60  1  6
 20 61  1  0
 20 62  1  0
 21 63  1  0
 21 64  1  0
 22 65  1  6
 23 66  1  0
 25 67  1  0
 25 68  1  0
 25 69  1  0
 26 70  1  0
 26 71  1  0
 26 72  1  0
 28 73  1  0
 28 74  1  0
 28 75  1  0
 29 76  1  0
 29 77  1  0
 30 78  1  0
 30 79  1  0
 32 80  1  0
 32 81  1  0
 32 82  1  0
M  END
>  <meeko>  (18) 
{"is_sidechain": [false], "intermolecular_energy": 2.731, "internal_energy": -0.839}

$$$$
EPH_relaxed_0001_pdb2pqr_Repair_416_r2_0001_out
     RDKit          3D

 82 86  0  0  0  0  0  0  0  0999 V2000
    0.1460   17.7760   -2.5020 C   0  0  0  0  0  0  0  0  0  0  0  0
   -0.0860   16.8890   -1.2760 C   0  0  2  0  0  0  0  0  0  0  0  0
   -0.1130   17.7030    0.0330 C   0  0  0  0  0  0  0  0  0  0  0  0
    0.5090   19.0960   -0.0960 C   0  0  0  0  0  0  0  0  0  0  0  0
    1.6410   19.2890    0.8680 C   0  0  2  0  0  0  0  0  0  0  0  0
    2.6590   20.1950    0.4220 O   0  0  0  0  0  0  0  0  0  0  0  0
    3.0600   18.8260    0.5950 C   0  0  0  0  0  0  0  0  0  0  0  0
    3.4230   18.1320   -0.6810 C   0  0  0  0  0  0  0  0  0  0  0  0
    3.9780   18.6090    1.7570 C   0  0  0  0  0  0  0  0  0  0  0  0
    0.9940   15.8160   -1.2000 C   0  0  1  0  0  0  0  0  0  0  0  0
    1.2060   15.2830    0.2420 C   0  0  0  0  0  0  0  0  0  0  0  0
    1.5500   13.7760    0.1160 C   0  0  0  0  0  0  0  0  0  0  0  0
    1.8490   13.5690   -1.3870 C   0  0  1  0  0  0  0  0  0  0  0  0
    3.3230   14.0490   -1.5720 C   0  0  0  0  0  0  0  0  0  0  0  0
    1.6400   12.1210   -1.9390 C   0  0  2  0  0  0  0  0  0  0  0  0
    2.5470   11.0470   -1.3140 C   0  0  0  0  0  0  0  0  0  0  0  0
    3.8470   10.8240   -2.0130 C   0  0  0  0  0  0  0  0  0  0  0  0
    4.1520   11.2500   -3.2530 C   0  0  0  0  0  0  0  0  0  0  0  0
    3.1030   11.9520   -4.1240 C   0  0  1  0  0  0  0  0  0  0  0  0
    3.1290   11.3480   -5.5530 C   0  0  0  0  0  0  0  0  0  0  0  0
    4.5210   11.3800   -6.1760 C   0  0  0  0  0  0  0  0  0  0  0  0
    5.5230   10.6220   -5.3100 C   0  0  2  0  0  0  0  0  0  0  0  0
    5.1830    9.2320   -5.3200 O   0  0  0  0  0  0  0  0  0  0  0  0
    5.5790   11.1360   -3.8440 C   0  0  0  0  0  0  0  0  0  0  0  0
    6.2330   12.5390   -3.8090 C   0  0  0  0  0  0  0  0  0  0  0  0
    6.5220   10.1980   -3.0440 C   0  0  0  0  0  0  0  0  0  0  0  0
    1.6350   12.0250   -3.5190 C   0  0  1  0  0  0  0  0  0  0  0  0
    0.8440   10.7320   -3.8840 C   0  0  0  0  0  0  0  0  0  0  0  0
    0.8620   13.2220   -4.1890 C   0  0  0  0  0  0  0  0  0  0  0  0
    1.0130   14.6040   -3.5260 C   0  0  0  0  0  0  0  0  0  0  0  0
    0.7670   14.5190   -2.0170 C   0  0  2  0  0  0  0  0  0  0  0  0
   -0.7150   14.0590   -1.7990 C   0  0  0  0  0  0  0  0  0  0  0  0
    0.4117   18.7919   -2.1745 H   0  0  0  0  0  0  0  0  0  0  0  0
    0.9654   17.3594   -3.1062 H   0  0  0  0  0  0  0  0  0  0  0  0
   -0.7724   17.8140   -3.1062 H   0  0  0  0  0  0  0  0  0  0  0  0
   -1.0727   16.4165   -1.3909 H   0  0  0  0  0  0  0  0  0  0  0  0
   -1.1604   17.8182    0.3489 H   0  0  0  0  0  0  0  0  0  0  0  0
    0.4886   17.1490    0.7687 H   0  0  0  0  0  0  0  0  0  0  0  0
    0.8877   19.2239   -1.1208 H   0  0  0  0  0  0  0  0  0  0  0  0
   -0.2674   19.8409    0.1330 H   0  0  0  0  0  0  0  0  0  0  0  0
    0.9681   19.1393    1.7252 H   0  0  0  0  0  0  0  0  0  0  0  0
    3.9216   17.1788   -0.4510 H   0  0  0  0  0  0  0  0  0  0  0  0
    2.5112   17.9374   -1.2648 H   0  0  0  0  0  0  0  0  0  0  0  0
    4.1029   18.7699   -1.2648 H   0  0  0  0  0  0  0  0  0  0  0  0
    3.4193   18.7411    2.6953 H   0  0  0  0  0  0  0  0  0  0  0  0
    4.3881   17.5892    1.7149 H   0  0  0  0  0  0  0  0  0  0  0  0
    4.8013   19.3373    1.7149 H   0  0  0  0  0  0  0  0  0  0  0  0
    1.8426   16.3789   -1.6159 H   0  0  0  0  0  0  0  0  0  0  0  0
    2.0338   15.8212    0.7269 H   0  0  0  0  0  0  0  0  0  0  0  0
    0.3048   15.4325    0.8548 H   0  0  0  0  0  0  0  0  0  0  0  0
    2.4312   13.5265    0.7253 H   0  0  0  0  0  0  0  0  0  0  0  0
    0.7336   13.1304    0.4719 H   0  0  0  0  0  0  0  0  0  0  0  0
    3.7860   14.1998   -0.5857 H   0  0  0  0  0  0  0  0  0  0  0  0
    3.8889   13.2887   -2.1303 H   0  0  0  0  0  0  0  0  0  0  0  0
    3.3327   14.9967   -2.1303 H   0  0  0  0  0  0  0  0  0  0  0  0
    0.6204   11.8842   -1.6008 H   0  0  0  0  0  0  0  0  0  0  0  0
    2.7651   11.3471   -0.2784 H   0  0  0  0  0  0  0  0  0  0  0  0
    1.9938   10.0994   -1.3912 H   0  0  0  0  0  0  0  0  0  0  0  0
    4.6216   10.2640   -1.4685 H   0  0  0  0  0  0  0  0  0  0  0  0
    3.3976   13.0112   -4.1605 H   0  0  0  0  0  0  0  0  0  0  0  0
    2.7901   10.3028   -5.5003 H   0  0  0  0  0  0  0  0  0  0  0  0
    2.4661   11.9570   -6.1852 H   0  0  0  0  0  0  0  0  0  0  0  0
    4.4807   10.9141   -7.1717 H   0  0  0  0  0  0  0  0  0  0  0  0
    4.8466   12.4277   -6.2548 H   0  0  0  0  0  0  0  0  0  0  0  0
    6.5219   10.7896   -5.7390 H   0  0  0  0  0  0  0  0  0  0  0  0
    4.4770    9.0970   -4.6660 H   0  0  0  0  0  0  0  0  0  0  0  0
    6.3780   12.8500   -2.7639 H   0  0  0  0  0  0  0  0  0  0  0  0
    7.2069   12.5024   -4.3191 H   0  0  0  0  0  0  0  0  0  0  0  0
    5.5788   13.2613   -4.3191 H   0  0  0  0  0  0  0  0  0  0  0  0
    6.3658   10.3534   -1.9663 H   0  0  0  0  0  0  0  0  0  0  0  0
    6.3009    9.1512   -3.2994 H   0  0  0  0  0  0  0  0  0  0  0  0
    7.5677   10.4247   -3.2994 H   0  0  0  0  0  0  0  0  0  0  0  0
    0.5313   10.2208   -2.9616 H   0  0  0  0  0  0  0  0  0  0  0  0
   -0.0448   11.0002   -4.4740 H   0  0  0  0  0  0  0  0  0  0  0  0
    1.4875   10.0628   -4.4740 H   0  0  0  0  0  0  0  0  0  0  0  0
    1.2185   13.3096   -5.2259 H   0  0  0  0  0  0  0  0  0  0  0  0
   -0.2037   12.9691   -4.0878 H   0  0  0  0  0  0  0  0  0  0  0  0
    2.0318   14.9788   -3.7038 H   0  0  0  0  0  0  0  0  0  0  0  0
    0.2694   15.2859   -3.9643 H   0  0  0  0  0  0  0  0  0  0  0  0
   -0.9240   13.9941   -0.7210 H   0  0  0  0  0  0  0  0  0  0  0  0
   -1.3969   14.7878   -2.2615 H   0  0  0  0  0  0  0  0  0  0  0  0
   -0.8644   13.0722   -2.2615 H   0  0  0  0  0  0  0  0  0  0  0  0
  1  2  1  0
  2  3  1  0
  3  4  1  0
  4  5  1  0
  5  6  1  0
  6  7  1  0
  7  8  1  0
  7  9  1  0
  2 10  1  0
 10 11  1  0
 11 12  1  0
 12 13  1  0
 13 14  1  1
 13 15  1  0
 15 16  1  0
 16 17  1  0
 17 18  2  0
 18 19  1  0
 19 20  1  0
 20 21  1  0
 21 22  1  0
 22 23  1  0
 22 24  1  0
 24 25  1  0
 24 26  1  0
 19 27  1  0
 27 28  1  1
 27 29  1  0
 29 30  1  0
 30 31  1  0
 31 32  1  6
  7  5  1  0
 31 10  1  0
 31 13  1  0
 27 15  1  0
 24 18  1  0
  1 33  1  0
  1 34  1  0
  1 35  1  0
  2 36  1  6
  3 37  1  0
  3 38  1  0
  4 39  1  0
  4 40  1  0
  5 41  1  1
  8 42  1  0
  8 43  1  0
  8 44  1  0
  9 45  1  0
  9 46  1  0
  9 47  1  0
 10 48  1  6
 11 49  1  0
 11 50  1  0
 12 51  1  0
 12 52  1  0
 14 53  1  0
 14 54  1  0
 14 55  1  0
 15 56  1  1
 16 57  1  0
 16 58  1  0
 17 59  1  0
 19 60  1  6
 20 61  1  0
 20 62  1  0
 21 63  1  0
 21 64  1  0
 22 65  1  6
 23 66  1  0
 25 67  1  0
 25 68  1  0
 25 69  1  0
 26 70  1  0
 26 71  1  0
 26 72  1  0
 28 73  1  0
 28 74  1  0
 28 75  1  0
 29 76  1  0
 29 77  1  0
 30 78  1  0
 30 79  1  0
 32 80  1  0
 32 81  1  0
 32 82  1  0
M  END
>  <meeko>  (19) 
{"is_sidechain": [false], "intermolecular_energy": 2.731, "internal_energy": -0.839}

$$$$
