EPH_relaxed_0001_pdb2pqr_Repair_342_r2_0001_out
     RDKit          3D

 82 86  0  0  0  0  0  0  0  0999 V2000
    2.4500   17.1990   -0.8230 C   0  0  0  0  0  0  0  0  0  0  0  0
    1.6550   17.3470   -2.1230 C   0  0  2  0  0  0  0  0  0  0  0  0
    0.6600   18.5230   -2.0650 C   0  0  0  0  0  0  0  0  0  0  0  0
    0.8140   19.3980   -0.8180 C   0  0  0  0  0  0  0  0  0  0  0  0
   -0.4660   20.0940   -0.4680 C   0  0  2  0  0  0  0  0  0  0  0  0
   -0.7280   20.1940    0.9380 O   0  0  0  0  0  0  0  0  0  0  0  0
   -1.6490   19.3960    0.1770 C   0  0  0  0  0  0  0  0  0  0  0  0
   -1.6080   17.9370    0.5080 C   0  0  0  0  0  0  0  0  0  0  0  0
   -3.0060   20.0110    0.0360 C   0  0  0  0  0  0  0  0  0  0  0  0
    0.9130   16.0510   -2.4280 C   0  0  1  0  0  0  0  0  0  0  0  0
    0.3760   15.9990   -3.8840 C   0  0  0  0  0  0  0  0  0  0  0  0
    0.4780   14.5220   -4.3450 C   0  0  0  0  0  0  0  0  0  0  0  0
    0.7520   13.7260   -3.0480 C   0  0  1  0  0  0  0  0  0  0  0  0
   -0.6480   13.5520   -2.3800 C   0  0  0  0  0  0  0  0  0  0  0  0
    1.4840   12.3550   -3.2200 C   0  0  2  0  0  0  0  0  0  0  0  0
    0.7180   11.3060   -4.0450 C   0  0  0  0  0  0  0  0  0  0  0  0
   -0.1810   10.4090   -3.2600 C   0  0  0  0  0  0  0  0  0  0  0  0
   -0.1550   10.2510   -1.9240 C   0  0  0  0  0  0  0  0  0  0  0  0
    0.9140   10.9440   -1.0690 C   0  0  1  0  0  0  0  0  0  0  0  0
    1.5120    9.9270   -0.0620 C   0  0  0  0  0  0  0  0  0  0  0  0
    0.4410    9.2440    0.7840 C   0  0  0  0  0  0  0  0  0  0  0  0
   -0.5700    8.5170   -0.0990 C   0  0  2  0  0  0  0  0  0  0  0  0
    0.0880    7.4270   -0.7520 O   0  0  0  0  0  0  0  0  0  0  0  0
   -1.2310    9.4400   -1.1610 C   0  0  0  0  0  0  0  0  0  0  0  0
   -2.1860   10.4380   -0.4600 C   0  0  0  0  0  0  0  0  0  0  0  0
   -2.1210    8.5550   -2.0740 C   0  0  0  0  0  0  0  0  0  0  0  0
    2.0330   11.7400   -1.8700 C   0  0  1  0  0  0  0  0  0  0  0  0
    3.1950   10.7750   -2.2610 C   0  0  0  0  0  0  0  0  0  0  0  0
    2.6620   12.8320   -0.9260 C   0  0  0  0  0  0  0  0  0  0  0  0
    1.9630   14.2050   -0.8910 C   0  0  0  0  0  0  0  0  0  0  0  0
    1.7110   14.7290   -2.3080 C   0  0  2  0  0  0  0  0  0  0  0  0
    3.1030   14.9350   -2.9970 C   0  0  0  0  0  0  0  0  0  0  0  0
    1.7747   17.3247    0.0361 H   0  0  0  0  0  0  0  0  0  0  0  0
    2.9089   16.2000   -0.7855 H   0  0  0  0  0  0  0  0  0  0  0  0
    3.2377   17.9659   -0.7855 H   0  0  0  0  0  0  0  0  0  0  0  0
    2.3733   17.5627   -2.9276 H   0  0  0  0  0  0  0  0  0  0  0  0
    0.8151   19.1534   -2.9530 H   0  0  0  0  0  0  0  0  0  0  0  0
   -0.3499   18.0884   -2.0303 H   0  0  0  0  0  0  0  0  0  0  0  0
    1.1175   18.7633    0.0276 H   0  0  0  0  0  0  0  0  0  0  0  0
    1.5746   20.1643   -1.0285 H   0  0  0  0  0  0  0  0  0  0  0  0
   -0.3843   20.7403   -1.3543 H   0  0  0  0  0  0  0  0  0  0  0  0
   -1.6044   17.8088    1.6005 H   0  0  0  0  0  0  0  0  0  0  0  0
   -2.4925   17.4397    0.0834 H   0  0  0  0  0  0  0  0  0  0  0  0
   -0.6969   17.4901    0.0834 H   0  0  0  0  0  0  0  0  0  0  0  0
   -3.4275   20.2020    1.0339 H   0  0  0  0  0  0  0  0  0  0  0  0
   -2.9232   20.9596   -0.5148 H   0  0  0  0  0  0  0  0  0  0  0  0
   -3.6647   19.3235   -0.5148 H   0  0  0  0  0  0  0  0  0  0  0  0
    0.1381   16.0944   -1.6485 H   0  0  0  0  0  0  0  0  0  0  0  0
   -0.6714   16.3338   -3.9138 H   0  0  0  0  0  0  0  0  0  0  0  0
    0.9573   16.6600   -4.5436 H   0  0  0  0  0  0  0  0  0  0  0  0
   -0.4636   14.1945   -4.8099 H   0  0  0  0  0  0  0  0  0  0  0  0
    1.2650   14.3740   -5.0991 H   0  0  0  0  0  0  0  0  0  0  0  0
   -0.5364   13.5659   -1.2858 H   0  0  0  0  0  0  0  0  0  0  0  0
   -1.3079   14.3750   -2.6917 H   0  0  0  0  0  0  0  0  0  0  0  0
   -1.0863   12.5925   -2.6917 H   0  0  0  0  0  0  0  0  0  0  0  0
    2.3606   12.6294   -3.8252 H   0  0  0  0  0  0  0  0  0  0  0  0
    0.1038   11.8387   -4.7859 H   0  0  0  0  0  0  0  0  0  0  0  0
    1.4824   10.6540   -4.4930 H   0  0  0  0  0  0  0  0  0  0  0  0
   -0.9277    9.8282   -3.8213 H   0  0  0  0  0  0  0  0  0  0  0  0
    0.3947   11.7463   -0.5243 H   0  0  0  0  0  0  0  0  0  0  0  0
    2.0626    9.1574   -0.6228 H   0  0  0  0  0  0  0  0  0  0  0  0
    2.1736   10.4813    0.6199 H   0  0  0  0  0  0  0  0  0  0  0  0
    0.9217    8.5167    1.4549 H   0  0  0  0  0  0  0  0  0  0  0  0
   -0.0894   10.0120    1.3661 H   0  0  0  0  0  0  0  0  0  0  0  0
   -1.3801    8.1587    0.5532 H   0  0  0  0  0  0  0  0  0  0  0  0
    0.8370    7.7920   -1.2530 H   0  0  0  0  0  0  0  0  0  0  0  0
   -2.0876   10.3351    0.6307 H   0  0  0  0  0  0  0  0  0  0  0  0
   -1.9254   11.4647   -0.7565 H   0  0  0  0  0  0  0  0  0  0  0  0
   -3.2232   10.2228   -0.7565 H   0  0  0  0  0  0  0  0  0  0  0  0
   -2.7639    7.9158   -1.4510 H   0  0  0  0  0  0  0  0  0  0  0  0
   -2.7483    9.1979   -2.7090 H   0  0  0  0  0  0  0  0  0  0  0  0
   -1.4817    7.9241   -2.7090 H   0  0  0  0  0  0  0  0  0  0  0  0
    3.6680   10.3822   -1.3489 H   0  0  0  0  0  0  0  0  0  0  0  0
    2.7943    9.9403   -2.8549 H   0  0  0  0  0  0  0  0  0  0  0  0
    3.9419   11.3222   -2.8549 H   0  0  0  0  0  0  0  0  0  0  0  0
    2.6572   12.4298    0.0978 H   0  0  0  0  0  0  0  0  0  0  0  0
    3.6625   13.0283   -1.3390 H   0  0  0  0  0  0  0  0  0  0  0  0
    1.0005   14.1054   -0.3679 H   0  0  0  0  0  0  0  0  0  0  0  0
    2.6157   14.9172   -0.3649 H   0  0  0  0  0  0  0  0  0  0  0  0
    3.8799   15.0500   -2.2268 H   0  0  0  0  0  0  0  0  0  0  0  0
    3.3347   14.0614   -3.6240 H   0  0  0  0  0  0  0  0  0  0  0  0
    3.0717   15.8383   -3.6240 H   0  0  0  0  0  0  0  0  0  0  0  0
  1  2  1  0
  2  3  1  0
  3  4  1  0
  4  5  1  0
  5  6  1  0
  6  7  1  0
  7  8  1  0
  7  9  1  0
  2 10  1  0
 10 11  1  0
 11 12  1  0
 12 13  1  0
 13 14  1  1
 13 15  1  0
 15 16  1  0
 16 17  1  0
 17 18  2  0
 18 19  1  0
 19 20  1  0
 20 21  1  0
 21 22  1  0
 22 23  1  0
 22 24  1  0
 24 25  1  0
 24 26  1  0
 19 27  1  0
 27 28  1  6
 27 29  1  0
 29 30  1  0
 30 31  1  0
 31 32  1  6
  7  5  1  0
 31 10  1  0
 31 13  1  0
 27 15  1  0
 24 18  1  0
  1 33  1  0
  1 34  1  0
  1 35  1  0
  2 36  1  6
  3 37  1  0
  3 38  1  0
  4 39  1  0
  4 40  1  0
  5 41  1  6
  8 42  1  0
  8 43  1  0
  8 44  1  0
  9 45  1  0
  9 46  1  0
  9 47  1  0
 10 48  1  1
 11 49  1  0
 11 50  1  0
 12 51  1  0
 12 52  1  0
 14 53  1  0
 14 54  1  0
 14 55  1  0
 15 56  1  6
 16 57  1  0
 16 58  1  0
 17 59  1  0
 19 60  1  1
 20 61  1  0
 20 62  1  0
 21 63  1  0
 21 64  1  0
 22 65  1  1
 23 66  1  0
 25 67  1  0
 25 68  1  0
 25 69  1  0
 26 70  1  0
 26 71  1  0
 26 72  1  0
 28 73  1  0
 28 74  1  0
 28 75  1  0
 29 76  1  0
 29 77  1  0
 30 78  1  0
 30 79  1  0
 32 80  1  0
 32 81  1  0
 32 82  1  0
M  END
>  <meeko>  (1) 
{"is_sidechain": [false], "intermolecular_energy": 2.731, "internal_energy": -0.839}

$$$$
EPH_relaxed_0001_pdb2pqr_Repair_342_r2_0001_out
     RDKit          3D

 82 86  0  0  0  0  0  0  0  0999 V2000
    3.8440   17.2720   -1.1780 C   0  0  0  0  0  0  0  0  0  0  0  0
    3.1750   16.8860   -2.5000 C   0  0  2  0  0  0  0  0  0  0  0  0
    1.8080   17.5750   -2.6820 C   0  0  0  0  0  0  0  0  0  0  0  0
    1.4420   18.5280   -1.5410 C   0  0  0  0  0  0  0  0  0  0  0  0
   -0.0420   18.6970   -1.4130 C   0  0  2  0  0  0  0  0  0  0  0  0
   -0.5140   20.0320   -1.6330 O   0  0  0  0  0  0  0  0  0  0  0  0
   -0.7000   19.5040   -0.3100 C   0  0  0  0  0  0  0  0  0  0  0  0
    0.1100   20.1940    0.7420 C   0  0  0  0  0  0  0  0  0  0  0  0
   -2.1300   19.2180    0.0290 C   0  0  0  0  0  0  0  0  0  0  0  0
    3.0110   15.3730   -2.5780 C   0  0  1  0  0  0  0  0  0  0  0  0
    4.3630   14.6340   -2.7580 C   0  0  0  0  0  0  0  0  0  0  0  0
    4.2510   13.2990   -1.9770 C   0  0  0  0  0  0  0  0  0  0  0  0
    2.7440   13.1610   -1.6560 C   0  0  1  0  0  0  0  0  0  0  0  0
    2.1050   12.5960   -2.9640 C   0  0  0  0  0  0  0  0  0  0  0  0
    2.3800   12.2870   -0.4120 C   0  0  2  0  0  0  0  0  0  0  0  0
    2.7900   10.8070   -0.5110 C   0  0  0  0  0  0  0  0  0  0  0  0
    1.7610    9.8980   -1.0990 C   0  0  0  0  0  0  0  0  0  0  0  0
    0.4590   10.1960   -1.2670 C   0  0  0  0  0  0  0  0  0  0  0  0
   -0.1180   11.5230   -0.7580 C   0  0  1  0  0  0  0  0  0  0  0  0
   -1.4460   11.2540   -0.0030 C   0  0  0  0  0  0  0  0  0  0  0  0
   -2.4470   10.4660   -0.8420 C   0  0  0  0  0  0  0  0  0  0  0  0
   -1.8570    9.1280   -1.2810 C   0  0  2  0  0  0  0  0  0  0  0  0
   -1.6700    8.3060   -0.1250 O   0  0  0  0  0  0  0  0  0  0  0  0
   -0.5110    9.2720   -2.0440 C   0  0  0  0  0  0  0  0  0  0  0  0
   -0.7670    9.8980   -3.4370 C   0  0  0  0  0  0  0  0  0  0  0  0
    0.0450    7.8460   -2.3040 C   0  0  0  0  0  0  0  0  0  0  0  0
    0.8800   12.4400    0.0710 C   0  0  1  0  0  0  0  0  0  0  0  0
    0.8540   12.0320    1.5760 C   0  0  0  0  0  0  0  0  0  0  0  0
    0.3810   13.9320    0.0070 C   0  0  0  0  0  0  0  0  0  0  0  0
    0.8710   14.7790   -1.1820 C   0  0  0  0  0  0  0  0  0  0  0  0
    2.3890   14.6610   -1.3500 C   0  0  2  0  0  0  0  0  0  0  0  0
    3.0600   15.2430   -0.0590 C   0  0  0  0  0  0  0  0  0  0  0  0
    3.2286   16.9169   -0.3382 H   0  0  0  0  0  0  0  0  0  0  0  0
    4.8409   16.8103   -1.1230 H   0  0  0  0  0  0  0  0  0  0  0  0
    3.9432   18.3661   -1.1230 H   0  0  0  0  0  0  0  0  0  0  0  0
    3.8290   17.2307   -3.3145 H   0  0  0  0  0  0  0  0  0  0  0  0
    1.8307   18.1490   -3.6201 H   0  0  0  0  0  0  0  0  0  0  0  0
    1.0470   16.7808   -2.6940 H   0  0  0  0  0  0  0  0  0  0  0  0
    1.8371   18.1229   -0.5978 H   0  0  0  0  0  0  0  0  0  0  0  0
    1.8809   19.5120   -1.7625 H   0  0  0  0  0  0  0  0  0  0  0  0
   -0.2135   17.6751   -1.7823 H   0  0  0  0  0  0  0  0  0  0  0  0
   -0.2466   19.8903    1.7373 H   0  0  0  0  0  0  0  0  0  0  0  0
    1.1684   19.9158    0.6310 H   0  0  0  0  0  0  0  0  0  0  0  0
    0.0036   21.2832    0.6310 H   0  0  0  0  0  0  0  0  0  0  0  0
   -2.2499   19.1940    1.1222 H   0  0  0  0  0  0  0  0  0  0  0  0
   -2.7715   20.0056   -0.3931 H   0  0  0  0  0  0  0  0  0  0  0  0
   -2.4192   18.2442   -0.3931 H   0  0  0  0  0  0  0  0  0  0  0  0
    2.3282   15.3056   -3.4378 H   0  0  0  0  0  0  0  0  0  0  0  0
    4.5468   14.4348   -3.8241 H   0  0  0  0  0  0  0  0  0  0  0  0
    5.1987   15.2425   -2.3820 H   0  0  0  0  0  0  0  0  0  0  0  0
    4.5951   12.4570   -2.5956 H   0  0  0  0  0  0  0  0  0  0  0  0
    4.8734   13.2924   -1.0700 H   0  0  0  0  0  0  0  0  0  0  0  0
    1.3042   11.8879   -2.7046 H   0  0  0  0  0  0  0  0  0  0  0  0
    1.6854   13.4239   -3.5544 H   0  0  0  0  0  0  0  0  0  0  0  0
    2.8753   12.0782   -3.5544 H   0  0  0  0  0  0  0  0  0  0  0  0
    3.0151   12.7206    0.3745 H   0  0  0  0  0  0  0  0  0  0  0  0
    3.6940   10.7457   -1.1348 H   0  0  0  0  0  0  0  0  0  0  0  0
    2.9440   10.4640    0.5228 H   0  0  0  0  0  0  0  0  0  0  0  0
    2.0952    8.9010   -1.4220 H   0  0  0  0  0  0  0  0  0  0  0  0
   -0.3138   12.1327   -1.6524 H   0  0  0  0  0  0  0  0  0  0  0  0
   -1.2230   10.6817    0.9095 H   0  0  0  0  0  0  0  0  0  0  0  0
   -1.9002   12.2282    0.2308 H   0  0  0  0  0  0  0  0  0  0  0  0
   -3.3517   10.2817   -0.2441 H   0  0  0  0  0  0  0  0  0  0  0  0
   -2.6921   11.0531   -1.7394 H   0  0  0  0  0  0  0  0  0  0  0  0
   -2.5673    8.6690   -1.9844 H   0  0  0  0  0  0  0  0  0  0  0  0
   -0.7470    8.4090    0.1620 H   0  0  0  0  0  0  0  0  0  0  0  0
   -1.1808   10.9098   -3.3139 H   0  0  0  0  0  0  0  0  0  0  0  0
    0.1803    9.9544   -3.9933 H   0  0  0  0  0  0  0  0  0  0  0  0
   -1.4824    9.2745   -3.9933 H   0  0  0  0  0  0  0  0  0  0  0  0
    0.2394    7.3474   -1.3430 H   0  0  0  0  0  0  0  0  0  0  0  0
   -0.6920    7.2638   -2.8766 H   0  0  0  0  0  0  0  0  0  0  0  0
    0.9816    7.9164   -2.8766 H   0  0  0  0  0  0  0  0  0  0  0  0
    0.9115   12.9349    2.2017 H   0  0  0  0  0  0  0  0  0  0  0  0
   -0.0803   11.4938    1.7939 H   0  0  0  0  0  0  0  0  0  0  0  0
    1.7124   11.3796    1.7939 H   0  0  0  0  0  0  0  0  0  0  0  0
   -0.7183   13.9137   -0.0284 H   0  0  0  0  0  0  0  0  0  0  0  0
    0.8063   14.4156    0.8988 H   0  0  0  0  0  0  0  0  0  0  0  0
    0.3788   14.4280   -2.1010 H   0  0  0  0  0  0  0  0  0  0  0  0
    0.6201   15.8325   -0.9894 H   0  0  0  0  0  0  0  0  0  0  0  0
    2.5716   14.8194    0.8309 H   0  0  0  0  0  0  0  0  0  0  0  0
    4.1282   14.9806   -0.0508 H   0  0  0  0  0  0  0  0  0  0  0  0
    2.9512   16.3376   -0.0508 H   0  0  0  0  0  0  0  0  0  0  0  0
  1  2  1  0
  2  3  1  0
  3  4  1  0
  4  5  1  0
  5  6  1  0
  6  7  1  0
  7  8  1  0
  7  9  1  0
  2 10  1  0
 10 11  1  0
 11 12  1  0
 12 13  1  0
 13 14  1  6
 13 15  1  0
 15 16  1  0
 16 17  1  0
 17 18  2  0
 18 19  1  0
 19 20  1  0
 20 21  1  0
 21 22  1  0
 22 23  1  0
 22 24  1  0
 24 25  1  0
 24 26  1  0
 19 27  1  0
 27 28  1  1
 27 29  1  0
 29 30  1  0
 30 31  1  0
 31 32  1  1
  7  5  1  0
 31 10  1  0
 31 13  1  0
 27 15  1  0
 24 18  1  0
  1 33  1  0
  1 34  1  0
  1 35  1  0
  2 36  1  6
  3 37  1  0
  3 38  1  0
  4 39  1  0
  4 40  1  0
  5 41  1  6
  8 42  1  0
  8 43  1  0
  8 44  1  0
  9 45  1  0
  9 46  1  0
  9 47  1  0
 10 48  1  6
 11 49  1  0
 11 50  1  0
 12 51  1  0
 12 52  1  0
 14 53  1  0
 14 54  1  0
 14 55  1  0
 15 56  1  1
 16 57  1  0
 16 58  1  0
 17 59  1  0
 19 60  1  6
 20 61  1  0
 20 62  1  0
 21 63  1  0
 21 64  1  0
 22 65  1  6
 23 66  1  0
 25 67  1  0
 25 68  1  0
 25 69  1  0
 26 70  1  0
 26 71  1  0
 26 72  1  0
 28 73  1  0
 28 74  1  0
 28 75  1  0
 29 76  1  0
 29 77  1  0
 30 78  1  0
 30 79  1  0
 32 80  1  0
 32 81  1  0
 32 82  1  0
M  END
>  <meeko>  (2) 
{"is_sidechain": [false], "intermolecular_energy": 2.731, "internal_energy": -0.839}

$$$$
EPH_relaxed_0001_pdb2pqr_Repair_342_r2_0001_out
     RDKit          3D

 82 86  0  0  0  0  0  0  0  0999 V2000
   -2.8080    7.5400   -3.0560 C   0  0  0  0  0  0  0  0  0  0  0  0
   -2.9940    7.8330   -1.5640 C   0  0  2  0  0  0  0  0  0  0  0  0
   -4.4790    7.8100   -1.1490 C   0  0  0  0  0  0  0  0  0  0  0  0
   -5.2600    6.6240   -1.7210 C   0  0  0  0  0  0  0  0  0  0  0  0
   -6.4250    7.0750   -2.5480 C   0  0  2  0  0  0  0  0  0  0  0  0
   -6.9390    8.3690   -2.2050 O   0  0  0  0  0  0  0  0  0  0  0  0
   -7.8250    7.2580   -1.9930 C   0  0  0  0  0  0  0  0  0  0  0  0
   -8.1340    6.9930   -0.5520 C   0  0  0  0  0  0  0  0  0  0  0  0
   -8.9830    7.2210   -2.9410 C   0  0  0  0  0  0  0  0  0  0  0  0
   -2.3770    9.1830   -1.2180 C   0  0  1  0  0  0  0  0  0  0  0  0
   -2.8880    9.7440    0.1360 C   0  0  0  0  0  0  0  0  0  0  0  0
   -1.6990   10.4990    0.7830 C   0  0  0  0  0  0  0  0  0  0  0  0
   -0.6570   10.6340   -0.3520 C   0  0  1  0  0  0  0  0  0  0  0  0
   -1.1390   11.8560   -1.1950 C   0  0  0  0  0  0  0  0  0  0  0  0
    0.8330   10.7910    0.0930 C   0  0  2  0  0  0  0  0  0  0  0  0
    1.1390   12.0550    0.9160 C   0  0  0  0  0  0  0  0  0  0  0  0
    1.5440   13.2510    0.1200 C   0  0  0  0  0  0  0  0  0  0  0  0
    1.9330   13.2380   -1.1680 C   0  0  0  0  0  0  0  0  0  0  0  0
    2.0890   11.9160   -1.9310 C   0  0  1  0  0  0  0  0  0  0  0  0
    3.4320   11.9210   -2.7070 C   0  0  0  0  0  0  0  0  0  0  0  0
    3.5800   13.1390   -3.6140 C   0  0  0  0  0  0  0  0  0  0  0  0
    3.4780   14.4330   -2.8100 C   0  0  2  0  0  0  0  0  0  0  0  0
    4.6090   14.5250   -1.9390 O   0  0  0  0  0  0  0  0  0  0  0  0
    2.1690   14.5370   -1.9790 C   0  0  0  0  0  0  0  0  0  0  0  0
    0.9640   14.7410   -2.9300 C   0  0  0  0  0  0  0  0  0  0  0  0
    2.2560   15.8190   -1.1080 C   0  0  0  0  0  0  0  0  0  0  0  0
    1.8830   10.5940   -1.0750 C   0  0  1  0  0  0  0  0  0  0  0  0
    3.2270   10.1810   -0.4010 C   0  0  0  0  0  0  0  0  0  0  0  0
    1.4890    9.4130   -2.0400 C   0  0  0  0  0  0  0  0  0  0  0  0
   -0.0100    9.2360   -2.3460 C   0  0  0  0  0  0  0  0  0  0  0  0
   -0.8380    9.2400   -1.0570 C   0  0  2  0  0  0  0  0  0  0  0  0
   -0.3910    8.0090   -0.1980 C   0  0  0  0  0  0  0  0  0  0  0  0
   -2.2221    6.6171   -3.1782 H   0  0  0  0  0  0  0  0  0  0  0  0
   -3.7924    7.4149   -3.5306 H   0  0  0  0  0  0  0  0  0  0  0  0
   -2.2759    8.3776   -3.5306 H   0  0  0  0  0  0  0  0  0  0  0  0
   -2.4821    7.0365   -1.0040 H   0  0  0  0  0  0  0  0  0  0  0  0
   -4.5320    7.7637   -0.0513 H   0  0  0  0  0  0  0  0  0  0  0  0
   -4.9398    8.7232   -1.5535 H   0  0  0  0  0  0  0  0  0  0  0  0
   -4.5866    6.0241   -2.3509 H   0  0  0  0  0  0  0  0  0  0  0  0
   -5.6462    6.0298   -0.8797 H   0  0  0  0  0  0  0  0  0  0  0  0
   -6.0439    6.5287   -3.4234 H   0  0  0  0  0  0  0  0  0  0  0  0
   -7.4521    7.5778    0.0828 H   0  0  0  0  0  0  0  0  0  0  0  0
   -9.1731    7.2850   -0.3401 H   0  0  0  0  0  0  0  0  0  0  0  0
   -8.0038    5.9215   -0.3401 H   0  0  0  0  0  0  0  0  0  0  0  0
   -9.9230    7.1910   -2.3706 H   0  0  0  0  0  0  0  0  0  0  0  0
   -8.9671    8.1201   -3.5745 H   0  0  0  0  0  0  0  0  0  0  0  0
   -8.9097    6.3247   -3.5745 H   0  0  0  0  0  0  0  0  0  0  0  0
   -2.6840    9.7591   -2.1034 H   0  0  0  0  0  0  0  0  0  0  0  0
   -3.7283   10.4336   -0.0324 H   0  0  0  0  0  0  0  0  0  0  0  0
   -3.2454    8.9348    0.7897 H   0  0  0  0  0  0  0  0  0  0  0  0
   -2.0161   11.4904    1.1387 H   0  0  0  0  0  0  0  0  0  0  0  0
   -1.2954    9.9689    1.6583 H   0  0  0  0  0  0  0  0  0  0  0  0
   -1.4577   12.6641   -0.5202 H   0  0  0  0  0  0  0  0  0  0  0  0
   -0.3140   12.2121   -1.8294 H   0  0  0  0  0  0  0  0  0  0  0  0
   -1.9850   11.5530   -1.8294 H   0  0  0  0  0  0  0  0  0  0  0  0
    0.9622    9.9455    0.7847 H   0  0  0  0  0  0  0  0  0  0  0  0
    0.2355   12.3163    1.4864 H   0  0  0  0  0  0  0  0  0  0  0  0
    2.0025   11.8042    1.5496 H   0  0  0  0  0  0  0  0  0  0  0  0
    1.5226   14.2256    0.6296 H   0  0  0  0  0  0  0  0  0  0  0  0
    1.2493   11.8730   -2.6403 H   0  0  0  0  0  0  0  0  0  0  0  0
    4.2585   11.9196   -1.9811 H   0  0  0  0  0  0  0  0  0  0  0  0
    3.4517   11.0254   -3.3454 H   0  0  0  0  0  0  0  0  0  0  0  0
    4.5603   13.1005   -4.1115 H   0  0  0  0  0  0  0  0  0  0  0  0
    2.7703   13.1232   -4.3584 H   0  0  0  0  0  0  0  0  0  0  0  0
    3.4604   15.2663   -3.5279 H   0  0  0  0  0  0  0  0  0  0  0  0
    4.3480   14.1550   -1.0780 H   0  0  0  0  0  0  0  0  0  0  0  0
    0.0507   14.8956   -2.3367 H   0  0  0  0  0  0  0  0  0  0  0  0
    1.1426   15.6217   -3.5644 H   0  0  0  0  0  0  0  0  0  0  0  0
    0.8427   13.8506   -3.5644 H   0  0  0  0  0  0  0  0  0  0  0  0
    2.2372   15.5412   -0.0438 H   0  0  0  0  0  0  0  0  0  0  0  0
    3.1923   16.3513   -1.3315 H   0  0  0  0  0  0  0  0  0  0  0  0
    1.4002   16.4729   -1.3315 H   0  0  0  0  0  0  0  0  0  0  0  0
    3.1145   10.2156    0.6927 H   0  0  0  0  0  0  0  0  0  0  0  0
    3.4935    9.1595   -0.7101 H   0  0  0  0  0  0  0  0  0  0  0  0
    4.0211   10.8766   -0.7101 H   0  0  0  0  0  0  0  0  0  0  0  0
    2.0065    9.5782   -2.9965 H   0  0  0  0  0  0  0  0  0  0  0  0
    1.7840    8.4965   -1.5081 H   0  0  0  0  0  0  0  0  0  0  0  0
   -0.3452   10.0613   -2.9914 H   0  0  0  0  0  0  0  0  0  0  0  0
   -0.1527    8.2693   -2.8510 H   0  0  0  0  0  0  0  0  0  0  0  0
   -0.4805    8.2555    0.8703 H   0  0  0  0  0  0  0  0  0  0  0  0
   -1.0335    7.1469   -0.4305 H   0  0  0  0  0  0  0  0  0  0  0  0
    0.6549    7.7600   -0.4305 H   0  0  0  0  0  0  0  0  0  0  0  0
  1  2  1  0
  2  3  1  0
  3  4  1  0
  4  5  1  0
  5  6  1  0
  6  7  1  0
  7  8  1  0
  7  9  1  0
  2 10  1  0
 10 11  1  0
 11 12  1  0
 12 13  1  0
 13 14  1  6
 13 15  1  0
 15 16  1  0
 16 17  1  0
 17 18  2  0
 18 19  1  0
 19 20  1  0
 20 21  1  0
 21 22  1  0
 22 23  1  0
 22 24  1  0
 24 25  1  0
 24 26  1  0
 19 27  1  0
 27 28  1  1
 27 29  1  0
 29 30  1  0
 30 31  1  0
 31 32  1  1
  7  5  1  0
 31 10  1  0
 31 13  1  0
 27 15  1  0
 24 18  1  0
  1 33  1  0
  1 34  1  0
  1 35  1  0
  2 36  1  1
  3 37  1  0
  3 38  1  0
  4 39  1  0
  4 40  1  0
  5 41  1  6
  8 42  1  0
  8 43  1  0
  8 44  1  0
  9 45  1  0
  9 46  1  0
  9 47  1  0
 10 48  1  6
 11 49  1  0
 11 50  1  0
 12 51  1  0
 12 52  1  0
 14 53  1  0
 14 54  1  0
 14 55  1  0
 15 56  1  1
 16 57  1  0
 16 58  1  0
 17 59  1  0
 19 60  1  6
 20 61  1  0
 20 62  1  0
 21 63  1  0
 21 64  1  0
 22 65  1  6
 23 66  1  0
 25 67  1  0
 25 68  1  0
 25 69  1  0
 26 70  1  0
 26 71  1  0
 26 72  1  0
 28 73  1  0
 28 74  1  0
 28 75  1  0
 29 76  1  0
 29 77  1  0
 30 78  1  0
 30 79  1  0
 32 80  1  0
 32 81  1  0
 32 82  1  0
M  END
>  <meeko>  (3) 
{"is_sidechain": [false], "intermolecular_energy": 2.731, "internal_energy": -0.839}

$$$$
EPH_relaxed_0001_pdb2pqr_Repair_342_r2_0001_out
     RDKit          3D

 82 86  0  0  0  0  0  0  0  0999 V2000
   -0.7210    8.3050   -0.6800 C   0  0  0  0  0  0  0  0  0  0  0  0
   -1.5930    9.3720   -0.0110 C   0  0  2  0  0  0  0  0  0  0  0  0
   -2.8890    9.6410   -0.8010 C   0  0  0  0  0  0  0  0  0  0  0  0
   -4.1380    9.0260   -0.1620 C   0  0  0  0  0  0  0  0  0  0  0  0
   -4.4030    7.6450   -0.6800 C   0  0  2  0  0  0  0  0  0  0  0  0
   -4.4920    7.5480   -2.1080 O   0  0  0  0  0  0  0  0  0  0  0  0
   -5.6910    7.2460   -1.3760 C   0  0  0  0  0  0  0  0  0  0  0  0
   -6.7990    8.2280   -1.5910 C   0  0  0  0  0  0  0  0  0  0  0  0
   -6.0670    5.7970   -1.4090 C   0  0  0  0  0  0  0  0  0  0  0  0
   -0.8010   10.6650    0.1470 C   0  0  1  0  0  0  0  0  0  0  0  0
    0.3250   10.5500    1.2090 C   0  0  0  0  0  0  0  0  0  0  0  0
    1.5060   11.4190    0.7040 C   0  0  0  0  0  0  0  0  0  0  0  0
    0.9070   12.2600   -0.4470 C   0  0  1  0  0  0  0  0  0  0  0  0
    0.1740   13.4430    0.2600 C   0  0  0  0  0  0  0  0  0  0  0  0
    1.9150   12.7700   -1.5280 C   0  0  2  0  0  0  0  0  0  0  0  0
    3.0020   13.7260   -1.0070 C   0  0  0  0  0  0  0  0  0  0  0  0
    2.6510   15.1770   -1.0550 C   0  0  0  0  0  0  0  0  0  0  0  0
    1.6340   15.7120   -1.7560 C   0  0  0  0  0  0  0  0  0  0  0  0
    0.7710   14.8440   -2.6790 C   0  0  1  0  0  0  0  0  0  0  0  0
    0.5910   15.5600   -4.0440 C   0  0  0  0  0  0  0  0  0  0  0  0
    0.0440   16.9760   -3.8950 C   0  0  0  0  0  0  0  0  0  0  0  0
    0.9600   17.8250   -3.0170 C   0  0  2  0  0  0  0  0  0  0  0  0
    2.2040   18.0160   -3.6990 O   0  0  0  0  0  0  0  0  0  0  0  0
    1.2220   17.1990   -1.6190 C   0  0  0  0  0  0  0  0  0  0  0  0
   -0.0700   17.2690   -0.7670 C   0  0  0  0  0  0  0  0  0  0  0  0
    2.2710   18.0810   -0.8900 C   0  0  0  0  0  0  0  0  0  0  0  0
    1.2310   13.3310   -2.8390 C   0  0  1  0  0  0  0  0  0  0  0  0
    2.2890   13.2150   -3.9790 C   0  0  0  0  0  0  0  0  0  0  0  0
   -0.0030   12.4630   -3.2890 C   0  0  0  0  0  0  0  0  0  0  0  0
   -0.8930   11.8890   -2.1700 C   0  0  0  0  0  0  0  0  0  0  0  0
   -0.0480   11.1940   -1.0990 C   0  0  2  0  0  0  0  0  0  0  0  0
    0.6850    9.9860   -1.7760 C   0  0  0  0  0  0  0  0  0  0  0  0
   -0.2257    7.6989    0.0928 H   0  0  0  0  0  0  0  0  0  0  0  0
   -1.3510    7.6566   -1.3066 H   0  0  0  0  0  0  0  0  0  0  0  0
    0.0399    8.7933   -1.3066 H   0  0  0  0  0  0  0  0  0  0  0  0
   -1.8833    8.9902    0.9789 H   0  0  0  0  0  0  0  0  0  0  0  0
   -3.0342   10.7292   -0.8701 H   0  0  0  0  0  0  0  0  0  0  0  0
   -2.7677    9.1705   -1.7879 H   0  0  0  0  0  0  0  0  0  0  0  0
   -3.9935    8.9765    0.9273 H   0  0  0  0  0  0  0  0  0  0  0  0
   -5.0006    9.6592   -0.4169 H   0  0  0  0  0  0  0  0  0  0  0  0
   -3.8481    7.1983    0.1582 H   0  0  0  0  0  0  0  0  0  0  0  0
   -7.1821    8.5675   -0.6174 H   0  0  0  0  0  0  0  0  0  0  0  0
   -6.4191    9.0914   -2.1569 H   0  0  0  0  0  0  0  0  0  0  0  0
   -7.6105    7.7471   -2.1569 H   0  0  0  0  0  0  0  0  0  0  0  0
   -6.1648    5.4201   -0.3802 H   0  0  0  0  0  0  0  0  0  0  0  0
   -7.0256    5.6788   -1.9355 H   0  0  0  0  0  0  0  0  0  0  0  0
   -5.2869    5.2276   -1.9355 H   0  0  0  0  0  0  0  0  0  0  0  0
   -1.6189   11.3513    0.4115 H   0  0  0  0  0  0  0  0  0  0  0  0
   -0.0312   10.9226    2.1807 H   0  0  0  0  0  0  0  0  0  0  0  0
    0.6345    9.5032    1.3450 H   0  0  0  0  0  0  0  0  0  0  0  0
    1.8799   12.0708    1.5074 H   0  0  0  0  0  0  0  0  0  0  0  0
    2.3610   10.8102    0.3747 H   0  0  0  0  0  0  0  0  0  0  0  0
    0.2492   13.3216    1.3507 H   0  0  0  0  0  0  0  0  0  0  0  0
    0.6416   14.3936   -0.0362 H   0  0  0  0  0  0  0  0  0  0  0  0
   -0.8854   13.4475   -0.0362 H   0  0  0  0  0  0  0  0  0  0  0  0
    2.4412   11.8472   -1.8135 H   0  0  0  0  0  0  0  0  0  0  0  0
    3.2139   13.4619    0.0396 H   0  0  0  0  0  0  0  0  0  0  0  0
    3.8655   13.5992   -1.6765 H   0  0  0  0  0  0  0  0  0  0  0  0
    3.2760   15.8663   -0.4683 H   0  0  0  0  0  0  0  0  0  0  0  0
   -0.2034   14.7438   -2.1786 H   0  0  0  0  0  0  0  0  0  0  0  0
    1.5680   15.6107   -4.5470 H   0  0  0  0  0  0  0  0  0  0  0  0
   -0.1374   14.9811   -4.6308 H   0  0  0  0  0  0  0  0  0  0  0  0
   -0.0318   17.4392   -4.8898 H   0  0  0  0  0  0  0  0  0  0  0  0
   -0.9465   16.9216   -3.4197 H   0  0  0  0  0  0  0  0  0  0  0  0
    0.4515   18.7843   -2.8405 H   0  0  0  0  0  0  0  0  0  0  0  0
    2.1540   18.8660   -4.1690 H   0  0  0  0  0  0  0  0  0  0  0  0
    0.1937   17.2547    0.3008 H   0  0  0  0  0  0  0  0  0  0  0  0
   -0.6120   18.1978   -0.9984 H   0  0  0  0  0  0  0  0  0  0  0  0
   -0.7091   16.4042   -0.9984 H   0  0  0  0  0  0  0  0  0  0  0  0
    2.1460   17.9759    0.1978 H   0  0  0  0  0  0  0  0  0  0  0  0
    3.2832   17.7586   -1.1756 H   0  0  0  0  0  0  0  0  0  0  0  0
    2.1272   19.1335   -1.1756 H   0  0  0  0  0  0  0  0  0  0  0  0
    3.2913   13.1051   -3.5393 H   0  0  0  0  0  0  0  0  0  0  0  0
    2.0631   12.3362   -4.6009 H   0  0  0  0  0  0  0  0  0  0  0  0
    2.2589   14.1218   -4.6009 H   0  0  0  0  0  0  0  0  0  0  0  0
   -0.6379   13.0935   -3.9288 H   0  0  0  0  0  0  0  0  0  0  0  0
    0.4300   11.5854   -3.7914 H   0  0  0  0  0  0  0  0  0  0  0  0
   -1.4598   12.7090   -1.7049 H   0  0  0  0  0  0  0  0  0  0  0  0
   -1.5773   11.1493   -2.6111 H   0  0  0  0  0  0  0  0  0  0  0  0
    1.0890    9.3202   -0.9991 H   0  0  0  0  0  0  0  0  0  0  0  0
   -0.0275    9.4289   -2.4021 H   0  0  0  0  0  0  0  0  0  0  0  0
    1.5082   10.3608   -2.4021 H   0  0  0  0  0  0  0  0  0  0  0  0
  1  2  1  0
  2  3  1  0
  3  4  1  0
  4  5  1  0
  5  6  1  0
  6  7  1  0
  7  8  1  0
  7  9  1  0
  2 10  1  0
 10 11  1  0
 11 12  1  0
 12 13  1  0
 13 14  1  1
 13 15  1  0
 15 16  1  0
 16 17  1  0
 17 18  2  0
 18 19  1  0
 19 20  1  0
 20 21  1  0
 21 22  1  0
 22 23  1  0
 22 24  1  0
 24 25  1  0
 24 26  1  0
 19 27  1  0
 27 28  1  6
 27 29  1  0
 29 30  1  0
 30 31  1  0
 31 32  1  6
  7  5  1  0
 31 10  1  0
 31 13  1  0
 27 15  1  0
 24 18  1  0
  1 33  1  0
  1 34  1  0
  1 35  1  0
  2 36  1  1
  3 37  1  0
  3 38  1  0
  4 39  1  0
  4 40  1  0
  5 41  1  1
  8 42  1  0
  8 43  1  0
  8 44  1  0
  9 45  1  0
  9 46  1  0
  9 47  1  0
 10 48  1  1
 11 49  1  0
 11 50  1  0
 12 51  1  0
 12 52  1  0
 14 53  1  0
 14 54  1  0
 14 55  1  0
 15 56  1  6
 16 57  1  0
 16 58  1  0
 17 59  1  0
 19 60  1  1
 20 61  1  0
 20 62  1  0
 21 63  1  0
 21 64  1  0
 22 65  1  1
 23 66  1  0
 25 67  1  0
 25 68  1  0
 25 69  1  0
 26 70  1  0
 26 71  1  0
 26 72  1  0
 28 73  1  0
 28 74  1  0
 28 75  1  0
 29 76  1  0
 29 77  1  0
 30 78  1  0
 30 79  1  0
 32 80  1  0
 32 81  1  0
 32 82  1  0
M  END
>  <meeko>  (4) 
{"is_sidechain": [false], "intermolecular_energy": 2.731, "internal_energy": -0.839}

$$$$
EPH_relaxed_0001_pdb2pqr_Repair_342_r2_0001_out
     RDKit          3D

 82 86  0  0  0  0  0  0  0  0999 V2000
   -1.0770    7.8320   -1.3230 C   0  0  0  0  0  0  0  0  0  0  0  0
   -1.0790    8.9470   -0.2730 C   0  0  2  0  0  0  0  0  0  0  0  0
   -2.3850    9.7650   -0.2970 C   0  0  0  0  0  0  0  0  0  0  0  0
   -3.6380    8.9350   -0.0040 C   0  0  0  0  0  0  0  0  0  0  0  0
   -4.4170    8.6480   -1.2510 C   0  0  2  0  0  0  0  0  0  0  0  0
   -5.8310    8.8560   -1.1350 O   0  0  0  0  0  0  0  0  0  0  0  0
   -5.4070    7.5050   -1.3740 C   0  0  0  0  0  0  0  0  0  0  0  0
   -5.6700    6.5730   -0.2320 C   0  0  0  0  0  0  0  0  0  0  0  0
   -5.7500    6.9990   -2.7410 C   0  0  0  0  0  0  0  0  0  0  0  0
    0.1170    9.8670   -0.4900 C   0  0  1  0  0  0  0  0  0  0  0  0
    1.4310    9.0860   -0.7570 C   0  0  0  0  0  0  0  0  0  0  0  0
    2.2540    9.9280   -1.7660 C   0  0  0  0  0  0  0  0  0  0  0  0
    1.5510   11.3050   -1.7900 C   0  0  1  0  0  0  0  0  0  0  0  0
    2.0920   12.0530   -0.5310 C   0  0  0  0  0  0  0  0  0  0  0  0
    1.7370   12.1530   -3.0900 C   0  0  2  0  0  0  0  0  0  0  0  0
    3.1880   12.5650   -3.3980 C   0  0  0  0  0  0  0  0  0  0  0  0
    3.6160   13.8730   -2.8200 C   0  0  0  0  0  0  0  0  0  0  0  0
    2.7930   14.8170   -2.3260 C   0  0  0  0  0  0  0  0  0  0  0  0
    1.2700   14.6550   -2.4070 C   0  0  1  0  0  0  0  0  0  0  0  0
    0.6350   15.9770   -2.9100 C   0  0  0  0  0  0  0  0  0  0  0  0
    1.0490   17.1820   -2.0710 C   0  0  0  0  0  0  0  0  0  0  0  0
    2.5670   17.3440   -2.0620 C   0  0  2  0  0  0  0  0  0  0  0  0
    3.0010   17.6890   -3.3810 O   0  0  0  0  0  0  0  0  0  0  0  0
    3.3160   16.0700   -1.5820 C   0  0  0  0  0  0  0  0  0  0  0  0
    3.0800   15.8680   -0.0640 C   0  0  0  0  0  0  0  0  0  0  0  0
    4.8390   16.3180   -1.7550 C   0  0  0  0  0  0  0  0  0  0  0  0
    0.7500   13.3840   -3.2080 C   0  0  1  0  0  0  0  0  0  0  0  0
    0.6380   13.7210   -4.7260 C   0  0  0  0  0  0  0  0  0  0  0  0
   -0.7060   13.0310   -2.7230 C   0  0  0  0  0  0  0  0  0  0  0  0
   -0.8250   12.0930   -1.5070 C   0  0  0  0  0  0  0  0  0  0  0  0
    0.0500   10.8490   -1.6860 C   0  0  2  0  0  0  0  0  0  0  0  0
   -0.4840   10.0640   -2.9330 C   0  0  0  0  0  0  0  0  0  0  0  0
   -1.0752    6.8541   -0.8194 H   0  0  0  0  0  0  0  0  0  0  0  0
   -1.9753    7.9189   -1.9519 H   0  0  0  0  0  0  0  0  0  0  0  0
   -0.1790    7.9222   -1.9519 H   0  0  0  0  0  0  0  0  0  0  0  0
   -1.0069    8.4707    0.7159 H   0  0  0  0  0  0  0  0  0  0  0  0
   -2.3105   10.5600    0.4596 H   0  0  0  0  0  0  0  0  0  0  0  0
   -2.4953   10.1638   -1.3162 H   0  0  0  0  0  0  0  0  0  0  0  0
   -3.3351    7.9820    0.4543 H   0  0  0  0  0  0  0  0  0  0  0  0
   -4.2807    9.5131    0.6762 H   0  0  0  0  0  0  0  0  0  0  0  0
   -3.5714    8.9630   -1.8801 H   0  0  0  0  0  0  0  0  0  0  0  0
   -5.5196    7.1060    0.7184 H   0  0  0  0  0  0  0  0  0  0  0  0
   -6.7062    6.2081   -0.2877 H   0  0  0  0  0  0  0  0  0  0  0  0
   -4.9774    5.7202   -0.2877 H   0  0  0  0  0  0  0  0  0  0  0  0
   -6.3652    6.0914   -2.6524 H   0  0  0  0  0  0  0  0  0  0  0  0
   -6.3118    7.7709   -3.2874 H   0  0  0  0  0  0  0  0  0  0  0  0
   -4.8249    6.7630   -3.2874 H   0  0  0  0  0  0  0  0  0  0  0  0
    0.0946   10.4256    0.4573 H   0  0  0  0  0  0  0  0  0  0  0  0
    1.9940    8.9603    0.1796 H   0  0  0  0  0  0  0  0  0  0  0  0
    1.2204    8.0836   -1.1580 H   0  0  0  0  0  0  0  0  0  0  0  0
    3.2958   10.0298   -1.4280 H   0  0  0  0  0  0  0  0  0  0  0  0
    2.2945    9.4629   -2.7620 H   0  0  0  0  0  0  0  0  0  0  0  0
    1.7289   11.5510    0.3779 H   0  0  0  0  0  0  0  0  0  0  0  0
    3.1919   12.0412   -0.5419 H   0  0  0  0  0  0  0  0  0  0  0  0
    1.7364   13.0939   -0.5419 H   0  0  0  0  0  0  0  0  0  0  0  0
    1.4541   11.4404   -3.8788 H   0  0  0  0  0  0  0  0  0  0  0  0
    3.8542   11.7843   -3.0023 H   0  0  0  0  0  0  0  0  0  0  0  0
    3.2458   12.6816   -4.4903 H   0  0  0  0  0  0  0  0  0  0  0  0
    4.6954   14.0834   -2.7956 H   0  0  0  0  0  0  0  0  0  0  0  0
    0.9311   14.4451   -1.3818 H   0  0  0  0  0  0  0  0  0  0  0  0
    0.9508   16.1464   -3.9500 H   0  0  0  0  0  0  0  0  0  0  0  0
   -0.4572   15.8741   -2.8298 H   0  0  0  0  0  0  0  0  0  0  0  0
    0.5925   18.0891   -2.4938 H   0  0  0  0  0  0  0  0  0  0  0  0
    0.7062   17.0252   -1.0376 H   0  0  0  0  0  0  0  0  0  0  0  0
    2.8099   18.1400   -1.3427 H   0  0  0  0  0  0  0  0  0  0  0  0
    2.5500   17.0950   -4.0040 H   0  0  0  0  0  0  0  0  0  0  0  0
    3.7960   16.4809    0.5031 H   0  0  0  0  0  0  0  0  0  0  0  0
    2.0542   16.1722    0.1913 H   0  0  0  0  0  0  0  0  0  0  0  0
    3.2222   14.8075    0.1913 H   0  0  0  0  0  0  0  0  0  0  0  0
    5.3127   16.3951   -0.7652 H   0  0  0  0  0  0  0  0  0  0  0  0
    5.2860   15.4808   -2.3112 H   0  0  0  0  0  0  0  0  0  0  0  0
    4.9973   17.2537   -2.3112 H   0  0  0  0  0  0  0  0  0  0  0  0
    0.2932   14.7585   -4.8468 H   0  0  0  0  0  0  0  0  0  0  0  0
    1.6232   13.6044   -5.2011 H   0  0  0  0  0  0  0  0  0  0  0  0
   -0.0814   13.0379   -5.2011 H   0  0  0  0  0  0  0  0  0  0  0  0
   -1.2089   13.9748   -2.4656 H   0  0  0  0  0  0  0  0  0  0  0  0
   -1.1614   12.4786   -3.5581 H   0  0  0  0  0  0  0  0  0  0  0  0
   -0.5032   12.6322   -0.6038 H   0  0  0  0  0  0  0  0  0  0  0  0
   -1.8733   11.7735   -1.4120 H   0  0  0  0  0  0  0  0  0  0  0  0
   -1.0730    9.1981   -2.5965 H   0  0  0  0  0  0  0  0  0  0  0  0
   -1.1195   10.7266   -3.5389 H   0  0  0  0  0  0  0  0  0  0  0  0
    0.3657    9.7163   -3.5389 H   0  0  0  0  0  0  0  0  0  0  0  0
  1  2  1  0
  2  3  1  0
  3  4  1  0
  4  5  1  0
  5  6  1  0
  6  7  1  0
  7  8  1  0
  7  9  1  0
  2 10  1  0
 10 11  1  0
 11 12  1  0
 12 13  1  0
 13 14  1  1
 13 15  1  0
 15 16  1  0
 16 17  1  0
 17 18  2  0
 18 19  1  0
 19 20  1  0
 20 21  1  0
 21 22  1  0
 22 23  1  0
 22 24  1  0
 24 25  1  0
 24 26  1  0
 19 27  1  0
 27 28  1  6
 27 29  1  0
 29 30  1  0
 30 31  1  0
 31 32  1  6
  7  5  1  0
 31 10  1  0
 31 13  1  0
 27 15  1  0
 24 18  1  0
  1 33  1  0
  1 34  1  0
  1 35  1  0
  2 36  1  1
  3 37  1  0
  3 38  1  0
  4 39  1  0
  4 40  1  0
  5 41  1  6
  8 42  1  0
  8 43  1  0
  8 44  1  0
  9 45  1  0
  9 46  1  0
  9 47  1  0
 10 48  1  1
 11 49  1  0
 11 50  1  0
 12 51  1  0
 12 52  1  0
 14 53  1  0
 14 54  1  0
 14 55  1  0
 15 56  1  6
 16 57  1  0
 16 58  1  0
 17 59  1  0
 19 60  1  1
 20 61  1  0
 20 62  1  0
 21 63  1  0
 21 64  1  0
 22 65  1  1
 23 66  1  0
 25 67  1  0
 25 68  1  0
 25 69  1  0
 26 70  1  0
 26 71  1  0
 26 72  1  0
 28 73  1  0
 28 74  1  0
 28 75  1  0
 29 76  1  0
 29 77  1  0
 30 78  1  0
 30 79  1  0
 32 80  1  0
 32 81  1  0
 32 82  1  0
M  END
>  <meeko>  (5) 
{"is_sidechain": [false], "intermolecular_energy": 2.731, "internal_energy": -0.839}

$$$$
EPH_relaxed_0001_pdb2pqr_Repair_342_r2_0001_out
     RDKit          3D

 82 86  0  0  0  0  0  0  0  0999 V2000
    0.0370   18.0500   -0.9160 C   0  0  0  0  0  0  0  0  0  0  0  0
    1.0700   17.2200   -1.6830 C   0  0  2  0  0  0  0  0  0  0  0  0
    1.6310   17.9750   -2.9050 C   0  0  0  0  0  0  0  0  0  0  0  0
    3.1280   18.2780   -2.8080 C   0  0  0  0  0  0  0  0  0  0  0  0
    3.9130   17.0690   -2.3970 C   0  0  2  0  0  0  0  0  0  0  0  0
    4.9730   17.3300   -1.4680 O   0  0  0  0  0  0  0  0  0  0  0  0
    5.3690   16.8520   -2.7640 C   0  0  0  0  0  0  0  0  0  0  0  0
    6.1260   17.8550   -3.5770 C   0  0  0  0  0  0  0  0  0  0  0  0
    5.9100   15.4570   -2.7520 C   0  0  0  0  0  0  0  0  0  0  0  0
    0.4510   15.8990   -2.1260 C   0  0  1  0  0  0  0  0  0  0  0  0
    0.0490   15.9010   -3.6250 C   0  0  0  0  0  0  0  0  0  0  0  0
    0.2950   14.4660   -4.1560 C   0  0  0  0  0  0  0  0  0  0  0  0
    0.5110   13.6110   -2.8850 C   0  0  1  0  0  0  0  0  0  0  0  0
   -0.9260   13.3050   -2.3590 C   0  0  0  0  0  0  0  0  0  0  0  0
    1.3510   12.3050   -3.0660 C   0  0  2  0  0  0  0  0  0  0  0  0
    0.7370   11.2600   -4.0140 C   0  0  0  0  0  0  0  0  0  0  0  0
   -0.1610   10.2590   -3.3650 C   0  0  0  0  0  0  0  0  0  0  0  0
   -0.2410   10.0220   -2.0430 C   0  0  0  0  0  0  0  0  0  0  0  0
    0.6980   10.7300   -1.0570 C   0  0  1  0  0  0  0  0  0  0  0  0
    1.2760    9.6940   -0.0570 C   0  0  0  0  0  0  0  0  0  0  0  0
    0.1870    8.8910    0.6480 C   0  0  0  0  0  0  0  0  0  0  0  0
   -0.6890    8.1550   -0.3620 C   0  0  2  0  0  0  0  0  0  0  0  0
    0.0990    7.1530   -1.0120 O   0  0  0  0  0  0  0  0  0  0  0  0
   -1.3190    9.0960   -1.4270 C   0  0  0  0  0  0  0  0  0  0  0  0
   -2.4000    9.9840   -0.7630 C   0  0  0  0  0  0  0  0  0  0  0  0
   -2.0610    8.2120   -2.4660 C   0  0  0  0  0  0  0  0  0  0  0  0
    1.8230   11.6450   -1.7070 C   0  0  1  0  0  0  0  0  0  0  0  0
    3.0800   10.7850   -2.0430 C   0  0  0  0  0  0  0  0  0  0  0  0
    2.2870   12.7170   -0.6510 C   0  0  0  0  0  0  0  0  0  0  0  0
    1.4920   14.0350   -0.6030 C   0  0  0  0  0  0  0  0  0  0  0  0
    1.3280   14.6280   -2.0060 C   0  0  2  0  0  0  0  0  0  0  0  0
    2.7560   14.9670   -2.5530 C   0  0  0  0  0  0  0  0  0  0  0  0
    0.1946   17.9234    0.1653 H   0  0  0  0  0  0  0  0  0  0  0  0
    0.1497   19.1116   -1.1811 H   0  0  0  0  0  0  0  0  0  0  0  0
   -0.9754   17.7113   -1.1811 H   0  0  0  0  0  0  0  0  0  0  0  0
    1.9106   17.0262   -1.0005 H   0  0  0  0  0  0  0  0  0  0  0  0
    1.4584   17.3613   -3.8014 H   0  0  0  0  0  0  0  0  0  0  0  0
    1.1099   18.9426   -2.9516 H   0  0  0  0  0  0  0  0  0  0  0  0
    3.4870   18.6191   -3.7902 H   0  0  0  0  0  0  0  0  0  0  0  0
    3.2715   19.0560   -2.0438 H   0  0  0  0  0  0  0  0  0  0  0  0
    3.0237   16.4293   -2.4969 H   0  0  0  0  0  0  0  0  0  0  0  0
    6.6508   18.5504   -2.9054 H   0  0  0  0  0  0  0  0  0  0  0  0
    6.8587   17.3348   -4.2115 H   0  0  0  0  0  0  0  0  0  0  0  0
    5.4249   18.4170   -4.2115 H   0  0  0  0  0  0  0  0  0  0  0  0
    6.0396   15.1229   -1.7120 H   0  0  0  0  0  0  0  0  0  0  0  0
    5.2067   14.7865   -3.2676 H   0  0  0  0  0  0  0  0  0  0  0  0
    6.8815   15.4360   -3.2676 H   0  0  0  0  0  0  0  0  0  0  0  0
   -0.3909   15.8434   -1.4203 H   0  0  0  0  0  0  0  0  0  0  0  0
   -1.0128   16.1676   -3.7320 H   0  0  0  0  0  0  0  0  0  0  0  0
    0.6380   16.6378   -4.1908 H   0  0  0  0  0  0  0  0  0  0  0  0
   -0.5770   14.1067   -4.7221 H   0  0  0  0  0  0  0  0  0  0  0  0
    1.1530   14.4167   -4.8426 H   0  0  0  0  0  0  0  0  0  0  0  0
   -0.9217   13.3059   -1.2590 H   0  0  0  0  0  0  0  0  0  0  0  0
   -1.6217   14.0751   -2.7236 H   0  0  0  0  0  0  0  0  0  0  0  0
   -1.2475   12.3182   -2.7236 H   0  0  0  0  0  0  0  0  0  0  0  0
    2.2545   12.6741   -3.5733 H   0  0  0  0  0  0  0  0  0  0  0  0
    0.1535   11.7952   -4.7776 H   0  0  0  0  0  0  0  0  0  0  0  0
    1.5823   10.6887   -4.4253 H   0  0  0  0  0  0  0  0  0  0  0  0
   -0.8121    9.6652   -4.0233 H   0  0  0  0  0  0  0  0  0  0  0  0
    0.0781   11.4619   -0.5185 H   0  0  0  0  0  0  0  0  0  0  0  0
    1.9271    8.9984   -0.6068 H   0  0  0  0  0  0  0  0  0  0  0  0
    1.8337   10.2478    0.7126 H   0  0  0  0  0  0  0  0  0  0  0  0
    0.6580    8.1569    1.3183 H   0  0  0  0  0  0  0  0  0  0  0  0
   -0.4454    9.5851    1.2210 H   0  0  0  0  0  0  0  0  0  0  0  0
   -1.5252    7.7048    0.1931 H   0  0  0  0  0  0  0  0  0  0  0  0
   -0.2890    6.9970   -1.8890 H   0  0  0  0  0  0  0  0  0  0  0  0
   -2.3123    9.9120    0.3311 H   0  0  0  0  0  0  0  0  0  0  0  0
   -2.2577   11.0294   -1.0742 H   0  0  0  0  0  0  0  0  0  0  0  0
   -3.3979    9.6414   -1.0742 H   0  0  0  0  0  0  0  0  0  0  0  0
   -2.6823    7.4718   -1.9406 H   0  0  0  0  0  0  0  0  0  0  0  0
   -2.7011    8.8464   -3.0967 H   0  0  0  0  0  0  0  0  0  0  0  0
   -1.3252    7.6916   -3.0967 H   0  0  0  0  0  0  0  0  0  0  0  0
    3.5599   10.4567   -1.1093 H   0  0  0  0  0  0  0  0  0  0  0  0
    2.7762    9.9046   -2.6284 H   0  0  0  0  0  0  0  0  0  0  0  0
    3.7905   11.3872   -2.6284 H   0  0  0  0  0  0  0  0  0  0  0  0
    2.2223   12.2531    0.3443 H   0  0  0  0  0  0  0  0  0  0  0  0
    3.3024   13.0049   -0.9608 H   0  0  0  0  0  0  0  0  0  0  0  0
    0.4971   13.8398   -0.1763 H   0  0  0  0  0  0  0  0  0  0  0  0
    2.0436   14.7548    0.0197 H   0  0  0  0  0  0  0  0  0  0  0  0
    3.4427   15.1300   -1.7093 H   0  0  0  0  0  0  0  0  0  0  0  0
    3.1215   14.1307   -3.1669 H   0  0  0  0  0  0  0  0  0  0  0  0
    2.7066   15.8784   -3.1669 H   0  0  0  0  0  0  0  0  0  0  0  0
  1  2  1  0
  2  3  1  0
  3  4  1  0
  4  5  1  0
  5  6  1  0
  6  7  1  0
  7  8  1  0
  7  9  1  0
  2 10  1  0
 10 11  1  0
 11 12  1  0
 12 13  1  0
 13 14  1  1
 13 15  1  0
 15 16  1  0
 16 17  1  0
 17 18  2  0
 18 19  1  0
 19 20  1  0
 20 21  1  0
 21 22  1  0
 22 23  1  0
 22 24  1  0
 24 25  1  0
 24 26  1  0
 19 27  1  0
 27 28  1  6
 27 29  1  0
 29 30  1  0
 30 31  1  0
 31 32  1  6
  7  5  1  0
 31 10  1  0
 31 13  1  0
 27 15  1  0
 24 18  1  0
  1 33  1  0
  1 34  1  0
  1 35  1  0
  2 36  1  1
  3 37  1  0
  3 38  1  0
  4 39  1  0
  4 40  1  0
  5 41  1  1
  8 42  1  0
  8 43  1  0
  8 44  1  0
  9 45  1  0
  9 46  1  0
  9 47  1  0
 10 48  1  1
 11 49  1  0
 11 50  1  0
 12 51  1  0
 12 52  1  0
 14 53  1  0
 14 54  1  0
 14 55  1  0
 15 56  1  6
 16 57  1  0
 16 58  1  0
 17 59  1  0
 19 60  1  1
 20 61  1  0
 20 62  1  0
 21 63  1  0
 21 64  1  0
 22 65  1  1
 23 66  1  0
 25 67  1  0
 25 68  1  0
 25 69  1  0
 26 70  1  0
 26 71  1  0
 26 72  1  0
 28 73  1  0
 28 74  1  0
 28 75  1  0
 29 76  1  0
 29 77  1  0
 30 78  1  0
 30 79  1  0
 32 80  1  0
 32 81  1  0
 32 82  1  0
M  END
>  <meeko>  (6) 
{"is_sidechain": [false], "intermolecular_energy": 2.731, "internal_energy": -0.839}

$$$$
EPH_relaxed_0001_pdb2pqr_Repair_342_r2_0001_out
     RDKit          3D

 82 86  0  0  0  0  0  0  0  0999 V2000
    0.5080    8.9810   -2.3960 C   0  0  0  0  0  0  0  0  0  0  0  0
    1.2900   10.0900   -3.1060 C   0  0  2  0  0  0  0  0  0  0  0  0
    2.7780   10.1020   -2.7010 C   0  0  0  0  0  0  0  0  0  0  0  0
    3.7180   10.5470   -3.8250 C   0  0  0  0  0  0  0  0  0  0  0  0
    5.1070   10.7960   -3.3190 C   0  0  2  0  0  0  0  0  0  0  0  0
    5.6860   12.0360   -3.7470 O   0  0  0  0  0  0  0  0  0  0  0  0
    6.3280   10.8400   -4.2180 C   0  0  0  0  0  0  0  0  0  0  0  0
    6.2180   10.6320   -5.6960 C   0  0  0  0  0  0  0  0  0  0  0  0
    7.6740   10.5980   -3.6080 C   0  0  0  0  0  0  0  0  0  0  0  0
    0.6580   11.4440   -2.8080 C   0  0  1  0  0  0  0  0  0  0  0  0
   -0.5950   11.3320   -1.9000 C   0  0  0  0  0  0  0  0  0  0  0  0
   -0.6040   12.5880   -0.9920 C   0  0  0  0  0  0  0  0  0  0  0  0
    0.4420   13.5350   -1.6260 C   0  0  1  0  0  0  0  0  0  0  0  0
   -0.3080   14.2280   -2.8070 C   0  0  0  0  0  0  0  0  0  0  0  0
    1.1000   14.5800   -0.6670 C   0  0  2  0  0  0  0  0  0  0  0  0
    0.1280   15.5990   -0.0470 C   0  0  0  0  0  0  0  0  0  0  0  0
   -0.0630   16.8560   -0.8300 C   0  0  0  0  0  0  0  0  0  0  0  0
    0.7290   17.2810   -1.8310 C   0  0  0  0  0  0  0  0  0  0  0  0
    2.0060   16.5180   -2.2040 C   0  0  1  0  0  0  0  0  0  0  0  0
    3.1790   17.5200   -2.3710 C   0  0  0  0  0  0  0  0  0  0  0  0
    2.8570   18.6370   -3.3590 C   0  0  0  0  0  0  0  0  0  0  0  0
    1.6150   19.4100   -2.9230 C   0  0  2  0  0  0  0  0  0  0  0  0
    1.9090   20.1100   -1.7110 O   0  0  0  0  0  0  0  0  0  0  0  0
    0.3710   18.5020   -2.7140 C   0  0  0  0  0  0  0  0  0  0  0  0
   -0.1300   17.9810   -4.0840 C   0  0  0  0  0  0  0  0  0  0  0  0
   -0.7720   19.3830   -2.1410 C   0  0  0  0  0  0  0  0  0  0  0  0
    2.3800   15.2920   -1.2640 C   0  0  1  0  0  0  0  0  0  0  0  0
    3.2200   15.7900   -0.0490 C   0  0  0  0  0  0  0  0  0  0  0  0
    3.3020   14.2950   -2.0620 C   0  0  0  0  0  0  0  0  0  0  0  0
    2.5940   13.2110   -2.8960 C   0  0  0  0  0  0  0  0  0  0  0  0
    1.5290   12.4880   -2.0650 C   0  0  2  0  0  0  0  0  0  0  0  0
    2.2570   11.7620   -0.8830 C   0  0  0  0  0  0  0  0  0  0  0  0
    0.5978    9.1084   -1.3071 H   0  0  0  0  0  0  0  0  0  0  0  0
   -0.5518    9.0366   -2.6855 H   0  0  0  0  0  0  0  0  0  0  0  0
    0.9163    8.0014   -2.6855 H   0  0  0  0  0  0  0  0  0  0  0  0
    1.2437    9.8881   -4.1863 H   0  0  0  0  0  0  0  0  0  0  0  0
    2.9014   10.7905   -1.8520 H   0  0  0  0  0  0  0  0  0  0  0  0
    3.0500    9.0674   -2.4450 H   0  0  0  0  0  0  0  0  0  0  0  0
    3.7538    9.7599   -4.5926 H   0  0  0  0  0  0  0  0  0  0  0  0
    3.3313   11.4879   -4.2436 H   0  0  0  0  0  0  0  0  0  0  0  0
    4.8938   10.2461   -2.3905 H   0  0  0  0  0  0  0  0  0  0  0  0
    5.7122    9.6757   -5.8951 H   0  0  0  0  0  0  0  0  0  0  0  0
    5.6365   11.4536   -6.1396 H   0  0  0  0  0  0  0  0  0  0  0  0
    7.2244   10.6139   -6.1396 H   0  0  0  0  0  0  0  0  0  0  0  0
    7.5878   10.6135   -2.5115 H   0  0  0  0  0  0  0  0  0  0  0  0
    8.0526    9.6174   -3.9322 H   0  0  0  0  0  0  0  0  0  0  0  0
    8.3704   11.3853   -3.9322 H   0  0  0  0  0  0  0  0  0  0  0  0
    0.4579   11.7832   -3.8351 H   0  0  0  0  0  0  0  0  0  0  0  0
   -1.5067   11.3027   -2.5148 H   0  0  0  0  0  0  0  0  0  0  0  0
   -0.5659   10.4110   -1.2993 H   0  0  0  0  0  0  0  0  0  0  0  0
   -1.5993   13.0564   -0.9869 H   0  0  0  0  0  0  0  0  0  0  0  0
   -0.3686   12.3475    0.0552 H   0  0  0  0  0  0  0  0  0  0  0  0
   -1.0603   14.9232   -2.4060 H   0  0  0  0  0  0  0  0  0  0  0  0
    0.4135   14.7842   -3.4235 H   0  0  0  0  0  0  0  0  0  0  0  0
   -0.8056   13.4649   -3.4235 H   0  0  0  0  0  0  0  0  0  0  0  0
    1.4449   13.9504    0.1665 H   0  0  0  0  0  0  0  0  0  0  0  0
   -0.8527   15.1123    0.0591 H   0  0  0  0  0  0  0  0  0  0  0  0
    0.5752   15.9022    0.9112 H   0  0  0  0  0  0  0  0  0  0  0  0
   -0.9239   17.4878   -0.5661 H   0  0  0  0  0  0  0  0  0  0  0  0
    1.7963   16.0262   -3.1653 H   0  0  0  0  0  0  0  0  0  0  0  0
    3.4018   17.9686   -1.3917 H   0  0  0  0  0  0  0  0  0  0  0  0
    4.0411   16.9626   -2.7661 H   0  0  0  0  0  0  0  0  0  0  0  0
    3.7111   19.3282   -3.4117 H   0  0  0  0  0  0  0  0  0  0  0  0
    2.6634   18.1887   -4.3447 H   0  0  0  0  0  0  0  0  0  0  0  0
    1.3605   20.1093   -3.7330 H   0  0  0  0  0  0  0  0  0  0  0  0
    1.0640   20.3810   -1.3150 H   0  0  0  0  0  0  0  0  0  0  0  0
   -0.8844   17.1965   -3.9244 H   0  0  0  0  0  0  0  0  0  0  0  0
   -0.5781   18.8108   -4.6503 H   0  0  0  0  0  0  0  0  0  0  0  0
    0.7167   17.5657   -4.6503 H   0  0  0  0  0  0  0  0  0  0  0  0
   -0.7388   19.3574   -1.0418 H   0  0  0  0  0  0  0  0  0  0  0  0
   -0.6452   20.4192   -2.4876 H   0  0  0  0  0  0  0  0  0  0  0  0
   -1.7418   18.9965   -2.4876 H   0  0  0  0  0  0  0  0  0  0  0  0
    2.7222   15.4949    0.8865 H   0  0  0  0  0  0  0  0  0  0  0  0
    4.2233   15.3407   -0.0881 H   0  0  0  0  0  0  0  0  0  0  0  0
    3.3072   16.8858   -0.0881 H   0  0  0  0  0  0  0  0  0  0  0  0
    3.9214   14.8912   -2.7482 H   0  0  0  0  0  0  0  0  0  0  0  0
    3.8646   13.7451   -1.2932 H   0  0  0  0  0  0  0  0  0  0  0  0
    2.1129   13.6829   -3.7654 H   0  0  0  0  0  0  0  0  0  0  0  0
    3.3432   12.4749   -3.2229 H   0  0  0  0  0  0  0  0  0  0  0  0
    1.8733   12.1446    0.0743 H   0  0  0  0  0  0  0  0  0  0  0  0
    2.0702   10.6798   -0.9467 H   0  0  0  0  0  0  0  0  0  0  0  0
    3.3386   11.9518   -0.9467 H   0  0  0  0  0  0  0  0  0  0  0  0
  1  2  1  0
  2  3  1  0
  3  4  1  0
  4  5  1  0
  5  6  1  0
  6  7  1  0
  7  8  1  0
  7  9  1  0
  2 10  1  0
 10 11  1  0
 11 12  1  0
 12 13  1  0
 13 14  1  6
 13 15  1  0
 15 16  1  0
 16 17  1  0
 17 18  2  0
 18 19  1  0
 19 20  1  0
 20 21  1  0
 21 22  1  0
 22 23  1  0
 22 24  1  0
 24 25  1  0
 24 26  1  0
 19 27  1  0
 27 28  1  1
 27 29  1  0
 29 30  1  0
 30 31  1  0
 31 32  1  1
  7  5  1  0
 31 10  1  0
 31 13  1  0
 27 15  1  0
 24 18  1  0
  1 33  1  0
  1 34  1  0
  1 35  1  0
  2 36  1  6
  3 37  1  0
  3 38  1  0
  4 39  1  0
  4 40  1  0
  5 41  1  1
  8 42  1  0
  8 43  1  0
  8 44  1  0
  9 45  1  0
  9 46  1  0
  9 47  1  0
 10 48  1  6
 11 49  1  0
 11 50  1  0
 12 51  1  0
 12 52  1  0
 14 53  1  0
 14 54  1  0
 14 55  1  0
 15 56  1  1
 16 57  1  0
 16 58  1  0
 17 59  1  0
 19 60  1  6
 20 61  1  0
 20 62  1  0
 21 63  1  0
 21 64  1  0
 22 65  1  6
 23 66  1  0
 25 67  1  0
 25 68  1  0
 25 69  1  0
 26 70  1  0
 26 71  1  0
 26 72  1  0
 28 73  1  0
 28 74  1  0
 28 75  1  0
 29 76  1  0
 29 77  1  0
 30 78  1  0
 30 79  1  0
 32 80  1  0
 32 81  1  0
 32 82  1  0
M  END
>  <meeko>  (7) 
{"is_sidechain": [false], "intermolecular_energy": 2.731, "internal_energy": -0.839}

$$$$
EPH_relaxed_0001_pdb2pqr_Repair_342_r2_0001_out
     RDKit          3D

 82 86  0  0  0  0  0  0  0  0999 V2000
   -0.3800    8.0650   -3.1020 C   0  0  0  0  0  0  0  0  0  0  0  0
   -1.0250    8.5080   -1.7860 C   0  0  2  0  0  0  0  0  0  0  0  0
   -2.4280    7.8990   -1.5930 C   0  0  0  0  0  0  0  0  0  0  0  0
   -2.9360    7.1250   -2.8130 C   0  0  0  0  0  0  0  0  0  0  0  0
   -4.4090    7.3170   -3.0170 C   0  0  2  0  0  0  0  0  0  0  0  0
   -5.1510    7.5770   -1.8180 O   0  0  0  0  0  0  0  0  0  0  0  0
   -5.4580    6.3500   -2.5010 C   0  0  0  0  0  0  0  0  0  0  0  0
   -5.0770    5.1190   -1.7410 C   0  0  0  0  0  0  0  0  0  0  0  0
   -6.8070    6.3440   -3.1510 C   0  0  0  0  0  0  0  0  0  0  0  0
   -1.1060   10.0290   -1.7330 C   0  0  1  0  0  0  0  0  0  0  0  0
   -2.4400   10.5360   -1.1220 C   0  0  0  0  0  0  0  0  0  0  0  0
   -2.1080   11.8260   -0.3310 C   0  0  0  0  0  0  0  0  0  0  0  0
   -0.6760   12.2020   -0.7800 C   0  0  1  0  0  0  0  0  0  0  0  0
   -0.8640   12.9370   -2.1440 C   0  0  0  0  0  0  0  0  0  0  0  0
    0.1620   13.0570    0.2250 C   0  0  2  0  0  0  0  0  0  0  0  0
   -0.4160   14.4480    0.5390 C   0  0  0  0  0  0  0  0  0  0  0  0
    0.0530   15.5490   -0.3540 C   0  0  0  0  0  0  0  0  0  0  0  0
    1.1130   15.4880   -1.1800 C   0  0  0  0  0  0  0  0  0  0  0  0
    2.0240   14.2540   -1.2030 C   0  0  1  0  0  0  0  0  0  0  0  0
    3.5080   14.7050   -1.1740 C   0  0  0  0  0  0  0  0  0  0  0  0
    3.8400   15.6950   -2.2860 C   0  0  0  0  0  0  0  0  0  0  0  0
    2.9530   16.9350   -2.1950 C   0  0  2  0  0  0  0  0  0  0  0  0
    3.2820   17.6500   -0.9990 O   0  0  0  0  0  0  0  0  0  0  0  0
    1.4350   16.6040   -2.2050 C   0  0  0  0  0  0  0  0  0  0  0  0
    1.0200   16.1060   -3.6120 C   0  0  0  0  0  0  0  0  0  0  0  0
    0.6560   17.9260   -1.9650 C   0  0  0  0  0  0  0  0  0  0  0  0
    1.7040   13.1360   -0.1190 C   0  0  1  0  0  0  0  0  0  0  0  0
    2.4420   13.4620    1.2150 C   0  0  0  0  0  0  0  0  0  0  0  0
    2.2770   11.7570   -0.6180 C   0  0  0  0  0  0  0  0  0  0  0  0
    1.3560   10.9040   -1.5110 C   0  0  0  0  0  0  0  0  0  0  0  0
   -0.0380   10.7700   -0.8900 C   0  0  2  0  0  0  0  0  0  0  0  0
    0.1160   10.0140    0.4730 C   0  0  0  0  0  0  0  0  0  0  0  0
    0.5093    7.4542   -2.8871 H   0  0  0  0  0  0  0  0  0  0  0  0
   -1.1014    7.4709   -3.6822 H   0  0  0  0  0  0  0  0  0  0  0  0
   -0.0844    8.9516   -3.6822 H   0  0  0  0  0  0  0  0  0  0  0  0
   -0.3900    8.1406   -0.9664 H   0  0  0  0  0  0  0  0  0  0  0  0
   -2.3931    7.2113   -0.7352 H   0  0  0  0  0  0  0  0  0  0  0  0
   -3.1226    8.7365   -1.4314 H   0  0  0  0  0  0  0  0  0  0  0  0
   -2.4029    7.4795   -3.7075 H   0  0  0  0  0  0  0  0  0  0  0  0
   -2.7500    6.0544   -2.6420 H   0  0  0  0  0  0  0  0  0  0  0  0
   -4.2376    7.7588   -4.0097 H   0  0  0  0  0  0  0  0  0  0  0  0
   -5.1394    5.3206   -0.6614 H   0  0  0  0  0  0  0  0  0  0  0  0
   -5.7637    4.3001   -2.0014 H   0  0  0  0  0  0  0  0  0  0  0  0
   -4.0477    4.8312   -2.0014 H   0  0  0  0  0  0  0  0  0  0  0  0
   -7.5875    6.3405   -2.3759 H   0  0  0  0  0  0  0  0  0  0  0  0
   -6.9162    7.2417   -3.7773 H   0  0  0  0  0  0  0  0  0  0  0  0
   -6.9082    5.4454   -3.7773 H   0  0  0  0  0  0  0  0  0  0  0  0
   -0.9679   10.2572   -2.8002 H   0  0  0  0  0  0  0  0  0  0  0  0
   -3.1627   10.7572   -1.9212 H   0  0  0  0  0  0  0  0  0  0  0  0
   -2.8882    9.7751   -0.4662 H   0  0  0  0  0  0  0  0  0  0  0  0
   -2.8170   12.6287   -0.5821 H   0  0  0  0  0  0  0  0  0  0  0  0
   -2.1786   11.6780    0.7567 H   0  0  0  0  0  0  0  0  0  0  0  0
   -1.1328   13.9877   -1.9603 H   0  0  0  0  0  0  0  0  0  0  0  0
    0.0743   12.8932   -2.7165 H   0  0  0  0  0  0  0  0  0  0  0  0
   -1.6660   12.4481   -2.7165 H   0  0  0  0  0  0  0  0  0  0  0  0
    0.0725   12.4793    1.1568 H   0  0  0  0  0  0  0  0  0  0  0  0
   -1.5113   14.3874    0.4577 H   0  0  0  0  0  0  0  0  0  0  0  0
   -0.0632   14.7037    1.5490 H   0  0  0  0  0  0  0  0  0  0  0  0
   -0.5166   16.4898   -0.3348 H   0  0  0  0  0  0  0  0  0  0  0  0
    1.8104   13.7356   -2.1494 H   0  0  0  0  0  0  0  0  0  0  0  0
    3.7127   15.1822   -0.2043 H   0  0  0  0  0  0  0  0  0  0  0  0
    4.1316   13.8115   -1.3250 H   0  0  0  0  0  0  0  0  0  0  0  0
    4.8934   15.9984   -2.1953 H   0  0  0  0  0  0  0  0  0  0  0  0
    3.6627   15.2067   -3.2556 H   0  0  0  0  0  0  0  0  0  0  0  0
    3.1465   17.5458   -3.0891 H   0  0  0  0  0  0  0  0  0  0  0  0
    3.0850   17.0680   -0.2450 H   0  0  0  0  0  0  0  0  0  0  0  0
    0.3188   15.2645   -3.5110 H   0  0  0  0  0  0  0  0  0  0  0  0
    0.5333   16.9249   -4.1620 H   0  0  0  0  0  0  0  0  0  0  0  0
    1.9133   15.7750   -4.1620 H   0  0  0  0  0  0  0  0  0  0  0  0
    0.5535   18.1000   -0.8837 H   0  0  0  0  0  0  0  0  0  0  0  0
    1.2052   18.7631   -2.4207 H   0  0  0  0  0  0  0  0  0  0  0  0
   -0.3424   17.8512   -2.4207 H   0  0  0  0  0  0  0  0  0  0  0  0
    1.8038   13.1801    2.0654 H   0  0  0  0  0  0  0  0  0  0  0  0
    3.3844   12.8964    1.2604 H   0  0  0  0  0  0  0  0  0  0  0  0
    2.6585   14.5395    1.2604 H   0  0  0  0  0  0  0  0  0  0  0  0
    3.1943   11.9647   -1.1885 H   0  0  0  0  0  0  0  0  0  0  0  0
    2.4263   11.1605    0.2941 H   0  0  0  0  0  0  0  0  0  0  0  0
    1.2662   11.3831   -2.4971 H   0  0  0  0  0  0  0  0  0  0  0  0
    1.7944    9.9000   -1.6096 H   0  0  0  0  0  0  0  0  0  0  0  0
   -0.0281   10.7214    1.3030 H   0  0  0  0  0  0  0  0  0  0  0  0
   -0.6379    9.2156    0.5367 H   0  0  0  0  0  0  0  0  0  0  0  0
    1.1222    9.5741    0.5367 H   0  0  0  0  0  0  0  0  0  0  0  0
  1  2  1  0
  2  3  1  0
  3  4  1  0
  4  5  1  0
  5  6  1  0
  6  7  1  0
  7  8  1  0
  7  9  1  0
  2 10  1  0
 10 11  1  0
 11 12  1  0
 12 13  1  0
 13 14  1  6
 13 15  1  0
 15 16  1  0
 16 17  1  0
 17 18  2  0
 18 19  1  0
 19 20  1  0
 20 21  1  0
 21 22  1  0
 22 23  1  0
 22 24  1  0
 24 25  1  0
 24 26  1  0
 19 27  1  0
 27 28  1  1
 27 29  1  0
 29 30  1  0
 30 31  1  0
 31 32  1  1
  7  5  1  0
 31 10  1  0
 31 13  1  0
 27 15  1  0
 24 18  1  0
  1 33  1  0
  1 34  1  0
  1 35  1  0
  2 36  1  1
  3 37  1  0
  3 38  1  0
  4 39  1  0
  4 40  1  0
  5 41  1  6
  8 42  1  0
  8 43  1  0
  8 44  1  0
  9 45  1  0
  9 46  1  0
  9 47  1  0
 10 48  1  6
 11 49  1  0
 11 50  1  0
 12 51  1  0
 12 52  1  0
 14 53  1  0
 14 54  1  0
 14 55  1  0
 15 56  1  1
 16 57  1  0
 16 58  1  0
 17 59  1  0
 19 60  1  6
 20 61  1  0
 20 62  1  0
 21 63  1  0
 21 64  1  0
 22 65  1  6
 23 66  1  0
 25 67  1  0
 25 68  1  0
 25 69  1  0
 26 70  1  0
 26 71  1  0
 26 72  1  0
 28 73  1  0
 28 74  1  0
 28 75  1  0
 29 76  1  0
 29 77  1  0
 30 78  1  0
 30 79  1  0
 32 80  1  0
 32 81  1  0
 32 82  1  0
M  END
>  <meeko>  (8) 
{"is_sidechain": [false], "intermolecular_energy": 2.731, "internal_energy": -0.839}

$$$$
EPH_relaxed_0001_pdb2pqr_Repair_342_r2_0001_out
     RDKit          3D

 82 86  0  0  0  0  0  0  0  0999 V2000
   -5.1320    5.8770   -1.7400 C   0  0  0  0  0  0  0  0  0  0  0  0
   -5.4450    7.3760   -1.7770 C   0  0  2  0  0  0  0  0  0  0  0  0
   -5.2310    8.0470   -0.4050 C   0  0  0  0  0  0  0  0  0  0  0  0
   -4.1800    9.1600   -0.4210 C   0  0  0  0  0  0  0  0  0  0  0  0
   -2.8240    8.6360   -0.7870 C   0  0  2  0  0  0  0  0  0  0  0  0
   -1.7860    8.9560    0.1490 O   0  0  0  0  0  0  0  0  0  0  0  0
   -1.6560    9.5280   -1.1620 C   0  0  0  0  0  0  0  0  0  0  0  0
   -1.7900   11.0180   -1.1920 C   0  0  0  0  0  0  0  0  0  0  0  0
   -0.5380    8.9420   -1.9670 C   0  0  0  0  0  0  0  0  0  0  0  0
   -6.8780    7.5960   -2.2470 C   0  0  1  0  0  0  0  0  0  0  0  0
   -7.1770    6.8950   -3.5990 C   0  0  0  0  0  0  0  0  0  0  0  0
   -8.6500    6.4170   -3.5390 C   0  0  0  0  0  0  0  0  0  0  0  0
   -9.2450    7.1410   -2.3080 C   0  0  1  0  0  0  0  0  0  0  0  0
   -9.5980    8.5730   -2.8170 C   0  0  0  0  0  0  0  0  0  0  0  0
  -10.4720    6.4510   -1.6270 C   0  0  2  0  0  0  0  0  0  0  0  0
  -11.7220    6.3190   -2.5150 C   0  0  0  0  0  0  0  0  0  0  0  0
  -12.6800    7.4610   -2.4420 C   0  0  0  0  0  0  0  0  0  0  0  0
  -12.6900    8.4140   -1.4900 C   0  0  0  0  0  0  0  0  0  0  0  0
  -11.7310    8.3440   -0.2950 C   0  0  1  0  0  0  0  0  0  0  0  0
  -12.5140    8.6250    1.0140 C   0  0  0  0  0  0  0  0  0  0  0  0
  -13.2870    9.9390    0.9630 C   0  0  0  0  0  0  0  0  0  0  0  0
  -14.2720    9.9470   -0.2030 C   0  0  2  0  0  0  0  0  0  0  0  0
  -15.2880    8.9700    0.0450 O   0  0  0  0  0  0  0  0  0  0  0  0
  -13.5990    9.6650   -1.5750 C   0  0  0  0  0  0  0  0  0  0  0  0
  -12.7220   10.8750   -1.9840 C   0  0  0  0  0  0  0  0  0  0  0  0
  -14.7200    9.5610   -2.6450 C   0  0  0  0  0  0  0  0  0  0  0  0
  -10.8340    7.0350   -0.2010 C   0  0  1  0  0  0  0  0  0  0  0  0
  -11.6090    5.9130    0.5550 C   0  0  0  0  0  0  0  0  0  0  0  0
   -9.5540    7.3490    0.6600 C   0  0  0  0  0  0  0  0  0  0  0  0
   -8.3340    7.9170   -0.0910 C   0  0  0  0  0  0  0  0  0  0  0  0
   -8.0150    7.0780   -1.3310 C   0  0  2  0  0  0  0  0  0  0  0  0
   -7.6340    5.6360   -0.8490 C   0  0  0  0  0  0  0  0  0  0  0  0
   -5.0622    5.5427   -0.6944 H   0  0  0  0  0  0  0  0  0  0  0  0
   -5.9337    5.3223   -2.2495 H   0  0  0  0  0  0  0  0  0  0  0  0
   -4.1753    5.6895   -2.2495 H   0  0  0  0  0  0  0  0  0  0  0  0
   -4.7457    7.8434   -2.4859 H   0  0  0  0  0  0  0  0  0  0  0  0
   -6.1882    8.4780   -0.0762 H   0  0  0  0  0  0  0  0  0  0  0  0
   -4.8639    7.2683    0.2797 H   0  0  0  0  0  0  0  0  0  0  0  0
   -4.4784    9.9217   -1.1564 H   0  0  0  0  0  0  0  0  0  0  0  0
   -4.1204    9.5903    0.5896 H   0  0  0  0  0  0  0  0  0  0  0  0
   -3.2696    7.7584   -1.2782 H   0  0  0  0  0  0  0  0  0  0  0  0
   -1.8247   11.4038   -0.1625 H   0  0  0  0  0  0  0  0  0  0  0  0
   -0.9274   11.4532   -1.7178 H   0  0  0  0  0  0  0  0  0  0  0  0
   -2.7164   11.2923   -1.7178 H   0  0  0  0  0  0  0  0  0  0  0  0
    0.2297    8.5396   -1.2897 H   0  0  0  0  0  0  0  0  0  0  0  0
   -0.9281    8.1324   -2.6014 H   0  0  0  0  0  0  0  0  0  0  0  0
   -0.0942    9.7234   -2.6014 H   0  0  0  0  0  0  0  0  0  0  0  0
   -6.8942    8.6954   -2.2807 H   0  0  0  0  0  0  0  0  0  0  0  0
   -7.0420    7.6024   -4.4304 H   0  0  0  0  0  0  0  0  0  0  0  0
   -6.4938    6.0490   -3.7647 H   0  0  0  0  0  0  0  0  0  0  0  0
   -9.1884    6.7019   -4.4549 H   0  0  0  0  0  0  0  0  0  0  0  0
   -8.7307    5.3229   -3.4590 H   0  0  0  0  0  0  0  0  0  0  0  0
   -9.7619    9.2380   -1.9563 H   0  0  0  0  0  0  0  0  0  0  0  0
   -8.7684    8.9602   -3.4268 H   0  0  0  0  0  0  0  0  0  0  0  0
  -10.5125    8.5303   -3.4268 H   0  0  0  0  0  0  0  0  0  0  0  0
  -10.1089    5.4248   -1.4689 H   0  0  0  0  0  0  0  0  0  0  0  0
  -11.3886    6.2214   -3.5587 H   0  0  0  0  0  0  0  0  0  0  0  0
  -12.2681    5.4398   -2.1425 H   0  0  0  0  0  0  0  0  0  0  0  0
  -13.4421    7.5304   -3.2321 H   0  0  0  0  0  0  0  0  0  0  0  0
  -10.9826    9.1333   -0.4591 H   0  0  0  0  0  0  0  0  0  0  0  0
  -13.2259    7.8035    1.1822 H   0  0  0  0  0  0  0  0  0  0  0  0
  -11.7817    8.7001    1.8314 H   0  0  0  0  0  0  0  0  0  0  0  0
  -13.8420   10.0670    1.9041 H   0  0  0  0  0  0  0  0  0  0  0  0
  -12.5711   10.7625    0.8238 H   0  0  0  0  0  0  0  0  0  0  0  0
  -14.7006   10.9581   -0.2661 H   0  0  0  0  0  0  0  0  0  0  0  0
  -15.0260    8.4670    0.8350 H   0  0  0  0  0  0  0  0  0  0  0  0
  -12.3538   11.3830   -1.0805 H   0  0  0  0  0  0  0  0  0  0  0  0
  -11.8676   10.5234   -2.5809 H   0  0  0  0  0  0  0  0  0  0  0  0
  -13.3220   11.5776   -2.5809 H   0  0  0  0  0  0  0  0  0  0  0  0
  -15.6960    9.4704   -2.1459 H   0  0  0  0  0  0  0  0  0  0  0  0
  -14.7119   10.4638   -3.2735 H   0  0  0  0  0  0  0  0  0  0  0  0
  -14.5460    8.6751   -3.2735 H   0  0  0  0  0  0  0  0  0  0  0  0
  -11.5055    6.0629    1.6398 H   0  0  0  0  0  0  0  0  0  0  0  0
  -12.6731    5.9527    0.2793 H   0  0  0  0  0  0  0  0  0  0  0  0
  -11.1952    4.9318    0.2793 H   0  0  0  0  0  0  0  0  0  0  0  0
   -9.8416    8.0808    1.4293 H   0  0  0  0  0  0  0  0  0  0  0  0
   -9.2238    6.3752    1.0508 H   0  0  0  0  0  0  0  0  0  0  0  0
   -8.5512    8.9497   -0.4013 H   0  0  0  0  0  0  0  0  0  0  0  0
   -7.4647    7.8923    0.5825 H   0  0  0  0  0  0  0  0  0  0  0  0
   -7.6263    5.6070    0.2506 H   0  0  0  0  0  0  0  0  0  0  0  0
   -8.3725    4.9151   -1.2297 H   0  0  0  0  0  0  0  0  0  0  0  0
   -6.6358    5.3739   -1.2297 H   0  0  0  0  0  0  0  0  0  0  0  0
  1  2  1  0
  2  3  1  0
  3  4  1  0
  4  5  1  0
  5  6  1  0
  6  7  1  0
  7  8  1  0
  7  9  1  0
  2 10  1  0
 10 11  1  0
 11 12  1  0
 12 13  1  0
 13 14  1  6
 13 15  1  0
 15 16  1  0
 16 17  1  0
 17 18  2  0
 18 19  1  0
 19 20  1  0
 20 21  1  0
 21 22  1  0
 22 23  1  0
 22 24  1  0
 24 25  1  0
 24 26  1  0
 19 27  1  0
 27 28  1  1
 27 29  1  0
 29 30  1  0
 30 31  1  0
 31 32  1  1
  7  5  1  0
 31 10  1  0
 31 13  1  0
 27 15  1  0
 24 18  1  0
  1 33  1  0
  1 34  1  0
  1 35  1  0
  2 36  1  6
  3 37  1  0
  3 38  1  0
  4 39  1  0
  4 40  1  0
  5 41  1  6
  8 42  1  0
  8 43  1  0
  8 44  1  0
  9 45  1  0
  9 46  1  0
  9 47  1  0
 10 48  1  6
 11 49  1  0
 11 50  1  0
 12 51  1  0
 12 52  1  0
 14 53  1  0
 14 54  1  0
 14 55  1  0
 15 56  1  1
 16 57  1  0
 16 58  1  0
 17 59  1  0
 19 60  1  6
 20 61  1  0
 20 62  1  0
 21 63  1  0
 21 64  1  0
 22 65  1  6
 23 66  1  0
 25 67  1  0
 25 68  1  0
 25 69  1  0
 26 70  1  0
 26 71  1  0
 26 72  1  0
 28 73  1  0
 28 74  1  0
 28 75  1  0
 29 76  1  0
 29 77  1  0
 30 78  1  0
 30 79  1  0
 32 80  1  0
 32 81  1  0
 32 82  1  0
M  END
>  <meeko>  (9) 
{"is_sidechain": [false], "intermolecular_energy": 2.731, "internal_energy": -0.839}

$$$$
EPH_relaxed_0001_pdb2pqr_Repair_342_r2_0001_out
     RDKit          3D

 82 86  0  0  0  0  0  0  0  0999 V2000
    3.6270   19.0230   -3.6240 C   0  0  0  0  0  0  0  0  0  0  0  0
    2.3670   18.2320   -3.2620 C   0  0  2  0  0  0  0  0  0  0  0  0
    1.4500   19.0110   -2.2970 C   0  0  0  0  0  0  0  0  0  0  0  0
   -0.0190   19.0310   -2.7270 C   0  0  0  0  0  0  0  0  0  0  0  0
   -0.8440   19.9120   -1.8380 C   0  0  2  0  0  0  0  0  0  0  0  0
   -0.2600   20.1860   -0.5580 O   0  0  0  0  0  0  0  0  0  0  0  0
   -1.4850   19.4340   -0.5480 C   0  0  0  0  0  0  0  0  0  0  0  0
   -1.3280   18.0230   -0.0750 C   0  0  0  0  0  0  0  0  0  0  0  0
   -2.6550   20.1940   -0.0060 C   0  0  0  0  0  0  0  0  0  0  0  0
    2.7530   16.8920   -2.6470 C   0  0  1  0  0  0  0  0  0  0  0  0
    3.7800   17.0390   -1.4930 C   0  0  0  0  0  0  0  0  0  0  0  0
    3.4400   15.9430   -0.4500 C   0  0  0  0  0  0  0  0  0  0  0  0
    2.4550   15.0020   -1.1810 C   0  0  1  0  0  0  0  0  0  0  0  0
    3.3580   14.0710   -2.0490 C   0  0  0  0  0  0  0  0  0  0  0  0
    1.4830   14.1790   -0.2730 C   0  0  2  0  0  0  0  0  0  0  0  0
    2.1670   13.1910    0.6880 C   0  0  0  0  0  0  0  0  0  0  0  0
    2.3760   11.8150    0.1460 C   0  0  0  0  0  0  0  0  0  0  0  0
    1.7790   11.3070   -0.9490 C   0  0  0  0  0  0  0  0  0  0  0  0
    0.7140   12.1080   -1.7090 C   0  0  1  0  0  0  0  0  0  0  0  0
   -0.5030   11.1950   -2.0120 C   0  0  0  0  0  0  0  0  0  0  0  0
   -0.1060    9.9140   -2.7400 C   0  0  0  0  0  0  0  0  0  0  0  0
    0.9090    9.1170   -1.9260 C   0  0  2  0  0  0  0  0  0  0  0  0
    0.2750    8.6420   -0.7340 O   0  0  0  0  0  0  0  0  0  0  0  0
    2.1760    9.9370   -1.5520 C   0  0  0  0  0  0  0  0  0  0  0  0
    3.0230   10.1930   -2.8230 C   0  0  0  0  0  0  0  0  0  0  0  0
    3.0520    9.0630   -0.6150 C   0  0  0  0  0  0  0  0  0  0  0  0
    0.2900   13.4930   -1.0550 C   0  0  1  0  0  0  0  0  0  0  0  0
   -0.8500   13.2640   -0.0150 C   0  0  0  0  0  0  0  0  0  0  0  0
   -0.3090   14.4270   -2.1710 C   0  0  0  0  0  0  0  0  0  0  0  0
    0.6890   15.3040   -2.9520 C   0  0  0  0  0  0  0  0  0  0  0  0
    1.6220   16.0550   -1.9980 C   0  0  2  0  0  0  0  0  0  0  0  0
    0.7440   17.0160   -1.1260 C   0  0  0  0  0  0  0  0  0  0  0  0
    4.1364   19.3428   -2.7030 H   0  0  0  0  0  0  0  0  0  0  0  0
    4.3024   18.3866   -4.2145 H   0  0  0  0  0  0  0  0  0  0  0  0
    3.3474   19.9079   -4.2145 H   0  0  0  0  0  0  0  0  0  0  0  0
    1.8024   18.0650   -4.1912 H   0  0  0  0  0  0  0  0  0  0  0  0
    1.5148   18.5440   -1.3031 H   0  0  0  0  0  0  0  0  0  0  0  0
    1.7986   20.0543   -2.2935 H   0  0  0  0  0  0  0  0  0  0  0  0
   -0.0834   19.4055   -3.7593 H   0  0  0  0  0  0  0  0  0  0  0  0
   -0.4118   18.0061   -2.6548 H   0  0  0  0  0  0  0  0  0  0  0  0
   -1.2490   20.4501   -2.7077 H   0  0  0  0  0  0  0  0  0  0  0  0
   -1.3258   18.0031    1.0248 H   0  0  0  0  0  0  0  0  0  0  0  0
   -2.1640   17.4150   -0.4511 H   0  0  0  0  0  0  0  0  0  0  0  0
   -0.3788   17.6137   -0.4511 H   0  0  0  0  0  0  0  0  0  0  0  0
   -2.6267   20.1756    1.0935 H   0  0  0  0  0  0  0  0  0  0  0  0
   -2.6098   21.2357   -0.3566 H   0  0  0  0  0  0  0  0  0  0  0  0
   -3.5883   19.7293   -0.3566 H   0  0  0  0  0  0  0  0  0  0  0  0
    3.1325   16.3797   -3.5434 H   0  0  0  0  0  0  0  0  0  0  0  0
    4.8017   16.8952   -1.8744 H   0  0  0  0  0  0  0  0  0  0  0  0
    3.7287   18.0417   -1.0436 H   0  0  0  0  0  0  0  0  0  0  0  0
    4.3471   15.3981   -0.1494 H   0  0  0  0  0  0  0  0  0  0  0  0
    3.0103   16.3627    0.4715 H   0  0  0  0  0  0  0  0  0  0  0  0
    3.9717   13.4382   -1.3910 H   0  0  0  0  0  0  0  0  0  0  0  0
    2.7247   13.4340   -2.6839 H   0  0  0  0  0  0  0  0  0  0  0  0
    4.0141   14.6846   -2.6839 H   0  0  0  0  0  0  0  0  0  0  0  0
    1.0402   14.9580    0.3651 H   0  0  0  0  0  0  0  0  0  0  0  0
    3.1507   13.6037    0.9563 H   0  0  0  0  0  0  0  0  0  0  0  0
    1.4869   13.0803    1.5455 H   0  0  0  0  0  0  0  0  0  0  0  0
    3.0765   11.1616    0.6867 H   0  0  0  0  0  0  0  0  0  0  0  0
    1.1865   12.4245   -2.6506 H   0  0  0  0  0  0  0  0  0  0  0  0
   -0.9867   10.9251   -1.0616 H   0  0  0  0  0  0  0  0  0  0  0  0
   -1.1853   11.7547   -2.6687 H   0  0  0  0  0  0  0  0  0  0  0  0
   -1.0031    9.2978   -2.8997 H   0  0  0  0  0  0  0  0  0  0  0  0
    0.3509   10.1846   -3.7033 H   0  0  0  0  0  0  0  0  0  0  0  0
    1.2505    8.2813   -2.5545 H   0  0  0  0  0  0  0  0  0  0  0  0
    0.5670    9.2080    0.0000 H   0  0  0  0  0  0  0  0  0  0  0  0
    4.0383   10.4999   -2.5314 H   0  0  0  0  0  0  0  0  0  0  0  0
    3.0760    9.2708   -3.4202 H   0  0  0  0  0  0  0  0  0  0  0  0
    2.5563   10.9902   -3.4202 H   0  0  0  0  0  0  0  0  0  0  0  0
    2.8157    9.2987    0.4331 H   0  0  0  0  0  0  0  0  0  0  0  0
    2.8462    7.9996   -0.8071 H   0  0  0  0  0  0  0  0  0  0  0  0
    4.1149    9.2713   -0.8071 H   0  0  0  0  0  0  0  0  0  0  0  0
   -0.4401   13.3463    1.0024 H   0  0  0  0  0  0  0  0  0  0  0  0
   -1.6338   14.0226   -0.1571 H   0  0  0  0  0  0  0  0  0  0  0  0
   -1.2800   12.2615   -0.1571 H   0  0  0  0  0  0  0  0  0  0  0  0
   -0.8286   13.7857   -2.8982 H   0  0  0  0  0  0  0  0  0  0  0  0
   -0.9577   15.1359   -1.6356 H   0  0  0  0  0  0  0  0  0  0  0  0
    1.2905   14.6630   -3.6132 H   0  0  0  0  0  0  0  0  0  0  0  0
    0.1226   16.0405   -3.5408 H   0  0  0  0  0  0  0  0  0  0  0  0
    0.9279   16.8148   -0.0603 H   0  0  0  0  0  0  0  0  0  0  0  0
    1.0069   18.0598   -1.3527 H   0  0  0  0  0  0  0  0  0  0  0  0
   -0.3192   16.8482   -1.3527 H   0  0  0  0  0  0  0  0  0  0  0  0
  1  2  1  0
  2  3  1  0
  3  4  1  0
  4  5  1  0
  5  6  1  0
  6  7  1  0
  7  8  1  0
  7  9  1  0
  2 10  1  0
 10 11  1  0
 11 12  1  0
 12 13  1  0
 13 14  1  6
 13 15  1  0
 15 16  1  0
 16 17  1  0
 17 18  2  0
 18 19  1  0
 19 20  1  0
 20 21  1  0
 21 22  1  0
 22 23  1  0
 22 24  1  0
 24 25  1  0
 24 26  1  0
 19 27  1  0
 27 28  1  1
 27 29  1  0
 29 30  1  0
 30 31  1  0
 31 32  1  1
  7  5  1  0
 31 10  1  0
 31 13  1  0
 27 15  1  0
 24 18  1  0
  1 33  1  0
  1 34  1  0
  1 35  1  0
  2 36  1  6
  3 37  1  0
  3 38  1  0
  4 39  1  0
  4 40  1  0
  5 41  1  6
  8 42  1  0
  8 43  1  0
  8 44  1  0
  9 45  1  0
  9 46  1  0
  9 47  1  0
 10 48  1  6
 11 49  1  0
 11 50  1  0
 12 51  1  0
 12 52  1  0
 14 53  1  0
 14 54  1  0
 14 55  1  0
 15 56  1  1
 16 57  1  0
 16 58  1  0
 17 59  1  0
 19 60  1  6
 20 61  1  0
 20 62  1  0
 21 63  1  0
 21 64  1  0
 22 65  1  6
 23 66  1  0
 25 67  1  0
 25 68  1  0
 25 69  1  0
 26 70  1  0
 26 71  1  0
 26 72  1  0
 28 73  1  0
 28 74  1  0
 28 75  1  0
 29 76  1  0
 29 77  1  0
 30 78  1  0
 30 79  1  0
 32 80  1  0
 32 81  1  0
 32 82  1  0
M  END
>  <meeko>  (10) 
{"is_sidechain": [false], "intermolecular_energy": 2.731, "internal_energy": -0.839}

$$$$
EPH_relaxed_0001_pdb2pqr_Repair_342_r2_0001_out
     RDKit          3D

 82 86  0  0  0  0  0  0  0  0999 V2000
    4.5550   17.0710   -0.1610 C   0  0  0  0  0  0  0  0  0  0  0  0
    4.0980   16.3220   -1.4160 C   0  0  2  0  0  0  0  0  0  0  0  0
    3.8770   17.2710   -2.6100 C   0  0  0  0  0  0  0  0  0  0  0  0
    3.2450   18.6110   -2.2230 C   0  0  0  0  0  0  0  0  0  0  0  0
    1.9270   18.8200   -2.9060 C   0  0  2  0  0  0  0  0  0  0  0  0
    1.5520   20.1930   -3.0740 O   0  0  0  0  0  0  0  0  0  0  0  0
    0.7100   19.4060   -2.2150 C   0  0  0  0  0  0  0  0  0  0  0  0
    0.7530   19.8190   -0.7770 C   0  0  0  0  0  0  0  0  0  0  0  0
   -0.6430   19.1260   -2.7900 C   0  0  0  0  0  0  0  0  0  0  0  0
    2.8190   15.5470   -1.1220 C   0  0  1  0  0  0  0  0  0  0  0  0
    1.5660   16.4610   -1.0680 C   0  0  0  0  0  0  0  0  0  0  0  0
    0.3860   15.6380   -1.6450 C   0  0  0  0  0  0  0  0  0  0  0  0
    0.9150   14.1860   -1.7020 C   0  0  1  0  0  0  0  0  0  0  0  0
    0.7490   13.6410   -0.2480 C   0  0  0  0  0  0  0  0  0  0  0  0
    0.2390   13.2450   -2.7510 C   0  0  2  0  0  0  0  0  0  0  0  0
   -1.2640   12.9960   -2.5320 C   0  0  0  0  0  0  0  0  0  0  0  0
   -1.5970   11.8180   -1.6780 C   0  0  0  0  0  0  0  0  0  0  0  0
   -0.7480   10.8290   -1.3430 C   0  0  0  0  0  0  0  0  0  0  0  0
    0.6740   10.7840   -1.9180 C   0  0  1  0  0  0  0  0  0  0  0  0
    0.9870    9.3470   -2.4120 C   0  0  0  0  0  0  0  0  0  0  0  0
    0.7610    8.2940   -1.3310 C   0  0  0  0  0  0  0  0  0  0  0  0
   -0.6790    8.3320   -0.8260 C   0  0  2  0  0  0  0  0  0  0  0  0
   -1.5490    7.9180   -1.8830 O   0  0  0  0  0  0  0  0  0  0  0  0
   -1.1110    9.7330   -0.3110 C   0  0  0  0  0  0  0  0  0  0  0  0
   -0.3760   10.0510    1.0140 C   0  0  0  0  0  0  0  0  0  0  0  0
   -2.6230    9.6680    0.0360 C   0  0  0  0  0  0  0  0  0  0  0  0
    1.0180   11.8910   -3.0050 C   0  0  1  0  0  0  0  0  0  0  0  0
    0.5970   11.3940   -4.4220 C   0  0  0  0  0  0  0  0  0  0  0  0
    2.5780   12.0980   -3.0520 C   0  0  0  0  0  0  0  0  0  0  0  0
    3.1720   13.1290   -2.0720 C   0  0  0  0  0  0  0  0  0  0  0  0
    2.4020   14.4520   -2.1350 C   0  0  2  0  0  0  0  0  0  0  0  0
    2.5700   15.0340   -3.5800 C   0  0  0  0  0  0  0  0  0  0  0  0
    4.2217   16.5248    0.7337 H   0  0  0  0  0  0  0  0  0  0  0  0
    5.6525   17.1453   -0.1576 H   0  0  0  0  0  0  0  0  0  0  0  0
    4.1191   18.0809   -0.1576 H   0  0  0  0  0  0  0  0  0  0  0  0
    4.9001   15.6227   -1.6947 H   0  0  0  0  0  0  0  0  0  0  0  0
    4.8512   17.4696   -3.0806 H   0  0  0  0  0  0  0  0  0  0  0  0
    3.1751   16.7701   -3.2929 H   0  0  0  0  0  0  0  0  0  0  0  0
    3.0894   18.6306   -1.1342 H   0  0  0  0  0  0  0  0  0  0  0  0
    3.9260   19.4152   -2.5383 H   0  0  0  0  0  0  0  0  0  0  0  0
    2.0666   17.9089   -3.5063 H   0  0  0  0  0  0  0  0  0  0  0  0
    0.6604   18.9291   -0.1370 H   0  0  0  0  0  0  0  0  0  0  0  0
    1.7084   20.3227   -0.5686 H   0  0  0  0  0  0  0  0  0  0  0  0
   -0.0782   20.5087   -0.5686 H   0  0  0  0  0  0  0  0  0  0  0  0
   -1.3647   18.9766   -1.9734 H   0  0  0  0  0  0  0  0  0  0  0  0
   -0.9614   19.9773   -3.4096 H   0  0  0  0  0  0  0  0  0  0  0  0
   -0.5974   18.2183   -3.4096 H   0  0  0  0  0  0  0  0  0  0  0  0
    3.0993   15.0860   -0.1634 H   0  0  0  0  0  0  0  0  0  0  0  0
    1.3531   16.7506   -0.0284 H   0  0  0  0  0  0  0  0  0  0  0  0
    1.7246   17.3828   -1.6470 H   0  0  0  0  0  0  0  0  0  0  0  0
   -0.4931   15.7056   -0.9872 H   0  0  0  0  0  0  0  0  0  0  0  0
    0.0646   16.0041   -2.6312 H   0  0  0  0  0  0  0  0  0  0  0  0
    0.9914   14.4368    0.4717 H   0  0  0  0  0  0  0  0  0  0  0  0
   -0.2898   13.3129   -0.0958 H   0  0  0  0  0  0  0  0  0  0  0  0
    1.4285   12.7895   -0.0958 H   0  0  0  0  0  0  0  0  0  0  0  0
    0.3124   13.8340   -3.6771 H   0  0  0  0  0  0  0  0  0  0  0  0
   -1.6913   13.8916   -2.0574 H   0  0  0  0  0  0  0  0  0  0  0  0
   -1.6848   12.7806   -3.5252 H   0  0  0  0  0  0  0  0  0  0  0  0
   -2.6240   11.7527   -1.2893 H   0  0  0  0  0  0  0  0  0  0  0  0
    1.3460   11.0487   -1.0884 H   0  0  0  0  0  0  0  0  0  0  0  0
    0.3352    9.1188   -3.2682 H   0  0  0  0  0  0  0  0  0  0  0  0
    2.0502    9.3146   -2.6923 H   0  0  0  0  0  0  0  0  0  0  0  0
    0.9699    7.2982   -1.7490 H   0  0  0  0  0  0  0  0  0  0  0  0
    1.4348    8.5058   -0.4877 H   0  0  0  0  0  0  0  0  0  0  0  0
   -0.7454    7.6486    0.0334 H   0  0  0  0  0  0  0  0  0  0  0  0
   -1.0680    7.2660   -2.4220 H   0  0  0  0  0  0  0  0  0  0  0  0
   -1.0165    9.7739    1.8643 H   0  0  0  0  0  0  0  0  0  0  0  0
    0.5620    9.4782    1.0596 H   0  0  0  0  0  0  0  0  0  0  0  0
   -0.1513   11.1268    1.0596 H   0  0  0  0  0  0  0  0  0  0  0  0
   -2.7485    9.6626    1.1288 H   0  0  0  0  0  0  0  0  0  0  0  0
   -3.1344   10.5450   -0.3875 H   0  0  0  0  0  0  0  0  0  0  0  0
   -3.0573    8.7504   -0.3875 H   0  0  0  0  0  0  0  0  0  0  0  0
   -0.1110   10.5581   -4.3220 H   0  0  0  0  0  0  0  0  0  0  0  0
    0.1172   12.2172   -4.9717 H   0  0  0  0  0  0  0  0  0  0  0  0
    1.4879   11.0561   -4.9717 H   0  0  0  0  0  0  0  0  0  0  0  0
    3.0491   11.1270   -2.8395 H   0  0  0  0  0  0  0  0  0  0  0  0
    2.7849   12.5011   -4.0543 H   0  0  0  0  0  0  0  0  0  0  0  0
    3.1151   12.7278   -1.0494 H   0  0  0  0  0  0  0  0  0  0  0  0
    4.2184   13.3183   -2.3535 H   0  0  0  0  0  0  0  0  0  0  0  0
    2.8746   16.0891   -3.5172 H   0  0  0  0  0  0  0  0  0  0  0  0
    3.3396   14.4616   -4.1186 H   0  0  0  0  0  0  0  0  0  0  0  0
    1.6138   14.9598   -4.1186 H   0  0  0  0  0  0  0  0  0  0  0  0
  1  2  1  0
  2  3  1  0
  3  4  1  0
  4  5  1  0
  5  6  1  0
  6  7  1  0
  7  8  1  0
  7  9  1  0
  2 10  1  0
 10 11  1  0
 11 12  1  0
 12 13  1  0
 13 14  1  1
 13 15  1  0
 15 16  1  0
 16 17  1  0
 17 18  2  0
 18 19  1  0
 19 20  1  0
 20 21  1  0
 21 22  1  0
 22 23  1  0
 22 24  1  0
 24 25  1  0
 24 26  1  0
 19 27  1  0
 27 28  1  6
 27 29  1  0
 29 30  1  0
 30 31  1  0
 31 32  1  6
  7  5  1  0
 31 10  1  0
 31 13  1  0
 27 15  1  0
 24 18  1  0
  1 33  1  0
  1 34  1  0
  1 35  1  0
  2 36  1  6
  3 37  1  0
  3 38  1  0
  4 39  1  0
  4 40  1  0
  5 41  1  6
  8 42  1  0
  8 43  1  0
  8 44  1  0
  9 45  1  0
  9 46  1  0
  9 47  1  0
 10 48  1  1
 11 49  1  0
 11 50  1  0
 12 51  1  0
 12 52  1  0
 14 53  1  0
 14 54  1  0
 14 55  1  0
 15 56  1  6
 16 57  1  0
 16 58  1  0
 17 59  1  0
 19 60  1  1
 20 61  1  0
 20 62  1  0
 21 63  1  0
 21 64  1  0
 22 65  1  1
 23 66  1  0
 25 67  1  0
 25 68  1  0
 25 69  1  0
 26 70  1  0
 26 71  1  0
 26 72  1  0
 28 73  1  0
 28 74  1  0
 28 75  1  0
 29 76  1  0
 29 77  1  0
 30 78  1  0
 30 79  1  0
 32 80  1  0
 32 81  1  0
 32 82  1  0
M  END
>  <meeko>  (11) 
{"is_sidechain": [false], "intermolecular_energy": 2.731, "internal_energy": -0.839}

$$$$
EPH_relaxed_0001_pdb2pqr_Repair_342_r2_0001_out
     RDKit          3D

 82 86  0  0  0  0  0  0  0  0999 V2000
   -1.3660   10.3620    1.5250 C   0  0  0  0  0  0  0  0  0  0  0  0
   -1.9740   10.0680    0.1500 C   0  0  2  0  0  0  0  0  0  0  0  0
   -2.7570    8.7400    0.1330 C   0  0  0  0  0  0  0  0  0  0  0  0
   -4.1860    8.8740   -0.4000 C   0  0  0  0  0  0  0  0  0  0  0  0
   -4.7500    7.5490   -0.8150 C   0  0  2  0  0  0  0  0  0  0  0  0
   -4.8470    7.3570   -2.2330 O   0  0  0  0  0  0  0  0  0  0  0  0
   -6.0890    7.3910   -1.5110 C   0  0  0  0  0  0  0  0  0  0  0  0
   -6.9470    8.5740   -1.8300 C   0  0  0  0  0  0  0  0  0  0  0  0
   -6.7800    6.0640   -1.4390 C   0  0  0  0  0  0  0  0  0  0  0  0
   -0.8780   10.0410   -0.9080 C   0  0  1  0  0  0  0  0  0  0  0  0
   -1.2650    9.1930   -2.1490 C   0  0  0  0  0  0  0  0  0  0  0  0
   -0.6340    9.8890   -3.3820 C   0  0  0  0  0  0  0  0  0  0  0  0
    0.3610   10.9120   -2.7850 C   0  0  1  0  0  0  0  0  0  0  0  0
    1.6360   10.0790   -2.4450 C   0  0  0  0  0  0  0  0  0  0  0  0
    0.7000   12.1480   -3.6800 C   0  0  2  0  0  0  0  0  0  0  0  0
    1.3920   11.8180   -5.0140 C   0  0  0  0  0  0  0  0  0  0  0  0
    2.8840   11.7940   -4.9700 C   0  0  0  0  0  0  0  0  0  0  0  0
    3.6460   12.3020   -3.9830 C   0  0  0  0  0  0  0  0  0  0  0  0
    3.0120   13.0680   -2.8140 C   0  0  1  0  0  0  0  0  0  0  0  0
    3.8080   14.3750   -2.5600 C   0  0  0  0  0  0  0  0  0  0  0  0
    5.2980   14.1220   -2.3520 C   0  0  0  0  0  0  0  0  0  0  0  0
    5.9040   13.4120   -3.5600 C   0  0  2  0  0  0  0  0  0  0  0  0
    5.8670   14.2990   -4.6830 O   0  0  0  0  0  0  0  0  0  0  0  0
    5.1780   12.0850   -3.9180 C   0  0  0  0  0  0  0  0  0  0  0  0
    5.4720   11.0210   -2.8320 C   0  0  0  0  0  0  0  0  0  0  0  0
    5.7960   11.5430   -5.2360 C   0  0  0  0  0  0  0  0  0  0  0  0
    1.4460   13.3160   -2.9160 C   0  0  1  0  0  0  0  0  0  0  0  0
    1.1660   14.6230   -3.7190 C   0  0  0  0  0  0  0  0  0  0  0  0
    0.8680   13.5500   -1.4700 C   0  0  0  0  0  0  0  0  0  0  0  0
    0.4390   12.2980   -0.6820 C   0  0  0  0  0  0  0  0  0  0  0  0
   -0.4590   11.3950   -1.5340 C   0  0  2  0  0  0  0  0  0  0  0  0
   -1.7610   12.1980   -1.8730 C   0  0  0  0  0  0  0  0  0  0  0  0
   -2.0585   10.0271    2.3113 H   0  0  0  0  0  0  0  0  0  0  0  0
   -0.4105    9.8264    1.6255 H   0  0  0  0  0  0  0  0  0  0  0  0
   -1.1924   11.4436    1.6255 H   0  0  0  0  0  0  0  0  0  0  0  0
   -2.6877   10.8741   -0.0754 H   0  0  0  0  0  0  0  0  0  0  0  0
   -2.2147    8.0254   -0.5035 H   0  0  0  0  0  0  0  0  0  0  0  0
   -2.8339    8.3992    1.1760 H   0  0  0  0  0  0  0  0  0  0  0  0
   -4.8222    9.3006    0.3894 H   0  0  0  0  0  0  0  0  0  0  0  0
   -4.1620    9.5282   -1.2840 H   0  0  0  0  0  0  0  0  0  0  0  0
   -4.3162    7.0605    0.0700 H   0  0  0  0  0  0  0  0  0  0  0  0
   -7.2872    9.0430   -0.8950 H   0  0  0  0  0  0  0  0  0  0  0  0
   -6.3653    9.3018   -2.4148 H   0  0  0  0  0  0  0  0  0  0  0  0
   -7.8194    8.2472   -2.4148 H   0  0  0  0  0  0  0  0  0  0  0  0
   -6.9261    5.7834   -0.3855 H   0  0  0  0  0  0  0  0  0  0  0  0
   -7.7573    6.1319   -1.9393 H   0  0  0  0  0  0  0  0  0  0  0  0
   -6.1641    5.3022   -1.9393 H   0  0  0  0  0  0  0  0  0  0  0  0
   -0.0526    9.6329   -0.3061 H   0  0  0  0  0  0  0  0  0  0  0  0
   -0.8701    8.1714   -2.0476 H   0  0  0  0  0  0  0  0  0  0  0  0
   -2.3578    9.1213   -2.2527 H   0  0  0  0  0  0  0  0  0  0  0  0
   -0.1076    9.1582   -4.0135 H   0  0  0  0  0  0  0  0  0  0  0  0
   -1.3891   10.3667   -4.0236 H   0  0  0  0  0  0  0  0  0  0  0  0
    1.7464   10.0069   -1.3529 H   0  0  0  0  0  0  0  0  0  0  0  0
    1.5389    9.0696   -2.8712 H   0  0  0  0  0  0  0  0  0  0  0  0
    2.5214   10.5734   -2.8712 H   0  0  0  0  0  0  0  0  0  0  0  0
   -0.2978   12.5264   -3.9468 H   0  0  0  0  0  0  0  0  0  0  0  0
    1.0457   10.8262   -5.3403 H   0  0  0  0  0  0  0  0  0  0  0  0
    1.1211   12.6291   -5.7059 H   0  0  0  0  0  0  0  0  0  0  0  0
    3.4050   11.3212   -5.8156 H   0  0  0  0  0  0  0  0  0  0  0  0
    3.0906   12.4072   -1.9381 H   0  0  0  0  0  0  0  0  0  0  0  0
    3.6810   15.0394   -3.4275 H   0  0  0  0  0  0  0  0  0  0  0  0
    3.4153   14.8313   -1.6394 H   0  0  0  0  0  0  0  0  0  0  0  0
    5.8098   15.0847   -2.2060 H   0  0  0  0  0  0  0  0  0  0  0  0
    5.4254   13.4809   -1.4672 H   0  0  0  0  0  0  0  0  0  0  0  0
    6.9386   13.1434   -3.3001 H   0  0  0  0  0  0  0  0  0  0  0  0
    4.9520   14.3230   -5.0080 H   0  0  0  0  0  0  0  0  0  0  0  0
    5.3479   11.4701   -1.8356 H   0  0  0  0  0  0  0  0  0  0  0  0
    4.7728   10.1793   -2.9445 H   0  0  0  0  0  0  0  0  0  0  0  0
    6.5042   10.6577   -2.9445 H   0  0  0  0  0  0  0  0  0  0  0  0
    6.6035   10.8348   -4.9983 H   0  0  0  0  0  0  0  0  0  0  0  0
    5.0189   11.0299   -5.8215 H   0  0  0  0  0  0  0  0  0  0  0  0
    6.2033   12.3804   -5.8215 H   0  0  0  0  0  0  0  0  0  0  0  0
    0.9883   15.4526   -3.0188 H   0  0  0  0  0  0  0  0  0  0  0  0
    2.0343   14.8574   -4.3523 H   0  0  0  0  0  0  0  0  0  0  0  0
    0.2779   14.4811   -4.3523 H   0  0  0  0  0  0  0  0  0  0  0  0
    1.6420   14.0644   -0.8816 H   0  0  0  0  0  0  0  0  0  0  0  0
   -0.0568   14.1264   -1.6198 H   0  0  0  0  0  0  0  0  0  0  0  0
    1.3361   11.7354   -0.3840 H   0  0  0  0  0  0  0  0  0  0  0  0
   -0.1266   12.6186    0.2053 H   0  0  0  0  0  0  0  0  0  0  0  0
   -2.2567   12.5037   -0.9398 H   0  0  0  0  0  0  0  0  0  0  0  0
   -1.4987   13.0915   -2.4586 H   0  0  0  0  0  0  0  0  0  0  0  0
   -2.4417   11.5626   -2.4586 H   0  0  0  0  0  0  0  0  0  0  0  0
  1  2  1  0
  2  3  1  0
  3  4  1  0
  4  5  1  0
  5  6  1  0
  6  7  1  0
  7  8  1  0
  7  9  1  0
  2 10  1  0
 10 11  1  0
 11 12  1  0
 12 13  1  0
 13 14  1  1
 13 15  1  0
 15 16  1  0
 16 17  1  0
 17 18  2  0
 18 19  1  0
 19 20  1  0
 20 21  1  0
 21 22  1  0
 22 23  1  0
 22 24  1  0
 24 25  1  0
 24 26  1  0
 19 27  1  0
 27 28  1  6
 27 29  1  0
 29 30  1  0
 30 31  1  0
 31 32  1  6
  7  5  1  0
 31 10  1  0
 31 13  1  0
 27 15  1  0
 24 18  1  0
  1 33  1  0
  1 34  1  0
  1 35  1  0
  2 36  1  6
  3 37  1  0
  3 38  1  0
  4 39  1  0
  4 40  1  0
  5 41  1  1
  8 42  1  0
  8 43  1  0
  8 44  1  0
  9 45  1  0
  9 46  1  0
  9 47  1  0
 10 48  1  1
 11 49  1  0
 11 50  1  0
 12 51  1  0
 12 52  1  0
 14 53  1  0
 14 54  1  0
 14 55  1  0
 15 56  1  6
 16 57  1  0
 16 58  1  0
 17 59  1  0
 19 60  1  1
 20 61  1  0
 20 62  1  0
 21 63  1  0
 21 64  1  0
 22 65  1  1
 23 66  1  0
 25 67  1  0
 25 68  1  0
 25 69  1  0
 26 70  1  0
 26 71  1  0
 26 72  1  0
 28 73  1  0
 28 74  1  0
 28 75  1  0
 29 76  1  0
 29 77  1  0
 30 78  1  0
 30 79  1  0
 32 80  1  0
 32 81  1  0
 32 82  1  0
M  END
>  <meeko>  (12) 
{"is_sidechain": [false], "intermolecular_energy": 2.731, "internal_energy": -0.839}

$$$$
EPH_relaxed_0001_pdb2pqr_Repair_342_r2_0001_out
     RDKit          3D

 82 86  0  0  0  0  0  0  0  0999 V2000
    4.7890   16.7770   -1.7300 C   0  0  0  0  0  0  0  0  0  0  0  0
    4.7700   15.2460   -1.7650 C   0  0  2  0  0  0  0  0  0  0  0  0
    5.1870   14.6910   -3.1420 C   0  0  0  0  0  0  0  0  0  0  0  0
    6.0790   13.4490   -3.0600 C   0  0  0  0  0  0  0  0  0  0  0  0
    5.7110   12.4340   -4.0990 C   0  0  2  0  0  0  0  0  0  0  0  0
    5.2450   11.1830   -3.5750 O   0  0  0  0  0  0  0  0  0  0  0  0
    6.4770   11.1420   -4.3140 C   0  0  0  0  0  0  0  0  0  0  0  0
    7.6730   10.7960   -3.4840 C   0  0  0  0  0  0  0  0  0  0  0  0
    6.3620   10.4540   -5.6390 C   0  0  0  0  0  0  0  0  0  0  0  0
    3.3830   14.7350   -1.3960 C   0  0  1  0  0  0  0  0  0  0  0  0
    2.3430   15.8790   -1.2560 C   0  0  0  0  0  0  0  0  0  0  0  0
    0.9890   15.3170   -1.7630 C   0  0  0  0  0  0  0  0  0  0  0  0
    1.2140   13.7900   -1.8620 C   0  0  1  0  0  0  0  0  0  0  0  0
    1.0310   13.2620   -0.4050 C   0  0  0  0  0  0  0  0  0  0  0  0
    0.3010   13.0220   -2.8730 C   0  0  2  0  0  0  0  0  0  0  0  0
   -1.2050   13.0720   -2.5610 C   0  0  0  0  0  0  0  0  0  0  0  0
   -1.7140   11.9680   -1.6950 C   0  0  0  0  0  0  0  0  0  0  0  0
   -1.0590   10.8240   -1.4220 C   0  0  0  0  0  0  0  0  0  0  0  0
    0.2870   10.5080   -2.0860 C   0  0  1  0  0  0  0  0  0  0  0  0
    0.2780    9.0480   -2.6080 C   0  0  0  0  0  0  0  0  0  0  0  0
   -0.0870    8.0400   -1.5210 C   0  0  0  0  0  0  0  0  0  0  0  0
   -1.4580    8.3530   -0.9260 C   0  0  2  0  0  0  0  0  0  0  0  0
   -2.4560    8.1400   -1.9290 O   0  0  0  0  0  0  0  0  0  0  0  0
   -1.5710    9.8020   -0.3760 C   0  0  0  0  0  0  0  0  0  0  0  0
   -0.7080    9.9430    0.9030 C   0  0  0  0  0  0  0  0  0  0  0  0
   -3.0410   10.0320    0.0660 C   0  0  0  0  0  0  0  0  0  0  0  0
    0.7780   11.5460   -3.1850 C   0  0  1  0  0  0  0  0  0  0  0  0
    0.1820   11.1700   -4.5760 C   0  0  0  0  0  0  0  0  0  0  0  0
    2.3420   11.4410   -3.3290 C   0  0  0  0  0  0  0  0  0  0  0  0
    3.1880   12.3140   -2.3820 C   0  0  0  0  0  0  0  0  0  0  0  0
    2.6950   13.7640   -2.3880 C   0  0  2  0  0  0  0  0  0  0  0  0
    2.8870   14.3290   -3.8360 C   0  0  0  0  0  0  0  0  0  0  0  0
    4.7933   17.1198   -0.6848 H   0  0  0  0  0  0  0  0  0  0  0  0
    5.6918   17.1442   -2.2400 H   0  0  0  0  0  0  0  0  0  0  0  0
    3.8956   17.1665   -2.2400 H   0  0  0  0  0  0  0  0  0  0  0  0
    5.5056   14.8893   -1.0290 H   0  0  0  0  0  0  0  0  0  0  0  0
    4.2767   14.4286   -3.7010 H   0  0  0  0  0  0  0  0  0  0  0  0
    5.7739   15.4762   -3.6410 H   0  0  0  0  0  0  0  0  0  0  0  0
    7.1258   13.7511   -3.2115 H   0  0  0  0  0  0  0  0  0  0  0  0
    5.9406   12.9917   -2.0692 H   0  0  0  0  0  0  0  0  0  0  0  0
    5.3893   13.2251   -4.7923 H   0  0  0  0  0  0  0  0  0  0  0  0
    7.4135   10.8711   -2.4177 H   0  0  0  0  0  0  0  0  0  0  0  0
    7.9928    9.7685   -3.7121 H   0  0  0  0  0  0  0  0  0  0  0  0
    8.4920   11.4940   -3.7121 H   0  0  0  0  0  0  0  0  0  0  0  0
    6.1825    9.3804   -5.4803 H   0  0  0  0  0  0  0  0  0  0  0  0
    5.5236   10.8862   -6.2050 H   0  0  0  0  0  0  0  0  0  0  0  0
    7.2953   10.5900   -6.2050 H   0  0  0  0  0  0  0  0  0  0  0  0
    3.6234   14.2088   -0.4604 H   0  0  0  0  0  0  0  0  0  0  0  0
    2.2558   16.1849   -0.2030 H   0  0  0  0  0  0  0  0  0  0  0  0
    2.6466   16.7622   -1.8371 H   0  0  0  0  0  0  0  0  0  0  0  0
    0.1824   15.5455   -1.0508 H   0  0  0  0  0  0  0  0  0  0  0  0
    0.6878   15.7579   -2.7247 H   0  0  0  0  0  0  0  0  0  0  0  0
    1.3051   14.0529    0.3087 H   0  0  0  0  0  0  0  0  0  0  0  0
   -0.0192   12.9746   -0.2483 H   0  0  0  0  0  0  0  0  0  0  0  0
    1.6781   12.3864   -0.2483 H   0  0  0  0  0  0  0  0  0  0  0  0
    0.4335   13.6025   -3.7979 H   0  0  0  0  0  0  0  0  0  0  0  0
   -1.4157   14.0256   -2.0548 H   0  0  0  0  0  0  0  0  0  0  0  0
   -1.7196   12.9627   -3.5271 H   0  0  0  0  0  0  0  0  0  0  0  0
   -2.7076   12.1002   -1.2419 H   0  0  0  0  0  0  0  0  0  0  0  0
    1.0472   10.6172   -1.2984 H   0  0  0  0  0  0  0  0  0  0  0  0
   -0.4567    8.9694   -3.4229 H   0  0  0  0  0  0  0  0  0  0  0  0
    1.2945    8.8112   -2.9552 H   0  0  0  0  0  0  0  0  0  0  0  0
   -0.1058    7.0305   -1.9576 H   0  0  0  0  0  0  0  0  0  0  0  0
    0.6652    8.0984   -0.7205 H   0  0  0  0  0  0  0  0  0  0  0  0
   -1.6065    7.6798   -0.0688 H   0  0  0  0  0  0  0  0  0  0  0  0
   -3.1970    8.7400   -1.7390 H   0  0  0  0  0  0  0  0  0  0  0  0
   -1.3487    9.8383    1.7910 H   0  0  0  0  0  0  0  0  0  0  0  0
    0.0635    9.1590    0.9130 H   0  0  0  0  0  0  0  0  0  0  0  0
   -0.2261   10.9318    0.9130 H   0  0  0  0  0  0  0  0  0  0  0  0
   -3.0965   10.0407    1.1646 H   0  0  0  0  0  0  0  0  0  0  0  0
   -3.3953   10.9965   -0.3267 H   0  0  0  0  0  0  0  0  0  0  0  0
   -3.6730    9.2218   -0.3267 H   0  0  0  0  0  0  0  0  0  0  0  0
   -0.7406   10.5880   -4.4344 H   0  0  0  0  0  0  0  0  0  0  0  0
   -0.0461   12.0880   -5.1374 H   0  0  0  0  0  0  0  0  0  0  0  0
    0.9123   10.5688   -5.1374 H   0  0  0  0  0  0  0  0  0  0  0  0
    2.6225   10.3919   -3.1537 H   0  0  0  0  0  0  0  0  0  0  0  0
    2.5634   11.8152   -4.3394 H   0  0  0  0  0  0  0  0  0  0  0  0
    3.1142   11.9129   -1.3604 H   0  0  0  0  0  0  0  0  0  0  0  0
    4.2322   12.2967   -2.7274 H   0  0  0  0  0  0  0  0  0  0  0  0
    3.2405   15.3691   -3.7799 H   0  0  0  0  0  0  0  0  0  0  0  0
    3.6281   13.7184   -4.3726 H   0  0  0  0  0  0  0  0  0  0  0  0
    1.9273   14.2963   -4.3726 H   0  0  0  0  0  0  0  0  0  0  0  0
  1  2  1  0
  2  3  1  0
  3  4  1  0
  4  5  1  0
  5  6  1  0
  6  7  1  0
  7  8  1  0
  7  9  1  0
  2 10  1  0
 10 11  1  0
 11 12  1  0
 12 13  1  0
 13 14  1  1
 13 15  1  0
 15 16  1  0
 16 17  1  0
 17 18  2  0
 18 19  1  0
 19 20  1  0
 20 21  1  0
 21 22  1  0
 22 23  1  0
 22 24  1  0
 24 25  1  0
 24 26  1  0
 19 27  1  0
 27 28  1  6
 27 29  1  0
 29 30  1  0
 30 31  1  0
 31 32  1  6
  7  5  1  0
 31 10  1  0
 31 13  1  0
 27 15  1  0
 24 18  1  0
  1 33  1  0
  1 34  1  0
  1 35  1  0
  2 36  1  1
  3 37  1  0
  3 38  1  0
  4 39  1  0
  4 40  1  0
  5 41  1  6
  8 42  1  0
  8 43  1  0
  8 44  1  0
  9 45  1  0
  9 46  1  0
  9 47  1  0
 10 48  1  1
 11 49  1  0
 11 50  1  0
 12 51  1  0
 12 52  1  0
 14 53  1  0
 14 54  1  0
 14 55  1  0
 15 56  1  6
 16 57  1  0
 16 58  1  0
 17 59  1  0
 19 60  1  1
 20 61  1  0
 20 62  1  0
 21 63  1  0
 21 64  1  0
 22 65  1  1
 23 66  1  0
 25 67  1  0
 25 68  1  0
 25 69  1  0
 26 70  1  0
 26 71  1  0
 26 72  1  0
 28 73  1  0
 28 74  1  0
 28 75  1  0
 29 76  1  0
 29 77  1  0
 30 78  1  0
 30 79  1  0
 32 80  1  0
 32 81  1  0
 32 82  1  0
M  END
>  <meeko>  (13) 
{"is_sidechain": [false], "intermolecular_energy": 2.731, "internal_energy": -0.839}

$$$$
EPH_relaxed_0001_pdb2pqr_Repair_342_r2_0001_out
     RDKit          3D

 82 86  0  0  0  0  0  0  0  0999 V2000
    1.9690   19.6460   -1.3090 C   0  0  0  0  0  0  0  0  0  0  0  0
    1.7040   19.0440   -2.6920 C   0  0  2  0  0  0  0  0  0  0  0  0
    0.2340   19.2130   -3.1260 C   0  0  0  0  0  0  0  0  0  0  0  0
   -0.5860   20.1050   -2.1900 C   0  0  0  0  0  0  0  0  0  0  0  0
   -1.4830   19.2980   -1.3000 C   0  0  2  0  0  0  0  0  0  0  0  0
   -2.4020   20.0720   -0.5170 O   0  0  0  0  0  0  0  0  0  0  0  0
   -1.4100   19.3340    0.2150 C   0  0  0  0  0  0  0  0  0  0  0  0
   -0.4140   20.1940    0.9280 C   0  0  0  0  0  0  0  0  0  0  0  0
   -1.9660   18.1770    0.9850 C   0  0  0  0  0  0  0  0  0  0  0  0
    2.0820   17.5670   -2.6970 C   0  0  1  0  0  0  0  0  0  0  0  0
    3.6140   17.3430   -2.5960 C   0  0  0  0  0  0  0  0  0  0  0  0
    3.8240   16.0540   -1.7600 C   0  0  0  0  0  0  0  0  0  0  0  0
    2.4230   15.4020   -1.6910 C   0  0  1  0  0  0  0  0  0  0  0  0
    2.2640   14.6470   -3.0480 C   0  0  0  0  0  0  0  0  0  0  0  0
    2.1590   14.4600   -0.4720 C   0  0  2  0  0  0  0  0  0  0  0  0
    3.0600   13.2140   -0.4030 C   0  0  0  0  0  0  0  0  0  0  0  0
    2.5280   12.0030   -1.0950 C   0  0  0  0  0  0  0  0  0  0  0  0
    1.2570   11.8300   -1.5010 C   0  0  0  0  0  0  0  0  0  0  0  0
    0.1790   12.8750   -1.1850 C   0  0  1  0  0  0  0  0  0  0  0  0
   -1.0910   12.1640   -0.6500 C   0  0  0  0  0  0  0  0  0  0  0  0
   -1.5940   11.0750   -1.5930 C   0  0  0  0  0  0  0  0  0  0  0  0
   -0.5140   10.0240   -1.8370 C   0  0  2  0  0  0  0  0  0  0  0  0
   -0.2700    9.3210   -0.6150 O   0  0  0  0  0  0  0  0  0  0  0  0
    0.8170   10.6250   -2.3690 C   0  0  0  0  0  0  0  0  0  0  0  0
    0.6210   11.1190   -3.8230 C   0  0  0  0  0  0  0  0  0  0  0  0
    1.8640    9.4800   -2.4370 C   0  0  0  0  0  0  0  0  0  0  0  0
    0.6360   14.0840   -0.2600 C   0  0  1  0  0  0  0  0  0  0  0  0
    0.4780   13.6960    1.2410 C   0  0  0  0  0  0  0  0  0  0  0  0
   -0.3220   15.3100   -0.5050 C   0  0  0  0  0  0  0  0  0  0  0  0
    0.0580   16.2710   -1.6480 C   0  0  0  0  0  0  0  0  0  0  0  0
    1.5290   16.6870   -1.5480 C   0  0  2  0  0  0  0  0  0  0  0  0
    1.7140   17.4690   -0.2020 C   0  0  0  0  0  0  0  0  0  0  0  0
    1.6551   18.9329   -0.5325 H   0  0  0  0  0  0  0  0  0  0  0  0
    3.0431   19.8569   -1.2006 H   0  0  0  0  0  0  0  0  0  0  0  0
    1.3991   20.5806   -1.2006 H   0  0  0  0  0  0  0  0  0  0  0  0
    2.3272   19.5896   -3.4159 H   0  0  0  0  0  0  0  0  0  0  0  0
    0.2179   19.6579   -4.1319 H   0  0  0  0  0  0  0  0  0  0  0  0
   -0.2251   18.2137   -3.1013 H   0  0  0  0  0  0  0  0  0  0  0  0
    0.1018   20.6928   -1.5644 H   0  0  0  0  0  0  0  0  0  0  0  0
   -1.2163   20.7620   -2.8073 H   0  0  0  0  0  0  0  0  0  0  0  0
   -1.4872   18.4653   -2.0188 H   0  0  0  0  0  0  0  0  0  0  0  0
   -0.5439   20.0818    2.0145 H   0  0  0  0  0  0  0  0  0  0  0  0
    0.6040   19.8863    0.6468 H   0  0  0  0  0  0  0  0  0  0  0  0
   -0.5700   21.2459    0.6468 H   0  0  0  0  0  0  0  0  0  0  0  0
   -1.8711   18.3744    2.0630 H   0  0  0  0  0  0  0  0  0  0  0  0
   -3.0273   18.0422    0.7289 H   0  0  0  0  0  0  0  0  0  0  0  0
   -1.4082   17.2641    0.7289 H   0  0  0  0  0  0  0  0  0  0  0  0
    1.6304   17.2643   -3.6533 H   0  0  0  0  0  0  0  0  0  0  0  0
    4.0454   17.2177   -3.6001 H   0  0  0  0  0  0  0  0  0  0  0  0
    4.1087   18.2047   -2.1239 H   0  0  0  0  0  0  0  0  0  0  0  0
    4.5410   15.3825   -2.2550 H   0  0  0  0  0  0  0  0  0  0  0  0
    4.2353   16.2661   -0.7621 H   0  0  0  0  0  0  0  0  0  0  0  0
    2.0409   13.5875   -2.8541 H   0  0  0  0  0  0  0  0  0  0  0  0
    1.4407   15.0958   -3.6230 H   0  0  0  0  0  0  0  0  0  0  0  0
    3.1984   14.7257   -3.6230 H   0  0  0  0  0  0  0  0  0  0  0  0
    2.4536   15.0900    0.3802 H   0  0  0  0  0  0  0  0  0  0  0  0
    4.0278   13.4687   -0.8597 H   0  0  0  0  0  0  0  0  0  0  0  0
    3.1315   12.9489    0.6622 H   0  0  0  0  0  0  0  0  0  0  0  0
    3.2348   11.1828   -1.2894 H   0  0  0  0  0  0  0  0  0  0  0  0
   -0.0472   13.3758   -2.1379 H   0  0  0  0  0  0  0  0  0  0  0  0
   -0.8558   11.7070    0.3226 H   0  0  0  0  0  0  0  0  0  0  0  0
   -1.8844   12.9207   -0.5610 H   0  0  0  0  0  0  0  0  0  0  0  0
   -2.4742   10.5898   -1.1459 H   0  0  0  0  0  0  0  0  0  0  0  0
   -1.8577   11.5378   -2.5554 H   0  0  0  0  0  0  0  0  0  0  0  0
   -0.8856    9.3448   -2.6184 H   0  0  0  0  0  0  0  0  0  0  0  0
    0.4050    8.6450   -0.7940 H   0  0  0  0  0  0  0  0  0  0  0  0
    0.2153   12.1414   -3.8113 H   0  0  0  0  0  0  0  0  0  0  0  0
    1.5890   11.1145   -4.3454 H   0  0  0  0  0  0  0  0  0  0  0  0
   -0.0806   10.4521   -4.3454 H   0  0  0  0  0  0  0  0  0  0  0  0
    2.1418    9.1762   -1.4170 H   0  0  0  0  0  0  0  0  0  0  0  0
    1.4331    8.6203   -2.9711 H   0  0  0  0  0  0  0  0  0  0  0  0
    2.7587    9.8325   -2.9711 H   0  0  0  0  0  0  0  0  0  0  0  0
    0.8176   14.5299    1.8730 H   0  0  0  0  0  0  0  0  0  0  0  0
   -0.5794   13.4809    1.4548 H   0  0  0  0  0  0  0  0  0  0  0  0
    1.0843   12.8034    1.4548 H   0  0  0  0  0  0  0  0  0  0  0  0
   -1.3234   14.9112   -0.7246 H   0  0  0  0  0  0  0  0  0  0  0  0
   -0.2572   15.9137    0.4122 H   0  0  0  0  0  0  0  0  0  0  0  0
   -0.1090   15.7678   -2.6118 H   0  0  0  0  0  0  0  0  0  0  0  0
   -0.5676   17.1725   -1.5710 H   0  0  0  0  0  0  0  0  0  0  0  0
    1.5523   16.7854    0.6444 H   0  0  0  0  0  0  0  0  0  0  0  0
    2.7338   17.8784   -0.1530 H   0  0  0  0  0  0  0  0  0  0  0  0
    0.9858   18.2920   -0.1530 H   0  0  0  0  0  0  0  0  0  0  0  0
  1  2  1  0
  2  3  1  0
  3  4  1  0
  4  5  1  0
  5  6  1  0
  6  7  1  0
  7  8  1  0
  7  9  1  0
  2 10  1  0
 10 11  1  0
 11 12  1  0
 12 13  1  0
 13 14  1  6
 13 15  1  0
 15 16  1  0
 16 17  1  0
 17 18  2  0
 18 19  1  0
 19 20  1  0
 20 21  1  0
 21 22  1  0
 22 23  1  0
 22 24  1  0
 24 25  1  0
 24 26  1  0
 19 27  1  0
 27 28  1  1
 27 29  1  0
 29 30  1  0
 30 31  1  0
 31 32  1  1
  7  5  1  0
 31 10  1  0
 31 13  1  0
 27 15  1  0
 24 18  1  0
  1 33  1  0
  1 34  1  0
  1 35  1  0
  2 36  1  6
  3 37  1  0
  3 38  1  0
  4 39  1  0
  4 40  1  0
  5 41  1  6
  8 42  1  0
  8 43  1  0
  8 44  1  0
  9 45  1  0
  9 46  1  0
  9 47  1  0
 10 48  1  6
 11 49  1  0
 11 50  1  0
 12 51  1  0
 12 52  1  0
 14 53  1  0
 14 54  1  0
 14 55  1  0
 15 56  1  1
 16 57  1  0
 16 58  1  0
 17 59  1  0
 19 60  1  6
 20 61  1  0
 20 62  1  0
 21 63  1  0
 21 64  1  0
 22 65  1  6
 23 66  1  0
 25 67  1  0
 25 68  1  0
 25 69  1  0
 26 70  1  0
 26 71  1  0
 26 72  1  0
 28 73  1  0
 28 74  1  0
 28 75  1  0
 29 76  1  0
 29 77  1  0
 30 78  1  0
 30 79  1  0
 32 80  1  0
 32 81  1  0
 32 82  1  0
M  END
>  <meeko>  (14) 
{"is_sidechain": [false], "intermolecular_energy": 2.731, "internal_energy": -0.839}

$$$$
EPH_relaxed_0001_pdb2pqr_Repair_342_r2_0001_out
     RDKit          3D

 82 86  0  0  0  0  0  0  0  0999 V2000
   -0.7940    8.2650   -1.6790 C   0  0  0  0  0  0  0  0  0  0  0  0
   -0.3320    8.9050   -0.3660 C   0  0  2  0  0  0  0  0  0  0  0  0
   -1.4900    9.5980    0.3810 C   0  0  0  0  0  0  0  0  0  0  0  0
   -1.1870   11.0450    0.7780 C   0  0  0  0  0  0  0  0  0  0  0  0
   -0.1800   11.1170    1.8860 C   0  0  2  0  0  0  0  0  0  0  0  0
   -0.5670   11.9390    2.9950 O   0  0  0  0  0  0  0  0  0  0  0  0
    0.5780   12.3810    2.2470 C   0  0  0  0  0  0  0  0  0  0  0  0
    0.3610   13.6600    1.5020 C   0  0  0  0  0  0  0  0  0  0  0  0
    1.8700   12.2520    2.9910 C   0  0  0  0  0  0  0  0  0  0  0  0
    0.7840    9.9070   -0.6410 C   0  0  1  0  0  0  0  0  0  0  0  0
    2.1120    9.2220   -1.0590 C   0  0  0  0  0  0  0  0  0  0  0  0
    2.7920   10.1560   -2.0920 C   0  0  0  0  0  0  0  0  0  0  0  0
    2.0100   11.4870   -1.9880 C   0  0  1  0  0  0  0  0  0  0  0  0
    2.6160   12.2120   -0.7450 C   0  0  0  0  0  0  0  0  0  0  0  0
    2.0300   12.4010   -3.2560 C   0  0  2  0  0  0  0  0  0  0  0  0
    3.4200   12.9150   -3.6680 C   0  0  0  0  0  0  0  0  0  0  0  0
    3.8220   14.2210   -3.0660 C   0  0  0  0  0  0  0  0  0  0  0  0
    2.9930   15.0890   -2.4560 C   0  0  0  0  0  0  0  0  0  0  0  0
    1.4800   14.8360   -2.4130 C   0  0  1  0  0  0  0  0  0  0  0  0
    0.7270   16.1380   -2.7940 C   0  0  0  0  0  0  0  0  0  0  0  0
    1.1440   17.3280   -1.9360 C   0  0  0  0  0  0  0  0  0  0  0  0
    2.6450   17.5840   -2.0510 C   0  0  2  0  0  0  0  0  0  0  0  0
    2.9390   18.0120   -3.3840 O   0  0  0  0  0  0  0  0  0  0  0  0
    3.5070   16.3390   -1.7000 C   0  0  0  0  0  0  0  0  0  0  0  0
    3.4190   16.0570   -0.1790 C   0  0  0  0  0  0  0  0  0  0  0  0
    4.9910   16.6880   -1.9920 C   0  0  0  0  0  0  0  0  0  0  0  0
    0.9650   13.5720   -3.2270 C   0  0  1  0  0  0  0  0  0  0  0  0
    0.6990   13.9680   -4.7120 C   0  0  0  0  0  0  0  0  0  0  0  0
   -0.4180   13.1090   -2.6360 C   0  0  0  0  0  0  0  0  0  0  0  0
   -0.3730   12.1120   -1.4620 C   0  0  0  0  0  0  0  0  0  0  0  0
    0.5530   10.9340   -1.7770 C   0  0  2  0  0  0  0  0  0  0  0  0
   -0.0430   10.1730   -3.0100 C   0  0  0  0  0  0  0  0  0  0  0  0
   -1.4248    7.3911   -1.4589 H   0  0  0  0  0  0  0  0  0  0  0  0
   -1.3727    8.9979   -2.2604 H   0  0  0  0  0  0  0  0  0  0  0  0
    0.0838    7.9465   -2.2604 H   0  0  0  0  0  0  0  0  0  0  0  0
    0.0431    8.0988    0.2815 H   0  0  0  0  0  0  0  0  0  0  0  0
   -2.3755    9.5950   -0.2716 H   0  0  0  0  0  0  0  0  0  0  0  0
   -1.6536    9.0364    1.3126 H   0  0  0  0  0  0  0  0  0  0  0  0
   -0.7916   11.5797   -0.0983 H   0  0  0  0  0  0  0  0  0  0  0  0
   -2.1207   11.5057    1.1329 H   0  0  0  0  0  0  0  0  0  0  0  0
    0.1545   10.0895    1.6800 H   0  0  0  0  0  0  0  0  0  0  0  0
    0.2214   14.4827    2.2187 H   0  0  0  0  0  0  0  0  0  0  0  0
    1.2365   13.8691    0.8697 H   0  0  0  0  0  0  0  0  0  0  0  0
   -0.5345   13.5687    0.8697 H   0  0  0  0  0  0  0  0  0  0  0  0
    1.6735   12.2716    4.0731 H   0  0  0  0  0  0  0  0  0  0  0  0
    2.3539   11.3011    2.7234 H   0  0  0  0  0  0  0  0  0  0  0  0
    2.5323   13.0885    2.7234 H   0  0  0  0  0  0  0  0  0  0  0  0
    0.8137   10.4215    0.3308 H   0  0  0  0  0  0  0  0  0  0  0  0
    2.7625    9.0902   -0.1818 H   0  0  0  0  0  0  0  0  0  0  0  0
    1.9245    8.2274   -1.4897 H   0  0  0  0  0  0  0  0  0  0  0  0
    3.8520   10.3075   -1.8400 H   0  0  0  0  0  0  0  0  0  0  0  0
    2.7715    9.7383   -3.1094 H   0  0  0  0  0  0  0  0  0  0  0  0
    2.2288   11.7488    0.1745 H   0  0  0  0  0  0  0  0  0  0  0  0
    3.7122   12.1230   -0.7669 H   0  0  0  0  0  0  0  0  0  0  0  0
    2.3339   13.2750   -0.7669 H   0  0  0  0  0  0  0  0  0  0  0  0
    1.7208   11.7077   -4.0521 H   0  0  0  0  0  0  0  0  0  0  0  0
    4.1632   12.1606   -3.3704 H   0  0  0  0  0  0  0  0  0  0  0  0
    3.3725   13.0827   -4.7541 H   0  0  0  0  0  0  0  0  0  0  0  0
    4.8851   14.4972   -3.1259 H   0  0  0  0  0  0  0  0  0  0  0  0
    1.2466   14.5601   -1.3740 H   0  0  0  0  0  0  0  0  0  0  0  0
    0.9384   16.3720   -3.8478 H   0  0  0  0  0  0  0  0  0  0  0  0
   -0.3460   15.9645   -2.6249 H   0  0  0  0  0  0  0  0  0  0  0  0
    0.5994   18.2227   -2.2721 H   0  0  0  0  0  0  0  0  0  0  0  0
    0.9053   17.1045   -0.8857 H   0  0  0  0  0  0  0  0  0  0  0  0
    2.9041   18.3621   -1.3179 H   0  0  0  0  0  0  0  0  0  0  0  0
    3.7850   18.4900   -3.3590 H   0  0  0  0  0  0  0  0  0  0  0  0
    3.7014   16.9621    0.3787 H   0  0  0  0  0  0  0  0  0  0  0  0
    2.3892   15.7719    0.0821 H   0  0  0  0  0  0  0  0  0  0  0  0
    4.1039   15.2368    0.0821 H   0  0  0  0  0  0  0  0  0  0  0  0
    5.5315   16.8151   -1.0424 H   0  0  0  0  0  0  0  0  0  0  0  0
    5.4522   15.8738   -2.5703 H   0  0  0  0  0  0  0  0  0  0  0  0
    5.0410   17.6224   -2.5703 H   0  0  0  0  0  0  0  0  0  0  0  0
    0.0859   14.8807   -4.7439 H   0  0  0  0  0  0  0  0  0  0  0  0
    1.6573   14.1521   -5.2197 H   0  0  0  0  0  0  0  0  0  0  0  0
    0.1662   13.1505   -5.2197 H   0  0  0  0  0  0  0  0  0  0  0  0
   -0.9493   14.0076   -2.2893 H   0  0  0  0  0  0  0  0  0  0  0  0
   -0.9141   12.5673   -3.4548 H   0  0  0  0  0  0  0  0  0  0  0  0
   -0.0037   12.6297   -0.5645 H   0  0  0  0  0  0  0  0  0  0  0  0
   -1.3883   11.7239   -1.2930 H   0  0  0  0  0  0  0  0  0  0  0  0
   -0.6857    9.3523   -2.6587 H   0  0  0  0  0  0  0  0  0  0  0  0
   -0.6380   10.8700   -3.6185 H   0  0  0  0  0  0  0  0  0  0  0  0
    0.7762    9.7624   -3.6185 H   0  0  0  0  0  0  0  0  0  0  0  0
  1  2  1  0
  2  3  1  0
  3  4  1  0
  4  5  1  0
  5  6  1  0
  6  7  1  0
  7  8  1  0
  7  9  1  0
  2 10  1  0
 10 11  1  0
 11 12  1  0
 12 13  1  0
 13 14  1  1
 13 15  1  0
 15 16  1  0
 16 17  1  0
 17 18  2  0
 18 19  1  0
 19 20  1  0
 20 21  1  0
 21 22  1  0
 22 23  1  0
 22 24  1  0
 24 25  1  0
 24 26  1  0
 19 27  1  0
 27 28  1  6
 27 29  1  0
 29 30  1  0
 30 31  1  0
 31 32  1  6
  7  5  1  0
 31 10  1  0
 31 13  1  0
 27 15  1  0
 24 18  1  0
  1 33  1  0
  1 34  1  0
  1 35  1  0
  2 36  1  1
  3 37  1  0
  3 38  1  0
  4 39  1  0
  4 40  1  0
  5 41  1  1
  8 42  1  0
  8 43  1  0
  8 44  1  0
  9 45  1  0
  9 46  1  0
  9 47  1  0
 10 48  1  1
 11 49  1  0
 11 50  1  0
 12 51  1  0
 12 52  1  0
 14 53  1  0
 14 54  1  0
 14 55  1  0
 15 56  1  6
 16 57  1  0
 16 58  1  0
 17 59  1  0
 19 60  1  1
 20 61  1  0
 20 62  1  0
 21 63  1  0
 21 64  1  0
 22 65  1  1
 23 66  1  0
 25 67  1  0
 25 68  1  0
 25 69  1  0
 26 70  1  0
 26 71  1  0
 26 72  1  0
 28 73  1  0
 28 74  1  0
 28 75  1  0
 29 76  1  0
 29 77  1  0
 30 78  1  0
 30 79  1  0
 32 80  1  0
 32 81  1  0
 32 82  1  0
M  END
>  <meeko>  (15) 
{"is_sidechain": [false], "intermolecular_energy": 2.731, "internal_energy": -0.839}

$$$$
EPH_relaxed_0001_pdb2pqr_Repair_342_r2_0001_out
     RDKit          3D

 82 86  0  0  0  0  0  0  0  0999 V2000
   -2.7600    9.4380   -0.0520 C   0  0  0  0  0  0  0  0  0  0  0  0
   -1.3460    9.6800    0.4830 C   0  0  2  0  0  0  0  0  0  0  0  0
   -1.2470   10.9880    1.2920 C   0  0  0  0  0  0  0  0  0  0  0  0
    0.0290   11.0980    2.1320 C   0  0  0  0  0  0  0  0  0  0  0  0
    0.3060   12.5140    2.5360 C   0  0  2  0  0  0  0  0  0  0  0  0
    0.9520   12.6580    3.8080 O   0  0  0  0  0  0  0  0  0  0  0  0
   -0.3750   13.1990    3.7070 C   0  0  0  0  0  0  0  0  0  0  0  0
   -1.3890   12.4850    4.5450 C   0  0  0  0  0  0  0  0  0  0  0  0
   -0.4200   14.6950    3.7330 C   0  0  0  0  0  0  0  0  0  0  0  0
   -0.3510    9.7060   -0.6720 C   0  0  1  0  0  0  0  0  0  0  0  0
   -0.8210    8.8590   -1.8850 C   0  0  0  0  0  0  0  0  0  0  0  0
   -0.3320    9.5920   -3.1600 C   0  0  0  0  0  0  0  0  0  0  0  0
    0.6760   10.6450   -2.6420 C   0  0  1  0  0  0  0  0  0  0  0  0
    2.0070    9.8560   -2.4330 C   0  0  0  0  0  0  0  0  0  0  0  0
    0.8870   11.9030   -3.5450 C   0  0  2  0  0  0  0  0  0  0  0  0
    1.4640   11.6140   -4.9420 C   0  0  0  0  0  0  0  0  0  0  0  0
    2.9530   11.6450   -5.0360 C   0  0  0  0  0  0  0  0  0  0  0  0
    3.7840   12.1700   -4.1160 C   0  0  0  0  0  0  0  0  0  0  0  0
    3.2340   12.8980   -2.8820 C   0  0  1  0  0  0  0  0  0  0  0  0
    4.0020   14.2310   -2.6820 C   0  0  0  0  0  0  0  0  0  0  0  0
    5.5130   14.0310   -2.6170 C   0  0  0  0  0  0  0  0  0  0  0  0
    6.0300   13.3580   -3.8860 C   0  0  2  0  0  0  0  0  0  0  0  0
    5.8580   14.2560   -4.9860 O   0  0  0  0  0  0  0  0  0  0  0  0
    5.3220   12.0100   -4.1960 C   0  0  0  0  0  0  0  0  0  0  0  0
    5.7540   10.9440   -3.1580 C   0  0  0  0  0  0  0  0  0  0  0  0
    5.8350   11.5070   -5.5720 C   0  0  0  0  0  0  0  0  0  0  0  0
    1.6570   13.0890   -2.8360 C   0  0  1  0  0  0  0  0  0  0  0  0
    1.2570   14.3940   -3.5890 C   0  0  0  0  0  0  0  0  0  0  0  0
    1.2070   13.2840   -1.3390 C   0  0  0  0  0  0  0  0  0  0  0  0
    0.8980   12.0070   -0.5340 C   0  0  0  0  0  0  0  0  0  0  0  0
   -0.0410   11.0820   -1.3130 C   0  0  2  0  0  0  0  0  0  0  0  0
   -1.3970   11.8400   -1.5190 C   0  0  0  0  0  0  0  0  0  0  0  0
   -3.4558    9.3189    0.7916 H   0  0  0  0  0  0  0  0  0  0  0  0
   -3.0715   10.2959   -0.6660 H   0  0  0  0  0  0  0  0  0  0  0  0
   -2.7685    8.5253   -0.6660 H   0  0  0  0  0  0  0  0  0  0  0  0
   -1.1039    8.8512    1.1646 H   0  0  0  0  0  0  0  0  0  0  0  0
   -1.2740   11.8338    0.5892 H   0  0  0  0  0  0  0  0  0  0  0  0
   -2.0947   10.9971    1.9929 H   0  0  0  0  0  0  0  0  0  0  0  0
   -0.0866   10.4849    3.0379 H   0  0  0  0  0  0  0  0  0  0  0  0
    0.8730   10.7441    1.5217 H   0  0  0  0  0  0  0  0  0  0  0  0
    0.4443   12.8114    1.4860 H   0  0  0  0  0  0  0  0  0  0  0  0
   -1.1626   12.6444    5.6096 H   0  0  0  0  0  0  0  0  0  0  0  0
   -2.3919   12.8773    4.3206 H   0  0  0  0  0  0  0  0  0  0  0  0
   -1.3577   11.4086    4.3206 H   0  0  0  0  0  0  0  0  0  0  0  0
   -0.4305   15.0434    4.7763 H   0  0  0  0  0  0  0  0  0  0  0  0
    0.4664   15.0975    3.2209 H   0  0  0  0  0  0  0  0  0  0  0  0
   -1.3290   15.0434    3.2209 H   0  0  0  0  0  0  0  0  0  0  0  0
    0.5408    9.3217   -0.1553 H   0  0  0  0  0  0  0  0  0  0  0  0
   -0.3824    7.8514   -1.8359 H   0  0  0  0  0  0  0  0  0  0  0  0
   -1.9154    8.7486   -1.8887 H   0  0  0  0  0  0  0  0  0  0  0  0
    0.1602    8.8886   -3.8477 H   0  0  0  0  0  0  0  0  0  0  0  0
   -1.1599   10.0482   -3.7225 H   0  0  0  0  0  0  0  0  0  0  0  0
    2.2002    9.7415   -1.3562 H   0  0  0  0  0  0  0  0  0  0  0  0
    1.9213    8.8627   -2.8978 H   0  0  0  0  0  0  0  0  0  0  0  0
    2.8373   10.4079   -2.8978 H   0  0  0  0  0  0  0  0  0  0  0  0
   -0.1440   12.2477   -3.7127 H   0  0  0  0  0  0  0  0  0  0  0  0
    1.1249   10.6138   -5.2495 H   0  0  0  0  0  0  0  0  0  0  0  0
    1.1012   12.4222   -5.5940 H   0  0  0  0  0  0  0  0  0  0  0  0
    3.4103   11.2014   -5.9327 H   0  0  0  0  0  0  0  0  0  0  0  0
    3.4177   12.2301   -2.0275 H   0  0  0  0  0  0  0  0  0  0  0  0
    3.7708   14.9009   -3.5233 H   0  0  0  0  0  0  0  0  0  0  0  0
    3.6803   14.6611   -1.7220 H   0  0  0  0  0  0  0  0  0  0  0  0
    6.0011   15.0103   -2.5046 H   0  0  0  0  0  0  0  0  0  0  0  0
    5.7447   13.3845   -1.7577 H   0  0  0  0  0  0  0  0  0  0  0  0
    7.0930   13.1242   -3.7264 H   0  0  0  0  0  0  0  0  0  0  0  0
    6.0180   15.1570   -4.6580 H   0  0  0  0  0  0  0  0  0  0  0  0
    5.5953   11.3357   -2.1424 H   0  0  0  0  0  0  0  0  0  0  0  0
    5.1543   10.0324   -3.2973 H   0  0  0  0  0  0  0  0  0  0  0  0
    6.8191   10.7071   -3.2973 H   0  0  0  0  0  0  0  0  0  0  0  0
    6.6126   10.7446   -5.4170 H   0  0  0  0  0  0  0  0  0  0  0  0
    4.9992   11.0687   -6.1370 H   0  0  0  0  0  0  0  0  0  0  0  0
    6.2568   12.3513   -6.1370 H   0  0  0  0  0  0  0  0  0  0  0  0
    1.0161   15.1799   -2.8580 H   0  0  0  0  0  0  0  0  0  0  0  0
    2.0950   14.7247   -4.2202 H   0  0  0  0  0  0  0  0  0  0  0  0
    0.3776   14.1983   -4.2202 H   0  0  0  0  0  0  0  0  0  0  0  0
    2.0131   13.8198   -0.8164 H   0  0  0  0  0  0  0  0  0  0  0  0
    0.2522   13.8274   -1.3941 H   0  0  0  0  0  0  0  0  0  0  0  0
    1.8385   11.4748   -0.3284 H   0  0  0  0  0  0  0  0  0  0  0  0
    0.4055   12.2957    0.4063 H   0  0  0  0  0  0  0  0  0  0  0  0
   -1.8333   12.0839   -0.5391 H   0  0  0  0  0  0  0  0  0  0  0  0
   -1.2165   12.7681   -2.0812 H   0  0  0  0  0  0  0  0  0  0  0  0
   -2.0930   11.2001   -2.0812 H   0  0  0  0  0  0  0  0  0  0  0  0
  1  2  1  0
  2  3  1  0
  3  4  1  0
  4  5  1  0
  5  6  1  0
  6  7  1  0
  7  8  1  0
  7  9  1  0
  2 10  1  0
 10 11  1  0
 11 12  1  0
 12 13  1  0
 13 14  1  1
 13 15  1  0
 15 16  1  0
 16 17  1  0
 17 18  2  0
 18 19  1  0
 19 20  1  0
 20 21  1  0
 21 22  1  0
 22 23  1  0
 22 24  1  0
 24 25  1  0
 24 26  1  0
 19 27  1  0
 27 28  1  6
 27 29  1  0
 29 30  1  0
 30 31  1  0
 31 32  1  6
  7  5  1  0
 31 10  1  0
 31 13  1  0
 27 15  1  0
 24 18  1  0
  1 33  1  0
  1 34  1  0
  1 35  1  0
  2 36  1  1
  3 37  1  0
  3 38  1  0
  4 39  1  0
  4 40  1  0
  5 41  1  6
  8 42  1  0
  8 43  1  0
  8 44  1  0
  9 45  1  0
  9 46  1  0
  9 47  1  0
 10 48  1  1
 11 49  1  0
 11 50  1  0
 12 51  1  0
 12 52  1  0
 14 53  1  0
 14 54  1  0
 14 55  1  0
 15 56  1  6
 16 57  1  0
 16 58  1  0
 17 59  1  0
 19 60  1  1
 20 61  1  0
 20 62  1  0
 21 63  1  0
 21 64  1  0
 22 65  1  1
 23 66  1  0
 25 67  1  0
 25 68  1  0
 25 69  1  0
 26 70  1  0
 26 71  1  0
 26 72  1  0
 28 73  1  0
 28 74  1  0
 28 75  1  0
 29 76  1  0
 29 77  1  0
 30 78  1  0
 30 79  1  0
 32 80  1  0
 32 81  1  0
 32 82  1  0
M  END
>  <meeko>  (16) 
{"is_sidechain": [false], "intermolecular_energy": 2.731, "internal_energy": -0.839}

$$$$
EPH_relaxed_0001_pdb2pqr_Repair_342_r2_0001_out
     RDKit          3D

 82 86  0  0  0  0  0  0  0  0999 V2000
    1.5520   10.3420   -4.7820 C   0  0  0  0  0  0  0  0  0  0  0  0
    0.8680   10.2930   -3.4130 C   0  0  2  0  0  0  0  0  0  0  0  0
   -0.2730    9.2560   -3.3710 C   0  0  0  0  0  0  0  0  0  0  0  0
   -0.1070    8.2040   -2.2710 C   0  0  0  0  0  0  0  0  0  0  0  0
    0.3980    8.8100   -0.9960 C   0  0  2  0  0  0  0  0  0  0  0  0
    0.0760    8.0680    0.1880 O   0  0  0  0  0  0  0  0  0  0  0  0
   -0.5120    9.3750    0.0790 C   0  0  0  0  0  0  0  0  0  0  0  0
   -2.0000    9.3620   -0.0720 C   0  0  0  0  0  0  0  0  0  0  0  0
    0.0530   10.3710    1.0430 C   0  0  0  0  0  0  0  0  0  0  0  0
    0.3310   11.6730   -3.0510 C   0  0  1  0  0  0  0  0  0  0  0  0
   -0.9070   11.6060   -2.1170 C   0  0  0  0  0  0  0  0  0  0  0  0
   -0.8140   12.8260   -1.1640 C   0  0  0  0  0  0  0  0  0  0  0  0
    0.2760   13.7270   -1.7890 C   0  0  1  0  0  0  0  0  0  0  0  0
   -0.4530   14.5110   -2.9250 C   0  0  0  0  0  0  0  0  0  0  0  0
    1.0210   14.6920   -0.8090 C   0  0  2  0  0  0  0  0  0  0  0  0
    0.1300   15.7460   -0.1290 C   0  0  0  0  0  0  0  0  0  0  0  0
    0.0040   17.0410   -0.8610 C   0  0  0  0  0  0  0  0  0  0  0  0
    0.7990   17.4530   -1.8660 C   0  0  0  0  0  0  0  0  0  0  0  0
    2.0160   16.6250   -2.2970 C   0  0  1  0  0  0  0  0  0  0  0  0
    3.2460   17.5560   -2.4560 C   0  0  0  0  0  0  0  0  0  0  0  0
    2.9760   18.7280   -3.3950 C   0  0  0  0  0  0  0  0  0  0  0  0
    1.7960   19.5610   -2.9010 C   0  0  2  0  0  0  0  0  0  0  0  0
    2.1610   20.1940   -1.6720 O   0  0  0  0  0  0  0  0  0  0  0  0
    0.5010   18.7270   -2.6950 C   0  0  0  0  0  0  0  0  0  0  0  0
   -0.0630   18.2910   -4.0700 C   0  0  0  0  0  0  0  0  0  0  0  0
   -0.5700   19.6560   -2.0620 C   0  0  0  0  0  0  0  0  0  0  0  0
    2.3310   15.3430   -1.4120 C   0  0  1  0  0  0  0  0  0  0  0  0
    3.2280   15.7410   -0.2000 C   0  0  0  0  0  0  0  0  0  0  0  0
    3.1690   14.3200   -2.2670 C   0  0  0  0  0  0  0  0  0  0  0  0
    2.3740   13.3150   -3.1230 C   0  0  0  0  0  0  0  0  0  0  0  0
    1.2840   12.6310   -2.2930 C   0  0  2  0  0  0  0  0  0  0  0  0
    1.9890   11.8160   -1.1550 C   0  0  0  0  0  0  0  0  0  0  0  0
    2.6407   10.4200   -4.6454 H   0  0  0  0  0  0  0  0  0  0  0  0
    1.3175    9.4248   -5.3421 H   0  0  0  0  0  0  0  0  0  0  0  0
    1.1892   11.2165   -5.3421 H   0  0  0  0  0  0  0  0  0  0  0  0
    1.6235    9.9828   -2.6761 H   0  0  0  0  0  0  0  0  0  0  0  0
   -1.2206    9.7886   -3.2023 H   0  0  0  0  0  0  0  0  0  0  0  0
   -0.2579    8.7217   -4.3324 H   0  0  0  0  0  0  0  0  0  0  0  0
   -1.0817    7.7315   -2.0796 H   0  0  0  0  0  0  0  0  0  0  0  0
    0.6298    7.4627   -2.6138 H   0  0  0  0  0  0  0  0  0  0  0  0
    1.2757    9.2253   -1.5129 H   0  0  0  0  0  0  0  0  0  0  0  0
   -2.4695    9.3579    0.9228 H   0  0  0  0  0  0  0  0  0  0  0  0
   -2.3203   10.2574   -0.6249 H   0  0  0  0  0  0  0  0  0  0  0  0
   -2.3046    8.4612   -0.6249 H   0  0  0  0  0  0  0  0  0  0  0  0
   -0.1382   10.0340    2.0725 H   0  0  0  0  0  0  0  0  0  0  0  0
    1.1374   10.4623    0.8825 H   0  0  0  0  0  0  0  0  0  0  0  0
   -0.4250   11.3486    0.8825 H   0  0  0  0  0  0  0  0  0  0  0  0
    0.1303   12.0632   -4.0597 H   0  0  0  0  0  0  0  0  0  0  0  0
   -1.8322   11.6579   -2.7098 H   0  0  0  0  0  0  0  0  0  0  0  0
   -0.9247   10.6629   -1.5512 H   0  0  0  0  0  0  0  0  0  0  0  0
   -1.7765   13.3565   -1.1172 H   0  0  0  0  0  0  0  0  0  0  0  0
   -0.5709   12.5318   -0.1323 H   0  0  0  0  0  0  0  0  0  0  0  0
   -1.1382   15.2479   -2.4806 H   0  0  0  0  0  0  0  0  0  0  0  0
    0.2905   15.0304   -3.5475 H   0  0  0  0  0  0  0  0  0  0  0  0
   -1.0250   13.8072   -3.5475 H   0  0  0  0  0  0  0  0  0  0  0  0
    1.3436   14.0119   -0.0068 H   0  0  0  0  0  0  0  0  0  0  0  0
   -0.8775   15.3189   -0.0176 H   0  0  0  0  0  0  0  0  0  0  0  0
    0.6156   15.9834    0.8290 H   0  0  0  0  0  0  0  0  0  0  0  0
   -0.8079   17.7162   -0.5527 H   0  0  0  0  0  0  0  0  0  0  0  0
    1.7542   16.1836   -3.2700 H   0  0  0  0  0  0  0  0  0  0  0  0
    3.5183   17.9524   -1.4667 H   0  0  0  0  0  0  0  0  0  0  0  0
    4.0613   16.9601   -2.8921 H   0  0  0  0  0  0  0  0  0  0  0  0
    3.8716   19.3649   -3.4428 H   0  0  0  0  0  0  0  0  0  0  0  0
    2.7332   18.3311   -4.3918 H   0  0  0  0  0  0  0  0  0  0  0  0
    1.5692   20.3051   -3.6787 H   0  0  0  0  0  0  0  0  0  0  0  0
    3.1040   20.0140   -1.5170 H   0  0  0  0  0  0  0  0  0  0  0  0
   -0.9249   17.6247   -3.9182 H   0  0  0  0  0  0  0  0  0  0  0  0
   -0.3816   19.1799   -4.6342 H   0  0  0  0  0  0  0  0  0  0  0  0
    0.7170   17.7588   -4.6342 H   0  0  0  0  0  0  0  0  0  0  0  0
   -0.5035   19.5983   -0.9655 H   0  0  0  0  0  0  0  0  0  0  0  0
   -0.3941   20.6924   -2.3860 H   0  0  0  0  0  0  0  0  0  0  0  0
   -1.5711   19.3354   -2.3860 H   0  0  0  0  0  0  0  0  0  0  0  0
    2.7022   15.5077    0.7376 H   0  0  0  0  0  0  0  0  0  0  0  0
    4.1715   15.1771   -0.2413 H   0  0  0  0  0  0  0  0  0  0  0  0
    3.4430   16.8190   -0.2413 H   0  0  0  0  0  0  0  0  0  0  0  0
    3.8108   14.9008   -2.9458 H   0  0  0  0  0  0  0  0  0  0  0  0
    3.7112   13.7067   -1.5322 H   0  0  0  0  0  0  0  0  0  0  0  0
    1.9052   13.8490   -3.9627 H   0  0  0  0  0  0  0  0  0  0  0  0
    3.0666   12.5457   -3.4950 H   0  0  0  0  0  0  0  0  0  0  0  0
    1.6613   12.1949   -0.1757 H   0  0  0  0  0  0  0  0  0  0  0  0
    1.7210   10.7530   -1.2453 H   0  0  0  0  0  0  0  0  0  0  0  0
    3.0795   11.9282   -1.2453 H   0  0  0  0  0  0  0  0  0  0  0  0
  1  2  1  0
  2  3  1  0
  3  4  1  0
  4  5  1  0
  5  6  1  0
  6  7  1  0
  7  8  1  0
  7  9  1  0
  2 10  1  0
 10 11  1  0
 11 12  1  0
 12 13  1  0
 13 14  1  6
 13 15  1  0
 15 16  1  0
 16 17  1  0
 17 18  2  0
 18 19  1  0
 19 20  1  0
 20 21  1  0
 21 22  1  0
 22 23  1  0
 22 24  1  0
 24 25  1  0
 24 26  1  0
 19 27  1  0
 27 28  1  1
 27 29  1  0
 29 30  1  0
 30 31  1  0
 31 32  1  1
  7  5  1  0
 31 10  1  0
 31 13  1  0
 27 15  1  0
 24 18  1  0
  1 33  1  0
  1 34  1  0
  1 35  1  0
  2 36  1  1
  3 37  1  0
  3 38  1  0
  4 39  1  0
  4 40  1  0
  5 41  1  6
  8 42  1  0
  8 43  1  0
  8 44  1  0
  9 45  1  0
  9 46  1  0
  9 47  1  0
 10 48  1  6
 11 49  1  0
 11 50  1  0
 12 51  1  0
 12 52  1  0
 14 53  1  0
 14 54  1  0
 14 55  1  0
 15 56  1  1
 16 57  1  0
 16 58  1  0
 17 59  1  0
 19 60  1  6
 20 61  1  0
 20 62  1  0
 21 63  1  0
 21 64  1  0
 22 65  1  6
 23 66  1  0
 25 67  1  0
 25 68  1  0
 25 69  1  0
 26 70  1  0
 26 71  1  0
 26 72  1  0
 28 73  1  0
 28 74  1  0
 28 75  1  0
 29 76  1  0
 29 77  1  0
 30 78  1  0
 30 79  1  0
 32 80  1  0
 32 81  1  0
 32 82  1  0
M  END
>  <meeko>  (17) 
{"is_sidechain": [false], "intermolecular_energy": 2.731, "internal_energy": -0.839}

$$$$
EPH_relaxed_0001_pdb2pqr_Repair_342_r2_0001_out
     RDKit          3D

 82 86  0  0  0  0  0  0  0  0999 V2000
   -1.1810   13.8240    3.3940 C   0  0  0  0  0  0  0  0  0  0  0  0
   -0.5140   14.7070    2.3360 C   0  0  2  0  0  0  0  0  0  0  0  0
   -1.5250   15.2350    1.2990 C   0  0  0  0  0  0  0  0  0  0  0  0
   -1.7470   16.7490    1.3710 C   0  0  0  0  0  0  0  0  0  0  0  0
   -0.9050   17.4800    0.3690 C   0  0  2  0  0  0  0  0  0  0  0  0
   -0.3550   18.7180    0.8390 O   0  0  0  0  0  0  0  0  0  0  0  0
   -1.2990   18.8130   -0.2400 C   0  0  0  0  0  0  0  0  0  0  0  0
   -2.5800   19.4920    0.1300 C   0  0  0  0  0  0  0  0  0  0  0  0
   -0.6840   19.2130   -1.5450 C   0  0  0  0  0  0  0  0  0  0  0  0
    0.5940   13.9310    1.6350 C   0  0  1  0  0  0  0  0  0  0  0  0
    1.3300   12.9490    2.5860 C   0  0  0  0  0  0  0  0  0  0  0  0
    1.7090   11.7060    1.7400 C   0  0  0  0  0  0  0  0  0  0  0  0
    1.4800   12.1470    0.2750 C   0  0  1  0  0  0  0  0  0  0  0  0
    2.7610   12.9530   -0.1060 C   0  0  0  0  0  0  0  0  0  0  0  0
    1.1900   11.0060   -0.7530 C   0  0  2  0  0  0  0  0  0  0  0  0
    2.3270    9.9850   -0.9330 C   0  0  0  0  0  0  0  0  0  0  0  0
    3.3150   10.3140   -2.0030 C   0  0  0  0  0  0  0  0  0  0  0  0
    3.1400   11.2290   -2.9750 C   0  0  0  0  0  0  0  0  0  0  0  0
    1.8090   11.9770   -3.1220 C   0  0  1  0  0  0  0  0  0  0  0  0
    1.3770   11.9760   -4.6120 C   0  0  0  0  0  0  0  0  0  0  0  0
    2.4600   12.5250   -5.5360 C   0  0  0  0  0  0  0  0  0  0  0  0
    3.7500   11.7200   -5.4030 C   0  0  2  0  0  0  0  0  0  0  0  0
    3.5220   10.3980   -5.9030 O   0  0  0  0  0  0  0  0  0  0  0  0
    4.2760   11.6420   -3.9430 C   0  0  0  0  0  0  0  0  0  0  0  0
    4.8060   13.0310   -3.5060 C   0  0  0  0  0  0  0  0  0  0  0  0
    5.5000   10.6870   -3.9260 C   0  0  0  0  0  0  0  0  0  0  0  0
    0.6420   11.5130   -2.1480 C   0  0  1  0  0  0  0  0  0  0  0  0
   -0.1380   10.3210   -2.7810 C   0  0  0  0  0  0  0  0  0  0  0  0
   -0.3950   12.6880   -1.9920 C   0  0  0  0  0  0  0  0  0  0  0  0
   -0.1160   13.7180   -0.8800 C   0  0  0  0  0  0  0  0  0  0  0  0
    0.1850   13.0210    0.4500 C   0  0  2  0  0  0  0  0  0  0  0  0
   -1.0940   12.2200    0.8700 C   0  0  0  0  0  0  0  0  0  0  0  0
   -0.9088   14.1844    4.3970 H   0  0  0  0  0  0  0  0  0  0  0  0
   -2.2734   13.8679    3.2726 H   0  0  0  0  0  0  0  0  0  0  0  0
   -0.8401   12.7852    3.2726 H   0  0  0  0  0  0  0  0  0  0  0  0
   -0.0870   15.5785    2.8538 H   0  0  0  0  0  0  0  0  0  0  0  0
   -1.1538   14.9858    0.2940 H   0  0  0  0  0  0  0  0  0  0  0  0
   -2.4911   14.7576    1.5199 H   0  0  0  0  0  0  0  0  0  0  0  0
   -2.8070   16.9640    1.1707 H   0  0  0  0  0  0  0  0  0  0  0  0
   -1.4591   17.0909    2.3761 H   0  0  0  0  0  0  0  0  0  0  0  0
   -0.5742   16.5321   -0.0806 H   0  0  0  0  0  0  0  0  0  0  0  0
   -2.6673   19.5383    1.2256 H   0  0  0  0  0  0  0  0  0  0  0  0
   -2.5866   20.5120   -0.2818 H   0  0  0  0  0  0  0  0  0  0  0  0
   -3.4278   18.9249   -0.2818 H   0  0  0  0  0  0  0  0  0  0  0  0
    0.2245   19.8039   -1.3564 H   0  0  0  0  0  0  0  0  0  0  0  0
   -0.4226   18.3116   -2.1187 H   0  0  0  0  0  0  0  0  0  0  0  0
   -1.4020   19.8174   -2.1187 H   0  0  0  0  0  0  0  0  0  0  0  0
    1.2050   14.7704    1.2716 H   0  0  0  0  0  0  0  0  0  0  0  0
    2.2366   13.4221    2.9912 H   0  0  0  0  0  0  0  0  0  0  0  0
    0.6903   12.6682    3.4357 H   0  0  0  0  0  0  0  0  0  0  0  0
    2.7617   11.4315    1.9030 H   0  0  0  0  0  0  0  0  0  0  0  0
    1.1125   10.8214    2.0076 H   0  0  0  0  0  0  0  0  0  0  0  0
    3.2762   13.2772    0.8102 H   0  0  0  0  0  0  0  0  0  0  0  0
    3.4331   12.3148   -0.6984 H   0  0  0  0  0  0  0  0  0  0  0  0
    2.4765   13.8351   -0.6984 H   0  0  0  0  0  0  0  0  0  0  0  0
    0.3691   10.4566   -0.2689 H   0  0  0  0  0  0  0  0  0  0  0  0
    2.8706    9.9098    0.0203 H   0  0  0  0  0  0  0  0  0  0  0  0
    1.8463    9.0447   -1.2408 H   0  0  0  0  0  0  0  0  0  0  0  0
    4.2665    9.7620   -1.9966 H   0  0  0  0  0  0  0  0  0  0  0  0
    2.0006   13.0079   -2.7894 H   0  0  0  0  0  0  0  0  0  0  0  0
    1.1482   10.9427   -4.9120 H   0  0  0  0  0  0  0  0  0  0  0  0
    0.4967   12.6291   -4.7047 H   0  0  0  0  0  0  0  0  0  0  0  0
    2.1072   12.4704   -6.5765 H   0  0  0  0  0  0  0  0  0  0  0  0
    2.6664   13.5681   -5.2542 H   0  0  0  0  0  0  0  0  0  0  0  0
    4.5239   12.2386   -5.9879 H   0  0  0  0  0  0  0  0  0  0  0  0
    2.5610   10.2810   -5.9960 H   0  0  0  0  0  0  0  0  0  0  0  0
    4.8271   13.0864   -2.4076 H   0  0  0  0  0  0  0  0  0  0  0  0
    5.8227   13.1761   -3.9001 H   0  0  0  0  0  0  0  0  0  0  0  0
    4.1444   13.8165   -3.9001 H   0  0  0  0  0  0  0  0  0  0  0  0
    5.7801   10.4684   -2.8850 H   0  0  0  0  0  0  0  0  0  0  0  0
    5.2411    9.7499   -4.4405 H   0  0  0  0  0  0  0  0  0  0  0  0
    6.3460   11.1661   -4.4405 H   0  0  0  0  0  0  0  0  0  0  0  0
   -0.5521    9.6882   -1.9822 H   0  0  0  0  0  0  0  0  0  0  0  0
   -0.9577   10.7086   -3.4038 H   0  0  0  0  0  0  0  0  0  0  0  0
    0.5454    9.7250   -3.4038 H   0  0  0  0  0  0  0  0  0  0  0  0
   -0.4287   13.2312   -2.9479 H   0  0  0  0  0  0  0  0  0  0  0  0
   -1.3391   12.2024   -1.7042 H   0  0  0  0  0  0  0  0  0  0  0  0
    0.7495   14.3328   -1.1680 H   0  0  0  0  0  0  0  0  0  0  0  0
   -1.0095   14.3467   -0.7521 H   0  0  0  0  0  0  0  0  0  0  0  0
   -1.1577   12.1801    1.9674 H   0  0  0  0  0  0  0  0  0  0  0  0
   -1.9879   12.7199    0.4688 H   0  0  0  0  0  0  0  0  0  0  0  0
   -1.0345   11.1975    0.4688 H   0  0  0  0  0  0  0  0  0  0  0  0
  1  2  1  0
  2  3  1  0
  3  4  1  0
  4  5  1  0
  5  6  1  0
  6  7  1  0
  7  8  1  0
  7  9  1  0
  2 10  1  0
 10 11  1  0
 11 12  1  0
 12 13  1  0
 13 14  1  6
 13 15  1  0
 15 16  1  0
 16 17  1  0
 17 18  2  0
 18 19  1  0
 19 20  1  0
 20 21  1  0
 21 22  1  0
 22 23  1  0
 22 24  1  0
 24 25  1  0
 24 26  1  0
 19 27  1  0
 27 28  1  6
 27 29  1  0
 29 30  1  0
 30 31  1  0
 31 32  1  1
  7  5  1  0
 31 10  1  0
 31 13  1  0
 27 15  1  0
 24 18  1  0
  1 33  1  0
  1 34  1  0
  1 35  1  0
  2 36  1  1
  3 37  1  0
  3 38  1  0
  4 39  1  0
  4 40  1  0
  5 41  1  6
  8 42  1  0
  8 43  1  0
  8 44  1  0
  9 45  1  0
  9 46  1  0
  9 47  1  0
 10 48  1  6
 11 49  1  0
 11 50  1  0
 12 51  1  0
 12 52  1  0
 14 53  1  0
 14 54  1  0
 14 55  1  0
 15 56  1  1
 16 57  1  0
 16 58  1  0
 17 59  1  0
 19 60  1  1
 20 61  1  0
 20 62  1  0
 21 63  1  0
 21 64  1  0
 22 65  1  6
 23 66  1  0
 25 67  1  0
 25 68  1  0
 25 69  1  0
 26 70  1  0
 26 71  1  0
 26 72  1  0
 28 73  1  0
 28 74  1  0
 28 75  1  0
 29 76  1  0
 29 77  1  0
 30 78  1  0
 30 79  1  0
 32 80  1  0
 32 81  1  0
 32 82  1  0
M  END
>  <meeko>  (18) 
{"is_sidechain": [false], "intermolecular_energy": 2.731, "internal_energy": -0.839}

$$$$
EPH_relaxed_0001_pdb2pqr_Repair_342_r2_0001_out
     RDKit          3D

 82 86  0  0  0  0  0  0  0  0999 V2000
   -2.1990   14.5490    0.5040 C   0  0  0  0  0  0  0  0  0  0  0  0
   -0.9280   15.3330    0.8440 C   0  0  2  0  0  0  0  0  0  0  0  0
   -0.8690   16.6880    0.1110 C   0  0  0  0  0  0  0  0  0  0  0  0
    0.3610   16.8500   -0.7860 C   0  0  0  0  0  0  0  0  0  0  0  0
    0.3300   18.1430   -1.5430 C   0  0  2  0  0  0  0  0  0  0  0  0
    0.4180   18.0050   -2.9670 O   0  0  0  0  0  0  0  0  0  0  0  0
    1.5110   18.6830   -2.3260 C   0  0  0  0  0  0  0  0  0  0  0  0
    2.8090   17.9400   -2.3910 C   0  0  0  0  0  0  0  0  0  0  0  0
    1.5660   20.1500   -2.6180 C   0  0  0  0  0  0  0  0  0  0  0  0
    0.3030   14.5020    0.5020 C   0  0  1  0  0  0  0  0  0  0  0  0
    0.8280   13.6860    1.7130 C   0  0  0  0  0  0  0  0  0  0  0  0
    1.3760   12.3500    1.1490 C   0  0  0  0  0  0  0  0  0  0  0  0
    1.4540   12.5750   -0.3790 C   0  0  1  0  0  0  0  0  0  0  0  0
    2.7850   13.3600   -0.6010 C   0  0  0  0  0  0  0  0  0  0  0  0
    1.3850   11.2930   -1.2710 C   0  0  2  0  0  0  0  0  0  0  0  0
    2.5370   10.2930   -1.0680 C   0  0  0  0  0  0  0  0  0  0  0  0
    3.7240   10.5010   -1.9490 C   0  0  0  0  0  0  0  0  0  0  0  0
    3.7520   11.2660   -3.0560 C   0  0  0  0  0  0  0  0  0  0  0  0
    2.4790   11.9430   -3.5780 C   0  0  1  0  0  0  0  0  0  0  0  0
    2.3640   11.7210   -5.1090 C   0  0  0  0  0  0  0  0  0  0  0  0
    3.6140   12.1700   -5.8610 C   0  0  0  0  0  0  0  0  0  0  0  0
    4.8500   11.4320   -5.3530 C   0  0  2  0  0  0  0  0  0  0  0  0
    4.7320   10.0480   -5.6950 O   0  0  0  0  0  0  0  0  0  0  0  0
    5.0630   11.5760   -3.8200 C   0  0  0  0  0  0  0  0  0  0  0  0
    5.4880   13.0270   -3.4880 C   0  0  0  0  0  0  0  0  0  0  0  0
    6.2590   10.6700   -3.4180 C   0  0  0  0  0  0  0  0  0  0  0  0
    1.1360   11.5840   -2.8070 C   0  0  1  0  0  0  0  0  0  0  0  0
    0.5070   10.2900   -3.4090 C   0  0  0  0  0  0  0  0  0  0  0  0
    0.0880   12.7360   -3.0350 C   0  0  0  0  0  0  0  0  0  0  0  0
    0.1290   13.9180   -2.0490 C   0  0  0  0  0  0  0  0  0  0  0  0
    0.1490   13.4230   -0.6000 C   0  0  2  0  0  0  0  0  0  0  0  0
   -1.1880   12.6480   -0.3400 C   0  0  0  0  0  0  0  0  0  0  0  0
   -2.6992   14.2404    1.4338 H   0  0  0  0  0  0  0  0  0  0  0  0
   -2.8768   15.1862   -0.0830 H   0  0  0  0  0  0  0  0  0  0  0  0
   -1.9338   13.6573   -0.0830 H   0  0  0  0  0  0  0  0  0  0  0  0
   -0.9468   15.5418    1.9238 H   0  0  0  0  0  0  0  0  0  0  0  0
   -1.7693   16.7843   -0.5136 H   0  0  0  0  0  0  0  0  0  0  0  0
   -0.8083   17.4687    0.8835 H   0  0  0  0  0  0  0  0  0  0  0  0
    1.2647   16.8257   -0.1593 H   0  0  0  0  0  0  0  0  0  0  0  0
    0.3639   16.0264   -1.5151 H   0  0  0  0  0  0  0  0  0  0  0  0
   -0.3213   18.5992   -0.7829 H   0  0  0  0  0  0  0  0  0  0  0  0
    3.1660   17.7356   -1.3708 H   0  0  0  0  0  0  0  0  0  0  0  0
    2.6612   16.9897   -2.9250 H   0  0  0  0  0  0  0  0  0  0  0  0
    3.5536   18.5487   -2.9250 H   0  0  0  0  0  0  0  0  0  0  0  0
    1.5871   20.7115   -1.6724 H   0  0  0  0  0  0  0  0  0  0  0  0
    2.4732   20.3746   -3.1981 H   0  0  0  0  0  0  0  0  0  0  0  0
    0.6782   20.4419   -3.1981 H   0  0  0  0  0  0  0  0  0  0  0  0
    0.9746   15.3011    0.1551 H   0  0  0  0  0  0  0  0  0  0  0  0
    1.6303   14.2392    2.2232 H   0  0  0  0  0  0  0  0  0  0  0  0
    0.0269   13.5064    2.4451 H   0  0  0  0  0  0  0  0  0  0  0  0
    2.3727   12.1341    1.5612 H   0  0  0  0  0  0  0  0  0  0  0  0
    0.7388   11.4930    1.4127 H   0  0  0  0  0  0  0  0  0  0  0  0
    3.2246   13.6193    0.3734 H   0  0  0  0  0  0  0  0  0  0  0  0
    3.4904   12.7333   -1.1664 H   0  0  0  0  0  0  0  0  0  0  0  0
    2.5778   14.2805   -1.1664 H   0  0  0  0  0  0  0  0  0  0  0  0
    0.4833   10.7905   -0.8910 H   0  0  0  0  0  0  0  0  0  0  0  0
    2.8720   10.3678   -0.0229 H   0  0  0  0  0  0  0  0  0  0  0  0
    2.1321    9.3046   -1.3309 H   0  0  0  0  0  0  0  0  0  0  0  0
    4.6547    9.9853   -1.6698 H   0  0  0  0  0  0  0  0  0  0  0  0
    2.5965   13.0156   -3.3643 H   0  0  0  0  0  0  0  0  0  0  0  0
    2.2041   10.6494   -5.2989 H   0  0  0  0  0  0  0  0  0  0  0  0
    1.5205   12.3267   -5.4718 H   0  0  0  0  0  0  0  0  0  0  0  0
    3.4843   11.9599   -6.9329 H   0  0  0  0  0  0  0  0  0  0  0  0
    3.7556   13.2482   -5.6951 H   0  0  0  0  0  0  0  0  0  0  0  0
    5.7279   11.8871   -5.8348 H   0  0  0  0  0  0  0  0  0  0  0  0
    4.5530    9.5560   -4.8760 H   0  0  0  0  0  0  0  0  0  0  0  0
    5.5261   13.1572   -2.3964 H   0  0  0  0  0  0  0  0  0  0  0  0
    6.4819   13.2250   -3.9158 H   0  0  0  0  0  0  0  0  0  0  0  0
    4.7580   13.7299   -3.9158 H   0  0  0  0  0  0  0  0  0  0  0  0
    6.3274   10.6182   -2.3213 H   0  0  0  0  0  0  0  0  0  0  0  0
    6.1060    9.6592   -3.8240 H   0  0  0  0  0  0  0  0  0  0  0  0
    7.1906   11.0910   -3.8240 H   0  0  0  0  0  0  0  0  0  0  0  0
    0.1841    9.6258   -2.5938 H   0  0  0  0  0  0  0  0  0  0  0  0
   -0.3611   10.5584   -4.0289 H   0  0  0  0  0  0  0  0  0  0  0  0
    1.2544    9.7731   -4.0289 H   0  0  0  0  0  0  0  0  0  0  0  0
    0.2518   13.1396   -4.0451 H   0  0  0  0  0  0  0  0  0  0  0  0
   -0.8943   12.2659   -2.8796 H   0  0  0  0  0  0  0  0  0  0  0  0
    1.0344   14.5133   -2.2384 H   0  0  0  0  0  0  0  0  0  0  0  0
   -0.7726   14.5303   -2.1979 H   0  0  0  0  0  0  0  0  0  0  0  0
   -1.3520   12.5530    0.7436 H   0  0  0  0  0  0  0  0  0  0  0  0
   -2.0257   13.2006   -0.7905 H   0  0  0  0  0  0  0  0  0  0  0  0
   -1.1248   11.6465   -0.7905 H   0  0  0  0  0  0  0  0  0  0  0  0
  1  2  1  0
  2  3  1  0
  3  4  1  0
  4  5  1  0
  5  6  1  0
  6  7  1  0
  7  8  1  0
  7  9  1  0
  2 10  1  0
 10 11  1  0
 11 12  1  0
 12 13  1  0
 13 14  1  1
 13 15  1  0
 15 16  1  0
 16 17  1  0
 17 18  2  0
 18 19  1  0
 19 20  1  0
 20 21  1  0
 21 22  1  0
 22 23  1  0
 22 24  1  0
 24 25  1  0
 24 26  1  0
 19 27  1  0
 27 28  1  6
 27 29  1  0
 29 30  1  0
 30 31  1  0
 31 32  1  1
  7  5  1  0
 31 10  1  0
 31 13  1  0
 27 15  1  0
 24 18  1  0
  1 33  1  0
  1 34  1  0
  1 35  1  0
  2 36  1  1
  3 37  1  0
  3 38  1  0
  4 39  1  0
  4 40  1  0
  5 41  1  6
  8 42  1  0
  8 43  1  0
  8 44  1  0
  9 45  1  0
  9 46  1  0
  9 47  1  0
 10 48  1  6
 11 49  1  0
 11 50  1  0
 12 51  1  0
 12 52  1  0
 14 53  1  0
 14 54  1  0
 14 55  1  0
 15 56  1  1
 16 57  1  0
 16 58  1  0
 17 59  1  0
 19 60  1  6
 20 61  1  0
 20 62  1  0
 21 63  1  0
 21 64  1  0
 22 65  1  6
 23 66  1  0
 25 67  1  0
 25 68  1  0
 25 69  1  0
 26 70  1  0
 26 71  1  0
 26 72  1  0
 28 73  1  0
 28 74  1  0
 28 75  1  0
 29 76  1  0
 29 77  1  0
 30 78  1  0
 30 79  1  0
 32 80  1  0
 32 81  1  0
 32 82  1  0
M  END
>  <meeko>  (19) 
{"is_sidechain": [false], "intermolecular_energy": 2.731, "internal_energy": -0.839}

$$$$
EPH_relaxed_0001_pdb2pqr_Repair_342_r2_0001_out
     RDKit          3D

 82 86  0  0  0  0  0  0  0  0999 V2000
   -2.9870    9.6450    0.3530 C   0  0  0  0  0  0  0  0  0  0  0  0
   -2.9000    9.6140   -1.1760 C   0  0  2  0  0  0  0  0  0  0  0  0
   -2.5970    8.2010   -1.7120 C   0  0  0  0  0  0  0  0  0  0  0  0
   -3.7960    7.5270   -2.3830 C   0  0  0  0  0  0  0  0  0  0  0  0
   -4.9960    7.5070   -1.4850 C   0  0  2  0  0  0  0  0  0  0  0  0
   -5.4380    6.1970   -1.1060 O   0  0  0  0  0  0  0  0  0  0  0  0
   -6.3490    6.9670   -1.9070 C   0  0  0  0  0  0  0  0  0  0  0  0
   -6.5730    6.4100   -3.2780 C   0  0  0  0  0  0  0  0  0  0  0  0
   -7.5660    7.4250   -1.1650 C   0  0  0  0  0  0  0  0  0  0  0  0
   -1.8330   10.5930   -1.6550 C   0  0  1  0  0  0  0  0  0  0  0  0
   -2.1320   12.0560   -1.2330 C   0  0  0  0  0  0  0  0  0  0  0  0
   -0.7650   12.7270   -0.9470 C   0  0  0  0  0  0  0  0  0  0  0  0
    0.2810   11.7460   -1.5260 C   0  0  1  0  0  0  0  0  0  0  0  0
    0.3100   12.0490   -3.0570 C   0  0  0  0  0  0  0  0  0  0  0  0
    1.7110   11.8090   -0.8980 C   0  0  2  0  0  0  0  0  0  0  0  0
    2.4440   13.1490   -1.0780 C   0  0  0  0  0  0  0  0  0  0  0  0
    3.2850   13.2570   -2.3070 C   0  0  0  0  0  0  0  0  0  0  0  0
    3.6740   12.2260   -3.0810 C   0  0  0  0  0  0  0  0  0  0  0  0
    3.3450   10.7800   -2.6900 C   0  0  1  0  0  0  0  0  0  0  0  0
    4.6130    9.9000   -2.8480 C   0  0  0  0  0  0  0  0  0  0  0  0
    5.2260   10.0030   -4.2410 C   0  0  0  0  0  0  0  0  0  0  0  0
    5.5930   11.4480   -4.5710 C   0  0  2  0  0  0  0  0  0  0  0  0
    6.6550   11.8620   -3.7060 O   0  0  0  0  0  0  0  0  0  0  0  0
    4.3960   12.4290   -4.4360 C   0  0  0  0  0  0  0  0  0  0  0  0
    3.3770   12.1680   -5.5730 C   0  0  0  0  0  0  0  0  0  0  0  0
    4.9320   13.8700   -4.6570 C   0  0  0  0  0  0  0  0  0  0  0  0
    2.6410   10.5860   -1.2790 C   0  0  1  0  0  0  0  0  0  0  0  0
    3.7180   10.4790   -0.1560 C   0  0  0  0  0  0  0  0  0  0  0  0
    1.8610    9.2180   -1.2770 C   0  0  0  0  0  0  0  0  0  0  0  0
    0.4110    9.2440   -1.7990 C   0  0  0  0  0  0  0  0  0  0  0  0
   -0.3870   10.3750   -1.1430 C   0  0  2  0  0  0  0  0  0  0  0  0
   -0.4530   10.0850    0.3950 C   0  0  0  0  0  0  0  0  0  0  0  0
   -2.0327    9.3050    0.7815 H   0  0  0  0  0  0  0  0  0  0  0  0
   -3.1939   10.6722    0.6877 H   0  0  0  0  0  0  0  0  0  0  0  0
   -3.7969    8.9801    0.6877 H   0  0  0  0  0  0  0  0  0  0  0  0
   -3.8828    9.9122   -1.5699 H   0  0  0  0  0  0  0  0  0  0  0  0
   -1.7837    8.2762   -2.4488 H   0  0  0  0  0  0  0  0  0  0  0  0
   -2.3229    7.5807   -0.8459 H   0  0  0  0  0  0  0  0  0  0  0  0
   -4.0471    8.0785   -3.3010 H   0  0  0  0  0  0  0  0  0  0  0  0
   -3.5210    6.4865   -2.6105 H   0  0  0  0  0  0  0  0  0  0  0  0
   -4.6935    8.4575   -1.0213 H   0  0  0  0  0  0  0  0  0  0  0  0
   -6.9823    5.3921   -3.1979 H   0  0  0  0  0  0  0  0  0  0  0  0
   -7.2839    7.0494   -3.8219 H   0  0  0  0  0  0  0  0  0  0  0  0
   -5.6174    6.3791   -3.8219 H   0  0  0  0  0  0  0  0  0  0  0  0
   -7.3830    7.3561   -0.0825 H   0  0  0  0  0  0  0  0  0  0  0  0
   -7.7882    8.4683   -1.4337 H   0  0  0  0  0  0  0  0  0  0  0  0
   -8.4209    6.7871   -1.4337 H   0  0  0  0  0  0  0  0  0  0  0  0
   -1.8815   10.4037   -2.7375 H   0  0  0  0  0  0  0  0  0  0  0  0
   -2.6515   12.5858   -2.0450 H   0  0  0  0  0  0  0  0  0  0  0  0
   -2.7803   12.0862   -0.3449 H   0  0  0  0  0  0  0  0  0  0  0  0
   -0.6998   13.7041   -1.4480 H   0  0  0  0  0  0  0  0  0  0  0  0
   -0.6100   12.9164    0.1254 H   0  0  0  0  0  0  0  0  0  0  0  0
    0.4137   13.1327   -3.2144 H   0  0  0  0  0  0  0  0  0  0  0  0
    1.1624   11.5283   -3.5177 H   0  0  0  0  0  0  0  0  0  0  0  0
   -0.6257   11.6995   -3.5177 H   0  0  0  0  0  0  0  0  0  0  0  0
    1.4995   11.7263    0.1783 H   0  0  0  0  0  0  0  0  0  0  0  0
    1.6883   13.9476   -1.1122 H   0  0  0  0  0  0  0  0  0  0  0  0
    3.1366   13.2331   -0.2275 H   0  0  0  0  0  0  0  0  0  0  0  0
    3.6145   14.2632   -2.6052 H   0  0  0  0  0  0  0  0  0  0  0  0
    2.5672   10.4450   -3.3920 H   0  0  0  0  0  0  0  0  0  0  0  0
    5.3608   10.2230   -2.1088 H   0  0  0  0  0  0  0  0  0  0  0  0
    4.3147    8.8529   -2.6908 H   0  0  0  0  0  0  0  0  0  0  0  0
    6.1337    9.3829   -4.2815 H   0  0  0  0  0  0  0  0  0  0  0  0
    4.4870    9.6521   -4.9763 H   0  0  0  0  0  0  0  0  0  0  0  0
    5.9051   11.4777   -5.6254 H   0  0  0  0  0  0  0  0  0  0  0  0
    7.2680   12.4030   -4.2310 H   0  0  0  0  0  0  0  0  0  0  0  0
    2.3983   11.9173   -5.1379 H   0  0  0  0  0  0  0  0  0  0  0  0
    3.2817   13.0707   -6.1943 H   0  0  0  0  0  0  0  0  0  0  0  0
    3.7274   11.3306   -6.1943 H   0  0  0  0  0  0  0  0  0  0  0  0
    5.1100   14.3485   -3.6826 H   0  0  0  0  0  0  0  0  0  0  0  0
    5.8746   13.8279   -5.2224 H   0  0  0  0  0  0  0  0  0  0  0  0
    4.1910   14.4541   -5.2224 H   0  0  0  0  0  0  0  0  0  0  0  0
    3.2281   10.5277    0.8277 H   0  0  0  0  0  0  0  0  0  0  0  0
    4.2539    9.5232   -0.2518 H   0  0  0  0  0  0  0  0  0  0  0  0
    4.4315   11.3107   -0.2518 H   0  0  0  0  0  0  0  0  0  0  0  0
    2.4270    8.5113   -1.9017 H   0  0  0  0  0  0  0  0  0  0  0  0
    1.7804    8.9342   -0.2173 H   0  0  0  0  0  0  0  0  0  0  0  0
    0.4232    9.3969   -2.8882 H   0  0  0  0  0  0  0  0  0  0  0  0
   -0.0688    8.2859   -1.5504 H   0  0  0  0  0  0  0  0  0  0  0  0
   -0.2425   11.0100    0.9519 H   0  0  0  0  0  0  0  0  0  0  0  0
   -1.4572    9.7200    0.6565 H   0  0  0  0  0  0  0  0  0  0  0  0
    0.2943    9.3214    0.6565 H   0  0  0  0  0  0  0  0  0  0  0  0
  1  2  1  0
  2  3  1  0
  3  4  1  0
  4  5  1  0
  5  6  1  0
  6  7  1  0
  7  8  1  0
  7  9  1  0
  2 10  1  0
 10 11  1  0
 11 12  1  0
 12 13  1  0
 13 14  1  6
 13 15  1  0
 15 16  1  0
 16 17  1  0
 17 18  2  0
 18 19  1  0
 19 20  1  0
 20 21  1  0
 21 22  1  0
 22 23  1  0
 22 24  1  0
 24 25  1  0
 24 26  1  0
 19 27  1  0
 27 28  1  1
 27 29  1  0
 29 30  1  0
 30 31  1  0
 31 32  1  1
  7  5  1  0
 31 10  1  0
 31 13  1  0
 27 15  1  0
 24 18  1  0
  1 33  1  0
  1 34  1  0
  1 35  1  0
  2 36  1  6
  3 37  1  0
  3 38  1  0
  4 39  1  0
  4 40  1  0
  5 41  1  1
  8 42  1  0
  8 43  1  0
  8 44  1  0
  9 45  1  0
  9 46  1  0
  9 47  1  0
 10 48  1  6
 11 49  1  0
 11 50  1  0
 12 51  1  0
 12 52  1  0
 14 53  1  0
 14 54  1  0
 14 55  1  0
 15 56  1  1
 16 57  1  0
 16 58  1  0
 17 59  1  0
 19 60  1  6
 20 61  1  0
 20 62  1  0
 21 63  1  0
 21 64  1  0
 22 65  1  6
 23 66  1  0
 25 67  1  0
 25 68  1  0
 25 69  1  0
 26 70  1  0
 26 71  1  0
 26 72  1  0
 28 73  1  0
 28 74  1  0
 28 75  1  0
 29 76  1  0
 29 77  1  0
 30 78  1  0
 30 79  1  0
 32 80  1  0
 32 81  1  0
 32 82  1  0
M  END
>  <meeko>  (20) 
{"is_sidechain": [false], "intermolecular_energy": 2.731, "internal_energy": -0.839}

$$$$
