EPH_relaxed_0001_pdb2pqr_Repair_391_r2_0001_out
     RDKit          3D

 82 86  0  0  0  0  0  0  0  0999 V2000
   -1.5770    8.5660   -1.8120 C   0  0  0  0  0  0  0  0  0  0  0  0
   -1.9870    9.1460   -0.4550 C   0  0  2  0  0  0  0  0  0  0  0  0
   -3.4770    9.5420   -0.4210 C   0  0  0  0  0  0  0  0  0  0  0  0
   -4.4280    8.3480   -0.2990 C   0  0  0  0  0  0  0  0  0  0  0  0
   -5.0590    8.0060   -1.6160 C   0  0  2  0  0  0  0  0  0  0  0  0
   -6.3250    8.6330   -1.8540 O   0  0  0  0  0  0  0  0  0  0  0  0
   -6.3380    7.2000   -1.7460 C   0  0  0  0  0  0  0  0  0  0  0  0
   -7.0630    6.6870   -0.5420 C   0  0  0  0  0  0  0  0  0  0  0  0
   -6.6140    6.5010   -3.0400 C   0  0  0  0  0  0  0  0  0  0  0  0
   -1.1200   10.3540   -0.1230 C   0  0  1  0  0  0  0  0  0  0  0  0
   -0.0470   10.0400    0.9540 C   0  0  0  0  0  0  0  0  0  0  0  0
    1.2080   10.8760    0.5920 C   0  0  0  0  0  0  0  0  0  0  0  0
    0.7120   11.8830   -0.4720 C   0  0  1  0  0  0  0  0  0  0  0  0
    0.0310   13.0260    0.3440 C   0  0  0  0  0  0  0  0  0  0  0  0
    1.7940   12.4400   -1.4530 C   0  0  2  0  0  0  0  0  0  0  0  0
    2.9200   13.2530   -0.7900 C   0  0  0  0  0  0  0  0  0  0  0  0
    2.6680   14.7210   -0.6810 C   0  0  0  0  0  0  0  0  0  0  0  0
    1.7170   15.4020   -1.3470 C   0  0  0  0  0  0  0  0  0  0  0  0
    0.8350   14.7070   -2.3920 C   0  0  1  0  0  0  0  0  0  0  0  0
    0.7580   15.5840   -3.6700 C   0  0  0  0  0  0  0  0  0  0  0  0
    0.3000   17.0090   -3.3740 C   0  0  0  0  0  0  0  0  0  0  0  0
    1.2340   17.6870   -2.3750 C   0  0  2  0  0  0  0  0  0  0  0  0
    2.5140   17.8670   -2.9900 O   0  0  0  0  0  0  0  0  0  0  0  0
    1.3980   16.8890   -1.0520 C   0  0  0  0  0  0  0  0  0  0  0  0
    0.0810   16.9520   -0.2400 C   0  0  0  0  0  0  0  0  0  0  0  0
    2.4730   17.6070   -0.1920 C   0  0  0  0  0  0  0  0  0  0  0  0
    1.2010   13.1940   -2.7120 C   0  0  1  0  0  0  0  0  0  0  0  0
    2.2940   13.1340   -3.8230 C   0  0  0  0  0  0  0  0  0  0  0  0
   -0.0690   12.4710   -3.2990 C   0  0  0  0  0  0  0  0  0  0  0  0
   -1.0380   11.8370   -2.2840 C   0  0  0  0  0  0  0  0  0  0  0  0
   -0.2840   10.9680   -1.2740 C   0  0  2  0  0  0  0  0  0  0  0  0
    0.3940    9.7960   -2.0630 C   0  0  0  0  0  0  0  0  0  0  0  0
   -0.9485    7.6769   -1.6559 H   0  0  0  0  0  0  0  0  0  0  0  0
   -2.4774    8.2839   -2.3773 H   0  0  0  0  0  0  0  0  0  0  0  0
   -1.0106    9.3207   -2.3773 H   0  0  0  0  0  0  0  0  0  0  0  0
   -1.8356    8.3611    0.3007 H   0  0  0  0  0  0  0  0  0  0  0  0
   -3.6405   10.2058    0.4408 H   0  0  0  0  0  0  0  0  0  0  0  0
   -3.7008   10.0350   -1.3785 H   0  0  0  0  0  0  0  0  0  0  0  0
   -3.8621    7.4767    0.0623 H   0  0  0  0  0  0  0  0  0  0  0  0
   -5.2285    8.6172    0.4057 H   0  0  0  0  0  0  0  0  0  0  0  0
   -4.0714    7.9043   -2.0896 H   0  0  0  0  0  0  0  0  0  0  0  0
   -6.5594    7.0433    0.3687 H   0  0  0  0  0  0  0  0  0  0  0  0
   -8.1001    7.0534   -0.5547 H   0  0  0  0  0  0  0  0  0  0  0  0
   -7.0625    5.5871   -0.5547 H   0  0  0  0  0  0  0  0  0  0  0  0
   -7.0110    5.4956   -2.8362 H   0  0  0  0  0  0  0  0  0  0  0  0
   -7.3523    7.0766   -3.6175 H   0  0  0  0  0  0  0  0  0  0  0  0
   -5.6816    6.4169   -3.6175 H   0  0  0  0  0  0  0  0  0  0  0  0
   -1.9013   11.0612    0.1923 H   0  0  0  0  0  0  0  0  0  0  0  0
   -0.4164   10.3233    1.9506 H   0  0  0  0  0  0  0  0  0  0  0  0
    0.1872    8.9655    0.9768 H   0  0  0  0  0  0  0  0  0  0  0  0
    1.5916   11.4040    1.4775 H   0  0  0  0  0  0  0  0  0  0  0  0
    2.0335   10.2504    0.2217 H   0  0  0  0  0  0  0  0  0  0  0  0
    0.1485   12.8287    1.4198 H   0  0  0  0  0  0  0  0  0  0  0  0
    0.5038   13.9871    0.0937 H   0  0  0  0  0  0  0  0  0  0  0  0
   -1.0393   13.0677    0.0937 H   0  0  0  0  0  0  0  0  0  0  0  0
    2.2693   11.5207   -1.8259 H   0  0  0  0  0  0  0  0  0  0  0  0
    3.0719   12.8579    0.2253 H   0  0  0  0  0  0  0  0  0  0  0  0
    3.7992   13.1428   -1.4418 H   0  0  0  0  0  0  0  0  0  0  0  0
    3.3138   15.2938    0.0008 H   0  0  0  0  0  0  0  0  0  0  0  0
   -0.1632   14.6196   -1.9381 H   0  0  0  0  0  0  0  0  0  0  0  0
    1.7556   15.6228   -4.1318 H   0  0  0  0  0  0  0  0  0  0  0  0
    0.0178   15.1282   -4.3440 H   0  0  0  0  0  0  0  0  0  0  0  0
    0.2939   17.5867   -4.3101 H   0  0  0  0  0  0  0  0  0  0  0  0
   -0.7096   16.9696   -2.9391 H   0  0  0  0  0  0  0  0  0  0  0  0
    0.7835   18.6534   -2.1048 H   0  0  0  0  0  0  0  0  0  0  0  0
    2.3820   18.3980   -3.7940 H   0  0  0  0  0  0  0  0  0  0  0  0
    0.3124   16.9409    0.8353 H   0  0  0  0  0  0  0  0  0  0  0  0
   -0.4595   17.8770   -0.4893 H   0  0  0  0  0  0  0  0  0  0  0  0
   -0.5454   16.0828   -0.4893 H   0  0  0  0  0  0  0  0  0  0  0  0
    2.2492   17.4575    0.8746 H   0  0  0  0  0  0  0  0  0  0  0  0
    3.4646   17.1892   -0.4206 H   0  0  0  0  0  0  0  0  0  0  0  0
    2.4669   18.6830   -0.4206 H   0  0  0  0  0  0  0  0  0  0  0  0
    3.2886   13.0794   -3.3563 H   0  0  0  0  0  0  0  0  0  0  0  0
    2.1329   12.2433   -4.4481 H   0  0  0  0  0  0  0  0  0  0  0  0
    2.2314   14.0369   -4.4481 H   0  0  0  0  0  0  0  0  0  0  0  0
   -0.6352   13.2131   -3.8809 H   0  0  0  0  0  0  0  0  0  0  0  0
    0.3251   11.6283   -3.8860 H   0  0  0  0  0  0  0  0  0  0  0  0
   -1.5684   12.6362   -1.7455 H   0  0  0  0  0  0  0  0  0  0  0  0
   -1.7506   11.2013   -2.8300 H   0  0  0  0  0  0  0  0  0  0  0  0
    0.8141    9.0698   -1.3516 H   0  0  0  0  0  0  0  0  0  0  0  0
   -0.3555    9.2980   -2.6956 H   0  0  0  0  0  0  0  0  0  0  0  0
    1.1993   10.1975   -2.6956 H   0  0  0  0  0  0  0  0  0  0  0  0
  1  2  1  0
  2  3  1  0
  3  4  1  0
  4  5  1  0
  5  6  1  0
  6  7  1  0
  7  8  1  0
  7  9  1  0
  2 10  1  0
 10 11  1  0
 11 12  1  0
 12 13  1  0
 13 14  1  1
 13 15  1  0
 15 16  1  0
 16 17  1  0
 17 18  2  0
 18 19  1  0
 19 20  1  0
 20 21  1  0
 21 22  1  0
 22 23  1  0
 22 24  1  0
 24 25  1  0
 24 26  1  0
 19 27  1  0
 27 28  1  6
 27 29  1  0
 29 30  1  0
 30 31  1  0
 31 32  1  6
  7  5  1  0
 31 10  1  0
 31 13  1  0
 27 15  1  0
 24 18  1  0
  1 33  1  0
  1 34  1  0
  1 35  1  0
  2 36  1  1
  3 37  1  0
  3 38  1  0
  4 39  1  0
  4 40  1  0
  5 41  1  6
  8 42  1  0
  8 43  1  0
  8 44  1  0
  9 45  1  0
  9 46  1  0
  9 47  1  0
 10 48  1  1
 11 49  1  0
 11 50  1  0
 12 51  1  0
 12 52  1  0
 14 53  1  0
 14 54  1  0
 14 55  1  0
 15 56  1  6
 16 57  1  0
 16 58  1  0
 17 59  1  0
 19 60  1  1
 20 61  1  0
 20 62  1  0
 21 63  1  0
 21 64  1  0
 22 65  1  1
 23 66  1  0
 25 67  1  0
 25 68  1  0
 25 69  1  0
 26 70  1  0
 26 71  1  0
 26 72  1  0
 28 73  1  0
 28 74  1  0
 28 75  1  0
 29 76  1  0
 29 77  1  0
 30 78  1  0
 30 79  1  0
 32 80  1  0
 32 81  1  0
 32 82  1  0
M  END
>  <meeko>  (1) 
{"is_sidechain": [false], "intermolecular_energy": 2.731, "internal_energy": -0.839}

$$$$
EPH_relaxed_0001_pdb2pqr_Repair_391_r2_0001_out
     RDKit          3D

 82 86  0  0  0  0  0  0  0  0999 V2000
    4.2230   17.5530   -0.6600 C   0  0  0  0  0  0  0  0  0  0  0  0
    2.8630   18.1270   -0.2540 C   0  0  2  0  0  0  0  0  0  0  0  0
    2.9140   18.8280    1.1180 C   0  0  0  0  0  0  0  0  0  0  0  0
    4.2660   18.6980    1.8250 C   0  0  0  0  0  0  0  0  0  0  0  0
    4.2140   19.2360    3.2230 C   0  0  2  0  0  0  0  0  0  0  0  0
    5.2360   20.1910    3.5350 O   0  0  0  0  0  0  0  0  0  0  0  0
    5.2790   18.9550    4.2670 C   0  0  0  0  0  0  0  0  0  0  0  0
    6.4710   18.1050    3.9570 C   0  0  0  0  0  0  0  0  0  0  0  0
    4.9190   19.0980    5.7130 C   0  0  0  0  0  0  0  0  0  0  0  0
    1.8150   17.0200   -0.2350 C   0  0  1  0  0  0  0  0  0  0  0  0
    0.3870   17.5430   -0.5430 C   0  0  0  0  0  0  0  0  0  0  0  0
   -0.3360   16.4270   -1.3400 C   0  0  0  0  0  0  0  0  0  0  0  0
    0.5690   15.1840   -1.1780 C   0  0  1  0  0  0  0  0  0  0  0  0
    0.2000   14.5980    0.2220 C   0  0  0  0  0  0  0  0  0  0  0  0
    0.4650   14.1020   -2.3020 C   0  0  2  0  0  0  0  0  0  0  0  0
   -0.9160   13.4370   -2.4410 C   0  0  0  0  0  0  0  0  0  0  0  0
   -1.1150   12.2030   -1.6240 C   0  0  0  0  0  0  0  0  0  0  0  0
   -0.1380   11.4900   -1.0330 C   0  0  0  0  0  0  0  0  0  0  0  0
    1.3380   11.8540   -1.2400 C   0  0  1  0  0  0  0  0  0  0  0  0
    2.1490   10.5700   -1.5540 C   0  0  0  0  0  0  0  0  0  0  0  0
    1.9580    9.4840   -0.4990 C   0  0  0  0  0  0  0  0  0  0  0  0
    0.4850    9.1090   -0.3640 C   0  0  2  0  0  0  0  0  0  0  0  0
    0.0570    8.4770   -1.5740 O   0  0  0  0  0  0  0  0  0  0  0  0
   -0.4320   10.3250   -0.0560 C   0  0  0  0  0  0  0  0  0  0  0  0
   -0.1700   10.8230    1.3870 C   0  0  0  0  0  0  0  0  0  0  0  0
   -1.9040    9.8330   -0.0850 C   0  0  0  0  0  0  0  0  0  0  0  0
    1.6250   13.0250   -2.2750 C   0  0  1  0  0  0  0  0  0  0  0  0
    1.7270   12.4460   -3.7190 C   0  0  0  0  0  0  0  0  0  0  0  0
    3.0270   13.6650   -1.9530 C   0  0  0  0  0  0  0  0  0  0  0  0
    3.0480   14.8100   -0.9220 C   0  0  0  0  0  0  0  0  0  0  0  0
    1.9850   15.8630   -1.2510 C   0  0  2  0  0  0  0  0  0  0  0  0
    2.3430   16.4850   -2.6440 C   0  0  0  0  0  0  0  0  0  0  0  0
    4.8021   17.3086    0.2427 H   0  0  0  0  0  0  0  0  0  0  0  0
    4.0728   16.6415   -1.2572 H   0  0  0  0  0  0  0  0  0  0  0  0
    4.7713   18.2965   -1.2572 H   0  0  0  0  0  0  0  0  0  0  0  0
    2.5884   18.8855   -1.0019 H   0  0  0  0  0  0  0  0  0  0  0  0
    2.7007   19.8969    0.9701 H   0  0  0  0  0  0  0  0  0  0  0  0
    2.1673   18.3361    1.7586 H   0  0  0  0  0  0  0  0  0  0  0  0
    4.5483   17.6355    1.8621 H   0  0  0  0  0  0  0  0  0  0  0  0
    5.0065   19.2828    1.2596 H   0  0  0  0  0  0  0  0  0  0  0  0
    3.1181   19.1436    3.2435 H   0  0  0  0  0  0  0  0  0  0  0  0
    6.9380   17.7720    4.8956 H   0  0  0  0  0  0  0  0  0  0  0  0
    6.1541   17.2278    3.3737 H   0  0  0  0  0  0  0  0  0  0  0  0
    7.1971   18.6904    3.3737 H   0  0  0  0  0  0  0  0  0  0  0  0
    5.7618   18.7632    6.3355 H   0  0  0  0  0  0  0  0  0  0  0  0
    4.6969   20.1526    5.9330 H   0  0  0  0  0  0  0  0  0  0  0  0
    4.0338   18.4832    5.9330 H   0  0  0  0  0  0  0  0  0  0  0  0
    1.9605   16.6462    0.7893 H   0  0  0  0  0  0  0  0  0  0  0  0
   -0.1513   17.7488    0.3940 H   0  0  0  0  0  0  0  0  0  0  0  0
    0.4251   18.4788   -1.1198 H   0  0  0  0  0  0  0  0  0  0  0  0
   -1.3357   16.2367   -0.9223 H   0  0  0  0  0  0  0  0  0  0  0  0
   -0.4870   16.6986   -2.3952 H   0  0  0  0  0  0  0  0  0  0  0  0
    0.6087   15.2471    1.0105 H   0  0  0  0  0  0  0  0  0  0  0  0
   -0.8943   14.5457    0.3208 H   0  0  0  0  0  0  0  0  0  0  0  0
    0.6257   13.5885    0.3208 H   0  0  0  0  0  0  0  0  0  0  0  0
    0.6039   14.6975   -3.2164 H   0  0  0  0  0  0  0  0  0  0  0  0
   -1.6783   14.1706   -2.1398 H   0  0  0  0  0  0  0  0  0  0  0  0
   -0.9979   13.1226   -3.4919 H   0  0  0  0  0  0  0  0  0  0  0  0
   -2.1474   11.8464   -1.4941 H   0  0  0  0  0  0  0  0  0  0  0  0
    1.6799   12.2883   -0.2889 H   0  0  0  0  0  0  0  0  0  0  0  0
    1.8229   10.1765   -2.5281 H   0  0  0  0  0  0  0  0  0  0  0  0
    3.2147   10.8424   -1.5633 H   0  0  0  0  0  0  0  0  0  0  0  0
    2.5313    8.5922   -0.7923 H   0  0  0  0  0  0  0  0  0  0  0  0
    2.3131    9.8679    0.4688 H   0  0  0  0  0  0  0  0  0  0  0  0
    0.3965    8.4257    0.4935 H   0  0  0  0  0  0  0  0  0  0  0  0
   -0.9110    8.5510   -1.6190 H   0  0  0  0  0  0  0  0  0  0  0  0
   -0.5578   10.0858    2.1054 H   0  0  0  0  0  0  0  0  0  0  0  0
    0.9118   10.9503    1.5402 H   0  0  0  0  0  0  0  0  0  0  0  0
   -0.6779   11.7866    1.5402 H   0  0  0  0  0  0  0  0  0  0  0  0
   -2.2701    9.7106    0.9451 H   0  0  0  0  0  0  0  0  0  0  0  0
   -2.5272   10.5717   -0.6103 H   0  0  0  0  0  0  0  0  0  0  0  0
   -1.9578    8.8680   -0.6103 H   0  0  0  0  0  0  0  0  0  0  0  0
    1.9176   11.3639   -3.6675 H   0  0  0  0  0  0  0  0  0  0  0  0
    0.7831   12.6270   -4.2541 H   0  0  0  0  0  0  0  0  0  0  0  0
    2.5522   12.9386   -4.2541 H   0  0  0  0  0  0  0  0  0  0  0  0
    3.6792   12.8643   -1.5743 H   0  0  0  0  0  0  0  0  0  0  0  0
    3.3584   14.1219   -2.8972 H   0  0  0  0  0  0  0  0  0  0  0  0
    2.8486   14.3975    0.0781 H   0  0  0  0  0  0  0  0  0  0  0  0
    4.0376   15.2895   -0.9502 H   0  0  0  0  0  0  0  0  0  0  0  0
    2.8867   17.4296   -2.4950 H   0  0  0  0  0  0  0  0  0  0  0  0
    2.9752   15.7830   -3.2074 H   0  0  0  0  0  0  0  0  0  0  0  0
    1.4184   16.6791   -3.2074 H   0  0  0  0  0  0  0  0  0  0  0  0
  1  2  1  0
  2  3  1  0
  3  4  1  0
  4  5  1  0
  5  6  1  0
  6  7  1  0
  7  8  1  0
  7  9  1  0
  2 10  1  0
 10 11  1  0
 11 12  1  0
 12 13  1  0
 13 14  1  1
 13 15  1  0
 15 16  1  0
 16 17  1  0
 17 18  2  0
 18 19  1  0
 19 20  1  0
 20 21  1  0
 21 22  1  0
 22 23  1  0
 22 24  1  0
 24 25  1  0
 24 26  1  0
 19 27  1  0
 27 28  1  6
 27 29  1  0
 29 30  1  0
 30 31  1  0
 31 32  1  6
  7  5  1  0
 31 10  1  0
 31 13  1  0
 27 15  1  0
 24 18  1  0
  1 33  1  0
  1 34  1  0
  1 35  1  0
  2 36  1  6
  3 37  1  0
  3 38  1  0
  4 39  1  0
  4 40  1  0
  5 41  1  1
  8 42  1  0
  8 43  1  0
  8 44  1  0
  9 45  1  0
  9 46  1  0
  9 47  1  0
 10 48  1  1
 11 49  1  0
 11 50  1  0
 12 51  1  0
 12 52  1  0
 14 53  1  0
 14 54  1  0
 14 55  1  0
 15 56  1  6
 16 57  1  0
 16 58  1  0
 17 59  1  0
 19 60  1  1
 20 61  1  0
 20 62  1  0
 21 63  1  0
 21 64  1  0
 22 65  1  1
 23 66  1  0
 25 67  1  0
 25 68  1  0
 25 69  1  0
 26 70  1  0
 26 71  1  0
 26 72  1  0
 28 73  1  0
 28 74  1  0
 28 75  1  0
 29 76  1  0
 29 77  1  0
 30 78  1  0
 30 79  1  0
 32 80  1  0
 32 81  1  0
 32 82  1  0
M  END
>  <meeko>  (2) 
{"is_sidechain": [false], "intermolecular_energy": 2.731, "internal_energy": -0.839}

$$$$
EPH_relaxed_0001_pdb2pqr_Repair_391_r2_0001_out
     RDKit          3D

 82 86  0  0  0  0  0  0  0  0999 V2000
    0.3900   18.4650   -0.0290 C   0  0  0  0  0  0  0  0  0  0  0  0
    1.4840   17.4160   -0.2500 C   0  0  2  0  0  0  0  0  0  0  0  0
    2.6940   17.9900   -1.0130 C   0  0  0  0  0  0  0  0  0  0  0  0
    3.9300   18.2040   -0.1350 C   0  0  0  0  0  0  0  0  0  0  0  0
    3.5590   18.6740    1.2390 C   0  0  2  0  0  0  0  0  0  0  0  0
    3.8150   20.0630    1.4860 O   0  0  0  0  0  0  0  0  0  0  0  0
    4.5750   19.1290    2.2700 C   0  0  0  0  0  0  0  0  0  0  0  0
    6.0420   19.1350    1.9700 C   0  0  0  0  0  0  0  0  0  0  0  0
    4.1890   19.1010    3.7160 C   0  0  0  0  0  0  0  0  0  0  0  0
    0.9120   16.2210   -1.0040 C   0  0  1  0  0  0  0  0  0  0  0  0
    0.7590   16.4910   -2.5250 C   0  0  0  0  0  0  0  0  0  0  0  0
    1.0530   15.1520   -3.2490 C   0  0  0  0  0  0  0  0  0  0  0  0
    1.0380   14.0890   -2.1250 C   0  0  1  0  0  0  0  0  0  0  0  0
   -0.4730   13.7760   -1.8900 C   0  0  0  0  0  0  0  0  0  0  0  0
    1.8630   12.7880   -2.3930 C   0  0  2  0  0  0  0  0  0  0  0  0
    1.3860   11.9480   -3.5900 C   0  0  0  0  0  0  0  0  0  0  0  0
    0.3690   10.9020   -3.2710 C   0  0  0  0  0  0  0  0  0  0  0  0
    0.0690   10.4540   -2.0380 C   0  0  0  0  0  0  0  0  0  0  0  0
    0.8520   10.9400   -0.8110 C   0  0  1  0  0  0  0  0  0  0  0  0
    1.2330    9.7250    0.0750 C   0  0  0  0  0  0  0  0  0  0  0  0
    0.0240    8.8740    0.4530 C   0  0  0  0  0  0  0  0  0  0  0  0
   -0.6930    8.3620   -0.7930 C   0  0  2  0  0  0  0  0  0  0  0  0
    0.1650    7.4410   -1.4730 O   0  0  0  0  0  0  0  0  0  0  0  0
   -1.1180    9.4970   -1.7660 C   0  0  0  0  0  0  0  0  0  0  0  0
   -2.2700   10.3180   -1.1370 C   0  0  0  0  0  0  0  0  0  0  0  0
   -1.7020    8.8370   -3.0440 C   0  0  0  0  0  0  0  0  0  0  0  0
    2.0910   11.8900   -1.1100 C   0  0  1  0  0  0  0  0  0  0  0  0
    3.3630   11.0320   -1.3880 C   0  0  0  0  0  0  0  0  0  0  0  0
    2.4030   12.7470    0.1730 C   0  0  0  0  0  0  0  0  0  0  0  0
    1.6440   14.0790    0.3210 C   0  0  0  0  0  0  0  0  0  0  0  0
    1.7250   14.9020   -0.9680 C   0  0  2  0  0  0  0  0  0  0  0  0
    3.2320   15.2520   -1.2180 C   0  0  0  0  0  0  0  0  0  0  0  0
    0.2361   18.6125    1.0501 H   0  0  0  0  0  0  0  0  0  0  0  0
    0.6957   19.4162   -0.4892 H   0  0  0  0  0  0  0  0  0  0  0  0
   -0.5475   18.1196   -0.4892 H   0  0  0  0  0  0  0  0  0  0  0  0
    1.8406   17.0959    0.7401 H   0  0  0  0  0  0  0  0  0  0  0  0
    2.9584   17.2916   -1.8207 H   0  0  0  0  0  0  0  0  0  0  0  0
    2.3950   18.9778   -1.3935 H   0  0  0  0  0  0  0  0  0  0  0  0
    4.4767   17.2532   -0.0511 H   0  0  0  0  0  0  0  0  0  0  0  0
    4.5549   18.9776   -0.6051 H   0  0  0  0  0  0  0  0  0  0  0  0
    2.7306   17.9520    1.2881 H   0  0  0  0  0  0  0  0  0  0  0  0
    6.6090   19.1373    2.9126 H   0  0  0  0  0  0  0  0  0  0  0  0
    6.3010   18.2379    1.3885 H   0  0  0  0  0  0  0  0  0  0  0  0
    6.2937   20.0342    1.3885 H   0  0  0  0  0  0  0  0  0  0  0  0
    5.0937   19.1666    4.3383 H   0  0  0  0  0  0  0  0  0  0  0  0
    3.5299   19.9537    3.9361 H   0  0  0  0  0  0  0  0  0  0  0  0
    3.6598   18.1621    3.9361 H   0  0  0  0  0  0  0  0  0  0  0  0
   -0.0347   16.0948   -0.4582 H   0  0  0  0  0  0  0  0  0  0  0  0
   -0.2645   16.8260   -2.7491 H   0  0  0  0  0  0  0  0  0  0  0  0
    1.4500   17.2797   -2.8575 H   0  0  0  0  0  0  0  0  0  0  0  0
    0.2763   14.9366   -3.9976 H   0  0  0  0  0  0  0  0  0  0  0  0
    2.0099   15.1723   -3.7912 H   0  0  0  0  0  0  0  0  0  0  0  0
   -0.6751   13.7341   -0.8095 H   0  0  0  0  0  0  0  0  0  0  0  0
   -1.0866   14.5661   -2.3474 H   0  0  0  0  0  0  0  0  0  0  0  0
   -0.7222   12.8072   -2.3474 H   0  0  0  0  0  0  0  0  0  0  0  0
    2.8464   13.1871   -2.6821 H   0  0  0  0  0  0  0  0  0  0  0  0
    0.9487   12.6319   -4.3323 H   0  0  0  0  0  0  0  0  0  0  0  0
    2.2724   11.4089   -3.9556 H   0  0  0  0  0  0  0  0  0  0  0  0
   -0.1813   10.4605   -4.1150 H   0  0  0  0  0  0  0  0  0  0  0  0
    0.1707   11.6048   -0.2597 H   0  0  0  0  0  0  0  0  0  0  0  0
    1.9478    9.0967   -0.4767 H   0  0  0  0  0  0  0  0  0  0  0  0
    1.6708   10.1149    1.0057 H   0  0  0  0  0  0  0  0  0  0  0  0
    0.3612    8.0157    1.0527 H   0  0  0  0  0  0  0  0  0  0  0  0
   -0.6761    9.4953    1.0308 H   0  0  0  0  0  0  0  0  0  0  0  0
   -1.6197    7.8708   -0.4614 H   0  0  0  0  0  0  0  0  0  0  0  0
    0.8960    7.2200   -0.8710 H   0  0  0  0  0  0  0  0  0  0  0  0
   -2.1997   10.2679   -0.0404 H   0  0  0  0  0  0  0  0  0  0  0  0
   -2.1932   11.3661   -1.4618 H   0  0  0  0  0  0  0  0  0  0  0  0
   -3.2357    9.9033   -1.4618 H   0  0  0  0  0  0  0  0  0  0  0  0
   -2.4057    8.0417   -2.7571 H   0  0  0  0  0  0  0  0  0  0  0  0
   -2.2297    9.5960   -3.6402 H   0  0  0  0  0  0  0  0  0  0  0  0
   -0.8844    8.4056   -3.6402 H   0  0  0  0  0  0  0  0  0  0  0  0
    3.8154   10.7268   -0.4329 H   0  0  0  0  0  0  0  0  0  0  0  0
    3.0832   10.1374   -1.9636 H   0  0  0  0  0  0  0  0  0  0  0  0
    4.0877   11.6265   -1.9636 H   0  0  0  0  0  0  0  0  0  0  0  0
    2.1651   12.1293    1.0515 H   0  0  0  0  0  0  0  0  0  0  0  0
    3.4623   13.0286    0.0799 H   0  0  0  0  0  0  0  0  0  0  0  0
    0.5884   13.8684    0.5478 H   0  0  0  0  0  0  0  0  0  0  0  0
    2.1049   14.6568    1.1357 H   0  0  0  0  0  0  0  0  0  0  0  0
    3.7457   15.3713   -0.2527 H   0  0  0  0  0  0  0  0  0  0  0  0
    3.7072   14.4403   -1.7884 H   0  0  0  0  0  0  0  0  0  0  0  0
    3.3008   16.1900   -1.7884 H   0  0  0  0  0  0  0  0  0  0  0  0
  1  2  1  0
  2  3  1  0
  3  4  1  0
  4  5  1  0
  5  6  1  0
  6  7  1  0
  7  8  1  0
  7  9  1  0
  2 10  1  0
 10 11  1  0
 11 12  1  0
 12 13  1  0
 13 14  1  1
 13 15  1  0
 15 16  1  0
 16 17  1  0
 17 18  2  0
 18 19  1  0
 19 20  1  0
 20 21  1  0
 21 22  1  0
 22 23  1  0
 22 24  1  0
 24 25  1  0
 24 26  1  0
 19 27  1  0
 27 28  1  6
 27 29  1  0
 29 30  1  0
 30 31  1  0
 31 32  1  6
  7  5  1  0
 31 10  1  0
 31 13  1  0
 27 15  1  0
 24 18  1  0
  1 33  1  0
  1 34  1  0
  1 35  1  0
  2 36  1  1
  3 37  1  0
  3 38  1  0
  4 39  1  0
  4 40  1  0
  5 41  1  1
  8 42  1  0
  8 43  1  0
  8 44  1  0
  9 45  1  0
  9 46  1  0
  9 47  1  0
 10 48  1  1
 11 49  1  0
 11 50  1  0
 12 51  1  0
 12 52  1  0
 14 53  1  0
 14 54  1  0
 14 55  1  0
 15 56  1  6
 16 57  1  0
 16 58  1  0
 17 59  1  0
 19 60  1  1
 20 61  1  0
 20 62  1  0
 21 63  1  0
 21 64  1  0
 22 65  1  1
 23 66  1  0
 25 67  1  0
 25 68  1  0
 25 69  1  0
 26 70  1  0
 26 71  1  0
 26 72  1  0
 28 73  1  0
 28 74  1  0
 28 75  1  0
 29 76  1  0
 29 77  1  0
 30 78  1  0
 30 79  1  0
 32 80  1  0
 32 81  1  0
 32 82  1  0
M  END
>  <meeko>  (3) 
{"is_sidechain": [false], "intermolecular_energy": 2.731, "internal_energy": -0.839}

$$$$
EPH_relaxed_0001_pdb2pqr_Repair_391_r2_0001_out
     RDKit          3D

 82 86  0  0  0  0  0  0  0  0999 V2000
    2.3400   18.0030   -2.6270 C   0  0  0  0  0  0  0  0  0  0  0  0
    1.0320   17.6260   -1.9270 C   0  0  2  0  0  0  0  0  0  0  0  0
    1.1600   17.6750   -0.3910 C   0  0  0  0  0  0  0  0  0  0  0  0
    0.8270   19.0430    0.2110 C   0  0  0  0  0  0  0  0  0  0  0  0
   -0.6240   19.1510    0.5710 C   0  0  2  0  0  0  0  0  0  0  0  0
   -1.4870   18.2570   -0.1430 O   0  0  0  0  0  0  0  0  0  0  0  0
   -1.6880   19.6590   -0.3850 C   0  0  0  0  0  0  0  0  0  0  0  0
   -1.3440   20.0920   -1.7760 C   0  0  0  0  0  0  0  0  0  0  0  0
   -2.9660   20.1910    0.1840 C   0  0  0  0  0  0  0  0  0  0  0  0
    0.5880   16.2360   -2.3680 C   0  0  1  0  0  0  0  0  0  0  0  0
    0.6310   16.0560   -3.9090 C   0  0  0  0  0  0  0  0  0  0  0  0
    1.0450   14.5860   -4.1760 C   0  0  0  0  0  0  0  0  0  0  0  0
    0.9020   13.8850   -2.8050 C   0  0  1  0  0  0  0  0  0  0  0  0
   -0.6200   13.5660   -2.6730 C   0  0  0  0  0  0  0  0  0  0  0  0
    1.7810   12.6110   -2.5860 C   0  0  2  0  0  0  0  0  0  0  0  0
    1.4820   11.4410   -3.5390 C   0  0  0  0  0  0  0  0  0  0  0  0
    0.4530   10.4720   -3.0570 C   0  0  0  0  0  0  0  0  0  0  0  0
    0.0030   10.3740   -1.7930 C   0  0  0  0  0  0  0  0  0  0  0  0
    0.6070   11.2310   -0.6730 C   0  0  1  0  0  0  0  0  0  0  0  0
    0.8930   10.3390    0.5640 C   0  0  0  0  0  0  0  0  0  0  0  0
   -0.3380    9.5630    1.0230 C   0  0  0  0  0  0  0  0  0  0  0  0
   -0.8760    8.6800   -0.1000 C   0  0  2  0  0  0  0  0  0  0  0  0
    0.0820    7.6540   -0.3780 O   0  0  0  0  0  0  0  0  0  0  0  0
   -1.1910    9.4680   -1.4020 C   0  0  0  0  0  0  0  0  0  0  0  0
   -2.4320   10.3670   -1.1790 C   0  0  0  0  0  0  0  0  0  0  0  0
   -1.5890    8.4410   -2.4970 C   0  0  0  0  0  0  0  0  0  0  0  0
    1.8560   12.1260   -1.0810 C   0  0  1  0  0  0  0  0  0  0  0  0
    3.1710   11.2980   -0.9450 C   0  0  0  0  0  0  0  0  0  0  0  0
    1.9800   13.3270   -0.0710 C   0  0  0  0  0  0  0  0  0  0  0  0
    1.1820   14.6010   -0.4050 C   0  0  0  0  0  0  0  0  0  0  0  0
    1.4160   15.0300   -1.8570 C   0  0  2  0  0  0  0  0  0  0  0  0
    2.9350   15.3790   -2.0140 C   0  0  0  0  0  0  0  0  0  0  0  0
    3.1090   18.2247   -1.8724 H   0  0  0  0  0  0  0  0  0  0  0  0
    2.6742   17.1646   -3.2558 H   0  0  0  0  0  0  0  0  0  0  0  0
    2.1767   18.8906   -3.2558 H   0  0  0  0  0  0  0  0  0  0  0  0
    0.2749   18.3685   -2.2192 H   0  0  0  0  0  0  0  0  0  0  0  0
    0.4739   16.9302    0.0386 H   0  0  0  0  0  0  0  0  0  0  0  0
    2.2123   17.4649   -0.1492 H   0  0  0  0  0  0  0  0  0  0  0  0
    1.4314   19.1901    1.1182 H   0  0  0  0  0  0  0  0  0  0  0  0
    1.0522   19.8132   -0.5414 H   0  0  0  0  0  0  0  0  0  0  0  0
   -0.3705   19.4242    1.6059 H   0  0  0  0  0  0  0  0  0  0  0  0
   -0.6603   20.9526   -1.7336 H   0  0  0  0  0  0  0  0  0  0  0  0
   -0.8562   19.2621   -2.3083 H   0  0  0  0  0  0  0  0  0  0  0  0
   -2.2627   20.3795   -2.3083 H   0  0  0  0  0  0  0  0  0  0  0  0
   -2.9151   20.1698    1.2826 H   0  0  0  0  0  0  0  0  0  0  0  0
   -3.1159   21.2263   -0.1562 H   0  0  0  0  0  0  0  0  0  0  0  0
   -3.8063   19.5679   -0.1562 H   0  0  0  0  0  0  0  0  0  0  0  0
   -0.4194   16.2152   -1.9267 H   0  0  0  0  0  0  0  0  0  0  0  0
   -0.3607   16.2548   -4.3415 H   0  0  0  0  0  0  0  0  0  0  0  0
    1.3433   16.7568   -4.3689 H   0  0  0  0  0  0  0  0  0  0  0  0
    0.3790   14.1240   -4.9197 H   0  0  0  0  0  0  0  0  0  0  0  0
    2.0649   14.5069   -4.5805 H   0  0  0  0  0  0  0  0  0  0  0  0
   -0.8917   13.5090   -1.6086 H   0  0  0  0  0  0  0  0  0  0  0  0
   -1.2048   14.3611   -3.1587 H   0  0  0  0  0  0  0  0  0  0  0  0
   -0.8363   12.6030   -3.1587 H   0  0  0  0  0  0  0  0  0  0  0  0
    2.7857   12.9679   -2.8567 H   0  0  0  0  0  0  0  0  0  0  0  0
    1.1324   11.8611   -4.4936 H   0  0  0  0  0  0  0  0  0  0  0  0
    2.4192   10.8716   -3.6249 H   0  0  0  0  0  0  0  0  0  0  0  0
    0.0270    9.7798   -3.7982 H   0  0  0  0  0  0  0  0  0  0  0  0
   -0.1542   11.9846   -0.4227 H   0  0  0  0  0  0  0  0  0  0  0  0
    1.6859    9.6217    0.3057 H   0  0  0  0  0  0  0  0  0  0  0  0
    1.1978   10.9998    1.3889 H   0  0  0  0  0  0  0  0  0  0  0  0
   -0.0654    8.9295    1.8799 H   0  0  0  0  0  0  0  0  0  0  0  0
   -1.1197   10.2819    1.3096 H   0  0  0  0  0  0  0  0  0  0  0  0
   -1.8287    8.2515    0.2447 H   0  0  0  0  0  0  0  0  0  0  0  0
    0.4480    7.8250   -1.2620 H   0  0  0  0  0  0  0  0  0  0  0  0
   -2.6049   10.4922   -0.0999 H   0  0  0  0  0  0  0  0  0  0  0  0
   -2.2594   11.3510   -1.6393 H   0  0  0  0  0  0  0  0  0  0  0  0
   -3.3132    9.8963   -1.6393 H   0  0  0  0  0  0  0  0  0  0  0  0
   -1.9472    7.5168   -2.0200 H   0  0  0  0  0  0  0  0  0  0  0  0
   -2.3883    8.8640   -3.1233 H   0  0  0  0  0  0  0  0  0  0  0  0
   -0.7134    8.2149   -3.1233 H   0  0  0  0  0  0  0  0  0  0  0  0
    3.4036   11.1516    0.1201 H   0  0  0  0  0  0  0  0  0  0  0  0
    3.0398   10.3193   -1.4296 H   0  0  0  0  0  0  0  0  0  0  0  0
    3.9969   11.8393   -1.4296 H   0  0  0  0  0  0  0  0  0  0  0  0
    1.6411   12.9706    0.9129 H   0  0  0  0  0  0  0  0  0  0  0  0
    3.0366   13.6302   -0.1130 H   0  0  0  0  0  0  0  0  0  0  0  0
    0.1101   14.4035   -0.2565 H   0  0  0  0  0  0  0  0  0  0  0  0
    1.5200   15.4105    0.2586 H   0  0  0  0  0  0  0  0  0  0  0  0
    3.3919   15.4840   -1.0189 H   0  0  0  0  0  0  0  0  0  0  0  0
    3.4410   14.5737   -2.5667 H   0  0  0  0  0  0  0  0  0  0  0  0
    3.0388   16.3244   -2.5667 H   0  0  0  0  0  0  0  0  0  0  0  0
  1  2  1  0
  2  3  1  0
  3  4  1  0
  4  5  1  0
  5  6  1  0
  6  7  1  0
  7  8  1  0
  7  9  1  0
  2 10  1  0
 10 11  1  0
 11 12  1  0
 12 13  1  0
 13 14  1  1
 13 15  1  0
 15 16  1  0
 16 17  1  0
 17 18  2  0
 18 19  1  0
 19 20  1  0
 20 21  1  0
 21 22  1  0
 22 23  1  0
 22 24  1  0
 24 25  1  0
 24 26  1  0
 19 27  1  0
 27 28  1  6
 27 29  1  0
 29 30  1  0
 30 31  1  0
 31 32  1  1
  7  5  1  0
 31 10  1  0
 31 13  1  0
 27 15  1  0
 24 18  1  0
  1 33  1  0
  1 34  1  0
  1 35  1  0
  2 36  1  6
  3 37  1  0
  3 38  1  0
  4 39  1  0
  4 40  1  0
  5 41  1  1
  8 42  1  0
  8 43  1  0
  8 44  1  0
  9 45  1  0
  9 46  1  0
  9 47  1  0
 10 48  1  1
 11 49  1  0
 11 50  1  0
 12 51  1  0
 12 52  1  0
 14 53  1  0
 14 54  1  0
 14 55  1  0
 15 56  1  6
 16 57  1  0
 16 58  1  0
 17 59  1  0
 19 60  1  1
 20 61  1  0
 20 62  1  0
 21 63  1  0
 21 64  1  0
 22 65  1  1
 23 66  1  0
 25 67  1  0
 25 68  1  0
 25 69  1  0
 26 70  1  0
 26 71  1  0
 26 72  1  0
 28 73  1  0
 28 74  1  0
 28 75  1  0
 29 76  1  0
 29 77  1  0
 30 78  1  0
 30 79  1  0
 32 80  1  0
 32 81  1  0
 32 82  1  0
M  END
>  <meeko>  (4) 
{"is_sidechain": [false], "intermolecular_energy": 2.731, "internal_energy": -0.839}

$$$$
EPH_relaxed_0001_pdb2pqr_Repair_391_r2_0001_out
     RDKit          3D

 82 86  0  0  0  0  0  0  0  0999 V2000
    3.8240   17.5520    0.5980 C   0  0  0  0  0  0  0  0  0  0  0  0
    2.7510   17.9720   -0.4110 C   0  0  2  0  0  0  0  0  0  0  0  0
    2.0860   19.3090   -0.0280 C   0  0  0  0  0  0  0  0  0  0  0  0
    0.8560   19.1490    0.8710 C   0  0  0  0  0  0  0  0  0  0  0  0
   -0.3160   19.9230    0.3490 C   0  0  2  0  0  0  0  0  0  0  0  0
   -1.3350   20.1940    1.3200 O   0  0  0  0  0  0  0  0  0  0  0  0
   -1.7130   19.3440    0.2260 C   0  0  0  0  0  0  0  0  0  0  0  0
   -2.0110   17.9330    0.6260 C   0  0  0  0  0  0  0  0  0  0  0  0
   -2.6710   19.9820   -0.7310 C   0  0  0  0  0  0  0  0  0  0  0  0
    1.6950   16.8800   -0.5300 C   0  0  1  0  0  0  0  0  0  0  0  0
    0.3950   17.3780   -1.2170 C   0  0  0  0  0  0  0  0  0  0  0  0
   -0.1550   16.1900   -2.0470 C   0  0  0  0  0  0  0  0  0  0  0  0
    0.6480   14.9640   -1.5550 C   0  0  1  0  0  0  0  0  0  0  0  0
   -0.0560   14.5280   -0.2320 C   0  0  0  0  0  0  0  0  0  0  0  0
    0.7760   13.7730   -2.5600 C   0  0  2  0  0  0  0  0  0  0  0  0
   -0.5530   13.1070   -2.9550 C   0  0  0  0  0  0  0  0  0  0  0  0
   -0.9750   11.9650   -2.0910 C   0  0  0  0  0  0  0  0  0  0  0  0
   -0.1860   11.3100   -1.2190 C   0  0  0  0  0  0  0  0  0  0  0  0
    1.3080   11.6410   -1.1070 C   0  0  1  0  0  0  0  0  0  0  0  0
    2.1300   10.3250   -1.0930 C   0  0  0  0  0  0  0  0  0  0  0  0
    1.6640    9.3560   -0.0120 C   0  0  0  0  0  0  0  0  0  0  0  0
    0.1890    9.0060   -0.1910 C   0  0  2  0  0  0  0  0  0  0  0  0
    0.0370    8.2560   -1.4010 O   0  0  0  0  0  0  0  0  0  0  0  0
   -0.7370   10.2530   -0.2300 C   0  0  0  0  0  0  0  0  0  0  0  0
   -0.8050   10.8950    1.1780 C   0  0  0  0  0  0  0  0  0  0  0  0
   -2.1760    9.7710   -0.5570 C   0  0  0  0  0  0  0  0  0  0  0  0
    1.8640   12.6980   -2.1550 C   0  0  1  0  0  0  0  0  0  0  0  0
    2.2840   11.9720   -3.4700 C   0  0  0  0  0  0  0  0  0  0  0  0
    3.1710   13.3570   -1.5760 C   0  0  0  0  0  0  0  0  0  0  0  0
    2.9860   14.6020   -0.6870 C   0  0  0  0  0  0  0  0  0  0  0  0
    2.0620   15.6230   -1.3590 C   0  0  2  0  0  0  0  0  0  0  0  0
    2.7540   16.0960   -2.6820 C   0  0  0  0  0  0  0  0  0  0  0  0
    3.4447   17.7005    1.6198 H   0  0  0  0  0  0  0  0  0  0  0  0
    4.0716   16.4906    0.4494 H   0  0  0  0  0  0  0  0  0  0  0  0
    4.7264   18.1633    0.4494 H   0  0  0  0  0  0  0  0  0  0  0  0
    3.2473   18.1167   -1.3819 H   0  0  0  0  0  0  0  0  0  0  0  0
    2.8263   19.9257    0.5027 H   0  0  0  0  0  0  0  0  0  0  0  0
    1.7428   19.7770   -0.9625 H   0  0  0  0  0  0  0  0  0  0  0  0
    0.5864   18.0837    0.9201 H   0  0  0  0  0  0  0  0  0  0  0  0
    1.1073   19.5382    1.8687 H   0  0  0  0  0  0  0  0  0  0  0  0
    0.3262   20.4591   -0.3652 H   0  0  0  0  0  0  0  0  0  0  0  0
   -2.0267   17.8585    1.7234 H   0  0  0  0  0  0  0  0  0  0  0  0
   -2.9914   17.6373    0.2243 H   0  0  0  0  0  0  0  0  0  0  0  0
   -1.2339   17.2661    0.2243 H   0  0  0  0  0  0  0  0  0  0  0  0
   -3.4575   20.5058   -0.1680 H   0  0  0  0  0  0  0  0  0  0  0  0
   -2.1319   20.7021   -1.3641 H   0  0  0  0  0  0  0  0  0  0  0  0
   -3.1276   19.2070   -1.3641 H   0  0  0  0  0  0  0  0  0  0  0  0
    1.5859   16.6128    0.5315 H   0  0  0  0  0  0  0  0  0  0  0  0
   -0.3411   17.6834   -0.4588 H   0  0  0  0  0  0  0  0  0  0  0  0
    0.5957   18.2488   -1.8585 H   0  0  0  0  0  0  0  0  0  0  0  0
   -1.2299   16.0505   -1.8598 H   0  0  0  0  0  0  0  0  0  0  0  0
   -0.0461   16.3523   -3.1295 H   0  0  0  0  0  0  0  0  0  0  0  0
    0.5260   14.8884    0.6290 H   0  0  0  0  0  0  0  0  0  0  0  0
   -1.0680   14.9577   -0.1963 H   0  0  0  0  0  0  0  0  0  0  0  0
   -0.1222   13.4306   -0.1963 H   0  0  0  0  0  0  0  0  0  0  0  0
    1.1422   14.2703   -3.4702 H   0  0  0  0  0  0  0  0  0  0  0  0
   -1.3418   13.8726   -2.9157 H   0  0  0  0  0  0  0  0  0  0  0  0
   -0.3965   12.6872   -3.9596 H   0  0  0  0  0  0  0  0  0  0  0  0
   -2.0196   11.6303   -2.1740 H   0  0  0  0  0  0  0  0  0  0  0  0
    1.4324   12.1684   -0.1497 H   0  0  0  0  0  0  0  0  0  0  0  0
    2.0286    9.8355   -2.0728 H   0  0  0  0  0  0  0  0  0  0  0  0
    3.1764   10.5872   -0.8778 H   0  0  0  0  0  0  0  0  0  0  0  0
    2.2623    8.4349   -0.0722 H   0  0  0  0  0  0  0  0  0  0  0  0
    1.7940    9.8361    0.9691 H   0  0  0  0  0  0  0  0  0  0  0  0
   -0.1181    8.4153    0.6846 H   0  0  0  0  0  0  0  0  0  0  0  0
   -0.0450    7.3190   -1.1580 H   0  0  0  0  0  0  0  0  0  0  0  0
   -0.7218   10.1095    1.9435 H   0  0  0  0  0  0  0  0  0  0  0  0
    0.0224   11.6103    1.2952 H   0  0  0  0  0  0  0  0  0  0  0  0
   -1.7639   11.4211    1.2952 H   0  0  0  0  0  0  0  0  0  0  0  0
   -2.7230    9.5878    0.3796 H   0  0  0  0  0  0  0  0  0  0  0  0
   -2.6976   10.5435   -1.1411 H   0  0  0  0  0  0  0  0  0  0  0  0
   -2.1271    8.8402   -1.1411 H   0  0  0  0  0  0  0  0  0  0  0  0
    2.8206   11.0445   -3.2214 H   0  0  0  0  0  0  0  0  0  0  0  0
    1.3864   11.7300   -4.0580 H   0  0  0  0  0  0  0  0  0  0  0  0
    2.9412   12.6295   -4.0580 H   0  0  0  0  0  0  0  0  0  0  0  0
    3.6909   12.5947   -0.9771 H   0  0  0  0  0  0  0  0  0  0  0  0
    3.7286   13.7115   -2.4554 H   0  0  0  0  0  0  0  0  0  0  0  0
    2.5461   14.2961    0.2737 H   0  0  0  0  0  0  0  0  0  0  0  0
    3.9691   15.0693   -0.5287 H   0  0  0  0  0  0  0  0  0  0  0  0
    3.6393   16.7011   -2.4367 H   0  0  0  0  0  0  0  0  0  0  0  0
    3.0612   15.2181   -3.2693 H   0  0  0  0  0  0  0  0  0  0  0  0
    2.0476   16.7010   -3.2693 H   0  0  0  0  0  0  0  0  0  0  0  0
  1  2  1  0
  2  3  1  0
  3  4  1  0
  4  5  1  0
  5  6  1  0
  6  7  1  0
  7  8  1  0
  7  9  1  0
  2 10  1  0
 10 11  1  0
 11 12  1  0
 12 13  1  0
 13 14  1  1
 13 15  1  0
 15 16  1  0
 16 17  1  0
 17 18  2  0
 18 19  1  0
 19 20  1  0
 20 21  1  0
 21 22  1  0
 22 23  1  0
 22 24  1  0
 24 25  1  0
 24 26  1  0
 19 27  1  0
 27 28  1  6
 27 29  1  0
 29 30  1  0
 30 31  1  0
 31 32  1  6
  7  5  1  0
 31 10  1  0
 31 13  1  0
 27 15  1  0
 24 18  1  0
  1 33  1  0
  1 34  1  0
  1 35  1  0
  2 36  1  6
  3 37  1  0
  3 38  1  0
  4 39  1  0
  4 40  1  0
  5 41  1  6
  8 42  1  0
  8 43  1  0
  8 44  1  0
  9 45  1  0
  9 46  1  0
  9 47  1  0
 10 48  1  1
 11 49  1  0
 11 50  1  0
 12 51  1  0
 12 52  1  0
 14 53  1  0
 14 54  1  0
 14 55  1  0
 15 56  1  6
 16 57  1  0
 16 58  1  0
 17 59  1  0
 19 60  1  1
 20 61  1  0
 20 62  1  0
 21 63  1  0
 21 64  1  0
 22 65  1  1
 23 66  1  0
 25 67  1  0
 25 68  1  0
 25 69  1  0
 26 70  1  0
 26 71  1  0
 26 72  1  0
 28 73  1  0
 28 74  1  0
 28 75  1  0
 29 76  1  0
 29 77  1  0
 30 78  1  0
 30 79  1  0
 32 80  1  0
 32 81  1  0
 32 82  1  0
M  END
>  <meeko>  (5) 
{"is_sidechain": [false], "intermolecular_energy": 2.731, "internal_energy": -0.839}

$$$$
EPH_relaxed_0001_pdb2pqr_Repair_391_r2_0001_out
     RDKit          3D

 82 86  0  0  0  0  0  0  0  0999 V2000
   -5.0440    6.0770   -1.9390 C   0  0  0  0  0  0  0  0  0  0  0  0
   -5.4460    7.5540   -1.8890 C   0  0  2  0  0  0  0  0  0  0  0  0
   -5.2620    8.1580   -0.4820 C   0  0  0  0  0  0  0  0  0  0  0  0
   -4.1780    9.2370   -0.4140 C   0  0  0  0  0  0  0  0  0  0  0  0
   -2.8220    8.6820   -0.7300 C   0  0  2  0  0  0  0  0  0  0  0  0
   -1.8000    9.0230    0.2150 O   0  0  0  0  0  0  0  0  0  0  0  0
   -1.6340    9.5440   -1.1130 C   0  0  0  0  0  0  0  0  0  0  0  0
   -1.7470   11.0340   -1.2010 C   0  0  0  0  0  0  0  0  0  0  0  0
   -0.5080    8.9140   -1.8720 C   0  0  0  0  0  0  0  0  0  0  0  0
   -6.8940    7.7140   -2.3390 C   0  0  1  0  0  0  0  0  0  0  0  0
   -7.2030    6.9350   -3.6460 C   0  0  0  0  0  0  0  0  0  0  0  0
   -8.6620    6.4260   -3.5280 C   0  0  0  0  0  0  0  0  0  0  0  0
   -9.2490    7.1990   -2.3240 C   0  0  1  0  0  0  0  0  0  0  0  0
   -9.6500    8.5930   -2.8990 C   0  0  0  0  0  0  0  0  0  0  0  0
  -10.4440    6.5160   -1.5810 C   0  0  2  0  0  0  0  0  0  0  0  0
  -11.7080    6.3070   -2.4330 C   0  0  0  0  0  0  0  0  0  0  0  0
  -12.6930    7.4280   -2.3990 C   0  0  0  0  0  0  0  0  0  0  0  0
  -12.7090    8.4280   -1.4990 C   0  0  0  0  0  0  0  0  0  0  0  0
  -11.7240    8.4450   -0.3230 C   0  0  1  0  0  0  0  0  0  0  0  0
  -12.4860    8.7750    0.9870 C   0  0  0  0  0  0  0  0  0  0  0  0
  -13.2940   10.0650    0.8840 C   0  0  0  0  0  0  0  0  0  0  0  0
  -14.3020    9.9880   -0.2590 C   0  0  2  0  0  0  0  0  0  0  0  0
  -15.2870    9.0010    0.0610 O   0  0  0  0  0  0  0  0  0  0  0  0
  -13.6500    9.6510   -1.6290 C   0  0  0  0  0  0  0  0  0  0  0  0
  -12.8140   10.8580   -2.1190 C   0  0  0  0  0  0  0  0  0  0  0  0
  -14.7900    9.4630   -2.6670 C   0  0  0  0  0  0  0  0  0  0  0  0
  -10.7920    7.1650   -0.1810 C   0  0  1  0  0  0  0  0  0  0  0  0
  -11.5220    6.0650    0.6500 C   0  0  0  0  0  0  0  0  0  0  0  0
   -9.5030    7.5550    0.6350 C   0  0  0  0  0  0  0  0  0  0  0  0
   -8.3140    8.1120   -0.1700 C   0  0  0  0  0  0  0  0  0  0  0  0
   -7.9980    7.2170   -1.3730 C   0  0  2  0  0  0  0  0  0  0  0  0
   -7.5710    5.8130   -0.8240 C   0  0  0  0  0  0  0  0  0  0  0  0
   -4.9389    5.6907   -0.9144 H   0  0  0  0  0  0  0  0  0  0  0  0
   -5.8188    5.5039   -2.4692 H   0  0  0  0  0  0  0  0  0  0  0  0
   -4.0856    5.9756   -2.4692 H   0  0  0  0  0  0  0  0  0  0  0  0
   -4.7812    8.1016   -2.5733 H   0  0  0  0  0  0  0  0  0  0  0  0
   -6.2170    8.6045   -0.1678 H   0  0  0  0  0  0  0  0  0  0  0  0
   -4.9440    7.3397    0.1807 H   0  0  0  0  0  0  0  0  0  0  0  0
   -4.4170   10.0285   -1.1395 H   0  0  0  0  0  0  0  0  0  0  0  0
   -4.1548    9.6353    0.6111 H   0  0  0  0  0  0  0  0  0  0  0  0
   -3.2694    7.7923   -1.1972 H   0  0  0  0  0  0  0  0  0  0  0  0
   -1.7793   11.4598   -0.1873 H   0  0  0  0  0  0  0  0  0  0  0  0
   -0.8768   11.4365   -1.7402 H   0  0  0  0  0  0  0  0  0  0  0  0
   -2.6679   11.3007   -1.7402 H   0  0  0  0  0  0  0  0  0  0  0  0
    0.2267    8.5029   -1.1640 H   0  0  0  0  0  0  0  0  0  0  0  0
   -0.9002    8.1043   -2.5049 H   0  0  0  0  0  0  0  0  0  0  0  0
   -0.0231    9.6719   -2.5049 H   0  0  0  0  0  0  0  0  0  0  0  0
   -6.9387    8.8093   -2.4299 H   0  0  0  0  0  0  0  0  0  0  0  0
   -7.1030    7.6003   -4.5163 H   0  0  0  0  0  0  0  0  0  0  0  0
   -6.5023    6.0981   -3.7824 H   0  0  0  0  0  0  0  0  0  0  0  0
   -9.2265    6.6493   -4.4453 H   0  0  0  0  0  0  0  0  0  0  0  0
   -8.7135    5.3360   -3.3890 H   0  0  0  0  0  0  0  0  0  0  0  0
   -9.8499    9.2879   -2.0700 H   0  0  0  0  0  0  0  0  0  0  0  0
   -8.8283    8.9852   -3.5162 H   0  0  0  0  0  0  0  0  0  0  0  0
  -10.5545    8.4886   -3.5162 H   0  0  0  0  0  0  0  0  0  0  0  0
  -10.0510    5.5090   -1.3774 H   0  0  0  0  0  0  0  0  0  0  0  0
  -11.3938    6.1623   -3.4772 H   0  0  0  0  0  0  0  0  0  0  0  0
  -12.2239    5.4358   -2.0030 H   0  0  0  0  0  0  0  0  0  0  0  0
  -13.4719    7.4373   -3.1757 H   0  0  0  0  0  0  0  0  0  0  0  0
  -11.0003    9.2433   -0.5444 H   0  0  0  0  0  0  0  0  0  0  0  0
  -13.1724    7.9460    1.2142 H   0  0  0  0  0  0  0  0  0  0  0  0
  -11.7390    8.9113    1.7828 H   0  0  0  0  0  0  0  0  0  0  0  0
  -13.8331   10.2284    1.8288 H   0  0  0  0  0  0  0  0  0  0  0  0
  -12.6025   10.8973    0.6865 H   0  0  0  0  0  0  0  0  0  0  0  0
  -14.7574   10.9837   -0.3651 H   0  0  0  0  0  0  0  0  0  0  0  0
  -14.8980    8.4000    0.7190 H   0  0  0  0  0  0  0  0  0  0  0  0
  -12.4290   11.4138   -1.2513 H   0  0  0  0  0  0  0  0  0  0  0  0
  -11.9711   10.4976   -2.7270 H   0  0  0  0  0  0  0  0  0  0  0  0
  -13.4478   11.5204   -2.7270 H   0  0  0  0  0  0  0  0  0  0  0  0
  -15.7430    9.3058   -2.1406 H   0  0  0  0  0  0  0  0  0  0  0  0
  -14.8633   10.3612   -3.2978 H   0  0  0  0  0  0  0  0  0  0  0  0
  -14.5711    8.5888   -3.2978 H   0  0  0  0  0  0  0  0  0  0  0  0
  -11.3881    6.2668    1.7230 H   0  0  0  0  0  0  0  0  0  0  0  0
  -12.5947    6.0729    0.4065 H   0  0  0  0  0  0  0  0  0  0  0  0
  -11.0980    5.0797    0.4065 H   0  0  0  0  0  0  0  0  0  0  0  0
   -9.7936    8.3189    1.3712 H   0  0  0  0  0  0  0  0  0  0  0  0
   -9.1403    6.6114    1.0688 H   0  0  0  0  0  0  0  0  0  0  0  0
   -8.5636    9.1216   -0.5284 H   0  0  0  0  0  0  0  0  0  0  0  0
   -7.4310    8.1431    0.4852 H   0  0  0  0  0  0  0  0  0  0  0  0
   -7.5768    5.8321    0.2758 H   0  0  0  0  0  0  0  0  0  0  0  0
   -8.2775    5.0493   -1.1812 H   0  0  0  0  0  0  0  0  0  0  0  0
   -6.5589    5.5719   -1.1812 H   0  0  0  0  0  0  0  0  0  0  0  0
  1  2  1  0
  2  3  1  0
  3  4  1  0
  4  5  1  0
  5  6  1  0
  6  7  1  0
  7  8  1  0
  7  9  1  0
  2 10  1  0
 10 11  1  0
 11 12  1  0
 12 13  1  0
 13 14  1  6
 13 15  1  0
 15 16  1  0
 16 17  1  0
 17 18  2  0
 18 19  1  0
 19 20  1  0
 20 21  1  0
 21 22  1  0
 22 23  1  0
 22 24  1  0
 24 25  1  0
 24 26  1  0
 19 27  1  0
 27 28  1  1
 27 29  1  0
 29 30  1  0
 30 31  1  0
 31 32  1  1
  7  5  1  0
 31 10  1  0
 31 13  1  0
 27 15  1  0
 24 18  1  0
  1 33  1  0
  1 34  1  0
  1 35  1  0
  2 36  1  6
  3 37  1  0
  3 38  1  0
  4 39  1  0
  4 40  1  0
  5 41  1  6
  8 42  1  0
  8 43  1  0
  8 44  1  0
  9 45  1  0
  9 46  1  0
  9 47  1  0
 10 48  1  6
 11 49  1  0
 11 50  1  0
 12 51  1  0
 12 52  1  0
 14 53  1  0
 14 54  1  0
 14 55  1  0
 15 56  1  1
 16 57  1  0
 16 58  1  0
 17 59  1  0
 19 60  1  6
 20 61  1  0
 20 62  1  0
 21 63  1  0
 21 64  1  0
 22 65  1  6
 23 66  1  0
 25 67  1  0
 25 68  1  0
 25 69  1  0
 26 70  1  0
 26 71  1  0
 26 72  1  0
 28 73  1  0
 28 74  1  0
 28 75  1  0
 29 76  1  0
 29 77  1  0
 30 78  1  0
 30 79  1  0
 32 80  1  0
 32 81  1  0
 32 82  1  0
M  END
>  <meeko>  (6) 
{"is_sidechain": [false], "intermolecular_energy": 2.731, "internal_energy": -0.839}

$$$$
EPH_relaxed_0001_pdb2pqr_Repair_391_r2_0001_out
     RDKit          3D

 82 86  0  0  0  0  0  0  0  0999 V2000
   -4.9560    6.1710   -4.0440 C   0  0  0  0  0  0  0  0  0  0  0  0
   -5.5970    7.1820   -3.0890 C   0  0  2  0  0  0  0  0  0  0  0  0
   -4.7460    7.4060   -1.8230 C   0  0  0  0  0  0  0  0  0  0  0  0
   -3.3000    7.8160   -2.1190 C   0  0  0  0  0  0  0  0  0  0  0  0
   -2.6700    8.5090   -0.9490 C   0  0  2  0  0  0  0  0  0  0  0  0
   -2.7420    9.9400   -0.9910 O   0  0  0  0  0  0  0  0  0  0  0  0
   -1.4250    9.3700   -1.0580 C   0  0  0  0  0  0  0  0  0  0  0  0
   -0.7350    9.5820   -2.3690 C   0  0  0  0  0  0  0  0  0  0  0  0
   -0.6050    9.6010    0.1730 C   0  0  0  0  0  0  0  0  0  0  0  0
   -6.9950    6.7150   -2.7000 C   0  0  1  0  0  0  0  0  0  0  0  0
   -6.9870    5.3390   -1.9810 C   0  0  0  0  0  0  0  0  0  0  0  0
   -8.1220    5.3790   -0.9260 C   0  0  0  0  0  0  0  0  0  0  0  0
   -8.9510    6.6320   -1.2920 C   0  0  1  0  0  0  0  0  0  0  0  0
   -9.8810    6.1700   -2.4580 C   0  0  0  0  0  0  0  0  0  0  0  0
   -9.7660    7.2850   -0.1280 C   0  0  2  0  0  0  0  0  0  0  0  0
  -10.8540    6.3900    0.4900 C   0  0  0  0  0  0  0  0  0  0  0  0
  -12.2030    6.4990   -0.1400 C   0  0  0  0  0  0  0  0  0  0  0  0
  -12.6030    7.4820   -0.9680 C   0  0  0  0  0  0  0  0  0  0  0  0
  -11.6890    8.6770   -1.2700 C   0  0  1  0  0  0  0  0  0  0  0  0
  -12.5020    9.9930   -1.1540 C   0  0  0  0  0  0  0  0  0  0  0  0
  -13.7580    9.9840   -2.0200 C   0  0  0  0  0  0  0  0  0  0  0  0
  -14.6680    8.8160   -1.6500 C   0  0  2  0  0  0  0  0  0  0  0  0
  -15.1740    9.0270   -0.3290 O   0  0  0  0  0  0  0  0  0  0  0  0
  -13.9540    7.4370   -1.7220 C   0  0  0  0  0  0  0  0  0  0  0  0
  -13.6740    7.0720   -3.2010 C   0  0  0  0  0  0  0  0  0  0  0  0
  -14.9390    6.3610   -1.1890 C   0  0  0  0  0  0  0  0  0  0  0  0
  -10.3240    8.7290   -0.4590 C   0  0  1  0  0  0  0  0  0  0  0  0
  -10.5450    9.4450    0.9090 C   0  0  0  0  0  0  0  0  0  0  0  0
   -9.2850    9.6040   -1.2550 C   0  0  0  0  0  0  0  0  0  0  0  0
   -8.4260    8.8770   -2.3080 C   0  0  0  0  0  0  0  0  0  0  0  0
   -7.7970    7.6090   -1.7220 C   0  0  2  0  0  0  0  0  0  0  0  0
   -6.8390    8.0440   -0.5600 C   0  0  0  0  0  0  0  0  0  0  0  0
   -4.4562    5.3827   -3.4620 H   0  0  0  0  0  0  0  0  0  0  0  0
   -5.7342    5.7211   -4.6780 H   0  0  0  0  0  0  0  0  0  0  0  0
   -4.2171    6.6830   -4.6780 H   0  0  0  0  0  0  0  0  0  0  0  0
   -5.6596    8.1438   -3.6191 H   0  0  0  0  0  0  0  0  0  0  0  0
   -5.2165    8.1996   -1.2239 H   0  0  0  0  0  0  0  0  0  0  0  0
   -4.7053    6.4456   -1.2883 H   0  0  0  0  0  0  0  0  0  0  0  0
   -2.7155    6.9150   -2.3567 H   0  0  0  0  0  0  0  0  0  0  0  0
   -3.3087    8.5154   -2.9679 H   0  0  0  0  0  0  0  0  0  0  0  0
   -2.9344    7.6749   -0.2823 H   0  0  0  0  0  0  0  0  0  0  0  0
    0.3025    9.9008   -2.1900 H   0  0  0  0  0  0  0  0  0  0  0  0
   -0.7364    8.6420   -2.9403 H   0  0  0  0  0  0  0  0  0  0  0  0
   -1.2639   10.3591   -2.9403 H   0  0  0  0  0  0  0  0  0  0  0  0
   -1.2250    9.4263    1.0647 H   0  0  0  0  0  0  0  0  0  0  0  0
    0.2498    8.9087    0.1794 H   0  0  0  0  0  0  0  0  0  0  0  0
   -0.2373   10.6377    0.1794 H   0  0  0  0  0  0  0  0  0  0  0  0
   -7.4725    6.7182   -3.6910 H   0  0  0  0  0  0  0  0  0  0  0  0
   -7.1715    4.5320   -2.7054 H   0  0  0  0  0  0  0  0  0  0  0  0
   -6.0134    5.1470   -1.5065 H   0  0  0  0  0  0  0  0  0  0  0  0
   -8.7414    4.4720   -0.9875 H   0  0  0  0  0  0  0  0  0  0  0  0
   -7.7341    5.4213    0.1025 H   0  0  0  0  0  0  0  0  0  0  0  0
  -10.7930    5.7169   -2.0421 H   0  0  0  0  0  0  0  0  0  0  0  0
  -10.1522    7.0381   -3.0767 H   0  0  0  0  0  0  0  0  0  0  0  0
   -9.3530    5.4294   -3.0767 H   0  0  0  0  0  0  0  0  0  0  0  0
   -9.0025    7.4086    0.6542 H   0  0  0  0  0  0  0  0  0  0  0  0
  -10.5227    5.3445    0.4052 H   0  0  0  0  0  0  0  0  0  0  0  0
  -10.9748    6.7310    1.5288 H   0  0  0  0  0  0  0  0  0  0  0  0
  -12.9322    5.7088    0.0922 H   0  0  0  0  0  0  0  0  0  0  0  0
  -11.3440    8.5415   -2.3057 H   0  0  0  0  0  0  0  0  0  0  0  0
  -12.7988   10.1325   -0.1040 H   0  0  0  0  0  0  0  0  0  0  0  0
  -11.8599   10.8138   -1.5062 H   0  0  0  0  0  0  0  0  0  0  0  0
  -14.3044   10.9270   -1.8713 H   0  0  0  0  0  0  0  0  0  0  0  0
  -13.4576    9.8750   -3.0726 H   0  0  0  0  0  0  0  0  0  0  0  0
  -15.4834    8.7861   -2.3877 H   0  0  0  0  0  0  0  0  0  0  0  0
  -15.8400    9.7340   -0.3780 H   0  0  0  0  0  0  0  0  0  0  0  0
  -13.0050    6.1999   -3.2431 H   0  0  0  0  0  0  0  0  0  0  0  0
  -14.6217    6.8318   -3.7051 H   0  0  0  0  0  0  0  0  0  0  0  0
  -13.1965    7.9251   -3.7051 H   0  0  0  0  0  0  0  0  0  0  0  0
  -14.9312    6.3695   -0.0891 H   0  0  0  0  0  0  0  0  0  0  0  0
  -15.9542    6.5822   -1.5502 H   0  0  0  0  0  0  0  0  0  0  0  0
  -14.6292    5.3693   -1.5502 H   0  0  0  0  0  0  0  0  0  0  0  0
  -10.3287    8.7442    1.7288 H   0  0  0  0  0  0  0  0  0  0  0  0
   -9.8729   10.3128    0.9815 H   0  0  0  0  0  0  0  0  0  0  0  0
  -11.5893    9.7830    0.9815 H   0  0  0  0  0  0  0  0  0  0  0  0
   -9.8450   10.3970   -1.7723 H   0  0  0  0  0  0  0  0  0  0  0  0
   -8.5710    9.9619   -0.4986 H   0  0  0  0  0  0  0  0  0  0  0  0
   -9.0613    8.6016   -3.1627 H   0  0  0  0  0  0  0  0  0  0  0  0
   -7.6194    9.5523   -2.6295 H   0  0  0  0  0  0  0  0  0  0  0  0
   -7.3149    7.8279    0.4079 H   0  0  0  0  0  0  0  0  0  0  0  0
   -5.8936    7.4869   -0.6362 H   0  0  0  0  0  0  0  0  0  0  0  0
   -6.6362    9.1225   -0.6362 H   0  0  0  0  0  0  0  0  0  0  0  0
  1  2  1  0
  2  3  1  0
  3  4  1  0
  4  5  1  0
  5  6  1  0
  6  7  1  0
  7  8  1  0
  7  9  1  0
  2 10  1  0
 10 11  1  0
 11 12  1  0
 12 13  1  0
 13 14  1  6
 13 15  1  0
 15 16  1  0
 16 17  1  0
 17 18  2  0
 18 19  1  0
 19 20  1  0
 20 21  1  0
 21 22  1  0
 22 23  1  0
 22 24  1  0
 24 25  1  0
 24 26  1  0
 19 27  1  0
 27 28  1  1
 27 29  1  0
 29 30  1  0
 30 31  1  0
 31 32  1  1
  7  5  1  0
 31 10  1  0
 31 13  1  0
 27 15  1  0
 24 18  1  0
  1 33  1  0
  1 34  1  0
  1 35  1  0
  2 36  1  6
  3 37  1  0
  3 38  1  0
  4 39  1  0
  4 40  1  0
  5 41  1  1
  8 42  1  0
  8 43  1  0
  8 44  1  0
  9 45  1  0
  9 46  1  0
  9 47  1  0
 10 48  1  6
 11 49  1  0
 11 50  1  0
 12 51  1  0
 12 52  1  0
 14 53  1  0
 14 54  1  0
 14 55  1  0
 15 56  1  1
 16 57  1  0
 16 58  1  0
 17 59  1  0
 19 60  1  6
 20 61  1  0
 20 62  1  0
 21 63  1  0
 21 64  1  0
 22 65  1  6
 23 66  1  0
 25 67  1  0
 25 68  1  0
 25 69  1  0
 26 70  1  0
 26 71  1  0
 26 72  1  0
 28 73  1  0
 28 74  1  0
 28 75  1  0
 29 76  1  0
 29 77  1  0
 30 78  1  0
 30 79  1  0
 32 80  1  0
 32 81  1  0
 32 82  1  0
M  END
>  <meeko>  (7) 
{"is_sidechain": [false], "intermolecular_energy": 2.731, "internal_energy": -0.839}

$$$$
EPH_relaxed_0001_pdb2pqr_Repair_391_r2_0001_out
     RDKit          3D

 82 86  0  0  0  0  0  0  0  0999 V2000
    0.4660    8.7990   -2.3790 C   0  0  0  0  0  0  0  0  0  0  0  0
    1.2000    9.9450   -3.0810 C   0  0  2  0  0  0  0  0  0  0  0  0
    2.7010    9.9730   -2.7320 C   0  0  0  0  0  0  0  0  0  0  0  0
    3.5730   10.6120   -3.8160 C   0  0  0  0  0  0  0  0  0  0  0  0
    4.9720   10.8500   -3.3330 C   0  0  2  0  0  0  0  0  0  0  0  0
    5.5770   12.0550   -3.8210 O   0  0  0  0  0  0  0  0  0  0  0  0
    6.1870   10.8250   -4.2420 C   0  0  0  0  0  0  0  0  0  0  0  0
    6.0590   10.5530   -5.7090 C   0  0  0  0  0  0  0  0  0  0  0  0
    7.5320   10.5790   -3.6330 C   0  0  0  0  0  0  0  0  0  0  0  0
    0.5550   11.2770   -2.7150 C   0  0  1  0  0  0  0  0  0  0  0  0
   -0.8210   11.1030   -2.0200 C   0  0  0  0  0  0  0  0  0  0  0  0
   -0.9420   12.2430   -0.9760 C   0  0  0  0  0  0  0  0  0  0  0  0
    0.2040   13.2200   -1.3310 C   0  0  1  0  0  0  0  0  0  0  0  0
   -0.3490   14.0740   -2.5140 C   0  0  0  0  0  0  0  0  0  0  0  0
    0.7300   14.1200   -0.1660 C   0  0  2  0  0  0  0  0  0  0  0  0
   -0.3040   15.0930    0.4260 C   0  0  0  0  0  0  0  0  0  0  0  0
   -0.3530   16.4390   -0.2170 C   0  0  0  0  0  0  0  0  0  0  0  0
    0.5870   16.9510   -1.0330 C   0  0  0  0  0  0  0  0  0  0  0  0
    1.8910   16.1920   -1.3060 C   0  0  1  0  0  0  0  0  0  0  0  0
    3.0930   17.1640   -1.1770 C   0  0  0  0  0  0  0  0  0  0  0  0
    2.9430   18.4000   -2.0570 C   0  0  0  0  0  0  0  0  0  0  0  0
    1.6640   19.1610   -1.7160 C   0  0  2  0  0  0  0  0  0  0  0  0
    1.7870   19.7010   -0.3970 O   0  0  0  0  0  0  0  0  0  0  0  0
    0.3860   18.2800   -1.8030 C   0  0  0  0  0  0  0  0  0  0  0  0
    0.0860   17.9430   -3.2840 C   0  0  0  0  0  0  0  0  0  0  0  0
   -0.8130   19.1280   -1.2990 C   0  0  0  0  0  0  0  0  0  0  0  0
    2.0990   14.8510   -0.4790 C   0  0  1  0  0  0  0  0  0  0  0  0
    2.7570   15.1710    0.8980 C   0  0  0  0  0  0  0  0  0  0  0  0
    3.1100   13.9220   -1.2490 C   0  0  0  0  0  0  0  0  0  0  0  0
    2.5150   12.9700   -2.3040 C   0  0  0  0  0  0  0  0  0  0  0  0
    1.3250   12.1930   -1.7320 C   0  0  2  0  0  0  0  0  0  0  0  0
    1.8550   11.3070   -0.5530 C   0  0  0  0  0  0  0  0  0  0  0  0
    0.5467    8.9250   -1.2892 H   0  0  0  0  0  0  0  0  0  0  0  0
   -0.5943    8.8088   -2.6718 H   0  0  0  0  0  0  0  0  0  0  0  0
    0.9183    7.8400   -2.6718 H   0  0  0  0  0  0  0  0  0  0  0  0
    1.1163    9.7769   -4.1648 H   0  0  0  0  0  0  0  0  0  0  0  0
    2.8304   10.5440   -1.8008 H   0  0  0  0  0  0  0  0  0  0  0  0
    3.0273    8.9273   -2.6319 H   0  0  0  0  0  0  0  0  0  0  0  0
    3.6060    9.9421   -4.6879 H   0  0  0  0  0  0  0  0  0  0  0  0
    3.1320   11.5839   -4.0822 H   0  0  0  0  0  0  0  0  0  0  0  0
    4.7533   10.3472   -2.3794 H   0  0  0  0  0  0  0  0  0  0  0  0
    5.5951    9.5671   -5.8600 H   0  0  0  0  0  0  0  0  0  0  0  0
    5.4313   11.3285   -6.1723 H   0  0  0  0  0  0  0  0  0  0  0  0
    7.0566   10.5636   -6.1723 H   0  0  0  0  0  0  0  0  0  0  0  0
    7.4464   10.5947   -2.5364 H   0  0  0  0  0  0  0  0  0  0  0  0
    7.9074    9.5973   -3.9575 H   0  0  0  0  0  0  0  0  0  0  0  0
    8.2306   11.3643   -3.9575 H   0  0  0  0  0  0  0  0  0  0  0  0
    0.5156   11.7430   -3.7107 H   0  0  0  0  0  0  0  0  0  0  0  0
   -1.6314   11.1793   -2.7599 H   0  0  0  0  0  0  0  0  0  0  0  0
   -0.8986   10.1169   -1.5389 H   0  0  0  0  0  0  0  0  0  0  0  0
   -1.9183   12.7431   -1.0584 H   0  0  0  0  0  0  0  0  0  0  0  0
   -0.8693   11.8722    0.0571 H   0  0  0  0  0  0  0  0  0  0  0  0
   -0.9063   14.9347   -2.1158 H   0  0  0  0  0  0  0  0  0  0  0  0
    0.4886   14.4329   -3.1301 H   0  0  0  0  0  0  0  0  0  0  0  0
   -1.0192   13.4565   -3.1301 H   0  0  0  0  0  0  0  0  0  0  0  0
    0.9342   13.3843    0.6258 H   0  0  0  0  0  0  0  0  0  0  0  0
   -1.2985   14.6331    0.3284 H   0  0  0  0  0  0  0  0  0  0  0  0
    0.0012   15.2645    1.4688 H   0  0  0  0  0  0  0  0  0  0  0  0
   -1.2320   17.0658   -0.0061 H   0  0  0  0  0  0  0  0  0  0  0  0
    1.8178   15.8244   -2.3402 H   0  0  0  0  0  0  0  0  0  0  0  0
    3.1752   17.4857   -0.1283 H   0  0  0  0  0  0  0  0  0  0  0  0
    3.9939   16.6263   -1.5076 H   0  0  0  0  0  0  0  0  0  0  0  0
    3.8080   19.0611   -1.8996 H   0  0  0  0  0  0  0  0  0  0  0  0
    2.8906   18.0785   -3.1077 H   0  0  0  0  0  0  0  0  0  0  0  0
    1.5459   19.9600   -2.4628 H   0  0  0  0  0  0  0  0  0  0  0  0
    2.7300   19.6830   -0.1580 H   0  0  0  0  0  0  0  0  0  0  0  0
   -0.6447   17.1222   -3.3325 H   0  0  0  0  0  0  0  0  0  0  0  0
   -0.3261   18.8309   -3.7859 H   0  0  0  0  0  0  0  0  0  0  0  0
    1.0156   17.6365   -3.7859 H   0  0  0  0  0  0  0  0  0  0  0  0
   -0.8213   19.1339   -0.1990 H   0  0  0  0  0  0  0  0  0  0  0  0
   -0.7150   20.1587   -1.6704 H   0  0  0  0  0  0  0  0  0  0  0  0
   -1.7522   18.6922   -1.6704 H   0  0  0  0  0  0  0  0  0  0  0  0
    2.0881   14.8457    1.7084 H   0  0  0  0  0  0  0  0  0  0  0  0
    3.7163   14.6388    0.9785 H   0  0  0  0  0  0  0  0  0  0  0  0
    2.9307   16.2542    0.9785 H   0  0  0  0  0  0  0  0  0  0  0  0
    3.8362   14.5718   -1.7593 H   0  0  0  0  0  0  0  0  0  0  0  0
    3.5400   13.2647   -0.4789 H   0  0  0  0  0  0  0  0  0  0  0  0
    2.1779   13.5582   -3.1702 H   0  0  0  0  0  0  0  0  0  0  0  0
    3.2912   12.2512   -2.6054 H   0  0  0  0  0  0  0  0  0  0  0  0
    1.5785   11.7693    0.4061 H   0  0  0  0  0  0  0  0  0  0  0  0
    1.4085   10.3038   -0.6188 H   0  0  0  0  0  0  0  0  0  0  0  0
    2.9500   11.2260   -0.6188 H   0  0  0  0  0  0  0  0  0  0  0  0
  1  2  1  0
  2  3  1  0
  3  4  1  0
  4  5  1  0
  5  6  1  0
  6  7  1  0
  7  8  1  0
  7  9  1  0
  2 10  1  0
 10 11  1  0
 11 12  1  0
 12 13  1  0
 13 14  1  6
 13 15  1  0
 15 16  1  0
 16 17  1  0
 17 18  2  0
 18 19  1  0
 19 20  1  0
 20 21  1  0
 21 22  1  0
 22 23  1  0
 22 24  1  0
 24 25  1  0
 24 26  1  0
 19 27  1  0
 27 28  1  1
 27 29  1  0
 29 30  1  0
 30 31  1  0
 31 32  1  1
  7  5  1  0
 31 10  1  0
 31 13  1  0
 27 15  1  0
 24 18  1  0
  1 33  1  0
  1 34  1  0
  1 35  1  0
  2 36  1  6
  3 37  1  0
  3 38  1  0
  4 39  1  0
  4 40  1  0
  5 41  1  1
  8 42  1  0
  8 43  1  0
  8 44  1  0
  9 45  1  0
  9 46  1  0
  9 47  1  0
 10 48  1  6
 11 49  1  0
 11 50  1  0
 12 51  1  0
 12 52  1  0
 14 53  1  0
 14 54  1  0
 14 55  1  0
 15 56  1  1
 16 57  1  0
 16 58  1  0
 17 59  1  0
 19 60  1  6
 20 61  1  0
 20 62  1  0
 21 63  1  0
 21 64  1  0
 22 65  1  6
 23 66  1  0
 25 67  1  0
 25 68  1  0
 25 69  1  0
 26 70  1  0
 26 71  1  0
 26 72  1  0
 28 73  1  0
 28 74  1  0
 28 75  1  0
 29 76  1  0
 29 77  1  0
 30 78  1  0
 30 79  1  0
 32 80  1  0
 32 81  1  0
 32 82  1  0
M  END
>  <meeko>  (8) 
{"is_sidechain": [false], "intermolecular_energy": 2.731, "internal_energy": -0.839}

$$$$
EPH_relaxed_0001_pdb2pqr_Repair_391_r2_0001_out
     RDKit          3D

 82 86  0  0  0  0  0  0  0  0999 V2000
    0.2390   17.8730   -2.4130 C   0  0  0  0  0  0  0  0  0  0  0  0
   -0.0250   16.9560   -1.2150 C   0  0  2  0  0  0  0  0  0  0  0  0
   -0.0680   17.7360    0.1150 C   0  0  0  0  0  0  0  0  0  0  0  0
    0.5490   19.1350    0.0280 C   0  0  0  0  0  0  0  0  0  0  0  0
    1.7210   19.2820    0.9500 C   0  0  2  0  0  0  0  0  0  0  0  0
    2.7300   20.1940    0.4950 O   0  0  0  0  0  0  0  0  0  0  0  0
    3.1230   18.8160    0.6020 C   0  0  0  0  0  0  0  0  0  0  0  0
    3.4250   18.1660   -0.7120 C   0  0  0  0  0  0  0  0  0  0  0  0
    4.0850   18.5480    1.7170 C   0  0  0  0  0  0  0  0  0  0  0  0
    1.0410   15.8690   -1.1470 C   0  0  1  0  0  0  0  0  0  0  0  0
    1.2440   15.3200    0.2900 C   0  0  0  0  0  0  0  0  0  0  0  0
    1.5690   13.8110    0.1500 C   0  0  0  0  0  0  0  0  0  0  0  0
    1.8690   13.6140   -1.3550 C   0  0  1  0  0  0  0  0  0  0  0  0
    3.3480   14.0780   -1.5330 C   0  0  0  0  0  0  0  0  0  0  0  0
    1.6430   12.1740   -1.9220 C   0  0  2  0  0  0  0  0  0  0  0  0
    2.5350   11.0830   -1.3050 C   0  0  0  0  0  0  0  0  0  0  0  0
    3.8330   10.8500   -2.0040 C   0  0  0  0  0  0  0  0  0  0  0  0
    4.1450   11.2850   -3.2390 C   0  0  0  0  0  0  0  0  0  0  0  0
    3.1070   12.0080   -4.1060 C   0  0  1  0  0  0  0  0  0  0  0  0
    3.1270   11.4180   -5.5400 C   0  0  0  0  0  0  0  0  0  0  0  0
    4.5210   11.4380   -6.1610 C   0  0  0  0  0  0  0  0  0  0  0  0
    5.5130   10.6600   -5.3000 C   0  0  2  0  0  0  0  0  0  0  0  0
    5.1550    9.2740   -5.3240 O   0  0  0  0  0  0  0  0  0  0  0  0
    5.5720   11.1590   -3.8300 C   0  0  0  0  0  0  0  0  0  0  0  0
    6.2430   12.5540   -3.7800 C   0  0  0  0  0  0  0  0  0  0  0  0
    6.5020   10.2010   -3.0370 C   0  0  0  0  0  0  0  0  0  0  0  0
    1.6390   12.0940   -3.5020 C   0  0  1  0  0  0  0  0  0  0  0  0
    0.8330   10.8140   -3.8810 C   0  0  0  0  0  0  0  0  0  0  0  0
    0.8820   13.3070   -4.1610 C   0  0  0  0  0  0  0  0  0  0  0  0
    1.0490   14.6810   -3.4850 C   0  0  0  0  0  0  0  0  0  0  0  0
    0.7990   14.5830   -1.9770 C   0  0  2  0  0  0  0  0  0  0  0  0
   -0.6890   14.1400   -1.7660 C   0  0  0  0  0  0  0  0  0  0  0  0
    0.5266   18.8721   -2.0537 H   0  0  0  0  0  0  0  0  0  0  0  0
    1.0531   17.4543   -3.0229 H   0  0  0  0  0  0  0  0  0  0  0  0
   -0.6731   17.9512   -3.0229 H   0  0  0  0  0  0  0  0  0  0  0  0
   -1.0142   16.4975   -1.3611 H   0  0  0  0  0  0  0  0  0  0  0  0
   -1.1188   17.8384    0.4238 H   0  0  0  0  0  0  0  0  0  0  0  0
    0.5292   17.1657    0.8418 H   0  0  0  0  0  0  0  0  0  0  0  0
    0.8832   19.3137   -1.0047 H   0  0  0  0  0  0  0  0  0  0  0  0
   -0.2163   19.8665    0.3268 H   0  0  0  0  0  0  0  0  0  0  0  0
    1.0822   19.1075    1.8283 H   0  0  0  0  0  0  0  0  0  0  0  0
    3.8826   17.1811   -0.5373 H   0  0  0  0  0  0  0  0  0  0  0  0
    2.4926   18.0412   -1.2822 H   0  0  0  0  0  0  0  0  0  0  0  0
    4.1217   18.7981   -1.2822 H   0  0  0  0  0  0  0  0  0  0  0  0
    3.5765   18.6897    2.6820 H   0  0  0  0  0  0  0  0  0  0  0  0
    4.4517   17.5135    1.6442 H   0  0  0  0  0  0  0  0  0  0  0  0
    4.9338   19.2439    1.6442 H   0  0  0  0  0  0  0  0  0  0  0  0
    1.8976   16.4250   -1.5558 H   0  0  0  0  0  0  0  0  0  0  0  0
    2.0777   15.8431    0.7812 H   0  0  0  0  0  0  0  0  0  0  0  0
    0.3439   15.4751    0.9030 H   0  0  0  0  0  0  0  0  0  0  0  0
    2.4456   13.5445    0.7588 H   0  0  0  0  0  0  0  0  0  0  0  0
    0.7434   13.1726    0.4977 H   0  0  0  0  0  0  0  0  0  0  0  0
    3.8085   14.2225   -0.5445 H   0  0  0  0  0  0  0  0  0  0  0  0
    3.9080   13.3124   -2.0900 H   0  0  0  0  0  0  0  0  0  0  0  0
    3.3703   15.0263   -2.0900 H   0  0  0  0  0  0  0  0  0  0  0  0
    0.6198   11.9458   -1.5887 H   0  0  0  0  0  0  0  0  0  0  0  0
    2.7551   11.3710   -0.2665 H   0  0  0  0  0  0  0  0  0  0  0  0
    1.9700   10.1432   -1.3912 H   0  0  0  0  0  0  0  0  0  0  0  0
    4.5993   10.2742   -1.4644 H   0  0  0  0  0  0  0  0  0  0  0  0
    3.4161   13.0633   -4.1332 H   0  0  0  0  0  0  0  0  0  0  0  0
    2.7745   10.3769   -5.4980 H   0  0  0  0  0  0  0  0  0  0  0  0
    2.4729   12.0416   -6.1671 H   0  0  0  0  0  0  0  0  0  0  0  0
    4.4764   10.9812   -7.1607 H   0  0  0  0  0  0  0  0  0  0  0  0
    4.8596   12.4823   -6.2301 H   0  0  0  0  0  0  0  0  0  0  0  0
    6.5150   10.8196   -5.7249 H   0  0  0  0  0  0  0  0  0  0  0  0
    5.2080    8.9410   -4.4130 H   0  0  0  0  0  0  0  0  0  0  0  0
    6.3873   12.8541   -2.7316 H   0  0  0  0  0  0  0  0  0  0  0  0
    7.2185   12.5100   -4.2864 H   0  0  0  0  0  0  0  0  0  0  0  0
    5.5997   13.2887   -4.2864 H   0  0  0  0  0  0  0  0  0  0  0  0
    6.3527   10.3548   -1.9581 H   0  0  0  0  0  0  0  0  0  0  0  0
    6.2616    9.1592   -3.2956 H   0  0  0  0  0  0  0  0  0  0  0  0
    7.5505   10.4104   -3.2956 H   0  0  0  0  0  0  0  0  0  0  0  0
    0.5092   10.2997   -2.9641 H   0  0  0  0  0  0  0  0  0  0  0  0
   -0.0494   11.0982   -4.4731 H   0  0  0  0  0  0  0  0  0  0  0  0
    1.4707   10.1411   -4.4731 H   0  0  0  0  0  0  0  0  0  0  0  0
    1.2409   13.4000   -5.1966 H   0  0  0  0  0  0  0  0  0  0  0  0
   -0.1869   13.0664   -4.0629 H   0  0  0  0  0  0  0  0  0  0  0  0
    2.0726   15.0450   -3.6573 H   0  0  0  0  0  0  0  0  0  0  0  0
    0.3154   15.3769   -3.9181 H   0  0  0  0  0  0  0  0  0  0  0  0
   -0.9034   14.0762   -0.6890 H   0  0  0  0  0  0  0  0  0  0  0  0
   -1.3604   14.8772   -2.2304 H   0  0  0  0  0  0  0  0  0  0  0  0
   -0.8479   13.1556   -2.2304 H   0  0  0  0  0  0  0  0  0  0  0  0
  1  2  1  0
  2  3  1  0
  3  4  1  0
  4  5  1  0
  5  6  1  0
  6  7  1  0
  7  8  1  0
  7  9  1  0
  2 10  1  0
 10 11  1  0
 11 12  1  0
 12 13  1  0
 13 14  1  1
 13 15  1  0
 15 16  1  0
 16 17  1  0
 17 18  2  0
 18 19  1  0
 19 20  1  0
 20 21  1  0
 21 22  1  0
 22 23  1  0
 22 24  1  0
 24 25  1  0
 24 26  1  0
 19 27  1  0
 27 28  1  1
 27 29  1  0
 29 30  1  0
 30 31  1  0
 31 32  1  6
  7  5  1  0
 31 10  1  0
 31 13  1  0
 27 15  1  0
 24 18  1  0
  1 33  1  0
  1 34  1  0
  1 35  1  0
  2 36  1  6
  3 37  1  0
  3 38  1  0
  4 39  1  0
  4 40  1  0
  5 41  1  1
  8 42  1  0
  8 43  1  0
  8 44  1  0
  9 45  1  0
  9 46  1  0
  9 47  1  0
 10 48  1  6
 11 49  1  0
 11 50  1  0
 12 51  1  0
 12 52  1  0
 14 53  1  0
 14 54  1  0
 14 55  1  0
 15 56  1  1
 16 57  1  0
 16 58  1  0
 17 59  1  0
 19 60  1  6
 20 61  1  0
 20 62  1  0
 21 63  1  0
 21 64  1  0
 22 65  1  6
 23 66  1  0
 25 67  1  0
 25 68  1  0
 25 69  1  0
 26 70  1  0
 26 71  1  0
 26 72  1  0
 28 73  1  0
 28 74  1  0
 28 75  1  0
 29 76  1  0
 29 77  1  0
 30 78  1  0
 30 79  1  0
 32 80  1  0
 32 81  1  0
 32 82  1  0
M  END
>  <meeko>  (9) 
{"is_sidechain": [false], "intermolecular_energy": 2.731, "internal_energy": -0.839}

$$$$
EPH_relaxed_0001_pdb2pqr_Repair_391_r2_0001_out
     RDKit          3D

 82 86  0  0  0  0  0  0  0  0999 V2000
  -14.6190    7.2600    0.6300 C   0  0  0  0  0  0  0  0  0  0  0  0
  -13.4320    8.2180    0.4970 C   0  0  2  0  0  0  0  0  0  0  0  0
  -13.8330    9.5510   -0.1650 C   0  0  0  0  0  0  0  0  0  0  0  0
  -15.1740    9.4940   -0.9010 C   0  0  0  0  0  0  0  0  0  0  0  0
  -14.9970    9.5890   -2.3860 C   0  0  2  0  0  0  0  0  0  0  0  0
  -13.7690   10.1990   -2.8040 O   0  0  0  0  0  0  0  0  0  0  0  0
  -14.9740   10.9040   -3.1440 C   0  0  0  0  0  0  0  0  0  0  0  0
  -15.1320   12.2140   -2.4380 C   0  0  0  0  0  0  0  0  0  0  0  0
  -15.2870   10.8920   -4.6070 C   0  0  0  0  0  0  0  0  0  0  0  0
  -12.3150    7.5550   -0.3000 C   0  0  1  0  0  0  0  0  0  0  0  0
  -12.8220    6.9190   -1.6220 C   0  0  0  0  0  0  0  0  0  0  0  0
  -11.6910    7.0980   -2.6670 C   0  0  0  0  0  0  0  0  0  0  0  0
  -10.4570    7.5250   -1.8370 C   0  0  1  0  0  0  0  0  0  0  0  0
   -9.8830    6.1940   -1.2580 C   0  0  0  0  0  0  0  0  0  0  0  0
   -9.3630    8.3430   -2.5970 C   0  0  2  0  0  0  0  0  0  0  0  0
   -8.6840    7.6010   -3.7610 C   0  0  0  0  0  0  0  0  0  0  0  0
   -7.4570    6.8320   -3.3980 C   0  0  0  0  0  0  0  0  0  0  0  0
   -6.7600    6.9660   -2.2540 C   0  0  0  0  0  0  0  0  0  0  0  0
   -7.1350    8.0400   -1.2250 C   0  0  1  0  0  0  0  0  0  0  0  0
   -5.8550    8.7840   -0.7620 C   0  0  0  0  0  0  0  0  0  0  0  0
   -4.7790    7.8330   -0.2470 C   0  0  0  0  0  0  0  0  0  0  0  0
   -4.3910    6.8170   -1.3190 C   0  0  2  0  0  0  0  0  0  0  0  0
   -3.7430    7.5060   -2.3930 O   0  0  0  0  0  0  0  0  0  0  0  0
   -5.6020    6.0130   -1.8690 C   0  0  0  0  0  0  0  0  0  0  0  0
   -6.1170    5.0390   -0.7800 C   0  0  0  0  0  0  0  0  0  0  0  0
   -5.0960    5.1270   -3.0390 C   0  0  0  0  0  0  0  0  0  0  0  0
   -8.2980    9.0350   -1.6530 C   0  0  1  0  0  0  0  0  0  0  0  0
   -7.7050   10.2340   -2.4540 C   0  0  0  0  0  0  0  0  0  0  0  0
   -8.9540    9.6460   -0.3590 C   0  0  0  0  0  0  0  0  0  0  0  0
  -10.1100    8.8500    0.2770 C   0  0  0  0  0  0  0  0  0  0  0  0
  -11.1490    8.4570   -0.7770 C   0  0  2  0  0  0  0  0  0  0  0  0
  -11.7600    9.7750   -1.3620 C   0  0  0  0  0  0  0  0  0  0  0  0
  -14.8331    7.0872    1.6950 H   0  0  0  0  0  0  0  0  0  0  0  0
  -15.5024    7.7012    0.1453 H   0  0  0  0  0  0  0  0  0  0  0  0
  -14.3742    6.3034    0.1453 H   0  0  0  0  0  0  0  0  0  0  0  0
  -13.0772    8.4479    1.5125 H   0  0  0  0  0  0  0  0  0  0  0  0
  -13.8989   10.3213    0.6175 H   0  0  0  0  0  0  0  0  0  0  0  0
  -13.0634    9.7808   -0.9167 H   0  0  0  0  0  0  0  0  0  0  0  0
  -15.6716    8.5426   -0.6617 H   0  0  0  0  0  0  0  0  0  0  0  0
  -15.7812   10.3506   -0.5731 H   0  0  0  0  0  0  0  0  0  0  0  0
  -15.5668    8.6603   -2.5372 H   0  0  0  0  0  0  0  0  0  0  0  0
  -15.1121   12.0492   -1.3506 H   0  0  0  0  0  0  0  0  0  0  0  0
  -14.3083   12.8854   -2.7222 H   0  0  0  0  0  0  0  0  0  0  0  0
  -16.0917   12.6703   -2.7222 H   0  0  0  0  0  0  0  0  0  0  0  0
  -16.3771   10.8502   -4.7484 H   0  0  0  0  0  0  0  0  0  0  0  0
  -14.8914   11.8060   -5.0741 H   0  0  0  0  0  0  0  0  0  0  0  0
  -14.8226   10.0110   -5.0741 H   0  0  0  0  0  0  0  0  0  0  0  0
  -11.9526    6.8380    0.4514 H   0  0  0  0  0  0  0  0  0  0  0  0
  -13.0330    5.8500   -1.4715 H   0  0  0  0  0  0  0  0  0  0  0  0
  -13.7519    7.3995   -1.9602 H   0  0  0  0  0  0  0  0  0  0  0  0
  -11.4961    6.1524   -3.1942 H   0  0  0  0  0  0  0  0  0  0  0  0
  -11.9500    7.8368   -3.4397 H   0  0  0  0  0  0  0  0  0  0  0  0
   -9.9005    6.2346   -0.1589 H   0  0  0  0  0  0  0  0  0  0  0  0
  -10.4967    5.3490   -1.6035 H   0  0  0  0  0  0  0  0  0  0  0  0
   -8.8473    6.0604   -1.6035 H   0  0  0  0  0  0  0  0  0  0  0  0
   -9.9511    9.1493   -3.0596 H   0  0  0  0  0  0  0  0  0  0  0  0
   -9.4135    6.8961   -4.1863 H   0  0  0  0  0  0  0  0  0  0  0  0
   -8.3580    8.3779   -4.4682 H   0  0  0  0  0  0  0  0  0  0  0  0
   -7.0915    6.0935   -4.1268 H   0  0  0  0  0  0  0  0  0  0  0  0
   -7.5823    7.5031   -0.3755 H   0  0  0  0  0  0  0  0  0  0  0  0
   -5.4480    9.3488   -1.6137 H   0  0  0  0  0  0  0  0  0  0  0  0
   -6.1372    9.4491    0.0674 H   0  0  0  0  0  0  0  0  0  0  0  0
   -3.8896    8.4150    0.0363 H   0  0  0  0  0  0  0  0  0  0  0  0
   -5.1767    7.2907    0.6235 H   0  0  0  0  0  0  0  0  0  0  0  0
   -3.7161    6.0851   -0.8512 H   0  0  0  0  0  0  0  0  0  0  0  0
   -4.2530    7.3330   -3.2030 H   0  0  0  0  0  0  0  0  0  0  0  0
   -5.8981    5.4530    0.2154 H   0  0  0  0  0  0  0  0  0  0  0  0
   -7.2033    4.9060   -0.8910 H   0  0  0  0  0  0  0  0  0  0  0  0
   -5.6153    4.0664   -0.8910 H   0  0  0  0  0  0  0  0  0  0  0  0
   -4.5889    4.2390   -2.6337 H   0  0  0  0  0  0  0  0  0  0  0  0
   -5.9502    4.8117   -3.6562 H   0  0  0  0  0  0  0  0  0  0  0  0
   -4.3904    5.7025   -3.6562 H   0  0  0  0  0  0  0  0  0  0  0  0
   -7.3293   10.9936   -1.7526 H   0  0  0  0  0  0  0  0  0  0  0  0
   -6.8786    9.8790   -3.0873 H   0  0  0  0  0  0  0  0  0  0  0  0
   -8.4887   10.6754   -3.0873 H   0  0  0  0  0  0  0  0  0  0  0  0
   -8.1632    9.7470    0.3989 H   0  0  0  0  0  0  0  0  0  0  0  0
   -9.4040   10.5951   -0.6856 H   0  0  0  0  0  0  0  0  0  0  0  0
   -9.7064    7.9385    0.7419 H   0  0  0  0  0  0  0  0  0  0  0  0
  -10.5984    9.4832    1.0323 H   0  0  0  0  0  0  0  0  0  0  0  0
  -12.0660   10.4350   -0.5369 H   0  0  0  0  0  0  0  0  0  0  0  0
  -11.0067   10.2856   -1.9800 H   0  0  0  0  0  0  0  0  0  0  0  0
  -12.6364    9.5301   -1.9800 H   0  0  0  0  0  0  0  0  0  0  0  0
  1  2  1  0
  2  3  1  0
  3  4  1  0
  4  5  1  0
  5  6  1  0
  6  7  1  0
  7  8  1  0
  7  9  1  0
  2 10  1  0
 10 11  1  0
 11 12  1  0
 12 13  1  0
 13 14  1  1
 13 15  1  0
 15 16  1  0
 16 17  1  0
 17 18  2  0
 18 19  1  0
 19 20  1  0
 20 21  1  0
 21 22  1  0
 22 23  1  0
 22 24  1  0
 24 25  1  0
 24 26  1  0
 19 27  1  0
 27 28  1  6
 27 29  1  0
 29 30  1  0
 30 31  1  0
 31 32  1  6
  7  5  1  0
 31 10  1  0
 31 13  1  0
 27 15  1  0
 24 18  1  0
  1 33  1  0
  1 34  1  0
  1 35  1  0
  2 36  1  1
  3 37  1  0
  3 38  1  0
  4 39  1  0
  4 40  1  0
  5 41  1  6
  8 42  1  0
  8 43  1  0
  8 44  1  0
  9 45  1  0
  9 46  1  0
  9 47  1  0
 10 48  1  1
 11 49  1  0
 11 50  1  0
 12 51  1  0
 12 52  1  0
 14 53  1  0
 14 54  1  0
 14 55  1  0
 15 56  1  6
 16 57  1  0
 16 58  1  0
 17 59  1  0
 19 60  1  1
 20 61  1  0
 20 62  1  0
 21 63  1  0
 21 64  1  0
 22 65  1  1
 23 66  1  0
 25 67  1  0
 25 68  1  0
 25 69  1  0
 26 70  1  0
 26 71  1  0
 26 72  1  0
 28 73  1  0
 28 74  1  0
 28 75  1  0
 29 76  1  0
 29 77  1  0
 30 78  1  0
 30 79  1  0
 32 80  1  0
 32 81  1  0
 32 82  1  0
M  END
>  <meeko>  (10) 
{"is_sidechain": [false], "intermolecular_energy": 2.731, "internal_energy": -0.839}

$$$$
EPH_relaxed_0001_pdb2pqr_Repair_391_r2_0001_out
     RDKit          3D

 82 86  0  0  0  0  0  0  0  0999 V2000
   -4.7820    6.9140    0.5060 C   0  0  0  0  0  0  0  0  0  0  0  0
   -4.7120    8.0890   -0.4740 C   0  0  2  0  0  0  0  0  0  0  0  0
   -3.6460    9.1240   -0.0640 C   0  0  0  0  0  0  0  0  0  0  0  0
   -2.3390    9.0070   -0.8530 C   0  0  0  0  0  0  0  0  0  0  0  0
   -1.3480   10.0540   -0.4440 C   0  0  2  0  0  0  0  0  0  0  0  0
   -1.4030   11.2630   -1.2130 O   0  0  0  0  0  0  0  0  0  0  0  0
   -0.1910   10.4980   -1.3190 C   0  0  0  0  0  0  0  0  0  0  0  0
    0.0370    9.9030   -2.6720 C   0  0  0  0  0  0  0  0  0  0  0  0
    0.9900   11.1480   -0.6670 C   0  0  0  0  0  0  0  0  0  0  0  0
   -6.0770    8.7600   -0.5780 C   0  0  1  0  0  0  0  0  0  0  0  0
   -6.0150   10.1270   -1.3110 C   0  0  0  0  0  0  0  0  0  0  0  0
   -7.3360   10.2650   -2.1120 C   0  0  0  0  0  0  0  0  0  0  0  0
   -8.2470    9.1440   -1.5580 C   0  0  1  0  0  0  0  0  0  0  0  0
   -8.8400    9.7250   -0.2360 C   0  0  0  0  0  0  0  0  0  0  0  0
   -9.3690    8.6280   -2.5170 C   0  0  2  0  0  0  0  0  0  0  0  0
  -10.4180    9.6800   -2.9180 C   0  0  0  0  0  0  0  0  0  0  0  0
  -11.6110    9.7640   -2.0230 C   0  0  0  0  0  0  0  0  0  0  0  0
  -11.9710    8.8430   -1.1110 C   0  0  0  0  0  0  0  0  0  0  0  0
  -11.1990    7.5240   -0.9770 C   0  0  1  0  0  0  0  0  0  0  0  0
  -12.2020    6.3430   -0.8980 C   0  0  0  0  0  0  0  0  0  0  0  0
  -13.2380    6.5280    0.2070 C   0  0  0  0  0  0  0  0  0  0  0  0
  -14.0240    7.8210    0.0070 C   0  0  2  0  0  0  0  0  0  0  0  0
  -14.8160    7.6990   -1.1790 O   0  0  0  0  0  0  0  0  0  0  0  0
  -13.1180    9.0790   -0.0970 C   0  0  0  0  0  0  0  0  0  0  0  0
  -12.4890    9.3840    1.2850 C   0  0  0  0  0  0  0  0  0  0  0  0
  -14.0230   10.2930   -0.4390 C   0  0  0  0  0  0  0  0  0  0  0  0
  -10.0520    7.2800   -2.0490 C   0  0  1  0  0  0  0  0  0  0  0  0
  -10.6510    6.6170   -3.3280 C   0  0  0  0  0  0  0  0  0  0  0  0
   -9.0110    6.2530   -1.4640 C   0  0  0  0  0  0  0  0  0  0  0  0
   -7.8580    6.8360   -0.6240 C   0  0  0  0  0  0  0  0  0  0  0  0
   -7.1840    8.0030   -1.3530 C   0  0  2  0  0  0  0  0  0  0  0  0
   -6.5590    7.4440   -2.6760 C   0  0  0  0  0  0  0  0  0  0  0  0
   -4.7593    7.2951    1.5376 H   0  0  0  0  0  0  0  0  0  0  0  0
   -5.7150    6.3549    0.3421 H   0  0  0  0  0  0  0  0  0  0  0  0
   -3.9219    6.2481    0.3421 H   0  0  0  0  0  0  0  0  0  0  0  0
   -4.4199    7.6856   -1.4548 H   0  0  0  0  0  0  0  0  0  0  0  0
   -4.0595   10.1306   -0.2244 H   0  0  0  0  0  0  0  0  0  0  0  0
   -3.4024    8.9336    0.9917 H   0  0  0  0  0  0  0  0  0  0  0  0
   -1.9022    8.0135   -0.6736 H   0  0  0  0  0  0  0  0  0  0  0  0
   -2.5685    9.1505   -1.9192 H   0  0  0  0  0  0  0  0  0  0  0  0
   -1.3956    9.7234    0.6041 H   0  0  0  0  0  0  0  0  0  0  0  0
    0.4286    8.8810   -2.5619 H   0  0  0  0  0  0  0  0  0  0  0  0
   -0.9136    9.8738   -3.2247 H   0  0  0  0  0  0  0  0  0  0  0  0
    0.7637   10.5166   -3.2247 H   0  0  0  0  0  0  0  0  0  0  0  0
    0.8836   11.0894    0.4263 H   0  0  0  0  0  0  0  0  0  0  0  0
    1.9100   10.6292   -0.9742 H   0  0  0  0  0  0  0  0  0  0  0  0
    1.0439   12.2029   -0.9742 H   0  0  0  0  0  0  0  0  0  0  0  0
   -6.3373    8.8170    0.4892 H   0  0  0  0  0  0  0  0  0  0  0  0
   -5.9275   10.9449   -0.5807 H   0  0  0  0  0  0  0  0  0  0  0  0
   -5.1415   10.1787   -1.9775 H   0  0  0  0  0  0  0  0  0  0  0  0
   -7.7902   11.2528   -1.9447 H   0  0  0  0  0  0  0  0  0  0  0  0
   -7.1774   10.1758   -3.1968 H   0  0  0  0  0  0  0  0  0  0  0  0
   -8.3519    9.2468    0.6261 H   0  0  0  0  0  0  0  0  0  0  0  0
   -8.6644   10.8103   -0.2013 H   0  0  0  0  0  0  0  0  0  0  0  0
   -9.9215    9.5273   -0.2013 H   0  0  0  0  0  0  0  0  0  0  0  0
   -8.8084    8.3992   -3.4354 H   0  0  0  0  0  0  0  0  0  0  0  0
   -9.9273   10.6645   -2.9238 H   0  0  0  0  0  0  0  0  0  0  0  0
  -10.7975    9.3715   -3.9033 H   0  0  0  0  0  0  0  0  0  0  0  0
  -12.2494   10.6547   -2.1177 H   0  0  0  0  0  0  0  0  0  0  0  0
  -10.6332    7.5968   -0.0365 H   0  0  0  0  0  0  0  0  0  0  0  0
  -12.7255    6.2599   -1.8619 H   0  0  0  0  0  0  0  0  0  0  0  0
  -11.6285    5.4327   -0.6690 H   0  0  0  0  0  0  0  0  0  0  0  0
  -13.9351    5.6772    0.1930 H   0  0  0  0  0  0  0  0  0  0  0  0
  -12.7150    6.5810    1.1733 H   0  0  0  0  0  0  0  0  0  0  0  0
  -14.6569    7.9636    0.8953 H   0  0  0  0  0  0  0  0  0  0  0  0
  -15.4050    6.9350   -1.0620 H   0  0  0  0  0  0  0  0  0  0  0  0
  -13.1728    9.0524    2.0803 H   0  0  0  0  0  0  0  0  0  0  0  0
  -11.5319    8.8499    1.3781 H   0  0  0  0  0  0  0  0  0  0  0  0
  -12.3156   10.4662    1.3781 H   0  0  0  0  0  0  0  0  0  0  0  0
  -14.3733   10.7629    0.4918 H   0  0  0  0  0  0  0  0  0  0  0  0
  -13.4484   11.0250   -1.0256 H   0  0  0  0  0  0  0  0  0  0  0  0
  -14.8886    9.9514   -1.0256 H   0  0  0  0  0  0  0  0  0  0  0  0
  -11.3617    5.8303   -3.0346 H   0  0  0  0  0  0  0  0  0  0  0  0
  -11.1732    7.3787   -3.9256 H   0  0  0  0  0  0  0  0  0  0  0  0
   -9.8404    6.1745   -3.9256 H   0  0  0  0  0  0  0  0  0  0  0  0
   -9.5627    5.5461   -0.8269 H   0  0  0  0  0  0  0  0  0  0  0  0
   -8.5276    5.8006   -2.3424 H   0  0  0  0  0  0  0  0  0  0  0  0
   -8.2577    7.1942    0.3362 H   0  0  0  0  0  0  0  0  0  0  0  0
   -7.1100    6.0464   -0.4592 H   0  0  0  0  0  0  0  0  0  0  0  0
   -5.7598    6.7292   -2.4305 H   0  0  0  0  0  0  0  0  0  0  0  0
   -7.3379    6.9357   -3.2633 H   0  0  0  0  0  0  0  0  0  0  0  0
   -6.1404    8.2746   -3.2633 H   0  0  0  0  0  0  0  0  0  0  0  0
  1  2  1  0
  2  3  1  0
  3  4  1  0
  4  5  1  0
  5  6  1  0
  6  7  1  0
  7  8  1  0
  7  9  1  0
  2 10  1  0
 10 11  1  0
 11 12  1  0
 12 13  1  0
 13 14  1  1
 13 15  1  0
 15 16  1  0
 16 17  1  0
 17 18  2  0
 18 19  1  0
 19 20  1  0
 20 21  1  0
 21 22  1  0
 22 23  1  0
 22 24  1  0
 24 25  1  0
 24 26  1  0
 19 27  1  0
 27 28  1  6
 27 29  1  0
 29 30  1  0
 30 31  1  0
 31 32  1  6
  7  5  1  0
 31 10  1  0
 31 13  1  0
 27 15  1  0
 24 18  1  0
  1 33  1  0
  1 34  1  0
  1 35  1  0
  2 36  1  6
  3 37  1  0
  3 38  1  0
  4 39  1  0
  4 40  1  0
  5 41  1  1
  8 42  1  0
  8 43  1  0
  8 44  1  0
  9 45  1  0
  9 46  1  0
  9 47  1  0
 10 48  1  1
 11 49  1  0
 11 50  1  0
 12 51  1  0
 12 52  1  0
 14 53  1  0
 14 54  1  0
 14 55  1  0
 15 56  1  6
 16 57  1  0
 16 58  1  0
 17 59  1  0
 19 60  1  1
 20 61  1  0
 20 62  1  0
 21 63  1  0
 21 64  1  0
 22 65  1  1
 23 66  1  0
 25 67  1  0
 25 68  1  0
 25 69  1  0
 26 70  1  0
 26 71  1  0
 26 72  1  0
 28 73  1  0
 28 74  1  0
 28 75  1  0
 29 76  1  0
 29 77  1  0
 30 78  1  0
 30 79  1  0
 32 80  1  0
 32 81  1  0
 32 82  1  0
M  END
>  <meeko>  (11) 
{"is_sidechain": [false], "intermolecular_energy": 2.731, "internal_energy": -0.839}

$$$$
EPH_relaxed_0001_pdb2pqr_Repair_391_r2_0001_out
     RDKit          3D

 82 86  0  0  0  0  0  0  0  0999 V2000
    3.0280   18.7320   -1.1220 C   0  0  0  0  0  0  0  0  0  0  0  0
    2.6640   17.6830   -2.1760 C   0  0  2  0  0  0  0  0  0  0  0  0
    1.2600   17.9180   -2.7690 C   0  0  0  0  0  0  0  0  0  0  0  0
    0.6130   19.2310   -2.3170 C   0  0  0  0  0  0  0  0  0  0  0  0
   -0.7230   18.9990   -1.6790 C   0  0  2  0  0  0  0  0  0  0  0  0
   -1.4110   20.1920   -1.2800 O   0  0  0  0  0  0  0  0  0  0  0  0
   -1.0180   19.3030   -0.2220 C   0  0  0  0  0  0  0  0  0  0  0  0
    0.0310   19.8640    0.6860 C   0  0  0  0  0  0  0  0  0  0  0  0
   -2.1670   18.6050    0.4360 C   0  0  0  0  0  0  0  0  0  0  0  0
    2.7460   16.2870   -1.5700 C   0  0  1  0  0  0  0  0  0  0  0  0
    3.3500   16.2910   -0.1400 C   0  0  0  0  0  0  0  0  0  0  0  0
    2.6230   15.1770    0.6550 C   0  0  0  0  0  0  0  0  0  0  0  0
    1.8720   14.3560   -0.4200 C   0  0  1  0  0  0  0  0  0  0  0  0
    2.9500   13.4000   -1.0190 C   0  0  0  0  0  0  0  0  0  0  0  0
    0.6100   13.5720    0.0660 C   0  0  2  0  0  0  0  0  0  0  0  0
    0.8830   12.4840    1.1200 C   0  0  0  0  0  0  0  0  0  0  0  0
    1.1720   11.1250    0.5730 C   0  0  0  0  0  0  0  0  0  0  0  0
    0.9330   10.7230   -0.6890 C   0  0  0  0  0  0  0  0  0  0  0  0
    0.2240   11.6450   -1.6890 C   0  0  1  0  0  0  0  0  0  0  0  0
   -0.8820   10.8510   -2.4320 C   0  0  0  0  0  0  0  0  0  0  0  0
   -0.3500    9.5800   -3.0870 C   0  0  0  0  0  0  0  0  0  0  0  0
    0.2950    8.6620   -2.0510 C   0  0  2  0  0  0  0  0  0  0  0  0
   -0.7200    8.1820   -1.1640 O   0  0  0  0  0  0  0  0  0  0  0  0
    1.4190    9.3570   -1.2330 C   0  0  0  0  0  0  0  0  0  0  0  0
    2.6480    9.6050   -2.1420 C   0  0  0  0  0  0  0  0  0  0  0  0
    1.8880    8.3680   -0.1310 C   0  0  0  0  0  0  0  0  0  0  0  0
   -0.3040   13.0260   -1.1050 C   0  0  1  0  0  0  0  0  0  0  0  0
   -1.7310   12.8390   -0.5050 C   0  0  0  0  0  0  0  0  0  0  0  0
   -0.4490   14.0600   -2.2830 C   0  0  0  0  0  0  0  0  0  0  0  0
    0.8000   14.8900   -2.6360 C   0  0  0  0  0  0  0  0  0  0  0  0
    1.4170   15.5140   -1.3810 C   0  0  2  0  0  0  0  0  0  0  0  0
    0.3630   16.4990   -0.7690 C   0  0  0  0  0  0  0  0  0  0  0  0
    2.8811   18.3087   -0.1174 H   0  0  0  0  0  0  0  0  0  0  0  0
    4.0807   19.0261   -1.2457 H   0  0  0  0  0  0  0  0  0  0  0  0
    2.3837   19.6149   -1.2457 H   0  0  0  0  0  0  0  0  0  0  0  0
    3.3892   17.7749   -2.9980 H   0  0  0  0  0  0  0  0  0  0  0  0
    1.3440   17.9316   -3.8657 H   0  0  0  0  0  0  0  0  0  0  0  0
    0.6174   17.1016   -2.4076 H   0  0  0  0  0  0  0  0  0  0  0  0
    1.2751   19.7228   -1.5892 H   0  0  0  0  0  0  0  0  0  0  0  0
    0.4643   19.8636   -3.2045 H   0  0  0  0  0  0  0  0  0  0  0  0
   -0.8872   18.1015   -2.2934 H   0  0  0  0  0  0  0  0  0  0  0  0
   -0.2669   19.7047    1.7329 H   0  0  0  0  0  0  0  0  0  0  0  0
    0.9890   19.3578    0.4963 H   0  0  0  0  0  0  0  0  0  0  0  0
    0.1419   20.9418    0.4963 H   0  0  0  0  0  0  0  0  0  0  0  0
   -2.0588   18.6707    1.5287 H   0  0  0  0  0  0  0  0  0  0  0  0
   -3.1096   19.0833    0.1314 H   0  0  0  0  0  0  0  0  0  0  0  0
   -2.1770   17.5480    0.1314 H   0  0  0  0  0  0  0  0  0  0  0  0
    3.3638   15.7911   -2.3331 H   0  0  0  0  0  0  0  0  0  0  0  0
    4.4292   16.0824   -0.1839 H   0  0  0  0  0  0  0  0  0  0  0  0
    3.2179   17.2709    0.3420 H   0  0  0  0  0  0  0  0  0  0  0  0
    3.3478   14.5455    1.1896 H   0  0  0  0  0  0  0  0  0  0  0  0
    1.9437   15.5849    1.4180 H   0  0  0  0  0  0  0  0  0  0  0  0
    3.5012   12.9112   -0.2021 H   0  0  0  0  0  0  0  0  0  0  0  0
    2.4585   12.6355   -1.6386 H   0  0  0  0  0  0  0  0  0  0  0  0
    3.6503   13.9794   -1.6386 H   0  0  0  0  0  0  0  0  0  0  0  0
    0.0330   14.3518    0.5847 H   0  0  0  0  0  0  0  0  0  0  0  0
    1.7495   12.8007    1.7190 H   0  0  0  0  0  0  0  0  0  0  0  0
   -0.0440   12.3864    1.7041 H   0  0  0  0  0  0  0  0  0  0  0  0
    1.6179   10.3903    1.2595 H   0  0  0  0  0  0  0  0  0  0  0  0
    0.9952   11.9681   -2.4037 H   0  0  0  0  0  0  0  0  0  0  0  0
   -1.6636   10.5745   -1.7091 H   0  0  0  0  0  0  0  0  0  0  0  0
   -1.2782   11.4969   -3.2294 H   0  0  0  0  0  0  0  0  0  0  0  0
   -1.1828    9.0483   -3.5705 H   0  0  0  0  0  0  0  0  0  0  0  0
    0.4107    9.8598   -3.8307 H   0  0  0  0  0  0  0  0  0  0  0  0
    0.7703    7.8326   -2.5953 H   0  0  0  0  0  0  0  0  0  0  0  0
   -1.4930    7.9430   -1.7030 H   0  0  0  0  0  0  0  0  0  0  0  0
    3.5357    9.7841   -1.5176 H   0  0  0  0  0  0  0  0  0  0  0  0
    2.8183    8.7231   -2.7770 H   0  0  0  0  0  0  0  0  0  0  0  0
    2.4630   10.4839   -2.7770 H   0  0  0  0  0  0  0  0  0  0  0  0
    1.6834    8.7994    0.8600 H   0  0  0  0  0  0  0  0  0  0  0  0
    1.3448    7.4173   -0.2363 H   0  0  0  0  0  0  0  0  0  0  0  0
    2.9679    8.1869   -0.2363 H   0  0  0  0  0  0  0  0  0  0  0  0
   -1.6709   12.8469    0.5933 H   0  0  0  0  0  0  0  0  0  0  0  0
   -2.3811   13.6596   -0.8425 H   0  0  0  0  0  0  0  0  0  0  0  0
   -2.1477   11.8786   -0.8425 H   0  0  0  0  0  0  0  0  0  0  0  0
   -0.7418   13.4999   -3.1833 H   0  0  0  0  0  0  0  0  0  0  0  0
   -1.1920   14.7921   -1.9337 H   0  0  0  0  0  0  0  0  0  0  0  0
    1.5432   14.2356   -3.1149 H   0  0  0  0  0  0  0  0  0  0  0  0
    0.5016   15.6989   -3.3191 H   0  0  0  0  0  0  0  0  0  0  0  0
    0.4123   16.4529    0.3289 H   0  0  0  0  0  0  0  0  0  0  0  0
    0.5817   17.5239   -1.1032 H   0  0  0  0  0  0  0  0  0  0  0  0
   -0.6448   16.2115   -1.1032 H   0  0  0  0  0  0  0  0  0  0  0  0
  1  2  1  0
  2  3  1  0
  3  4  1  0
  4  5  1  0
  5  6  1  0
  6  7  1  0
  7  8  1  0
  7  9  1  0
  2 10  1  0
 10 11  1  0
 11 12  1  0
 12 13  1  0
 13 14  1  6
 13 15  1  0
 15 16  1  0
 16 17  1  0
 17 18  2  0
 18 19  1  0
 19 20  1  0
 20 21  1  0
 21 22  1  0
 22 23  1  0
 22 24  1  0
 24 25  1  0
 24 26  1  0
 19 27  1  0
 27 28  1  1
 27 29  1  0
 29 30  1  0
 30 31  1  0
 31 32  1  1
  7  5  1  0
 31 10  1  0
 31 13  1  0
 27 15  1  0
 24 18  1  0
  1 33  1  0
  1 34  1  0
  1 35  1  0
  2 36  1  6
  3 37  1  0
  3 38  1  0
  4 39  1  0
  4 40  1  0
  5 41  1  6
  8 42  1  0
  8 43  1  0
  8 44  1  0
  9 45  1  0
  9 46  1  0
  9 47  1  0
 10 48  1  6
 11 49  1  0
 11 50  1  0
 12 51  1  0
 12 52  1  0
 14 53  1  0
 14 54  1  0
 14 55  1  0
 15 56  1  1
 16 57  1  0
 16 58  1  0
 17 59  1  0
 19 60  1  6
 20 61  1  0
 20 62  1  0
 21 63  1  0
 21 64  1  0
 22 65  1  6
 23 66  1  0
 25 67  1  0
 25 68  1  0
 25 69  1  0
 26 70  1  0
 26 71  1  0
 26 72  1  0
 28 73  1  0
 28 74  1  0
 28 75  1  0
 29 76  1  0
 29 77  1  0
 30 78  1  0
 30 79  1  0
 32 80  1  0
 32 81  1  0
 32 82  1  0
M  END
>  <meeko>  (12) 
{"is_sidechain": [false], "intermolecular_energy": 2.731, "internal_energy": -0.839}

$$$$
EPH_relaxed_0001_pdb2pqr_Repair_391_r2_0001_out
     RDKit          3D

 82 86  0  0  0  0  0  0  0  0999 V2000
   -0.9600   16.3970   -5.9140 C   0  0  0  0  0  0  0  0  0  0  0  0
    0.1610   15.7140   -6.7030 C   0  0  2  0  0  0  0  0  0  0  0  0
   -0.2110   15.5160   -8.1860 C   0  0  0  0  0  0  0  0  0  0  0  0
    0.4470   16.5310   -9.1260 C   0  0  0  0  0  0  0  0  0  0  0  0
    1.8500   16.1350   -9.4750 C   0  0  2  0  0  0  0  0  0  0  0  0
    2.3380   16.6840  -10.7060 O   0  0  0  0  0  0  0  0  0  0  0  0
    2.2000   15.2540  -10.6590 C   0  0  0  0  0  0  0  0  0  0  0  0
    1.1430   14.7150  -11.5710 C   0  0  0  0  0  0  0  0  0  0  0  0
    3.5070   14.5230  -10.6460 C   0  0  0  0  0  0  0  0  0  0  0  0
    0.5010   14.3710   -6.0670 C   0  0  1  0  0  0  0  0  0  0  0  0
    1.7280   13.6900   -6.7300 C   0  0  0  0  0  0  0  0  0  0  0  0
    2.4870   12.9420   -5.6030 C   0  0  0  0  0  0  0  0  0  0  0  0
    1.5050   12.9380   -4.4080 C   0  0  1  0  0  0  0  0  0  0  0  0
    0.5220   11.7610   -4.7000 C   0  0  0  0  0  0  0  0  0  0  0  0
    2.1460   12.8150   -2.9870 C   0  0  2  0  0  0  0  0  0  0  0  0
    2.9180   11.5090   -2.7310 C   0  0  0  0  0  0  0  0  0  0  0  0
    2.1110   10.3940   -2.1550 C   0  0  0  0  0  0  0  0  0  0  0  0
    0.8940   10.5180   -1.5910 C   0  0  0  0  0  0  0  0  0  0  0  0
    0.2510   11.8980   -1.4040 C   0  0  1  0  0  0  0  0  0  0  0  0
   -0.3240   12.0110    0.0330 C   0  0  0  0  0  0  0  0  0  0  0  0
   -1.2790   10.8700    0.3710 C   0  0  0  0  0  0  0  0  0  0  0  0
   -0.5860    9.5180    0.2290 C   0  0  2  0  0  0  0  0  0  0  0  0
    0.4290    9.4130    1.2320 O   0  0  0  0  0  0  0  0  0  0  0  0
    0.0410    9.2950   -1.1760 C   0  0  0  0  0  0  0  0  0  0  0  0
   -1.0840    9.1080   -2.2240 C   0  0  0  0  0  0  0  0  0  0  0  0
    0.8280    7.9580   -1.1400 C   0  0  0  0  0  0  0  0  0  0  0  0
    1.1550   13.1440   -1.7980 C   0  0  1  0  0  0  0  0  0  0  0  0
    2.0400   13.5650   -0.5850 C   0  0  0  0  0  0  0  0  0  0  0  0
    0.2250   14.3740   -2.1170 C   0  0  0  0  0  0  0  0  0  0  0  0
   -0.2790   14.5060   -3.5670 C   0  0  0  0  0  0  0  0  0  0  0  0
    0.8760   14.3700   -4.5640 C   0  0  2  0  0  0  0  0  0  0  0  0
    1.8700   15.5540   -4.3090 C   0  0  0  0  0  0  0  0  0  0  0  0
   -0.7721   16.2825   -4.8362 H   0  0  0  0  0  0  0  0  0  0  0  0
   -0.9892   17.4665   -6.1695 H   0  0  0  0  0  0  0  0  0  0  0  0
   -1.9238   15.9325   -6.1695 H   0  0  0  0  0  0  0  0  0  0  0  0
    1.0401   16.3743   -6.6684 H   0  0  0  0  0  0  0  0  0  0  0  0
    0.1019   14.5065   -8.4909 H   0  0  0  0  0  0  0  0  0  0  0  0
   -1.2985   15.6603   -8.2670 H   0  0  0  0  0  0  0  0  0  0  0  0
   -0.1453   16.5968  -10.0506 H   0  0  0  0  0  0  0  0  0  0  0  0
    0.4829   17.5023   -8.6109 H   0  0  0  0  0  0  0  0  0  0  0  0
    2.1258   16.0849   -8.4113 H   0  0  0  0  0  0  0  0  0  0  0  0
    0.3210   14.2958  -10.9722 H   0  0  0  0  0  0  0  0  0  0  0  0
    0.7575   15.5266  -12.2056 H   0  0  0  0  0  0  0  0  0  0  0  0
    1.5735   13.9264  -12.2056 H   0  0  0  0  0  0  0  0  0  0  0  0
    3.8191   14.3484   -9.6058 H   0  0  0  0  0  0  0  0  0  0  0  0
    3.3925   13.5580  -11.1613 H   0  0  0  0  0  0  0  0  0  0  0  0
    4.2693   15.1257  -11.1613 H   0  0  0  0  0  0  0  0  0  0  0  0
   -0.4558   13.8491   -6.2157 H   0  0  0  0  0  0  0  0  0  0  0  0
    1.3961   12.9783   -7.5003 H   0  0  0  0  0  0  0  0  0  0  0  0
    2.3765   14.4326   -7.2178 H   0  0  0  0  0  0  0  0  0  0  0  0
    2.7267   11.9139   -5.9122 H   0  0  0  0  0  0  0  0  0  0  0  0
    3.4447   13.4227   -5.3546 H   0  0  0  0  0  0  0  0  0  0  0  0
    0.1668   11.3357   -3.7498 H   0  0  0  0  0  0  0  0  0  0  0  0
   -0.3361   12.1347   -5.2780 H   0  0  0  0  0  0  0  0  0  0  0  0
    1.0426   10.9833   -5.2780 H   0  0  0  0  0  0  0  0  0  0  0  0
    2.9038   13.6123   -2.9998 H   0  0  0  0  0  0  0  0  0  0  0  0
    3.3346   11.1669   -3.6899 H   0  0  0  0  0  0  0  0  0  0  0  0
    3.6836   11.7505   -1.9790 H   0  0  0  0  0  0  0  0  0  0  0  0
    2.5470    9.3848   -2.1943 H   0  0  0  0  0  0  0  0  0  0  0  0
   -0.5654   11.9545   -2.1391 H   0  0  0  0  0  0  0  0  0  0  0  0
    0.5107   11.9964    0.7492 H   0  0  0  0  0  0  0  0  0  0  0  0
   -0.8917   12.9513    0.0931 H   0  0  0  0  0  0  0  0  0  0  0  0
   -1.6285   10.9882    1.4073 H   0  0  0  0  0  0  0  0  0  0  0  0
   -2.1279   10.9043   -0.3277 H   0  0  0  0  0  0  0  0  0  0  0  0
   -1.3523    8.7392    0.3567 H   0  0  0  0  0  0  0  0  0  0  0  0
    0.6980   10.3150    1.4740 H   0  0  0  0  0  0  0  0  0  0  0  0
   -2.0426    8.9487   -1.7085 H   0  0  0  0  0  0  0  0  0  0  0  0
   -1.1515   10.0073   -2.8539 H   0  0  0  0  0  0  0  0  0  0  0  0
   -0.8569    8.2353   -2.8539 H   0  0  0  0  0  0  0  0  0  0  0  0
    1.0017    7.6628   -0.0947 H   0  0  0  0  0  0  0  0  0  0  0  0
    0.2460    7.1761   -1.6499 H   0  0  0  0  0  0  0  0  0  0  0  0
    1.7941    8.0873   -1.6499 H   0  0  0  0  0  0  0  0  0  0  0  0
    1.5196   13.3174    0.3520 H   0  0  0  0  0  0  0  0  0  0  0  0
    2.9981   13.0262   -0.6257 H   0  0  0  0  0  0  0  0  0  0  0  0
    2.2265   14.6483   -0.6257 H   0  0  0  0  0  0  0  0  0  0  0  0
   -0.6568   14.3028   -1.4633 H   0  0  0  0  0  0  0  0  0  0  0  0
    0.8531   15.2612   -1.9486 H   0  0  0  0  0  0  0  0  0  0  0  0
   -1.0191   13.7164   -3.7639 H   0  0  0  0  0  0  0  0  0  0  0  0
   -0.7338   15.4999   -3.6909 H   0  0  0  0  0  0  0  0  0  0  0  0
    1.9941   15.7018   -3.2261 H   0  0  0  0  0  0  0  0  0  0  0  0
    2.8448   15.3182   -4.7610 H   0  0  0  0  0  0  0  0  0  0  0  0
    1.4690   16.4732   -4.7610 H   0  0  0  0  0  0  0  0  0  0  0  0
  1  2  1  0
  2  3  1  0
  3  4  1  0
  4  5  1  0
  5  6  1  0
  6  7  1  0
  7  8  1  0
  7  9  1  0
  2 10  1  0
 10 11  1  0
 11 12  1  0
 12 13  1  0
 13 14  1  6
 13 15  1  0
 15 16  1  0
 16 17  1  0
 17 18  2  0
 18 19  1  0
 19 20  1  0
 20 21  1  0
 21 22  1  0
 22 23  1  0
 22 24  1  0
 24 25  1  0
 24 26  1  0
 19 27  1  0
 27 28  1  1
 27 29  1  0
 29 30  1  0
 30 31  1  0
 31 32  1  6
  7  5  1  0
 31 10  1  0
 31 13  1  0
 27 15  1  0
 24 18  1  0
  1 33  1  0
  1 34  1  0
  1 35  1  0
  2 36  1  6
  3 37  1  0
  3 38  1  0
  4 39  1  0
  4 40  1  0
  5 41  1  1
  8 42  1  0
  8 43  1  0
  8 44  1  0
  9 45  1  0
  9 46  1  0
  9 47  1  0
 10 48  1  1
 11 49  1  0
 11 50  1  0
 12 51  1  0
 12 52  1  0
 14 53  1  0
 14 54  1  0
 14 55  1  0
 15 56  1  6
 16 57  1  0
 16 58  1  0
 17 59  1  0
 19 60  1  6
 20 61  1  0
 20 62  1  0
 21 63  1  0
 21 64  1  0
 22 65  1  1
 23 66  1  0
 25 67  1  0
 25 68  1  0
 25 69  1  0
 26 70  1  0
 26 71  1  0
 26 72  1  0
 28 73  1  0
 28 74  1  0
 28 75  1  0
 29 76  1  0
 29 77  1  0
 30 78  1  0
 30 79  1  0
 32 80  1  0
 32 81  1  0
 32 82  1  0
M  END
>  <meeko>  (13) 
{"is_sidechain": [false], "intermolecular_energy": 2.731, "internal_energy": -0.839}

$$$$
EPH_relaxed_0001_pdb2pqr_Repair_391_r2_0001_out
     RDKit          3D

 82 86  0  0  0  0  0  0  0  0999 V2000
   -0.0210    9.4900   -2.8030 C   0  0  0  0  0  0  0  0  0  0  0  0
    1.0930   10.4780   -3.1580 C   0  0  2  0  0  0  0  0  0  0  0  0
    2.4750    9.7960   -3.2230 C   0  0  0  0  0  0  0  0  0  0  0  0
    3.4830   10.5330   -4.1090 C   0  0  0  0  0  0  0  0  0  0  0  0
    4.8230   10.6470   -3.4470 C   0  0  2  0  0  0  0  0  0  0  0  0
    5.4830   11.9050   -3.6430 O   0  0  0  0  0  0  0  0  0  0  0  0
    6.1280   10.7550   -4.2130 C   0  0  0  0  0  0  0  0  0  0  0  0
    6.1580   10.7520   -5.7090 C   0  0  0  0  0  0  0  0  0  0  0  0
    7.3980   10.3710   -3.5190 C   0  0  0  0  0  0  0  0  0  0  0  0
    1.1210   11.6160   -2.1450 C   0  0  1  0  0  0  0  0  0  0  0  0
    2.2070   11.4180   -1.0540 C   0  0  0  0  0  0  0  0  0  0  0  0
    2.7480   12.8270   -0.6990 C   0  0  0  0  0  0  0  0  0  0  0  0
    1.7380   13.8060   -1.3440 C   0  0  1  0  0  0  0  0  0  0  0  0
    0.5460   13.8720   -0.3380 C   0  0  0  0  0  0  0  0  0  0  0  0
    2.2810   15.2300   -1.6900 C   0  0  2  0  0  0  0  0  0  0  0  0
    2.7550   16.0590   -0.4830 C   0  0  0  0  0  0  0  0  0  0  0  0
    1.7110   16.9180    0.1500 C   0  0  0  0  0  0  0  0  0  0  0  0
    0.5250   17.2400   -0.3980 C   0  0  0  0  0  0  0  0  0  0  0  0
    0.1740   16.8050   -1.8270 C   0  0  1  0  0  0  0  0  0  0  0  0
   -0.4240   18.0090   -2.6020 C   0  0  0  0  0  0  0  0  0  0  0  0
   -1.6080   18.6420   -1.8770 C   0  0  0  0  0  0  0  0  0  0  0  0
   -1.2050   19.1140   -0.4830 C   0  0  2  0  0  0  0  0  0  0  0  0
   -0.2750   20.1940   -0.6130 O   0  0  0  0  0  0  0  0  0  0  0  0
   -0.5800   17.9880    0.3880 C   0  0  0  0  0  0  0  0  0  0  0  0
   -1.6750   16.9650    0.7800 C   0  0  0  0  0  0  0  0  0  0  0  0
   -0.0890   18.6280    1.7150 C   0  0  0  0  0  0  0  0  0  0  0  0
    1.3320   16.0740   -2.6340 C   0  0  1  0  0  0  0  0  0  0  0  0
    2.2330   17.1300   -3.3440 C   0  0  0  0  0  0  0  0  0  0  0  0
    0.6900   15.1990   -3.7740 C   0  0  0  0  0  0  0  0  0  0  0  0
    0.2840   13.7600   -3.4010 C   0  0  0  0  0  0  0  0  0  0  0  0
    1.4260   13.0380   -2.6800 C   0  0  2  0  0  0  0  0  0  0  0  0
    2.6320   12.9360   -3.6750 C   0  0  0  0  0  0  0  0  0  0  0  0
   -0.1079    9.4129   -1.7091 H   0  0  0  0  0  0  0  0  0  0  0  0
   -0.9738    9.8455   -3.2224 H   0  0  0  0  0  0  0  0  0  0  0  0
    0.2181    8.5016   -3.2224 H   0  0  0  0  0  0  0  0  0  0  0  0
    0.8744   10.8773   -4.1594 H   0  0  0  0  0  0  0  0  0  0  0  0
    2.8837    9.7412   -2.2032 H   0  0  0  0  0  0  0  0  0  0  0  0
    2.3225    8.8015   -3.6676 H   0  0  0  0  0  0  0  0  0  0  0  0
    3.5978    9.9812   -5.0536 H   0  0  0  0  0  0  0  0  0  0  0  0
    3.1022   11.5490   -4.2900 H   0  0  0  0  0  0  0  0  0  0  0  0
    4.5005    9.9874   -2.6279 H   0  0  0  0  0  0  0  0  0  0  0  0
    7.1971   10.6481   -6.0547 H   0  0  0  0  0  0  0  0  0  0  0  0
    5.5601    9.9092   -6.0860 H   0  0  0  0  0  0  0  0  0  0  0  0
    5.7389   11.6965   -6.0860 H   0  0  0  0  0  0  0  0  0  0  0  0
    7.2489   10.4161   -2.4301 H   0  0  0  0  0  0  0  0  0  0  0  0
    7.6791    9.3477   -3.8085 H   0  0  0  0  0  0  0  0  0  0  0  0
    8.1990   11.0671   -3.8085 H   0  0  0  0  0  0  0  0  0  0  0  0
    0.0838   11.5649   -1.7823 H   0  0  0  0  0  0  0  0  0  0  0  0
    1.7671   10.9458   -0.1632 H   0  0  0  0  0  0  0  0  0  0  0  0
    3.0148   10.7647   -1.4154 H   0  0  0  0  0  0  0  0  0  0  0  0
    2.7820   12.9666    0.3916 H   0  0  0  0  0  0  0  0  0  0  0  0
    3.7736   12.9846   -1.0642 H   0  0  0  0  0  0  0  0  0  0  0  0
    0.9333   13.8506    0.6913 H   0  0  0  0  0  0  0  0  0  0  0  0
   -0.0179   14.8027   -0.4983 H   0  0  0  0  0  0  0  0  0  0  0  0
   -0.1172   13.0092   -0.4983 H   0  0  0  0  0  0  0  0  0  0  0  0
    3.1874   15.0020   -2.2701 H   0  0  0  0  0  0  0  0  0  0  0  0
    3.1313   15.3627    0.2809 H   0  0  0  0  0  0  0  0  0  0  0  0
    3.5222   16.7466   -0.8685 H   0  0  0  0  0  0  0  0  0  0  0  0
    1.9299   17.3221    1.1494 H   0  0  0  0  0  0  0  0  0  0  0  0
   -0.5821   16.0124   -1.7267 H   0  0  0  0  0  0  0  0  0  0  0  0
    0.3595   18.7705   -2.7294 H   0  0  0  0  0  0  0  0  0  0  0  0
   -0.7869   17.6353   -3.5708 H   0  0  0  0  0  0  0  0  0  0  0  0
   -1.9676   19.5035   -2.4588 H   0  0  0  0  0  0  0  0  0  0  0  0
   -2.4021   17.8875   -1.7762 H   0  0  0  0  0  0  0  0  0  0  0  0
   -2.1206   19.4382    0.0333 H   0  0  0  0  0  0  0  0  0  0  0  0
    0.5420   19.9360   -0.1530 H   0  0  0  0  0  0  0  0  0  0  0  0
   -1.7424   16.9020    1.8761 H   0  0  0  0  0  0  0  0  0  0  0  0
   -2.6432   17.2895    0.3711 H   0  0  0  0  0  0  0  0  0  0  0  0
   -1.4170   15.9770    0.3711 H   0  0  0  0  0  0  0  0  0  0  0  0
   -0.5125   18.0760    2.5670 H   0  0  0  0  0  0  0  0  0  0  0  0
    1.0092   18.5840    1.7590 H   0  0  0  0  0  0  0  0  0  0  0  0
   -0.4159   19.6774    1.7590 H   0  0  0  0  0  0  0  0  0  0  0  0
    2.7514   17.7376   -2.5876 H   0  0  0  0  0  0  0  0  0  0  0  0
    2.9749   16.6157   -3.9726 H   0  0  0  0  0  0  0  0  0  0  0  0
    1.6084   17.7817   -3.9726 H   0  0  0  0  0  0  0  0  0  0  0  0
   -0.2137   15.7195   -4.1239 H   0  0  0  0  0  0  0  0  0  0  0  0
    1.4805   15.0877   -4.5308 H   0  0  0  0  0  0  0  0  0  0  0  0
   -0.5946   13.7938   -2.7400 H   0  0  0  0  0  0  0  0  0  0  0  0
    0.0496   13.2109   -4.3249 H   0  0  0  0  0  0  0  0  0  0  0  0
    3.5705   12.8566   -3.1067 H   0  0  0  0  0  0  0  0  0  0  0  0
    2.5104   12.0449   -4.3084 H   0  0  0  0  0  0  0  0  0  0  0  0
    2.6618   13.8348   -4.3084 H   0  0  0  0  0  0  0  0  0  0  0  0
  1  2  1  0
  2  3  1  0
  3  4  1  0
  4  5  1  0
  5  6  1  0
  6  7  1  0
  7  8  1  0
  7  9  1  0
  2 10  1  0
 10 11  1  0
 11 12  1  0
 12 13  1  0
 13 14  1  1
 13 15  1  0
 15 16  1  0
 16 17  1  0
 17 18  2  0
 18 19  1  0
 19 20  1  0
 20 21  1  0
 21 22  1  0
 22 23  1  0
 22 24  1  0
 24 25  1  0
 24 26  1  0
 19 27  1  0
 27 28  1  6
 27 29  1  0
 29 30  1  0
 30 31  1  0
 31 32  1  6
  7  5  1  0
 31 10  1  0
 31 13  1  0
 27 15  1  0
 24 18  1  0
  1 33  1  0
  1 34  1  0
  1 35  1  0
  2 36  1  6
  3 37  1  0
  3 38  1  0
  4 39  1  0
  4 40  1  0
  5 41  1  1
  8 42  1  0
  8 43  1  0
  8 44  1  0
  9 45  1  0
  9 46  1  0
  9 47  1  0
 10 48  1  1
 11 49  1  0
 11 50  1  0
 12 51  1  0
 12 52  1  0
 14 53  1  0
 14 54  1  0
 14 55  1  0
 15 56  1  6
 16 57  1  0
 16 58  1  0
 17 59  1  0
 19 60  1  1
 20 61  1  0
 20 62  1  0
 21 63  1  0
 21 64  1  0
 22 65  1  1
 23 66  1  0
 25 67  1  0
 25 68  1  0
 25 69  1  0
 26 70  1  0
 26 71  1  0
 26 72  1  0
 28 73  1  0
 28 74  1  0
 28 75  1  0
 29 76  1  0
 29 77  1  0
 30 78  1  0
 30 79  1  0
 32 80  1  0
 32 81  1  0
 32 82  1  0
M  END
>  <meeko>  (14) 
{"is_sidechain": [false], "intermolecular_energy": 2.731, "internal_energy": -0.839}

$$$$
EPH_relaxed_0001_pdb2pqr_Repair_391_r2_0001_out
     RDKit          3D

 82 86  0  0  0  0  0  0  0  0999 V2000
    0.4830   19.0320   -2.6310 C   0  0  0  0  0  0  0  0  0  0  0  0
    0.0000   18.0300   -1.5780 C   0  0  2  0  0  0  0  0  0  0  0  0
    0.5260   18.3690   -0.1690 C   0  0  0  0  0  0  0  0  0  0  0  0
    1.3490   19.6590   -0.1130 C   0  0  0  0  0  0  0  0  0  0  0  0
    2.3670   19.6200    0.9850 C   0  0  2  0  0  0  0  0  0  0  0  0
    3.6360   20.1940    0.6460 O   0  0  0  0  0  0  0  0  0  0  0  0
    3.6320   18.7850    0.9240 C   0  0  0  0  0  0  0  0  0  0  0  0
    3.9460   17.9290   -0.2640 C   0  0  0  0  0  0  0  0  0  0  0  0
    4.3130   18.4210    2.2060 C   0  0  0  0  0  0  0  0  0  0  0  0
    0.4280   16.6200   -1.9680 C   0  0  1  0  0  0  0  0  0  0  0  0
    1.7930   16.5920   -2.7060 C   0  0  0  0  0  0  0  0  0  0  0  0
    2.5090   15.2860   -2.2730 C   0  0  0  0  0  0  0  0  0  0  0  0
    1.4100   14.4530   -1.5730 C   0  0  1  0  0  0  0  0  0  0  0  0
    0.6140   13.7810   -2.7350 C   0  0  0  0  0  0  0  0  0  0  0  0
    1.9020   13.4010   -0.5260 C   0  0  2  0  0  0  0  0  0  0  0  0
    2.7930   12.2830   -1.0940 C   0  0  0  0  0  0  0  0  0  0  0  0
    2.0680   11.0640   -1.5600 C   0  0  0  0  0  0  0  0  0  0  0  0
    0.7910   10.7540   -1.2670 C   0  0  0  0  0  0  0  0  0  0  0  0
   -0.0300   11.6240   -0.3070 C   0  0  1  0  0  0  0  0  0  0  0  0
   -0.7680   10.7170    0.7120 C   0  0  0  0  0  0  0  0  0  0  0  0
   -1.6100    9.6400    0.0350 C   0  0  0  0  0  0  0  0  0  0  0  0
   -0.7480    8.7600   -0.8660 C   0  0  2  0  0  0  0  0  0  0  0  0
    0.1570    8.0110   -0.0490 O   0  0  0  0  0  0  0  0  0  0  0  0
    0.0510    9.5650   -1.9280 C   0  0  0  0  0  0  0  0  0  0  0  0
   -0.9220   10.1300   -2.9930 C   0  0  0  0  0  0  0  0  0  0  0  0
    0.9850    8.5760   -2.6750 C   0  0  0  0  0  0  0  0  0  0  0  0
    0.7550   12.8150    0.3930 C   0  0  1  0  0  0  0  0  0  0  0  0
    1.4450   12.3050    1.6950 C   0  0  0  0  0  0  0  0  0  0  0  0
   -0.2760   13.9190    0.8400 C   0  0  0  0  0  0  0  0  0  0  0  0
   -0.6310   14.9990   -0.2000 C   0  0  0  0  0  0  0  0  0  0  0  0
    0.6340   15.5970   -0.8230 C   0  0  2  0  0  0  0  0  0  0  0  0
    1.4440   16.3000    0.3190 C   0  0  0  0  0  0  0  0  0  0  0  0
    0.9082   19.9141   -2.1299 H   0  0  0  0  0  0  0  0  0  0  0  0
    1.2529   18.5607   -3.2596 H   0  0  0  0  0  0  0  0  0  0  0  0
   -0.3652   19.3407   -3.2596 H   0  0  0  0  0  0  0  0  0  0  0  0
   -1.0978   18.0897   -1.5435 H   0  0  0  0  0  0  0  0  0  0  0  0
   -0.3354   18.4770    0.5065 H   0  0  0  0  0  0  0  0  0  0  0  0
    1.1942   17.5482    0.1307 H   0  0  0  0  0  0  0  0  0  0  0  0
    1.8666   19.7935   -1.0743 H   0  0  0  0  0  0  0  0  0  0  0  0
    0.6624   20.4951    0.0858 H   0  0  0  0  0  0  0  0  0  0  0  0
    1.5808   19.7138    1.7487 H   0  0  0  0  0  0  0  0  0  0  0  0
    4.3062   16.9470    0.0766 H   0  0  0  0  0  0  0  0  0  0  0  0
    3.0380   17.7963   -0.8706 H   0  0  0  0  0  0  0  0  0  0  0  0
    4.7244   18.4149   -0.8706 H   0  0  0  0  0  0  0  0  0  0  0  0
    3.6964   18.7506    3.0552 H   0  0  0  0  0  0  0  0  0  0  0  0
    4.4482   17.3303    2.2525 H   0  0  0  0  0  0  0  0  0  0  0  0
    5.2950   18.9145    2.2525 H   0  0  0  0  0  0  0  0  0  0  0  0
   -0.4369   16.3285   -2.5820 H   0  0  0  0  0  0  0  0  0  0  0  0
    1.6352   16.5944   -3.7946 H   0  0  0  0  0  0  0  0  0  0  0  0
    2.3969   17.4760   -2.4532 H   0  0  0  0  0  0  0  0  0  0  0  0
    2.9035   14.7505   -3.1491 H   0  0  0  0  0  0  0  0  0  0  0  0
    3.3687   15.4799   -1.6147 H   0  0  0  0  0  0  0  0  0  0  0  0
   -0.1631   13.1250   -2.3157 H   0  0  0  0  0  0  0  0  0  0  0  0
    0.1426   14.5585   -3.3542 H   0  0  0  0  0  0  0  0  0  0  0  0
    1.3014   13.1859   -3.3542 H   0  0  0  0  0  0  0  0  0  0  0  0
    2.5548   14.0027    0.1235 H   0  0  0  0  0  0  0  0  0  0  0  0
    3.3508   12.6940   -1.9484 H   0  0  0  0  0  0  0  0  0  0  0  0
    3.4363   11.9556   -0.2640 H   0  0  0  0  0  0  0  0  0  0  0  0
    2.6240   10.3598   -2.1964 H   0  0  0  0  0  0  0  0  0  0  0  0
   -0.7626   12.1566   -0.9312 H   0  0  0  0  0  0  0  0  0  0  0  0
   -0.0209   10.2282    1.3546 H   0  0  0  0  0  0  0  0  0  0  0  0
   -1.4485   11.3551    1.2949 H   0  0  0  0  0  0  0  0  0  0  0  0
   -2.0808    9.0131    0.8066 H   0  0  0  0  0  0  0  0  0  0  0  0
   -2.3767   10.1304   -0.5827 H   0  0  0  0  0  0  0  0  0  0  0  0
   -1.4252    8.0951   -1.4221 H   0  0  0  0  0  0  0  0  0  0  0  0
   -0.2450    7.1410    0.1150 H   0  0  0  0  0  0  0  0  0  0  0  0
   -1.7688   10.6217   -2.4919 H   0  0  0  0  0  0  0  0  0  0  0  0
   -0.3930   10.8614   -3.6217 H   0  0  0  0  0  0  0  0  0  0  0  0
   -1.2950    9.3080   -3.6217 H   0  0  0  0  0  0  0  0  0  0  0  0
    1.5484    7.9794   -1.9424 H   0  0  0  0  0  0  0  0  0  0  0  0
    0.3813    7.9071   -3.3060 H   0  0  0  0  0  0  0  0  0  0  0  0
    1.6873    9.1405   -3.3060 H   0  0  0  0  0  0  0  0  0  0  0  0
    0.9109   12.6998    2.5718 H   0  0  0  0  0  0  0  0  0  0  0  0
    1.4216   11.2054    1.7158 H   0  0  0  0  0  0  0  0  0  0  0  0
    2.4893   12.6500    1.7158 H   0  0  0  0  0  0  0  0  0  0  0  0
   -1.2089   13.4087    1.1217 H   0  0  0  0  0  0  0  0  0  0  0  0
    0.2188   14.4602    1.6599 H   0  0  0  0  0  0  0  0  0  0  0  0
   -1.2437   14.5467   -0.9937 H   0  0  0  0  0  0  0  0  0  0  0  0
   -1.1870   15.8027    0.3048 H   0  0  0  0  0  0  0  0  0  0  0  0
    1.0626   15.9690    1.2963 H   0  0  0  0  0  0  0  0  0  0  0  0
    2.5077   16.0340    0.2313 H   0  0  0  0  0  0  0  0  0  0  0  0
    1.3303   17.3906    0.2313 H   0  0  0  0  0  0  0  0  0  0  0  0
  1  2  1  0
  2  3  1  0
  3  4  1  0
  4  5  1  0
  5  6  1  0
  6  7  1  0
  7  8  1  0
  7  9  1  0
  2 10  1  0
 10 11  1  0
 11 12  1  0
 12 13  1  0
 13 14  1  6
 13 15  1  0
 15 16  1  0
 16 17  1  0
 17 18  2  0
 18 19  1  0
 19 20  1  0
 20 21  1  0
 21 22  1  0
 22 23  1  0
 22 24  1  0
 24 25  1  0
 24 26  1  0
 19 27  1  0
 27 28  1  1
 27 29  1  0
 29 30  1  0
 30 31  1  0
 31 32  1  1
  7  5  1  0
 31 10  1  0
 31 13  1  0
 27 15  1  0
 24 18  1  0
  1 33  1  0
  1 34  1  0
  1 35  1  0
  2 36  1  1
  3 37  1  0
  3 38  1  0
  4 39  1  0
  4 40  1  0
  5 41  1  1
  8 42  1  0
  8 43  1  0
  8 44  1  0
  9 45  1  0
  9 46  1  0
  9 47  1  0
 10 48  1  6
 11 49  1  0
 11 50  1  0
 12 51  1  0
 12 52  1  0
 14 53  1  0
 14 54  1  0
 14 55  1  0
 15 56  1  1
 16 57  1  0
 16 58  1  0
 17 59  1  0
 19 60  1  6
 20 61  1  0
 20 62  1  0
 21 63  1  0
 21 64  1  0
 22 65  1  6
 23 66  1  0
 25 67  1  0
 25 68  1  0
 25 69  1  0
 26 70  1  0
 26 71  1  0
 26 72  1  0
 28 73  1  0
 28 74  1  0
 28 75  1  0
 29 76  1  0
 29 77  1  0
 30 78  1  0
 30 79  1  0
 32 80  1  0
 32 81  1  0
 32 82  1  0
M  END
>  <meeko>  (15) 
{"is_sidechain": [false], "intermolecular_energy": 2.731, "internal_energy": -0.839}

$$$$
EPH_relaxed_0001_pdb2pqr_Repair_391_r2_0001_out
     RDKit          3D

 82 86  0  0  0  0  0  0  0  0999 V2000
   -4.1010    7.3660   -3.5570 C   0  0  0  0  0  0  0  0  0  0  0  0
   -3.7030    7.2610   -2.0820 C   0  0  2  0  0  0  0  0  0  0  0  0
   -4.8730    6.7880   -1.1970 C   0  0  0  0  0  0  0  0  0  0  0  0
   -6.1030    6.3400   -1.9910 C   0  0  0  0  0  0  0  0  0  0  0  0
   -7.3360    7.0800   -1.5680 C   0  0  2  0  0  0  0  0  0  0  0  0
   -8.4000    6.2460   -1.0910 O   0  0  0  0  0  0  0  0  0  0  0  0
   -8.6630    6.9810   -2.2970 C   0  0  0  0  0  0  0  0  0  0  0  0
   -8.8240    6.1200   -3.5110 C   0  0  0  0  0  0  0  0  0  0  0  0
   -9.6580    8.0860   -2.1260 C   0  0  0  0  0  0  0  0  0  0  0  0
   -3.1860    8.6070   -1.5870 C   0  0  1  0  0  0  0  0  0  0  0  0
   -3.8470    9.0460   -0.2530 C   0  0  0  0  0  0  0  0  0  0  0  0
   -2.7610    9.8020    0.5570 C   0  0  0  0  0  0  0  0  0  0  0  0
   -1.6260   10.0610   -0.4610 C   0  0  1  0  0  0  0  0  0  0  0  0
   -2.0850   11.3210   -1.2610 C   0  0  0  0  0  0  0  0  0  0  0  0
   -0.1930   10.2470    0.1350 C   0  0  2  0  0  0  0  0  0  0  0  0
   -0.0260   11.4590    1.0680 C   0  0  0  0  0  0  0  0  0  0  0  0
    0.3930   12.7260    0.3990 C   0  0  0  0  0  0  0  0  0  0  0  0
    0.9010   12.8230   -0.8440 C   0  0  0  0  0  0  0  0  0  0  0  0
    1.1900   11.5680   -1.6770 C   0  0  1  0  0  0  0  0  0  0  0  0
    2.5980   11.6840   -2.3180 C   0  0  0  0  0  0  0  0  0  0  0  0
    2.7710   12.9700   -3.1210 C   0  0  0  0  0  0  0  0  0  0  0  0
    2.5330   14.1970   -2.2440 C   0  0  2  0  0  0  0  0  0  0  0  0
    3.5720   14.2720   -1.2630 O   0  0  0  0  0  0  0  0  0  0  0  0
    1.1480   14.1860   -1.5380 C   0  0  0  0  0  0  0  0  0  0  0  0
    0.0280   14.4080   -2.5840 C   0  0  0  0  0  0  0  0  0  0  0  0
    1.0920   15.4040   -0.5770 C   0  0  0  0  0  0  0  0  0  0  0  0
    0.9690   10.1790   -0.9370 C   0  0  1  0  0  0  0  0  0  0  0  0
    2.2630    9.7750   -0.1670 C   0  0  0  0  0  0  0  0  0  0  0  0
    0.7240    9.0560   -2.0140 C   0  0  0  0  0  0  0  0  0  0  0  0
   -0.7300    8.8400   -2.4750 C   0  0  0  0  0  0  0  0  0  0  0  0
   -1.6730    8.7160   -1.2740 C   0  0  2  0  0  0  0  0  0  0  0  0
   -1.2490    7.4450   -0.4620 C   0  0  0  0  0  0  0  0  0  0  0  0
   -5.1622    7.6460   -3.6314 H   0  0  0  0  0  0  0  0  0  0  0  0
   -3.4842    8.1322   -4.0496 H   0  0  0  0  0  0  0  0  0  0  0  0
   -3.9425    6.3953   -4.0496 H   0  0  0  0  0  0  0  0  0  0  0  0
   -2.9067    6.5059   -2.0066 H   0  0  0  0  0  0  0  0  0  0  0  0
   -4.5264    5.9412   -0.5864 H   0  0  0  0  0  0  0  0  0  0  0  0
   -5.1813    7.6483   -0.5848 H   0  0  0  0  0  0  0  0  0  0  0  0
   -5.9244    6.5267   -3.0602 H   0  0  0  0  0  0  0  0  0  0  0  0
   -6.2634    5.2688   -1.7992 H   0  0  0  0  0  0  0  0  0  0  0  0
   -6.7355    7.9424   -1.2429 H   0  0  0  0  0  0  0  0  0  0  0  0
   -9.0180    5.0824   -3.2015 H   0  0  0  0  0  0  0  0  0  0  0  0
   -9.6690    6.4875   -4.1118 H   0  0  0  0  0  0  0  0  0  0  0  0
   -7.9033    6.1574   -4.1118 H   0  0  0  0  0  0  0  0  0  0  0  0
   -9.8225    8.2686   -1.0538 H   0  0  0  0  0  0  0  0  0  0  0  0
   -9.2740    9.0017   -2.5993 H   0  0  0  0  0  0  0  0  0  0  0  0
  -10.6088    7.7997   -2.5993 H   0  0  0  0  0  0  0  0  0  0  0  0
   -3.4361    9.2323   -2.4568 H   0  0  0  0  0  0  0  0  0  0  0  0
   -4.7007    9.7100   -0.4538 H   0  0  0  0  0  0  0  0  0  0  0  0
   -4.2233    8.1767    0.3062 H   0  0  0  0  0  0  0  0  0  0  0  0
   -3.1574   10.7512    0.9467 H   0  0  0  0  0  0  0  0  0  0  0  0
   -2.4161    9.2282    1.4298 H   0  0  0  0  0  0  0  0  0  0  0  0
   -2.3746   12.1161   -0.5582 H   0  0  0  0  0  0  0  0  0  0  0  0
   -1.2580   11.6747   -1.8942 H   0  0  0  0  0  0  0  0  0  0  0  0
   -2.9457   11.0598   -1.8942 H   0  0  0  0  0  0  0  0  0  0  0  0
   -0.0882    9.3596    0.7765 H   0  0  0  0  0  0  0  0  0  0  0  0
   -0.9901   11.6402    1.5656 H   0  0  0  0  0  0  0  0  0  0  0  0
    0.7863   11.1986    1.7625 H   0  0  0  0  0  0  0  0  0  0  0  0
    0.2769   13.6591    0.9698 H   0  0  0  0  0  0  0  0  0  0  0  0
    0.4227   11.5428   -2.4648 H   0  0  0  0  0  0  0  0  0  0  0  0
    3.3525   11.6637   -1.5178 H   0  0  0  0  0  0  0  0  0  0  0  0
    2.7201   10.8385   -3.0110 H   0  0  0  0  0  0  0  0  0  0  0  0
    3.7940   13.0082   -3.5236 H   0  0  0  0  0  0  0  0  0  0  0  0
    2.0354   12.9749   -3.9389 H   0  0  0  0  0  0  0  0  0  0  0  0
    2.5434   15.0788   -2.9015 H   0  0  0  0  0  0  0  0  0  0  0  0
    3.1660   14.1250   -0.3920 H   0  0  0  0  0  0  0  0  0  0  0  0
   -0.9244   14.5968   -2.0670 H   0  0  0  0  0  0  0  0  0  0  0  0
    0.2810   15.2735   -3.2140 H   0  0  0  0  0  0  0  0  0  0  0  0
   -0.0682   13.5115   -3.2140 H   0  0  0  0  0  0  0  0  0  0  0  0
    1.1083   15.0504    0.4645 H   0  0  0  0  0  0  0  0  0  0  0  0
    1.9612   16.0536   -0.7573 H   0  0  0  0  0  0  0  0  0  0  0  0
    0.1668   15.9711   -0.7573 H   0  0  0  0  0  0  0  0  0  0  0  0
    2.0784    9.8326    0.9159 H   0  0  0  0  0  0  0  0  0  0  0  0
    2.5441    8.7463   -0.4368 H   0  0  0  0  0  0  0  0  0  0  0  0
    3.0795   10.4610   -0.4368 H   0  0  0  0  0  0  0  0  0  0  0  0
    1.3202    9.3114   -2.9024 H   0  0  0  0  0  0  0  0  0  0  0  0
    1.0116    8.1162   -1.5199 H   0  0  0  0  0  0  0  0  0  0  0  0
   -1.0430    9.6956   -3.0915 H   0  0  0  0  0  0  0  0  0  0  0  0
   -0.7787    7.9079   -3.0571 H   0  0  0  0  0  0  0  0  0  0  0  0
   -1.3199    7.6574    0.6150 H   0  0  0  0  0  0  0  0  0  0  0  0
   -1.9167    6.6084   -0.7154 H   0  0  0  0  0  0  0  0  0  0  0  0
   -0.2127    7.1768   -0.7154 H   0  0  0  0  0  0  0  0  0  0  0  0
  1  2  1  0
  2  3  1  0
  3  4  1  0
  4  5  1  0
  5  6  1  0
  6  7  1  0
  7  8  1  0
  7  9  1  0
  2 10  1  0
 10 11  1  0
 11 12  1  0
 12 13  1  0
 13 14  1  6
 13 15  1  0
 15 16  1  0
 16 17  1  0
 17 18  2  0
 18 19  1  0
 19 20  1  0
 20 21  1  0
 21 22  1  0
 22 23  1  0
 22 24  1  0
 24 25  1  0
 24 26  1  0
 19 27  1  0
 27 28  1  1
 27 29  1  0
 29 30  1  0
 30 31  1  0
 31 32  1  1
  7  5  1  0
 31 10  1  0
 31 13  1  0
 27 15  1  0
 24 18  1  0
  1 33  1  0
  1 34  1  0
  1 35  1  0
  2 36  1  6
  3 37  1  0
  3 38  1  0
  4 39  1  0
  4 40  1  0
  5 41  1  1
  8 42  1  0
  8 43  1  0
  8 44  1  0
  9 45  1  0
  9 46  1  0
  9 47  1  0
 10 48  1  6
 11 49  1  0
 11 50  1  0
 12 51  1  0
 12 52  1  0
 14 53  1  0
 14 54  1  0
 14 55  1  0
 15 56  1  1
 16 57  1  0
 16 58  1  0
 17 59  1  0
 19 60  1  6
 20 61  1  0
 20 62  1  0
 21 63  1  0
 21 64  1  0
 22 65  1  6
 23 66  1  0
 25 67  1  0
 25 68  1  0
 25 69  1  0
 26 70  1  0
 26 71  1  0
 26 72  1  0
 28 73  1  0
 28 74  1  0
 28 75  1  0
 29 76  1  0
 29 77  1  0
 30 78  1  0
 30 79  1  0
 32 80  1  0
 32 81  1  0
 32 82  1  0
M  END
>  <meeko>  (16) 
{"is_sidechain": [false], "intermolecular_energy": 2.731, "internal_energy": -0.839}

$$$$
EPH_relaxed_0001_pdb2pqr_Repair_391_r2_0001_out
     RDKit          3D

 82 86  0  0  0  0  0  0  0  0999 V2000
   -2.0840    7.7680   -2.1680 C   0  0  0  0  0  0  0  0  0  0  0  0
   -2.2910    8.4550   -0.8150 C   0  0  2  0  0  0  0  0  0  0  0  0
   -3.7720    8.4610   -0.3880 C   0  0  0  0  0  0  0  0  0  0  0  0
   -4.7150    7.8460   -1.4250 C   0  0  0  0  0  0  0  0  0  0  0  0
   -5.8690    7.1430   -0.7780 C   0  0  2  0  0  0  0  0  0  0  0  0
   -6.5740    6.2340   -1.6340 O   0  0  0  0  0  0  0  0  0  0  0  0
   -7.3160    7.3740   -1.1710 C   0  0  0  0  0  0  0  0  0  0  0  0
   -7.6860    8.3400   -2.2530 C   0  0  0  0  0  0  0  0  0  0  0  0
   -8.3890    7.0340   -0.1840 C   0  0  0  0  0  0  0  0  0  0  0  0
   -1.7590    9.8830   -0.8700 C   0  0  1  0  0  0  0  0  0  0  0  0
   -1.3390   10.4180    0.5250 C   0  0  0  0  0  0  0  0  0  0  0  0
   -0.1110   11.3370    0.3000 C   0  0  0  0  0  0  0  0  0  0  0  0
   -0.0700   11.5660   -1.2300 C   0  0  1  0  0  0  0  0  0  0  0  0
   -1.1190   12.6900   -1.4960 C   0  0  0  0  0  0  0  0  0  0  0  0
    1.3260   11.9230   -1.8380 C   0  0  2  0  0  0  0  0  0  0  0  0
    1.9390   13.2400   -1.3330 C   0  0  0  0  0  0  0  0  0  0  0  0
    1.5940   14.4520   -2.1340 C   0  0  0  0  0  0  0  0  0  0  0  0
    1.0600   14.4470   -3.3690 C   0  0  0  0  0  0  0  0  0  0  0  0
    0.8410   13.1320   -4.1270 C   0  0  1  0  0  0  0  0  0  0  0  0
    1.3570   13.2800   -5.5830 C   0  0  0  0  0  0  0  0  0  0  0  0
    0.7430   14.4780   -6.3020 C   0  0  0  0  0  0  0  0  0  0  0  0
    1.0320   15.7730   -5.5490 C   0  0  2  0  0  0  0  0  0  0  0  0
    2.4380   16.0340   -5.6040 O   0  0  0  0  0  0  0  0  0  0  0  0
    0.5650   15.7380   -4.0670 C   0  0  0  0  0  0  0  0  0  0  0  0
   -0.9830   15.7590   -4.0090 C   0  0  0  0  0  0  0  0  0  0  0  0
    1.0420   17.0490   -3.3840 C   0  0  0  0  0  0  0  0  0  0  0  0
    1.3910   11.8220   -3.4160 C   0  0  1  0  0  0  0  0  0  0  0  0
    2.8890   11.6030   -3.7870 C   0  0  0  0  0  0  0  0  0  0  0  0
    0.6100   10.5710   -3.9670 C   0  0  0  0  0  0  0  0  0  0  0  0
   -0.7010   10.1970   -3.2490 C   0  0  0  0  0  0  0  0  0  0  0  0
   -0.4970   10.1380   -1.7320 C   0  0  2  0  0  0  0  0  0  0  0  0
    0.5370    9.0010   -1.4320 C   0  0  0  0  0  0  0  0  0  0  0  0
   -1.7701    6.7262   -2.0060 H   0  0  0  0  0  0  0  0  0  0  0  0
   -3.0266    7.7830   -2.7349 H   0  0  0  0  0  0  0  0  0  0  0  0
   -1.3066    8.3013   -2.7349 H   0  0  0  0  0  0  0  0  0  0  0  0
   -1.7325    7.8790   -0.0625 H   0  0  0  0  0  0  0  0  0  0  0  0
   -3.8657    7.8905    0.5478 H   0  0  0  0  0  0  0  0  0  0  0  0
   -4.0677    9.5139   -0.2698 H   0  0  0  0  0  0  0  0  0  0  0  0
   -5.1029    8.6461   -2.0726 H   0  0  0  0  0  0  0  0  0  0  0  0
   -4.1470    7.1065   -2.0085 H   0  0  0  0  0  0  0  0  0  0  0  0
   -5.3583    7.1524    0.1962 H   0  0  0  0  0  0  0  0  0  0  0  0
   -8.0448    9.2766   -1.8014 H   0  0  0  0  0  0  0  0  0  0  0  0
   -6.8038    8.5479   -2.8764 H   0  0  0  0  0  0  0  0  0  0  0  0
   -8.4813    7.9054   -2.8764 H   0  0  0  0  0  0  0  0  0  0  0  0
   -8.0000    7.1573    0.8375 H   0  0  0  0  0  0  0  0  0  0  0  0
   -9.2490    7.7036   -0.3321 H   0  0  0  0  0  0  0  0  0  0  0  0
   -8.7064    5.9913   -0.3321 H   0  0  0  0  0  0  0  0  0  0  0  0
   -2.6283   10.3874   -1.3170 H   0  0  0  0  0  0  0  0  0  0  0  0
   -2.1633   10.9906    0.9751 H   0  0  0  0  0  0  0  0  0  0  0  0
   -1.0939    9.5912    1.2079 H   0  0  0  0  0  0  0  0  0  0  0  0
   -0.2374   12.2913    0.8323 H   0  0  0  0  0  0  0  0  0  0  0  0
    0.8196   10.8903    0.6801 H   0  0  0  0  0  0  0  0  0  0  0  0
   -1.4861   13.0834   -0.5366 H   0  0  0  0  0  0  0  0  0  0  0  0
   -0.6486   13.5023   -2.0695 H   0  0  0  0  0  0  0  0  0  0  0  0
   -1.9618   12.2767   -2.0695 H   0  0  0  0  0  0  0  0  0  0  0  0
    1.9682   11.1230   -1.4410 H   0  0  0  0  0  0  0  0  0  0  0  0
    1.5915   13.4035   -0.3022 H   0  0  0  0  0  0  0  0  0  0  0  0
    3.0293   13.1201   -1.4164 H   0  0  0  0  0  0  0  0  0  0  0  0
    1.7933   15.4319   -1.6756 H   0  0  0  0  0  0  0  0  0  0  0  0
   -0.2458   12.9622   -4.1317 H   0  0  0  0  0  0  0  0  0  0  0  0
    2.4496   13.4051   -5.5590 H   0  0  0  0  0  0  0  0  0  0  0  0
    1.0655   12.3740   -6.1345 H   0  0  0  0  0  0  0  0  0  0  0  0
    1.1687   14.5474   -7.3139 H   0  0  0  0  0  0  0  0  0  0  0  0
   -0.3467   14.3367   -6.3518 H   0  0  0  0  0  0  0  0  0  0  0  0
    0.4593   16.5741   -6.0391 H   0  0  0  0  0  0  0  0  0  0  0  0
    2.5830   16.7300   -6.2670 H   0  0  0  0  0  0  0  0  0  0  0  0
   -1.3105   15.7634   -2.9589 H   0  0  0  0  0  0  0  0  0  0  0  0
   -1.3566   16.6623   -4.5135 H   0  0  0  0  0  0  0  0  0  0  0  0
   -1.3810   14.8662   -4.5135 H   0  0  0  0  0  0  0  0  0  0  0  0
    0.9987   16.9299   -2.2913 H   0  0  0  0  0  0  0  0  0  0  0  0
    2.0766   17.2656   -3.6885 H   0  0  0  0  0  0  0  0  0  0  0  0
    0.3885   17.8798   -3.6885 H   0  0  0  0  0  0  0  0  0  0  0  0
    3.4856   11.5158   -2.8670 H   0  0  0  0  0  0  0  0  0  0  0  0
    2.9893   10.6806   -4.3779 H   0  0  0  0  0  0  0  0  0  0  0  0
    3.2492   12.4580   -4.3779 H   0  0  0  0  0  0  0  0  0  0  0  0
    0.3669   10.7688   -5.0214 H   0  0  0  0  0  0  0  0  0  0  0  0
    1.2824    9.7165   -3.8005 H   0  0  0  0  0  0  0  0  0  0  0  0
   -1.4662   10.9526   -3.4802 H   0  0  0  0  0  0  0  0  0  0  0  0
   -1.0221    9.2048   -3.5988 H   0  0  0  0  0  0  0  0  0  0  0  0
    0.6454    8.8818   -0.3439 H   0  0  0  0  0  0  0  0  0  0  0  0
    0.1815    8.0570   -1.8707 H   0  0  0  0  0  0  0  0  0  0  0  0
    1.5104    9.2655   -1.8707 H   0  0  0  0  0  0  0  0  0  0  0  0
  1  2  1  0
  2  3  1  0
  3  4  1  0
  4  5  1  0
  5  6  1  0
  6  7  1  0
  7  8  1  0
  7  9  1  0
  2 10  1  0
 10 11  1  0
 11 12  1  0
 12 13  1  0
 13 14  1  1
 13 15  1  0
 15 16  1  0
 16 17  1  0
 17 18  2  0
 18 19  1  0
 19 20  1  0
 20 21  1  0
 21 22  1  0
 22 23  1  0
 22 24  1  0
 24 25  1  0
 24 26  1  0
 19 27  1  0
 27 28  1  1
 27 29  1  0
 29 30  1  0
 30 31  1  0
 31 32  1  6
  7  5  1  0
 31 10  1  0
 31 13  1  0
 27 15  1  0
 24 18  1  0
  1 33  1  0
  1 34  1  0
  1 35  1  0
  2 36  1  1
  3 37  1  0
  3 38  1  0
  4 39  1  0
  4 40  1  0
  5 41  1  1
  8 42  1  0
  8 43  1  0
  8 44  1  0
  9 45  1  0
  9 46  1  0
  9 47  1  0
 10 48  1  6
 11 49  1  0
 11 50  1  0
 12 51  1  0
 12 52  1  0
 14 53  1  0
 14 54  1  0
 14 55  1  0
 15 56  1  1
 16 57  1  0
 16 58  1  0
 17 59  1  0
 19 60  1  6
 20 61  1  0
 20 62  1  0
 21 63  1  0
 21 64  1  0
 22 65  1  6
 23 66  1  0
 25 67  1  0
 25 68  1  0
 25 69  1  0
 26 70  1  0
 26 71  1  0
 26 72  1  0
 28 73  1  0
 28 74  1  0
 28 75  1  0
 29 76  1  0
 29 77  1  0
 30 78  1  0
 30 79  1  0
 32 80  1  0
 32 81  1  0
 32 82  1  0
M  END
>  <meeko>  (17) 
{"is_sidechain": [false], "intermolecular_energy": 2.731, "internal_energy": -0.839}

$$$$
EPH_relaxed_0001_pdb2pqr_Repair_391_r2_0001_out
     RDKit          3D

 82 86  0  0  0  0  0  0  0  0999 V2000
  -13.2180    6.1610    0.3410 C   0  0  0  0  0  0  0  0  0  0  0  0
  -13.0110    7.6330   -0.0280 C   0  0  2  0  0  0  0  0  0  0  0  0
  -14.2860    8.2680   -0.6190 C   0  0  0  0  0  0  0  0  0  0  0  0
  -15.2870    7.2460   -1.1630 C   0  0  0  0  0  0  0  0  0  0  0  0
  -15.0610    6.9670   -2.6180 C   0  0  2  0  0  0  0  0  0  0  0  0
  -13.8240    7.4720   -3.1390 O   0  0  0  0  0  0  0  0  0  0  0  0
  -15.0230    8.0490   -3.6810 C   0  0  0  0  0  0  0  0  0  0  0  0
  -15.2160    9.4920   -3.3330 C   0  0  0  0  0  0  0  0  0  0  0  0
  -15.2870    7.6640   -5.1030 C   0  0  0  0  0  0  0  0  0  0  0  0
  -11.8580    7.7640   -1.0160 C   0  0  1  0  0  0  0  0  0  0  0  0
  -11.9350    9.0670   -1.8550 C   0  0  0  0  0  0  0  0  0  0  0  0
  -10.4760    9.5350   -2.0920 C   0  0  0  0  0  0  0  0  0  0  0  0
   -9.6070    8.3250   -1.6740 C   0  0  1  0  0  0  0  0  0  0  0  0
   -9.6330    7.3680   -2.9070 C   0  0  0  0  0  0  0  0  0  0  0  0
   -8.1440    8.6480   -1.2250 C   0  0  2  0  0  0  0  0  0  0  0  0
   -7.2540    9.2820   -2.3080 C   0  0  0  0  0  0  0  0  0  0  0  0
   -6.4840    8.3170   -3.1470 C   0  0  0  0  0  0  0  0  0  0  0  0
   -6.2830    7.0180   -2.8590 C   0  0  0  0  0  0  0  0  0  0  0  0
   -6.7740    6.4190   -1.5350 C   0  0  1  0  0  0  0  0  0  0  0  0
   -5.6450    5.5620   -0.9040 C   0  0  0  0  0  0  0  0  0  0  0  0
   -5.1110    4.5010   -1.8620 C   0  0  0  0  0  0  0  0  0  0  0  0
   -4.5790    5.1400   -3.1420 C   0  0  2  0  0  0  0  0  0  0  0  0
   -3.4200    5.9160   -2.8230 O   0  0  0  0  0  0  0  0  0  0  0  0
   -5.6270    6.0360   -3.8610 C   0  0  0  0  0  0  0  0  0  0  0  0
   -6.7390    5.1480   -4.4710 C   0  0  0  0  0  0  0  0  0  0  0  0
   -4.9210    6.7300   -5.0570 C   0  0  0  0  0  0  0  0  0  0  0  0
   -7.4090    7.4470   -0.5030 C   0  0  1  0  0  0  0  0  0  0  0  0
   -6.2870    8.0780    0.3780 C   0  0  0  0  0  0  0  0  0  0  0  0
   -8.3600    6.6670    0.4800 C   0  0  0  0  0  0  0  0  0  0  0  0
   -9.8230    6.4850    0.0330 C   0  0  0  0  0  0  0  0  0  0  0  0
  -10.4230    7.8150   -0.4320 C   0  0  2  0  0  0  0  0  0  0  0  0
  -10.4310    8.7920    0.7940 C   0  0  0  0  0  0  0  0  0  0  0  0
  -13.2328    6.0560    1.4359 H   0  0  0  0  0  0  0  0  0  0  0  0
  -14.1743    5.8100   -0.0739 H   0  0  0  0  0  0  0  0  0  0  0  0
  -12.3956    5.5598   -0.0739 H   0  0  0  0  0  0  0  0  0  0  0  0
  -12.7704    8.1757    0.8980 H   0  0  0  0  0  0  0  0  0  0  0  0
  -14.7809    8.8525    0.1706 H   0  0  0  0  0  0  0  0  0  0  0  0
  -13.9704    8.8922   -1.4680 H   0  0  0  0  0  0  0  0  0  0  0  0
  -15.1797    6.3074   -0.5994 H   0  0  0  0  0  0  0  0  0  0  0  0
  -16.2985    7.6626   -1.0474 H   0  0  0  0  0  0  0  0  0  0  0  0
  -15.6180    6.0210   -2.5477 H   0  0  0  0  0  0  0  0  0  0  0  0
  -15.2313    9.6065   -2.2391 H   0  0  0  0  0  0  0  0  0  0  0  0
  -14.3890   10.0840   -3.7521 H   0  0  0  0  0  0  0  0  0  0  0  0
  -16.1695    9.8459   -3.7521 H   0  0  0  0  0  0  0  0  0  0  0  0
  -15.9089    6.7570   -5.1279 H   0  0  0  0  0  0  0  0  0  0  0  0
  -15.8138    8.4839   -5.6131 H   0  0  0  0  0  0  0  0  0  0  0  0
  -14.3323    7.4681   -5.6131 H   0  0  0  0  0  0  0  0  0  0  0  0
  -11.9992    6.8350   -1.5879 H   0  0  0  0  0  0  0  0  0  0  0  0
  -12.4301    8.8690   -2.8171 H   0  0  0  0  0  0  0  0  0  0  0  0
  -12.5168    9.8396   -1.3310 H   0  0  0  0  0  0  0  0  0  0  0  0
  -10.3144    9.7819   -3.1517 H   0  0  0  0  0  0  0  0  0  0  0  0
  -10.2305   10.4427   -1.5213 H   0  0  0  0  0  0  0  0  0  0  0  0
   -9.6614    6.3244   -2.5606 H   0  0  0  0  0  0  0  0  0  0  0  0
  -10.5258    7.5770   -3.5146 H   0  0  0  0  0  0  0  0  0  0  0  0
   -8.7302    7.5282   -3.5146 H   0  0  0  0  0  0  0  0  0  0  0  0
   -8.2963    9.4314   -0.4680 H   0  0  0  0  0  0  0  0  0  0  0  0
   -7.8991    9.8727   -2.9750 H   0  0  0  0  0  0  0  0  0  0  0  0
   -6.5052    9.8837   -1.7721 H   0  0  0  0  0  0  0  0  0  0  0  0
   -6.0437    8.7001   -4.0794 H   0  0  0  0  0  0  0  0  0  0  0  0
   -7.6307    5.7779   -1.7901 H   0  0  0  0  0  0  0  0  0  0  0  0
   -4.8168    6.2264   -0.6164 H   0  0  0  0  0  0  0  0  0  0  0  0
   -6.0682    5.0419   -0.0320 H   0  0  0  0  0  0  0  0  0  0  0  0
   -4.2968    3.9488   -1.3700 H   0  0  0  0  0  0  0  0  0  0  0  0
   -5.9335    3.8197   -2.1253 H   0  0  0  0  0  0  0  0  0  0  0  0
   -4.3318    4.3258   -3.8391 H   0  0  0  0  0  0  0  0  0  0  0  0
   -2.6410    5.3530   -2.9630 H   0  0  0  0  0  0  0  0  0  0  0  0
   -7.3216    4.6827   -3.6623 H   0  0  0  0  0  0  0  0  0  0  0  0
   -7.4032    5.7670   -5.0921 H   0  0  0  0  0  0  0  0  0  0  0  0
   -6.2823    4.3634   -5.0921 H   0  0  0  0  0  0  0  0  0  0  0  0
   -4.1845    7.4539   -4.6782 H   0  0  0  0  0  0  0  0  0  0  0  0
   -4.4095    5.9734   -5.6701 H   0  0  0  0  0  0  0  0  0  0  0  0
   -5.6687    7.2544   -5.6701 H   0  0  0  0  0  0  0  0  0  0  0  0
   -6.5338    7.9392    1.4409 H   0  0  0  0  0  0  0  0  0  0  0  0
   -5.3277    7.5870    0.1572 H   0  0  0  0  0  0  0  0  0  0  0  0
   -6.2082    9.1527    0.1572 H   0  0  0  0  0  0  0  0  0  0  0  0
   -7.9316    5.6654    0.6326 H   0  0  0  0  0  0  0  0  0  0  0  0
   -8.4111    7.2895    1.3855 H   0  0  0  0  0  0  0  0  0  0  0  0
   -9.8587    5.7642   -0.7972 H   0  0  0  0  0  0  0  0  0  0  0  0
  -10.4080    6.1160    0.8884 H   0  0  0  0  0  0  0  0  0  0  0  0
  -10.4262    8.2095    1.7271 H   0  0  0  0  0  0  0  0  0  0  0  0
   -9.5381    9.4334    0.7576 H   0  0  0  0  0  0  0  0  0  0  0  0
  -11.3343    9.4187    0.7576 H   0  0  0  0  0  0  0  0  0  0  0  0
  1  2  1  0
  2  3  1  0
  3  4  1  0
  4  5  1  0
  5  6  1  0
  6  7  1  0
  7  8  1  0
  7  9  1  0
  2 10  1  0
 10 11  1  0
 11 12  1  0
 12 13  1  0
 13 14  1  6
 13 15  1  0
 15 16  1  0
 16 17  1  0
 17 18  2  0
 18 19  1  0
 19 20  1  0
 20 21  1  0
 21 22  1  0
 22 23  1  0
 22 24  1  0
 24 25  1  0
 24 26  1  0
 19 27  1  0
 27 28  1  1
 27 29  1  0
 29 30  1  0
 30 31  1  0
 31 32  1  1
  7  5  1  0
 31 10  1  0
 31 13  1  0
 27 15  1  0
 24 18  1  0
  1 33  1  0
  1 34  1  0
  1 35  1  0
  2 36  1  1
  3 37  1  0
  3 38  1  0
  4 39  1  0
  4 40  1  0
  5 41  1  6
  8 42  1  0
  8 43  1  0
  8 44  1  0
  9 45  1  0
  9 46  1  0
  9 47  1  0
 10 48  1  6
 11 49  1  0
 11 50  1  0
 12 51  1  0
 12 52  1  0
 14 53  1  0
 14 54  1  0
 14 55  1  0
 15 56  1  1
 16 57  1  0
 16 58  1  0
 17 59  1  0
 19 60  1  6
 20 61  1  0
 20 62  1  0
 21 63  1  0
 21 64  1  0
 22 65  1  6
 23 66  1  0
 25 67  1  0
 25 68  1  0
 25 69  1  0
 26 70  1  0
 26 71  1  0
 26 72  1  0
 28 73  1  0
 28 74  1  0
 28 75  1  0
 29 76  1  0
 29 77  1  0
 30 78  1  0
 30 79  1  0
 32 80  1  0
 32 81  1  0
 32 82  1  0
M  END
>  <meeko>  (18) 
{"is_sidechain": [false], "intermolecular_energy": 2.731, "internal_energy": -0.839}

$$$$
EPH_relaxed_0001_pdb2pqr_Repair_391_r2_0001_out
     RDKit          3D

 82 86  0  0  0  0  0  0  0  0999 V2000
  -14.7340    8.9480    1.0150 C   0  0  0  0  0  0  0  0  0  0  0  0
  -13.9130    9.3810   -0.2020 C   0  0  2  0  0  0  0  0  0  0  0  0
  -14.2980    8.5970   -1.4730 C   0  0  0  0  0  0  0  0  0  0  0  0
  -15.2870    9.3380   -2.3770 C   0  0  0  0  0  0  0  0  0  0  0  0
  -14.5830   10.1840   -3.3940 C   0  0  2  0  0  0  0  0  0  0  0  0
  -13.4640   10.9220   -2.8860 O   0  0  0  0  0  0  0  0  0  0  0  0
  -14.5750   11.7000   -3.3590 C   0  0  0  0  0  0  0  0  0  0  0  0
  -15.2870   12.4600   -2.2850 C   0  0  0  0  0  0  0  0  0  0  0  0
  -14.2940   12.4430   -4.6280 C   0  0  0  0  0  0  0  0  0  0  0  0
  -12.4260    9.2080    0.0860 C   0  0  1  0  0  0  0  0  0  0  0  0
  -12.1140    9.1600    1.6050 C   0  0  0  0  0  0  0  0  0  0  0  0
  -10.9340    8.1710    1.7890 C   0  0  0  0  0  0  0  0  0  0  0  0
  -10.3930    7.9390    0.3580 C   0  0  1  0  0  0  0  0  0  0  0  0
   -9.4800    9.1720    0.0710 C   0  0  0  0  0  0  0  0  0  0  0  0
   -9.6380    6.5920    0.1150 C   0  0  2  0  0  0  0  0  0  0  0  0
   -8.3550    6.4040    0.9420 C   0  0  0  0  0  0  0  0  0  0  0  0
   -7.1020    6.8980    0.2970 C   0  0  0  0  0  0  0  0  0  0  0  0
   -6.9630    7.2080   -1.0060 C   0  0  0  0  0  0  0  0  0  0  0  0
   -8.1120    6.9780   -1.9970 C   0  0  1  0  0  0  0  0  0  0  0  0
   -7.5640    6.2840   -3.2720 C   0  0  0  0  0  0  0  0  0  0  0  0
   -6.3980    7.0440   -3.8960 C   0  0  0  0  0  0  0  0  0  0  0  0
   -5.2530    7.2020   -2.8990 C   0  0  2  0  0  0  0  0  0  0  0  0
   -4.7020    5.9110   -2.6220 O   0  0  0  0  0  0  0  0  0  0  0  0
   -5.6880    7.8810   -1.5700 C   0  0  0  0  0  0  0  0  0  0  0  0
   -6.0000    9.3760   -1.8260 C   0  0  0  0  0  0  0  0  0  0  0  0
   -4.4760    7.8500   -0.6000 C   0  0  0  0  0  0  0  0  0  0  0  0
   -9.3980    6.2500   -1.4110 C   0  0  1  0  0  0  0  0  0  0  0  0
   -9.2210    4.7040   -1.4990 C   0  0  0  0  0  0  0  0  0  0  0  0
  -10.6420    6.6060   -2.3080 C   0  0  0  0  0  0  0  0  0  0  0  0
  -11.4180    7.8870   -1.9430 C   0  0  0  0  0  0  0  0  0  0  0  0
  -11.7440    7.9230   -0.4470 C   0  0  2  0  0  0  0  0  0  0  0  0
  -12.6800    6.7070   -0.1310 C   0  0  0  0  0  0  0  0  0  0  0  0
  -14.2013    9.2290    1.9355 H   0  0  0  0  0  0  0  0  0  0  0  0
  -15.7144    9.4464    0.9921 H   0  0  0  0  0  0  0  0  0  0  0  0
  -14.8764    7.8575    0.9921 H   0  0  0  0  0  0  0  0  0  0  0  0
  -14.1350   10.4419   -0.3895 H   0  0  0  0  0  0  0  0  0  0  0  0
  -13.3823    8.3984   -2.0493 H   0  0  0  0  0  0  0  0  0  0  0  0
  -14.7946    7.6727   -1.1426 H   0  0  0  0  0  0  0  0  0  0  0  0
  -15.9138    8.6003   -2.8995 H   0  0  0  0  0  0  0  0  0  0  0  0
  -15.8988    9.9992   -1.7458 H   0  0  0  0  0  0  0  0  0  0  0  0
  -14.8219    9.4659   -4.1923 H   0  0  0  0  0  0  0  0  0  0  0  0
  -14.9525   12.1029   -1.2998 H   0  0  0  0  0  0  0  0  0  0  0  0
  -15.0606   13.5320   -2.3827 H   0  0  0  0  0  0  0  0  0  0  0  0
  -16.3715   12.3039   -2.3827 H   0  0  0  0  0  0  0  0  0  0  0  0
  -13.9142   13.4472   -4.3885 H   0  0  0  0  0  0  0  0  0  0  0  0
  -13.5406   11.8961   -5.2139 H   0  0  0  0  0  0  0  0  0  0  0  0
  -15.2207   12.5316   -5.2139 H   0  0  0  0  0  0  0  0  0  0  0  0
  -12.0316   10.0896   -0.4406 H   0  0  0  0  0  0  0  0  0  0  0  0
  -11.8298   10.1598    1.9650 H   0  0  0  0  0  0  0  0  0  0  0  0
  -12.9945    8.8350    2.1787 H   0  0  0  0  0  0  0  0  0  0  0  0
  -10.1565    8.6093    2.4319 H   0  0  0  0  0  0  0  0  0  0  0  0
  -11.2462    7.2344    2.2741 H   0  0  0  0  0  0  0  0  0  0  0  0
   -9.1520    9.6149    1.0230 H   0  0  0  0  0  0  0  0  0  0  0  0
   -8.6005    8.8506   -0.5061 H   0  0  0  0  0  0  0  0  0  0  0  0
  -10.0441    9.9195   -0.5061 H   0  0  0  0  0  0  0  0  0  0  0  0
  -10.3519    5.8491    0.5002 H   0  0  0  0  0  0  0  0  0  0  0  0
   -8.4821    6.9413    1.8934 H   0  0  0  0  0  0  0  0  0  0  0  0
   -8.2273    5.3181    1.0628 H   0  0  0  0  0  0  0  0  0  0  0  0
   -6.2181    7.0188    0.9405 H   0  0  0  0  0  0  0  0  0  0  0  0
   -8.4989    7.9758   -2.2515 H   0  0  0  0  0  0  0  0  0  0  0  0
   -7.2231    5.2730   -3.0044 H   0  0  0  0  0  0  0  0  0  0  0  0
   -8.3775    6.2542   -4.0119 H   0  0  0  0  0  0  0  0  0  0  0  0
   -6.0362    6.4898   -4.7746 H   0  0  0  0  0  0  0  0  0  0  0  0
   -6.7483    8.0446   -4.1894 H   0  0  0  0  0  0  0  0  0  0  0  0
   -4.5036    7.8633   -3.3585 H   0  0  0  0  0  0  0  0  0  0  0  0
   -5.4140    5.2580   -2.7280 H   0  0  0  0  0  0  0  0  0  0  0  0
   -6.1089    9.8978   -0.8638 H   0  0  0  0  0  0  0  0  0  0  0  0
   -5.1772    9.8296   -2.3980 H   0  0  0  0  0  0  0  0  0  0  0  0
   -6.9356    9.4626   -2.3980 H   0  0  0  0  0  0  0  0  0  0  0  0
   -4.8375    7.8592    0.4389 H   0  0  0  0  0  0  0  0  0  0  0  0
   -3.8889    6.9365   -0.7758 H   0  0  0  0  0  0  0  0  0  0  0  0
   -3.8430    8.7322   -0.7758 H   0  0  0  0  0  0  0  0  0  0  0  0
   -9.1727    4.2821   -0.4843 H   0  0  0  0  0  0  0  0  0  0  0  0
  -10.0750    4.2672   -2.0374 H   0  0  0  0  0  0  0  0  0  0  0  0
   -8.2904    4.4715   -2.0374 H   0  0  0  0  0  0  0  0  0  0  0  0
  -10.2855    6.7163   -3.3428 H   0  0  0  0  0  0  0  0  0  0  0  0
  -11.3549    5.7830   -2.1514 H   0  0  0  0  0  0  0  0  0  0  0  0
  -10.8054    8.7640   -2.1990 H   0  0  0  0  0  0  0  0  0  0  0  0
  -12.3618    7.8983   -2.5080 H   0  0  0  0  0  0  0  0  0  0  0  0
  -12.7715    6.5882    0.9587 H   0  0  0  0  0  0  0  0  0  0  0  0
  -13.6746    6.8874   -0.5649 H   0  0  0  0  0  0  0  0  0  0  0  0
  -12.2511    5.7917   -0.5649 H   0  0  0  0  0  0  0  0  0  0  0  0
  1  2  1  0
  2  3  1  0
  3  4  1  0
  4  5  1  0
  5  6  1  0
  6  7  1  0
  7  8  1  0
  7  9  1  0
  2 10  1  0
 10 11  1  0
 11 12  1  0
 12 13  1  0
 13 14  1  6
 13 15  1  0
 15 16  1  0
 16 17  1  0
 17 18  2  0
 18 19  1  0
 19 20  1  0
 20 21  1  0
 21 22  1  0
 22 23  1  0
 22 24  1  0
 24 25  1  0
 24 26  1  0
 19 27  1  0
 27 28  1  1
 27 29  1  0
 29 30  1  0
 30 31  1  0
 31 32  1  1
  7  5  1  0
 31 10  1  0
 31 13  1  0
 27 15  1  0
 24 18  1  0
  1 33  1  0
  1 34  1  0
  1 35  1  0
  2 36  1  6
  3 37  1  0
  3 38  1  0
  4 39  1  0
  4 40  1  0
  5 41  1  6
  8 42  1  0
  8 43  1  0
  8 44  1  0
  9 45  1  0
  9 46  1  0
  9 47  1  0
 10 48  1  6
 11 49  1  0
 11 50  1  0
 12 51  1  0
 12 52  1  0
 14 53  1  0
 14 54  1  0
 14 55  1  0
 15 56  1  1
 16 57  1  0
 16 58  1  0
 17 59  1  0
 19 60  1  6
 20 61  1  0
 20 62  1  0
 21 63  1  0
 21 64  1  0
 22 65  1  6
 23 66  1  0
 25 67  1  0
 25 68  1  0
 25 69  1  0
 26 70  1  0
 26 71  1  0
 26 72  1  0
 28 73  1  0
 28 74  1  0
 28 75  1  0
 29 76  1  0
 29 77  1  0
 30 78  1  0
 30 79  1  0
 32 80  1  0
 32 81  1  0
 32 82  1  0
M  END
>  <meeko>  (19) 
{"is_sidechain": [false], "intermolecular_energy": 2.731, "internal_energy": -0.839}

$$$$
EPH_relaxed_0001_pdb2pqr_Repair_391_r2_0001_out
     RDKit          3D

 82 86  0  0  0  0  0  0  0  0999 V2000
   -1.7850    9.4880   -0.1850 C   0  0  0  0  0  0  0  0  0  0  0  0
   -1.5550   10.5460   -1.2670 C   0  0  2  0  0  0  0  0  0  0  0  0
   -0.7240   10.0010   -2.4450 C   0  0  0  0  0  0  0  0  0  0  0  0
    0.5960    9.3520   -2.0200 C   0  0  0  0  0  0  0  0  0  0  0  0
    1.7420    9.8200   -2.8650 C   0  0  2  0  0  0  0  0  0  0  0  0
    2.9300    9.0250   -2.7570 O   0  0  0  0  0  0  0  0  0  0  0  0
    3.0300   10.3810   -2.2930 C   0  0  0  0  0  0  0  0  0  0  0  0
    3.2380   10.5050   -0.8160 C   0  0  0  0  0  0  0  0  0  0  0  0
    3.8790   11.2540   -3.1630 C   0  0  0  0  0  0  0  0  0  0  0  0
   -0.8660   11.7650   -0.6640 C   0  0  1  0  0  0  0  0  0  0  0  0
    0.2680   11.3830    0.3240 C   0  0  0  0  0  0  0  0  0  0  0  0
    1.3760   12.4560    0.1690 C   0  0  0  0  0  0  0  0  0  0  0  0
    0.7110   13.5890   -0.6460 C   0  0  1  0  0  0  0  0  0  0  0  0
   -0.1100   14.4070    0.4000 C   0  0  0  0  0  0  0  0  0  0  0  0
    1.6740   14.5070   -1.4680 C   0  0  2  0  0  0  0  0  0  0  0  0
    2.6840   15.3090   -0.6290 C   0  0  0  0  0  0  0  0  0  0  0  0
    2.2210   16.6610   -0.1960 C   0  0  0  0  0  0  0  0  0  0  0  0
    1.1640   17.3250   -0.6990 C   0  0  0  0  0  0  0  0  0  0  0  0
    0.3680   16.7570   -1.8820 C   0  0  1  0  0  0  0  0  0  0  0  0
    0.1300   17.8750   -2.9300 C   0  0  0  0  0  0  0  0  0  0  0  0
   -0.5250   19.1140   -2.3260 C   0  0  0  0  0  0  0  0  0  0  0  0
    0.3240   19.6830   -1.1930 C   0  0  2  0  0  0  0  0  0  0  0  0
    1.5470   20.1840   -1.7410 O   0  0  0  0  0  0  0  0  0  0  0  0
    0.6380   18.6430   -0.0800 C   0  0  0  0  0  0  0  0  0  0  0  0
   -0.6540   18.3260    0.7140 C   0  0  0  0  0  0  0  0  0  0  0  0
    1.6160   19.3030    0.9280 C   0  0  0  0  0  0  0  0  0  0  0  0
    0.9440   15.4250   -2.5300 C   0  0  1  0  0  0  0  0  0  0  0  0
    2.0060   15.7790   -3.6160 C   0  0  0  0  0  0  0  0  0  0  0  0
   -0.2200   14.6710   -3.2750 C   0  0  0  0  0  0  0  0  0  0  0  0
   -1.0590   13.6890   -2.4360 C   0  0  0  0  0  0  0  0  0  0  0  0
   -0.1590   12.7380   -1.6410 C   0  0  2  0  0  0  0  0  0  0  0  0
    0.6630   11.8870   -2.6670 C   0  0  0  0  0  0  0  0  0  0  0  0
   -1.6844    9.9509    0.8078 H   0  0  0  0  0  0  0  0  0  0  0  0
   -2.7956    9.0672   -0.2926 H   0  0  0  0  0  0  0  0  0  0  0  0
   -1.0403    8.6856   -0.2926 H   0  0  0  0  0  0  0  0  0  0  0  0
   -2.5402   10.8333   -1.6631 H   0  0  0  0  0  0  0  0  0  0  0  0
   -1.3258    9.2484   -2.9755 H   0  0  0  0  0  0  0  0  0  0  0  0
   -0.4687   10.8603   -3.0825 H   0  0  0  0  0  0  0  0  0  0  0  0
    0.7985    9.6106   -0.9702 H   0  0  0  0  0  0  0  0  0  0  0  0
    0.4990    8.2636   -2.1467 H   0  0  0  0  0  0  0  0  0  0  0  0
    1.0510   10.1960   -3.6339 H   0  0  0  0  0  0  0  0  0  0  0  0
    2.4099   10.0113   -0.2864 H   0  0  0  0  0  0  0  0  0  0  0  0
    4.1884   10.0260   -0.5381 H   0  0  0  0  0  0  0  0  0  0  0  0
    3.2686   11.5689   -0.5381 H   0  0  0  0  0  0  0  0  0  0  0  0
    4.5073   11.9001   -2.5323 H   0  0  0  0  0  0  0  0  0  0  0  0
    4.5207   10.6256   -3.7981 H   0  0  0  0  0  0  0  0  0  0  0  0
    3.2330   11.8780   -3.7981 H   0  0  0  0  0  0  0  0  0  0  0  0
   -1.7347   12.2587   -0.2039 H   0  0  0  0  0  0  0  0  0  0  0  0
   -0.1138   11.3789    1.3556 H   0  0  0  0  0  0  0  0  0  0  0  0
    0.6585   10.3777    0.1076 H   0  0  0  0  0  0  0  0  0  0  0  0
    1.7000   12.8246    1.1535 H   0  0  0  0  0  0  0  0  0  0  0  0
    2.2748   12.0589   -0.3254 H   0  0  0  0  0  0  0  0  0  0  0  0
    0.1894   14.1087    1.4156 H   0  0  0  0  0  0  0  0  0  0  0  0
    0.0850   15.4806    0.2607 H   0  0  0  0  0  0  0  0  0  0  0  0
   -1.1829   14.2081    0.2607 H   0  0  0  0  0  0  0  0  0  0  0  0
    2.2707   13.7773   -2.0350 H   0  0  0  0  0  0  0  0  0  0  0  0
    2.9170   14.7243    0.2731 H   0  0  0  0  0  0  0  0  0  0  0  0
    3.5541   15.4790   -1.2801 H   0  0  0  0  0  0  0  0  0  0  0  0
    2.7928   17.1566    0.6024 H   0  0  0  0  0  0  0  0  0  0  0  0
   -0.5947   16.4224   -1.4682 H   0  0  0  0  0  0  0  0  0  0  0  0
    1.0989   18.1642   -3.3632 H   0  0  0  0  0  0  0  0  0  0  0  0
   -0.5526   17.4758   -3.6946 H   0  0  0  0  0  0  0  0  0  0  0  0
   -0.6394   19.8783   -3.1087 H   0  0  0  0  0  0  0  0  0  0  0  0
   -1.5067   18.8291   -1.9197 H   0  0  0  0  0  0  0  0  0  0  0  0
   -0.2572   20.4863   -0.7167 H   0  0  0  0  0  0  0  0  0  0  0  0
    2.1350   20.4030   -0.9970 H   0  0  0  0  0  0  0  0  0  0  0  0
   -0.4436   18.3776    1.7925 H   0  0  0  0  0  0  0  0  0  0  0  0
   -1.4319   19.0599    0.4567 H   0  0  0  0  0  0  0  0  0  0  0  0
   -1.0039   17.3154    0.4567 H   0  0  0  0  0  0  0  0  0  0  0  0
    1.2887   19.0821    1.9547 H   0  0  0  0  0  0  0  0  0  0  0  0
    2.6287   18.9029    0.7719 H   0  0  0  0  0  0  0  0  0  0  0  0
    1.6239   20.3918    0.7719 H   0  0  0  0  0  0  0  0  0  0  0  0
    2.9407   16.0906   -3.1269 H   0  0  0  0  0  0  0  0  0  0  0  0
    2.1972   14.8960   -4.2435 H   0  0  0  0  0  0  0  0  0  0  0  0
    1.6291   16.6001   -4.2435 H   0  0  0  0  0  0  0  0  0  0  0  0
   -0.9038   15.4316   -3.6798 H   0  0  0  0  0  0  0  0  0  0  0  0
    0.2783   14.0493   -4.0334 H   0  0  0  0  0  0  0  0  0  0  0  0
   -1.6868   14.2595   -1.7358 H   0  0  0  0  0  0  0  0  0  0  0  0
   -1.6845   13.0926   -3.1164 H   0  0  0  0  0  0  0  0  0  0  0  0
    1.3275   11.1991   -2.1237 H   0  0  0  0  0  0  0  0  0  0  0  0
   -0.0266   11.3081   -3.2990 H   0  0  0  0  0  0  0  0  0  0  0  0
    1.2654   12.5561   -3.2990 H   0  0  0  0  0  0  0  0  0  0  0  0
  1  2  1  0
  2  3  1  0
  3  4  1  0
  4  5  1  0
  5  6  1  0
  6  7  1  0
  7  8  1  0
  7  9  1  0
  2 10  1  0
 10 11  1  0
 11 12  1  0
 12 13  1  0
 13 14  1  1
 13 15  1  0
 15 16  1  0
 16 17  1  0
 17 18  2  0
 18 19  1  0
 19 20  1  0
 20 21  1  0
 21 22  1  0
 22 23  1  0
 22 24  1  0
 24 25  1  0
 24 26  1  0
 19 27  1  0
 27 28  1  6
 27 29  1  0
 29 30  1  0
 30 31  1  0
 31 32  1  6
  7  5  1  0
 31 10  1  0
 31 13  1  0
 27 15  1  0
 24 18  1  0
  1 33  1  0
  1 34  1  0
  1 35  1  0
  2 36  1  6
  3 37  1  0
  3 38  1  0
  4 39  1  0
  4 40  1  0
  5 41  1  6
  8 42  1  0
  8 43  1  0
  8 44  1  0
  9 45  1  0
  9 46  1  0
  9 47  1  0
 10 48  1  1
 11 49  1  0
 11 50  1  0
 12 51  1  0
 12 52  1  0
 14 53  1  0
 14 54  1  0
 14 55  1  0
 15 56  1  6
 16 57  1  0
 16 58  1  0
 17 59  1  0
 19 60  1  1
 20 61  1  0
 20 62  1  0
 21 63  1  0
 21 64  1  0
 22 65  1  1
 23 66  1  0
 25 67  1  0
 25 68  1  0
 25 69  1  0
 26 70  1  0
 26 71  1  0
 26 72  1  0
 28 73  1  0
 28 74  1  0
 28 75  1  0
 29 76  1  0
 29 77  1  0
 30 78  1  0
 30 79  1  0
 32 80  1  0
 32 81  1  0
 32 82  1  0
M  END
>  <meeko>  (20) 
{"is_sidechain": [false], "intermolecular_energy": 2.731, "internal_energy": -0.839}

$$$$
