EPH_relaxed_0001_pdb2pqr_Repair_29_r2_0001_out
     RDKit          3D

 82 86  0  0  0  0  0  0  0  0999 V2000
   -1.7060    8.5790   -1.8430 C   0  0  0  0  0  0  0  0  0  0  0  0
   -2.1030    9.1290   -0.4700 C   0  0  2  0  0  0  0  0  0  0  0  0
   -3.5940    9.5170   -0.4100 C   0  0  0  0  0  0  0  0  0  0  0  0
   -4.5350    8.3210   -0.2420 C   0  0  0  0  0  0  0  0  0  0  0  0
   -5.2160    7.9660   -1.5290 C   0  0  2  0  0  0  0  0  0  0  0  0
   -6.3090    8.8230   -1.8840 O   0  0  0  0  0  0  0  0  0  0  0  0
   -6.6410    7.4520   -1.6080 C   0  0  0  0  0  0  0  0  0  0  0  0
   -7.4720    7.2630   -0.3780 C   0  0  0  0  0  0  0  0  0  0  0  0
   -7.0560    6.6770   -2.8200 C   0  0  0  0  0  0  0  0  0  0  0  0
   -1.2370   10.3340   -0.1230 C   0  0  1  0  0  0  0  0  0  0  0  0
   -0.2020   10.0240    0.9920 C   0  0  0  0  0  0  0  0  0  0  0  0
    1.0700   10.8460    0.6620 C   0  0  0  0  0  0  0  0  0  0  0  0
    0.6170   11.8450   -0.4290 C   0  0  1  0  0  0  0  0  0  0  0  0
   -0.0800   13.0020    0.3530 C   0  0  0  0  0  0  0  0  0  0  0  0
    1.7350   12.3830   -1.3800 C   0  0  2  0  0  0  0  0  0  0  0  0
    2.8450   13.1940   -0.6900 C   0  0  0  0  0  0  0  0  0  0  0  0
    2.6020   14.6650   -0.6040 C   0  0  0  0  0  0  0  0  0  0  0  0
    1.6790   15.3470   -1.3070 C   0  0  0  0  0  0  0  0  0  0  0  0
    0.8260   14.6470   -2.3740 C   0  0  1  0  0  0  0  0  0  0  0  0
    0.7970   15.5110   -3.6620 C   0  0  0  0  0  0  0  0  0  0  0  0
    0.3410   16.9420   -3.3970 C   0  0  0  0  0  0  0  0  0  0  0  0
    1.2480   17.6230   -2.3750 C   0  0  2  0  0  0  0  0  0  0  0  0
    2.5480   17.7870   -2.9500 O   0  0  0  0  0  0  0  0  0  0  0  0
    1.3630   16.8390   -1.0380 C   0  0  0  0  0  0  0  0  0  0  0  0
    0.0200   16.9200   -0.2700 C   0  0  0  0  0  0  0  0  0  0  0  0
    2.4150   17.5580   -0.1510 C   0  0  0  0  0  0  0  0  0  0  0  0
    1.1890   13.1280   -2.6650 C   0  0  1  0  0  0  0  0  0  0  0  0
    2.3170   13.0470   -3.7390 C   0  0  0  0  0  0  0  0  0  0  0  0
   -0.0670   12.4090   -3.2850 C   0  0  0  0  0  0  0  0  0  0  0  0
   -1.0740   11.7930   -2.2950 C   0  0  0  0  0  0  0  0  0  0  0  0
   -0.3590   10.9290   -1.2520 C   0  0  2  0  0  0  0  0  0  0  0  0
    0.3340    9.7430   -2.0070 C   0  0  0  0  0  0  0  0  0  0  0  0
   -1.0668    7.6934   -1.7124 H   0  0  0  0  0  0  0  0  0  0  0  0
   -2.6113    8.2986   -2.4014 H   0  0  0  0  0  0  0  0  0  0  0  0
   -1.1548    9.3499   -2.4014 H   0  0  0  0  0  0  0  0  0  0  0  0
   -1.9397    8.3293    0.2674 H   0  0  0  0  0  0  0  0  0  0  0  0
   -3.7418   10.1974    0.4416 H   0  0  0  0  0  0  0  0  0  0  0  0
   -3.8423    9.9887   -1.3722 H   0  0  0  0  0  0  0  0  0  0  0  0
   -3.9520    7.4546    0.1036 H   0  0  0  0  0  0  0  0  0  0  0  0
   -5.3084    8.5937    0.4912 H   0  0  0  0  0  0  0  0  0  0  0  0
   -4.2723    7.5909   -1.9519 H   0  0  0  0  0  0  0  0  0  0  0  0
   -6.8444    7.4057    0.5140 H   0  0  0  0  0  0  0  0  0  0  0  0
   -8.2904    7.9979   -0.3719 H   0  0  0  0  0  0  0  0  0  0  0  0
   -7.8921    6.2464   -0.3719 H   0  0  0  0  0  0  0  0  0  0  0  0
   -7.5539    5.7471   -2.5079 H   0  0  0  0  0  0  0  0  0  0  0  0
   -7.7513    7.2812   -3.4213 H   0  0  0  0  0  0  0  0  0  0  0  0
   -6.1677    6.4333   -3.4213 H   0  0  0  0  0  0  0  0  0  0  0  0
   -2.0229   11.0503    0.1586 H   0  0  0  0  0  0  0  0  0  0  0  0
   -0.6013   10.3213    1.9729 H   0  0  0  0  0  0  0  0  0  0  0  0
    0.0228    8.9481    1.0343 H   0  0  0  0  0  0  0  0  0  0  0  0
    1.4287   11.3811    1.5536 H   0  0  0  0  0  0  0  0  0  0  0  0
    1.9021   10.2100    0.3256 H   0  0  0  0  0  0  0  0  0  0  0  0
    0.0244   12.8287    1.4342 H   0  0  0  0  0  0  0  0  0  0  0  0
    0.3915   13.9598    0.0880 H   0  0  0  0  0  0  0  0  0  0  0  0
   -1.1471   13.0329    0.0880 H   0  0  0  0  0  0  0  0  0  0  0  0
    2.2149   11.4561   -1.7272 H   0  0  0  0  0  0  0  0  0  0  0  0
    2.9611   12.8084    0.3337 H   0  0  0  0  0  0  0  0  0  0  0  0
    3.7434   13.0703   -1.3125 H   0  0  0  0  0  0  0  0  0  0  0  0
    3.2303   15.2394    0.0926 H   0  0  0  0  0  0  0  0  0  0  0  0
   -0.1873   14.5717   -1.9526 H   0  0  0  0  0  0  0  0  0  0  0  0
    1.8093   15.5375   -4.0915 H   0  0  0  0  0  0  0  0  0  0  0  0
    0.0749   15.0536   -4.3543 H   0  0  0  0  0  0  0  0  0  0  0  0
    0.3702   17.5094   -4.3389 H   0  0  0  0  0  0  0  0  0  0  0  0
   -0.6828   16.9157   -2.9955 H   0  0  0  0  0  0  0  0  0  0  0  0
    0.7961   18.5954   -2.1296 H   0  0  0  0  0  0  0  0  0  0  0  0
    2.4320   18.1740   -3.8340 H   0  0  0  0  0  0  0  0  0  0  0  0
    0.2153   16.9082    0.8125 H   0  0  0  0  0  0  0  0  0  0  0  0
   -0.5004   17.8512   -0.5386 H   0  0  0  0  0  0  0  0  0  0  0  0
   -0.6085   16.0581   -0.5386 H   0  0  0  0  0  0  0  0  0  0  0  0
    2.1743   17.3935    0.9097 H   0  0  0  0  0  0  0  0  0  0  0  0
    3.4148   17.1535   -0.3671 H   0  0  0  0  0  0  0  0  0  0  0  0
    2.4012   18.6365   -0.3671 H   0  0  0  0  0  0  0  0  0  0  0  0
    3.2945   12.9768   -3.2395 H   0  0  0  0  0  0  0  0  0  0  0  0
    2.1617   12.1577   -4.3675 H   0  0  0  0  0  0  0  0  0  0  0  0
    2.2904   13.9494   -4.3675 H   0  0  0  0  0  0  0  0  0  0  0  0
   -0.6081   13.1494   -3.8925 H   0  0  0  0  0  0  0  0  0  0  0  0
    0.3389   11.5570   -3.8501 H   0  0  0  0  0  0  0  0  0  0  0  0
   -1.6152   12.6018   -1.7823 H   0  0  0  0  0  0  0  0  0  0  0  0
   -1.7739   11.1571   -2.8569 H   0  0  0  0  0  0  0  0  0  0  0  0
    0.7481    9.0343   -1.2748 H   0  0  0  0  0  0  0  0  0  0  0  0
   -0.4054    9.2281   -2.6380 H   0  0  0  0  0  0  0  0  0  0  0  0
    1.1456   10.1343   -2.6380 H   0  0  0  0  0  0  0  0  0  0  0  0
  1  2  1  0
  2  3  1  0
  3  4  1  0
  4  5  1  0
  5  6  1  0
  6  7  1  0
  7  8  1  0
  7  9  1  0
  2 10  1  0
 10 11  1  0
 11 12  1  0
 12 13  1  0
 13 14  1  1
 13 15  1  0
 15 16  1  0
 16 17  1  0
 17 18  2  0
 18 19  1  0
 19 20  1  0
 20 21  1  0
 21 22  1  0
 22 23  1  0
 22 24  1  0
 24 25  1  0
 24 26  1  0
 19 27  1  0
 27 28  1  6
 27 29  1  0
 29 30  1  0
 30 31  1  0
 31 32  1  6
  7  5  1  0
 31 10  1  0
 31 13  1  0
 27 15  1  0
 24 18  1  0
  1 33  1  0
  1 34  1  0
  1 35  1  0
  2 36  1  1
  3 37  1  0
  3 38  1  0
  4 39  1  0
  4 40  1  0
  5 41  1  6
  8 42  1  0
  8 43  1  0
  8 44  1  0
  9 45  1  0
  9 46  1  0
  9 47  1  0
 10 48  1  1
 11 49  1  0
 11 50  1  0
 12 51  1  0
 12 52  1  0
 14 53  1  0
 14 54  1  0
 14 55  1  0
 15 56  1  6
 16 57  1  0
 16 58  1  0
 17 59  1  0
 19 60  1  1
 20 61  1  0
 20 62  1  0
 21 63  1  0
 21 64  1  0
 22 65  1  1
 23 66  1  0
 25 67  1  0
 25 68  1  0
 25 69  1  0
 26 70  1  0
 26 71  1  0
 26 72  1  0
 28 73  1  0
 28 74  1  0
 28 75  1  0
 29 76  1  0
 29 77  1  0
 30 78  1  0
 30 79  1  0
 32 80  1  0
 32 81  1  0
 32 82  1  0
M  END
>  <meeko>  (1) 
{"is_sidechain": [false], "intermolecular_energy": 2.731, "internal_energy": -0.839}

$$$$
EPH_relaxed_0001_pdb2pqr_Repair_29_r2_0001_out
     RDKit          3D

 82 86  0  0  0  0  0  0  0  0999 V2000
    4.1460   17.5080   -0.0290 C   0  0  0  0  0  0  0  0  0  0  0  0
    2.7410   18.1060   -0.1400 C   0  0  2  0  0  0  0  0  0  0  0  0
    2.4330   19.0850    1.0110 C   0  0  0  0  0  0  0  0  0  0  0  0
    3.6600   19.8530    1.5100 C   0  0  0  0  0  0  0  0  0  0  0  0
    4.1900   19.2790    2.7890 C   0  0  2  0  0  0  0  0  0  0  0  0
    4.9600   20.1930    3.5820 O   0  0  0  0  0  0  0  0  0  0  0  0
    5.6670   19.0580    3.0580 C   0  0  0  0  0  0  0  0  0  0  0  0
    6.7060   19.4050    2.0380 C   0  0  0  0  0  0  0  0  0  0  0  0
    6.0630   18.0600    4.1010 C   0  0  0  0  0  0  0  0  0  0  0  0
    1.7020   16.9910   -0.1680 C   0  0  1  0  0  0  0  0  0  0  0  0
    0.2860   17.5030   -0.5420 C   0  0  0  0  0  0  0  0  0  0  0  0
   -0.3910   16.3800   -1.3700 C   0  0  0  0  0  0  0  0  0  0  0  0
    0.5150   15.1440   -1.1640 C   0  0  1  0  0  0  0  0  0  0  0  0
    0.0870   14.5570    0.2170 C   0  0  0  0  0  0  0  0  0  0  0  0
    0.4710   14.0600   -2.2910 C   0  0  2  0  0  0  0  0  0  0  0  0
   -0.8970   13.3840   -2.4920 C   0  0  0  0  0  0  0  0  0  0  0  0
   -1.1240   12.1500   -1.6840 C   0  0  0  0  0  0  0  0  0  0  0  0
   -0.1690   11.4450   -1.0480 C   0  0  0  0  0  0  0  0  0  0  0  0
    1.3120   11.8200   -1.1870 C   0  0  1  0  0  0  0  0  0  0  0  0
    2.1460   10.5420   -1.4620 C   0  0  0  0  0  0  0  0  0  0  0  0
    1.9150    9.4560   -0.4150 C   0  0  0  0  0  0  0  0  0  0  0  0
    0.4400    9.0690   -0.3470 C   0  0  2  0  0  0  0  0  0  0  0  0
    0.0730    8.4330   -1.5760 O   0  0  0  0  0  0  0  0  0  0  0  0
   -0.5000   10.2790   -0.0840 C   0  0  0  0  0  0  0  0  0  0  0  0
   -0.3080   10.7800    1.3690 C   0  0  0  0  0  0  0  0  0  0  0  0
   -1.9650    9.7750   -0.1800 C   0  0  0  0  0  0  0  0  0  0  0  0
    1.6370   12.9930   -2.2090 C   0  0  1  0  0  0  0  0  0  0  0  0
    1.8100   12.4130   -3.6460 C   0  0  0  0  0  0  0  0  0  0  0  0
    3.0180   13.6430   -1.8240 C   0  0  0  0  0  0  0  0  0  0  0  0
    2.9820   14.7900   -0.7950 C   0  0  0  0  0  0  0  0  0  0  0  0
    1.9280   15.8340   -1.1730 C   0  0  2  0  0  0  0  0  0  0  0  0
    2.3440   16.4570   -2.5490 C   0  0  0  0  0  0  0  0  0  0  0  0
    4.4133   17.3942    1.0319 H   0  0  0  0  0  0  0  0  0  0  0  0
    4.1653   16.5237   -0.5196 H   0  0  0  0  0  0  0  0  0  0  0  0
    4.8688   18.1765   -0.5196 H   0  0  0  0  0  0  0  0  0  0  0  0
    2.6984   18.6775   -1.0789 H   0  0  0  0  0  0  0  0  0  0  0  0
    1.6876   19.8128    0.6579 H   0  0  0  0  0  0  0  0  0  0  0  0
    2.0648   18.4835    1.8551 H   0  0  0  0  0  0  0  0  0  0  0  0
    4.4476   19.8037    0.7436 H   0  0  0  0  0  0  0  0  0  0  0  0
    3.3596   20.8941    1.6995 H   0  0  0  0  0  0  0  0  0  0  0  0
    3.3158   18.6179    2.8821 H   0  0  0  0  0  0  0  0  0  0  0  0
    7.6309   19.7139    2.5471 H   0  0  0  0  0  0  0  0  0  0  0  0
    6.9099   18.5262    1.4086 H   0  0  0  0  0  0  0  0  0  0  0  0
    6.3408   20.2300    1.4086 H   0  0  0  0  0  0  0  0  0  0  0  0
    5.8935   18.4872    5.1004 H   0  0  0  0  0  0  0  0  0  0  0  0
    5.4584   17.1484    3.9845 H   0  0  0  0  0  0  0  0  0  0  0  0
    7.1281   17.8109    3.9845 H   0  0  0  0  0  0  0  0  0  0  0  0
    1.8027   16.6190    0.8623 H   0  0  0  0  0  0  0  0  0  0  0  0
   -0.2964   17.7057    0.3689 H   0  0  0  0  0  0  0  0  0  0  0  0
    0.3434   18.4386   -1.1177 H   0  0  0  0  0  0  0  0  0  0  0  0
   -1.4075   16.1827   -0.9988 H   0  0  0  0  0  0  0  0  0  0  0  0
   -0.4950   16.6490   -2.4315 H   0  0  0  0  0  0  0  0  0  0  0  0
    0.5272   15.1607    1.0243 H   0  0  0  0  0  0  0  0  0  0  0  0
   -1.0097   14.5774    0.3001 H   0  0  0  0  0  0  0  0  0  0  0  0
    0.4418   13.5191    0.3001 H   0  0  0  0  0  0  0  0  0  0  0  0
    0.6465   14.6552   -3.1993 H   0  0  0  0  0  0  0  0  0  0  0  0
   -1.6779   14.1120   -2.2270 H   0  0  0  0  0  0  0  0  0  0  0  0
   -0.9279   13.0677   -3.5451 H   0  0  0  0  0  0  0  0  0  0  0  0
   -2.1586   11.7856   -1.6009 H   0  0  0  0  0  0  0  0  0  0  0  0
    1.6071   12.2573   -0.2217 H   0  0  0  0  0  0  0  0  0  0  0  0
    1.8676   10.1449   -2.4493 H   0  0  0  0  0  0  0  0  0  0  0  0
    3.2090   10.8223   -1.4235 H   0  0  0  0  0  0  0  0  0  0  0  0
    2.5083    8.5684   -0.6800 H   0  0  0  0  0  0  0  0  0  0  0  0
    2.2218    9.8443    0.5674 H   0  0  0  0  0  0  0  0  0  0  0  0
    0.3175    8.3857    0.5063 H   0  0  0  0  0  0  0  0  0  0  0  0
   -0.2450    7.5400   -1.3610 H   0  0  0  0  0  0  0  0  0  0  0  0
   -0.6107    9.9901    2.0722 H   0  0  0  0  0  0  0  0  0  0  0  0
    0.7502   11.0314    1.5333 H   0  0  0  0  0  0  0  0  0  0  0  0
   -0.9271   11.6742    1.5333 H   0  0  0  0  0  0  0  0  0  0  0  0
   -2.3717    9.6351    0.8324 H   0  0  0  0  0  0  0  0  0  0  0  0
   -2.5729   10.5157   -0.7202 H   0  0  0  0  0  0  0  0  0  0  0  0
   -1.9886    8.8171   -0.7202 H   0  0  0  0  0  0  0  0  0  0  0  0
    2.1239   11.3607   -3.5813 H   0  0  0  0  0  0  0  0  0  0  0  0
    0.8534   12.4778   -4.1852 H   0  0  0  0  0  0  0  0  0  0  0  0
    2.5748   12.9913   -4.1852 H   0  0  0  0  0  0  0  0  0  0  0  0
    3.6576   12.8476   -1.4138 H   0  0  0  0  0  0  0  0  0  0  0  0
    3.3904   14.1002   -2.7526 H   0  0  0  0  0  0  0  0  0  0  0  0
    2.7401   14.3771    0.1955 H   0  0  0  0  0  0  0  0  0  0  0  0
    3.9679   15.2775   -0.7793 H   0  0  0  0  0  0  0  0  0  0  0  0
    2.9472   17.3603   -2.3751 H   0  0  0  0  0  0  0  0  0  0  0  0
    2.9354   15.7253   -3.1190 H   0  0  0  0  0  0  0  0  0  0  0  0
    1.4415   16.7228   -3.1190 H   0  0  0  0  0  0  0  0  0  0  0  0
  1  2  1  0
  2  3  1  0
  3  4  1  0
  4  5  1  0
  5  6  1  0
  6  7  1  0
  7  8  1  0
  7  9  1  0
  2 10  1  0
 10 11  1  0
 11 12  1  0
 12 13  1  0
 13 14  1  1
 13 15  1  0
 15 16  1  0
 16 17  1  0
 17 18  2  0
 18 19  1  0
 19 20  1  0
 20 21  1  0
 21 22  1  0
 22 23  1  0
 22 24  1  0
 24 25  1  0
 24 26  1  0
 19 27  1  0
 27 28  1  6
 27 29  1  0
 29 30  1  0
 30 31  1  0
 31 32  1  6
  7  5  1  0
 31 10  1  0
 31 13  1  0
 27 15  1  0
 24 18  1  0
  1 33  1  0
  1 34  1  0
  1 35  1  0
  2 36  1  6
  3 37  1  0
  3 38  1  0
  4 39  1  0
  4 40  1  0
  5 41  1  1
  8 42  1  0
  8 43  1  0
  8 44  1  0
  9 45  1  0
  9 46  1  0
  9 47  1  0
 10 48  1  1
 11 49  1  0
 11 50  1  0
 12 51  1  0
 12 52  1  0
 14 53  1  0
 14 54  1  0
 14 55  1  0
 15 56  1  6
 16 57  1  0
 16 58  1  0
 17 59  1  0
 19 60  1  1
 20 61  1  0
 20 62  1  0
 21 63  1  0
 21 64  1  0
 22 65  1  1
 23 66  1  0
 25 67  1  0
 25 68  1  0
 25 69  1  0
 26 70  1  0
 26 71  1  0
 26 72  1  0
 28 73  1  0
 28 74  1  0
 28 75  1  0
 29 76  1  0
 29 77  1  0
 30 78  1  0
 30 79  1  0
 32 80  1  0
 32 81  1  0
 32 82  1  0
M  END
>  <meeko>  (2) 
{"is_sidechain": [false], "intermolecular_energy": 2.731, "internal_energy": -0.839}

$$$$
EPH_relaxed_0001_pdb2pqr_Repair_29_r2_0001_out
     RDKit          3D

 82 86  0  0  0  0  0  0  0  0999 V2000
    2.4940   18.0040   -2.6100 C   0  0  0  0  0  0  0  0  0  0  0  0
    1.1500   17.6780   -1.9540 C   0  0  2  0  0  0  0  0  0  0  0  0
    1.2180   17.7650   -0.4160 C   0  0  0  0  0  0  0  0  0  0  0  0
    0.8820   19.1520    0.1380 C   0  0  0  0  0  0  0  0  0  0  0  0
   -0.5480   19.2410    0.5790 C   0  0  2  0  0  0  0  0  0  0  0  0
   -1.4240   18.2850   -0.0320 O   0  0  0  0  0  0  0  0  0  0  0  0
   -1.6810   19.6650   -0.3360 C   0  0  0  0  0  0  0  0  0  0  0  0
   -1.4350   20.0290   -1.7660 C   0  0  0  0  0  0  0  0  0  0  0  0
   -2.9390   20.1940    0.2810 C   0  0  0  0  0  0  0  0  0  0  0  0
    0.6880   16.2880   -2.3770 C   0  0  1  0  0  0  0  0  0  0  0  0
    0.7770   16.0700   -3.9110 C   0  0  0  0  0  0  0  0  0  0  0  0
    1.1640   14.5850   -4.1300 C   0  0  0  0  0  0  0  0  0  0  0  0
    0.9610   13.9210   -2.7480 C   0  0  1  0  0  0  0  0  0  0  0  0
   -0.5710   13.6390   -2.6590 C   0  0  0  0  0  0  0  0  0  0  0  0
    1.8020   12.6320   -2.4700 C   0  0  2  0  0  0  0  0  0  0  0  0
    1.5070   11.4470   -3.4050 C   0  0  0  0  0  0  0  0  0  0  0  0
    0.4410   10.5130   -2.9350 C   0  0  0  0  0  0  0  0  0  0  0  0
   -0.0530   10.4570   -1.6840 C   0  0  0  0  0  0  0  0  0  0  0  0
    0.5350   11.3260   -0.5650 C   0  0  1  0  0  0  0  0  0  0  0  0
    0.7600   10.4580    0.7010 C   0  0  0  0  0  0  0  0  0  0  0  0
   -0.5030    9.7220    1.1370 C   0  0  0  0  0  0  0  0  0  0  0  0
   -1.0250    8.8240    0.0180 C   0  0  2  0  0  0  0  0  0  0  0  0
   -0.0830    7.7700   -0.2040 O   0  0  0  0  0  0  0  0  0  0  0  0
   -1.2790    9.5870   -1.3120 C   0  0  0  0  0  0  0  0  0  0  0  0
   -2.5050   10.5190   -1.1510 C   0  0  0  0  0  0  0  0  0  0  0  0
   -1.6660    8.5430   -2.3940 C   0  0  0  0  0  0  0  0  0  0  0  0
    1.8170   12.1820   -0.9530 C   0  0  1  0  0  0  0  0  0  0  0  0
    3.1070   11.3290   -0.7550 C   0  0  0  0  0  0  0  0  0  0  0  0
    1.9360   13.4040    0.0320 C   0  0  0  0  0  0  0  0  0  0  0  0
    1.1790   14.6880   -0.3580 C   0  0  0  0  0  0  0  0  0  0  0  0
    1.4700   15.0760   -1.8110 C   0  0  2  0  0  0  0  0  0  0  0  0
    3.0010   15.3870   -1.9260 C   0  0  0  0  0  0  0  0  0  0  0  0
    3.2479   18.1869   -1.8301 H   0  0  0  0  0  0  0  0  0  0  0  0
    2.8117   17.1569   -3.2357 H   0  0  0  0  0  0  0  0  0  0  0  0
    2.3883   18.9025   -3.2357 H   0  0  0  0  0  0  0  0  0  0  0  0
    0.4243   18.4308   -2.2956 H   0  0  0  0  0  0  0  0  0  0  0  0
    0.5046   17.0410    0.0045 H   0  0  0  0  0  0  0  0  0  0  0  0
    2.2569   17.5470   -0.1276 H   0  0  0  0  0  0  0  0  0  0  0  0
    1.5343   19.3596    0.9991 H   0  0  0  0  0  0  0  0  0  0  0  0
    1.0405   19.8890   -0.6631 H   0  0  0  0  0  0  0  0  0  0  0  0
   -0.2423   19.5789    1.5802 H   0  0  0  0  0  0  0  0  0  0  0  0
   -0.8196   20.9396   -1.8119 H   0  0  0  0  0  0  0  0  0  0  0  0
   -0.9081   19.2046   -2.2688 H   0  0  0  0  0  0  0  0  0  0  0  0
   -2.3964   20.2104   -2.2688 H   0  0  0  0  0  0  0  0  0  0  0  0
   -2.8531   20.1579    1.3770 H   0  0  0  0  0  0  0  0  0  0  0  0
   -3.0958   21.2342   -0.0404 H   0  0  0  0  0  0  0  0  0  0  0  0
   -3.7921   19.5784   -0.0404 H   0  0  0  0  0  0  0  0  0  0  0  0
   -0.3334   16.3010   -1.9688 H   0  0  0  0  0  0  0  0  0  0  0  0
   -0.1950   16.2814   -4.3807 H   0  0  0  0  0  0  0  0  0  0  0  0
    1.5207   16.7427   -4.3630 H   0  0  0  0  0  0  0  0  0  0  0  0
    0.5110   14.1206   -4.8836 H   0  0  0  0  0  0  0  0  0  0  0  0
    2.1939   14.4725   -4.4996 H   0  0  0  0  0  0  0  0  0  0  0  0
   -0.8728   13.5834   -1.6027 H   0  0  0  0  0  0  0  0  0  0  0  0
   -1.1227   14.4507   -3.1558 H   0  0  0  0  0  0  0  0  0  0  0  0
   -0.7975   12.6841   -3.1558 H   0  0  0  0  0  0  0  0  0  0  0  0
    2.8232   12.9592   -2.7153 H   0  0  0  0  0  0  0  0  0  0  0  0
    1.1981   11.8521   -4.3799 H   0  0  0  0  0  0  0  0  0  0  0  0
    2.4331   10.8549   -3.4470 H   0  0  0  0  0  0  0  0  0  0  0  0
    0.0243    9.8118   -3.6730 H   0  0  0  0  0  0  0  0  0  0  0  0
   -0.2159   12.1024   -0.3568 H   0  0  0  0  0  0  0  0  0  0  0  0
    1.5437    9.7167    0.4857 H   0  0  0  0  0  0  0  0  0  0  0  0
    1.0539   11.1312    1.5198 H   0  0  0  0  0  0  0  0  0  0  0  0
   -0.2736    9.1037    2.0174 H   0  0  0  0  0  0  0  0  0  0  0  0
   -1.2764   10.4655    1.3802 H   0  0  0  0  0  0  0  0  0  0  0  0
   -1.9981    8.4257    0.3412 H   0  0  0  0  0  0  0  0  0  0  0  0
    0.1510    7.3970    0.6630 H   0  0  0  0  0  0  0  0  0  0  0  0
   -2.7095   10.6744   -0.0814 H   0  0  0  0  0  0  0  0  0  0  0  0
   -2.2947   11.4873   -1.6286 H   0  0  0  0  0  0  0  0  0  0  0  0
   -3.3818   10.0573   -1.6286 H   0  0  0  0  0  0  0  0  0  0  0  0
   -2.0086    7.6187   -1.9058 H   0  0  0  0  0  0  0  0  0  0  0  0
   -2.4739    8.9475   -3.0214 H   0  0  0  0  0  0  0  0  0  0  0  0
   -0.7896    8.3231   -3.0214 H   0  0  0  0  0  0  0  0  0  0  0  0
    3.3005   11.2010    0.3203 H   0  0  0  0  0  0  0  0  0  0  0  0
    2.9699   10.3429   -1.2228 H   0  0  0  0  0  0  0  0  0  0  0  0
    3.9607   11.8412   -1.2228 H   0  0  0  0  0  0  0  0  0  0  0  0
    1.5570   13.0792    1.0122 H   0  0  0  0  0  0  0  0  0  0  0  0
    3.0002   13.6821    0.0177 H   0  0  0  0  0  0  0  0  0  0  0  0
    0.0985   14.5186   -0.2403 H   0  0  0  0  0  0  0  0  0  0  0  0
    1.5141   15.5055    0.2972 H   0  0  0  0  0  0  0  0  0  0  0  0
    3.4340   15.4750   -0.9186 H   0  0  0  0  0  0  0  0  0  0  0  0
    3.5008   14.5720   -2.4701 H   0  0  0  0  0  0  0  0  0  0  0  0
    3.1433   16.3324   -2.4701 H   0  0  0  0  0  0  0  0  0  0  0  0
  1  2  1  0
  2  3  1  0
  3  4  1  0
  4  5  1  0
  5  6  1  0
  6  7  1  0
  7  8  1  0
  7  9  1  0
  2 10  1  0
 10 11  1  0
 11 12  1  0
 12 13  1  0
 13 14  1  1
 13 15  1  0
 15 16  1  0
 16 17  1  0
 17 18  2  0
 18 19  1  0
 19 20  1  0
 20 21  1  0
 21 22  1  0
 22 23  1  0
 22 24  1  0
 24 25  1  0
 24 26  1  0
 19 27  1  0
 27 28  1  6
 27 29  1  0
 29 30  1  0
 30 31  1  0
 31 32  1  1
  7  5  1  0
 31 10  1  0
 31 13  1  0
 27 15  1  0
 24 18  1  0
  1 33  1  0
  1 34  1  0
  1 35  1  0
  2 36  1  6
  3 37  1  0
  3 38  1  0
  4 39  1  0
  4 40  1  0
  5 41  1  1
  8 42  1  0
  8 43  1  0
  8 44  1  0
  9 45  1  0
  9 46  1  0
  9 47  1  0
 10 48  1  1
 11 49  1  0
 11 50  1  0
 12 51  1  0
 12 52  1  0
 14 53  1  0
 14 54  1  0
 14 55  1  0
 15 56  1  6
 16 57  1  0
 16 58  1  0
 17 59  1  0
 19 60  1  1
 20 61  1  0
 20 62  1  0
 21 63  1  0
 21 64  1  0
 22 65  1  1
 23 66  1  0
 25 67  1  0
 25 68  1  0
 25 69  1  0
 26 70  1  0
 26 71  1  0
 26 72  1  0
 28 73  1  0
 28 74  1  0
 28 75  1  0
 29 76  1  0
 29 77  1  0
 30 78  1  0
 30 79  1  0
 32 80  1  0
 32 81  1  0
 32 82  1  0
M  END
>  <meeko>  (3) 
{"is_sidechain": [false], "intermolecular_energy": 2.731, "internal_energy": -0.839}

$$$$
EPH_relaxed_0001_pdb2pqr_Repair_29_r2_0001_out
     RDKit          3D

 82 86  0  0  0  0  0  0  0  0999 V2000
    0.4080   18.4120   -0.0370 C   0  0  0  0  0  0  0  0  0  0  0  0
    1.4940   17.3540   -0.2470 C   0  0  2  0  0  0  0  0  0  0  0  0
    2.7120   17.9140   -1.0090 C   0  0  0  0  0  0  0  0  0  0  0  0
    3.9460   18.1250   -0.1280 C   0  0  0  0  0  0  0  0  0  0  0  0
    3.5730   18.5980    1.2440 C   0  0  2  0  0  0  0  0  0  0  0  0
    3.8090   19.9920    1.4820 O   0  0  0  0  0  0  0  0  0  0  0  0
    4.5850   19.0740    2.2690 C   0  0  0  0  0  0  0  0  0  0  0  0
    6.0500   19.1000    1.9650 C   0  0  0  0  0  0  0  0  0  0  0  0
    4.2040   19.0490    3.7170 C   0  0  0  0  0  0  0  0  0  0  0  0
    0.9170   16.1580   -0.9950 C   0  0  1  0  0  0  0  0  0  0  0  0
    0.7840   16.4150   -2.5200 C   0  0  0  0  0  0  0  0  0  0  0  0
    1.0690   15.0650   -3.2280 C   0  0  0  0  0  0  0  0  0  0  0  0
    1.0290   14.0140   -2.0940 C   0  0  1  0  0  0  0  0  0  0  0  0
   -0.4880   13.7210   -1.8720 C   0  0  0  0  0  0  0  0  0  0  0  0
    1.8410   12.7010   -2.3390 C   0  0  2  0  0  0  0  0  0  0  0  0
    1.3660   11.8540   -3.5340 C   0  0  0  0  0  0  0  0  0  0  0  0
    0.3340   10.8240   -3.2150 C   0  0  0  0  0  0  0  0  0  0  0  0
    0.0150   10.3920   -1.9810 C   0  0  0  0  0  0  0  0  0  0  0  0
    0.7910   10.8810   -0.7500 C   0  0  1  0  0  0  0  0  0  0  0  0
    1.1480    9.6700    0.1510 C   0  0  0  0  0  0  0  0  0  0  0  0
   -0.0750    8.8380    0.5250 C   0  0  0  0  0  0  0  0  0  0  0  0
   -0.7860    8.3220   -0.7230 C   0  0  2  0  0  0  0  0  0  0  0  0
    0.0690    7.3830   -1.3850 O   0  0  0  0  0  0  0  0  0  0  0  0
   -1.1860    9.4520   -1.7130 C   0  0  0  0  0  0  0  0  0  0  0  0
   -2.3350   10.2930   -1.1040 C   0  0  0  0  0  0  0  0  0  0  0  0
   -1.7640    8.7860   -2.9900 C   0  0  0  0  0  0  0  0  0  0  0  0
    2.0440   11.8120   -1.0460 C   0  0  1  0  0  0  0  0  0  0  0  0
    3.3090   10.9370   -1.3010 C   0  0  0  0  0  0  0  0  0  0  0  0
    2.3530   12.6790    0.2320 C   0  0  0  0  0  0  0  0  0  0  0  0
    1.6080   14.0210    0.3590 C   0  0  0  0  0  0  0  0  0  0  0  0
    1.7140   14.8310   -0.9380 C   0  0  2  0  0  0  0  0  0  0  0  0
    3.2270   15.1600   -1.1750 C   0  0  0  0  0  0  0  0  0  0  0  0
    0.2498   18.5662    1.0406 H   0  0  0  0  0  0  0  0  0  0  0  0
    0.7236   19.3584   -0.5003 H   0  0  0  0  0  0  0  0  0  0  0  0
   -0.5298   18.0718   -0.5003 H   0  0  0  0  0  0  0  0  0  0  0  0
    1.8436   17.0379    0.7469 H   0  0  0  0  0  0  0  0  0  0  0  0
    2.9745   17.2081   -1.8108 H   0  0  0  0  0  0  0  0  0  0  0  0
    2.4218   18.9015   -1.3971 H   0  0  0  0  0  0  0  0  0  0  0  0
    4.4892   17.1724   -0.0413 H   0  0  0  0  0  0  0  0  0  0  0  0
    4.5747   18.8959   -0.5974 H   0  0  0  0  0  0  0  0  0  0  0  0
    2.7556   17.8640    1.2999 H   0  0  0  0  0  0  0  0  0  0  0  0
    6.6196   19.1101    2.9060 H   0  0  0  0  0  0  0  0  0  0  0  0
    6.3196   18.2065    1.3828 H   0  0  0  0  0  0  0  0  0  0  0  0
    6.2877   20.0025    1.3828 H   0  0  0  0  0  0  0  0  0  0  0  0
    5.1114   19.1085    4.3360 H   0  0  0  0  0  0  0  0  0  0  0  0
    3.5516   19.9063    3.9393 H   0  0  0  0  0  0  0  0  0  0  0  0
    3.6692   18.1138    3.9393 H   0  0  0  0  0  0  0  0  0  0  0  0
   -0.0365   16.0474   -0.4578 H   0  0  0  0  0  0  0  0  0  0  0  0
   -0.2327   16.7606   -2.7586 H   0  0  0  0  0  0  0  0  0  0  0  0
    1.4885   17.1917   -2.8525 H   0  0  0  0  0  0  0  0  0  0  0  0
    0.2976   14.8517   -3.9826 H   0  0  0  0  0  0  0  0  0  0  0  0
    2.0316   15.0681   -3.7603 H   0  0  0  0  0  0  0  0  0  0  0  0
   -0.6995   13.6801   -0.7933 H   0  0  0  0  0  0  0  0  0  0  0  0
   -1.0871   14.5200   -2.3331 H   0  0  0  0  0  0  0  0  0  0  0  0
   -0.7464   12.7563   -2.3331 H   0  0  0  0  0  0  0  0  0  0  0  0
    2.8324   13.0864   -2.6194 H   0  0  0  0  0  0  0  0  0  0  0  0
    0.9445   12.5355   -4.2875 H   0  0  0  0  0  0  0  0  0  0  0  0
    2.2495   11.3010   -3.8855 H   0  0  0  0  0  0  0  0  0  0  0  0
   -0.2123   10.3803   -4.0604 H   0  0  0  0  0  0  0  0  0  0  0  0
    0.1127   11.5594   -0.2118 H   0  0  0  0  0  0  0  0  0  0  0  0
    1.8601    9.0276   -0.3877 H   0  0  0  0  0  0  0  0  0  0  0  0
    1.5816   10.0633    1.0823 H   0  0  0  0  0  0  0  0  0  0  0  0
    0.2454    7.9818    1.1367 H   0  0  0  0  0  0  0  0  0  0  0  0
   -0.7731    9.4739    1.0892 H   0  0  0  0  0  0  0  0  0  0  0  0
   -1.7224    7.8463   -0.3960 H   0  0  0  0  0  0  0  0  0  0  0  0
    0.8680    7.8600   -1.6660 H   0  0  0  0  0  0  0  0  0  0  0  0
   -2.2779   10.2512   -0.0063 H   0  0  0  0  0  0  0  0  0  0  0  0
   -2.2411   11.3373   -1.4366 H   0  0  0  0  0  0  0  0  0  0  0  0
   -3.3021    9.8878   -1.4366 H   0  0  0  0  0  0  0  0  0  0  0  0
   -2.4599    7.9841   -2.7024 H   0  0  0  0  0  0  0  0  0  0  0  0
   -2.2992    9.5396   -3.5864 H   0  0  0  0  0  0  0  0  0  0  0  0
   -0.9426    8.3622   -3.5864 H   0  0  0  0  0  0  0  0  0  0  0  0
    3.7460   10.6347   -0.3378 H   0  0  0  0  0  0  0  0  0  0  0  0
    3.0258   10.0408   -1.8725 H   0  0  0  0  0  0  0  0  0  0  0  0
    4.0477   11.5181   -1.8725 H   0  0  0  0  0  0  0  0  0  0  0  0
    2.0993   12.0730    1.1143 H   0  0  0  0  0  0  0  0  0  0  0  0
    3.4163   12.9476    0.1467 H   0  0  0  0  0  0  0  0  0  0  0  0
    0.5475   13.8250    0.5754 H   0  0  0  0  0  0  0  0  0  0  0  0
    2.0658   14.6011    1.1738 H   0  0  0  0  0  0  0  0  0  0  0  0
    3.7345   15.2704   -0.2053 H   0  0  0  0  0  0  0  0  0  0  0  0
    3.6953   14.3427   -1.7431 H   0  0  0  0  0  0  0  0  0  0  0  0
    3.3137   16.0980   -1.7431 H   0  0  0  0  0  0  0  0  0  0  0  0
  1  2  1  0
  2  3  1  0
  3  4  1  0
  4  5  1  0
  5  6  1  0
  6  7  1  0
  7  8  1  0
  7  9  1  0
  2 10  1  0
 10 11  1  0
 11 12  1  0
 12 13  1  0
 13 14  1  1
 13 15  1  0
 15 16  1  0
 16 17  1  0
 17 18  2  0
 18 19  1  0
 19 20  1  0
 20 21  1  0
 21 22  1  0
 22 23  1  0
 22 24  1  0
 24 25  1  0
 24 26  1  0
 19 27  1  0
 27 28  1  6
 27 29  1  0
 29 30  1  0
 30 31  1  0
 31 32  1  6
  7  5  1  0
 31 10  1  0
 31 13  1  0
 27 15  1  0
 24 18  1  0
  1 33  1  0
  1 34  1  0
  1 35  1  0
  2 36  1  1
  3 37  1  0
  3 38  1  0
  4 39  1  0
  4 40  1  0
  5 41  1  1
  8 42  1  0
  8 43  1  0
  8 44  1  0
  9 45  1  0
  9 46  1  0
  9 47  1  0
 10 48  1  1
 11 49  1  0
 11 50  1  0
 12 51  1  0
 12 52  1  0
 14 53  1  0
 14 54  1  0
 14 55  1  0
 15 56  1  6
 16 57  1  0
 16 58  1  0
 17 59  1  0
 19 60  1  1
 20 61  1  0
 20 62  1  0
 21 63  1  0
 21 64  1  0
 22 65  1  1
 23 66  1  0
 25 67  1  0
 25 68  1  0
 25 69  1  0
 26 70  1  0
 26 71  1  0
 26 72  1  0
 28 73  1  0
 28 74  1  0
 28 75  1  0
 29 76  1  0
 29 77  1  0
 30 78  1  0
 30 79  1  0
 32 80  1  0
 32 81  1  0
 32 82  1  0
M  END
>  <meeko>  (4) 
{"is_sidechain": [false], "intermolecular_energy": 2.731, "internal_energy": -0.839}

$$$$
EPH_relaxed_0001_pdb2pqr_Repair_29_r2_0001_out
     RDKit          3D

 82 86  0  0  0  0  0  0  0  0999 V2000
   -3.4080    9.3270    0.5470 C   0  0  0  0  0  0  0  0  0  0  0  0
   -2.5810    9.6860   -0.6910 C   0  0  2  0  0  0  0  0  0  0  0  0
   -1.9160    8.4480   -1.3240 C   0  0  0  0  0  0  0  0  0  0  0  0
   -2.8350    7.6720   -2.2720 C   0  0  0  0  0  0  0  0  0  0  0  0
   -4.2720    7.7750   -1.8580 C   0  0  2  0  0  0  0  0  0  0  0  0
   -4.8220    6.5730   -1.3030 O   0  0  0  0  0  0  0  0  0  0  0  0
   -5.3950    7.0190   -2.5430 C   0  0  0  0  0  0  0  0  0  0  0  0
   -5.1310    6.1060   -3.6980 C   0  0  0  0  0  0  0  0  0  0  0  0
   -6.7930    7.5380   -2.4080 C   0  0  0  0  0  0  0  0  0  0  0  0
   -1.5210   10.7180   -0.3260 C   0  0  1  0  0  0  0  0  0  0  0  0
   -0.4200   10.1400    0.6030 C   0  0  0  0  0  0  0  0  0  0  0  0
    0.9100   10.8310    0.2050 C   0  0  0  0  0  0  0  0  0  0  0  0
    0.4800   12.0110   -0.6980 C   0  0  1  0  0  0  0  0  0  0  0  0
    0.0450   13.1370    0.2920 C   0  0  0  0  0  0  0  0  0  0  0  0
    1.5470   12.5230   -1.7210 C   0  0  2  0  0  0  0  0  0  0  0  0
    2.8310   13.0930   -1.0930 C   0  0  0  0  0  0  0  0  0  0  0  0
    2.8070   14.5590   -0.8130 C   0  0  0  0  0  0  0  0  0  0  0  0
    1.9150   15.4360   -1.3090 C   0  0  0  0  0  0  0  0  0  0  0  0
    0.8570   14.9920   -2.3270 C   0  0  1  0  0  0  0  0  0  0  0  0
    0.8030   16.0100   -3.4960 C   0  0  0  0  0  0  0  0  0  0  0  0
    0.5850   17.4420   -3.0150 C   0  0  0  0  0  0  0  0  0  0  0  0
    1.6890   17.8670   -2.0500 C   0  0  2  0  0  0  0  0  0  0  0  0
    2.9260   17.9380   -2.7670 O   0  0  0  0  0  0  0  0  0  0  0  0
    1.8440   16.9090   -0.8360 C   0  0  0  0  0  0  0  0  0  0  0  0
    0.6230   17.0590    0.1040 C   0  0  0  0  0  0  0  0  0  0  0  0
    3.0810   17.3700   -0.0180 C   0  0  0  0  0  0  0  0  0  0  0  0
    0.9680   13.4890   -2.8320 C   0  0  1  0  0  0  0  0  0  0  0  0
    1.9440   13.4060   -4.0460 C   0  0  0  0  0  0  0  0  0  0  0  0
   -0.4380   13.0180   -3.3610 C   0  0  0  0  0  0  0  0  0  0  0  0
   -1.4030   12.4120   -2.3240 C   0  0  0  0  0  0  0  0  0  0  0  0
   -0.7020   11.3380   -1.4860 C   0  0  2  0  0  0  0  0  0  0  0  0
   -0.2730   10.1820   -2.4520 C   0  0  0  0  0  0  0  0  0  0  0  0
   -2.8370    9.5749    1.4539 H   0  0  0  0  0  0  0  0  0  0  0  0
   -4.3481    9.8980    0.5381 H   0  0  0  0  0  0  0  0  0  0  0  0
   -3.6329    8.2503    0.5381 H   0  0  0  0  0  0  0  0  0  0  0  0
   -3.2692   10.1084   -1.4379 H   0  0  0  0  0  0  0  0  0  0  0  0
   -1.0332    8.7795   -1.8903 H   0  0  0  0  0  0  0  0  0  0  0  0
   -1.6552    7.7670   -0.5004 H   0  0  0  0  0  0  0  0  0  0  0  0
   -2.7264    8.0803   -3.2876 H   0  0  0  0  0  0  0  0  0  0  0  0
   -2.5440    6.6117   -2.2405 H   0  0  0  0  0  0  0  0  0  0  0  0
   -4.1472    8.8372   -1.6006 H   0  0  0  0  0  0  0  0  0  0  0  0
   -4.8438    5.1129   -3.3222 H   0  0  0  0  0  0  0  0  0  0  0  0
   -6.0403    6.0174   -4.3106 H   0  0  0  0  0  0  0  0  0  0  0  0
   -4.3147    6.5163   -4.3106 H   0  0  0  0  0  0  0  0  0  0  0  0
   -7.0477    7.6325   -1.3421 H   0  0  0  0  0  0  0  0  0  0  0  0
   -6.8666    8.5234   -2.8914 H   0  0  0  0  0  0  0  0  0  0  0  0
   -7.4918    6.8394   -2.8914 H   0  0  0  0  0  0  0  0  0  0  0  0
   -2.1613   11.4850    0.1342 H   0  0  0  0  0  0  0  0  0  0  0  0
   -0.6595   10.3568    1.6545 H   0  0  0  0  0  0  0  0  0  0  0  0
   -0.3453    9.0479    0.4946 H   0  0  0  0  0  0  0  0  0  0  0  0
    1.4397   11.1971    1.0968 H   0  0  0  0  0  0  0  0  0  0  0  0
    1.6009   10.1443   -0.3059 H   0  0  0  0  0  0  0  0  0  0  0  0
    0.1798   12.7880    1.3264 H   0  0  0  0  0  0  0  0  0  0  0  0
    0.6621   14.0319    0.1236 H   0  0  0  0  0  0  0  0  0  0  0  0
   -1.0135   13.3845    0.1236 H   0  0  0  0  0  0  0  0  0  0  0  0
    1.8498   11.5965   -2.2309 H   0  0  0  0  0  0  0  0  0  0  0  0
    3.0064   12.5682   -0.1423 H   0  0  0  0  0  0  0  0  0  0  0  0
    3.6278   12.9378   -1.8353 H   0  0  0  0  0  0  0  0  0  0  0  0
    3.5847   14.9563   -0.1442 H   0  0  0  0  0  0  0  0  0  0  0  0
   -0.1017   14.9918   -1.7877 H   0  0  0  0  0  0  0  0  0  0  0  0
    1.7535   15.9641   -4.0478 H   0  0  0  0  0  0  0  0  0  0  0  0
   -0.0498   15.7390   -4.1358 H   0  0  0  0  0  0  0  0  0  0  0  0
    0.5859   18.1175   -3.8831 H   0  0  0  0  0  0  0  0  0  0  0  0
   -0.3799   17.4929   -2.4893 H   0  0  0  0  0  0  0  0  0  0  0  0
    1.4093   18.8491   -1.6411 H   0  0  0  0  0  0  0  0  0  0  0  0
    2.7180   18.1590   -3.6910 H   0  0  0  0  0  0  0  0  0  0  0  0
    0.9588   17.0177    1.1507 H   0  0  0  0  0  0  0  0  0  0  0  0
    0.1309   18.0244   -0.0854 H   0  0  0  0  0  0  0  0  0  0  0  0
   -0.0882   16.2415   -0.0854 H   0  0  0  0  0  0  0  0  0  0  0  0
    2.8612   17.2881    1.0567 H   0  0  0  0  0  0  0  0  0  0  0  0
    3.9426   16.7326   -0.2657 H   0  0  0  0  0  0  0  0  0  0  0  0
    3.3153   18.4158   -0.2657 H   0  0  0  0  0  0  0  0  0  0  0  0
    2.9776   13.3181   -3.6801 H   0  0  0  0  0  0  0  0  0  0  0  0
    1.6952   12.5258   -4.6570 H   0  0  0  0  0  0  0  0  0  0  0  0
    1.8474   14.3156   -4.6570 H   0  0  0  0  0  0  0  0  0  0  0  0
   -0.9353   13.8917   -3.8076 H   0  0  0  0  0  0  0  0  0  0  0  0
   -0.2217   12.2008   -4.0649 H   0  0  0  0  0  0  0  0  0  0  0  0
   -1.7633   13.2100   -1.6581 H   0  0  0  0  0  0  0  0  0  0  0  0
   -2.2450   11.9470   -2.8576 H   0  0  0  0  0  0  0  0  0  0  0  0
    0.0499    9.3118   -1.8617 H   0  0  0  0  0  0  0  0  0  0  0  0
   -1.1259    9.8987   -3.0863 H   0  0  0  0  0  0  0  0  0  0  0  0
    0.5582   10.5237   -3.0863 H   0  0  0  0  0  0  0  0  0  0  0  0
  1  2  1  0
  2  3  1  0
  3  4  1  0
  4  5  1  0
  5  6  1  0
  6  7  1  0
  7  8  1  0
  7  9  1  0
  2 10  1  0
 10 11  1  0
 11 12  1  0
 12 13  1  0
 13 14  1  1
 13 15  1  0
 15 16  1  0
 16 17  1  0
 17 18  2  0
 18 19  1  0
 19 20  1  0
 20 21  1  0
 21 22  1  0
 22 23  1  0
 22 24  1  0
 24 25  1  0
 24 26  1  0
 19 27  1  0
 27 28  1  6
 27 29  1  0
 29 30  1  0
 30 31  1  0
 31 32  1  6
  7  5  1  0
 31 10  1  0
 31 13  1  0
 27 15  1  0
 24 18  1  0
  1 33  1  0
  1 34  1  0
  1 35  1  0
  2 36  1  6
  3 37  1  0
  3 38  1  0
  4 39  1  0
  4 40  1  0
  5 41  1  1
  8 42  1  0
  8 43  1  0
  8 44  1  0
  9 45  1  0
  9 46  1  0
  9 47  1  0
 10 48  1  1
 11 49  1  0
 11 50  1  0
 12 51  1  0
 12 52  1  0
 14 53  1  0
 14 54  1  0
 14 55  1  0
 15 56  1  6
 16 57  1  0
 16 58  1  0
 17 59  1  0
 19 60  1  1
 20 61  1  0
 20 62  1  0
 21 63  1  0
 21 64  1  0
 22 65  1  1
 23 66  1  0
 25 67  1  0
 25 68  1  0
 25 69  1  0
 26 70  1  0
 26 71  1  0
 26 72  1  0
 28 73  1  0
 28 74  1  0
 28 75  1  0
 29 76  1  0
 29 77  1  0
 30 78  1  0
 30 79  1  0
 32 80  1  0
 32 81  1  0
 32 82  1  0
M  END
>  <meeko>  (5) 
{"is_sidechain": [false], "intermolecular_energy": 2.731, "internal_energy": -0.839}

$$$$
EPH_relaxed_0001_pdb2pqr_Repair_29_r2_0001_out
     RDKit          3D

 82 86  0  0  0  0  0  0  0  0999 V2000
   -4.5790    6.2380   -2.6390 C   0  0  0  0  0  0  0  0  0  0  0  0
   -5.1620    7.5920   -2.2220 C   0  0  2  0  0  0  0  0  0  0  0  0
   -4.9850    7.8600   -0.7140 C   0  0  0  0  0  0  0  0  0  0  0  0
   -3.9670    8.9590   -0.4000 C   0  0  0  0  0  0  0  0  0  0  0  0
   -2.5970    8.6030   -0.8930 C   0  0  2  0  0  0  0  0  0  0  0  0
   -1.5320    8.9320    0.0080 O   0  0  0  0  0  0  0  0  0  0  0  0
   -1.5400    9.6330   -1.2450 C   0  0  0  0  0  0  0  0  0  0  0  0
   -1.8090   11.1000   -1.1200 C   0  0  0  0  0  0  0  0  0  0  0  0
   -0.4310    9.2340   -2.1670 C   0  0  0  0  0  0  0  0  0  0  0  0
   -6.6390    7.6580   -2.5930 C   0  0  1  0  0  0  0  0  0  0  0  0
   -6.9700    6.8470   -3.8740 C   0  0  0  0  0  0  0  0  0  0  0  0
   -8.3870    6.2510   -3.6730 C   0  0  0  0  0  0  0  0  0  0  0  0
   -8.9540    7.0000   -2.4440 C   0  0  1  0  0  0  0  0  0  0  0  0
   -9.4700    8.3610   -3.0080 C   0  0  0  0  0  0  0  0  0  0  0  0
  -10.0620    6.2550   -1.6320 C   0  0  2  0  0  0  0  0  0  0  0  0
  -11.3560    5.9590   -2.4110 C   0  0  0  0  0  0  0  0  0  0  0  0
  -12.4050    7.0180   -2.3320 C   0  0  0  0  0  0  0  0  0  0  0  0
  -12.4330    8.0260   -1.4400 C   0  0  0  0  0  0  0  0  0  0  0  0
  -11.3880    8.1160   -0.3200 C   0  0  1  0  0  0  0  0  0  0  0  0
  -12.0970    8.4140    1.0270 C   0  0  0  0  0  0  0  0  0  0  0  0
  -12.9870    9.6520    0.9580 C   0  0  0  0  0  0  0  0  0  0  0  0
  -14.0490    9.5000   -0.1270 C   0  0  2  0  0  0  0  0  0  0  0  0
  -14.9530    8.4580    0.2550 O   0  0  0  0  0  0  0  0  0  0  0  0
  -13.4530    9.1870   -1.5280 C   0  0  0  0  0  0  0  0  0  0  0  0
  -12.7200   10.4380   -2.0730 C   0  0  0  0  0  0  0  0  0  0  0  0
  -14.6340    8.9180   -2.5000 C   0  0  0  0  0  0  0  0  0  0  0  0
  -10.3730    6.8970   -0.2190 C   0  0  1  0  0  0  0  0  0  0  0  0
  -10.9870    5.7650    0.6600 C   0  0  0  0  0  0  0  0  0  0  0  0
   -9.0680    7.3750    0.5210 C   0  0  0  0  0  0  0  0  0  0  0  0
   -7.9610    7.9940   -0.3530 C   0  0  0  0  0  0  0  0  0  0  0  0
   -7.6560    7.1060   -1.5630 C   0  0  2  0  0  0  0  0  0  0  0  0
   -7.1140    5.7370   -1.0280 C   0  0  0  0  0  0  0  0  0  0  0  0
   -4.3278    5.6547   -1.7409 H   0  0  0  0  0  0  0  0  0  0  0  0
   -5.3202    5.6884   -3.2378 H   0  0  0  0  0  0  0  0  0  0  0  0
   -3.6704    6.3988   -3.2378 H   0  0  0  0  0  0  0  0  0  0  0  0
   -4.6075    8.3726   -2.7635 H   0  0  0  0  0  0  0  0  0  0  0  0
   -5.9583    8.1589   -0.2978 H   0  0  0  0  0  0  0  0  0  0  0  0
   -4.6041    6.9310   -0.2648 H   0  0  0  0  0  0  0  0  0  0  0  0
   -4.2890    9.8923   -0.8850 H   0  0  0  0  0  0  0  0  0  0  0  0
   -3.9179    9.0789    0.6923 H   0  0  0  0  0  0  0  0  0  0  0  0
   -2.9945    7.7364   -1.4417 H   0  0  0  0  0  0  0  0  0  0  0  0
   -1.8593   11.3742   -0.0559 H   0  0  0  0  0  0  0  0  0  0  0  0
   -0.9993   11.6640   -1.6061 H   0  0  0  0  0  0  0  0  0  0  0  0
   -2.7661   11.3400   -1.6061 H   0  0  0  0  0  0  0  0  0  0  0  0
    0.4420    8.9199   -1.5761 H   0  0  0  0  0  0  0  0  0  0  0  0
   -0.7639    8.3993   -2.8013 H   0  0  0  0  0  0  0  0  0  0  0  0
   -0.1558   10.0895   -2.8013 H   0  0  0  0  0  0  0  0  0  0  0  0
   -6.7562    8.7474   -2.6908 H   0  0  0  0  0  0  0  0  0  0  0  0
   -6.9581    7.5072   -4.7538 H   0  0  0  0  0  0  0  0  0  0  0  0
   -6.2277    6.0526   -4.0411 H   0  0  0  0  0  0  0  0  0  0  0  0
   -9.0130    6.4298   -4.5597 H   0  0  0  0  0  0  0  0  0  0  0  0
   -8.3642    5.1614   -3.5238 H   0  0  0  0  0  0  0  0  0  0  0  0
   -9.7240    9.0311   -2.1734 H   0  0  0  0  0  0  0  0  0  0  0  0
   -8.6850    8.8239   -3.6240 H   0  0  0  0  0  0  0  0  0  0  0  0
  -10.3646    8.1871   -3.6240 H   0  0  0  0  0  0  0  0  0  0  0  0
   -9.5965    5.2764   -1.4433 H   0  0  0  0  0  0  0  0  0  0  0  0
  -11.0912    5.8213   -3.4698 H   0  0  0  0  0  0  0  0  0  0  0  0
  -11.7928    5.0631   -1.9456 H   0  0  0  0  0  0  0  0  0  0  0  0
  -13.2243    6.9708   -3.0644 H   0  0  0  0  0  0  0  0  0  0  0  0
  -10.7273    8.9539   -0.5873 H   0  0  0  0  0  0  0  0  0  0  0  0
  -12.7183    7.5476    1.2978 H   0  0  0  0  0  0  0  0  0  0  0  0
  -11.3178    8.6042    1.7798 H   0  0  0  0  0  0  0  0  0  0  0  0
  -13.4827    9.7937    1.9297 H   0  0  0  0  0  0  0  0  0  0  0  0
  -12.3596   10.5225    0.7159 H   0  0  0  0  0  0  0  0  0  0  0  0
  -14.5698   10.4648   -0.2161 H   0  0  0  0  0  0  0  0  0  0  0  0
  -15.0980    8.5310    1.2130 H   0  0  0  0  0  0  0  0  0  0  0  0
  -12.3620   11.0490   -1.2312 H   0  0  0  0  0  0  0  0  0  0  0  0
  -11.8638   10.1227   -2.6874 H   0  0  0  0  0  0  0  0  0  0  0  0
  -13.4136   11.0308   -2.6874 H   0  0  0  0  0  0  0  0  0  0  0  0
  -15.5457    8.7103   -1.9206 H   0  0  0  0  0  0  0  0  0  0  0  0
  -14.7959    9.8023   -3.1339 H   0  0  0  0  0  0  0  0  0  0  0  0
  -14.3969    8.0509   -3.1339 H   0  0  0  0  0  0  0  0  0  0  0  0
  -10.8526    6.0127    1.7233 H   0  0  0  0  0  0  0  0  0  0  0  0
  -12.0603    5.6700    0.4384 H   0  0  0  0  0  0  0  0  0  0  0  0
  -10.4813    4.8136    0.4384 H   0  0  0  0  0  0  0  0  0  0  0  0
   -9.3647    8.1286    1.2654 H   0  0  0  0  0  0  0  0  0  0  0  0
   -8.6246    6.4606    0.9420 H   0  0  0  0  0  0  0  0  0  0  0  0
   -8.2917    8.9819   -0.7061 H   0  0  0  0  0  0  0  0  0  0  0  0
   -7.0474    8.0871    0.2525 H   0  0  0  0  0  0  0  0  0  0  0  0
   -7.1175    5.7459    0.0720 H   0  0  0  0  0  0  0  0  0  0  0  0
   -7.7570    4.9213   -1.3901 H   0  0  0  0  0  0  0  0  0  0  0  0
   -6.0869    5.5825   -1.3901 H   0  0  0  0  0  0  0  0  0  0  0  0
  1  2  1  0
  2  3  1  0
  3  4  1  0
  4  5  1  0
  5  6  1  0
  6  7  1  0
  7  8  1  0
  7  9  1  0
  2 10  1  0
 10 11  1  0
 11 12  1  0
 12 13  1  0
 13 14  1  6
 13 15  1  0
 15 16  1  0
 16 17  1  0
 17 18  2  0
 18 19  1  0
 19 20  1  0
 20 21  1  0
 21 22  1  0
 22 23  1  0
 22 24  1  0
 24 25  1  0
 24 26  1  0
 19 27  1  0
 27 28  1  1
 27 29  1  0
 29 30  1  0
 30 31  1  0
 31 32  1  1
  7  5  1  0
 31 10  1  0
 31 13  1  0
 27 15  1  0
 24 18  1  0
  1 33  1  0
  1 34  1  0
  1 35  1  0
  2 36  1  6
  3 37  1  0
  3 38  1  0
  4 39  1  0
  4 40  1  0
  5 41  1  6
  8 42  1  0
  8 43  1  0
  8 44  1  0
  9 45  1  0
  9 46  1  0
  9 47  1  0
 10 48  1  6
 11 49  1  0
 11 50  1  0
 12 51  1  0
 12 52  1  0
 14 53  1  0
 14 54  1  0
 14 55  1  0
 15 56  1  1
 16 57  1  0
 16 58  1  0
 17 59  1  0
 19 60  1  6
 20 61  1  0
 20 62  1  0
 21 63  1  0
 21 64  1  0
 22 65  1  6
 23 66  1  0
 25 67  1  0
 25 68  1  0
 25 69  1  0
 26 70  1  0
 26 71  1  0
 26 72  1  0
 28 73  1  0
 28 74  1  0
 28 75  1  0
 29 76  1  0
 29 77  1  0
 30 78  1  0
 30 79  1  0
 32 80  1  0
 32 81  1  0
 32 82  1  0
M  END
>  <meeko>  (6) 
{"is_sidechain": [false], "intermolecular_energy": 2.731, "internal_energy": -0.839}

$$$$
EPH_relaxed_0001_pdb2pqr_Repair_29_r2_0001_out
     RDKit          3D

 82 86  0  0  0  0  0  0  0  0999 V2000
    3.7570   17.9350    0.6970 C   0  0  0  0  0  0  0  0  0  0  0  0
    2.6850   18.3970   -0.2940 C   0  0  2  0  0  0  0  0  0  0  0  0
    1.9560   19.6670    0.1890 C   0  0  0  0  0  0  0  0  0  0  0  0
    0.7100   19.3790    1.0310 C   0  0  0  0  0  0  0  0  0  0  0  0
   -0.5060   20.0510    0.4700 C   0  0  2  0  0  0  0  0  0  0  0  0
   -1.5920   20.1940    1.3950 O   0  0  0  0  0  0  0  0  0  0  0  0
   -1.8320   19.3430    0.2630 C   0  0  0  0  0  0  0  0  0  0  0  0
   -2.0090   17.8990    0.6130 C   0  0  0  0  0  0  0  0  0  0  0  0
   -2.8010   19.9140   -0.7250 C   0  0  0  0  0  0  0  0  0  0  0  0
    1.6790   17.2770   -0.5310 C   0  0  1  0  0  0  0  0  0  0  0  0
    0.4690   17.7320   -1.3900 C   0  0  0  0  0  0  0  0  0  0  0  0
    0.0600   16.5190   -2.2640 C   0  0  0  0  0  0  0  0  0  0  0  0
    0.8200   15.3210   -1.6490 C   0  0  1  0  0  0  0  0  0  0  0  0
   -0.0410   14.8870   -0.4210 C   0  0  0  0  0  0  0  0  0  0  0  0
    1.1060   14.1180   -2.6060 C   0  0  2  0  0  0  0  0  0  0  0  0
   -0.1440   13.4130   -3.1600 C   0  0  0  0  0  0  0  0  0  0  0  0
   -0.6500   12.2740   -2.3380 C   0  0  0  0  0  0  0  0  0  0  0  0
    0.0330   11.6520   -1.3580 C   0  0  0  0  0  0  0  0  0  0  0  0
    1.4910   12.0220   -1.0580 C   0  0  1  0  0  0  0  0  0  0  0  0
    2.3340   10.7280   -0.9130 C   0  0  0  0  0  0  0  0  0  0  0  0
    1.7530    9.7640    0.1160 C   0  0  0  0  0  0  0  0  0  0  0  0
    0.3230    9.3740   -0.2480 C   0  0  2  0  0  0  0  0  0  0  0  0
    0.3480    8.6030   -1.4530 O   0  0  0  0  0  0  0  0  0  0  0  0
   -0.6180   10.5970   -0.4300 C   0  0  0  0  0  0  0  0  0  0  0  0
   -0.8850   11.2580    0.9450 C   0  0  0  0  0  0  0  0  0  0  0  0
   -1.9910   10.0740   -0.9340 C   0  0  0  0  0  0  0  0  0  0  0  0
    2.1560   13.0770   -2.0430 C   0  0  1  0  0  0  0  0  0  0  0  0
    2.7610   12.3430   -3.2790 C   0  0  0  0  0  0  0  0  0  0  0  0
    3.3600   13.7780   -1.3100 C   0  0  0  0  0  0  0  0  0  0  0  0
    3.0310   15.0310   -0.4760 C   0  0  0  0  0  0  0  0  0  0  0  0
    2.1800   16.0180   -1.2810 C   0  0  2  0  0  0  0  0  0  0  0  0
    3.0290   16.4880   -2.5110 C   0  0  0  0  0  0  0  0  0  0  0  0
    3.3973   18.0900    1.7249 H   0  0  0  0  0  0  0  0  0  0  0  0
    3.9664   16.8667    0.5390 H   0  0  0  0  0  0  0  0  0  0  0  0
    4.6774   18.5164    0.5390 H   0  0  0  0  0  0  0  0  0  0  0  0
    3.1923   18.6467   -1.2375 H   0  0  0  0  0  0  0  0  0  0  0  0
    2.6561   20.2595    0.7962 H   0  0  0  0  0  0  0  0  0  0  0  0
    1.6195   20.2057   -0.7091 H   0  0  0  0  0  0  0  0  0  0  0  0
    0.5384   18.2927    1.0536 H   0  0  0  0  0  0  0  0  0  0  0  0
    0.8824   19.7722    2.0437 H   0  0  0  0  0  0  0  0  0  0  0  0
    0.1138   20.6674   -0.1977 H   0  0  0  0  0  0  0  0  0  0  0  0
   -2.0229   17.7859    1.7071 H   0  0  0  0  0  0  0  0  0  0  0  0
   -2.9586   17.5340    0.1946 H   0  0  0  0  0  0  0  0  0  0  0  0
   -1.1757   17.3155    0.1946 H   0  0  0  0  0  0  0  0  0  0  0  0
   -3.6280   20.4013   -0.1878 H   0  0  0  0  0  0  0  0  0  0  0  0
   -2.2875   20.6539   -1.3566 H   0  0  0  0  0  0  0  0  0  0  0  0
   -3.1995   19.1063   -1.3566 H   0  0  0  0  0  0  0  0  0  0  0  0
    1.4379   17.0227    0.5117 H   0  0  0  0  0  0  0  0  0  0  0  0
   -0.3668   18.0293   -0.7396 H   0  0  0  0  0  0  0  0  0  0  0  0
    0.7316   18.5984   -2.0148 H   0  0  0  0  0  0  0  0  0  0  0  0
   -1.0267   16.3551   -2.2166 H   0  0  0  0  0  0  0  0  0  0  0  0
    0.3058   16.6682   -3.3258 H   0  0  0  0  0  0  0  0  0  0  0  0
    0.4852   15.1522    0.5079 H   0  0  0  0  0  0  0  0  0  0  0  0
   -1.0117   15.4035   -0.4528 H   0  0  0  0  0  0  0  0  0  0  0  0
   -0.2031   13.7995   -0.4528 H   0  0  0  0  0  0  0  0  0  0  0  0
    1.5773   14.6107   -3.4692 H   0  0  0  0  0  0  0  0  0  0  0  0
   -0.9484   14.1592   -3.2388 H   0  0  0  0  0  0  0  0  0  0  0  0
    0.1530   12.9821   -4.1275 H   0  0  0  0  0  0  0  0  0  0  0  0
   -1.6668   11.9122   -2.5508 H   0  0  0  0  0  0  0  0  0  0  0  0
    1.4760   12.5667   -0.1025 H   0  0  0  0  0  0  0  0  0  0  0  0
    2.3728   10.2212   -1.8885 H   0  0  0  0  0  0  0  0  0  0  0  0
    3.3370   11.0197   -0.5683 H   0  0  0  0  0  0  0  0  0  0  0  0
    2.3753    8.8576    0.1517 H   0  0  0  0  0  0  0  0  0  0  0  0
    1.7421   10.2621    1.0967 H   0  0  0  0  0  0  0  0  0  0  0  0
   -0.0825    8.7883    0.5901 H   0  0  0  0  0  0  0  0  0  0  0  0
   -0.4790    8.7800   -1.9340 H   0  0  0  0  0  0  0  0  0  0  0  0
   -0.6034   10.5608    1.7479 H   0  0  0  0  0  0  0  0  0  0  0  0
   -0.2879   12.1777    1.0318 H   0  0  0  0  0  0  0  0  0  0  0  0
   -1.9534   11.5049    1.0318 H   0  0  0  0  0  0  0  0  0  0  0  0
   -2.6296    9.8308   -0.0720 H   0  0  0  0  0  0  0  0  0  0  0  0
   -2.4776   10.8497   -1.5435 H   0  0  0  0  0  0  0  0  0  0  0  0
   -1.8382    9.1711   -1.5435 H   0  0  0  0  0  0  0  0  0  0  0  0
    3.4260   11.5362   -2.9371 H   0  0  0  0  0  0  0  0  0  0  0  0
    1.9488   11.9163   -3.8858 H   0  0  0  0  0  0  0  0  0  0  0  0
    3.3349   13.0588   -3.8858 H   0  0  0  0  0  0  0  0  0  0  0  0
    3.8144   13.0384   -0.6343 H   0  0  0  0  0  0  0  0  0  0  0  0
    4.0198   14.1333   -2.1153 H   0  0  0  0  0  0  0  0  0  0  0  0
    2.4761   14.7284    0.4243 H   0  0  0  0  0  0  0  0  0  0  0  0
    3.9738   15.5255   -0.1993 H   0  0  0  0  0  0  0  0  0  0  0  0
    3.9400   16.9923   -2.1565 H   0  0  0  0  0  0  0  0  0  0  0  0
    3.3065   15.6151   -3.1200 H   0  0  0  0  0  0  0  0  0  0  0  0
    2.4365   17.1866   -3.1200 H   0  0  0  0  0  0  0  0  0  0  0  0
  1  2  1  0
  2  3  1  0
  3  4  1  0
  4  5  1  0
  5  6  1  0
  6  7  1  0
  7  8  1  0
  7  9  1  0
  2 10  1  0
 10 11  1  0
 11 12  1  0
 12 13  1  0
 13 14  1  1
 13 15  1  0
 15 16  1  0
 16 17  1  0
 17 18  2  0
 18 19  1  0
 19 20  1  0
 20 21  1  0
 21 22  1  0
 22 23  1  0
 22 24  1  0
 24 25  1  0
 24 26  1  0
 19 27  1  0
 27 28  1  6
 27 29  1  0
 29 30  1  0
 30 31  1  0
 31 32  1  6
  7  5  1  0
 31 10  1  0
 31 13  1  0
 27 15  1  0
 24 18  1  0
  1 33  1  0
  1 34  1  0
  1 35  1  0
  2 36  1  6
  3 37  1  0
  3 38  1  0
  4 39  1  0
  4 40  1  0
  5 41  1  6
  8 42  1  0
  8 43  1  0
  8 44  1  0
  9 45  1  0
  9 46  1  0
  9 47  1  0
 10 48  1  1
 11 49  1  0
 11 50  1  0
 12 51  1  0
 12 52  1  0
 14 53  1  0
 14 54  1  0
 14 55  1  0
 15 56  1  6
 16 57  1  0
 16 58  1  0
 17 59  1  0
 19 60  1  1
 20 61  1  0
 20 62  1  0
 21 63  1  0
 21 64  1  0
 22 65  1  1
 23 66  1  0
 25 67  1  0
 25 68  1  0
 25 69  1  0
 26 70  1  0
 26 71  1  0
 26 72  1  0
 28 73  1  0
 28 74  1  0
 28 75  1  0
 29 76  1  0
 29 77  1  0
 30 78  1  0
 30 79  1  0
 32 80  1  0
 32 81  1  0
 32 82  1  0
M  END
>  <meeko>  (7) 
{"is_sidechain": [false], "intermolecular_energy": 2.731, "internal_energy": -0.839}

$$$$
EPH_relaxed_0001_pdb2pqr_Repair_29_r2_0001_out
     RDKit          3D

 82 86  0  0  0  0  0  0  0  0999 V2000
    0.4420    8.8260   -2.3850 C   0  0  0  0  0  0  0  0  0  0  0  0
    1.1870    9.9710   -3.0780 C   0  0  2  0  0  0  0  0  0  0  0  0
    2.6860    9.9910   -2.7180 C   0  0  0  0  0  0  0  0  0  0  0  0
    3.5740   10.5840   -3.8140 C   0  0  0  0  0  0  0  0  0  0  0  0
    4.9710   10.8240   -3.3270 C   0  0  2  0  0  0  0  0  0  0  0  0
    5.5660   12.0430   -3.7900 O   0  0  0  0  0  0  0  0  0  0  0  0
    6.1860   10.8260   -4.2370 C   0  0  0  0  0  0  0  0  0  0  0  0
    6.0590   10.5840   -5.7080 C   0  0  0  0  0  0  0  0  0  0  0  0
    7.5330   10.5780   -3.6330 C   0  0  0  0  0  0  0  0  0  0  0  0
    0.5460   11.3040   -2.7110 C   0  0  1  0  0  0  0  0  0  0  0  0
   -0.8280   11.1340   -2.0090 C   0  0  0  0  0  0  0  0  0  0  0  0
   -0.9420   12.2760   -0.9670 C   0  0  0  0  0  0  0  0  0  0  0  0
    0.2030   13.2500   -1.3290 C   0  0  1  0  0  0  0  0  0  0  0  0
   -0.3540   14.1030   -2.5110 C   0  0  0  0  0  0  0  0  0  0  0  0
    0.7360   14.1520   -0.1680 C   0  0  2  0  0  0  0  0  0  0  0  0
   -0.2940   15.1270    0.4270 C   0  0  0  0  0  0  0  0  0  0  0  0
   -0.3450   16.4730   -0.2180 C   0  0  0  0  0  0  0  0  0  0  0  0
    0.5920   16.9820   -1.0400 C   0  0  0  0  0  0  0  0  0  0  0  0
    1.8940   16.2200   -1.3180 C   0  0  1  0  0  0  0  0  0  0  0  0
    3.0980   17.1910   -1.1960 C   0  0  0  0  0  0  0  0  0  0  0  0
    2.9450   18.4260   -2.0780 C   0  0  0  0  0  0  0  0  0  0  0  0
    1.6690   19.1880   -1.7320 C   0  0  2  0  0  0  0  0  0  0  0  0
    1.7990   19.7320   -0.4150 O   0  0  0  0  0  0  0  0  0  0  0  0
    0.3890   18.3090   -1.8110 C   0  0  0  0  0  0  0  0  0  0  0  0
    0.0810   17.9700   -3.2900 C   0  0  0  0  0  0  0  0  0  0  0  0
   -0.8060   19.1600   -1.3030 C   0  0  0  0  0  0  0  0  0  0  0  0
    2.1040   14.8800   -0.4890 C   0  0  1  0  0  0  0  0  0  0  0  0
    2.7690   15.2030    0.8840 C   0  0  0  0  0  0  0  0  0  0  0  0
    3.1110   13.9490   -1.2620 C   0  0  0  0  0  0  0  0  0  0  0  0
    2.5090   12.9960   -2.3120 C   0  0  0  0  0  0  0  0  0  0  0  0
    1.3210   12.2210   -1.7330 C   0  0  2  0  0  0  0  0  0  0  0  0
    1.8560   11.3370   -0.5550 C   0  0  0  0  0  0  0  0  0  0  0  0
    0.5196    8.9452   -1.2942 H   0  0  0  0  0  0  0  0  0  0  0  0
   -0.6171    8.8451   -2.6816 H   0  0  0  0  0  0  0  0  0  0  0  0
    0.8885    7.8654   -2.6816 H   0  0  0  0  0  0  0  0  0  0  0  0
    1.1106    9.8069   -4.1630 H   0  0  0  0  0  0  0  0  0  0  0  0
    2.8157   10.5895   -1.8042 H   0  0  0  0  0  0  0  0  0  0  0  0
    2.9980    8.9449   -2.5824 H   0  0  0  0  0  0  0  0  0  0  0  0
    3.6076    9.8849   -4.6626 H   0  0  0  0  0  0  0  0  0  0  0  0
    3.1456   11.5510   -4.1163 H   0  0  0  0  0  0  0  0  0  0  0  0
    4.7566   10.3008   -2.3834 H   0  0  0  0  0  0  0  0  0  0  0  0
    5.5541    9.6218   -5.8791 H   0  0  0  0  0  0  0  0  0  0  0  0
    5.4695   11.3935   -6.1632 H   0  0  0  0  0  0  0  0  0  0  0  0
    7.0601   10.5588   -6.1632 H   0  0  0  0  0  0  0  0  0  0  0  0
    7.4514   10.5930   -2.5361 H   0  0  0  0  0  0  0  0  0  0  0  0
    7.9061    9.5961   -3.9595 H   0  0  0  0  0  0  0  0  0  0  0  0
    8.2313   11.3627   -3.9595 H   0  0  0  0  0  0  0  0  0  0  0  0
    0.5035   11.7675   -3.7077 H   0  0  0  0  0  0  0  0  0  0  0  0
   -1.6416   11.2104   -2.7453 H   0  0  0  0  0  0  0  0  0  0  0  0
   -0.9054   10.1490   -1.5255 H   0  0  0  0  0  0  0  0  0  0  0  0
   -1.9179   12.7775   -1.0457 H   0  0  0  0  0  0  0  0  0  0  0  0
   -0.8648   11.9070    0.0664 H   0  0  0  0  0  0  0  0  0  0  0  0
   -0.9144   14.9612   -2.1117 H   0  0  0  0  0  0  0  0  0  0  0  0
    0.4819   14.4656   -3.1273 H   0  0  0  0  0  0  0  0  0  0  0  0
   -1.0221   13.4835   -3.1273 H   0  0  0  0  0  0  0  0  0  0  0  0
    0.9433   13.4179    0.6246 H   0  0  0  0  0  0  0  0  0  0  0  0
   -1.2894   14.6680    0.3347 H   0  0  0  0  0  0  0  0  0  0  0  0
    0.0166   15.2999    1.4680 H   0  0  0  0  0  0  0  0  0  0  0  0
   -1.2219   17.1015   -0.0034 H   0  0  0  0  0  0  0  0  0  0  0  0
    1.8156   15.8503   -2.3510 H   0  0  0  0  0  0  0  0  0  0  0  0
    3.1853   17.5145   -0.1483 H   0  0  0  0  0  0  0  0  0  0  0  0
    3.9969   16.6518   -1.5294 H   0  0  0  0  0  0  0  0  0  0  0  0
    3.8113   19.0866   -1.9260 H   0  0  0  0  0  0  0  0  0  0  0  0
    2.8875   18.1029   -3.1279 H   0  0  0  0  0  0  0  0  0  0  0  0
    1.5482   19.9850   -2.4805 H   0  0  0  0  0  0  0  0  0  0  0  0
    2.0490   20.6670   -0.5050 H   0  0  0  0  0  0  0  0  0  0  0  0
   -0.6581   17.1565   -3.3335 H   0  0  0  0  0  0  0  0  0  0  0  0
   -0.3236   18.8603   -3.7937 H   0  0  0  0  0  0  0  0  0  0  0  0
    1.0059   17.6524   -3.7937 H   0  0  0  0  0  0  0  0  0  0  0  0
   -0.8118   19.1641   -0.2030 H   0  0  0  0  0  0  0  0  0  0  0  0
   -0.7054   20.1910   -1.6730 H   0  0  0  0  0  0  0  0  0  0  0  0
   -1.7474   18.7278   -1.6730 H   0  0  0  0  0  0  0  0  0  0  0  0
    2.1040   14.8800    1.6985 H   0  0  0  0  0  0  0  0  0  0  0  0
    3.7285   14.6705    0.9610 H   0  0  0  0  0  0  0  0  0  0  0  0
    2.9436   16.2863    0.9610 H   0  0  0  0  0  0  0  0  0  0  0  0
    3.8352   14.5972   -1.7771 H   0  0  0  0  0  0  0  0  0  0  0  0
    3.5452   13.2931   -0.4931 H   0  0  0  0  0  0  0  0  0  0  0  0
    2.1680   13.5833   -3.1773 H   0  0  0  0  0  0  0  0  0  0  0  0
    3.2827   12.2756   -2.6159 H   0  0  0  0  0  0  0  0  0  0  0  0
    1.5775   11.7972    0.4045 H   0  0  0  0  0  0  0  0  0  0  0  0
    1.4146   10.3316   -0.6213 H   0  0  0  0  0  0  0  0  0  0  0  0
    2.9514   11.2617   -0.6213 H   0  0  0  0  0  0  0  0  0  0  0  0
  1  2  1  0
  2  3  1  0
  3  4  1  0
  4  5  1  0
  5  6  1  0
  6  7  1  0
  7  8  1  0
  7  9  1  0
  2 10  1  0
 10 11  1  0
 11 12  1  0
 12 13  1  0
 13 14  1  6
 13 15  1  0
 15 16  1  0
 16 17  1  0
 17 18  2  0
 18 19  1  0
 19 20  1  0
 20 21  1  0
 21 22  1  0
 22 23  1  0
 22 24  1  0
 24 25  1  0
 24 26  1  0
 19 27  1  0
 27 28  1  1
 27 29  1  0
 29 30  1  0
 30 31  1  0
 31 32  1  1
  7  5  1  0
 31 10  1  0
 31 13  1  0
 27 15  1  0
 24 18  1  0
  1 33  1  0
  1 34  1  0
  1 35  1  0
  2 36  1  6
  3 37  1  0
  3 38  1  0
  4 39  1  0
  4 40  1  0
  5 41  1  1
  8 42  1  0
  8 43  1  0
  8 44  1  0
  9 45  1  0
  9 46  1  0
  9 47  1  0
 10 48  1  6
 11 49  1  0
 11 50  1  0
 12 51  1  0
 12 52  1  0
 14 53  1  0
 14 54  1  0
 14 55  1  0
 15 56  1  1
 16 57  1  0
 16 58  1  0
 17 59  1  0
 19 60  1  6
 20 61  1  0
 20 62  1  0
 21 63  1  0
 21 64  1  0
 22 65  1  6
 23 66  1  0
 25 67  1  0
 25 68  1  0
 25 69  1  0
 26 70  1  0
 26 71  1  0
 26 72  1  0
 28 73  1  0
 28 74  1  0
 28 75  1  0
 29 76  1  0
 29 77  1  0
 30 78  1  0
 30 79  1  0
 32 80  1  0
 32 81  1  0
 32 82  1  0
M  END
>  <meeko>  (8) 
{"is_sidechain": [false], "intermolecular_energy": 2.731, "internal_energy": -0.839}

$$$$
EPH_relaxed_0001_pdb2pqr_Repair_29_r2_0001_out
     RDKit          3D

 82 86  0  0  0  0  0  0  0  0999 V2000
    0.5030   10.6610   -4.0380 C   0  0  0  0  0  0  0  0  0  0  0  0
    1.1590   10.2860   -2.7060 C   0  0  2  0  0  0  0  0  0  0  0  0
    0.4430    9.1080   -2.0160 C   0  0  0  0  0  0  0  0  0  0  0  0
    0.0280    9.4010   -0.5720 C   0  0  0  0  0  0  0  0  0  0  0  0
   -1.3780    8.9580   -0.2980 C   0  0  2  0  0  0  0  0  0  0  0  0
   -2.2000    8.8200   -1.4650 O   0  0  0  0  0  0  0  0  0  0  0  0
   -2.5920    9.8380   -0.5300 C   0  0  0  0  0  0  0  0  0  0  0  0
   -2.4560   11.2320   -1.0560 C   0  0  0  0  0  0  0  0  0  0  0  0
   -3.8550    9.5230    0.2090 C   0  0  0  0  0  0  0  0  0  0  0  0
    1.1820   11.4970   -1.7790 C   0  0  1  0  0  0  0  0  0  0  0  0
    2.2250   11.3560   -0.6380 C   0  0  0  0  0  0  0  0  0  0  0  0
    2.7890   12.7750   -0.3710 C   0  0  0  0  0  0  0  0  0  0  0  0
    1.8270   13.7250   -1.1220 C   0  0  1  0  0  0  0  0  0  0  0  0
    0.6030   13.8940   -0.1670 C   0  0  0  0  0  0  0  0  0  0  0  0
    2.4170   15.1070   -1.5540 C   0  0  2  0  0  0  0  0  0  0  0  0
    2.8710   16.0130   -0.3960 C   0  0  0  0  0  0  0  0  0  0  0  0
    1.8280   16.9410    0.1340 C   0  0  0  0  0  0  0  0  0  0  0  0
    0.6700   17.2480   -0.4790 C   0  0  0  0  0  0  0  0  0  0  0  0
    0.3560   16.7150   -1.8830 C   0  0  1  0  0  0  0  0  0  0  0  0
   -0.1840   17.8700   -2.7660 C   0  0  0  0  0  0  0  0  0  0  0  0
   -1.3750   18.5830   -2.1340 C   0  0  0  0  0  0  0  0  0  0  0  0
   -1.0080   19.1490   -0.7640 C   0  0  2  0  0  0  0  0  0  0  0  0
   -0.0470   20.1940   -0.9410 O   0  0  0  0  0  0  0  0  0  0  0  0
   -0.4420   18.0780    0.2100 C   0  0  0  0  0  0  0  0  0  0  0  0
   -1.5750   17.1130    0.6370 C   0  0  0  0  0  0  0  0  0  0  0  0
    0.0210   18.8040    1.5020 C   0  0  0  0  0  0  0  0  0  0  0  0
    1.5220   15.8990   -2.5910 C   0  0  1  0  0  0  0  0  0  0  0  0
    2.4740   16.8770   -3.3450 C   0  0  0  0  0  0  0  0  0  0  0  0
    0.8970   14.9550   -3.6850 C   0  0  0  0  0  0  0  0  0  0  0  0
    0.4420   13.5590   -3.2210 C   0  0  0  0  0  0  0  0  0  0  0  0
    1.5410   12.8670   -2.4070 C   0  0  2  0  0  0  0  0  0  0  0  0
    2.7770   12.6630   -3.3480 C   0  0  0  0  0  0  0  0  0  0  0  0
   -0.4372   11.1985   -3.8452 H   0  0  0  0  0  0  0  0  0  0  0  0
    1.1832   11.3067   -4.6128 H   0  0  0  0  0  0  0  0  0  0  0  0
    0.2918    9.7472   -4.6128 H   0  0  0  0  0  0  0  0  0  0  0  0
    2.1881    9.9640   -2.9236 H   0  0  0  0  0  0  0  0  0  0  0  0
   -0.4603    8.8639   -2.5942 H   0  0  0  0  0  0  0  0  0  0  0  0
    1.1579    8.2727   -1.9819 H   0  0  0  0  0  0  0  0  0  0  0  0
    0.7084    8.8692    0.1093 H   0  0  0  0  0  0  0  0  0  0  0  0
    0.0818   10.4882   -0.4138 H   0  0  0  0  0  0  0  0  0  0  0  0
   -1.0488    8.3690    0.5708 H   0  0  0  0  0  0  0  0  0  0  0  0
   -2.3873   11.9365   -0.2140 H   0  0  0  0  0  0  0  0  0  0  0  0
   -1.5465   11.3050   -1.6704 H   0  0  0  0  0  0  0  0  0  0  0  0
   -3.3343   11.4794   -1.6704 H   0  0  0  0  0  0  0  0  0  0  0  0
   -3.6676    9.5697    1.2919 H   0  0  0  0  0  0  0  0  0  0  0  0
   -4.6301   10.2553   -0.0609 H   0  0  0  0  0  0  0  0  0  0  0  0
   -4.1954    8.5124   -0.0609 H   0  0  0  0  0  0  0  0  0  0  0  0
    0.1322   11.4976   -1.4505 H   0  0  0  0  0  0  0  0  0  0  0  0
    1.7432   10.9628    0.2693 H   0  0  0  0  0  0  0  0  0  0  0  0
    3.0273   10.6583   -0.9198 H   0  0  0  0  0  0  0  0  0  0  0  0
    2.7902   12.9959    0.7066 H   0  0  0  0  0  0  0  0  0  0  0  0
    3.8297   12.8810   -0.7111 H   0  0  0  0  0  0  0  0  0  0  0  0
    0.9439   13.8469    0.8778 H   0  0  0  0  0  0  0  0  0  0  0  0
    0.1243   14.8668   -0.3531 H   0  0  0  0  0  0  0  0  0  0  0  0
   -0.1214   13.0873   -0.3531 H   0  0  0  0  0  0  0  0  0  0  0  0
    3.3360   14.8157   -2.0837 H   0  0  0  0  0  0  0  0  0  0  0  0
    3.2034   15.3676    0.4304 H   0  0  0  0  0  0  0  0  0  0  0  0
    3.6682   16.6519   -0.8038 H   0  0  0  0  0  0  0  0  0  0  0  0
    2.0227   17.4137    1.1080 H   0  0  0  0  0  0  0  0  0  0  0  0
   -0.4236   15.9502   -1.7513 H   0  0  0  0  0  0  0  0  0  0  0  0
    0.6227   18.6015   -2.9215 H   0  0  0  0  0  0  0  0  0  0  0  0
   -0.5233   17.4325   -3.7165 H   0  0  0  0  0  0  0  0  0  0  0  0
   -1.6914   19.4067   -2.7908 H   0  0  0  0  0  0  0  0  0  0  0  0
   -2.1917   17.8571   -2.0067 H   0  0  0  0  0  0  0  0  0  0  0  0
   -1.9321   19.5315   -0.3060 H   0  0  0  0  0  0  0  0  0  0  0  0
    0.0090   20.3860   -1.8930 H   0  0  0  0  0  0  0  0  0  0  0  0
   -1.6256   17.0699    1.7350 H   0  0  0  0  0  0  0  0  0  0  0  0
   -2.5346   17.4755    0.2397 H   0  0  0  0  0  0  0  0  0  0  0  0
   -1.3698   16.1080    0.2397 H   0  0  0  0  0  0  0  0  0  0  0  0
   -0.3337   18.2478    2.3823 H   0  0  0  0  0  0  0  0  0  0  0  0
    1.1196   18.8563    1.5195 H   0  0  0  0  0  0  0  0  0  0  0  0
   -0.3949   19.8222    1.5195 H   0  0  0  0  0  0  0  0  0  0  0  0
    3.0477   17.4663   -2.6145 H   0  0  0  0  0  0  0  0  0  0  0  0
    3.1665   16.3008   -3.9762 H   0  0  0  0  0  0  0  0  0  0  0  0
    1.8794   17.5538   -3.9762 H   0  0  0  0  0  0  0  0  0  0  0  0
    0.0195   15.4682   -4.1051 H   0  0  0  0  0  0  0  0  0  0  0  0
    1.7099   14.7687   -4.4022 H   0  0  0  0  0  0  0  0  0  0  0  0
   -0.4574   13.6627   -2.5963 H   0  0  0  0  0  0  0  0  0  0  0  0
    0.2251   12.9473   -4.1091 H   0  0  0  0  0  0  0  0  0  0  0  0
    3.6808   12.5138   -2.7390 H   0  0  0  0  0  0  0  0  0  0  0  0
    2.6127   11.7798   -3.9828 H   0  0  0  0  0  0  0  0  0  0  0  0
    2.9052   13.5521   -3.9828 H   0  0  0  0  0  0  0  0  0  0  0  0
  1  2  1  0
  2  3  1  0
  3  4  1  0
  4  5  1  0
  5  6  1  0
  6  7  1  0
  7  8  1  0
  7  9  1  0
  2 10  1  0
 10 11  1  0
 11 12  1  0
 12 13  1  0
 13 14  1  1
 13 15  1  0
 15 16  1  0
 16 17  1  0
 17 18  2  0
 18 19  1  0
 19 20  1  0
 20 21  1  0
 21 22  1  0
 22 23  1  0
 22 24  1  0
 24 25  1  0
 24 26  1  0
 19 27  1  0
 27 28  1  6
 27 29  1  0
 29 30  1  0
 30 31  1  0
 31 32  1  6
  7  5  1  0
 31 10  1  0
 31 13  1  0
 27 15  1  0
 24 18  1  0
  1 33  1  0
  1 34  1  0
  1 35  1  0
  2 36  1  6
  3 37  1  0
  3 38  1  0
  4 39  1  0
  4 40  1  0
  5 41  1  1
  8 42  1  0
  8 43  1  0
  8 44  1  0
  9 45  1  0
  9 46  1  0
  9 47  1  0
 10 48  1  1
 11 49  1  0
 11 50  1  0
 12 51  1  0
 12 52  1  0
 14 53  1  0
 14 54  1  0
 14 55  1  0
 15 56  1  6
 16 57  1  0
 16 58  1  0
 17 59  1  0
 19 60  1  1
 20 61  1  0
 20 62  1  0
 21 63  1  0
 21 64  1  0
 22 65  1  1
 23 66  1  0
 25 67  1  0
 25 68  1  0
 25 69  1  0
 26 70  1  0
 26 71  1  0
 26 72  1  0
 28 73  1  0
 28 74  1  0
 28 75  1  0
 29 76  1  0
 29 77  1  0
 30 78  1  0
 30 79  1  0
 32 80  1  0
 32 81  1  0
 32 82  1  0
M  END
>  <meeko>  (9) 
{"is_sidechain": [false], "intermolecular_energy": 2.731, "internal_energy": -0.839}

$$$$
EPH_relaxed_0001_pdb2pqr_Repair_29_r2_0001_out
     RDKit          3D

 82 86  0  0  0  0  0  0  0  0999 V2000
    0.1550   17.7890   -2.5520 C   0  0  0  0  0  0  0  0  0  0  0  0
   -0.0970   16.8890   -1.3390 C   0  0  2  0  0  0  0  0  0  0  0  0
   -0.1640   17.6910   -0.0240 C   0  0  0  0  0  0  0  0  0  0  0  0
    0.4440   19.0930   -0.1270 C   0  0  0  0  0  0  0  0  0  0  0  0
    1.6150   19.2580    0.7930 C   0  0  2  0  0  0  0  0  0  0  0  0
    2.6060   20.1900    0.3400 O   0  0  0  0  0  0  0  0  0  0  0  0
    3.0240   18.8200    0.4410 C   0  0  0  0  0  0  0  0  0  0  0  0
    3.3360   18.1800   -0.8760 C   0  0  0  0  0  0  0  0  0  0  0  0
    3.9940   18.5660    1.5520 C   0  0  0  0  0  0  0  0  0  0  0  0
    0.9910   15.8260   -1.2460 C   0  0  1  0  0  0  0  0  0  0  0  0
    1.2080   15.3180    0.2040 C   0  0  0  0  0  0  0  0  0  0  0  0
    1.5630   13.8120    0.1030 C   0  0  0  0  0  0  0  0  0  0  0  0
    1.8640   13.5830   -1.3970 C   0  0  1  0  0  0  0  0  0  0  0  0
    3.3340   14.0720   -1.5910 C   0  0  0  0  0  0  0  0  0  0  0  0
    1.6670   12.1250   -1.9260 C   0  0  2  0  0  0  0  0  0  0  0  0
    2.5820   11.0680   -1.2840 C   0  0  0  0  0  0  0  0  0  0  0  0
    3.8840   10.8440   -1.9800 C   0  0  0  0  0  0  0  0  0  0  0  0
    4.1850   11.2530   -3.2260 C   0  0  0  0  0  0  0  0  0  0  0  0
    3.1300   11.9320   -4.1090 C   0  0  1  0  0  0  0  0  0  0  0  0
    3.1600   11.3060   -5.5280 C   0  0  0  0  0  0  0  0  0  0  0  0
    4.5520   11.3380   -6.1520 C   0  0  0  0  0  0  0  0  0  0  0  0
    5.5610   10.6030   -5.2740 C   0  0  2  0  0  0  0  0  0  0  0  0
    5.2320    9.2100   -5.2610 O   0  0  0  0  0  0  0  0  0  0  0  0
    5.6120   11.1410   -3.8170 C   0  0  0  0  0  0  0  0  0  0  0  0
    6.2550   12.5500   -3.8050 C   0  0  0  0  0  0  0  0  0  0  0  0
    6.5630   10.2230   -3.0020 C   0  0  0  0  0  0  0  0  0  0  0  0
    1.6620   12.0030   -3.5040 C   0  0  1  0  0  0  0  0  0  0  0  0
    0.8810   10.6980   -3.8480 C   0  0  0  0  0  0  0  0  0  0  0  0
    0.8790   13.1830   -4.1930 C   0  0  0  0  0  0  0  0  0  0  0  0
    1.0190   14.5770   -3.5520 C   0  0  0  0  0  0  0  0  0  0  0  0
    0.7740   14.5140   -2.0420 C   0  0  2  0  0  0  0  0  0  0  0  0
   -0.7040   14.0460   -1.8160 C   0  0  0  0  0  0  0  0  0  0  0  0
    0.4368   18.7956   -2.2095 H   0  0  0  0  0  0  0  0  0  0  0  0
    0.9695   17.3668   -3.1589 H   0  0  0  0  0  0  0  0  0  0  0  0
   -0.7603   17.8511   -3.1589 H   0  0  0  0  0  0  0  0  0  0  0  0
   -1.0759   16.4079   -1.4818 H   0  0  0  0  0  0  0  0  0  0  0  0
   -1.2197   17.7908    0.2687 H   0  0  0  0  0  0  0  0  0  0  0  0
    0.4271   17.1379    0.7207 H   0  0  0  0  0  0  0  0  0  0  0  0
    0.7769   19.2621   -1.1617 H   0  0  0  0  0  0  0  0  0  0  0  0
   -0.3259   19.8229    0.1635 H   0  0  0  0  0  0  0  0  0  0  0  0
    0.9810   19.0681    1.6716 H   0  0  0  0  0  0  0  0  0  0  0  0
    3.8122   17.2032   -0.7053 H   0  0  0  0  0  0  0  0  0  0  0  0
    2.4052   18.0397   -1.4452 H   0  0  0  0  0  0  0  0  0  0  0  0
    4.0198   18.8269   -1.4452 H   0  0  0  0  0  0  0  0  0  0  0  0
    3.4869   18.6988    2.5190 H   0  0  0  0  0  0  0  0  0  0  0  0
    4.3765   17.5374    1.4768 H   0  0  0  0  0  0  0  0  0  0  0  0
    4.8316   19.2751    1.4768 H   0  0  0  0  0  0  0  0  0  0  0  0
    1.8349   16.3890   -1.6713 H   0  0  0  0  0  0  0  0  0  0  0  0
    2.0321   15.8702    0.6793 H   0  0  0  0  0  0  0  0  0  0  0  0
    0.3059   15.4706    0.8147 H   0  0  0  0  0  0  0  0  0  0  0  0
    2.4458   13.5789    0.7164 H   0  0  0  0  0  0  0  0  0  0  0  0
    0.7515   13.1662    0.4694 H   0  0  0  0  0  0  0  0  0  0  0  0
    3.8015   14.2275   -0.6075 H   0  0  0  0  0  0  0  0  0  0  0  0
    3.9016   13.3143   -2.1511 H   0  0  0  0  0  0  0  0  0  0  0  0
    3.3346   15.0187   -2.1511 H   0  0  0  0  0  0  0  0  0  0  0  0
    0.6493   11.8862   -1.5837 H   0  0  0  0  0  0  0  0  0  0  0  0
    2.7979   11.3862   -0.2534 H   0  0  0  0  0  0  0  0  0  0  0  0
    2.0361   10.1150   -1.3457 H   0  0  0  0  0  0  0  0  0  0  0  0
    4.6630   10.2984   -1.4273 H   0  0  0  0  0  0  0  0  0  0  0  0
    3.4167   12.9926   -4.1638 H   0  0  0  0  0  0  0  0  0  0  0  0
    2.8285   10.2594   -5.4588 H   0  0  0  0  0  0  0  0  0  0  0  0
    2.4927   11.9003   -6.1694 H   0  0  0  0  0  0  0  0  0  0  0  0
    4.5149   10.8548   -7.1395 H   0  0  0  0  0  0  0  0  0  0  0  0
    4.8692   12.3868   -6.2484 H   0  0  0  0  0  0  0  0  0  0  0  0
    6.5585   10.7720   -5.7057 H   0  0  0  0  0  0  0  0  0  0  0  0
    4.2640    9.1370   -5.1980 H   0  0  0  0  0  0  0  0  0  0  0  0
    6.4039   12.8763   -2.7651 H   0  0  0  0  0  0  0  0  0  0  0  0
    7.2260   12.5143   -4.3207 H   0  0  0  0  0  0  0  0  0  0  0  0
    5.5918   13.2601   -4.3207 H   0  0  0  0  0  0  0  0  0  0  0  0
    6.3959   10.3843   -1.9268 H   0  0  0  0  0  0  0  0  0  0  0  0
    6.3596    9.1710   -3.2509 H   0  0  0  0  0  0  0  0  0  0  0  0
    7.6071   10.4634   -3.2509 H   0  0  0  0  0  0  0  0  0  0  0  0
    0.5799   10.1948   -2.9174 H   0  0  0  0  0  0  0  0  0  0  0  0
   -0.0146   10.9505   -4.4347 H   0  0  0  0  0  0  0  0  0  0  0  0
    1.5268   10.0281   -4.4347 H   0  0  0  0  0  0  0  0  0  0  0  0
    1.2346   13.2569   -5.2313 H   0  0  0  0  0  0  0  0  0  0  0  0
   -0.1846   12.9231   -4.0875 H   0  0  0  0  0  0  0  0  0  0  0  0
    2.0347   14.9571   -3.7360 H   0  0  0  0  0  0  0  0  0  0  0  0
    0.2699   15.2458   -4.0009 H   0  0  0  0  0  0  0  0  0  0  0  0
   -0.9073   13.9816   -0.7369 H   0  0  0  0  0  0  0  0  0  0  0  0
   -1.3923   14.7701   -2.2762 H   0  0  0  0  0  0  0  0  0  0  0  0
   -0.8501   13.0576   -2.2762 H   0  0  0  0  0  0  0  0  0  0  0  0
  1  2  1  0
  2  3  1  0
  3  4  1  0
  4  5  1  0
  5  6  1  0
  6  7  1  0
  7  8  1  0
  7  9  1  0
  2 10  1  0
 10 11  1  0
 11 12  1  0
 12 13  1  0
 13 14  1  1
 13 15  1  0
 15 16  1  0
 16 17  1  0
 17 18  2  0
 18 19  1  0
 19 20  1  0
 20 21  1  0
 21 22  1  0
 22 23  1  0
 22 24  1  0
 24 25  1  0
 24 26  1  0
 19 27  1  0
 27 28  1  1
 27 29  1  0
 29 30  1  0
 30 31  1  0
 31 32  1  6
  7  5  1  0
 31 10  1  0
 31 13  1  0
 27 15  1  0
 24 18  1  0
  1 33  1  0
  1 34  1  0
  1 35  1  0
  2 36  1  6
  3 37  1  0
  3 38  1  0
  4 39  1  0
  4 40  1  0
  5 41  1  1
  8 42  1  0
  8 43  1  0
  8 44  1  0
  9 45  1  0
  9 46  1  0
  9 47  1  0
 10 48  1  6
 11 49  1  0
 11 50  1  0
 12 51  1  0
 12 52  1  0
 14 53  1  0
 14 54  1  0
 14 55  1  0
 15 56  1  1
 16 57  1  0
 16 58  1  0
 17 59  1  0
 19 60  1  6
 20 61  1  0
 20 62  1  0
 21 63  1  0
 21 64  1  0
 22 65  1  6
 23 66  1  0
 25 67  1  0
 25 68  1  0
 25 69  1  0
 26 70  1  0
 26 71  1  0
 26 72  1  0
 28 73  1  0
 28 74  1  0
 28 75  1  0
 29 76  1  0
 29 77  1  0
 30 78  1  0
 30 79  1  0
 32 80  1  0
 32 81  1  0
 32 82  1  0
M  END
>  <meeko>  (10) 
{"is_sidechain": [false], "intermolecular_energy": 2.731, "internal_energy": -0.839}

$$$$
EPH_relaxed_0001_pdb2pqr_Repair_29_r2_0001_out
     RDKit          3D

 82 86  0  0  0  0  0  0  0  0999 V2000
   -0.3880   19.0780   -2.5120 C   0  0  0  0  0  0  0  0  0  0  0  0
    0.5820   18.6480   -1.4070 C   0  0  2  0  0  0  0  0  0  0  0  0
    1.7390   19.6510   -1.2280 C   0  0  0  0  0  0  0  0  0  0  0  0
    1.8860   20.1720    0.2040 C   0  0  0  0  0  0  0  0  0  0  0  0
    3.2540   19.9030    0.7540 C   0  0  2  0  0  0  0  0  0  0  0  0
    3.3840   18.6580    1.4550 O   0  0  0  0  0  0  0  0  0  0  0  0
    3.5630   19.8490    2.2390 C   0  0  0  0  0  0  0  0  0  0  0  0
    2.4970   20.0670    3.2660 C   0  0  0  0  0  0  0  0  0  0  0  0
    4.9750   20.0700    2.6840 C   0  0  0  0  0  0  0  0  0  0  0  0
    1.1360   17.2620   -1.7130 C   0  0  1  0  0  0  0  0  0  0  0  0
    2.6800   17.2560   -1.8660 C   0  0  0  0  0  0  0  0  0  0  0  0
    3.1820   15.9040   -1.2960 C   0  0  0  0  0  0  0  0  0  0  0  0
    1.9030   15.0470   -1.1430 C   0  0  1  0  0  0  0  0  0  0  0  0
    1.6230   14.4850   -2.5720 C   0  0  0  0  0  0  0  0  0  0  0  0
    1.9590   13.9070   -0.0750 C   0  0  2  0  0  0  0  0  0  0  0  0
    3.0080   12.8140   -0.3420 C   0  0  0  0  0  0  0  0  0  0  0  0
    2.5270   11.6520   -1.1480 C   0  0  0  0  0  0  0  0  0  0  0  0
    1.2390   11.3520   -1.3960 C   0  0  0  0  0  0  0  0  0  0  0  0
    0.1040   12.1670   -0.7610 C   0  0  1  0  0  0  0  0  0  0  0  0
   -0.9640   11.2030   -0.1810 C   0  0  0  0  0  0  0  0  0  0  0  0
   -1.4720   10.2030   -1.2150 C   0  0  0  0  0  0  0  0  0  0  0  0
   -0.3230    9.3720   -1.7800 C   0  0  2  0  0  0  0  0  0  0  0  0
    0.2010    8.5410   -0.7390 O   0  0  0  0  0  0  0  0  0  0  0  0
    0.8190   10.2360   -2.3840 C   0  0  0  0  0  0  0  0  0  0  0  0
    0.3300   10.9040   -3.6930 C   0  0  0  0  0  0  0  0  0  0  0  0
    1.9760    9.2830   -2.7890 C   0  0  0  0  0  0  0  0  0  0  0  0
    0.5500   13.2820    0.2800 C   0  0  1  0  0  0  0  0  0  0  0  0
    0.6860   12.6570    1.7030 C   0  0  0  0  0  0  0  0  0  0  0  0
   -0.5810   14.3730    0.3810 C   0  0  0  0  0  0  0  0  0  0  0  0
   -0.5140   15.5380   -0.6250 C   0  0  0  0  0  0  0  0  0  0  0  0
    0.8900   16.1500   -0.6630 C   0  0  2  0  0  0  0  0  0  0  0  0
    1.1910   16.7430    0.7560 C   0  0  0  0  0  0  0  0  0  0  0  0
   -1.3040   19.4841   -2.0582 H   0  0  0  0  0  0  0  0  0  0  0  0
    0.0858   19.8504   -3.1356 H   0  0  0  0  0  0  0  0  0  0  0  0
   -0.6422   18.2083   -3.1356 H   0  0  0  0  0  0  0  0  0  0  0  0
    0.0185   18.6226   -0.4626 H   0  0  0  0  0  0  0  0  0  0  0  0
    2.6773   19.1535   -1.5146 H   0  0  0  0  0  0  0  0  0  0  0  0
    1.5129   20.5193   -1.8643 H   0  0  0  0  0  0  0  0  0  0  0  0
    1.7070   21.2573    0.2086 H   0  0  0  0  0  0  0  0  0  0  0  0
    1.1533   19.6490    0.8361 H   0  0  0  0  0  0  0  0  0  0  0  0
    3.7217   20.4503   -0.0777 H   0  0  0  0  0  0  0  0  0  0  0  0
    2.9332   19.9778    4.2719 H   0  0  0  0  0  0  0  0  0  0  0  0
    2.0670   21.0717    3.1406 H   0  0  0  0  0  0  0  0  0  0  0  0
    1.7071   19.3118    3.1406 H   0  0  0  0  0  0  0  0  0  0  0  0
    5.0163   20.0765    3.7832 H   0  0  0  0  0  0  0  0  0  0  0  0
    5.6121   19.2606    2.2979 H   0  0  0  0  0  0  0  0  0  0  0  0
    5.3343   21.0353    2.2979 H   0  0  0  0  0  0  0  0  0  0  0  0
    0.5776   17.0400   -2.6344 H   0  0  0  0  0  0  0  0  0  0  0  0
    2.9556   17.3452   -2.9272 H   0  0  0  0  0  0  0  0  0  0  0  0
    3.1329   18.1028   -1.3295 H   0  0  0  0  0  0  0  0  0  0  0  0
    3.8881   15.4273   -1.9918 H   0  0  0  0  0  0  0  0  0  0  0  0
    3.7192   16.0260   -0.3439 H   0  0  0  0  0  0  0  0  0  0  0  0
    1.1338   13.5031   -2.4905 H   0  0  0  0  0  0  0  0  0  0  0  0
    0.9650   15.1784   -3.1163 H   0  0  0  0  0  0  0  0  0  0  0  0
    2.5728   14.3774   -3.1163 H   0  0  0  0  0  0  0  0  0  0  0  0
    2.3061   14.4408    0.8220 H   0  0  0  0  0  0  0  0  0  0  0  0
    3.8502   13.2749   -0.8790 H   0  0  0  0  0  0  0  0  0  0  0  0
    3.2828   12.4085    0.6429 H   0  0  0  0  0  0  0  0  0  0  0  0
    3.2904   10.9850   -1.5750 H   0  0  0  0  0  0  0  0  0  0  0  0
   -0.3346   12.7633   -1.5746 H   0  0  0  0  0  0  0  0  0  0  0  0
   -0.5194   10.6477    0.6580 H   0  0  0  0  0  0  0  0  0  0  0  0
   -1.8209   11.8109    0.1450 H   0  0  0  0  0  0  0  0  0  0  0  0
   -2.2016    9.5317   -0.7385 H   0  0  0  0  0  0  0  0  0  0  0  0
   -1.9423   10.7587   -2.0396 H   0  0  0  0  0  0  0  0  0  0  0  0
   -0.7281    8.7672   -2.6047 H   0  0  0  0  0  0  0  0  0  0  0  0
    0.3370    9.1010    0.0440 H   0  0  0  0  0  0  0  0  0  0  0  0
   -0.3035   11.7694   -3.4486 H   0  0  0  0  0  0  0  0  0  0  0  0
    1.1978   11.2390   -4.2801 H   0  0  0  0  0  0  0  0  0  0  0  0
   -0.2516   10.1780   -4.2801 H   0  0  0  0  0  0  0  0  0  0  0  0
    2.4580    8.8860   -1.8834 H   0  0  0  0  0  0  0  0  0  0  0  0
    1.5738    8.4507   -3.3852 H   0  0  0  0  0  0  0  0  0  0  0  0
    2.7158    9.8372   -3.3852 H   0  0  0  0  0  0  0  0  0  0  0  0
    0.5168   13.4344    2.4626 H   0  0  0  0  0  0  0  0  0  0  0  0
   -0.0591   11.8570    1.8248 H   0  0  0  0  0  0  0  0  0  0  0  0
    1.6961   12.2389    1.8248 H   0  0  0  0  0  0  0  0  0  0  0  0
   -1.5466   13.8656    0.2388 H   0  0  0  0  0  0  0  0  0  0  0  0
   -0.4456   14.8375    1.3689 H   0  0  0  0  0  0  0  0  0  0  0  0
   -0.7704   15.1634   -1.6269 H   0  0  0  0  0  0  0  0  0  0  0  0
   -1.2266   16.3146   -0.3101 H   0  0  0  0  0  0  0  0  0  0  0  0
    0.8364   16.0444    1.5281 H   0  0  0  0  0  0  0  0  0  0  0  0
    2.2748   16.8939    0.8680 H   0  0  0  0  0  0  0  0  0  0  0  0
    0.6731   17.7070    0.8680 H   0  0  0  0  0  0  0  0  0  0  0  0
  1  2  1  0
  2  3  1  0
  3  4  1  0
  4  5  1  0
  5  6  1  0
  6  7  1  0
  7  8  1  0
  7  9  1  0
  2 10  1  0
 10 11  1  0
 11 12  1  0
 12 13  1  0
 13 14  1  6
 13 15  1  0
 15 16  1  0
 16 17  1  0
 17 18  2  0
 18 19  1  0
 19 20  1  0
 20 21  1  0
 21 22  1  0
 22 23  1  0
 22 24  1  0
 24 25  1  0
 24 26  1  0
 19 27  1  0
 27 28  1  1
 27 29  1  0
 29 30  1  0
 30 31  1  0
 31 32  1  1
  7  5  1  0
 31 10  1  0
 31 13  1  0
 27 15  1  0
 24 18  1  0
  1 33  1  0
  1 34  1  0
  1 35  1  0
  2 36  1  1
  3 37  1  0
  3 38  1  0
  4 39  1  0
  4 40  1  0
  5 41  1  6
  8 42  1  0
  8 43  1  0
  8 44  1  0
  9 45  1  0
  9 46  1  0
  9 47  1  0
 10 48  1  6
 11 49  1  0
 11 50  1  0
 12 51  1  0
 12 52  1  0
 14 53  1  0
 14 54  1  0
 14 55  1  0
 15 56  1  1
 16 57  1  0
 16 58  1  0
 17 59  1  0
 19 60  1  6
 20 61  1  0
 20 62  1  0
 21 63  1  0
 21 64  1  0
 22 65  1  6
 23 66  1  0
 25 67  1  0
 25 68  1  0
 25 69  1  0
 26 70  1  0
 26 71  1  0
 26 72  1  0
 28 73  1  0
 28 74  1  0
 28 75  1  0
 29 76  1  0
 29 77  1  0
 30 78  1  0
 30 79  1  0
 32 80  1  0
 32 81  1  0
 32 82  1  0
M  END
>  <meeko>  (11) 
{"is_sidechain": [false], "intermolecular_energy": 2.731, "internal_energy": -0.839}

$$$$
EPH_relaxed_0001_pdb2pqr_Repair_29_r2_0001_out
     RDKit          3D

 82 86  0  0  0  0  0  0  0  0999 V2000
    1.1760   19.8990   -1.7580 C   0  0  0  0  0  0  0  0  0  0  0  0
    1.3840   19.5190   -0.2890 C   0  0  2  0  0  0  0  0  0  0  0  0
    2.8410   19.7360    0.1660 C   0  0  0  0  0  0  0  0  0  0  0  0
    3.1180   19.2590    1.5940 C   0  0  0  0  0  0  0  0  0  0  0  0
    4.5550   18.8790    1.7830 C   0  0  2  0  0  0  0  0  0  0  0  0
    4.8040   18.0160    2.9000 O   0  0  0  0  0  0  0  0  0  0  0  0
    5.3900   19.3260    2.9690 C   0  0  0  0  0  0  0  0  0  0  0  0
    4.8150   20.1940    4.0440 C   0  0  0  0  0  0  0  0  0  0  0  0
    6.8800   19.3290    2.8350 C   0  0  0  0  0  0  0  0  0  0  0  0
    0.9790   18.0670   -0.0660 C   0  0  1  0  0  0  0  0  0  0  0  0
   -0.4330   17.9300    0.5620 C   0  0  0  0  0  0  0  0  0  0  0  0
   -1.0700   16.6530   -0.0430 C   0  0  0  0  0  0  0  0  0  0  0  0
    0.1050   15.9210   -0.7350 C   0  0  1  0  0  0  0  0  0  0  0  0
    0.8380   15.1630    0.4160 C   0  0  0  0  0  0  0  0  0  0  0  0
   -0.2750   14.9610   -1.9090 C   0  0  2  0  0  0  0  0  0  0  0  0
   -1.1640   13.7690   -1.5160 C   0  0  0  0  0  0  0  0  0  0  0  0
   -0.4320   12.5320   -1.1130 C   0  0  0  0  0  0  0  0  0  0  0  0
    0.8720   12.2870   -1.3380 C   0  0  0  0  0  0  0  0  0  0  0  0
    1.7300   13.2680   -2.1480 C   0  0  1  0  0  0  0  0  0  0  0  0
    2.5700   12.4830   -3.1900 C   0  0  0  0  0  0  0  0  0  0  0  0
    3.3980   11.3710   -2.5550 C   0  0  0  0  0  0  0  0  0  0  0  0
    2.5050   10.3840   -1.8080 C   0  0  2  0  0  0  0  0  0  0  0  0
    1.6880    9.6930   -2.7570 O   0  0  0  0  0  0  0  0  0  0  0  0
    1.6050   11.0620   -0.7370 C   0  0  0  0  0  0  0  0  0  0  0  0
    2.4780   11.5490    0.4450 C   0  0  0  0  0  0  0  0  0  0  0  0
    0.6550    9.9790   -0.1580 C   0  0  0  0  0  0  0  0  0  0  0  0
    0.9550   14.4980   -2.7910 C   0  0  1  0  0  0  0  0  0  0  0  0
    0.3790   14.0960   -4.1830 C   0  0  0  0  0  0  0  0  0  0  0  0
    1.9760   15.6680   -3.0540 C   0  0  0  0  0  0  0  0  0  0  0  0
    2.2180   16.6530   -1.8940 C   0  0  0  0  0  0  0  0  0  0  0  0
    0.8920   17.1530   -1.3140 C   0  0  2  0  0  0  0  0  0  0  0  0
    0.1420   17.9390   -2.4420 C   0  0  0  0  0  0  0  0  0  0  0  0
    0.6486   20.8626   -1.8163 H   0  0  0  0  0  0  0  0  0  0  0  0
    2.1529   19.9849   -2.2564 H   0  0  0  0  0  0  0  0  0  0  0  0
    0.5772   19.1224   -2.2564 H   0  0  0  0  0  0  0  0  0  0  0  0
    0.7473   20.1798    0.3176 H   0  0  0  0  0  0  0  0  0  0  0  0
    3.5039   19.1863   -0.5184 H   0  0  0  0  0  0  0  0  0  0  0  0
    3.0249   20.8204    0.1483 H   0  0  0  0  0  0  0  0  0  0  0  0
    2.8684   20.0691    2.2950 H   0  0  0  0  0  0  0  0  0  0  0  0
    2.5003   18.3688    1.7838 H   0  0  0  0  0  0  0  0  0  0  0  0
    4.7328   18.9198    0.6982 H   0  0  0  0  0  0  0  0  0  0  0  0
    5.0855   19.7856    5.0289 H   0  0  0  0  0  0  0  0  0  0  0  0
    5.2172   21.2132    3.9466 H   0  0  0  0  0  0  0  0  0  0  0  0
    3.7197   20.2212    3.9466 H   0  0  0  0  0  0  0  0  0  0  0  0
    7.3381   19.3299    3.8351 H   0  0  0  0  0  0  0  0  0  0  0  0
    7.2006   18.4315    2.2857 H   0  0  0  0  0  0  0  0  0  0  0  0
    7.1969   20.2278    2.2857 H   0  0  0  0  0  0  0  0  0  0  0  0
    1.8073   17.7423    0.5809 H   0  0  0  0  0  0  0  0  0  0  0  0
   -0.3536   17.8324    1.6548 H   0  0  0  0  0  0  0  0  0  0  0  0
   -1.0477   18.8169    0.3486 H   0  0  0  0  0  0  0  0  0  0  0  0
   -1.5071   16.0252    0.7474 H   0  0  0  0  0  0  0  0  0  0  0  0
   -1.8867   16.8853   -0.7423 H   0  0  0  0  0  0  0  0  0  0  0  0
    0.4786   15.5347    1.3869 H   0  0  0  0  0  0  0  0  0  0  0  0
    0.6303   14.0857    0.3361 H   0  0  0  0  0  0  0  0  0  0  0  0
    1.9216   15.3344    0.3361 H   0  0  0  0  0  0  0  0  0  0  0  0
   -0.9014   15.6034   -2.5453 H   0  0  0  0  0  0  0  0  0  0  0  0
   -1.7957   14.0804   -0.6710 H   0  0  0  0  0  0  0  0  0  0  0  0
   -1.7340   13.5043   -2.4188 H   0  0  0  0  0  0  0  0  0  0  0  0
   -1.0070   11.7551   -0.5878 H   0  0  0  0  0  0  0  0  0  0  0  0
    2.3973   13.7586   -1.4241 H   0  0  0  0  0  0  0  0  0  0  0  0
    1.8880   12.0369   -3.9289 H   0  0  0  0  0  0  0  0  0  0  0  0
    3.2675   13.1923   -3.6595 H   0  0  0  0  0  0  0  0  0  0  0  0
    3.9458   10.8348   -3.3439 H   0  0  0  0  0  0  0  0  0  0  0  0
    4.0996   11.8218   -1.8377 H   0  0  0  0  0  0  0  0  0  0  0  0
    3.1623    9.6865   -1.2682 H   0  0  0  0  0  0  0  0  0  0  0  0
    1.8730    8.7420   -2.6670 H   0  0  0  0  0  0  0  0  0  0  0  0
    1.9932   11.2786    1.3947 H   0  0  0  0  0  0  0  0  0  0  0  0
    3.4681   11.0729    0.3901 H   0  0  0  0  0  0  0  0  0  0  0  0
    2.5930   12.6416    0.3901 H   0  0  0  0  0  0  0  0  0  0  0  0
    0.6857   10.0140    0.9410 H   0  0  0  0  0  0  0  0  0  0  0  0
   -0.3721   10.1701   -0.5024 H   0  0  0  0  0  0  0  0  0  0  0  0
    0.9783    8.9856   -0.5024 H   0  0  0  0  0  0  0  0  0  0  0  0
   -0.5157   13.4716   -4.0431 H   0  0  0  0  0  0  0  0  0  0  0  0
    0.1092   15.0029   -4.7440 H   0  0  0  0  0  0  0  0  0  0  0  0
    1.1372   13.5299   -4.7440 H   0  0  0  0  0  0  0  0  0  0  0  0
    2.9439   15.2133   -3.3119 H   0  0  0  0  0  0  0  0  0  0  0  0
    1.5223   16.2714   -3.8540 H   0  0  0  0  0  0  0  0  0  0  0  0
    2.7878   16.1440   -1.1026 H   0  0  0  0  0  0  0  0  0  0  0  0
    2.7804   17.5165   -2.2787 H   0  0  0  0  0  0  0  0  0  0  0  0
   -0.5493   18.6634   -1.9867 H   0  0  0  0  0  0  0  0  0  0  0  0
    0.8740   18.4728   -3.0658 H   0  0  0  0  0  0  0  0  0  0  0  0
   -0.4256   17.2328   -3.0658 H   0  0  0  0  0  0  0  0  0  0  0  0
  1  2  1  0
  2  3  1  0
  3  4  1  0
  4  5  1  0
  5  6  1  0
  6  7  1  0
  7  8  1  0
  7  9  1  0
  2 10  1  0
 10 11  1  0
 11 12  1  0
 12 13  1  0
 13 14  1  1
 13 15  1  0
 15 16  1  0
 16 17  1  0
 17 18  2  0
 18 19  1  0
 19 20  1  0
 20 21  1  0
 21 22  1  0
 22 23  1  0
 22 24  1  0
 24 25  1  0
 24 26  1  0
 19 27  1  0
 27 28  1  6
 27 29  1  0
 29 30  1  0
 30 31  1  0
 31 32  1  6
  7  5  1  0
 31 10  1  0
 31 13  1  0
 27 15  1  0
 24 18  1  0
  1 33  1  0
  1 34  1  0
  1 35  1  0
  2 36  1  1
  3 37  1  0
  3 38  1  0
  4 39  1  0
  4 40  1  0
  5 41  1  6
  8 42  1  0
  8 43  1  0
  8 44  1  0
  9 45  1  0
  9 46  1  0
  9 47  1  0
 10 48  1  1
 11 49  1  0
 11 50  1  0
 12 51  1  0
 12 52  1  0
 14 53  1  0
 14 54  1  0
 14 55  1  0
 15 56  1  6
 16 57  1  0
 16 58  1  0
 17 59  1  0
 19 60  1  1
 20 61  1  0
 20 62  1  0
 21 63  1  0
 21 64  1  0
 22 65  1  1
 23 66  1  0
 25 67  1  0
 25 68  1  0
 25 69  1  0
 26 70  1  0
 26 71  1  0
 26 72  1  0
 28 73  1  0
 28 74  1  0
 28 75  1  0
 29 76  1  0
 29 77  1  0
 30 78  1  0
 30 79  1  0
 32 80  1  0
 32 81  1  0
 32 82  1  0
M  END
>  <meeko>  (12) 
{"is_sidechain": [false], "intermolecular_energy": 2.731, "internal_energy": -0.839}

$$$$
EPH_relaxed_0001_pdb2pqr_Repair_29_r2_0001_out
     RDKit          3D

 82 86  0  0  0  0  0  0  0  0999 V2000
   -3.8980    7.2280   -3.4160 C   0  0  0  0  0  0  0  0  0  0  0  0
   -3.8860    7.3060   -1.8870 C   0  0  2  0  0  0  0  0  0  0  0  0
   -5.2910    7.1060   -1.2840 C   0  0  0  0  0  0  0  0  0  0  0  0
   -6.4080    7.0560   -2.3300 C   0  0  0  0  0  0  0  0  0  0  0  0
   -7.7070    7.5590   -1.7770 C   0  0  2  0  0  0  0  0  0  0  0  0
   -8.3100    6.7070   -0.7940 O   0  0  0  0  0  0  0  0  0  0  0  0
   -9.0400    6.8760   -2.0200 C   0  0  0  0  0  0  0  0  0  0  0  0
   -9.1400    5.6310   -2.8450 C   0  0  0  0  0  0  0  0  0  0  0  0
  -10.2940    7.6800   -1.8690 C   0  0  0  0  0  0  0  0  0  0  0  0
   -3.3120    8.6450   -1.4390 C   0  0  1  0  0  0  0  0  0  0  0  0
   -3.9190    9.1350   -0.0970 C   0  0  0  0  0  0  0  0  0  0  0  0
   -2.7860    9.8730    0.6620 C   0  0  0  0  0  0  0  0  0  0  0  0
   -1.6740   10.0730   -0.3940 C   0  0  1  0  0  0  0  0  0  0  0  0
   -2.1160   11.3280   -1.2100 C   0  0  0  0  0  0  0  0  0  0  0  0
   -0.2180   10.2260    0.1550 C   0  0  2  0  0  0  0  0  0  0  0  0
    0.0150   11.4530    1.0540 C   0  0  0  0  0  0  0  0  0  0  0  0
    0.4540   12.6900    0.3430 C   0  0  0  0  0  0  0  0  0  0  0  0
    0.9270   12.7420   -0.9160 C   0  0  0  0  0  0  0  0  0  0  0  0
    1.1510   11.4590   -1.7270 C   0  0  1  0  0  0  0  0  0  0  0  0
    2.5420   11.5160   -2.4110 C   0  0  0  0  0  0  0  0  0  0  0  0
    2.7320   12.7760   -3.2490 C   0  0  0  0  0  0  0  0  0  0  0  0
    2.5590   14.0300   -2.3950 C   0  0  2  0  0  0  0  0  0  0  0  0
    3.6290   14.0930   -1.4470 O   0  0  0  0  0  0  0  0  0  0  0  0
    1.1960   14.0790   -1.6490 C   0  0  0  0  0  0  0  0  0  0  0  0
    0.0540   14.3140   -2.6670 C   0  0  0  0  0  0  0  0  0  0  0  0
    1.2080   15.3200   -0.7160 C   0  0  0  0  0  0  0  0  0  0  0  0
    0.9080   10.0950   -0.9480 C   0  0  1  0  0  0  0  0  0  0  0  0
    2.2110    9.6670   -0.2060 C   0  0  0  0  0  0  0  0  0  0  0  0
    0.5960    8.9570   -1.9900 C   0  0  0  0  0  0  0  0  0  0  0  0
   -0.8770    8.7780   -2.4040 C   0  0  0  0  0  0  0  0  0  0  0  0
   -1.7870    8.7120   -1.1730 C   0  0  2  0  0  0  0  0  0  0  0  0
   -1.3810    7.4460   -0.3440 C   0  0  0  0  0  0  0  0  0  0  0  0
   -4.0584    6.1857   -3.7287 H   0  0  0  0  0  0  0  0  0  0  0  0
   -4.7098    7.8577   -3.8089 H   0  0  0  0  0  0  0  0  0  0  0  0
   -2.9344    7.5846   -3.8089 H   0  0  0  0  0  0  0  0  0  0  0  0
   -3.2498    6.4875   -1.5191 H   0  0  0  0  0  0  0  0  0  0  0  0
   -5.2970    6.1593   -0.7239 H   0  0  0  0  0  0  0  0  0  0  0  0
   -5.4916    7.9754   -0.6407 H   0  0  0  0  0  0  0  0  0  0  0  0
   -6.1205    7.6802   -3.1889 H   0  0  0  0  0  0  0  0  0  0  0  0
   -6.5471    6.0080   -2.6339 H   0  0  0  0  0  0  0  0  0  0  0  0
   -7.3801    8.6026   -1.8953 H   0  0  0  0  0  0  0  0  0  0  0  0
   -9.2103    4.7563   -2.1817 H   0  0  0  0  0  0  0  0  0  0  0  0
  -10.0369    5.6828   -3.4798 H   0  0  0  0  0  0  0  0  0  0  0  0
   -8.2464    5.5390   -3.4798 H   0  0  0  0  0  0  0  0  0  0  0  0
  -10.5130    7.8204   -0.8002 H   0  0  0  0  0  0  0  0  0  0  0  0
  -10.1604    8.6612   -2.3479 H   0  0  0  0  0  0  0  0  0  0  0  0
  -11.1299    7.1490   -2.3479 H   0  0  0  0  0  0  0  0  0  0  0  0
   -3.5677    9.2585   -2.3155 H   0  0  0  0  0  0  0  0  0  0  0  0
   -4.7568    9.8216   -0.2883 H   0  0  0  0  0  0  0  0  0  0  0  0
   -4.3062    8.2914    0.4933 H   0  0  0  0  0  0  0  0  0  0  0  0
   -3.1404   10.8429    1.0410 H   0  0  0  0  0  0  0  0  0  0  0  0
   -2.4331    9.3073    1.5369 H   0  0  0  0  0  0  0  0  0  0  0  0
   -2.3999   12.1342   -0.5176 H   0  0  0  0  0  0  0  0  0  0  0  0
   -1.2826   11.6655   -1.8437 H   0  0  0  0  0  0  0  0  0  0  0  0
   -2.9769   11.0688   -1.8437 H   0  0  0  0  0  0  0  0  0  0  0  0
   -0.1216    9.3506    0.8141 H   0  0  0  0  0  0  0  0  0  0  0  0
   -0.9277   11.6767    1.5749 H   0  0  0  0  0  0  0  0  0  0  0  0
    0.8387   11.1824    1.7309 H   0  0  0  0  0  0  0  0  0  0  0  0
    0.3851   13.6392    0.8946 H   0  0  0  0  0  0  0  0  0  0  0  0
    0.3601   11.4394   -2.4912 H   0  0  0  0  0  0  0  0  0  0  0  0
    3.3188   11.4901   -1.6326 H   0  0  0  0  0  0  0  0  0  0  0  0
    2.6165   10.6516   -3.0872 H   0  0  0  0  0  0  0  0  0  0  0  0
    3.7434   12.7716   -3.6816 H   0  0  0  0  0  0  0  0  0  0  0  0
    1.9733   12.7859   -4.0454 H   0  0  0  0  0  0  0  0  0  0  0  0
    2.5773   14.8964   -3.0725 H   0  0  0  0  0  0  0  0  0  0  0  0
    3.6690   15.0040   -1.1090 H   0  0  0  0  0  0  0  0  0  0  0  0
   -0.8846   14.5072   -2.1269 H   0  0  0  0  0  0  0  0  0  0  0  0
    0.2985   15.1806   -3.2988 H   0  0  0  0  0  0  0  0  0  0  0  0
   -0.0635   13.4212   -3.2988 H   0  0  0  0  0  0  0  0  0  0  0  0
    1.2048   14.9899    0.3333 H   0  0  0  0  0  0  0  0  0  0  0  0
    2.1119   15.9160   -0.9101 H   0  0  0  0  0  0  0  0  0  0  0  0
    0.3157   15.9333   -0.9101 H   0  0  0  0  0  0  0  0  0  0  0  0
    2.0485    9.7204    0.8806 H   0  0  0  0  0  0  0  0  0  0  0  0
    2.4715    8.6361   -0.4876 H   0  0  0  0  0  0  0  0  0  0  0  0
    3.0321   10.3426   -0.4876 H   0  0  0  0  0  0  0  0  0  0  0  0
    1.1737    9.1726   -2.9009 H   0  0  0  0  0  0  0  0  0  0  0  0
    0.8678    8.0198   -1.4822 H   0  0  0  0  0  0  0  0  0  0  0  0
   -1.1808    9.6291   -3.0312 H   0  0  0  0  0  0  0  0  0  0  0  0
   -0.9729    7.8353   -2.9628 H   0  0  0  0  0  0  0  0  0  0  0  0
   -1.4536    7.6722    0.7300 H   0  0  0  0  0  0  0  0  0  0  0  0
   -2.0574    6.6142   -0.5900 H   0  0  0  0  0  0  0  0  0  0  0  0
   -0.3470    7.1627   -0.5900 H   0  0  0  0  0  0  0  0  0  0  0  0
  1  2  1  0
  2  3  1  0
  3  4  1  0
  4  5  1  0
  5  6  1  0
  6  7  1  0
  7  8  1  0
  7  9  1  0
  2 10  1  0
 10 11  1  0
 11 12  1  0
 12 13  1  0
 13 14  1  6
 13 15  1  0
 15 16  1  0
 16 17  1  0
 17 18  2  0
 18 19  1  0
 19 20  1  0
 20 21  1  0
 21 22  1  0
 22 23  1  0
 22 24  1  0
 24 25  1  0
 24 26  1  0
 19 27  1  0
 27 28  1  1
 27 29  1  0
 29 30  1  0
 30 31  1  0
 31 32  1  1
  7  5  1  0
 31 10  1  0
 31 13  1  0
 27 15  1  0
 24 18  1  0
  1 33  1  0
  1 34  1  0
  1 35  1  0
  2 36  1  1
  3 37  1  0
  3 38  1  0
  4 39  1  0
  4 40  1  0
  5 41  1  1
  8 42  1  0
  8 43  1  0
  8 44  1  0
  9 45  1  0
  9 46  1  0
  9 47  1  0
 10 48  1  6
 11 49  1  0
 11 50  1  0
 12 51  1  0
 12 52  1  0
 14 53  1  0
 14 54  1  0
 14 55  1  0
 15 56  1  1
 16 57  1  0
 16 58  1  0
 17 59  1  0
 19 60  1  6
 20 61  1  0
 20 62  1  0
 21 63  1  0
 21 64  1  0
 22 65  1  6
 23 66  1  0
 25 67  1  0
 25 68  1  0
 25 69  1  0
 26 70  1  0
 26 71  1  0
 26 72  1  0
 28 73  1  0
 28 74  1  0
 28 75  1  0
 29 76  1  0
 29 77  1  0
 30 78  1  0
 30 79  1  0
 32 80  1  0
 32 81  1  0
 32 82  1  0
M  END
>  <meeko>  (13) 
{"is_sidechain": [false], "intermolecular_energy": 2.731, "internal_energy": -0.839}

$$$$
EPH_relaxed_0001_pdb2pqr_Repair_29_r2_0001_out
     RDKit          3D

 82 86  0  0  0  0  0  0  0  0999 V2000
   -0.8420   16.3520   -5.8450 C   0  0  0  0  0  0  0  0  0  0  0  0
    0.2420   15.6430   -6.6610 C   0  0  2  0  0  0  0  0  0  0  0  0
   -0.1670   15.4600   -8.1360 C   0  0  0  0  0  0  0  0  0  0  0  0
    0.4610   16.4880   -9.0810 C   0  0  0  0  0  0  0  0  0  0  0  0
    1.8600   16.1080   -9.4630 C   0  0  2  0  0  0  0  0  0  0  0  0
    2.3160   16.6700  -10.7000 O   0  0  0  0  0  0  0  0  0  0  0  0
    2.1930   15.2390  -10.6610 C   0  0  0  0  0  0  0  0  0  0  0  0
    1.1220   14.6960  -11.5530 C   0  0  0  0  0  0  0  0  0  0  0  0
    3.5060   14.5200  -10.6800 C   0  0  0  0  0  0  0  0  0  0  0  0
    0.5600   14.2890   -6.0370 C   0  0  1  0  0  0  0  0  0  0  0  0
    1.8240   13.6300   -6.6520 C   0  0  0  0  0  0  0  0  0  0  0  0
    2.5320   12.8630   -5.5060 C   0  0  0  0  0  0  0  0  0  0  0  0
    1.4930   12.8280   -4.3610 C   0  0  1  0  0  0  0  0  0  0  0  0
    0.5340   11.6510   -4.7250 C   0  0  0  0  0  0  0  0  0  0  0  0
    2.0640   12.6790   -2.9130 C   0  0  2  0  0  0  0  0  0  0  0  0
    2.8320   11.3730   -2.6460 C   0  0  0  0  0  0  0  0  0  0  0  0
    2.0060   10.2410   -2.1330 C   0  0  0  0  0  0  0  0  0  0  0  0
    0.7630   10.3460   -1.6280 C   0  0  0  0  0  0  0  0  0  0  0  0
    0.1010   11.7170   -1.4440 C   0  0  1  0  0  0  0  0  0  0  0  0
   -0.5450   11.7960   -0.0350 C   0  0  0  0  0  0  0  0  0  0  0  0
   -1.5070   10.6430    0.2320 C   0  0  0  0  0  0  0  0  0  0  0  0
   -0.7980    9.2980    0.0970 C   0  0  2  0  0  0  0  0  0  0  0  0
    0.1680    9.1780    1.1450 O   0  0  0  0  0  0  0  0  0  0  0  0
   -0.1010    9.1090   -1.2800 C   0  0  0  0  0  0  0  0  0  0  0  0
   -1.1720    8.9360   -2.3860 C   0  0  0  0  0  0  0  0  0  0  0  0
    0.6930    7.7760   -1.2330 C   0  0  0  0  0  0  0  0  0  0  0  0
    1.0140   12.9770   -1.7680 C   0  0  1  0  0  0  0  0  0  0  0  0
    1.8350   13.3780   -0.5040 C   0  0  0  0  0  0  0  0  0  0  0  0
    0.0910   14.2070   -2.1070 C   0  0  0  0  0  0  0  0  0  0  0  0
   -0.3420   14.3660   -3.5760 C   0  0  0  0  0  0  0  0  0  0  0  0
    0.8610   14.2590   -4.5180 C   0  0  2  0  0  0  0  0  0  0  0  0
    1.8330   15.4430   -4.1900 C   0  0  0  0  0  0  0  0  0  0  0  0
   -0.6390   16.2192   -4.7721 H   0  0  0  0  0  0  0  0  0  0  0  0
   -0.8413   17.4248   -6.0883 H   0  0  0  0  0  0  0  0  0  0  0  0
   -1.8246   15.9215   -6.0883 H   0  0  0  0  0  0  0  0  0  0  0  0
    1.1384   16.2803   -6.6441 H   0  0  0  0  0  0  0  0  0  0  0  0
    0.1428   14.4555   -8.4602 H   0  0  0  0  0  0  0  0  0  0  0  0
   -1.2568   15.6001   -8.1871 H   0  0  0  0  0  0  0  0  0  0  0  0
   -0.1515   16.5555   -9.9922 H   0  0  0  0  0  0  0  0  0  0  0  0
    0.4989   17.4555   -8.5590 H   0  0  0  0  0  0  0  0  0  0  0  0
    2.1591   16.0530   -8.4059 H   0  0  0  0  0  0  0  0  0  0  0  0
    0.3079   14.2832  -10.9391 H   0  0  0  0  0  0  0  0  0  0  0  0
    0.7291   15.5038  -12.1879 H   0  0  0  0  0  0  0  0  0  0  0  0
    1.5414   13.9017  -12.1879 H   0  0  0  0  0  0  0  0  0  0  0  0
    3.8391   14.3376   -9.6476 H   0  0  0  0  0  0  0  0  0  0  0  0
    3.3904   13.5593  -11.2032 H   0  0  0  0  0  0  0  0  0  0  0  0
    4.2532   15.1348  -11.2032 H   0  0  0  0  0  0  0  0  0  0  0  0
   -0.3844   13.7644   -6.2439 H   0  0  0  0  0  0  0  0  0  0  0  0
    1.5361   12.9330   -7.4528 H   0  0  0  0  0  0  0  0  0  0  0  0
    2.4903   14.3875   -7.0904 H   0  0  0  0  0  0  0  0  0  0  0  0
    2.7934   11.8431   -5.8246 H   0  0  0  0  0  0  0  0  0  0  0  0
    3.4733   13.3437   -5.2011 H   0  0  0  0  0  0  0  0  0  0  0  0
    0.1560   11.1871   -3.8020 H   0  0  0  0  0  0  0  0  0  0  0  0
   -0.3111   12.0356   -5.3147 H   0  0  0  0  0  0  0  0  0  0  0  0
    1.0814   10.9010   -5.3147 H   0  0  0  0  0  0  0  0  0  0  0  0
    2.8157   13.4811   -2.8723 H   0  0  0  0  0  0  0  0  0  0  0  0
    3.2976   11.0535   -3.5900 H   0  0  0  0  0  0  0  0  0  0  0  0
    3.5580   11.6038   -1.8525 H   0  0  0  0  0  0  0  0  0  0  0  0
    2.4508    9.2356   -2.1708 H   0  0  0  0  0  0  0  0  0  0  0  0
   -0.6793   11.7836   -2.2165 H   0  0  0  0  0  0  0  0  0  0  0  0
    0.2536   11.7714    0.7211 H   0  0  0  0  0  0  0  0  0  0  0  0
   -1.1218   12.7312    0.0162 H   0  0  0  0  0  0  0  0  0  0  0  0
   -1.9080   10.7377    1.2519 H   0  0  0  0  0  0  0  0  0  0  0  0
   -2.3206   10.6865   -0.5070 H   0  0  0  0  0  0  0  0  0  0  0  0
   -1.5643    8.5124    0.1719 H   0  0  0  0  0  0  0  0  0  0  0  0
    1.0480    9.1570    0.7340 H   0  0  0  0  0  0  0  0  0  0  0  0
   -2.1564    8.7770   -1.9215 H   0  0  0  0  0  0  0  0  0  0  0  0
   -1.2033    9.8407   -3.0109 H   0  0  0  0  0  0  0  0  0  0  0  0
   -0.9168    8.0674   -3.0109 H   0  0  0  0  0  0  0  0  0  0  0  0
    0.8645    7.4881   -0.1853 H   0  0  0  0  0  0  0  0  0  0  0  0
    0.1170    6.9880   -1.7402 H   0  0  0  0  0  0  0  0  0  0  0  0
    1.6602    7.9073   -1.7402 H   0  0  0  0  0  0  0  0  0  0  0  0
    1.2728   13.1034    0.4007 H   0  0  0  0  0  0  0  0  0  0  0  0
    2.7998   12.8497   -0.5106 H   0  0  0  0  0  0  0  0  0  0  0  0
    2.0115   14.4637   -0.5106 H   0  0  0  0  0  0  0  0  0  0  0  0
   -0.8213   14.1160   -1.4992 H   0  0  0  0  0  0  0  0  0  0  0  0
    0.7031   15.0947   -1.8897 H   0  0  0  0  0  0  0  0  0  0  0  0
   -1.0654   13.5757   -3.8253 H   0  0  0  0  0  0  0  0  0  0  0  0
   -0.7977   15.3593   -3.7013 H   0  0  0  0  0  0  0  0  0  0  0  0
    1.9227   15.5523   -3.0991 H   0  0  0  0  0  0  0  0  0  0  0  0
    2.8236   15.2341   -4.6203 H   0  0  0  0  0  0  0  0  0  0  0  0
    1.4352   16.3739   -4.6203 H   0  0  0  0  0  0  0  0  0  0  0  0
  1  2  1  0
  2  3  1  0
  3  4  1  0
  4  5  1  0
  5  6  1  0
  6  7  1  0
  7  8  1  0
  7  9  1  0
  2 10  1  0
 10 11  1  0
 11 12  1  0
 12 13  1  0
 13 14  1  6
 13 15  1  0
 15 16  1  0
 16 17  1  0
 17 18  2  0
 18 19  1  0
 19 20  1  0
 20 21  1  0
 21 22  1  0
 22 23  1  0
 22 24  1  0
 24 25  1  0
 24 26  1  0
 19 27  1  0
 27 28  1  1
 27 29  1  0
 29 30  1  0
 30 31  1  0
 31 32  1  1
  7  5  1  0
 31 10  1  0
 31 13  1  0
 27 15  1  0
 24 18  1  0
  1 33  1  0
  1 34  1  0
  1 35  1  0
  2 36  1  6
  3 37  1  0
  3 38  1  0
  4 39  1  0
  4 40  1  0
  5 41  1  1
  8 42  1  0
  8 43  1  0
  8 44  1  0
  9 45  1  0
  9 46  1  0
  9 47  1  0
 10 48  1  1
 11 49  1  0
 11 50  1  0
 12 51  1  0
 12 52  1  0
 14 53  1  0
 14 54  1  0
 14 55  1  0
 15 56  1  6
 16 57  1  0
 16 58  1  0
 17 59  1  0
 19 60  1  6
 20 61  1  0
 20 62  1  0
 21 63  1  0
 21 64  1  0
 22 65  1  1
 23 66  1  0
 25 67  1  0
 25 68  1  0
 25 69  1  0
 26 70  1  0
 26 71  1  0
 26 72  1  0
 28 73  1  0
 28 74  1  0
 28 75  1  0
 29 76  1  0
 29 77  1  0
 30 78  1  0
 30 79  1  0
 32 80  1  0
 32 81  1  0
 32 82  1  0
M  END
>  <meeko>  (14) 
{"is_sidechain": [false], "intermolecular_energy": 2.731, "internal_energy": -0.839}

$$$$
EPH_relaxed_0001_pdb2pqr_Repair_29_r2_0001_out
     RDKit          3D

 82 86  0  0  0  0  0  0  0  0999 V2000
    3.5200   18.5390   -2.4080 C   0  0  0  0  0  0  0  0  0  0  0  0
    2.2830   17.6800   -2.6860 C   0  0  2  0  0  0  0  0  0  0  0  0
    0.9800   18.3810   -2.2540 C   0  0  0  0  0  0  0  0  0  0  0  0
    1.1930   19.7940   -1.7040 C   0  0  0  0  0  0  0  0  0  0  0  0
    1.5000   19.7770   -0.2370 C   0  0  2  0  0  0  0  0  0  0  0  0
    1.1750   18.5500    0.4290 O   0  0  0  0  0  0  0  0  0  0  0  0
    0.4340   19.7100    0.8400 C   0  0  0  0  0  0  0  0  0  0  0  0
   -1.0210   19.6560    0.4950 C   0  0  0  0  0  0  0  0  0  0  0  0
    0.7770   20.1870    2.2170 C   0  0  0  0  0  0  0  0  0  0  0  0
    2.4130   16.3380   -1.9750 C   0  0  1  0  0  0  0  0  0  0  0  0
    2.9610   16.4780   -0.5300 C   0  0  0  0  0  0  0  0  0  0  0  0
    2.2620   15.3870    0.3220 C   0  0  0  0  0  0  0  0  0  0  0  0
    1.5950   14.4520   -0.7140 C   0  0  1  0  0  0  0  0  0  0  0  0
    2.7410   13.5130   -1.2040 C   0  0  0  0  0  0  0  0  0  0  0  0
    0.3560   13.6390   -0.2150 C   0  0  2  0  0  0  0  0  0  0  0  0
    0.6440   12.6470    0.9260 C   0  0  0  0  0  0  0  0  0  0  0  0
    1.0210   11.2690    0.4920 C   0  0  0  0  0  0  0  0  0  0  0  0
    0.8500   10.7630   -0.7440 C   0  0  0  0  0  0  0  0  0  0  0  0
    0.1340   11.5720   -1.8330 C   0  0  1  0  0  0  0  0  0  0  0  0
   -0.9020   10.6680   -2.5520 C   0  0  0  0  0  0  0  0  0  0  0  0
   -0.2820    9.3830   -3.0920 C   0  0  0  0  0  0  0  0  0  0  0  0
    0.3690    8.5790   -1.9700 C   0  0  2  0  0  0  0  0  0  0  0  0
   -0.6530    8.1110   -1.0840 O   0  0  0  0  0  0  0  0  0  0  0  0
    1.4250    9.3890   -1.1680 C   0  0  0  0  0  0  0  0  0  0  0  0
    2.6730    9.6360   -2.0510 C   0  0  0  0  0  0  0  0  0  0  0  0
    1.9010    8.5100    0.0200 C   0  0  0  0  0  0  0  0  0  0  0  0
   -0.4840   12.9610   -1.3720 C   0  0  1  0  0  0  0  0  0  0  0  0
   -1.9220   12.7430   -0.8090 C   0  0  0  0  0  0  0  0  0  0  0  0
   -0.6370   13.8990   -2.6280 C   0  0  0  0  0  0  0  0  0  0  0  0
    0.5810   14.7660   -3.0000 C   0  0  0  0  0  0  0  0  0  0  0  0
    1.1180   15.5110   -1.7740 C   0  0  2  0  0  0  0  0  0  0  0  0
   -0.0060   16.4800   -1.2720 C   0  0  0  0  0  0  0  0  0  0  0  0
    3.6615   18.6373   -1.3216 H   0  0  0  0  0  0  0  0  0  0  0  0
    4.4058   18.0606   -2.8514 H   0  0  0  0  0  0  0  0  0  0  0  0
    3.3812   19.5361   -2.8514 H   0  0  0  0  0  0  0  0  0  0  0  0
    2.2272   17.5216   -3.7731 H   0  0  0  0  0  0  0  0  0  0  0  0
    0.3144   18.4452   -3.1274 H   0  0  0  0  0  0  0  0  0  0  0  0
    0.5478   17.7813   -1.4394 H   0  0  0  0  0  0  0  0  0  0  0  0
    2.0328   20.2619   -2.2386 H   0  0  0  0  0  0  0  0  0  0  0  0
    0.2642   20.3640   -1.8536 H   0  0  0  0  0  0  0  0  0  0  0  0
    2.3580   20.4493   -0.3852 H   0  0  0  0  0  0  0  0  0  0  0  0
   -1.6165   19.6339    1.4196 H   0  0  0  0  0  0  0  0  0  0  0  0
   -1.2914   20.5447   -0.0941 H   0  0  0  0  0  0  0  0  0  0  0  0
   -1.2248   18.7497   -0.0941 H   0  0  0  0  0  0  0  0  0  0  0  0
    0.3041   19.5294    2.9612 H   0  0  0  0  0  0  0  0  0  0  0  0
    1.8686   20.1667    2.3508 H   0  0  0  0  0  0  0  0  0  0  0  0
    0.4103   21.2154    2.3508 H   0  0  0  0  0  0  0  0  0  0  0  0
    3.0839   15.8217   -2.6774 H   0  0  0  0  0  0  0  0  0  0  0  0
    4.0503   16.3249   -0.5216 H   0  0  0  0  0  0  0  0  0  0  0  0
    2.7605   17.4818   -0.1274 H   0  0  0  0  0  0  0  0  0  0  0  0
    2.9974   14.8355    0.9262 H   0  0  0  0  0  0  0  0  0  0  0  0
    1.5351   15.8120    1.0298 H   0  0  0  0  0  0  0  0  0  0  0  0
    3.2622   13.0860   -0.3345 H   0  0  0  0  0  0  0  0  0  0  0  0
    2.3151   12.7008   -1.8115 H   0  0  0  0  0  0  0  0  0  0  0  0
    3.4536   14.0903   -1.8115 H   0  0  0  0  0  0  0  0  0  0  0  0
   -0.2797   14.4227    0.2228 H   0  0  0  0  0  0  0  0  0  0  0  0
    1.4707   13.0520    1.5281 H   0  0  0  0  0  0  0  0  0  0  0  0
   -0.2979   12.5435    1.4847 H   0  0  0  0  0  0  0  0  0  0  0  0
    1.4773   10.6111    1.2463 H   0  0  0  0  0  0  0  0  0  0  0  0
    0.9143   11.8837   -2.5429 H   0  0  0  0  0  0  0  0  0  0  0  0
   -1.6953   10.4035   -1.8374 H   0  0  0  0  0  0  0  0  0  0  0  0
   -1.3001   11.2322   -3.4083 H   0  0  0  0  0  0  0  0  0  0  0  0
   -1.0680    8.7739   -3.5623 H   0  0  0  0  0  0  0  0  0  0  0  0
    0.4909    9.6482   -3.8284 H   0  0  0  0  0  0  0  0  0  0  0  0
    0.9058    7.7394   -2.4357 H   0  0  0  0  0  0  0  0  0  0  0  0
   -1.4990    8.1580   -1.5610 H   0  0  0  0  0  0  0  0  0  0  0  0
    3.5486    9.8093   -1.4081 H   0  0  0  0  0  0  0  0  0  0  0  0
    2.8528    8.7560   -2.6861 H   0  0  0  0  0  0  0  0  0  0  0  0
    2.5041   10.5181   -2.6861 H   0  0  0  0  0  0  0  0  0  0  0  0
    1.6355    9.0002    0.9683 H   0  0  0  0  0  0  0  0  0  0  0  0
    1.4126    7.5258   -0.0333 H   0  0  0  0  0  0  0  0  0  0  0  0
    2.9921    8.3812   -0.0333 H   0  0  0  0  0  0  0  0  0  0  0  0
   -1.8899   12.7479    0.2905 H   0  0  0  0  0  0  0  0  0  0  0  0
   -2.5798   13.5517   -1.1602 H   0  0  0  0  0  0  0  0  0  0  0  0
   -2.3105   11.7757   -1.1602 H   0  0  0  0  0  0  0  0  0  0  0  0
   -0.8681   13.2609   -3.4937 H   0  0  0  0  0  0  0  0  0  0  0  0
   -1.4279   14.6144   -2.3584 H   0  0  0  0  0  0  0  0  0  0  0  0
    1.3736   14.1189   -3.4037 H   0  0  0  0  0  0  0  0  0  0  0  0
    0.2686   15.5061   -3.7514 H   0  0  0  0  0  0  0  0  0  0  0  0
   -0.0174   16.4898   -0.1721 H   0  0  0  0  0  0  0  0  0  0  0  0
    0.1915   17.4955   -1.6457 H   0  0  0  0  0  0  0  0  0  0  0  0
   -0.9814   16.1350   -1.6457 H   0  0  0  0  0  0  0  0  0  0  0  0
  1  2  1  0
  2  3  1  0
  3  4  1  0
  4  5  1  0
  5  6  1  0
  6  7  1  0
  7  8  1  0
  7  9  1  0
  2 10  1  0
 10 11  1  0
 11 12  1  0
 12 13  1  0
 13 14  1  6
 13 15  1  0
 15 16  1  0
 16 17  1  0
 17 18  2  0
 18 19  1  0
 19 20  1  0
 20 21  1  0
 21 22  1  0
 22 23  1  0
 22 24  1  0
 24 25  1  0
 24 26  1  0
 19 27  1  0
 27 28  1  1
 27 29  1  0
 29 30  1  0
 30 31  1  0
 31 32  1  1
  7  5  1  0
 31 10  1  0
 31 13  1  0
 27 15  1  0
 24 18  1  0
  1 33  1  0
  1 34  1  0
  1 35  1  0
  2 36  1  6
  3 37  1  0
  3 38  1  0
  4 39  1  0
  4 40  1  0
  5 41  1  1
  8 42  1  0
  8 43  1  0
  8 44  1  0
  9 45  1  0
  9 46  1  0
  9 47  1  0
 10 48  1  6
 11 49  1  0
 11 50  1  0
 12 51  1  0
 12 52  1  0
 14 53  1  0
 14 54  1  0
 14 55  1  0
 15 56  1  1
 16 57  1  0
 16 58  1  0
 17 59  1  0
 19 60  1  6
 20 61  1  0
 20 62  1  0
 21 63  1  0
 21 64  1  0
 22 65  1  6
 23 66  1  0
 25 67  1  0
 25 68  1  0
 25 69  1  0
 26 70  1  0
 26 71  1  0
 26 72  1  0
 28 73  1  0
 28 74  1  0
 28 75  1  0
 29 76  1  0
 29 77  1  0
 30 78  1  0
 30 79  1  0
 32 80  1  0
 32 81  1  0
 32 82  1  0
M  END
>  <meeko>  (15) 
{"is_sidechain": [false], "intermolecular_energy": 2.731, "internal_energy": -0.839}

$$$$
EPH_relaxed_0001_pdb2pqr_Repair_29_r2_0001_out
     RDKit          3D

 82 86  0  0  0  0  0  0  0  0999 V2000
   -0.2910    9.2670   -1.9070 C   0  0  0  0  0  0  0  0  0  0  0  0
    0.7880   10.2050   -2.4580 C   0  0  2  0  0  0  0  0  0  0  0  0
    2.1590    9.5100   -2.5710 C   0  0  0  0  0  0  0  0  0  0  0  0
    3.0260   10.0430   -3.7150 C   0  0  0  0  0  0  0  0  0  0  0  0
    4.3870   10.4490   -3.2360 C   0  0  2  0  0  0  0  0  0  0  0  0
    4.8120   11.7470   -3.6710 O   0  0  0  0  0  0  0  0  0  0  0  0
    5.5780   10.6340   -4.1580 C   0  0  0  0  0  0  0  0  0  0  0  0
    5.4630   10.4150   -5.6340 C   0  0  0  0  0  0  0  0  0  0  0  0
    6.9540   10.5480   -3.5750 C   0  0  0  0  0  0  0  0  0  0  0  0
    0.9020   11.4410   -1.5740 C   0  0  1  0  0  0  0  0  0  0  0  0
    2.0080   11.3040   -0.4940 C   0  0  0  0  0  0  0  0  0  0  0  0
    2.6280   12.7120   -0.3060 C   0  0  0  0  0  0  0  0  0  0  0  0
    1.6500   13.6680   -1.0280 C   0  0  1  0  0  0  0  0  0  0  0  0
    0.4920   13.9040   -0.0080 C   0  0  0  0  0  0  0  0  0  0  0  0
    2.2520   15.0170   -1.5390 C   0  0  2  0  0  0  0  0  0  0  0  0
    2.8020   15.9440   -0.4400 C   0  0  0  0  0  0  0  0  0  0  0  0
    1.8210   16.9190    0.1220 C   0  0  0  0  0  0  0  0  0  0  0  0
    0.6370   17.2430   -0.4300 C   0  0  0  0  0  0  0  0  0  0  0  0
    0.2230   16.6770   -1.7950 C   0  0  1  0  0  0  0  0  0  0  0  0
   -0.3370   17.8210   -2.6810 C   0  0  0  0  0  0  0  0  0  0  0  0
   -1.4660   18.5890   -2.0010 C   0  0  0  0  0  0  0  0  0  0  0  0
   -0.9990   19.1850   -0.6750 C   0  0  2  0  0  0  0  0  0  0  0  0
   -0.0210   20.1940   -0.9420 O   0  0  0  0  0  0  0  0  0  0  0  0
   -0.4060   18.1270    0.2970 C   0  0  0  0  0  0  0  0  0  0  0  0
   -1.5390   17.2110    0.8230 C   0  0  0  0  0  0  0  0  0  0  0  0
    0.1550   18.8770    1.5350 C   0  0  0  0  0  0  0  0  0  0  0  0
    1.3190   15.8050   -2.5450 C   0  0  1  0  0  0  0  0  0  0  0  0
    2.2510   16.7300   -3.3860 C   0  0  0  0  0  0  0  0  0  0  0  0
    0.6010   14.8480   -3.5690 C   0  0  0  0  0  0  0  0  0  0  0  0
    0.1350   13.4810   -3.0340 C   0  0  0  0  0  0  0  0  0  0  0  0
    1.2610   12.7800   -2.2660 C   0  0  2  0  0  0  0  0  0  0  0  0
    2.4310   12.5100   -3.2730 C   0  0  0  0  0  0  0  0  0  0  0  0
   -0.2677    9.2872   -0.8074 H   0  0  0  0  0  0  0  0  0  0  0  0
   -1.2792    9.5980   -2.2590 H   0  0  0  0  0  0  0  0  0  0  0  0
   -0.1007    8.2424   -2.2590 H   0  0  0  0  0  0  0  0  0  0  0  0
    0.4833   10.5002   -3.4729 H   0  0  0  0  0  0  0  0  0  0  0  0
    2.7021    9.6572   -1.6258 H   0  0  0  0  0  0  0  0  0  0  0  0
    1.9650    8.4480   -2.7821 H   0  0  0  0  0  0  0  0  0  0  0  0
    3.1358    9.2560   -4.4756 H   0  0  0  0  0  0  0  0  0  0  0  0
    2.5313   10.9310   -4.1353 H   0  0  0  0  0  0  0  0  0  0  0  0
    4.2560    9.8770   -2.3056 H   0  0  0  0  0  0  0  0  0  0  0  0
    4.9593    9.4558   -5.8242 H   0  0  0  0  0  0  0  0  0  0  0  0
    4.8774   11.2317   -6.0813 H   0  0  0  0  0  0  0  0  0  0  0  0
    6.4678   10.3966   -6.0813 H   0  0  0  0  0  0  0  0  0  0  0  0
    6.8879   10.5521   -2.4770 H   0  0  0  0  0  0  0  0  0  0  0  0
    7.4366    9.6179   -3.9098 H   0  0  0  0  0  0  0  0  0  0  0  0
    7.5486   11.4107   -3.9098 H   0  0  0  0  0  0  0  0  0  0  0  0
   -0.1254   11.4826   -1.1832 H   0  0  0  0  0  0  0  0  0  0  0  0
    1.5713   10.9531    0.4527 H   0  0  0  0  0  0  0  0  0  0  0  0
    2.7717   10.5746   -0.8018 H   0  0  0  0  0  0  0  0  0  0  0  0
    2.7009   12.9649    0.7621 H   0  0  0  0  0  0  0  0  0  0  0  0
    3.6489   12.7758   -0.7105 H   0  0  0  0  0  0  0  0  0  0  0  0
    0.8840   13.8241    1.0167 H   0  0  0  0  0  0  0  0  0  0  0  0
    0.0674   14.9071   -0.1610 H   0  0  0  0  0  0  0  0  0  0  0  0
   -0.2913   13.1470   -0.1610 H   0  0  0  0  0  0  0  0  0  0  0  0
    3.1277   14.6806   -2.1134 H   0  0  0  0  0  0  0  0  0  0  0  0
    3.1660   15.3142    0.3851 H   0  0  0  0  0  0  0  0  0  0  0  0
    3.5903   16.5457   -0.9159 H   0  0  0  0  0  0  0  0  0  0  0  0
    2.0884   17.4144    1.0670 H   0  0  0  0  0  0  0  0  0  0  0  0
   -0.5683   15.9404   -1.5919 H   0  0  0  0  0  0  0  0  0  0  0  0
    0.4793   18.5223   -2.9087 H   0  0  0  0  0  0  0  0  0  0  0  0
   -0.7464   17.3655   -3.5947 H   0  0  0  0  0  0  0  0  0  0  0  0
   -1.7988   19.4015   -2.6636 H   0  0  0  0  0  0  0  0  0  0  0  0
   -2.2937   17.8926   -1.8009 H   0  0  0  0  0  0  0  0  0  0  0  0
   -1.8820   19.6101   -0.1754 H   0  0  0  0  0  0  0  0  0  0  0  0
    0.2760   20.5500   -0.0880 H   0  0  0  0  0  0  0  0  0  0  0  0
   -1.5333   17.2156    1.9230 H   0  0  0  0  0  0  0  0  0  0  0  0
   -2.5088   17.5819    0.4598 H   0  0  0  0  0  0  0  0  0  0  0  0
   -1.3795   16.1850    0.4598 H   0  0  0  0  0  0  0  0  0  0  0  0
   -0.2079   18.3919    2.4531 H   0  0  0  0  0  0  0  0  0  0  0  0
    1.2544   18.8473    1.5146 H   0  0  0  0  0  0  0  0  0  0  0  0
   -0.1840   19.9233    1.5146 H   0  0  0  0  0  0  0  0  0  0  0  0
    2.8671   17.3415   -2.7104 H   0  0  0  0  0  0  0  0  0  0  0  0
    2.9043   16.1130   -4.0204 H   0  0  0  0  0  0  0  0  0  0  0  0
    1.6390   17.3880   -4.0204 H   0  0  0  0  0  0  0  0  0  0  0  0
   -0.2854   15.3751   -3.9516 H   0  0  0  0  0  0  0  0  0  0  0  0
    1.3628   14.6152   -4.3276 H   0  0  0  0  0  0  0  0  0  0  0  0
   -0.7212   13.6312   -2.3599 H   0  0  0  0  0  0  0  0  0  0  0  0
   -0.1533   12.8499   -3.8876 H   0  0  0  0  0  0  0  0  0  0  0  0
    3.3541   12.2970   -2.7140 H   0  0  0  0  0  0  0  0  0  0  0  0
    2.1781   11.6466   -3.9059 H   0  0  0  0  0  0  0  0  0  0  0  0
    2.5820   13.3969   -3.9059 H   0  0  0  0  0  0  0  0  0  0  0  0
  1  2  1  0
  2  3  1  0
  3  4  1  0
  4  5  1  0
  5  6  1  0
  6  7  1  0
  7  8  1  0
  7  9  1  0
  2 10  1  0
 10 11  1  0
 11 12  1  0
 12 13  1  0
 13 14  1  1
 13 15  1  0
 15 16  1  0
 16 17  1  0
 17 18  2  0
 18 19  1  0
 19 20  1  0
 20 21  1  0
 21 22  1  0
 22 23  1  0
 22 24  1  0
 24 25  1  0
 24 26  1  0
 19 27  1  0
 27 28  1  6
 27 29  1  0
 29 30  1  0
 30 31  1  0
 31 32  1  6
  7  5  1  0
 31 10  1  0
 31 13  1  0
 27 15  1  0
 24 18  1  0
  1 33  1  0
  1 34  1  0
  1 35  1  0
  2 36  1  6
  3 37  1  0
  3 38  1  0
  4 39  1  0
  4 40  1  0
  5 41  1  1
  8 42  1  0
  8 43  1  0
  8 44  1  0
  9 45  1  0
  9 46  1  0
  9 47  1  0
 10 48  1  1
 11 49  1  0
 11 50  1  0
 12 51  1  0
 12 52  1  0
 14 53  1  0
 14 54  1  0
 14 55  1  0
 15 56  1  6
 16 57  1  0
 16 58  1  0
 17 59  1  0
 19 60  1  1
 20 61  1  0
 20 62  1  0
 21 63  1  0
 21 64  1  0
 22 65  1  1
 23 66  1  0
 25 67  1  0
 25 68  1  0
 25 69  1  0
 26 70  1  0
 26 71  1  0
 26 72  1  0
 28 73  1  0
 28 74  1  0
 28 75  1  0
 29 76  1  0
 29 77  1  0
 30 78  1  0
 30 79  1  0
 32 80  1  0
 32 81  1  0
 32 82  1  0
M  END
>  <meeko>  (16) 
{"is_sidechain": [false], "intermolecular_energy": 2.731, "internal_energy": -0.839}

$$$$
EPH_relaxed_0001_pdb2pqr_Repair_29_r2_0001_out
     RDKit          3D

 82 86  0  0  0  0  0  0  0  0999 V2000
   -2.1390    7.8250   -2.2220 C   0  0  0  0  0  0  0  0  0  0  0  0
   -2.0900    8.4230   -0.8140 C   0  0  2  0  0  0  0  0  0  0  0  0
   -3.4580    8.3560   -0.1060 C   0  0  0  0  0  0  0  0  0  0  0  0
   -4.6470    8.5850   -1.0420 C   0  0  0  0  0  0  0  0  0  0  0  0
   -5.4250    7.3240   -1.2680 C   0  0  2  0  0  0  0  0  0  0  0  0
   -5.6670    7.0090   -2.6460 O   0  0  0  0  0  0  0  0  0  0  0  0
   -6.8270    7.2990   -1.8490 C   0  0  0  0  0  0  0  0  0  0  0  0
   -7.5330    8.5590   -2.2380 C   0  0  0  0  0  0  0  0  0  0  0  0
   -7.6900    6.1050   -1.5830 C   0  0  0  0  0  0  0  0  0  0  0  0
   -1.6070    9.8670   -0.8780 C   0  0  1  0  0  0  0  0  0  0  0  0
   -1.2150   10.4290    0.5140 C   0  0  0  0  0  0  0  0  0  0  0  0
   -0.0180   11.3880    0.2890 C   0  0  0  0  0  0  0  0  0  0  0  0
    0.0260   11.6040   -1.2420 C   0  0  1  0  0  0  0  0  0  0  0  0
   -1.0600   12.6890   -1.5260 C   0  0  0  0  0  0  0  0  0  0  0  0
    1.4120   12.0040   -1.8440 C   0  0  2  0  0  0  0  0  0  0  0  0
    1.9770   13.3460   -1.3480 C   0  0  0  0  0  0  0  0  0  0  0  0
    1.5950   14.5380   -2.1620 C   0  0  0  0  0  0  0  0  0  0  0  0
    1.0700   14.5040   -3.4010 C   0  0  0  0  0  0  0  0  0  0  0  0
    0.9020   13.1750   -4.1480 C   0  0  1  0  0  0  0  0  0  0  0  0
    1.4220   13.3280   -5.6010 C   0  0  0  0  0  0  0  0  0  0  0  0
    0.7730   14.4970   -6.3360 C   0  0  0  0  0  0  0  0  0  0  0  0
    1.0120   15.8090   -5.5920 C   0  0  2  0  0  0  0  0  0  0  0  0
    2.4080   16.1180   -5.6400 O   0  0  0  0  0  0  0  0  0  0  0  0
    0.5350   15.7710   -4.1130 C   0  0  0  0  0  0  0  0  0  0  0  0
   -1.0120   15.7380   -4.0660 C   0  0  0  0  0  0  0  0  0  0  0  0
    0.9630   17.1030   -3.4400 C   0  0  0  0  0  0  0  0  0  0  0  0
    1.4910   11.8910   -3.4210 C   0  0  1  0  0  0  0  0  0  0  0  0
    2.9990   11.7210   -3.7800 C   0  0  0  0  0  0  0  0  0  0  0  0
    0.7580   10.6090   -3.9660 C   0  0  0  0  0  0  0  0  0  0  0  0
   -0.5440   10.1970   -3.2530 C   0  0  0  0  0  0  0  0  0  0  0  0
   -0.3490   10.1590   -1.7340 C   0  0  2  0  0  0  0  0  0  0  0  0
    0.7220    9.0600   -1.4170 C   0  0  0  0  0  0  0  0  0  0  0  0
   -2.2287    6.7308   -2.1527 H   0  0  0  0  0  0  0  0  0  0  0  0
   -3.0069    8.2305   -2.7626 H   0  0  0  0  0  0  0  0  0  0  0  0
   -1.2166    8.0838   -2.7626 H   0  0  0  0  0  0  0  0  0  0  0  0
   -1.3833    7.8207   -0.2242 H   0  0  0  0  0  0  0  0  0  0  0  0
   -3.5634    7.3617    0.3525 H   0  0  0  0  0  0  0  0  0  0  0  0
   -3.4745    9.1654    0.6387 H   0  0  0  0  0  0  0  0  0  0  0  0
   -5.3120    9.3391   -0.5958 H   0  0  0  0  0  0  0  0  0  0  0  0
   -4.2586    8.9271   -2.0126 H   0  0  0  0  0  0  0  0  0  0  0  0
   -4.9916    6.8666   -0.3664 H   0  0  0  0  0  0  0  0  0  0  0  0
   -7.8379    9.1032   -1.3319 H   0  0  0  0  0  0  0  0  0  0  0  0
   -6.8566    9.1893   -2.8341 H   0  0  0  0  0  0  0  0  0  0  0  0
   -8.4237    8.3112   -2.8341 H   0  0  0  0  0  0  0  0  0  0  0  0
   -7.7934    5.9619   -0.4973 H   0  0  0  0  0  0  0  0  0  0  0  0
   -8.6833    6.2640   -2.0281 H   0  0  0  0  0  0  0  0  0  0  0  0
   -7.2274    5.2118   -2.0281 H   0  0  0  0  0  0  0  0  0  0  0  0
   -2.4908   10.3361   -1.3351 H   0  0  0  0  0  0  0  0  0  0  0  0
   -2.0617   10.9768    0.9533 H   0  0  0  0  0  0  0  0  0  0  0  0
   -0.9458    9.6173    1.2058 H   0  0  0  0  0  0  0  0  0  0  0  0
   -0.1813   12.3422    0.8113 H   0  0  0  0  0  0  0  0  0  0  0  0
    0.9248   10.9775    0.6798 H   0  0  0  0  0  0  0  0  0  0  0  0
   -1.4485   13.0772   -0.5729 H   0  0  0  0  0  0  0  0  0  0  0  0
   -0.6135   13.5125   -2.1026 H   0  0  0  0  0  0  0  0  0  0  0  0
   -1.8831   12.2418   -2.1026 H   0  0  0  0  0  0  0  0  0  0  0  0
    2.0782   11.2304   -1.4344 H   0  0  0  0  0  0  0  0  0  0  0  0
    1.6186   13.5069   -0.3205 H   0  0  0  0  0  0  0  0  0  0  0  0
    3.0712   13.2628   -1.4246 H   0  0  0  0  0  0  0  0  0  0  0  0
    1.7563   15.5282   -1.7108 H   0  0  0  0  0  0  0  0  0  0  0  0
   -0.1781   12.9671   -4.1582 H   0  0  0  0  0  0  0  0  0  0  0  0
    2.5095   13.4908   -5.5708 H   0  0  0  0  0  0  0  0  0  0  0  0
    1.1648   12.4076   -6.1457 H   0  0  0  0  0  0  0  0  0  0  0  0
    1.2040   14.5717   -7.3453 H   0  0  0  0  0  0  0  0  0  0  0  0
   -0.3108   14.3179   -6.3932 H   0  0  0  0  0  0  0  0  0  0  0  0
    0.4157   16.5858   -6.0931 H   0  0  0  0  0  0  0  0  0  0  0  0
    2.6310   16.5990   -4.8260 H   0  0  0  0  0  0  0  0  0  0  0  0
   -1.3469   15.7309   -3.0183 H   0  0  0  0  0  0  0  0  0  0  0  0
   -1.4133   16.6278   -4.5732 H   0  0  0  0  0  0  0  0  0  0  0  0
   -1.3750   14.8319   -4.5732 H   0  0  0  0  0  0  0  0  0  0  0  0
    0.9266   16.9896   -2.3465 H   0  0  0  0  0  0  0  0  0  0  0  0
    1.9879   17.3568   -3.7483 H   0  0  0  0  0  0  0  0  0  0  0  0
    0.2778   17.9064   -3.7483 H   0  0  0  0  0  0  0  0  0  0  0  0
    3.5908   11.6543   -2.8552 H   0  0  0  0  0  0  0  0  0  0  0  0
    3.1343   10.8019   -4.3690 H   0  0  0  0  0  0  0  0  0  0  0  0
    3.3356   12.5869   -4.3690 H   0  0  0  0  0  0  0  0  0  0  0  0
    0.5155   10.7888   -5.0238 H   0  0  0  0  0  0  0  0  0  0  0  0
    1.4583    9.7797   -3.7879 H   0  0  0  0  0  0  0  0  0  0  0  0
   -1.3330   10.9238   -3.4964 H   0  0  0  0  0  0  0  0  0  0  0  0
   -0.8281    9.1910   -3.5954 H   0  0  0  0  0  0  0  0  0  0  0  0
    0.8262    8.9531   -0.3272 H   0  0  0  0  0  0  0  0  0  0  0  0
    0.4026    8.1009   -1.8506 H   0  0  0  0  0  0  0  0  0  0  0  0
    1.6891    9.3545   -1.8506 H   0  0  0  0  0  0  0  0  0  0  0  0
  1  2  1  0
  2  3  1  0
  3  4  1  0
  4  5  1  0
  5  6  1  0
  6  7  1  0
  7  8  1  0
  7  9  1  0
  2 10  1  0
 10 11  1  0
 11 12  1  0
 12 13  1  0
 13 14  1  1
 13 15  1  0
 15 16  1  0
 16 17  1  0
 17 18  2  0
 18 19  1  0
 19 20  1  0
 20 21  1  0
 21 22  1  0
 22 23  1  0
 22 24  1  0
 24 25  1  0
 24 26  1  0
 19 27  1  0
 27 28  1  1
 27 29  1  0
 29 30  1  0
 30 31  1  0
 31 32  1  6
  7  5  1  0
 31 10  1  0
 31 13  1  0
 27 15  1  0
 24 18  1  0
  1 33  1  0
  1 34  1  0
  1 35  1  0
  2 36  1  1
  3 37  1  0
  3 38  1  0
  4 39  1  0
  4 40  1  0
  5 41  1  1
  8 42  1  0
  8 43  1  0
  8 44  1  0
  9 45  1  0
  9 46  1  0
  9 47  1  0
 10 48  1  6
 11 49  1  0
 11 50  1  0
 12 51  1  0
 12 52  1  0
 14 53  1  0
 14 54  1  0
 14 55  1  0
 15 56  1  1
 16 57  1  0
 16 58  1  0
 17 59  1  0
 19 60  1  6
 20 61  1  0
 20 62  1  0
 21 63  1  0
 21 64  1  0
 22 65  1  6
 23 66  1  0
 25 67  1  0
 25 68  1  0
 25 69  1  0
 26 70  1  0
 26 71  1  0
 26 72  1  0
 28 73  1  0
 28 74  1  0
 28 75  1  0
 29 76  1  0
 29 77  1  0
 30 78  1  0
 30 79  1  0
 32 80  1  0
 32 81  1  0
 32 82  1  0
M  END
>  <meeko>  (17) 
{"is_sidechain": [false], "intermolecular_energy": 2.731, "internal_energy": -0.839}

$$$$
EPH_relaxed_0001_pdb2pqr_Repair_29_r2_0001_out
     RDKit          3D

 82 86  0  0  0  0  0  0  0  0999 V2000
    2.8540   11.3710   -5.4170 C   0  0  0  0  0  0  0  0  0  0  0  0
    1.8840   11.0610   -4.2730 C   0  0  2  0  0  0  0  0  0  0  0  0
    0.7700   10.0860   -4.7030 C   0  0  0  0  0  0  0  0  0  0  0  0
   -0.3120    9.8790   -3.6400 C   0  0  0  0  0  0  0  0  0  0  0  0
    0.1800    9.0300   -2.5070 C   0  0  2  0  0  0  0  0  0  0  0  0
   -0.7110    7.9770   -2.1180 O   0  0  0  0  0  0  0  0  0  0  0  0
   -0.4740    9.0010   -1.1380 C   0  0  0  0  0  0  0  0  0  0  0  0
   -1.6760    9.8380   -0.8290 C   0  0  0  0  0  0  0  0  0  0  0  0
    0.3370    8.5390    0.0330 C   0  0  0  0  0  0  0  0  0  0  0  0
    1.2710   12.3540   -3.7470 C   0  0  1  0  0  0  0  0  0  0  0  0
   -0.2700   12.2600   -3.5820 C   0  0  0  0  0  0  0  0  0  0  0  0
   -0.6390   13.1100   -2.3390 C   0  0  0  0  0  0  0  0  0  0  0  0
    0.6390   13.9240   -2.0300 C   0  0  1  0  0  0  0  0  0  0  0  0
    0.5970   15.1290   -3.0210 C   0  0  0  0  0  0  0  0  0  0  0  0
    0.8140   14.4000   -0.5510 C   0  0  2  0  0  0  0  0  0  0  0  0
   -0.2720   15.3650   -0.0430 C   0  0  0  0  0  0  0  0  0  0  0  0
    0.0160   16.8150   -0.2480 C   0  0  0  0  0  0  0  0  0  0  0  0
    1.2180   17.3380   -0.5550 C   0  0  0  0  0  0  0  0  0  0  0  0
    2.4670   16.4500   -0.6300 C   0  0  1  0  0  0  0  0  0  0  0  0
    3.6320   17.1310    0.1340 C   0  0  0  0  0  0  0  0  0  0  0  0
    3.8970   18.5530   -0.3490 C   0  0  0  0  0  0  0  0  0  0  0  0
    2.6490   19.4200   -0.2040 C   0  0  2  0  0  0  0  0  0  0  0  0
    2.3630   19.5870    1.1880 O   0  0  0  0  0  0  0  0  0  0  0  0
    1.4060   18.8290   -0.9260 C   0  0  0  0  0  0  0  0  0  0  0  0
    1.5990   18.9280   -2.4600 C   0  0  0  0  0  0  0  0  0  0  0  0
    0.1850   19.7250   -0.5840 C   0  0  0  0  0  0  0  0  0  0  0  0
    2.2640   14.9310   -0.2080 C   0  0  1  0  0  0  0  0  0  0  0  0
    2.4410   14.7800    1.3340 C   0  0  0  0  0  0  0  0  0  0  0  0
    3.3940   14.0580   -0.8720 C   0  0  0  0  0  0  0  0  0  0  0  0
    3.1120   13.5180   -2.2870 C   0  0  0  0  0  0  0  0  0  0  0  0
    1.7370   12.8470   -2.3540 C   0  0  2  0  0  0  0  0  0  0  0  0
    1.7560   11.6180   -1.3830 C   0  0  0  0  0  0  0  0  0  0  0  0
    3.8241   11.6810   -5.0013 H   0  0  0  0  0  0  0  0  0  0  0  0
    2.9907   10.4718   -6.0357 H   0  0  0  0  0  0  0  0  0  0  0  0
    2.4439   12.1828   -6.0357 H   0  0  0  0  0  0  0  0  0  0  0  0
    2.4603   10.5707   -3.4745 H   0  0  0  0  0  0  0  0  0  0  0  0
    0.2929   10.4829   -5.6112 H   0  0  0  0  0  0  0  0  0  0  0  0
    1.2460    9.1087   -4.8712 H   0  0  0  0  0  0  0  0  0  0  0  0
   -0.6160   10.8596   -3.2449 H   0  0  0  0  0  0  0  0  0  0  0  0
   -1.1618    9.3635   -4.1112 H   0  0  0  0  0  0  0  0  0  0  0  0
    1.2241    9.1717   -2.8228 H   0  0  0  0  0  0  0  0  0  0  0  0
   -1.7947    9.9207    0.2614 H   0  0  0  0  0  0  0  0  0  0  0  0
   -1.5450   10.8412   -1.2607 H   0  0  0  0  0  0  0  0  0  0  0  0
   -2.5715    9.3671   -1.2607 H   0  0  0  0  0  0  0  0  0  0  0  0
   -0.1691    8.8273    0.9661 H   0  0  0  0  0  0  0  0  0  0  0  0
    0.4433    7.4448   -0.0035 H   0  0  0  0  0  0  0  0  0  0  0  0
    1.3325    9.0056   -0.0035 H   0  0  0  0  0  0  0  0  0  0  0  0
    1.6129   13.0509   -4.5264 H   0  0  0  0  0  0  0  0  0  0  0  0
   -0.7718   12.6586   -4.4761 H   0  0  0  0  0  0  0  0  0  0  0  0
   -0.5909   11.2154   -3.4558 H   0  0  0  0  0  0  0  0  0  0  0  0
   -1.4817   13.7804   -2.5632 H   0  0  0  0  0  0  0  0  0  0  0  0
   -0.9542   12.4890   -1.4875 H   0  0  0  0  0  0  0  0  0  0  0  0
    0.5642   16.0702   -2.4526 H   0  0  0  0  0  0  0  0  0  0  0  0
    1.4962   15.1143   -3.6544 H   0  0  0  0  0  0  0  0  0  0  0  0
   -0.2990   15.0518   -3.6544 H   0  0  0  0  0  0  0  0  0  0  0  0
    0.6735   13.4670    0.0145 H   0  0  0  0  0  0  0  0  0  0  0  0
   -1.2096   15.1275   -0.5669 H   0  0  0  0  0  0  0  0  0  0  0  0
   -0.3253   15.2167    1.0456 H   0  0  0  0  0  0  0  0  0  0  0  0
   -0.8250   17.5157   -0.1390 H   0  0  0  0  0  0  0  0  0  0  0  0
    2.7190   16.3676   -1.6976 H   0  0  0  0  0  0  0  0  0  0  0  0
    3.3803   17.1635    1.2043 H   0  0  0  0  0  0  0  0  0  0  0  0
    4.5419   16.5410   -0.0506 H   0  0  0  0  0  0  0  0  0  0  0  0
    4.7105   18.9903    0.2484 H   0  0  0  0  0  0  0  0  0  0  0  0
    4.1773   18.5162   -1.4121 H   0  0  0  0  0  0  0  0  0  0  0  0
    2.8607   20.3866   -0.6845 H   0  0  0  0  0  0  0  0  0  0  0  0
    1.9820   20.4740    1.3050 H   0  0  0  0  0  0  0  0  0  0  0  0
    2.5584   19.4201   -2.6778 H   0  0  0  0  0  0  0  0  0  0  0  0
    1.5978   17.9179   -2.8957 H   0  0  0  0  0  0  0  0  0  0  0  0
    0.7779   19.5162   -2.8957 H   0  0  0  0  0  0  0  0  0  0  0  0
    0.0808   19.8014    0.5084 H   0  0  0  0  0  0  0  0  0  0  0  0
    0.3359   20.7283   -1.0090 H   0  0  0  0  0  0  0  0  0  0  0  0
   -0.7268   19.2801   -1.0090 H   0  0  0  0  0  0  0  0  0  0  0  0
    1.7025   15.4101    1.8513 H   0  0  0  0  0  0  0  0  0  0  0  0
    2.2898   13.7284    1.6192 H   0  0  0  0  0  0  0  0  0  0  0  0
    3.4556   15.0950    1.6192 H   0  0  0  0  0  0  0  0  0  0  0  0
    4.3030   14.6751   -0.9261 H   0  0  0  0  0  0  0  0  0  0  0  0
    3.4807   13.1655   -0.2348 H   0  0  0  0  0  0  0  0  0  0  0  0
    3.1403   14.3527   -3.0029 H   0  0  0  0  0  0  0  0  0  0  0  0
    3.8795   12.7705   -2.5364 H   0  0  0  0  0  0  0  0  0  0  0  0
    1.7505   11.9731   -0.3419 H   0  0  0  0  0  0  0  0  0  0  0  0
    0.8674   10.9950   -1.5626 H   0  0  0  0  0  0  0  0  0  0  0  0
    2.6635   11.0228   -1.5626 H   0  0  0  0  0  0  0  0  0  0  0  0
  1  2  1  0
  2  3  1  0
  3  4  1  0
  4  5  1  0
  5  6  1  0
  6  7  1  0
  7  8  1  0
  7  9  1  0
  2 10  1  0
 10 11  1  0
 11 12  1  0
 12 13  1  0
 13 14  1  6
 13 15  1  0
 15 16  1  0
 16 17  1  0
 17 18  2  0
 18 19  1  0
 19 20  1  0
 20 21  1  0
 21 22  1  0
 22 23  1  0
 22 24  1  0
 24 25  1  0
 24 26  1  0
 19 27  1  0
 27 28  1  1
 27 29  1  0
 29 30  1  0
 30 31  1  0
 31 32  1  1
  7  5  1  0
 31 10  1  0
 31 13  1  0
 27 15  1  0
 24 18  1  0
  1 33  1  0
  1 34  1  0
  1 35  1  0
  2 36  1  1
  3 37  1  0
  3 38  1  0
  4 39  1  0
  4 40  1  0
  5 41  1  1
  8 42  1  0
  8 43  1  0
  8 44  1  0
  9 45  1  0
  9 46  1  0
  9 47  1  0
 10 48  1  6
 11 49  1  0
 11 50  1  0
 12 51  1  0
 12 52  1  0
 14 53  1  0
 14 54  1  0
 14 55  1  0
 15 56  1  1
 16 57  1  0
 16 58  1  0
 17 59  1  0
 19 60  1  6
 20 61  1  0
 20 62  1  0
 21 63  1  0
 21 64  1  0
 22 65  1  6
 23 66  1  0
 25 67  1  0
 25 68  1  0
 25 69  1  0
 26 70  1  0
 26 71  1  0
 26 72  1  0
 28 73  1  0
 28 74  1  0
 28 75  1  0
 29 76  1  0
 29 77  1  0
 30 78  1  0
 30 79  1  0
 32 80  1  0
 32 81  1  0
 32 82  1  0
M  END
>  <meeko>  (18) 
{"is_sidechain": [false], "intermolecular_energy": 2.731, "internal_energy": -0.839}

$$$$
EPH_relaxed_0001_pdb2pqr_Repair_29_r2_0001_out
     RDKit          3D

 82 86  0  0  0  0  0  0  0  0999 V2000
   -2.0430    9.6050   -0.2830 C   0  0  0  0  0  0  0  0  0  0  0  0
   -1.5840   10.5570   -1.3910 C   0  0  2  0  0  0  0  0  0  0  0  0
   -0.6560    9.8620   -2.4070 C   0  0  0  0  0  0  0  0  0  0  0  0
    0.7140    9.4880   -1.8330 C   0  0  0  0  0  0  0  0  0  0  0  0
    1.8310    9.9420   -2.7230 C   0  0  2  0  0  0  0  0  0  0  0  0
    2.9980    9.1110   -2.6910 O   0  0  0  0  0  0  0  0  0  0  0  0
    3.1610   10.4520   -2.2020 C   0  0  0  0  0  0  0  0  0  0  0  0
    3.4450   10.5350   -0.7350 C   0  0  0  0  0  0  0  0  0  0  0  0
    3.9930   11.3210   -3.0930 C   0  0  0  0  0  0  0  0  0  0  0  0
   -0.8800   11.7630   -0.7820 C   0  0  1  0  0  0  0  0  0  0  0  0
    0.2740   11.3610    0.1750 C   0  0  0  0  0  0  0  0  0  0  0  0
    1.3820   12.4340    0.0160 C   0  0  0  0  0  0  0  0  0  0  0  0
    0.7030   13.5830   -0.7650 C   0  0  1  0  0  0  0  0  0  0  0  0
   -0.0940   14.3840    0.3130 C   0  0  0  0  0  0  0  0  0  0  0  0
    1.6510   14.5120   -1.5900 C   0  0  2  0  0  0  0  0  0  0  0  0
    2.6810   15.2980   -0.7600 C   0  0  0  0  0  0  0  0  0  0  0  0
    2.2310   16.6420   -0.2930 C   0  0  0  0  0  0  0  0  0  0  0  0
    1.1660   17.3180   -0.7620 C   0  0  0  0  0  0  0  0  0  0  0  0
    0.3430   16.7730   -1.9370 C   0  0  1  0  0  0  0  0  0  0  0  0
    0.0870   17.9100   -2.9600 C   0  0  0  0  0  0  0  0  0  0  0  0
   -0.5520   19.1390   -2.3210 C   0  0  0  0  0  0  0  0  0  0  0  0
    0.3230   19.6860   -1.1960 C   0  0  2  0  0  0  0  0  0  0  0  0
    1.5350   20.1940   -1.7610 O   0  0  0  0  0  0  0  0  0  0  0  0
    0.6560   18.6260   -0.1090 C   0  0  0  0  0  0  0  0  0  0  0  0
   -0.6190   18.2980    0.7060 C   0  0  0  0  0  0  0  0  0  0  0  0
    1.6580   19.2660    0.8900 C   0  0  0  0  0  0  0  0  0  0  0  0
    0.9020   15.4510   -2.6210 C   0  0  1  0  0  0  0  0  0  0  0  0
    1.9410   15.8210   -3.7230 C   0  0  0  0  0  0  0  0  0  0  0  0
   -0.2800   14.7130   -3.3540 C   0  0  0  0  0  0  0  0  0  0  0  0
   -1.1040   13.7180   -2.5150 C   0  0  0  0  0  0  0  0  0  0  0  0
   -0.1910   12.7520   -1.7560 C   0  0  2  0  0  0  0  0  0  0  0  0
    0.6070   11.9160   -2.8140 C   0  0  0  0  0  0  0  0  0  0  0  0
   -1.8270   10.0530    0.6981 H   0  0  0  0  0  0  0  0  0  0  0  0
   -3.1249    9.4291   -0.3756 H   0  0  0  0  0  0  0  0  0  0  0  0
   -1.5068    8.6490   -0.3756 H   0  0  0  0  0  0  0  0  0  0  0  0
   -2.4809   10.8867   -1.9358 H   0  0  0  0  0  0  0  0  0  0  0  0
   -1.1492    8.9427   -2.7558 H   0  0  0  0  0  0  0  0  0  0  0  0
   -0.4784   10.5781   -3.2229 H   0  0  0  0  0  0  0  0  0  0  0  0
    0.8288    9.9620   -0.8470 H   0  0  0  0  0  0  0  0  0  0  0  0
    0.7641    8.3921   -1.7520 H   0  0  0  0  0  0  0  0  0  0  0  0
    1.1155   10.3555   -3.4490 H   0  0  0  0  0  0  0  0  0  0  0  0
    2.5388   10.2702   -0.1705 H   0  0  0  0  0  0  0  0  0  0  0  0
    4.2544    9.8358   -0.4781 H   0  0  0  0  0  0  0  0  0  0  0  0
    3.7505   11.5600   -0.4781 H   0  0  0  0  0  0  0  0  0  0  0  0
    4.6236   11.9797   -2.4778 H   0  0  0  0  0  0  0  0  0  0  0  0
    4.6321   10.6898   -3.7279 H   0  0  0  0  0  0  0  0  0  0  0  0
    3.3346   11.9320   -3.7279 H   0  0  0  0  0  0  0  0  0  0  0  0
   -1.7378   12.2503   -0.2955 H   0  0  0  0  0  0  0  0  0  0  0  0
   -0.0860   11.3394    1.2142 H   0  0  0  0  0  0  0  0  0  0  0  0
    0.6572   10.3589   -0.0678 H   0  0  0  0  0  0  0  0  0  0  0  0
    1.7274   12.7843    0.9999 H   0  0  0  0  0  0  0  0  0  0  0  0
    2.2693   12.0436   -0.5038 H   0  0  0  0  0  0  0  0  0  0  0  0
    0.2238   14.0646    1.3165 H   0  0  0  0  0  0  0  0  0  0  0  0
    0.1031   15.4593    0.1909 H   0  0  0  0  0  0  0  0  0  0  0  0
   -1.1703   14.1923    0.1909 H   0  0  0  0  0  0  0  0  0  0  0  0
    2.2332   13.7890   -2.1802 H   0  0  0  0  0  0  0  0  0  0  0  0
    2.9333   14.6971    0.1262 H   0  0  0  0  0  0  0  0  0  0  0  0
    3.5362   15.4784   -1.4279 H   0  0  0  0  0  0  0  0  0  0  0  0
    2.8202   17.1212    0.5027 H   0  0  0  0  0  0  0  0  0  0  0  0
   -0.6117   16.4337   -1.5088 H   0  0  0  0  0  0  0  0  0  0  0  0
    1.0477   18.2045   -3.4075 H   0  0  0  0  0  0  0  0  0  0  0  0
   -0.6119   17.5262   -3.7178 H   0  0  0  0  0  0  0  0  0  0  0  0
   -0.6811   19.9173   -3.0875 H   0  0  0  0  0  0  0  0  0  0  0  0
   -1.5258   18.8493   -1.8993 H   0  0  0  0  0  0  0  0  0  0  0  0
   -0.2448   20.4826   -0.6930 H   0  0  0  0  0  0  0  0  0  0  0  0
    2.2010   19.4880   -1.7110 H   0  0  0  0  0  0  0  0  0  0  0  0
   -0.3923   18.3563    1.7808 H   0  0  0  0  0  0  0  0  0  0  0  0
   -1.4090   19.0221    0.4581 H   0  0  0  0  0  0  0  0  0  0  0  0
   -0.9615   17.2825    0.4581 H   0  0  0  0  0  0  0  0  0  0  0  0
    1.3323   19.0580    1.9199 H   0  0  0  0  0  0  0  0  0  0  0  0
    2.6592   18.8398    0.7289 H   0  0  0  0  0  0  0  0  0  0  0  0
    1.6922   20.3536    0.7289 H   0  0  0  0  0  0  0  0  0  0  0  0
    2.8759   16.1539   -3.2485 H   0  0  0  0  0  0  0  0  0  0  0  0
    2.1414   14.9390   -4.3490 H   0  0  0  0  0  0  0  0  0  0  0  0
    1.5388   16.6312   -4.3490 H   0  0  0  0  0  0  0  0  0  0  0  0
   -0.9702   15.4823   -3.7305 H   0  0  0  0  0  0  0  0  0  0  0  0
    0.2004   14.1035   -4.1336 H   0  0  0  0  0  0  0  0  0  0  0  0
   -1.7159   14.2775   -1.7921 H   0  0  0  0  0  0  0  0  0  0  0  0
   -1.7447   13.1349   -3.1928 H   0  0  0  0  0  0  0  0  0  0  0  0
    1.2773   11.2138   -2.2966 H   0  0  0  0  0  0  0  0  0  0  0  0
   -0.0977   11.3535   -3.4441 H   0  0  0  0  0  0  0  0  0  0  0  0
    1.2017   12.5938   -3.4441 H   0  0  0  0  0  0  0  0  0  0  0  0
  1  2  1  0
  2  3  1  0
  3  4  1  0
  4  5  1  0
  5  6  1  0
  6  7  1  0
  7  8  1  0
  7  9  1  0
  2 10  1  0
 10 11  1  0
 11 12  1  0
 12 13  1  0
 13 14  1  1
 13 15  1  0
 15 16  1  0
 16 17  1  0
 17 18  2  0
 18 19  1  0
 19 20  1  0
 20 21  1  0
 21 22  1  0
 22 23  1  0
 22 24  1  0
 24 25  1  0
 24 26  1  0
 19 27  1  0
 27 28  1  6
 27 29  1  0
 29 30  1  0
 30 31  1  0
 31 32  1  6
  7  5  1  0
 31 10  1  0
 31 13  1  0
 27 15  1  0
 24 18  1  0
  1 33  1  0
  1 34  1  0
  1 35  1  0
  2 36  1  6
  3 37  1  0
  3 38  1  0
  4 39  1  0
  4 40  1  0
  5 41  1  6
  8 42  1  0
  8 43  1  0
  8 44  1  0
  9 45  1  0
  9 46  1  0
  9 47  1  0
 10 48  1  1
 11 49  1  0
 11 50  1  0
 12 51  1  0
 12 52  1  0
 14 53  1  0
 14 54  1  0
 14 55  1  0
 15 56  1  6
 16 57  1  0
 16 58  1  0
 17 59  1  0
 19 60  1  1
 20 61  1  0
 20 62  1  0
 21 63  1  0
 21 64  1  0
 22 65  1  1
 23 66  1  0
 25 67  1  0
 25 68  1  0
 25 69  1  0
 26 70  1  0
 26 71  1  0
 26 72  1  0
 28 73  1  0
 28 74  1  0
 28 75  1  0
 29 76  1  0
 29 77  1  0
 30 78  1  0
 30 79  1  0
 32 80  1  0
 32 81  1  0
 32 82  1  0
M  END
>  <meeko>  (19) 
{"is_sidechain": [false], "intermolecular_energy": 2.731, "internal_energy": -0.839}

$$$$
EPH_relaxed_0001_pdb2pqr_Repair_29_r2_0001_out
     RDKit          3D

 82 86  0  0  0  0  0  0  0  0999 V2000
    0.9770   14.8770   -2.6710 C   0  0  0  0  0  0  0  0  0  0  0  0
    1.2130   14.1930   -4.0200 C   0  0  2  0  0  0  0  0  0  0  0  0
    0.4920   14.9180   -5.1740 C   0  0  0  0  0  0  0  0  0  0  0  0
    1.0750   14.6090   -6.5550 C   0  0  0  0  0  0  0  0  0  0  0  0
    0.8560   15.7400   -7.5150 C   0  0  2  0  0  0  0  0  0  0  0  0
    0.3660   15.3450   -8.8030 O   0  0  0  0  0  0  0  0  0  0  0  0
    1.6750   15.9360   -8.7770 C   0  0  0  0  0  0  0  0  0  0  0  0
    2.7760   14.9930   -9.1480 C   0  0  0  0  0  0  0  0  0  0  0  0
    1.7320   17.3020   -9.3880 C   0  0  0  0  0  0  0  0  0  0  0  0
    0.7570   12.7400   -3.9530 C   0  0  1  0  0  0  0  0  0  0  0  0
    1.8880   11.7410   -4.3180 C   0  0  0  0  0  0  0  0  0  0  0  0
    1.6800   10.4860   -3.4320 C   0  0  0  0  0  0  0  0  0  0  0  0
    0.2640   10.6610   -2.8340 C   0  0  1  0  0  0  0  0  0  0  0  0
   -0.7080   10.1830   -3.9590 C   0  0  0  0  0  0  0  0  0  0  0  0
   -0.0110    9.9260   -1.4820 C   0  0  2  0  0  0  0  0  0  0  0  0
    0.0880    8.3910   -1.5420 C   0  0  0  0  0  0  0  0  0  0  0  0
   -1.1850    7.6820   -1.8640 C   0  0  0  0  0  0  0  0  0  0  0  0
   -2.4160    8.2240   -1.8160 C   0  0  0  0  0  0  0  0  0  0  0  0
   -2.6270    9.6570   -1.3120 C   0  0  1  0  0  0  0  0  0  0  0  0
   -3.8120    9.6860   -0.3120 C   0  0  0  0  0  0  0  0  0  0  0  0
   -5.0850    9.0790   -0.8950 C   0  0  0  0  0  0  0  0  0  0  0  0
   -4.8510    7.6350   -1.3310 C   0  0  2  0  0  0  0  0  0  0  0  0
   -4.6010    6.8380   -0.1690 O   0  0  0  0  0  0  0  0  0  0  0  0
   -3.6730    7.4810   -2.3330 C   0  0  0  0  0  0  0  0  0  0  0  0
   -4.0700    8.0910   -3.7000 C   0  0  0  0  0  0  0  0  0  0  0  0
   -3.4530    5.9640   -2.5820 C   0  0  0  0  0  0  0  0  0  0  0  0
   -1.3340   10.3910   -0.7490 C   0  0  1  0  0  0  0  0  0  0  0  0
   -1.1480   10.0540    0.7620 C   0  0  0  0  0  0  0  0  0  0  0  0
   -1.5490   11.9480   -0.8330 C   0  0  0  0  0  0  0  0  0  0  0  0
   -1.1470   12.6350   -2.1530 C   0  0  0  0  0  0  0  0  0  0  0  0
    0.2620   12.2130   -2.5830 C   0  0  2  0  0  0  0  0  0  0  0  0
    1.2640   12.7000   -1.4810 C   0  0  0  0  0  0  0  0  0  0  0  0
    1.2186   14.1769   -1.8577 H   0  0  0  0  0  0  0  0  0  0  0  0
    1.6205   15.7657   -2.5930 H   0  0  0  0  0  0  0  0  0  0  0  0
   -0.0776   15.1799   -2.5930 H   0  0  0  0  0  0  0  0  0  0  0  0
    2.2925   14.2354   -4.2271 H   0  0  0  0  0  0  0  0  0  0  0  0
   -0.5654   14.6148   -5.1677 H   0  0  0  0  0  0  0  0  0  0  0  0
    0.6203   15.9974   -5.0053 H   0  0  0  0  0  0  0  0  0  0  0  0
    2.1558   14.4313   -6.4541 H   0  0  0  0  0  0  0  0  0  0  0  0
    0.5646   13.7189   -6.9514 H   0  0  0  0  0  0  0  0  0  0  0  0
    0.5959   16.4207   -6.6910 H   0  0  0  0  0  0  0  0  0  0  0  0
    3.2411   14.5947   -8.2342 H   0  0  0  0  0  0  0  0  0  0  0  0
    2.3639   14.1634   -9.7413 H   0  0  0  0  0  0  0  0  0  0  0  0
    3.5324   15.5277   -9.7413 H   0  0  0  0  0  0  0  0  0  0  0  0
    1.7636   18.0592   -8.5908 H   0  0  0  0  0  0  0  0  0  0  0  0
    2.6345   17.3876  -10.0110 H   0  0  0  0  0  0  0  0  0  0  0  0
    0.8398   17.4625  -10.0110 H   0  0  0  0  0  0  0  0  0  0  0  0
   -0.0787   12.7760   -4.6674 H   0  0  0  0  0  0  0  0  0  0  0  0
    1.8238   11.4685   -5.3818 H   0  0  0  0  0  0  0  0  0  0  0  0
    2.8789   12.1863   -4.1454 H   0  0  0  0  0  0  0  0  0  0  0  0
    1.7352    9.5695   -4.0378 H   0  0  0  0  0  0  0  0  0  0  0  0
    2.4524   10.3915   -2.6546 H   0  0  0  0  0  0  0  0  0  0  0  0
   -1.6066    9.7411   -3.5038 H   0  0  0  0  0  0  0  0  0  0  0  0
   -0.9974   11.0416   -4.5828 H   0  0  0  0  0  0  0  0  0  0  0  0
   -0.2047    9.4297   -4.5828 H   0  0  0  0  0  0  0  0  0  0  0  0
    0.8327   10.2561   -0.8581 H   0  0  0  0  0  0  0  0  0  0  0  0
    0.8277    8.1280   -2.3125 H   0  0  0  0  0  0  0  0  0  0  0  0
    0.3704    8.0646   -0.5302 H   0  0  0  0  0  0  0  0  0  0  0  0
   -1.1110    6.6269   -2.1662 H   0  0  0  0  0  0  0  0  0  0  0  0
   -2.8743   10.2581   -2.1995 H   0  0  0  0  0  0  0  0  0  0  0  0
   -3.5294    9.1172    0.5861 H   0  0  0  0  0  0  0  0  0  0  0  0
   -4.0228   10.7392   -0.0747 H   0  0  0  0  0  0  0  0  0  0  0  0
   -5.8765    9.1007   -0.1315 H   0  0  0  0  0  0  0  0  0  0  0  0
   -5.3833    9.6675   -1.7752 H   0  0  0  0  0  0  0  0  0  0  0  0
   -5.7564    7.2981   -1.8571 H   0  0  0  0  0  0  0  0  0  0  0  0
   -3.7250    6.4300   -0.2740 H   0  0  0  0  0  0  0  0  0  0  0  0
   -4.6633    9.0027   -3.5363 H   0  0  0  0  0  0  0  0  0  0  0  0
   -3.1616    8.3417   -4.2673 H   0  0  0  0  0  0  0  0  0  0  0  0
   -4.6671    7.3619   -4.2673 H   0  0  0  0  0  0  0  0  0  0  0  0
   -3.3772    5.4413   -1.6171 H   0  0  0  0  0  0  0  0  0  0  0  0
   -4.3018    5.5592   -3.1526 H   0  0  0  0  0  0  0  0  0  0  0  0
   -2.5241    5.8170   -3.1526 H   0  0  0  0  0  0  0  0  0  0  0  0
   -1.5899   10.8546    1.3733 H   0  0  0  0  0  0  0  0  0  0  0  0
   -1.6478    9.1008    0.9893 H   0  0  0  0  0  0  0  0  0  0  0  0
   -0.0751    9.9688    0.9893 H   0  0  0  0  0  0  0  0  0  0  0  0
   -2.6183   12.1457   -0.6672 H   0  0  0  0  0  0  0  0  0  0  0  0
   -0.8782   12.3726   -0.0716 H   0  0  0  0  0  0  0  0  0  0  0  0
   -1.8630   12.3521   -2.9387 H   0  0  0  0  0  0  0  0  0  0  0  0
   -1.1556   13.7241   -1.9988 H   0  0  0  0  0  0  0  0  0  0  0  0
    0.8425   12.4951   -0.4858 H   0  0  0  0  0  0  0  0  0  0  0  0
    2.2190   12.1656   -1.5918 H   0  0  0  0  0  0  0  0  0  0  0  0
    1.4338   13.7811   -1.5918 H   0  0  0  0  0  0  0  0  0  0  0  0
  1  2  1  0
  2  3  1  0
  3  4  1  0
  4  5  1  0
  5  6  1  0
  6  7  1  0
  7  8  1  0
  7  9  1  0
  2 10  1  0
 10 11  1  0
 11 12  1  0
 12 13  1  0
 13 14  1  6
 13 15  1  0
 15 16  1  0
 16 17  1  0
 17 18  2  0
 18 19  1  0
 19 20  1  0
 20 21  1  0
 21 22  1  0
 22 23  1  0
 22 24  1  0
 24 25  1  0
 24 26  1  0
 19 27  1  0
 27 28  1  1
 27 29  1  0
 29 30  1  0
 30 31  1  0
 31 32  1  1
  7  5  1  0
 31 10  1  0
 31 13  1  0
 27 15  1  0
 24 18  1  0
  1 33  1  0
  1 34  1  0
  1 35  1  0
  2 36  1  6
  3 37  1  0
  3 38  1  0
  4 39  1  0
  4 40  1  0
  5 41  1  1
  8 42  1  0
  8 43  1  0
  8 44  1  0
  9 45  1  0
  9 46  1  0
  9 47  1  0
 10 48  1  6
 11 49  1  0
 11 50  1  0
 12 51  1  0
 12 52  1  0
 14 53  1  0
 14 54  1  0
 14 55  1  0
 15 56  1  1
 16 57  1  0
 16 58  1  0
 17 59  1  0
 19 60  1  6
 20 61  1  0
 20 62  1  0
 21 63  1  0
 21 64  1  0
 22 65  1  6
 23 66  1  0
 25 67  1  0
 25 68  1  0
 25 69  1  0
 26 70  1  0
 26 71  1  0
 26 72  1  0
 28 73  1  0
 28 74  1  0
 28 75  1  0
 29 76  1  0
 29 77  1  0
 30 78  1  0
 30 79  1  0
 32 80  1  0
 32 81  1  0
 32 82  1  0
M  END
>  <meeko>  (20) 
{"is_sidechain": [false], "intermolecular_energy": 2.731, "internal_energy": -0.839}

$$$$
