EPH_relaxed_0001_pdb2pqr_Repair_266_r2_0001_out
     RDKit          3D

 82 86  0  0  0  0  0  0  0  0999 V2000
   -5.1540    5.8420   -1.6870 C   0  0  0  0  0  0  0  0  0  0  0  0
   -5.4440    7.3430   -1.7670 C   0  0  2  0  0  0  0  0  0  0  0  0
   -5.2210    8.0500   -0.4150 C   0  0  0  0  0  0  0  0  0  0  0  0
   -4.1780    9.1700   -0.4710 C   0  0  0  0  0  0  0  0  0  0  0  0
   -2.8180    8.6440   -0.8210 C   0  0  2  0  0  0  0  0  0  0  0  0
   -1.7900    8.9680    0.1240 O   0  0  0  0  0  0  0  0  0  0  0  0
   -1.6460    9.5350   -1.1880 C   0  0  0  0  0  0  0  0  0  0  0  0
   -1.7800   11.0250   -1.2260 C   0  0  0  0  0  0  0  0  0  0  0  0
   -0.5210    8.9450   -1.9800 C   0  0  0  0  0  0  0  0  0  0  0  0
   -6.8730    7.5720   -2.2450 C   0  0  1  0  0  0  0  0  0  0  0  0
   -7.1700    6.8720   -3.5980 C   0  0  0  0  0  0  0  0  0  0  0  0
   -8.6470    6.4030   -3.5440 C   0  0  0  0  0  0  0  0  0  0  0  0
   -9.2430    7.1320   -2.3170 C   0  0  1  0  0  0  0  0  0  0  0  0
   -9.5850    8.5660   -2.8290 C   0  0  0  0  0  0  0  0  0  0  0  0
  -10.4770    6.4500   -1.6420 C   0  0  2  0  0  0  0  0  0  0  0  0
  -11.7230    6.3250   -2.5350 C   0  0  0  0  0  0  0  0  0  0  0  0
  -12.6750    7.4740   -2.4680 C   0  0  0  0  0  0  0  0  0  0  0  0
  -12.6840    8.4270   -1.5180 C   0  0  0  0  0  0  0  0  0  0  0  0
  -11.7310    8.3520   -0.3180 C   0  0  1  0  0  0  0  0  0  0  0  0
  -12.5190    8.6390    0.9870 C   0  0  0  0  0  0  0  0  0  0  0  0
  -13.2840    9.9580    0.9310 C   0  0  0  0  0  0  0  0  0  0  0  0
  -14.2630    9.9710   -0.2400 C   0  0  2  0  0  0  0  0  0  0  0  0
  -15.2850    9.0000    0.0030 O   0  0  0  0  0  0  0  0  0  0  0  0
  -13.5840    9.6830   -1.6090 C   0  0  0  0  0  0  0  0  0  0  0  0
  -12.6980   10.8870   -2.0140 C   0  0  0  0  0  0  0  0  0  0  0  0
  -14.7010    9.5850   -2.6830 C   0  0  0  0  0  0  0  0  0  0  0  0
  -10.8430    7.0380   -0.2190 C   0  0  1  0  0  0  0  0  0  0  0  0
  -11.6280    5.9210    0.5350 C   0  0  0  0  0  0  0  0  0  0  0  0
   -9.5660    7.3450    0.6490 C   0  0  0  0  0  0  0  0  0  0  0  0
   -8.3380    7.9040   -0.0960 C   0  0  0  0  0  0  0  0  0  0  0  0
   -8.0180    7.0620   -1.3340 C   0  0  2  0  0  0  0  0  0  0  0  0
   -7.6480    5.6190   -0.8490 C   0  0  0  0  0  0  0  0  0  0  0  0
   -5.0948    5.5357   -0.6322 H   0  0  0  0  0  0  0  0  0  0  0  0
   -5.9612    5.2855   -2.1857 H   0  0  0  0  0  0  0  0  0  0  0  0
   -4.1976    5.6262   -2.1857 H   0  0  0  0  0  0  0  0  0  0  0  0
   -4.7368    7.7786   -2.4882 H   0  0  0  0  0  0  0  0  0  0  0  0
   -6.1778    8.4825   -0.0872 H   0  0  0  0  0  0  0  0  0  0  0  0
   -4.8414    7.2918    0.2857 H   0  0  0  0  0  0  0  0  0  0  0  0
   -4.4831    9.9037   -1.2317 H   0  0  0  0  0  0  0  0  0  0  0  0
   -4.1203    9.6350    0.5242 H   0  0  0  0  0  0  0  0  0  0  0  0
   -3.2584    7.7642   -1.3129 H   0  0  0  0  0  0  0  0  0  0  0  0
   -1.8152   11.4163   -0.1986 H   0  0  0  0  0  0  0  0  0  0  0  0
   -0.9171   11.4574   -1.7537 H   0  0  0  0  0  0  0  0  0  0  0  0
   -2.7062   11.2965   -1.7537 H   0  0  0  0  0  0  0  0  0  0  0  0
    0.2405    8.5457   -1.2939 H   0  0  0  0  0  0  0  0  0  0  0  0
   -0.9055    8.1325   -2.6140 H   0  0  0  0  0  0  0  0  0  0  0  0
   -0.0713    9.7233   -2.6140 H   0  0  0  0  0  0  0  0  0  0  0  0
   -6.8816    8.6714   -2.2802 H   0  0  0  0  0  0  0  0  0  0  0  0
   -7.0269    7.5780   -4.4293 H   0  0  0  0  0  0  0  0  0  0  0  0
   -6.4912    6.0218   -3.7603 H   0  0  0  0  0  0  0  0  0  0  0  0
   -9.1795    6.6901   -4.4627 H   0  0  0  0  0  0  0  0  0  0  0  0
   -8.7348    5.3095   -3.4629 H   0  0  0  0  0  0  0  0  0  0  0  0
   -9.7443    9.2339   -1.9696 H   0  0  0  0  0  0  0  0  0  0  0  0
   -8.7522    8.9458   -3.4391 H   0  0  0  0  0  0  0  0  0  0  0  0
  -10.4995    8.5291   -3.4391 H   0  0  0  0  0  0  0  0  0  0  0  0
  -10.1204    5.4218   -1.4817 H   0  0  0  0  0  0  0  0  0  0  0  0
  -11.3854    6.2239   -3.5770 H   0  0  0  0  0  0  0  0  0  0  0  0
  -12.2764    5.4498   -2.1637 H   0  0  0  0  0  0  0  0  0  0  0  0
  -13.4326    7.5473   -3.2622 H   0  0  0  0  0  0  0  0  0  0  0  0
  -10.9767    9.1364   -0.4786 H   0  0  0  0  0  0  0  0  0  0  0  0
  -13.2367    7.8220    1.1524 H   0  0  0  0  0  0  0  0  0  0  0  0
  -11.7903    8.7104    1.8079 H   0  0  0  0  0  0  0  0  0  0  0  0
  -13.8430   10.0902    1.8691 H   0  0  0  0  0  0  0  0  0  0  0  0
  -12.5625   10.7771    0.7948 H   0  0  0  0  0  0  0  0  0  0  0  0
  -14.6854   10.9845   -0.3058 H   0  0  0  0  0  0  0  0  0  0  0  0
  -15.0130    8.1710   -0.4250 H   0  0  0  0  0  0  0  0  0  0  0  0
  -12.3275   11.3905   -1.1089 H   0  0  0  0  0  0  0  0  0  0  0  0
  -11.8452   10.5305   -2.6104 H   0  0  0  0  0  0  0  0  0  0  0  0
  -13.2920   11.5952   -2.6104 H   0  0  0  0  0  0  0  0  0  0  0  0
  -15.6794    9.4992   -2.1877 H   0  0  0  0  0  0  0  0  0  0  0  0
  -14.6860   10.4879   -3.3111 H   0  0  0  0  0  0  0  0  0  0  0  0
  -14.5290    8.6985   -3.3111 H   0  0  0  0  0  0  0  0  0  0  0  0
  -11.5243    6.0686    1.6201 H   0  0  0  0  0  0  0  0  0  0  0  0
  -12.6915    5.9697    0.2583 H   0  0  0  0  0  0  0  0  0  0  0  0
  -11.2219    4.9369    0.2583 H   0  0  0  0  0  0  0  0  0  0  0  0
   -9.8533    8.0798    1.4155 H   0  0  0  0  0  0  0  0  0  0  0  0
   -9.2444    6.3698    1.0433 H   0  0  0  0  0  0  0  0  0  0  0  0
   -8.5464    8.9380   -0.4081 H   0  0  0  0  0  0  0  0  0  0  0  0
   -7.4725    7.8735    0.5822 H   0  0  0  0  0  0  0  0  0  0  0  0
   -7.6411    5.5923    0.2507 H   0  0  0  0  0  0  0  0  0  0  0  0
   -8.3915    4.9027   -1.2286 H   0  0  0  0  0  0  0  0  0  0  0  0
   -6.6515    5.3488   -1.2286 H   0  0  0  0  0  0  0  0  0  0  0  0
  1  2  1  0
  2  3  1  0
  3  4  1  0
  4  5  1  0
  5  6  1  0
  6  7  1  0
  7  8  1  0
  7  9  1  0
  2 10  1  0
 10 11  1  0
 11 12  1  0
 12 13  1  0
 13 14  1  6
 13 15  1  0
 15 16  1  0
 16 17  1  0
 17 18  2  0
 18 19  1  0
 19 20  1  0
 20 21  1  0
 21 22  1  0
 22 23  1  0
 22 24  1  0
 24 25  1  0
 24 26  1  0
 19 27  1  0
 27 28  1  1
 27 29  1  0
 29 30  1  0
 30 31  1  0
 31 32  1  1
  7  5  1  0
 31 10  1  0
 31 13  1  0
 27 15  1  0
 24 18  1  0
  1 33  1  0
  1 34  1  0
  1 35  1  0
  2 36  1  6
  3 37  1  0
  3 38  1  0
  4 39  1  0
  4 40  1  0
  5 41  1  6
  8 42  1  0
  8 43  1  0
  8 44  1  0
  9 45  1  0
  9 46  1  0
  9 47  1  0
 10 48  1  6
 11 49  1  0
 11 50  1  0
 12 51  1  0
 12 52  1  0
 14 53  1  0
 14 54  1  0
 14 55  1  0
 15 56  1  1
 16 57  1  0
 16 58  1  0
 17 59  1  0
 19 60  1  6
 20 61  1  0
 20 62  1  0
 21 63  1  0
 21 64  1  0
 22 65  1  6
 23 66  1  0
 25 67  1  0
 25 68  1  0
 25 69  1  0
 26 70  1  0
 26 71  1  0
 26 72  1  0
 28 73  1  0
 28 74  1  0
 28 75  1  0
 29 76  1  0
 29 77  1  0
 30 78  1  0
 30 79  1  0
 32 80  1  0
 32 81  1  0
 32 82  1  0
M  END
>  <meeko>  (1) 
{"is_sidechain": [false], "intermolecular_energy": 2.731, "internal_energy": -0.839}

$$$$
EPH_relaxed_0001_pdb2pqr_Repair_266_r2_0001_out
     RDKit          3D

 82 86  0  0  0  0  0  0  0  0999 V2000
   -4.9830    8.6410   -0.5370 C   0  0  0  0  0  0  0  0  0  0  0  0
   -5.3310    7.5120   -1.5110 C   0  0  2  0  0  0  0  0  0  0  0  0
   -4.3320    7.4260   -2.6820 C   0  0  0  0  0  0  0  0  0  0  0  0
   -2.8970    7.1160   -2.2450 C   0  0  0  0  0  0  0  0  0  0  0  0
   -1.9400    8.1800   -2.6910 C   0  0  2  0  0  0  0  0  0  0  0  0
   -0.5770    7.9600   -2.3030 O   0  0  0  0  0  0  0  0  0  0  0  0
   -1.2200    9.1130   -1.7350 C   0  0  0  0  0  0  0  0  0  0  0  0
   -1.4280    9.0260   -0.2560 C   0  0  0  0  0  0  0  0  0  0  0  0
   -0.6990   10.4130   -2.2620 C   0  0  0  0  0  0  0  0  0  0  0  0
   -6.7450    7.7050   -2.0460 C   0  0  1  0  0  0  0  0  0  0  0  0
   -6.9610    7.0200   -3.4220 C   0  0  0  0  0  0  0  0  0  0  0  0
   -8.4240    6.5050   -3.4410 C   0  0  0  0  0  0  0  0  0  0  0  0
   -9.0950    7.1920   -2.2280 C   0  0  1  0  0  0  0  0  0  0  0  0
   -9.4600    8.6240   -2.7310 C   0  0  0  0  0  0  0  0  0  0  0  0
  -10.3340    6.4610   -1.6180 C   0  0  2  0  0  0  0  0  0  0  0  0
  -11.5370    6.3130   -2.5670 C   0  0  0  0  0  0  0  0  0  0  0  0
  -12.5260    7.4300   -2.5220 C   0  0  0  0  0  0  0  0  0  0  0  0
  -12.6070    8.3650   -1.5570 C   0  0  0  0  0  0  0  0  0  0  0  0
  -11.7040    8.2980   -0.3190 C   0  0  1  0  0  0  0  0  0  0  0  0
  -12.5550    8.5370    0.9560 C   0  0  0  0  0  0  0  0  0  0  0  0
  -13.3590    9.8320    0.8890 C   0  0  0  0  0  0  0  0  0  0  0  0
  -14.2870    9.8360   -0.3230 C   0  0  2  0  0  0  0  0  0  0  0  0
  -15.2870    8.8300   -0.1410 O   0  0  0  0  0  0  0  0  0  0  0  0
  -13.5420    9.5940   -1.6660 C   0  0  0  0  0  0  0  0  0  0  0  0
  -12.6780   10.8320   -2.0120 C   0  0  0  0  0  0  0  0  0  0  0  0
  -14.6070    9.4810   -2.7900 C   0  0  0  0  0  0  0  0  0  0  0  0
  -10.7800    7.0100   -0.2030 C   0  0  1  0  0  0  0  0  0  0  0  0
  -11.5600    5.8560    0.4980 C   0  0  0  0  0  0  0  0  0  0  0  0
   -9.5510    7.3410    0.7240 C   0  0  0  0  0  0  0  0  0  0  0  0
   -8.3110    7.9520    0.0430 C   0  0  0  0  0  0  0  0  0  0  0  0
   -7.9110    7.1430   -1.1950 C   0  0  2  0  0  0  0  0  0  0  0  0
   -7.5170    5.7030   -0.7180 C   0  0  0  0  0  0  0  0  0  0  0  0
   -5.0940    8.2809    0.4964 H   0  0  0  0  0  0  0  0  0  0  0  0
   -3.9442    8.9620   -0.7039 H   0  0  0  0  0  0  0  0  0  0  0  0
   -5.6608    9.4911   -0.7039 H   0  0  0  0  0  0  0  0  0  0  0  0
   -5.2695    6.5649   -0.9550 H   0  0  0  0  0  0  0  0  0  0  0  0
   -4.6660    6.6319   -3.3660 H   0  0  0  0  0  0  0  0  0  0  0  0
   -4.3151    8.4148   -3.1637 H   0  0  0  0  0  0  0  0  0  0  0  0
   -2.8658    7.0455   -1.1477 H   0  0  0  0  0  0  0  0  0  0  0  0
   -2.5946    6.1659   -2.7096 H   0  0  0  0  0  0  0  0  0  0  0  0
   -2.5348    8.3679   -3.5971 H   0  0  0  0  0  0  0  0  0  0  0  0
   -0.5331    9.4003    0.2628 H   0  0  0  0  0  0  0  0  0  0  0  0
   -2.2985    9.6355    0.0283 H   0  0  0  0  0  0  0  0  0  0  0  0
   -1.6053    7.9783    0.0283 H   0  0  0  0  0  0  0  0  0  0  0  0
   -0.4355   11.0706   -1.4205 H   0  0  0  0  0  0  0  0  0  0  0  0
    0.1944   10.2279   -2.8765 H   0  0  0  0  0  0  0  0  0  0  0  0
   -1.4730   10.8961   -2.8765 H   0  0  0  0  0  0  0  0  0  0  0  0
   -6.7874    8.8041   -2.0624 H   0  0  0  0  0  0  0  0  0  0  0  0
   -6.8039    7.7446   -4.2346 H   0  0  0  0  0  0  0  0  0  0  0  0
   -6.2496    6.1938   -3.5678 H   0  0  0  0  0  0  0  0  0  0  0  0
   -8.9251    6.7933   -4.3768 H   0  0  0  0  0  0  0  0  0  0  0  0
   -8.4810    5.4080   -3.3834 H   0  0  0  0  0  0  0  0  0  0  0  0
   -9.6283    9.2842   -1.8674 H   0  0  0  0  0  0  0  0  0  0  0  0
   -8.6341    9.0203   -3.3400 H   0  0  0  0  0  0  0  0  0  0  0  0
  -10.3748    8.5766   -3.3400 H   0  0  0  0  0  0  0  0  0  0  0  0
   -9.9506    5.4423   -1.4587 H   0  0  0  0  0  0  0  0  0  0  0  0
  -11.1521    6.2411   -3.5950 H   0  0  0  0  0  0  0  0  0  0  0  0
  -12.0777    5.4144   -2.2350 H   0  0  0  0  0  0  0  0  0  0  0  0
  -13.2502    7.4946   -3.3475 H   0  0  0  0  0  0  0  0  0  0  0  0
  -10.9689    9.1081   -0.4349 H   0  0  0  0  0  0  0  0  0  0  0  0
  -13.2523    7.6950    1.0774 H   0  0  0  0  0  0  0  0  0  0  0  0
  -11.8641    8.6168    1.8082 H   0  0  0  0  0  0  0  0  0  0  0  0
  -13.9616    9.9293    1.8041 H   0  0  0  0  0  0  0  0  0  0  0  0
  -12.6589   10.6755    0.7979 H   0  0  0  0  0  0  0  0  0  0  0  0
  -14.7376   10.8372   -0.3897 H   0  0  0  0  0  0  0  0  0  0  0  0
  -14.8390    8.0180    0.1510 H   0  0  0  0  0  0  0  0  0  0  0  0
  -12.3409   11.3151   -1.0830 H   0  0  0  0  0  0  0  0  0  0  0  0
  -11.8032   10.5161   -2.5994 H   0  0  0  0  0  0  0  0  0  0  0  0
  -13.2763   11.5441   -2.5994 H   0  0  0  0  0  0  0  0  0  0  0  0
  -15.6052    9.3751   -2.3400 H   0  0  0  0  0  0  0  0  0  0  0  0
  -14.5800   10.3871   -3.4132 H   0  0  0  0  0  0  0  0  0  0  0  0
  -14.3904    8.6008   -3.4132 H   0  0  0  0  0  0  0  0  0  0  0  0
  -11.4823    5.9709    1.5892 H   0  0  0  0  0  0  0  0  0  0  0  0
  -12.6181    5.8945    0.1996 H   0  0  0  0  0  0  0  0  0  0  0  0
  -11.1298    4.8886    0.1996 H   0  0  0  0  0  0  0  0  0  0  0  0
   -9.8941    8.0520    1.4900 H   0  0  0  0  0  0  0  0  0  0  0  0
   -9.2151    6.3689    1.1142 H   0  0  0  0  0  0  0  0  0  0  0  0
   -8.5390    8.9846   -0.2601 H   0  0  0  0  0  0  0  0  0  0  0  0
   -7.4749    7.9363    0.7576 H   0  0  0  0  0  0  0  0  0  0  0  0
   -7.5081    5.6706    0.3815 H   0  0  0  0  0  0  0  0  0  0  0  0
   -8.2495    4.9769   -1.1004 H   0  0  0  0  0  0  0  0  0  0  0  0
   -6.5169    5.4509   -1.1004 H   0  0  0  0  0  0  0  0  0  0  0  0
  1  2  1  0
  2  3  1  0
  3  4  1  0
  4  5  1  0
  5  6  1  0
  6  7  1  0
  7  8  1  0
  7  9  1  0
  2 10  1  0
 10 11  1  0
 11 12  1  0
 12 13  1  0
 13 14  1  6
 13 15  1  0
 15 16  1  0
 16 17  1  0
 17 18  2  0
 18 19  1  0
 19 20  1  0
 20 21  1  0
 21 22  1  0
 22 23  1  0
 22 24  1  0
 24 25  1  0
 24 26  1  0
 19 27  1  0
 27 28  1  1
 27 29  1  0
 29 30  1  0
 30 31  1  0
 31 32  1  1
  7  5  1  0
 31 10  1  0
 31 13  1  0
 27 15  1  0
 24 18  1  0
  1 33  1  0
  1 34  1  0
  1 35  1  0
  2 36  1  1
  3 37  1  0
  3 38  1  0
  4 39  1  0
  4 40  1  0
  5 41  1  6
  8 42  1  0
  8 43  1  0
  8 44  1  0
  9 45  1  0
  9 46  1  0
  9 47  1  0
 10 48  1  6
 11 49  1  0
 11 50  1  0
 12 51  1  0
 12 52  1  0
 14 53  1  0
 14 54  1  0
 14 55  1  0
 15 56  1  1
 16 57  1  0
 16 58  1  0
 17 59  1  0
 19 60  1  6
 20 61  1  0
 20 62  1  0
 21 63  1  0
 21 64  1  0
 22 65  1  6
 23 66  1  0
 25 67  1  0
 25 68  1  0
 25 69  1  0
 26 70  1  0
 26 71  1  0
 26 72  1  0
 28 73  1  0
 28 74  1  0
 28 75  1  0
 29 76  1  0
 29 77  1  0
 30 78  1  0
 30 79  1  0
 32 80  1  0
 32 81  1  0
 32 82  1  0
M  END
>  <meeko>  (2) 
{"is_sidechain": [false], "intermolecular_energy": 2.731, "internal_energy": -0.839}

$$$$
EPH_relaxed_0001_pdb2pqr_Repair_266_r2_0001_out
     RDKit          3D

 82 86  0  0  0  0  0  0  0  0999 V2000
    2.6640   16.7050   -1.7500 C   0  0  0  0  0  0  0  0  0  0  0  0
    1.8100   16.7860   -3.0190 C   0  0  2  0  0  0  0  0  0  0  0  0
    0.8270   17.9730   -2.9820 C   0  0  0  0  0  0  0  0  0  0  0  0
    1.3980   19.2250   -2.3100 C   0  0  0  0  0  0  0  0  0  0  0  0
    0.9880   19.3170   -0.8710 C   0  0  2  0  0  0  0  0  0  0  0  0
    0.0740   18.2990   -0.4430 O   0  0  0  0  0  0  0  0  0  0  0  0
   -0.4240   19.6470   -0.4230 C   0  0  0  0  0  0  0  0  0  0  0  0
   -1.5160   19.9060   -1.4130 C   0  0  0  0  0  0  0  0  0  0  0  0
   -0.6280   20.1940    0.9550 C   0  0  0  0  0  0  0  0  0  0  0  0
    1.0460   15.4820   -3.2150 C   0  0  1  0  0  0  0  0  0  0  0  0
    0.5800   15.2780   -4.6820 C   0  0  0  0  0  0  0  0  0  0  0  0
    0.6610   13.7570   -4.9690 C   0  0  0  0  0  0  0  0  0  0  0  0
    0.8470   13.1070   -3.5780 C   0  0  1  0  0  0  0  0  0  0  0  0
   -0.5890   13.0430   -2.9700 C   0  0  0  0  0  0  0  0  0  0  0  0
    1.5450   11.7080   -3.5570 C   0  0  2  0  0  0  0  0  0  0  0  0
    0.7910   10.5900   -4.2980 C   0  0  0  0  0  0  0  0  0  0  0  0
   -0.1720    9.8100   -3.4660 C   0  0  0  0  0  0  0  0  0  0  0  0
   -0.2170    9.8040   -2.1200 C   0  0  0  0  0  0  0  0  0  0  0  0
    0.8290   10.5640   -1.2940 C   0  0  1  0  0  0  0  0  0  0  0  0
    1.3450    9.6540   -0.1490 C   0  0  0  0  0  0  0  0  0  0  0  0
    0.2150    9.0970    0.7100 C   0  0  0  0  0  0  0  0  0  0  0  0
   -0.7730    8.2990   -0.1370 C   0  0  2  0  0  0  0  0  0  0  0  0
   -0.1160    7.1260   -0.6280 O   0  0  0  0  0  0  0  0  0  0  0  0
   -1.3530    9.1110   -1.3290 C   0  0  0  0  0  0  0  0  0  0  0  0
   -2.3110   10.2040   -0.7960 C   0  0  0  0  0  0  0  0  0  0  0  0
   -2.2230    8.1500   -2.1830 C   0  0  0  0  0  0  0  0  0  0  0  0
    2.0090   11.2370   -2.1190 C   0  0  1  0  0  0  0  0  0  0  0  0
    3.1590   10.2070   -2.3380 C   0  0  0  0  0  0  0  0  0  0  0  0
    2.6230   12.4140   -1.2730 C   0  0  0  0  0  0  0  0  0  0  0  0
    1.9630   13.7980   -1.4280 C   0  0  0  0  0  0  0  0  0  0  0  0
    1.7970   14.1630   -2.9060 C   0  0  2  0  0  0  0  0  0  0  0  0
    3.2270   14.2570   -3.5390 C   0  0  0  0  0  0  0  0  0  0  0  0
    2.0131   16.7667   -0.8654 H   0  0  0  0  0  0  0  0  0  0  0  0
    3.2113   15.7509   -1.7366 H   0  0  0  0  0  0  0  0  0  0  0  0
    3.3809   17.5392   -1.7366 H   0  0  0  0  0  0  0  0  0  0  0  0
    2.4913   16.9484   -3.8672 H   0  0  0  0  0  0  0  0  0  0  0  0
    0.5523   18.2286   -4.0160 H   0  0  0  0  0  0  0  0  0  0  0  0
   -0.0394   17.6541   -2.3839 H   0  0  0  0  0  0  0  0  0  0  0  0
    2.4960   19.1907   -2.3665 H   0  0  0  0  0  0  0  0  0  0  0  0
    1.0039   20.1069   -2.8362 H   0  0  0  0  0  0  0  0  0  0  0  0
    1.9667   19.7359   -0.5942 H   0  0  0  0  0  0  0  0  0  0  0  0
   -2.4511   20.1278   -0.8778 H   0  0  0  0  0  0  0  0  0  0  0  0
   -1.2425   20.7642   -2.0444 H   0  0  0  0  0  0  0  0  0  0  0  0
   -1.6571   19.0164   -2.0444 H   0  0  0  0  0  0  0  0  0  0  0  0
   -0.3443   19.4333    1.6972 H   0  0  0  0  0  0  0  0  0  0  0  0
   -0.0033   21.0892    1.0903 H   0  0  0  0  0  0  0  0  0  0  0  0
   -1.6864   20.4615    1.0903 H   0  0  0  0  0  0  0  0  0  0  0  0
    0.2356   15.6323   -2.4865 H   0  0  0  0  0  0  0  0  0  0  0  0
   -0.4544   15.6320   -4.8037 H   0  0  0  0  0  0  0  0  0  0  0  0
    1.2124   15.8461   -5.3801 H   0  0  0  0  0  0  0  0  0  0  0  0
   -0.2657   13.4014   -5.4431 H   0  0  0  0  0  0  0  0  0  0  0  0
    1.4794   13.5058   -5.6597 H   0  0  0  0  0  0  0  0  0  0  0  0
   -0.5227   13.0460   -1.8720 H   0  0  0  0  0  0  0  0  0  0  0  0
   -1.1682   13.9162   -3.3047 H   0  0  0  0  0  0  0  0  0  0  0  0
   -1.0882   12.1217   -3.3047 H   0  0  0  0  0  0  0  0  0  0  0  0
    2.4573   11.8916   -4.1435 H   0  0  0  0  0  0  0  0  0  0  0  0
    0.2307   11.0489   -5.1259 H   0  0  0  0  0  0  0  0  0  0  0  0
    1.5575    9.8734   -4.6283 H   0  0  0  0  0  0  0  0  0  0  0  0
   -0.9071    9.1875   -3.9971 H   0  0  0  0  0  0  0  0  0  0  0  0
    0.3082   11.4359   -0.8715 H   0  0  0  0  0  0  0  0  0  0  0  0
    1.9000    8.8129   -0.5900 H   0  0  0  0  0  0  0  0  0  0  0  0
    1.9872   10.2668    0.5007 H   0  0  0  0  0  0  0  0  0  0  0  0
    0.6406    8.4390    1.4819 H   0  0  0  0  0  0  0  0  0  0  0  0
   -0.3205    9.9385    1.1738 H   0  0  0  0  0  0  0  0  0  0  0  0
   -1.6248    8.0369    0.5078 H   0  0  0  0  0  0  0  0  0  0  0  0
   -0.5900    6.3540   -0.2760 H   0  0  0  0  0  0  0  0  0  0  0  0
   -2.3025   10.1944    0.3039 H   0  0  0  0  0  0  0  0  0  0  0  0
   -1.9802   11.1891   -1.1566 H   0  0  0  0  0  0  0  0  0  0  0  0
   -3.3310   10.0051   -1.1566 H   0  0  0  0  0  0  0  0  0  0  0  0
   -2.8114    7.5000   -1.5187 H   0  0  0  0  0  0  0  0  0  0  0  0
   -2.9029    8.7373   -2.8177 H   0  0  0  0  0  0  0  0  0  0  0  0
   -1.5712    7.5317   -2.8177 H   0  0  0  0  0  0  0  0  0  0  0  0
    3.5379    9.8676   -1.3627 H   0  0  0  0  0  0  0  0  0  0  0  0
    2.7760    9.3444   -2.9029 H   0  0  0  0  0  0  0  0  0  0  0  0
    3.9744   10.6824   -2.9029 H   0  0  0  0  0  0  0  0  0  0  0  0
    2.5575   12.1309   -0.2121 H   0  0  0  0  0  0  0  0  0  0  0  0
    3.6473   12.5389   -1.6540 H   0  0  0  0  0  0  0  0  0  0  0  0
    0.9733   13.7806   -0.9482 H   0  0  0  0  0  0  0  0  0  0  0  0
    2.6086   14.5501   -0.9511 H   0  0  0  0  0  0  0  0  0  0  0  0
    3.9798   14.3065   -2.7385 H   0  0  0  0  0  0  0  0  0  0  0  0
    3.4115   13.3690   -4.1615 H   0  0  0  0  0  0  0  0  0  0  0  0
    3.2937   15.1615   -4.1615 H   0  0  0  0  0  0  0  0  0  0  0  0
  1  2  1  0
  2  3  1  0
  3  4  1  0
  4  5  1  0
  5  6  1  0
  6  7  1  0
  7  8  1  0
  7  9  1  0
  2 10  1  0
 10 11  1  0
 11 12  1  0
 12 13  1  0
 13 14  1  1
 13 15  1  0
 15 16  1  0
 16 17  1  0
 17 18  2  0
 18 19  1  0
 19 20  1  0
 20 21  1  0
 21 22  1  0
 22 23  1  0
 22 24  1  0
 24 25  1  0
 24 26  1  0
 19 27  1  0
 27 28  1  6
 27 29  1  0
 29 30  1  0
 30 31  1  0
 31 32  1  6
  7  5  1  0
 31 10  1  0
 31 13  1  0
 27 15  1  0
 24 18  1  0
  1 33  1  0
  1 34  1  0
  1 35  1  0
  2 36  1  6
  3 37  1  0
  3 38  1  0
  4 39  1  0
  4 40  1  0
  5 41  1  1
  8 42  1  0
  8 43  1  0
  8 44  1  0
  9 45  1  0
  9 46  1  0
  9 47  1  0
 10 48  1  1
 11 49  1  0
 11 50  1  0
 12 51  1  0
 12 52  1  0
 14 53  1  0
 14 54  1  0
 14 55  1  0
 15 56  1  6
 16 57  1  0
 16 58  1  0
 17 59  1  0
 19 60  1  1
 20 61  1  0
 20 62  1  0
 21 63  1  0
 21 64  1  0
 22 65  1  1
 23 66  1  0
 25 67  1  0
 25 68  1  0
 25 69  1  0
 26 70  1  0
 26 71  1  0
 26 72  1  0
 28 73  1  0
 28 74  1  0
 28 75  1  0
 29 76  1  0
 29 77  1  0
 30 78  1  0
 30 79  1  0
 32 80  1  0
 32 81  1  0
 32 82  1  0
M  END
>  <meeko>  (3) 
{"is_sidechain": [false], "intermolecular_energy": 2.731, "internal_energy": -0.839}

$$$$
EPH_relaxed_0001_pdb2pqr_Repair_266_r2_0001_out
     RDKit          3D

 82 86  0  0  0  0  0  0  0  0999 V2000
   -4.1140    7.1700   -3.0000 C   0  0  0  0  0  0  0  0  0  0  0  0
   -4.0860    7.5380   -1.5130 C   0  0  2  0  0  0  0  0  0  0  0  0
   -5.5030    7.7410   -0.9390 C   0  0  0  0  0  0  0  0  0  0  0  0
   -6.4770    6.6130   -1.2900 C   0  0  0  0  0  0  0  0  0  0  0  0
   -7.9010    7.0210   -1.0630 C   0  0  2  0  0  0  0  0  0  0  0  0
   -8.8270    5.9310   -0.9580 O   0  0  0  0  0  0  0  0  0  0  0  0
   -9.0050    6.8080   -2.0820 C   0  0  0  0  0  0  0  0  0  0  0  0
   -8.7310    6.1650   -3.4060 C   0  0  0  0  0  0  0  0  0  0  0  0
  -10.2340    7.6580   -1.9950 C   0  0  0  0  0  0  0  0  0  0  0  0
   -3.2540    8.7970   -1.3060 C   0  0  1  0  0  0  0  0  0  0  0  0
   -3.6710    9.5860   -0.0360 C   0  0  0  0  0  0  0  0  0  0  0  0
   -2.3760   10.2040    0.5520 C   0  0  0  0  0  0  0  0  0  0  0  0
   -1.3200   10.0330   -0.5650 C   0  0  1  0  0  0  0  0  0  0  0  0
   -1.5850   11.2140   -1.5510 C   0  0  0  0  0  0  0  0  0  0  0  0
    0.1730    9.9910   -0.1030 C   0  0  2  0  0  0  0  0  0  0  0  0
    0.6810   11.2720    0.5800 C   0  0  0  0  0  0  0  0  0  0  0  0
    1.2850   12.2860   -0.3340 C   0  0  0  0  0  0  0  0  0  0  0  0
    1.6740   12.0620   -1.6030 C   0  0  0  0  0  0  0  0  0  0  0  0
    1.6110   10.6540   -2.2090 C   0  0  1  0  0  0  0  0  0  0  0  0
    2.9400   10.3470   -2.9470 C   0  0  0  0  0  0  0  0  0  0  0  0
    3.2950   11.4110   -3.9800 C   0  0  0  0  0  0  0  0  0  0  0  0
    3.4070   12.7880   -3.3290 C   0  0  2  0  0  0  0  0  0  0  0  0
    4.5320   12.7900   -2.4460 O   0  0  0  0  0  0  0  0  0  0  0  0
    2.1280   13.2010   -2.5480 C   0  0  0  0  0  0  0  0  0  0  0  0
    0.9800   13.4920   -3.5460 C   0  0  0  0  0  0  0  0  0  0  0  0
    2.4240   14.5420   -1.8240 C   0  0  0  0  0  0  0  0  0  0  0  0
    1.1810    9.4900   -1.2160 C   0  0  1  0  0  0  0  0  0  0  0  0
    2.4330    8.9410   -0.4660 C   0  0  0  0  0  0  0  0  0  0  0  0
    0.6010    8.2880   -2.0510 C   0  0  0  0  0  0  0  0  0  0  0  0
   -0.9050    8.3290   -2.3730 C   0  0  0  0  0  0  0  0  0  0  0  0
   -1.7270    8.6170   -1.1130 C   0  0  2  0  0  0  0  0  0  0  0  0
   -1.4980    7.4350   -0.1110 C   0  0  0  0  0  0  0  0  0  0  0  0
   -4.1971    6.0783   -3.1060 H   0  0  0  0  0  0  0  0  0  0  0  0
   -4.9781    7.6519   -3.4808 H   0  0  0  0  0  0  0  0  0  0  0  0
   -3.1870    7.5156   -3.4808 H   0  0  0  0  0  0  0  0  0  0  0  0
   -3.6283    6.6971   -0.9714 H   0  0  0  0  0  0  0  0  0  0  0  0
   -5.4278    7.8065    0.1565 H   0  0  0  0  0  0  0  0  0  0  0  0
   -5.9027    8.6621   -1.3882 H   0  0  0  0  0  0  0  0  0  0  0  0
   -6.3469    6.3462   -2.3492 H   0  0  0  0  0  0  0  0  0  0  0  0
   -6.2577    5.7547   -0.6380 H   0  0  0  0  0  0  0  0  0  0  0  0
   -7.5811    7.9077   -0.4961 H   0  0  0  0  0  0  0  0  0  0  0  0
   -8.3044    5.1638   -3.2461 H   0  0  0  0  0  0  0  0  0  0  0  0
   -9.6699    6.0773   -3.9723 H   0  0  0  0  0  0  0  0  0  0  0  0
   -8.0174    6.7815   -3.9723 H   0  0  0  0  0  0  0  0  0  0  0  0
  -10.4855    7.8319   -0.9384 H   0  0  0  0  0  0  0  0  0  0  0  0
  -10.0490    8.6220   -2.4914 H   0  0  0  0  0  0  0  0  0  0  0  0
  -11.0707    7.1447   -2.4914 H   0  0  0  0  0  0  0  0  0  0  0  0
   -3.4552    9.3096   -2.2582 H   0  0  0  0  0  0  0  0  0  0  0  0
   -4.3837   10.3809   -0.3009 H   0  0  0  0  0  0  0  0  0  0  0  0
   -4.1614    8.9267    0.6953 H   0  0  0  0  0  0  0  0  0  0  0  0
   -2.5251   11.2685    0.7857 H   0  0  0  0  0  0  0  0  0  0  0  0
   -2.0717    9.7193    1.4914 H   0  0  0  0  0  0  0  0  0  0  0  0
   -1.7906   12.1305   -0.9785 H   0  0  0  0  0  0  0  0  0  0  0  0
   -0.6992   11.3685   -2.1846 H   0  0  0  0  0  0  0  0  0  0  0  0
   -2.4519   10.9752   -2.1846 H   0  0  0  0  0  0  0  0  0  0  0  0
    0.1559    9.2213    0.6827 H   0  0  0  0  0  0  0  0  0  0  0  0
   -0.1694   11.7426    1.0951 H   0  0  0  0  0  0  0  0  0  0  0  0
    1.4871   10.9557    1.2584 H   0  0  0  0  0  0  0  0  0  0  0  0
    1.4240   13.3023    0.0632 H   0  0  0  0  0  0  0  0  0  0  0  0
    0.7799   10.6707   -2.9295 H   0  0  0  0  0  0  0  0  0  0  0  0
    3.7504   10.2915   -2.2053 H   0  0  0  0  0  0  0  0  0  0  0  0
    2.8130    9.3934   -3.4803 H   0  0  0  0  0  0  0  0  0  0  0  0
    4.2578   11.1536   -4.4457 H   0  0  0  0  0  0  0  0  0  0  0  0
    2.4981   11.4446   -4.7375 H   0  0  0  0  0  0  0  0  0  0  0  0
    3.5343   13.5255   -4.1351 H   0  0  0  0  0  0  0  0  0  0  0  0
    4.8400   13.7080   -2.3640 H   0  0  0  0  0  0  0  0  0  0  0  0
    0.0604   13.7251   -2.9892 H   0  0  0  0  0  0  0  0  0  0  0  0
    1.2528   14.3494   -4.1788 H   0  0  0  0  0  0  0  0  0  0  0  0
    0.8114   12.6082   -4.1788 H   0  0  0  0  0  0  0  0  0  0  0  0
    2.3897   14.3864   -0.7356 H   0  0  0  0  0  0  0  0  0  0  0  0
    3.4231   14.9013   -2.1117 H   0  0  0  0  0  0  0  0  0  0  0  0
    1.6690   15.2885   -2.1117 H   0  0  0  0  0  0  0  0  0  0  0  0
    2.2706    9.0122    0.6196 H   0  0  0  0  0  0  0  0  0  0  0  0
    2.5951    7.8892   -0.7443 H   0  0  0  0  0  0  0  0  0  0  0  0
    3.3165    9.5343   -0.7443 H   0  0  0  0  0  0  0  0  0  0  0  0
    1.1448    8.2534   -3.0065 H   0  0  0  0  0  0  0  0  0  0  0  0
    0.7349    7.4025   -1.4123 H   0  0  0  0  0  0  0  0  0  0  0  0
   -1.0932    9.1198   -3.1141 H   0  0  0  0  0  0  0  0  0  0  0  0
   -1.2054    7.3487   -2.7715 H   0  0  0  0  0  0  0  0  0  0  0  0
   -1.5706    7.8096    0.9207 H   0  0  0  0  0  0  0  0  0  0  0  0
   -2.2631    6.6618   -0.2750 H   0  0  0  0  0  0  0  0  0  0  0  0
   -0.4996    7.0035   -0.2750 H   0  0  0  0  0  0  0  0  0  0  0  0
  1  2  1  0
  2  3  1  0
  3  4  1  0
  4  5  1  0
  5  6  1  0
  6  7  1  0
  7  8  1  0
  7  9  1  0
  2 10  1  0
 10 11  1  0
 11 12  1  0
 12 13  1  0
 13 14  1  6
 13 15  1  0
 15 16  1  0
 16 17  1  0
 17 18  2  0
 18 19  1  0
 19 20  1  0
 20 21  1  0
 21 22  1  0
 22 23  1  0
 22 24  1  0
 24 25  1  0
 24 26  1  0
 19 27  1  0
 27 28  1  1
 27 29  1  0
 29 30  1  0
 30 31  1  0
 31 32  1  1
  7  5  1  0
 31 10  1  0
 31 13  1  0
 27 15  1  0
 24 18  1  0
  1 33  1  0
  1 34  1  0
  1 35  1  0
  2 36  1  1
  3 37  1  0
  3 38  1  0
  4 39  1  0
  4 40  1  0
  5 41  1  1
  8 42  1  0
  8 43  1  0
  8 44  1  0
  9 45  1  0
  9 46  1  0
  9 47  1  0
 10 48  1  6
 11 49  1  0
 11 50  1  0
 12 51  1  0
 12 52  1  0
 14 53  1  0
 14 54  1  0
 14 55  1  0
 15 56  1  1
 16 57  1  0
 16 58  1  0
 17 59  1  0
 19 60  1  6
 20 61  1  0
 20 62  1  0
 21 63  1  0
 21 64  1  0
 22 65  1  6
 23 66  1  0
 25 67  1  0
 25 68  1  0
 25 69  1  0
 26 70  1  0
 26 71  1  0
 26 72  1  0
 28 73  1  0
 28 74  1  0
 28 75  1  0
 29 76  1  0
 29 77  1  0
 30 78  1  0
 30 79  1  0
 32 80  1  0
 32 81  1  0
 32 82  1  0
M  END
>  <meeko>  (4) 
{"is_sidechain": [false], "intermolecular_energy": 2.731, "internal_energy": -0.839}

$$$$
EPH_relaxed_0001_pdb2pqr_Repair_266_r2_0001_out
     RDKit          3D

 82 86  0  0  0  0  0  0  0  0999 V2000
   -1.2140    8.2120   -1.7820 C   0  0  0  0  0  0  0  0  0  0  0  0
   -1.4600    8.9950   -0.4890 C   0  0  2  0  0  0  0  0  0  0  0  0
   -2.8800    9.5930   -0.4340 C   0  0  0  0  0  0  0  0  0  0  0  0
   -3.9820    8.5460   -0.2530 C   0  0  0  0  0  0  0  0  0  0  0  0
   -4.7190    8.2910   -1.5330 C   0  0  2  0  0  0  0  0  0  0  0  0
   -6.1380    8.4810   -1.4550 O   0  0  0  0  0  0  0  0  0  0  0  0
   -5.6920    7.1420   -1.7230 C   0  0  0  0  0  0  0  0  0  0  0  0
   -5.9800    6.1720   -0.6200 C   0  0  0  0  0  0  0  0  0  0  0  0
   -5.9860    6.6760   -3.1150 C   0  0  0  0  0  0  0  0  0  0  0  0
   -0.4220   10.1030   -0.3480 C   0  0  1  0  0  0  0  0  0  0  0  0
    0.8820    9.6150    0.3370 C   0  0  0  0  0  0  0  0  0  0  0  0
    2.0510   10.3910   -0.3230 C   0  0  0  0  0  0  0  0  0  0  0  0
    1.3650   11.5250   -1.1200 C   0  0  1  0  0  0  0  0  0  0  0  0
    1.0620   12.6320   -0.0620 C   0  0  0  0  0  0  0  0  0  0  0  0
    2.1640   12.0940   -2.3380 C   0  0  2  0  0  0  0  0  0  0  0  0
    3.5050   12.7600   -1.9860 C   0  0  0  0  0  0  0  0  0  0  0  0
    3.4360   14.2250   -1.7060 C   0  0  0  0  0  0  0  0  0  0  0  0
    2.4020   15.0310   -2.0110 C   0  0  0  0  0  0  0  0  0  0  0  0
    1.1930   14.5010   -2.7920 C   0  0  1  0  0  0  0  0  0  0  0  0
    0.8310   15.4960   -3.9260 C   0  0  0  0  0  0  0  0  0  0  0  0
    0.6160   16.9160   -3.4110 C   0  0  0  0  0  0  0  0  0  0  0  0
    1.8600   17.4300   -2.6910 C   0  0  2  0  0  0  0  0  0  0  0  0
    2.9170   17.5760   -3.6440 O   0  0  0  0  0  0  0  0  0  0  0  0
    2.3250   16.5020   -1.5330 C   0  0  0  0  0  0  0  0  0  0  0  0
    1.3120   16.5810   -0.3640 C   0  0  0  0  0  0  0  0  0  0  0  0
    3.6660   17.0600   -0.9850 C   0  0  0  0  0  0  0  0  0  0  0  0
    1.3050   13.0020   -3.3090 C   0  0  1  0  0  0  0  0  0  0  0  0
    2.0170   12.9690   -4.6960 C   0  0  0  0  0  0  0  0  0  0  0  0
   -0.1430   12.4280   -3.5400 C   0  0  0  0  0  0  0  0  0  0  0  0
   -0.8320   11.7720   -2.3280 C   0  0  0  0  0  0  0  0  0  0  0  0
    0.0980   10.7610   -1.6500 C   0  0  2  0  0  0  0  0  0  0  0  0
    0.4020    9.6230   -2.6830 C   0  0  0  0  0  0  0  0  0  0  0  0
   -0.8927    7.1892   -1.5358 H   0  0  0  0  0  0  0  0  0  0  0  0
   -2.1432    8.1730   -2.3695 H   0  0  0  0  0  0  0  0  0  0  0  0
   -0.4295    8.7114   -2.3695 H   0  0  0  0  0  0  0  0  0  0  0  0
   -1.3668    8.2889    0.3493 H   0  0  0  0  0  0  0  0  0  0  0  0
   -2.9279   10.2970    0.4098 H   0  0  0  0  0  0  0  0  0  0  0  0
   -3.0595   10.0847   -1.4015 H   0  0  0  0  0  0  0  0  0  0  0  0
   -3.5271    7.6051    0.0901 H   0  0  0  0  0  0  0  0  0  0  0  0
   -4.7008    8.9286    0.4866 H   0  0  0  0  0  0  0  0  0  0  0  0
   -3.8579    8.6346   -2.1250 H   0  0  0  0  0  0  0  0  0  0  0  0
   -5.8330    6.6670    0.3513 H   0  0  0  0  0  0  0  0  0  0  0  0
   -7.0203    5.8237   -0.7003 H   0  0  0  0  0  0  0  0  0  0  0  0
   -5.2983    5.3124   -0.7003 H   0  0  0  0  0  0  0  0  0  0  0  0
   -6.5725    5.7463   -3.0742 H   0  0  0  0  0  0  0  0  0  0  0  0
   -6.5603    7.4489   -3.6468 H   0  0  0  0  0  0  0  0  0  0  0  0
   -5.0411    6.4904   -3.6468 H   0  0  0  0  0  0  0  0  0  0  0  0
   -1.0072   10.8311    0.2329 H   0  0  0  0  0  0  0  0  0  0  0  0
    0.8464    9.8289    1.4154 H   0  0  0  0  0  0  0  0  0  0  0  0
    1.0099    8.5293    0.2151 H   0  0  0  0  0  0  0  0  0  0  0  0
    2.7230   10.8059    0.4426 H   0  0  0  0  0  0  0  0  0  0  0  0
    2.6708    9.7464   -0.9637 H   0  0  0  0  0  0  0  0  0  0  0  0
    1.1764   12.2140    0.9491 H   0  0  0  0  0  0  0  0  0  0  0  0
    1.7643   13.4681   -0.1947 H   0  0  0  0  0  0  0  0  0  0  0  0
    0.0318   12.9939   -0.1947 H   0  0  0  0  0  0  0  0  0  0  0  0
    2.4218   11.1824   -2.8970 H   0  0  0  0  0  0  0  0  0  0  0  0
    3.9075   12.2617   -1.0917 H   0  0  0  0  0  0  0  0  0  0  0  0
    4.1419   12.6502   -2.8761 H   0  0  0  0  0  0  0  0  0  0  0  0
    4.3031   14.6842   -1.2087 H   0  0  0  0  0  0  0  0  0  0  0  0
    0.3662   14.4430   -2.0688 H   0  0  0  0  0  0  0  0  0  0  0  0
    1.6501   15.5073   -4.6602 H   0  0  0  0  0  0  0  0  0  0  0  0
   -0.1130   15.1581   -4.3783 H   0  0  0  0  0  0  0  0  0  0  0  0
    0.3933   17.5773   -4.2613 H   0  0  0  0  0  0  0  0  0  0  0  0
   -0.2229   16.9079   -2.6996 H   0  0  0  0  0  0  0  0  0  0  0  0
    1.6009   18.3964   -2.2340 H   0  0  0  0  0  0  0  0  0  0  0  0
    3.7110   17.8610   -3.1620 H   0  0  0  0  0  0  0  0  0  0  0  0
    1.8526   16.5388    0.5931 H   0  0  0  0  0  0  0  0  0  0  0  0
    0.7518   17.5256   -0.4274 H   0  0  0  0  0  0  0  0  0  0  0  0
    0.6122   15.7347   -0.4274 H   0  0  0  0  0  0  0  0  0  0  0  0
    3.6447   17.0511    0.1148 H   0  0  0  0  0  0  0  0  0  0  0  0
    4.4968   16.4329   -1.3407 H   0  0  0  0  0  0  0  0  0  0  0  0
    3.8067   18.0913   -1.3407 H   0  0  0  0  0  0  0  0  0  0  0  0
    3.1058   12.9185   -4.5481 H   0  0  0  0  0  0  0  0  0  0  0  0
    1.6821   12.0854   -5.2591 H   0  0  0  0  0  0  0  0  0  0  0  0
    1.7653   13.8798   -5.2591 H   0  0  0  0  0  0  0  0  0  0  0  0
   -0.7807   13.2590   -3.8757 H   0  0  0  0  0  0  0  0  0  0  0  0
   -0.0177   11.6176   -4.2732 H   0  0  0  0  0  0  0  0  0  0  0  0
   -1.1047   12.5529   -1.6028 H   0  0  0  0  0  0  0  0  0  0  0  0
   -1.7299   11.2423   -2.6790 H   0  0  0  0  0  0  0  0  0  0  0  0
    0.6496    8.6960   -2.1450 H   0  0  0  0  0  0  0  0  0  0  0  0
   -0.4828    9.4552   -3.3146 H   0  0  0  0  0  0  0  0  0  0  0  0
    1.2526    9.9188   -3.3146 H   0  0  0  0  0  0  0  0  0  0  0  0
  1  2  1  0
  2  3  1  0
  3  4  1  0
  4  5  1  0
  5  6  1  0
  6  7  1  0
  7  8  1  0
  7  9  1  0
  2 10  1  0
 10 11  1  0
 11 12  1  0
 12 13  1  0
 13 14  1  1
 13 15  1  0
 15 16  1  0
 16 17  1  0
 17 18  2  0
 18 19  1  0
 19 20  1  0
 20 21  1  0
 21 22  1  0
 22 23  1  0
 22 24  1  0
 24 25  1  0
 24 26  1  0
 19 27  1  0
 27 28  1  6
 27 29  1  0
 29 30  1  0
 30 31  1  0
 31 32  1  6
  7  5  1  0
 31 10  1  0
 31 13  1  0
 27 15  1  0
 24 18  1  0
  1 33  1  0
  1 34  1  0
  1 35  1  0
  2 36  1  1
  3 37  1  0
  3 38  1  0
  4 39  1  0
  4 40  1  0
  5 41  1  6
  8 42  1  0
  8 43  1  0
  8 44  1  0
  9 45  1  0
  9 46  1  0
  9 47  1  0
 10 48  1  1
 11 49  1  0
 11 50  1  0
 12 51  1  0
 12 52  1  0
 14 53  1  0
 14 54  1  0
 14 55  1  0
 15 56  1  6
 16 57  1  0
 16 58  1  0
 17 59  1  0
 19 60  1  1
 20 61  1  0
 20 62  1  0
 21 63  1  0
 21 64  1  0
 22 65  1  1
 23 66  1  0
 25 67  1  0
 25 68  1  0
 25 69  1  0
 26 70  1  0
 26 71  1  0
 26 72  1  0
 28 73  1  0
 28 74  1  0
 28 75  1  0
 29 76  1  0
 29 77  1  0
 30 78  1  0
 30 79  1  0
 32 80  1  0
 32 81  1  0
 32 82  1  0
M  END
>  <meeko>  (5) 
{"is_sidechain": [false], "intermolecular_energy": 2.731, "internal_energy": -0.839}

$$$$
EPH_relaxed_0001_pdb2pqr_Repair_266_r2_0001_out
     RDKit          3D

 82 86  0  0  0  0  0  0  0  0999 V2000
   -2.2560    7.7160   -2.4410 C   0  0  0  0  0  0  0  0  0  0  0  0
   -2.0720    8.3040   -1.0390 C   0  0  2  0  0  0  0  0  0  0  0  0
   -3.3820    8.2850   -0.2250 C   0  0  0  0  0  0  0  0  0  0  0  0
   -4.6410    8.4430   -1.0820 C   0  0  0  0  0  0  0  0  0  0  0  0
   -5.4750    7.1980   -1.0770 C   0  0  2  0  0  0  0  0  0  0  0  0
   -5.6330    6.5790   -2.3600 O   0  0  0  0  0  0  0  0  0  0  0  0
   -6.8290    7.0960   -1.7540 C   0  0  0  0  0  0  0  0  0  0  0  0
   -7.4270    8.2580   -2.4830 C   0  0  0  0  0  0  0  0  0  0  0  0
   -7.7800    6.0340   -1.2960 C   0  0  0  0  0  0  0  0  0  0  0  0
   -1.5430    9.7300   -1.1390 C   0  0  1  0  0  0  0  0  0  0  0  0
   -1.0650   10.2870    0.2290 C   0  0  0  0  0  0  0  0  0  0  0  0
    0.1530   11.2020   -0.0610 C   0  0  0  0  0  0  0  0  0  0  0  0
    0.1310   11.4060   -1.5950 C   0  0  1  0  0  0  0  0  0  0  0  0
   -0.9280   12.5270   -1.8350 C   0  0  0  0  0  0  0  0  0  0  0  0
    1.5000   11.7520   -2.2650 C   0  0  2  0  0  0  0  0  0  0  0  0
    2.1340   13.0770   -1.8070 C   0  0  0  0  0  0  0  0  0  0  0  0
    1.7560   14.2760   -2.6120 C   0  0  0  0  0  0  0  0  0  0  0  0
    1.1720   14.2520   -3.8240 C   0  0  0  0  0  0  0  0  0  0  0  0
    0.9210   12.9250   -4.5520 C   0  0  1  0  0  0  0  0  0  0  0  0
    1.3770   13.0500   -6.0290 C   0  0  0  0  0  0  0  0  0  0  0  0
    0.7340   14.2360   -6.7420 C   0  0  0  0  0  0  0  0  0  0  0  0
    1.0550   15.5440   -6.0210 C   0  0  2  0  0  0  0  0  0  0  0  0
    2.4570   15.8020   -6.1390 O   0  0  0  0  0  0  0  0  0  0  0  0
    0.6490   15.5320   -4.5210 C   0  0  0  0  0  0  0  0  0  0  0  0
   -0.8950   15.5550   -4.4000 C   0  0  0  0  0  0  0  0  0  0  0  0
    1.1540   16.8530   -3.8800 C   0  0  0  0  0  0  0  0  0  0  0  0
    1.4990   11.6260   -3.8430 C   0  0  1  0  0  0  0  0  0  0  0  0
    2.9810   11.4000   -4.2720 C   0  0  0  0  0  0  0  0  0  0  0  0
    0.6960   10.3670   -4.3420 C   0  0  0  0  0  0  0  0  0  0  0  0
   -0.5840   10.0060   -3.5640 C   0  0  0  0  0  0  0  0  0  0  0  0
   -0.3180    9.9710   -2.0560 C   0  0  2  0  0  0  0  0  0  0  0  0
    0.7280    8.8370   -1.7810 C   0  0  0  0  0  0  0  0  0  0  0  0
   -2.5836    6.6691   -2.3594 H   0  0  0  0  0  0  0  0  0  0  0  0
   -3.0154    8.2965   -2.9853 H   0  0  0  0  0  0  0  0  0  0  0  0
   -1.3011    7.7601   -2.9853 H   0  0  0  0  0  0  0  0  0  0  0  0
   -1.3437    7.6730   -0.5085 H   0  0  0  0  0  0  0  0  0  0  0  0
   -3.4444    7.3261    0.3105 H   0  0  0  0  0  0  0  0  0  0  0  0
   -3.3483    9.1459    0.4589 H   0  0  0  0  0  0  0  0  0  0  0  0
   -5.2405    9.2752   -0.6846 H   0  0  0  0  0  0  0  0  0  0  0  0
   -4.3280    8.6418   -2.1176 H   0  0  0  0  0  0  0  0  0  0  0  0
   -5.1378    6.9472   -0.0604 H   0  0  0  0  0  0  0  0  0  0  0  0
   -7.8047    8.9920   -1.7559 H   0  0  0  0  0  0  0  0  0  0  0  0
   -6.6593    8.7291   -3.1145 H   0  0  0  0  0  0  0  0  0  0  0  0
   -8.2565    7.9071   -3.1145 H   0  0  0  0  0  0  0  0  0  0  0  0
   -7.8013    6.0103   -0.1965 H   0  0  0  0  0  0  0  0  0  0  0  0
   -8.7878    6.2549   -1.6775 H   0  0  0  0  0  0  0  0  0  0  0  0
   -7.4496    5.0566   -1.6775 H   0  0  0  0  0  0  0  0  0  0  0  0
   -2.4303   10.2272   -1.5579 H   0  0  0  0  0  0  0  0  0  0  0  0
   -1.8700   10.8671    0.7039 H   0  0  0  0  0  0  0  0  0  0  0  0
   -0.7915    9.4708    0.9138 H   0  0  0  0  0  0  0  0  0  0  0  0
    0.0483   12.1649    0.4604 H   0  0  0  0  0  0  0  0  0  0  0  0
    1.0985   10.7612    0.2879 H   0  0  0  0  0  0  0  0  0  0  0  0
   -1.2863   12.9063   -0.8666 H   0  0  0  0  0  0  0  0  0  0  0  0
   -0.4692   13.3492   -2.4038 H   0  0  0  0  0  0  0  0  0  0  0  0
   -1.7749   12.1156   -2.4038 H   0  0  0  0  0  0  0  0  0  0  0  0
    2.1581   10.9583   -1.8818 H   0  0  0  0  0  0  0  0  0  0  0  0
    1.8300   13.2572   -0.7653 H   0  0  0  0  0  0  0  0  0  0  0  0
    3.2198   12.9549   -1.9339 H   0  0  0  0  0  0  0  0  0  0  0  0
    1.9733   15.2629   -2.1775 H   0  0  0  0  0  0  0  0  0  0  0  0
   -0.1651   12.7559   -4.5102 H   0  0  0  0  0  0  0  0  0  0  0  0
    2.4696   13.1754   -6.0512 H   0  0  0  0  0  0  0  0  0  0  0  0
    1.0635   12.1354   -6.5536 H   0  0  0  0  0  0  0  0  0  0  0  0
    1.1177   14.2886   -7.7716 H   0  0  0  0  0  0  0  0  0  0  0  0
   -0.3569   14.0949   -6.7456 H   0  0  0  0  0  0  0  0  0  0  0  0
    0.4634   16.3389   -6.4987 H   0  0  0  0  0  0  0  0  0  0  0  0
    2.7280   16.3150   -5.3580 H   0  0  0  0  0  0  0  0  0  0  0  0
   -1.1795   15.5592   -3.3374 H   0  0  0  0  0  0  0  0  0  0  0  0
   -1.2876   16.4591   -4.8883 H   0  0  0  0  0  0  0  0  0  0  0  0
   -1.3144   14.6630   -4.8883 H   0  0  0  0  0  0  0  0  0  0  0  0
    1.1204   16.7650   -2.7840 H   0  0  0  0  0  0  0  0  0  0  0  0
    2.1886   17.0442   -4.2009 H   0  0  0  0  0  0  0  0  0  0  0  0
    0.5108   17.6856   -4.2009 H   0  0  0  0  0  0  0  0  0  0  0  0
    3.6115   11.3038   -3.3758 H   0  0  0  0  0  0  0  0  0  0  0  0
    3.0531   10.4805   -4.8714 H   0  0  0  0  0  0  0  0  0  0  0  0
    3.3239   12.2562   -4.8714 H   0  0  0  0  0  0  0  0  0  0  0  0
    0.4093   10.5485   -5.3884 H   0  0  0  0  0  0  0  0  0  0  0  0
    1.3746    9.5145   -4.1910 H   0  0  0  0  0  0  0  0  0  0  0  0
   -1.3578   10.7586   -3.7754 H   0  0  0  0  0  0  0  0  0  0  0  0
   -0.9192    9.0084   -3.8841 H   0  0  0  0  0  0  0  0  0  0  0  0
    0.8493    8.7054   -0.6957 H   0  0  0  0  0  0  0  0  0  0  0  0
    0.3743    7.8958   -2.2272 H   0  0  0  0  0  0  0  0  0  0  0  0
    1.6946    9.1137   -2.2272 H   0  0  0  0  0  0  0  0  0  0  0  0
  1  2  1  0
  2  3  1  0
  3  4  1  0
  4  5  1  0
  5  6  1  0
  6  7  1  0
  7  8  1  0
  7  9  1  0
  2 10  1  0
 10 11  1  0
 11 12  1  0
 12 13  1  0
 13 14  1  1
 13 15  1  0
 15 16  1  0
 16 17  1  0
 17 18  2  0
 18 19  1  0
 19 20  1  0
 20 21  1  0
 21 22  1  0
 22 23  1  0
 22 24  1  0
 24 25  1  0
 24 26  1  0
 19 27  1  0
 27 28  1  6
 27 29  1  0
 29 30  1  0
 30 31  1  0
 31 32  1  6
  7  5  1  0
 31 10  1  0
 31 13  1  0
 27 15  1  0
 24 18  1  0
  1 33  1  0
  1 34  1  0
  1 35  1  0
  2 36  1  1
  3 37  1  0
  3 38  1  0
  4 39  1  0
  4 40  1  0
  5 41  1  1
  8 42  1  0
  8 43  1  0
  8 44  1  0
  9 45  1  0
  9 46  1  0
  9 47  1  0
 10 48  1  6
 11 49  1  0
 11 50  1  0
 12 51  1  0
 12 52  1  0
 14 53  1  0
 14 54  1  0
 14 55  1  0
 15 56  1  1
 16 57  1  0
 16 58  1  0
 17 59  1  0
 19 60  1  6
 20 61  1  0
 20 62  1  0
 21 63  1  0
 21 64  1  0
 22 65  1  6
 23 66  1  0
 25 67  1  0
 25 68  1  0
 25 69  1  0
 26 70  1  0
 26 71  1  0
 26 72  1  0
 28 73  1  0
 28 74  1  0
 28 75  1  0
 29 76  1  0
 29 77  1  0
 30 78  1  0
 30 79  1  0
 32 80  1  0
 32 81  1  0
 32 82  1  0
M  END
>  <meeko>  (6) 
{"is_sidechain": [false], "intermolecular_energy": 2.731, "internal_energy": -0.839}

$$$$
EPH_relaxed_0001_pdb2pqr_Repair_266_r2_0001_out
     RDKit          3D

 82 86  0  0  0  0  0  0  0  0999 V2000
    0.1070   14.6720   -4.1800 C   0  0  0  0  0  0  0  0  0  0  0  0
    1.2470   13.6790   -4.4210 C   0  0  2  0  0  0  0  0  0  0  0  0
    1.9100   13.8790   -5.7990 C   0  0  0  0  0  0  0  0  0  0  0  0
    1.1820   14.8880   -6.6910 C   0  0  0  0  0  0  0  0  0  0  0  0
    1.8280   15.0040   -8.0380 C   0  0  2  0  0  0  0  0  0  0  0  0
    2.2720   16.3240   -8.3780 O   0  0  0  0  0  0  0  0  0  0  0  0
    1.2210   15.7790   -9.1930 C   0  0  0  0  0  0  0  0  0  0  0  0
   -0.0880   16.4890   -9.0540 C   0  0  0  0  0  0  0  0  0  0  0  0
    1.6530   15.4420  -10.5860 C   0  0  0  0  0  0  0  0  0  0  0  0
    0.7280   12.2510   -4.2950 C   0  0  1  0  0  0  0  0  0  0  0  0
    1.8020   11.1910   -4.6600 C   0  0  0  0  0  0  0  0  0  0  0  0
    1.5630    9.9750   -3.7290 C   0  0  0  0  0  0  0  0  0  0  0  0
    0.1750   10.2320   -3.0980 C   0  0  1  0  0  0  0  0  0  0  0  0
   -0.8500    9.7660   -4.1790 C   0  0  0  0  0  0  0  0  0  0  0  0
   -0.0930    9.5510   -1.7160 C   0  0  2  0  0  0  0  0  0  0  0  0
   -0.0640    8.0130   -1.7310 C   0  0  0  0  0  0  0  0  0  0  0  0
   -1.3770    7.3530   -1.9940 C   0  0  0  0  0  0  0  0  0  0  0  0
   -2.5810    7.9520   -1.9290 C   0  0  0  0  0  0  0  0  0  0  0  0
   -2.7110    9.4080   -1.4650 C   0  0  1  0  0  0  0  0  0  0  0  0
   -3.8640    9.5210   -0.4330 C   0  0  0  0  0  0  0  0  0  0  0  0
   -5.1790    8.9560   -0.9600 C   0  0  0  0  0  0  0  0  0  0  0  0
   -5.0240    7.4910   -1.3570 C   0  0  2  0  0  0  0  0  0  0  0  0
   -4.7760    6.7180   -0.1780 O   0  0  0  0  0  0  0  0  0  0  0  0
   -3.8840    7.2520   -2.3870 C   0  0  0  0  0  0  0  0  0  0  0  0
   -4.2930    7.8380   -3.7610 C   0  0  0  0  0  0  0  0  0  0  0  0
   -3.7400    5.7200   -2.5930 C   0  0  0  0  0  0  0  0  0  0  0  0
   -1.3710   10.0980   -0.9610 C   0  0  1  0  0  0  0  0  0  0  0  0
   -1.1560    9.7990    0.5540 C   0  0  0  0  0  0  0  0  0  0  0  0
   -1.5190   11.6610   -1.0890 C   0  0  0  0  0  0  0  0  0  0  0  0
   -1.1250   12.2880   -2.4400 C   0  0  0  0  0  0  0  0  0  0  0  0
    0.2500   11.7890   -2.8950 C   0  0  2  0  0  0  0  0  0  0  0  0
    1.3050   12.2630   -1.8390 C   0  0  0  0  0  0  0  0  0  0  0  0
   -0.0429   14.8026   -3.0981 H   0  0  0  0  0  0  0  0  0  0  0  0
    0.3623   15.6407   -4.6344 H   0  0  0  0  0  0  0  0  0  0  0  0
   -0.8175   14.2862   -4.6344 H   0  0  0  0  0  0  0  0  0  0  0  0
    2.0147   13.8645   -3.6553 H   0  0  0  0  0  0  0  0  0  0  0  0
    2.9391   14.2340   -5.6411 H   0  0  0  0  0  0  0  0  0  0  0  0
    1.8757   12.9088   -6.3163 H   0  0  0  0  0  0  0  0  0  0  0  0
    0.1400   14.5610   -6.8223 H   0  0  0  0  0  0  0  0  0  0  0  0
    1.2275   15.8727   -6.2029 H   0  0  0  0  0  0  0  0  0  0  0  0
    2.2224   13.9799   -7.9629 H   0  0  0  0  0  0  0  0  0  0  0  0
   -0.3242   16.6171   -7.9873 H   0  0  0  0  0  0  0  0  0  0  0  0
   -0.0231   17.4755   -9.5362 H   0  0  0  0  0  0  0  0  0  0  0  0
   -0.8795   15.8966   -9.5362 H   0  0  0  0  0  0  0  0  0  0  0  0
    2.5198   14.7658  -10.5476 H   0  0  0  0  0  0  0  0  0  0  0  0
    0.8259   14.9481  -11.1170 H   0  0  0  0  0  0  0  0  0  0  0  0
    1.9308   16.3644  -11.1170 H   0  0  0  0  0  0  0  0  0  0  0  0
   -0.1262   12.3032   -4.9861 H   0  0  0  0  0  0  0  0  0  0  0  0
    1.6946   10.8895   -5.7124 H   0  0  0  0  0  0  0  0  0  0  0  0
    2.8167   11.5952   -4.5299 H   0  0  0  0  0  0  0  0  0  0  0  0
    1.5594    9.0388   -4.3065 H   0  0  0  0  0  0  0  0  0  0  0  0
    2.3525    9.8696   -2.9703 H   0  0  0  0  0  0  0  0  0  0  0  0
   -1.7446    9.3593   -3.6848 H   0  0  0  0  0  0  0  0  0  0  0  0
   -1.1356   10.6228   -4.8070 H   0  0  0  0  0  0  0  0  0  0  0  0
   -0.3921    8.9875   -4.8070 H   0  0  0  0  0  0  0  0  0  0  0  0
    0.7823    9.8607   -1.1261 H   0  0  0  0  0  0  0  0  0  0  0  0
    0.6397    7.6939   -2.5140 H   0  0  0  0  0  0  0  0  0  0  0  0
    0.2343    7.7044   -0.7182 H   0  0  0  0  0  0  0  0  0  0  0  0
   -1.3592    6.2867   -2.2638 H   0  0  0  0  0  0  0  0  0  0  0  0
   -2.9554    9.9930   -2.3639 H   0  0  0  0  0  0  0  0  0  0  0  0
   -3.5807    8.9670    0.4741 H   0  0  0  0  0  0  0  0  0  0  0  0
   -4.0203   10.5894   -0.2231 H   0  0  0  0  0  0  0  0  0  0  0  0
   -5.9456    9.0370   -0.1753 H   0  0  0  0  0  0  0  0  0  0  0  0
   -5.4762    9.5308   -1.8495 H   0  0  0  0  0  0  0  0  0  0  0  0
   -5.9591    7.1814   -1.8466 H   0  0  0  0  0  0  0  0  0  0  0  0
   -5.6290    6.5820    0.2690 H   0  0  0  0  0  0  0  0  0  0  0  0
   -4.9164    8.7312   -3.6078 H   0  0  0  0  0  0  0  0  0  0  0  0
   -3.3900    8.1135   -4.3256 H   0  0  0  0  0  0  0  0  0  0  0  0
   -4.8630    7.0855   -4.3256 H   0  0  0  0  0  0  0  0  0  0  0  0
   -3.6931    5.2212   -1.6137 H   0  0  0  0  0  0  0  0  0  0  0  0
   -4.6066    5.3426   -3.1556 H   0  0  0  0  0  0  0  0  0  0  0  0
   -2.8182    5.5107   -3.1556 H   0  0  0  0  0  0  0  0  0  0  0  0
   -1.6938   10.5469    1.1553 H   0  0  0  0  0  0  0  0  0  0  0  0
   -1.5405    8.7952    0.7878 H   0  0  0  0  0  0  0  0  0  0  0  0
   -0.0821    9.8439    0.7878 H   0  0  0  0  0  0  0  0  0  0  0  0
   -2.5733   11.9119   -0.9006 H   0  0  0  0  0  0  0  0  0  0  0  0
   -0.8084   12.0779   -0.3602 H   0  0  0  0  0  0  0  0  0  0  0  0
   -1.8755   12.0146   -3.1963 H   0  0  0  0  0  0  0  0  0  0  0  0
   -1.0800   13.3805   -2.3202 H   0  0  0  0  0  0  0  0  0  0  0  0
    0.9141   12.0874   -0.8259 H   0  0  0  0  0  0  0  0  0  0  0  0
    2.2390   11.6980   -1.9747 H   0  0  0  0  0  0  0  0  0  0  0  0
    1.5028   13.3365   -1.9747 H   0  0  0  0  0  0  0  0  0  0  0  0
  1  2  1  0
  2  3  1  0
  3  4  1  0
  4  5  1  0
  5  6  1  0
  6  7  1  0
  7  8  1  0
  7  9  1  0
  2 10  1  0
 10 11  1  0
 11 12  1  0
 12 13  1  0
 13 14  1  6
 13 15  1  0
 15 16  1  0
 16 17  1  0
 17 18  2  0
 18 19  1  0
 19 20  1  0
 20 21  1  0
 21 22  1  0
 22 23  1  0
 22 24  1  0
 24 25  1  0
 24 26  1  0
 19 27  1  0
 27 28  1  1
 27 29  1  0
 29 30  1  0
 30 31  1  0
 31 32  1  1
  7  5  1  0
 31 10  1  0
 31 13  1  0
 27 15  1  0
 24 18  1  0
  1 33  1  0
  1 34  1  0
  1 35  1  0
  2 36  1  1
  3 37  1  0
  3 38  1  0
  4 39  1  0
  4 40  1  0
  5 41  1  6
  8 42  1  0
  8 43  1  0
  8 44  1  0
  9 45  1  0
  9 46  1  0
  9 47  1  0
 10 48  1  6
 11 49  1  0
 11 50  1  0
 12 51  1  0
 12 52  1  0
 14 53  1  0
 14 54  1  0
 14 55  1  0
 15 56  1  1
 16 57  1  0
 16 58  1  0
 17 59  1  0
 19 60  1  6
 20 61  1  0
 20 62  1  0
 21 63  1  0
 21 64  1  0
 22 65  1  6
 23 66  1  0
 25 67  1  0
 25 68  1  0
 25 69  1  0
 26 70  1  0
 26 71  1  0
 26 72  1  0
 28 73  1  0
 28 74  1  0
 28 75  1  0
 29 76  1  0
 29 77  1  0
 30 78  1  0
 30 79  1  0
 32 80  1  0
 32 81  1  0
 32 82  1  0
M  END
>  <meeko>  (7) 
{"is_sidechain": [false], "intermolecular_energy": 2.731, "internal_energy": -0.839}

$$$$
EPH_relaxed_0001_pdb2pqr_Repair_266_r2_0001_out
     RDKit          3D

 82 86  0  0  0  0  0  0  0  0999 V2000
  -15.1950    8.8040    0.4920 C   0  0  0  0  0  0  0  0  0  0  0  0
  -14.2990    9.0910   -0.7160 C   0  0  2  0  0  0  0  0  0  0  0  0
  -14.6090    8.1590   -1.9040 C   0  0  0  0  0  0  0  0  0  0  0  0
  -14.6420    8.8750   -3.2570 C   0  0  0  0  0  0  0  0  0  0  0  0
  -15.2870   10.2240   -3.1540 C   0  0  2  0  0  0  0  0  0  0  0  0
  -14.9500   11.1310   -4.2120 O   0  0  0  0  0  0  0  0  0  0  0  0
  -14.5140   11.5030   -2.8940 C   0  0  0  0  0  0  0  0  0  0  0  0
  -13.0280   11.4950   -2.7190 C   0  0  0  0  0  0  0  0  0  0  0  0
  -15.2470   12.6790   -2.3260 C   0  0  0  0  0  0  0  0  0  0  0  0
  -12.8330    8.9590   -0.3190 C   0  0  1  0  0  0  0  0  0  0  0  0
  -12.6270    8.9830    1.2190 C   0  0  0  0  0  0  0  0  0  0  0  0
  -11.4470    8.0260    1.5260 C   0  0  0  0  0  0  0  0  0  0  0  0
  -10.8040    7.7440    0.1480 C   0  0  1  0  0  0  0  0  0  0  0  0
   -9.8930    8.9810   -0.1300 C   0  0  0  0  0  0  0  0  0  0  0  0
  -10.0120    6.4030    0.0170 C   0  0  2  0  0  0  0  0  0  0  0  0
   -8.7860    6.2760    0.9380 C   0  0  0  0  0  0  0  0  0  0  0  0
   -7.5000    6.7660    0.3590 C   0  0  0  0  0  0  0  0  0  0  0  0
   -7.2760    7.0220   -0.9440 C   0  0  0  0  0  0  0  0  0  0  0  0
   -8.3480    6.7270   -2.0000 C   0  0  1  0  0  0  0  0  0  0  0  0
   -7.7020    5.9910   -3.2030 C   0  0  0  0  0  0  0  0  0  0  0  0
   -6.5080    6.7460   -3.7780 C   0  0  0  0  0  0  0  0  0  0  0  0
   -5.4380    6.9690   -2.7120 C   0  0  2  0  0  0  0  0  0  0  0  0
   -4.8860    5.7020   -2.3420 O   0  0  0  0  0  0  0  0  0  0  0  0
   -5.9750    7.6950   -1.4470 C   0  0  0  0  0  0  0  0  0  0  0  0
   -6.2930    9.1720   -1.7900 C   0  0  0  0  0  0  0  0  0  0  0  0
   -4.8330    7.7300   -0.3960 C   0  0  0  0  0  0  0  0  0  0  0  0
   -9.6600    6.0010   -1.4730 C   0  0  1  0  0  0  0  0  0  0  0  0
   -9.4510    4.4560   -1.4800 C   0  0  0  0  0  0  0  0  0  0  0  0
  -10.8450    6.2940   -2.4680 C   0  0  0  0  0  0  0  0  0  0  0  0
  -11.6650    7.5730   -2.2140 C   0  0  0  0  0  0  0  0  0  0  0  0
  -12.0940    7.6670   -0.7460 C   0  0  2  0  0  0  0  0  0  0  0  0
  -13.0300    6.4470   -0.4430 C   0  0  0  0  0  0  0  0  0  0  0  0
  -14.6304    8.9849    1.4185 H   0  0  0  0  0  0  0  0  0  0  0  0
  -16.0731    9.4658    0.4627 H   0  0  0  0  0  0  0  0  0  0  0  0
  -15.5252    7.7551    0.4627 H   0  0  0  0  0  0  0  0  0  0  0  0
  -14.5045   10.1211   -1.0427 H   0  0  0  0  0  0  0  0  0  0  0  0
  -13.8355    7.3779   -1.9434 H   0  0  0  0  0  0  0  0  0  0  0  0
  -15.6145    7.7465   -1.7345 H   0  0  0  0  0  0  0  0  0  0  0  0
  -13.6110    8.9994   -3.6198 H   0  0  0  0  0  0  0  0  0  0  0  0
  -15.2339    8.2639   -3.9543 H   0  0  0  0  0  0  0  0  0  0  0  0
  -16.1756    9.7886   -2.6736 H   0  0  0  0  0  0  0  0  0  0  0  0
  -12.7852   11.4937   -1.6461 H   0  0  0  0  0  0  0  0  0  0  0  0
  -12.6080   10.5946   -3.1911 H   0  0  0  0  0  0  0  0  0  0  0  0
  -12.5984   12.3908   -3.1911 H   0  0  0  0  0  0  0  0  0  0  0  0
  -15.2184   12.6331   -1.2273 H   0  0  0  0  0  0  0  0  0  0  0  0
  -14.7683   13.6089   -2.6667 H   0  0  0  0  0  0  0  0  0  0  0  0
  -16.2927   12.6587   -2.6667 H   0  0  0  0  0  0  0  0  0  0  0  0
  -12.4176    9.8242   -0.8564 H   0  0  0  0  0  0  0  0  0  0  0  0
  -12.3848   10.0027    1.5531 H   0  0  0  0  0  0  0  0  0  0  0  0
  -13.5398    8.6667    1.7452 H   0  0  0  0  0  0  0  0  0  0  0  0
  -10.7233    8.5061    2.2011 H   0  0  0  0  0  0  0  0  0  0  0  0
  -11.7772    7.1048    2.0284 H   0  0  0  0  0  0  0  0  0  0  0  0
   -9.5695    9.4202    0.8252 H   0  0  0  0  0  0  0  0  0  0  0  0
   -9.0106    8.6646   -0.7056 H   0  0  0  0  0  0  0  0  0  0  0  0
  -10.4570    9.7298   -0.7056 H   0  0  0  0  0  0  0  0  0  0  0  0
  -10.7387    5.6634    0.3842 H   0  0  0  0  0  0  0  0  0  0  0  0
   -8.9876    6.8514    1.8536 H   0  0  0  0  0  0  0  0  0  0  0  0
   -8.6490    5.1991    1.1156 H   0  0  0  0  0  0  0  0  0  0  0  0
   -6.6650    6.9319    1.0556 H   0  0  0  0  0  0  0  0  0  0  0  0
   -8.7321    7.7055   -2.3241 H   0  0  0  0  0  0  0  0  0  0  0  0
   -7.3643    4.9988   -2.8692 H   0  0  0  0  0  0  0  0  0  0  0  0
   -8.4617    5.9149   -3.9949 H   0  0  0  0  0  0  0  0  0  0  0  0
   -6.0767    6.1617   -4.6042 H   0  0  0  0  0  0  0  0  0  0  0  0
   -6.8533    7.7260   -4.1389 H   0  0  0  0  0  0  0  0  0  0  0  0
   -4.6700    7.6254   -3.1472 H   0  0  0  0  0  0  0  0  0  0  0  0
   -4.2620    5.4380   -3.0390 H   0  0  0  0  0  0  0  0  0  0  0  0
   -6.4166    9.7460   -0.8598 H   0  0  0  0  0  0  0  0  0  0  0  0
   -5.4661    9.5984   -2.3769 H   0  0  0  0  0  0  0  0  0  0  0  0
   -7.2221    9.2203   -2.3769 H   0  0  0  0  0  0  0  0  0  0  0  0
   -5.2651    7.7168    0.6155 H   0  0  0  0  0  0  0  0  0  0  0  0
   -4.1849    6.8513   -0.5294 H   0  0  0  0  0  0  0  0  0  0  0  0
   -4.2399    8.6467   -0.5294 H   0  0  0  0  0  0  0  0  0  0  0  0
   -9.4012    4.0880   -0.4446 H   0  0  0  0  0  0  0  0  0  0  0  0
  -10.2922    3.9746   -2.0002 H   0  0  0  0  0  0  0  0  0  0  0  0
   -8.5121    4.2154   -2.0002 H   0  0  0  0  0  0  0  0  0  0  0  0
  -10.4197    6.3668   -3.4798 H   0  0  0  0  0  0  0  0  0  0  0  0
  -11.5533    5.4647   -2.3243 H   0  0  0  0  0  0  0  0  0  0  0  0
  -11.0510    8.4501   -2.4663 H   0  0  0  0  0  0  0  0  0  0  0  0
  -12.5677    7.5414   -2.8418 H   0  0  0  0  0  0  0  0  0  0  0  0
  -13.1269    6.3207    0.6454 H   0  0  0  0  0  0  0  0  0  0  0  0
  -14.0226    6.6287   -0.8809 H   0  0  0  0  0  0  0  0  0  0  0  0
  -12.5974    5.5353   -0.8809 H   0  0  0  0  0  0  0  0  0  0  0  0
  1  2  1  0
  2  3  1  0
  3  4  1  0
  4  5  1  0
  5  6  1  0
  6  7  1  0
  7  8  1  0
  7  9  1  0
  2 10  1  0
 10 11  1  0
 11 12  1  0
 12 13  1  0
 13 14  1  6
 13 15  1  0
 15 16  1  0
 16 17  1  0
 17 18  2  0
 18 19  1  0
 19 20  1  0
 20 21  1  0
 21 22  1  0
 22 23  1  0
 22 24  1  0
 24 25  1  0
 24 26  1  0
 19 27  1  0
 27 28  1  1
 27 29  1  0
 29 30  1  0
 30 31  1  0
 31 32  1  1
  7  5  1  0
 31 10  1  0
 31 13  1  0
 27 15  1  0
 24 18  1  0
  1 33  1  0
  1 34  1  0
  1 35  1  0
  2 36  1  6
  3 37  1  0
  3 38  1  0
  4 39  1  0
  4 40  1  0
  5 41  1  1
  8 42  1  0
  8 43  1  0
  8 44  1  0
  9 45  1  0
  9 46  1  0
  9 47  1  0
 10 48  1  6
 11 49  1  0
 11 50  1  0
 12 51  1  0
 12 52  1  0
 14 53  1  0
 14 54  1  0
 14 55  1  0
 15 56  1  1
 16 57  1  0
 16 58  1  0
 17 59  1  0
 19 60  1  6
 20 61  1  0
 20 62  1  0
 21 63  1  0
 21 64  1  0
 22 65  1  6
 23 66  1  0
 25 67  1  0
 25 68  1  0
 25 69  1  0
 26 70  1  0
 26 71  1  0
 26 72  1  0
 28 73  1  0
 28 74  1  0
 28 75  1  0
 29 76  1  0
 29 77  1  0
 30 78  1  0
 30 79  1  0
 32 80  1  0
 32 81  1  0
 32 82  1  0
M  END
>  <meeko>  (8) 
{"is_sidechain": [false], "intermolecular_energy": 2.731, "internal_energy": -0.839}

$$$$
EPH_relaxed_0001_pdb2pqr_Repair_266_r2_0001_out
     RDKit          3D

 82 86  0  0  0  0  0  0  0  0999 V2000
   -2.9530    7.2430   -1.4880 C   0  0  0  0  0  0  0  0  0  0  0  0
   -2.8690    8.5540   -0.7010 C   0  0  2  0  0  0  0  0  0  0  0  0
   -4.2640    9.1200   -0.3660 C   0  0  0  0  0  0  0  0  0  0  0  0
   -5.3520    8.0490   -0.2520 C   0  0  0  0  0  0  0  0  0  0  0  0
   -5.9190    7.6900   -1.5910 C   0  0  2  0  0  0  0  0  0  0  0  0
   -6.9240    8.5900   -2.0770 O   0  0  0  0  0  0  0  0  0  0  0  0
   -7.3550    7.2480   -1.8010 C   0  0  0  0  0  0  0  0  0  0  0  0
   -8.3130    7.1410   -0.6560 C   0  0  0  0  0  0  0  0  0  0  0  0
   -7.6890    6.4570   -3.0270 C   0  0  0  0  0  0  0  0  0  0  0  0
   -2.0650    9.5820   -1.4880 C   0  0  1  0  0  0  0  0  0  0  0  0
   -2.6910   11.0010   -1.4310 C   0  0  0  0  0  0  0  0  0  0  0  0
   -1.5130   12.0090   -1.4240 C   0  0  0  0  0  0  0  0  0  0  0  0
   -0.2750   11.1660   -1.8090 C   0  0  1  0  0  0  0  0  0  0  0  0
   -0.3340   11.0540   -3.3640 C   0  0  0  0  0  0  0  0  0  0  0  0
    1.1080   11.7070   -1.3210 C   0  0  2  0  0  0  0  0  0  0  0  0
    1.5080   13.0810   -1.8880 C   0  0  0  0  0  0  0  0  0  0  0  0
    2.2870   13.0430   -3.1600 C   0  0  0  0  0  0  0  0  0  0  0  0
    2.8960   11.9580   -3.6730 C   0  0  0  0  0  0  0  0  0  0  0  0
    2.9170   10.6300   -2.9050 C   0  0  1  0  0  0  0  0  0  0  0  0
    4.3530   10.0430   -2.9250 C   0  0  0  0  0  0  0  0  0  0  0  0
    4.9100    9.9080   -4.3390 C   0  0  0  0  0  0  0  0  0  0  0  0
    4.9270   11.2590   -5.0490 C   0  0  2  0  0  0  0  0  0  0  0  0
    5.8730   12.1110   -4.3970 O   0  0  0  0  0  0  0  0  0  0  0  0
    3.5360   11.9510   -5.0830 C   0  0  0  0  0  0  0  0  0  0  0  0
    2.5940   11.1800   -6.0410 C   0  0  0  0  0  0  0  0  0  0  0  0
    3.7210   13.3640   -5.7000 C   0  0  0  0  0  0  0  0  0  0  0  0
    2.2920   10.6640   -1.4440 C   0  0  1  0  0  0  0  0  0  0  0  0
    3.3770   11.0990   -0.4110 C   0  0  0  0  0  0  0  0  0  0  0  0
    1.8510    9.2080   -1.0390 C   0  0  0  0  0  0  0  0  0  0  0  0
    0.4300    8.7740   -1.4450 C   0  0  0  0  0  0  0  0  0  0  0  0
   -0.6020    9.8320   -1.0430 C   0  0  2  0  0  0  0  0  0  0  0  0
   -0.5820    9.9510    0.5190 C   0  0  0  0  0  0  0  0  0  0  0  0
   -3.0072    6.3972   -0.7868 H   0  0  0  0  0  0  0  0  0  0  0  0
   -3.8524    7.2525   -2.1213 H   0  0  0  0  0  0  0  0  0  0  0  0
   -2.0598    7.1376   -2.1213 H   0  0  0  0  0  0  0  0  0  0  0  0
   -2.3632    8.3368    0.2514 H   0  0  0  0  0  0  0  0  0  0  0  0
   -4.2007    9.6541    0.5935 H   0  0  0  0  0  0  0  0  0  0  0  0
   -4.5503    9.7816   -1.1968 H   0  0  0  0  0  0  0  0  0  0  0  0
   -4.9180    7.1473    0.2046 H   0  0  0  0  0  0  0  0  0  0  0  0
   -6.1662    8.4523    0.3680 H   0  0  0  0  0  0  0  0  0  0  0  0
   -4.9593    7.2544   -1.9061 H   0  0  0  0  0  0  0  0  0  0  0  0
   -7.7592    7.2029    0.2924 H   0  0  0  0  0  0  0  0  0  0  0  0
   -9.0416    7.9633   -0.7095 H   0  0  0  0  0  0  0  0  0  0  0  0
   -8.8422    6.1782   -0.7095 H   0  0  0  0  0  0  0  0  0  0  0  0
   -8.1013    5.4807   -2.7324 H   0  0  0  0  0  0  0  0  0  0  0  0
   -8.4330    7.0039   -3.6248 H   0  0  0  0  0  0  0  0  0  0  0  0
   -6.7782    6.3051   -3.6248 H   0  0  0  0  0  0  0  0  0  0  0  0
   -2.0807    9.1082   -2.4806 H   0  0  0  0  0  0  0  0  0  0  0  0
   -3.3286   11.1695   -2.3114 H   0  0  0  0  0  0  0  0  0  0  0  0
   -3.3186   11.1204   -0.5355 H   0  0  0  0  0  0  0  0  0  0  0  0
   -1.6821   12.8089   -2.1599 H   0  0  0  0  0  0  0  0  0  0  0  0
   -1.3935   12.5038   -0.4489 H   0  0  0  0  0  0  0  0  0  0  0  0
   -0.8296   10.1131   -3.6453 H   0  0  0  0  0  0  0  0  0  0  0  0
   -0.9016   11.9035   -3.7715 H   0  0  0  0  0  0  0  0  0  0  0  0
    0.6876   11.0663   -3.7715 H   0  0  0  0  0  0  0  0  0  0  0  0
    0.9334   11.8664   -0.2467 H   0  0  0  0  0  0  0  0  0  0  0  0
    0.5873   13.6547   -2.0702 H   0  0  0  0  0  0  0  0  0  0  0  0
    2.1708   13.5383   -1.1386 H   0  0  0  0  0  0  0  0  0  0  0  0
    2.3707   13.9820   -3.7269 H   0  0  0  0  0  0  0  0  0  0  0  0
    2.2313    9.9576   -3.4414 H   0  0  0  0  0  0  0  0  0  0  0  0
    5.0134   10.7068   -2.3477 H   0  0  0  0  0  0  0  0  0  0  0  0
    4.3080    9.0353   -2.4861 H   0  0  0  0  0  0  0  0  0  0  0  0
    5.9365    9.5161   -4.2858 H   0  0  0  0  0  0  0  0  0  0  0  0
    4.2653    9.2208   -4.9066 H   0  0  0  0  0  0  0  0  0  0  0  0
    5.2121   11.0776   -6.0958 H   0  0  0  0  0  0  0  0  0  0  0  0
    5.6810   12.0880   -3.4440 H   0  0  0  0  0  0  0  0  0  0  0  0
    1.8747   10.5913   -5.4528 H   0  0  0  0  0  0  0  0  0  0  0  0
    2.0503   11.8956   -6.6753 H   0  0  0  0  0  0  0  0  0  0  0  0
    3.1880   10.5056   -6.6753 H   0  0  0  0  0  0  0  0  0  0  0  0
    3.8182   14.1062   -4.8940 H   0  0  0  0  0  0  0  0  0  0  0  0
    4.6285   13.3768   -6.3215 H   0  0  0  0  0  0  0  0  0  0  0  0
    2.8474   13.6099   -6.3215 H   0  0  0  0  0  0  0  0  0  0  0  0
    2.9946   10.9457    0.6089 H   0  0  0  0  0  0  0  0  0  0  0  0
    4.2850   10.4954   -0.5568 H   0  0  0  0  0  0  0  0  0  0  0  0
    3.6165   12.1627   -0.5568 H   0  0  0  0  0  0  0  0  0  0  0  0
    2.5587    8.5050   -1.5025 H   0  0  0  0  0  0  0  0  0  0  0  0
    1.8499    9.2034    0.0610 H   0  0  0  0  0  0  0  0  0  0  0  0
    0.3946    8.6327   -2.5353 H   0  0  0  0  0  0  0  0  0  0  0  0
    0.1888    7.8340   -0.9270 H   0  0  0  0  0  0  0  0  0  0  0  0
   -0.7487    8.9591    0.9645 H   0  0  0  0  0  0  0  0  0  0  0  0
    0.3941   10.3398    0.8446 H   0  0  0  0  0  0  0  0  0  0  0  0
   -1.3774   10.6376    0.8446 H   0  0  0  0  0  0  0  0  0  0  0  0
  1  2  1  0
  2  3  1  0
  3  4  1  0
  4  5  1  0
  5  6  1  0
  6  7  1  0
  7  8  1  0
  7  9  1  0
  2 10  1  0
 10 11  1  0
 11 12  1  0
 12 13  1  0
 13 14  1  6
 13 15  1  0
 15 16  1  0
 16 17  1  0
 17 18  2  0
 18 19  1  0
 19 20  1  0
 20 21  1  0
 21 22  1  0
 22 23  1  0
 22 24  1  0
 24 25  1  0
 24 26  1  0
 19 27  1  0
 27 28  1  1
 27 29  1  0
 29 30  1  0
 30 31  1  0
 31 32  1  1
  7  5  1  0
 31 10  1  0
 31 13  1  0
 27 15  1  0
 24 18  1  0
  1 33  1  0
  1 34  1  0
  1 35  1  0
  2 36  1  1
  3 37  1  0
  3 38  1  0
  4 39  1  0
  4 40  1  0
  5 41  1  6
  8 42  1  0
  8 43  1  0
  8 44  1  0
  9 45  1  0
  9 46  1  0
  9 47  1  0
 10 48  1  6
 11 49  1  0
 11 50  1  0
 12 51  1  0
 12 52  1  0
 14 53  1  0
 14 54  1  0
 14 55  1  0
 15 56  1  1
 16 57  1  0
 16 58  1  0
 17 59  1  0
 19 60  1  6
 20 61  1  0
 20 62  1  0
 21 63  1  0
 21 64  1  0
 22 65  1  6
 23 66  1  0
 25 67  1  0
 25 68  1  0
 25 69  1  0
 26 70  1  0
 26 71  1  0
 26 72  1  0
 28 73  1  0
 28 74  1  0
 28 75  1  0
 29 76  1  0
 29 77  1  0
 30 78  1  0
 30 79  1  0
 32 80  1  0
 32 81  1  0
 32 82  1  0
M  END
>  <meeko>  (9) 
{"is_sidechain": [false], "intermolecular_energy": 2.731, "internal_energy": -0.839}

$$$$
EPH_relaxed_0001_pdb2pqr_Repair_266_r2_0001_out
     RDKit          3D

 82 86  0  0  0  0  0  0  0  0999 V2000
  -12.7020   10.7780   -2.1430 C   0  0  0  0  0  0  0  0  0  0  0  0
  -12.9630    9.5670   -1.2430 C   0  0  2  0  0  0  0  0  0  0  0  0
  -13.8730    9.9160   -0.0480 C   0  0  0  0  0  0  0  0  0  0  0  0
  -15.1520    9.0760    0.0180 C   0  0  0  0  0  0  0  0  0  0  0  0
  -14.9430    7.8090    0.7900 C   0  0  2  0  0  0  0  0  0  0  0  0
  -13.7570    7.0830    0.4410 O   0  0  0  0  0  0  0  0  0  0  0  0
  -15.0050    6.4280    0.1650 C   0  0  0  0  0  0  0  0  0  0  0  0
  -15.2860    6.2440   -1.2940 C   0  0  0  0  0  0  0  0  0  0  0  0
  -15.2780    5.2530    1.0510 C   0  0  0  0  0  0  0  0  0  0  0  0
  -11.6410    8.9970   -0.7420 C   0  0  1  0  0  0  0  0  0  0  0  0
  -11.7840    8.2630    0.6180 C   0  0  0  0  0  0  0  0  0  0  0  0
  -10.7900    7.0740    0.5910 C   0  0  0  0  0  0  0  0  0  0  0  0
   -9.8800    7.3540   -0.6280 C   0  0  1  0  0  0  0  0  0  0  0  0
   -8.8280    8.3860   -0.1150 C   0  0  0  0  0  0  0  0  0  0  0  0
   -9.1970    6.1080   -1.2810 C   0  0  2  0  0  0  0  0  0  0  0  0
   -8.2250    5.3430   -0.3660 C   0  0  0  0  0  0  0  0  0  0  0  0
   -6.8040    5.8000   -0.4210 C   0  0  0  0  0  0  0  0  0  0  0  0
   -6.2720    6.5880   -1.3740 C   0  0  0  0  0  0  0  0  0  0  0  0
   -7.1010    7.0230   -2.5890 C   0  0  1  0  0  0  0  0  0  0  0  0
   -6.2660    6.8280   -3.8820 C   0  0  0  0  0  0  0  0  0  0  0  0
   -4.9130    7.5290   -3.8160 C   0  0  0  0  0  0  0  0  0  0  0  0
   -4.0950    7.0280   -2.6290 C   0  0  2  0  0  0  0  0  0  0  0  0
   -3.7510    5.6570   -2.8520 O   0  0  0  0  0  0  0  0  0  0  0  0
   -4.8390    7.1650   -1.2710 C   0  0  0  0  0  0  0  0  0  0  0  0
   -4.9440    8.6610   -0.8840 C   0  0  0  0  0  0  0  0  0  0  0  0
   -3.9640    6.4950   -0.1780 C   0  0  0  0  0  0  0  0  0  0  0  0
   -8.5550    6.3910   -2.7000 C   0  0  1  0  0  0  0  0  0  0  0  0
   -8.4830    5.0180   -3.4370 C   0  0  0  0  0  0  0  0  0  0  0  0
   -9.4560    7.3260   -3.5890 C   0  0  0  0  0  0  0  0  0  0  0  0
  -10.2000    8.4660   -2.8670 C   0  0  0  0  0  0  0  0  0  0  0  0
  -10.9380    7.9420   -1.6320 C   0  0  2  0  0  0  0  0  0  0  0  0
  -12.0190    6.9180   -2.1190 C   0  0  0  0  0  0  0  0  0  0  0  0
  -12.5111   11.6639   -1.5195 H   0  0  0  0  0  0  0  0  0  0  0  0
  -11.8257   10.5808   -2.7780 H   0  0  0  0  0  0  0  0  0  0  0  0
  -13.5817   10.9593   -2.7780 H   0  0  0  0  0  0  0  0  0  0  0  0
  -13.4878    8.8128   -1.8478 H   0  0  0  0  0  0  0  0  0  0  0  0
  -13.3043    9.7561    0.8799 H   0  0  0  0  0  0  0  0  0  0  0  0
  -14.1828   10.9638   -0.1752 H   0  0  0  0  0  0  0  0  0  0  0  0
  -15.9411    9.6657    0.5074 H   0  0  0  0  0  0  0  0  0  0  0  0
  -15.4401    8.8083   -1.0093 H   0  0  0  0  0  0  0  0  0  0  0  0
  -15.4323    8.2409    1.6755 H   0  0  0  0  0  0  0  0  0  0  0  0
  -16.2003    5.6453   -1.4186 H   0  0  0  0  0  0  0  0  0  0  0  0
  -15.4241    7.2272   -1.7677 H   0  0  0  0  0  0  0  0  0  0  0  0
  -14.4400    5.7244   -1.7677 H   0  0  0  0  0  0  0  0  0  0  0  0
  -15.2059    5.5631    2.1039 H   0  0  0  0  0  0  0  0  0  0  0  0
  -16.2892    4.8694    0.8501 H   0  0  0  0  0  0  0  0  0  0  0  0
  -14.5395    4.4629    0.8501 H   0  0  0  0  0  0  0  0  0  0  0  0
  -11.0430    9.9197   -0.7101 H   0  0  0  0  0  0  0  0  0  0  0  0
  -11.5362    8.9452    1.4446 H   0  0  0  0  0  0  0  0  0  0  0  0
  -12.8153    7.9123    0.7711 H   0  0  0  0  0  0  0  0  0  0  0  0
  -10.1985    7.0412    1.5178 H   0  0  0  0  0  0  0  0  0  0  0  0
  -11.3023    6.1036    0.5150 H   0  0  0  0  0  0  0  0  0  0  0  0
   -8.8242    8.3897    0.9850 H   0  0  0  0  0  0  0  0  0  0  0  0
   -7.8301    8.1067   -0.4842 H   0  0  0  0  0  0  0  0  0  0  0  0
   -9.0881    9.3890   -0.4842 H   0  0  0  0  0  0  0  0  0  0  0  0
  -10.0478    5.4303   -1.4451 H   0  0  0  0  0  0  0  0  0  0  0  0
   -8.5771    5.4516    0.6704 H   0  0  0  0  0  0  0  0  0  0  0  0
   -8.2244    4.3030   -0.7243 H   0  0  0  0  0  0  0  0  0  0  0  0
   -6.1356    5.4642    0.3855 H   0  0  0  0  0  0  0  0  0  0  0  0
   -7.3179    8.0913   -2.4419 H   0  0  0  0  0  0  0  0  0  0  0  0
   -6.0983    5.7516   -4.0344 H   0  0  0  0  0  0  0  0  0  0  0  0
   -6.8315    7.2717   -4.7147 H   0  0  0  0  0  0  0  0  0  0  0  0
   -4.3586    7.3293   -4.7449 H   0  0  0  0  0  0  0  0  0  0  0  0
   -5.0833    8.6088   -3.6936 H   0  0  0  0  0  0  0  0  0  0  0  0
   -3.1955    7.6573   -2.5593 H   0  0  0  0  0  0  0  0  0  0  0  0
   -4.2300    5.3590   -3.6440 H   0  0  0  0  0  0  0  0  0  0  0  0
   -4.9507    8.7567    0.2118 H   0  0  0  0  0  0  0  0  0  0  0  0
   -4.0820    9.2073   -1.2945 H   0  0  0  0  0  0  0  0  0  0  0  0
   -5.8739    9.0815   -1.2945 H   0  0  0  0  0  0  0  0  0  0  0  0
   -4.3371    6.7807    0.8166 H   0  0  0  0  0  0  0  0  0  0  0  0
   -4.0134    5.4016   -0.2880 H   0  0  0  0  0  0  0  0  0  0  0  0
   -2.9213    6.8278   -0.2880 H   0  0  0  0  0  0  0  0  0  0  0  0
   -8.4404    4.2060   -2.6962 H   0  0  0  0  0  0  0  0  0  0  0  0
   -9.3758    4.8929   -4.0673 H   0  0  0  0  0  0  0  0  0  0  0  0
   -7.5820    4.9870   -4.0673 H   0  0  0  0  0  0  0  0  0  0  0  0
   -8.8095    7.7822   -4.3532 H   0  0  0  0  0  0  0  0  0  0  0  0
  -10.2469    6.6717   -3.9845 H   0  0  0  0  0  0  0  0  0  0  0  0
   -9.4724    9.2295   -2.5545 H   0  0  0  0  0  0  0  0  0  0  0  0
  -10.9374    8.8979   -3.5596 H   0  0  0  0  0  0  0  0  0  0  0  0
  -12.5061    6.4566   -1.2473 H   0  0  0  0  0  0  0  0  0  0  0  0
  -12.7726    7.4412   -2.7258 H   0  0  0  0  0  0  0  0  0  0  0  0
  -11.5373    6.1371   -2.7258 H   0  0  0  0  0  0  0  0  0  0  0  0
  1  2  1  0
  2  3  1  0
  3  4  1  0
  4  5  1  0
  5  6  1  0
  6  7  1  0
  7  8  1  0
  7  9  1  0
  2 10  1  0
 10 11  1  0
 11 12  1  0
 12 13  1  0
 13 14  1  1
 13 15  1  0
 15 16  1  0
 16 17  1  0
 17 18  2  0
 18 19  1  0
 19 20  1  0
 20 21  1  0
 21 22  1  0
 22 23  1  0
 22 24  1  0
 24 25  1  0
 24 26  1  0
 19 27  1  0
 27 28  1  6
 27 29  1  0
 29 30  1  0
 30 31  1  0
 31 32  1  6
  7  5  1  0
 31 10  1  0
 31 13  1  0
 27 15  1  0
 24 18  1  0
  1 33  1  0
  1 34  1  0
  1 35  1  0
  2 36  1  6
  3 37  1  0
  3 38  1  0
  4 39  1  0
  4 40  1  0
  5 41  1  1
  8 42  1  0
  8 43  1  0
  8 44  1  0
  9 45  1  0
  9 46  1  0
  9 47  1  0
 10 48  1  1
 11 49  1  0
 11 50  1  0
 12 51  1  0
 12 52  1  0
 14 53  1  0
 14 54  1  0
 14 55  1  0
 15 56  1  6
 16 57  1  0
 16 58  1  0
 17 59  1  0
 19 60  1  1
 20 61  1  0
 20 62  1  0
 21 63  1  0
 21 64  1  0
 22 65  1  1
 23 66  1  0
 25 67  1  0
 25 68  1  0
 25 69  1  0
 26 70  1  0
 26 71  1  0
 26 72  1  0
 28 73  1  0
 28 74  1  0
 28 75  1  0
 29 76  1  0
 29 77  1  0
 30 78  1  0
 30 79  1  0
 32 80  1  0
 32 81  1  0
 32 82  1  0
M  END
>  <meeko>  (10) 
{"is_sidechain": [false], "intermolecular_energy": 2.731, "internal_energy": -0.839}

$$$$
EPH_relaxed_0001_pdb2pqr_Repair_266_r2_0001_out
     RDKit          3D

 82 86  0  0  0  0  0  0  0  0999 V2000
    2.4980   18.0320   -2.8780 C   0  0  0  0  0  0  0  0  0  0  0  0
    2.0670   17.1650   -1.6920 C   0  0  2  0  0  0  0  0  0  0  0  0
    3.2530   16.8050   -0.7750 C   0  0  0  0  0  0  0  0  0  0  0  0
    4.1290   18.0040   -0.4020 C   0  0  0  0  0  0  0  0  0  0  0  0
    3.6480   18.6740    0.8500 C   0  0  2  0  0  0  0  0  0  0  0  0
    3.9720   20.0670    0.9460 O   0  0  0  0  0  0  0  0  0  0  0  0
    4.5780   19.2060    1.9240 C   0  0  0  0  0  0  0  0  0  0  0  0
    6.0650   19.0920    1.7960 C   0  0  0  0  0  0  0  0  0  0  0  0
    4.0400   19.3930    3.3080 C   0  0  0  0  0  0  0  0  0  0  0  0
    1.3930   15.8940   -2.1950 C   0  0  1  0  0  0  0  0  0  0  0  0
    1.2220   15.8790   -3.7380 C   0  0  0  0  0  0  0  0  0  0  0  0
    1.4010   14.4080   -4.1930 C   0  0  0  0  0  0  0  0  0  0  0  0
    1.3390   13.5840   -2.8860 C   0  0  1  0  0  0  0  0  0  0  0  0
   -0.1840   13.4350   -2.5790 C   0  0  0  0  0  0  0  0  0  0  0  0
    2.0620   12.1980   -2.9070 C   0  0  2  0  0  0  0  0  0  0  0  0
    1.4960   11.1820   -3.9150 C   0  0  0  0  0  0  0  0  0  0  0  0
    0.4160   10.2950   -3.3890 C   0  0  0  0  0  0  0  0  0  0  0  0
    0.1160   10.1150   -2.0890 C   0  0  0  0  0  0  0  0  0  0  0  0
    0.9620   10.7670   -0.9880 C   0  0  1  0  0  0  0  0  0  0  0  0
    1.2780    9.7190    0.1110 C   0  0  0  0  0  0  0  0  0  0  0  0
    0.0220    9.0490    0.6590 C   0  0  0  0  0  0  0  0  0  0  0  0
   -0.7620    8.3630   -0.4570 C   0  0  2  0  0  0  0  0  0  0  0  0
    0.0110    7.2670   -0.9560 O   0  0  0  0  0  0  0  0  0  0  0  0
   -1.1290    9.3190   -1.6250 C   0  0  0  0  0  0  0  0  0  0  0  0
   -2.2040   10.3290   -1.1540 C   0  0  0  0  0  0  0  0  0  0  0  0
   -1.7910    8.4720   -2.7450 C   0  0  0  0  0  0  0  0  0  0  0  0
    2.2570   11.5470   -1.4780 C   0  0  1  0  0  0  0  0  0  0  0  0
    3.4580   10.5600   -1.6000 C   0  0  0  0  0  0  0  0  0  0  0  0
    2.6630   12.6070   -0.3880 C   0  0  0  0  0  0  0  0  0  0  0  0
    2.0040   13.9960   -0.4910 C   0  0  0  0  0  0  0  0  0  0  0  0
    2.1110   14.5500   -1.9150 C   0  0  2  0  0  0  0  0  0  0  0  0
    3.6320   14.7310   -2.2450 C   0  0  0  0  0  0  0  0  0  0  0  0
    2.9588   18.9590   -2.5062 H   0  0  0  0  0  0  0  0  0  0  0  0
    3.2267   17.4801   -3.4900 H   0  0  0  0  0  0  0  0  0  0  0  0
    1.6182   18.2798   -3.4900 H   0  0  0  0  0  0  0  0  0  0  0  0
    1.3541   17.7522   -1.0946 H   0  0  0  0  0  0  0  0  0  0  0  0
    2.8547   16.3645    0.1509 H   0  0  0  0  0  0  0  0  0  0  0  0
    3.8897   16.1033   -1.3337 H   0  0  0  0  0  0  0  0  0  0  0  0
    5.1611   17.6568   -0.2465 H   0  0  0  0  0  0  0  0  0  0  0  0
    4.0782   18.7344   -1.2230 H   0  0  0  0  0  0  0  0  0  0  0  0
    2.7708   18.0118    0.8955 H   0  0  0  0  0  0  0  0  0  0  0  0
    6.5177   19.0573    2.7979 H   0  0  0  0  0  0  0  0  0  0  0  0
    6.3164   18.1719    1.2480 H   0  0  0  0  0  0  0  0  0  0  0  0
    6.4537   19.9630    1.2480 H   0  0  0  0  0  0  0  0  0  0  0  0
    4.8141   19.1239    4.0418 H   0  0  0  0  0  0  0  0  0  0  0  0
    3.7501   20.4446    3.4497 H   0  0  0  0  0  0  0  0  0  0  0  0
    3.1604   18.7479    3.4497 H   0  0  0  0  0  0  0  0  0  0  0  0
    0.4538   15.9450   -1.6247 H   0  0  0  0  0  0  0  0  0  0  0  0
    0.2200   16.2410   -4.0117 H   0  0  0  0  0  0  0  0  0  0  0  0
    1.9591   16.5353   -4.2237 H   0  0  0  0  0  0  0  0  0  0  0  0
    0.5920   14.1121   -4.8771 H   0  0  0  0  0  0  0  0  0  0  0  0
    2.3430   14.2525   -4.7394 H   0  0  0  0  0  0  0  0  0  0  0  0
   -0.3388   13.4199   -1.4900 H   0  0  0  0  0  0  0  0  0  0  0  0
   -0.7308   14.2839   -3.0153 H   0  0  0  0  0  0  0  0  0  0  0  0
   -0.5559   12.4962   -3.0153 H   0  0  0  0  0  0  0  0  0  0  0  0
    3.0639   12.4602   -3.2777 H   0  0  0  0  0  0  0  0  0  0  0  0
    1.0895   11.7420   -4.7700 H   0  0  0  0  0  0  0  0  0  0  0  0
    2.3323   10.5185   -4.1802 H   0  0  0  0  0  0  0  0  0  0  0  0
   -0.1851    9.7421   -4.1258 H   0  0  0  0  0  0  0  0  0  0  0  0
    0.3439   11.5741   -0.5678 H   0  0  0  0  0  0  0  0  0  0  0  0
    1.9321    8.9452   -0.3173 H   0  0  0  0  0  0  0  0  0  0  0  0
    1.7659   10.2459    0.9443 H   0  0  0  0  0  0  0  0  0  0  0  0
    0.3124    8.2983    1.4088 H   0  0  0  0  0  0  0  0  0  0  0  0
   -0.6170    9.8201    1.1140 H   0  0  0  0  0  0  0  0  0  0  0  0
   -1.7129    8.0153   -0.0270 H   0  0  0  0  0  0  0  0  0  0  0  0
   -0.1610    6.5000   -0.3840 H   0  0  0  0  0  0  0  0  0  0  0  0
   -2.2286   10.3522   -0.0545 H   0  0  0  0  0  0  0  0  0  0  0  0
   -1.9585   11.3307   -1.5364 H   0  0  0  0  0  0  0  0  0  0  0  0
   -3.1885   10.0216   -1.5364 H   0  0  0  0  0  0  0  0  0  0  0  0
   -2.4081    7.6824   -2.2914 H   0  0  0  0  0  0  0  0  0  0  0  0
   -2.4246    9.1198   -3.3686 H   0  0  0  0  0  0  0  0  0  0  0  0
   -1.0093    8.0136   -3.3686 H   0  0  0  0  0  0  0  0  0  0  0  0
    3.8031   10.2764   -0.5948 H   0  0  0  0  0  0  0  0  0  0  0  0
    3.1388    9.6598   -2.1456 H   0  0  0  0  0  0  0  0  0  0  0  0
    4.2793   11.0476   -2.1456 H   0  0  0  0  0  0  0  0  0  0  0  0
    2.4050   12.1883    0.5959 H   0  0  0  0  0  0  0  0  0  0  0  0
    3.7370   12.7853   -0.5455 H   0  0  0  0  0  0  0  0  0  0  0  0
    0.9421   13.9116   -0.2167 H   0  0  0  0  0  0  0  0  0  0  0  0
    2.5251   14.6827    0.1923 H   0  0  0  0  0  0  0  0  0  0  0  0
    4.2048   14.7992   -1.3084 H   0  0  0  0  0  0  0  0  0  0  0  0
    3.9856   13.8686   -2.8291 H   0  0  0  0  0  0  0  0  0  0  0  0
    3.7734   15.6523   -2.8291 H   0  0  0  0  0  0  0  0  0  0  0  0
  1  2  1  0
  2  3  1  0
  3  4  1  0
  4  5  1  0
  5  6  1  0
  6  7  1  0
  7  8  1  0
  7  9  1  0
  2 10  1  0
 10 11  1  0
 11 12  1  0
 12 13  1  0
 13 14  1  1
 13 15  1  0
 15 16  1  0
 16 17  1  0
 17 18  2  0
 18 19  1  0
 19 20  1  0
 20 21  1  0
 21 22  1  0
 22 23  1  0
 22 24  1  0
 24 25  1  0
 24 26  1  0
 19 27  1  0
 27 28  1  6
 27 29  1  0
 29 30  1  0
 30 31  1  0
 31 32  1  6
  7  5  1  0
 31 10  1  0
 31 13  1  0
 27 15  1  0
 24 18  1  0
  1 33  1  0
  1 34  1  0
  1 35  1  0
  2 36  1  1
  3 37  1  0
  3 38  1  0
  4 39  1  0
  4 40  1  0
  5 41  1  1
  8 42  1  0
  8 43  1  0
  8 44  1  0
  9 45  1  0
  9 46  1  0
  9 47  1  0
 10 48  1  1
 11 49  1  0
 11 50  1  0
 12 51  1  0
 12 52  1  0
 14 53  1  0
 14 54  1  0
 14 55  1  0
 15 56  1  6
 16 57  1  0
 16 58  1  0
 17 59  1  0
 19 60  1  1
 20 61  1  0
 20 62  1  0
 21 63  1  0
 21 64  1  0
 22 65  1  1
 23 66  1  0
 25 67  1  0
 25 68  1  0
 25 69  1  0
 26 70  1  0
 26 71  1  0
 26 72  1  0
 28 73  1  0
 28 74  1  0
 28 75  1  0
 29 76  1  0
 29 77  1  0
 30 78  1  0
 30 79  1  0
 32 80  1  0
 32 81  1  0
 32 82  1  0
M  END
>  <meeko>  (11) 
{"is_sidechain": [false], "intermolecular_energy": 2.731, "internal_energy": -0.839}

$$$$
EPH_relaxed_0001_pdb2pqr_Repair_266_r2_0001_out
     RDKit          3D

 82 86  0  0  0  0  0  0  0  0999 V2000
    0.2310   15.7990   -8.3650 C   0  0  0  0  0  0  0  0  0  0  0  0
    1.4270   16.0530   -7.4420 C   0  0  2  0  0  0  0  0  0  0  0  0
    2.7050   15.3490   -7.9410 C   0  0  0  0  0  0  0  0  0  0  0  0
    2.5020   14.5450   -9.2280 C   0  0  0  0  0  0  0  0  0  0  0  0
    2.9300   15.3180  -10.4380 C   0  0  2  0  0  0  0  0  0  0  0  0
    2.0570   16.3950  -10.8000 O   0  0  0  0  0  0  0  0  0  0  0  0
    2.1600   15.3190  -11.7460 C   0  0  0  0  0  0  0  0  0  0  0  0
    0.8990   14.5300  -11.9100 C   0  0  0  0  0  0  0  0  0  0  0  0
    2.8850   15.6870  -13.0030 C   0  0  0  0  0  0  0  0  0  0  0  0
    1.0980   15.5940   -6.0270 C   0  0  1  0  0  0  0  0  0  0  0  0
   -0.2890   16.0950   -5.5430 C   0  0  0  0  0  0  0  0  0  0  0  0
   -0.8810   14.9780   -4.6460 C   0  0  0  0  0  0  0  0  0  0  0  0
    0.3080   14.0260   -4.3730 C   0  0  1  0  0  0  0  0  0  0  0  0
    1.1080   14.7050   -3.2180 C   0  0  0  0  0  0  0  0  0  0  0  0
   -0.0570   12.5450   -4.0310 C   0  0  2  0  0  0  0  0  0  0  0  0
   -0.8780   12.3570   -2.7430 C   0  0  0  0  0  0  0  0  0  0  0  0
   -0.0770   12.1510   -1.5000 C   0  0  0  0  0  0  0  0  0  0  0  0
    1.2310   11.8360   -1.4560 C   0  0  0  0  0  0  0  0  0  0  0  0
    2.0180   11.5570   -2.7430 C   0  0  1  0  0  0  0  0  0  0  0  0
    2.8650   10.2700   -2.5630 C   0  0  0  0  0  0  0  0  0  0  0  0
    3.7630   10.3290   -1.3310 C   0  0  0  0  0  0  0  0  0  0  0  0
    2.9390   10.5490   -0.0650 C   0  0  2  0  0  0  0  0  0  0  0  0
    2.1290    9.3920    0.1650 O   0  0  0  0  0  0  0  0  0  0  0  0
    2.0370   11.8130   -0.1340 C   0  0  0  0  0  0  0  0  0  0  0  0
    2.9180   13.0850   -0.0790 C   0  0  0  0  0  0  0  0  0  0  0  0
    1.1550   11.8400    1.1440 C   0  0  0  0  0  0  0  0  0  0  0  0
    1.1690   11.5460   -4.0860 C   0  0  1  0  0  0  0  0  0  0  0  0
    0.5740   10.1250   -4.3280 C   0  0  0  0  0  0  0  0  0  0  0  0
    2.1250   11.8400   -5.3020 C   0  0  0  0  0  0  0  0  0  0  0  0
    2.3520   13.3190   -5.6660 C   0  0  0  0  0  0  0  0  0  0  0  0
    1.0200   14.0670   -5.7750 C   0  0  2  0  0  0  0  0  0  0  0  0
    0.2020   13.4210   -6.9440 C   0  0  0  0  0  0  0  0  0  0  0  0
   -0.6665   15.6084   -7.7582 H   0  0  0  0  0  0  0  0  0  0  0  0
    0.0638   16.6817   -8.9998 H   0  0  0  0  0  0  0  0  0  0  0  0
    0.4369   14.9246   -8.9998 H   0  0  0  0  0  0  0  0  0  0  0  0
    1.6237   17.1353   -7.4451 H   0  0  0  0  0  0  0  0  0  0  0  0
    3.4730   16.1143   -8.1270 H   0  0  0  0  0  0  0  0  0  0  0  0
    3.0047   14.6350   -7.1597 H   0  0  0  0  0  0  0  0  0  0  0  0
    3.0947   13.6203   -9.1678 H   0  0  0  0  0  0  0  0  0  0  0  0
    1.4297   14.3205   -9.3263 H   0  0  0  0  0  0  0  0  0  0  0  0
    3.9903   15.1393  -10.2060 H   0  0  0  0  0  0  0  0  0  0  0  0
    0.4937   14.2764  -10.9193 H   0  0  0  0  0  0  0  0  0  0  0  0
    0.1618   15.1282  -12.4656 H   0  0  0  0  0  0  0  0  0  0  0  0
    1.1146   13.6054  -12.4656 H   0  0  0  0  0  0  0  0  0  0  0  0
    3.8391   16.1713  -12.7476 H   0  0  0  0  0  0  0  0  0  0  0  0
    3.0808   14.7792  -13.5925 H   0  0  0  0  0  0  0  0  0  0  0  0
    2.2678   16.3809  -13.5925 H   0  0  0  0  0  0  0  0  0  0  0  0
    1.9581   16.0209   -5.4903 H   0  0  0  0  0  0  0  0  0  0  0  0
   -0.1755   17.0242   -4.9653 H   0  0  0  0  0  0  0  0  0  0  0  0
   -0.9507   16.3088   -6.3953 H   0  0  0  0  0  0  0  0  0  0  0  0
   -1.2658   15.3985   -3.7052 H   0  0  0  0  0  0  0  0  0  0  0  0
   -1.7268   14.4627   -5.1247 H   0  0  0  0  0  0  0  0  0  0  0  0
    0.7107   14.3678   -2.2492 H   0  0  0  0  0  0  0  0  0  0  0  0
    2.1698   14.4282   -3.2953 H   0  0  0  0  0  0  0  0  0  0  0  0
    1.0074   15.7977   -3.2953 H   0  0  0  0  0  0  0  0  0  0  0  0
   -0.7293   12.2703   -4.8572 H   0  0  0  0  0  0  0  0  0  0  0  0
   -1.4993   13.2537   -2.6022 H   0  0  0  0  0  0  0  0  0  0  0  0
   -1.4607   11.4349   -2.8856 H   0  0  0  0  0  0  0  0  0  0  0  0
   -0.5998   12.2664   -0.5391 H   0  0  0  0  0  0  0  0  0  0  0  0
    2.6809   12.4228   -2.8881 H   0  0  0  0  0  0  0  0  0  0  0  0
    2.1849    9.4112   -2.4630 H   0  0  0  0  0  0  0  0  0  0  0  0
    3.5143   10.1711   -3.4454 H   0  0  0  0  0  0  0  0  0  0  0  0
    4.3141    9.3812   -1.2416 H   0  0  0  0  0  0  0  0  0  0  0  0
    4.4615   11.1709   -1.4458 H   0  0  0  0  0  0  0  0  0  0  0  0
    3.6440   10.7111    0.7637 H   0  0  0  0  0  0  0  0  0  0  0  0
    1.3270    9.6820    0.6310 H   0  0  0  0  0  0  0  0  0  0  0  0
    3.1057   13.3559    0.9705 H   0  0  0  0  0  0  0  0  0  0  0  0
    3.8755   12.8900   -0.5842 H   0  0  0  0  0  0  0  0  0  0  0  0
    2.3988   13.9128   -0.5842 H   0  0  0  0  0  0  0  0  0  0  0  0
    1.7998   11.8203    2.0350 H   0  0  0  0  0  0  0  0  0  0  0  0
    0.5477   12.7572    1.1511 H   0  0  0  0  0  0  0  0  0  0  0  0
    0.4928   10.9617    1.1511 H   0  0  0  0  0  0  0  0  0  0  0  0
    0.3719    9.6424   -3.3604 H   0  0  0  0  0  0  0  0  0  0  0  0
   -0.3633   10.2120   -4.8972 H   0  0  0  0  0  0  0  0  0  0  0  0
    1.2936    9.5182   -4.8972 H   0  0  0  0  0  0  0  0  0  0  0  0
    3.1059   11.4008   -5.0677 H   0  0  0  0  0  0  0  0  0  0  0  0
    1.6207   11.4029   -6.1764 H   0  0  0  0  0  0  0  0  0  0  0  0
    2.9672   13.7913   -4.8860 H   0  0  0  0  0  0  0  0  0  0  0  0
    2.8618   13.3665   -6.6396 H   0  0  0  0  0  0  0  0  0  0  0  0
   -0.5970   12.7900   -6.5275 H   0  0  0  0  0  0  0  0  0  0  0  0
   -0.2424   14.2145   -7.5628 H   0  0  0  0  0  0  0  0  0  0  0  0
    0.8709   12.8048   -7.5628 H   0  0  0  0  0  0  0  0  0  0  0  0
  1  2  1  0
  2  3  1  0
  3  4  1  0
  4  5  1  0
  5  6  1  0
  6  7  1  0
  7  8  1  0
  7  9  1  0
  2 10  1  0
 10 11  1  0
 11 12  1  0
 12 13  1  0
 13 14  1  1
 13 15  1  0
 15 16  1  0
 16 17  1  0
 17 18  2  0
 18 19  1  0
 19 20  1  0
 20 21  1  0
 21 22  1  0
 22 23  1  0
 22 24  1  0
 24 25  1  0
 24 26  1  0
 19 27  1  0
 27 28  1  6
 27 29  1  0
 29 30  1  0
 30 31  1  0
 31 32  1  6
  7  5  1  0
 31 10  1  0
 31 13  1  0
 27 15  1  0
 24 18  1  0
  1 33  1  0
  1 34  1  0
  1 35  1  0
  2 36  1  1
  3 37  1  0
  3 38  1  0
  4 39  1  0
  4 40  1  0
  5 41  1  6
  8 42  1  0
  8 43  1  0
  8 44  1  0
  9 45  1  0
  9 46  1  0
  9 47  1  0
 10 48  1  1
 11 49  1  0
 11 50  1  0
 12 51  1  0
 12 52  1  0
 14 53  1  0
 14 54  1  0
 14 55  1  0
 15 56  1  6
 16 57  1  0
 16 58  1  0
 17 59  1  0
 19 60  1  6
 20 61  1  0
 20 62  1  0
 21 63  1  0
 21 64  1  0
 22 65  1  1
 23 66  1  0
 25 67  1  0
 25 68  1  0
 25 69  1  0
 26 70  1  0
 26 71  1  0
 26 72  1  0
 28 73  1  0
 28 74  1  0
 28 75  1  0
 29 76  1  0
 29 77  1  0
 30 78  1  0
 30 79  1  0
 32 80  1  0
 32 81  1  0
 32 82  1  0
M  END
>  <meeko>  (12) 
{"is_sidechain": [false], "intermolecular_energy": 2.731, "internal_energy": -0.839}

$$$$
EPH_relaxed_0001_pdb2pqr_Repair_266_r2_0001_out
     RDKit          3D

 82 86  0  0  0  0  0  0  0  0999 V2000
   -0.4800   16.1740   -5.7380 C   0  0  0  0  0  0  0  0  0  0  0  0
    0.4950   15.4150   -6.6430 C   0  0  2  0  0  0  0  0  0  0  0  0
   -0.0070   15.3320   -8.0980 C   0  0  0  0  0  0  0  0  0  0  0  0
    0.5710   16.4170   -9.0110 C   0  0  0  0  0  0  0  0  0  0  0  0
    1.9550   16.0750   -9.4720 C   0  0  2  0  0  0  0  0  0  0  0  0
    2.3310   16.6590  -10.7260 O   0  0  0  0  0  0  0  0  0  0  0  0
    2.2440   15.2250  -10.6960 C   0  0  0  0  0  0  0  0  0  0  0  0
    1.1380   14.6650  -11.5350 C   0  0  0  0  0  0  0  0  0  0  0  0
    3.5700   14.5380  -10.7930 C   0  0  0  0  0  0  0  0  0  0  0  0
    0.7310   14.0130   -6.0930 C   0  0  1  0  0  0  0  0  0  0  0  0
    1.8750   13.2670   -6.8290 C   0  0  0  0  0  0  0  0  0  0  0  0
    2.5930   12.3920   -5.7690 C   0  0  0  0  0  0  0  0  0  0  0  0
    1.6460   12.4050   -4.5460 C   0  0  1  0  0  0  0  0  0  0  0  0
    0.5550   11.3370   -4.8720 C   0  0  0  0  0  0  0  0  0  0  0  0
    2.3110   12.1450   -3.1550 C   0  0  2  0  0  0  0  0  0  0  0  0
    2.9700   10.7650   -2.9940 C   0  0  0  0  0  0  0  0  0  0  0  0
    2.0810    9.6930   -2.4560 C   0  0  0  0  0  0  0  0  0  0  0  0
    0.8960    9.8910   -1.8490 C   0  0  0  0  0  0  0  0  0  0  0  0
    0.3830   11.3080   -1.5660 C   0  0  1  0  0  0  0  0  0  0  0  0
   -0.1420   11.3880   -0.1090 C   0  0  0  0  0  0  0  0  0  0  0  0
   -1.1860   10.3180    0.1960 C   0  0  0  0  0  0  0  0  0  0  0  0
   -0.6200    8.9200   -0.0410 C   0  0  2  0  0  0  0  0  0  0  0  0
    0.4080    8.6690    0.9220 O   0  0  0  0  0  0  0  0  0  0  0  0
   -0.0520    8.7250   -1.4750 C   0  0  0  0  0  0  0  0  0  0  0  0
   -1.2150    8.6970   -2.4960 C   0  0  0  0  0  0  0  0  0  0  0  0
    0.6140    7.3240   -1.5370 C   0  0  0  0  0  0  0  0  0  0  0  0
    1.3840   12.4910   -1.9200 C   0  0  1  0  0  0  0  0  0  0  0  0
    2.3340   12.7630   -0.7130 C   0  0  0  0  0  0  0  0  0  0  0  0
    0.5590   13.8140   -2.1420 C   0  0  0  0  0  0  0  0  0  0  0  0
    0.0310   14.0720   -3.5660 C   0  0  0  0  0  0  0  0  0  0  0  0
    1.1430   13.8930   -4.6040 C   0  0  2  0  0  0  0  0  0  0  0  0
    2.2450   14.9690   -4.3150 C   0  0  0  0  0  0  0  0  0  0  0  0
   -0.2299   15.9793   -4.6847 H   0  0  0  0  0  0  0  0  0  0  0  0
   -0.4035   17.2526   -5.9397 H   0  0  0  0  0  0  0  0  0  0  0  0
   -1.5069   15.8352   -5.9397 H   0  0  0  0  0  0  0  0  0  0  0  0
    1.4416   15.9753   -6.6521 H   0  0  0  0  0  0  0  0  0  0  0  0
    0.2722   14.3495   -8.5063 H   0  0  0  0  0  0  0  0  0  0  0  0
   -1.0965   15.4809   -8.0713 H   0  0  0  0  0  0  0  0  0  0  0  0
   -0.0805   16.5270   -9.8904 H   0  0  0  0  0  0  0  0  0  0  0  0
    0.6226   17.3548   -8.4384 H   0  0  0  0  0  0  0  0  0  0  0  0
    2.3114   16.0177   -8.4329 H   0  0  0  0  0  0  0  0  0  0  0  0
    0.3485   14.2653  -10.8816 H   0  0  0  0  0  0  0  0  0  0  0  0
    0.7207   15.4604  -12.1700 H   0  0  0  0  0  0  0  0  0  0  0  0
    1.5321   13.8578  -12.1700 H   0  0  0  0  0  0  0  0  0  0  0  0
    3.9546   14.3388   -9.7819 H   0  0  0  0  0  0  0  0  0  0  0  0
    3.4519   13.5877  -11.3342 H   0  0  0  0  0  0  0  0  0  0  0  0
    4.2782   15.1826  -11.3342 H   0  0  0  0  0  0  0  0  0  0  0  0
   -0.2717   13.5859   -6.2416 H   0  0  0  0  0  0  0  0  0  0  0  0
    1.4617   12.6326   -7.6269 H   0  0  0  0  0  0  0  0  0  0  0  0
    2.5744   13.9772   -7.2943 H   0  0  0  0  0  0  0  0  0  0  0  0
    2.7320   11.3664   -6.1416 H   0  0  0  0  0  0  0  0  0  0  0  0
    3.5958   12.7721   -5.5242 H   0  0  0  0  0  0  0  0  0  0  0  0
    0.1440   10.9347   -3.9343 H   0  0  0  0  0  0  0  0  0  0  0  0
   -0.2521   11.8037   -5.4557 H   0  0  0  0  0  0  0  0  0  0  0  0
    1.0044   10.5201   -5.4557 H   0  0  0  0  0  0  0  0  0  0  0  0
    3.1369   12.8716   -3.1486 H   0  0  0  0  0  0  0  0  0  0  0  0
    3.3309   10.4433   -3.9820 H   0  0  0  0  0  0  0  0  0  0  0  0
    3.7725   10.8954   -2.2530 H   0  0  0  0  0  0  0  0  0  0  0  0
    2.4234    8.6533   -2.5649 H   0  0  0  0  0  0  0  0  0  0  0  0
   -0.4448   11.4778   -2.2702 H   0  0  0  0  0  0  0  0  0  0  0  0
    0.7064   11.2592    0.5791 H   0  0  0  0  0  0  0  0  0  0  0  0
   -0.6221   12.3693    0.0196 H   0  0  0  0  0  0  0  0  0  0  0  0
   -1.4963   10.4072    1.2475 H   0  0  0  0  0  0  0  0  0  0  0  0
   -2.0465   10.4664   -0.4729 H   0  0  0  0  0  0  0  0  0  0  0  0
   -1.4490    8.2053    0.0684 H   0  0  0  0  0  0  0  0  0  0  0  0
    0.4320    9.4270    1.5300 H   0  0  0  0  0  0  0  0  0  0  0  0
   -2.1744    8.6739   -1.9584 H   0  0  0  0  0  0  0  0  0  0  0  0
   -1.1702    9.5965   -3.1276 H   0  0  0  0  0  0  0  0  0  0  0  0
   -1.1269    7.8007   -3.1276 H   0  0  0  0  0  0  0  0  0  0  0  0
    0.7891    6.9557   -0.5154 H   0  0  0  0  0  0  0  0  0  0  0  0
   -0.0487    6.6262   -2.0698 H   0  0  0  0  0  0  0  0  0  0  0  0
    1.5736    7.3974   -2.0698 H   0  0  0  0  0  0  0  0  0  0  0  0
    1.7858   12.6061    0.2277 H   0  0  0  0  0  0  0  0  0  0  0  0
    3.1903   12.0739   -0.7578 H   0  0  0  0  0  0  0  0  0  0  0  0
    2.6958   13.8008   -0.7578 H   0  0  0  0  0  0  0  0  0  0  0  0
   -0.3082   13.7829   -1.4660 H   0  0  0  0  0  0  0  0  0  0  0  0
    1.2677   14.6319   -1.9450 H   0  0  0  0  0  0  0  0  0  0  0  0
   -0.7811   13.3624   -3.7827 H   0  0  0  0  0  0  0  0  0  0  0  0
   -0.3371   15.1071   -3.6213 H   0  0  0  0  0  0  0  0  0  0  0  0
    2.3660   15.0871   -3.2281 H   0  0  0  0  0  0  0  0  0  0  0  0
    3.1987   14.6450   -4.7570 H   0  0  0  0  0  0  0  0  0  0  0  0
    1.9438   15.9302   -4.7570 H   0  0  0  0  0  0  0  0  0  0  0  0
  1  2  1  0
  2  3  1  0
  3  4  1  0
  4  5  1  0
  5  6  1  0
  6  7  1  0
  7  8  1  0
  7  9  1  0
  2 10  1  0
 10 11  1  0
 11 12  1  0
 12 13  1  0
 13 14  1  6
 13 15  1  0
 15 16  1  0
 16 17  1  0
 17 18  2  0
 18 19  1  0
 19 20  1  0
 20 21  1  0
 21 22  1  0
 22 23  1  0
 22 24  1  0
 24 25  1  0
 24 26  1  0
 19 27  1  0
 27 28  1  1
 27 29  1  0
 29 30  1  0
 30 31  1  0
 31 32  1  1
  7  5  1  0
 31 10  1  0
 31 13  1  0
 27 15  1  0
 24 18  1  0
  1 33  1  0
  1 34  1  0
  1 35  1  0
  2 36  1  6
  3 37  1  0
  3 38  1  0
  4 39  1  0
  4 40  1  0
  5 41  1  1
  8 42  1  0
  8 43  1  0
  8 44  1  0
  9 45  1  0
  9 46  1  0
  9 47  1  0
 10 48  1  1
 11 49  1  0
 11 50  1  0
 12 51  1  0
 12 52  1  0
 14 53  1  0
 14 54  1  0
 14 55  1  0
 15 56  1  1
 16 57  1  0
 16 58  1  0
 17 59  1  0
 19 60  1  6
 20 61  1  0
 20 62  1  0
 21 63  1  0
 21 64  1  0
 22 65  1  1
 23 66  1  0
 25 67  1  0
 25 68  1  0
 25 69  1  0
 26 70  1  0
 26 71  1  0
 26 72  1  0
 28 73  1  0
 28 74  1  0
 28 75  1  0
 29 76  1  0
 29 77  1  0
 30 78  1  0
 30 79  1  0
 32 80  1  0
 32 81  1  0
 32 82  1  0
M  END
>  <meeko>  (13) 
{"is_sidechain": [false], "intermolecular_energy": 2.731, "internal_energy": -0.839}

$$$$
EPH_relaxed_0001_pdb2pqr_Repair_266_r2_0001_out
     RDKit          3D

 82 86  0  0  0  0  0  0  0  0999 V2000
    0.8670   14.4560   -5.0400 C   0  0  0  0  0  0  0  0  0  0  0  0
    0.8320   13.8450   -3.6360 C   0  0  2  0  0  0  0  0  0  0  0  0
    2.1970   13.9430   -2.9260 C   0  0  0  0  0  0  0  0  0  0  0  0
    2.2810   15.0850   -1.9090 C   0  0  0  0  0  0  0  0  0  0  0  0
    1.4620   16.2660   -2.3330 C   0  0  2  0  0  0  0  0  0  0  0  0
    2.0770   17.0960   -3.3270 O   0  0  0  0  0  0  0  0  0  0  0  0
    1.8530   17.7030   -2.0440 C   0  0  0  0  0  0  0  0  0  0  0  0
    3.1080   18.0350   -1.3000 C   0  0  0  0  0  0  0  0  0  0  0  0
    0.7840   18.7510   -2.0510 C   0  0  0  0  0  0  0  0  0  0  0  0
    0.3890   12.3880   -3.7140 C   0  0  1  0  0  0  0  0  0  0  0  0
    1.5440   11.4330   -4.1160 C   0  0  0  0  0  0  0  0  0  0  0  0
    1.3130   10.1040   -3.3520 C   0  0  0  0  0  0  0  0  0  0  0  0
   -0.1290   10.2170   -2.8020 C   0  0  1  0  0  0  0  0  0  0  0  0
   -1.0470    9.8320   -4.0040 C   0  0  0  0  0  0  0  0  0  0  0  0
   -0.4530    9.3640   -1.5320 C   0  0  2  0  0  0  0  0  0  0  0  0
   -0.3340    7.8420   -1.7210 C   0  0  0  0  0  0  0  0  0  0  0  0
   -1.5850    7.1540   -2.1570 C   0  0  0  0  0  0  0  0  0  0  0  0
   -2.8230    7.6810   -2.1150 C   0  0  0  0  0  0  0  0  0  0  0  0
   -3.0700    9.0640   -1.4980 C   0  0  1  0  0  0  0  0  0  0  0  0
   -4.2960    8.9960   -0.5500 C   0  0  0  0  0  0  0  0  0  0  0  0
   -5.5360    8.4340   -1.2370 C   0  0  0  0  0  0  0  0  0  0  0  0
   -5.2690    7.0350   -1.7870 C   0  0  2  0  0  0  0  0  0  0  0  0
   -5.0600    6.1410   -0.6890 O   0  0  0  0  0  0  0  0  0  0  0  0
   -4.0490    6.9770   -2.7480 C   0  0  0  0  0  0  0  0  0  0  0  0
   -4.3950    7.7010   -4.0730 C   0  0  0  0  0  0  0  0  0  0  0  0
   -3.8030    5.4900   -3.1170 C   0  0  0  0  0  0  0  0  0  0  0  0
   -1.8100    9.7540   -0.8190 C   0  0  1  0  0  0  0  0  0  0  0  0
   -1.6830    9.2880    0.6640 C   0  0  0  0  0  0  0  0  0  0  0  0
   -2.0380   11.3120   -0.7770 C   0  0  0  0  0  0  0  0  0  0  0  0
   -1.5880   12.1130   -2.0130 C   0  0  0  0  0  0  0  0  0  0  0  0
   -0.1580   11.7410   -2.4170 C   0  0  2  0  0  0  0  0  0  0  0  0
    0.7920   12.1370   -1.2360 C   0  0  0  0  0  0  0  0  0  0  0  0
    0.9297   15.5514   -4.9617 H   0  0  0  0  0  0  0  0  0  0  0  0
    1.7449   14.0763   -5.5833 H   0  0  0  0  0  0  0  0  0  0  0  0
   -0.0485   14.1791   -5.5833 H   0  0  0  0  0  0  0  0  0  0  0  0
    0.1085   14.4224   -3.0418 H   0  0  0  0  0  0  0  0  0  0  0  0
    2.3838   12.9951   -2.4001 H   0  0  0  0  0  0  0  0  0  0  0  0
    2.9492   14.1475   -3.7021 H   0  0  0  0  0  0  0  0  0  0  0  0
    1.9113   14.7251   -0.9375 H   0  0  0  0  0  0  0  0  0  0  0  0
    3.3313   15.4039   -1.8375 H   0  0  0  0  0  0  0  0  0  0  0  0
    0.5290   15.7076   -2.1666 H   0  0  0  0  0  0  0  0  0  0  0  0
    2.9170   17.9845   -0.2179 H   0  0  0  0  0  0  0  0  0  0  0  0
    3.8945   17.3140   -1.5676 H   0  0  0  0  0  0  0  0  0  0  0  0
    3.4351   19.0506   -1.5676 H   0  0  0  0  0  0  0  0  0  0  0  0
    0.5187   19.0111   -1.0156 H   0  0  0  0  0  0  0  0  0  0  0  0
    1.1527   19.6473   -2.5713 H   0  0  0  0  0  0  0  0  0  0  0  0
   -0.1049   18.3646   -2.5713 H   0  0  0  0  0  0  0  0  0  0  0  0
   -0.4165   12.4797   -4.4575 H   0  0  0  0  0  0  0  0  0  0  0  0
    1.5269   11.2538   -5.2012 H   0  0  0  0  0  0  0  0  0  0  0  0
    2.5221   11.8685   -3.8635 H   0  0  0  0  0  0  0  0  0  0  0  0
    1.4032    9.2441   -4.0321 H   0  0  0  0  0  0  0  0  0  0  0  0
    2.0534    9.9470   -2.5537 H   0  0  0  0  0  0  0  0  0  0  0  0
   -1.9993    9.4326   -3.6249 H   0  0  0  0  0  0  0  0  0  0  0  0
   -1.2417   10.7243   -4.6171 H   0  0  0  0  0  0  0  0  0  0  0  0
   -0.5470    9.0678   -4.6171 H   0  0  0  0  0  0  0  0  0  0  0  0
    0.3598    9.6438   -0.8456 H   0  0  0  0  0  0  0  0  0  0  0  0
    0.4399    7.6531   -2.4796 H   0  0  0  0  0  0  0  0  0  0  0  0
   -0.0897    7.4305   -0.7306 H   0  0  0  0  0  0  0  0  0  0  0  0
   -1.4869    6.1296   -2.5455 H   0  0  0  0  0  0  0  0  0  0  0  0
   -3.2863    9.7392   -2.3390 H   0  0  0  0  0  0  0  0  0  0  0  0
   -4.0447    8.3522    0.3058 H   0  0  0  0  0  0  0  0  0  0  0  0
   -4.5280   10.0226   -0.2300 H   0  0  0  0  0  0  0  0  0  0  0  0
   -6.3590    8.3834   -0.5089 H   0  0  0  0  0  0  0  0  0  0  0  0
   -5.8031    9.0952   -2.0746 H   0  0  0  0  0  0  0  0  0  0  0  0
   -6.1479    6.7393   -2.3787 H   0  0  0  0  0  0  0  0  0  0  0  0
   -4.9020    6.6810    0.1040 H   0  0  0  0  0  0  0  0  0  0  0  0
   -4.8594    8.6728   -3.8494 H   0  0  0  0  0  0  0  0  0  0  0  0
   -3.4753    7.8595   -4.6553 H   0  0  0  0  0  0  0  0  0  0  0  0
   -5.0960    7.0849   -4.6553 H   0  0  0  0  0  0  0  0  0  0  0  0
   -3.7046    4.8953   -2.1969 H   0  0  0  0  0  0  0  0  0  0  0  0
   -4.6511    5.1137   -3.7079 H   0  0  0  0  0  0  0  0  0  0  0  0
   -2.8789    5.4069   -3.7079 H   0  0  0  0  0  0  0  0  0  0  0  0
   -1.9124   10.1299    1.3338 H   0  0  0  0  0  0  0  0  0  0  0  0
   -2.3900    8.4666    0.8521 H   0  0  0  0  0  0  0  0  0  0  0  0
   -0.6570    8.9389    0.8521 H   0  0  0  0  0  0  0  0  0  0  0  0
   -3.1154   11.4871   -0.6411 H   0  0  0  0  0  0  0  0  0  0  0  0
   -1.4048   11.6736    0.0466 H   0  0  0  0  0  0  0  0  0  0  0  0
   -2.2669   11.8941   -2.8503 H   0  0  0  0  0  0  0  0  0  0  0  0
   -1.6149   13.1844   -1.7653 H   0  0  0  0  0  0  0  0  0  0  0  0
    0.2927   11.9289   -0.2782 H   0  0  0  0  0  0  0  0  0  0  0  0
    1.7208   11.5511   -1.3003 H   0  0  0  0  0  0  0  0  0  0  0  0
    1.0296   13.2091   -1.3003 H   0  0  0  0  0  0  0  0  0  0  0  0
  1  2  1  0
  2  3  1  0
  3  4  1  0
  4  5  1  0
  5  6  1  0
  6  7  1  0
  7  8  1  0
  7  9  1  0
  2 10  1  0
 10 11  1  0
 11 12  1  0
 12 13  1  0
 13 14  1  6
 13 15  1  0
 15 16  1  0
 16 17  1  0
 17 18  2  0
 18 19  1  0
 19 20  1  0
 20 21  1  0
 21 22  1  0
 22 23  1  0
 22 24  1  0
 24 25  1  0
 24 26  1  0
 19 27  1  0
 27 28  1  1
 27 29  1  0
 29 30  1  0
 30 31  1  0
 31 32  1  1
  7  5  1  0
 31 10  1  0
 31 13  1  0
 27 15  1  0
 24 18  1  0
  1 33  1  0
  1 34  1  0
  1 35  1  0
  2 36  1  1
  3 37  1  0
  3 38  1  0
  4 39  1  0
  4 40  1  0
  5 41  1  6
  8 42  1  0
  8 43  1  0
  8 44  1  0
  9 45  1  0
  9 46  1  0
  9 47  1  0
 10 48  1  6
 11 49  1  0
 11 50  1  0
 12 51  1  0
 12 52  1  0
 14 53  1  0
 14 54  1  0
 14 55  1  0
 15 56  1  1
 16 57  1  0
 16 58  1  0
 17 59  1  0
 19 60  1  6
 20 61  1  0
 20 62  1  0
 21 63  1  0
 21 64  1  0
 22 65  1  6
 23 66  1  0
 25 67  1  0
 25 68  1  0
 25 69  1  0
 26 70  1  0
 26 71  1  0
 26 72  1  0
 28 73  1  0
 28 74  1  0
 28 75  1  0
 29 76  1  0
 29 77  1  0
 30 78  1  0
 30 79  1  0
 32 80  1  0
 32 81  1  0
 32 82  1  0
M  END
>  <meeko>  (14) 
{"is_sidechain": [false], "intermolecular_energy": 2.731, "internal_energy": -0.839}

$$$$
EPH_relaxed_0001_pdb2pqr_Repair_266_r2_0001_out
     RDKit          3D

 82 86  0  0  0  0  0  0  0  0999 V2000
    1.1800   13.5430   -4.4330 C   0  0  0  0  0  0  0  0  0  0  0  0
    1.4190   12.8510   -3.0880 C   0  0  2  0  0  0  0  0  0  0  0  0
    2.9200   12.7090   -2.7660 C   0  0  0  0  0  0  0  0  0  0  0  0
    3.6670   11.7700   -3.7150 C   0  0  0  0  0  0  0  0  0  0  0  0
    5.1090   11.6260   -3.3320 C   0  0  2  0  0  0  0  0  0  0  0  0
    6.0190   12.4020   -4.1230 O   0  0  0  0  0  0  0  0  0  0  0  0
    6.1510   10.9750   -4.2230 C   0  0  0  0  0  0  0  0  0  0  0  0
    5.7930   10.4240   -5.5680 C   0  0  0  0  0  0  0  0  0  0  0  0
    7.3980   10.4390   -3.5920 C   0  0  0  0  0  0  0  0  0  0  0  0
    0.7540   11.4790   -3.0840 C   0  0  1  0  0  0  0  0  0  0  0  0
    1.7810   10.3170   -3.0310 C   0  0  0  0  0  0  0  0  0  0  0  0
    1.1370    9.1890   -2.1840 C   0  0  0  0  0  0  0  0  0  0  0  0
   -0.3500    9.5960   -2.0590 C   0  0  1  0  0  0  0  0  0  0  0  0
   -1.0050    9.1360   -3.3990 C   0  0  0  0  0  0  0  0  0  0  0  0
   -1.1180    9.0340   -0.8180 C   0  0  2  0  0  0  0  0  0  0  0  0
   -1.2330    7.5010   -0.7610 C   0  0  0  0  0  0  0  0  0  0  0  0
   -2.4440    6.9280   -1.4180 C   0  0  0  0  0  0  0  0  0  0  0  0
   -3.5400    7.6200   -1.7790 C   0  0  0  0  0  0  0  0  0  0  0  0
   -3.6760    9.1110   -1.4420 C   0  0  1  0  0  0  0  0  0  0  0  0
   -5.0860    9.3830   -0.8550 C   0  0  0  0  0  0  0  0  0  0  0  0
   -6.2050    8.8860   -1.7660 C   0  0  0  0  0  0  0  0  0  0  0  0
   -6.0680    7.3890   -2.0300 C   0  0  2  0  0  0  0  0  0  0  0  0
   -6.2940    6.6830   -0.8060 O   0  0  0  0  0  0  0  0  0  0  0  0
   -4.6840    6.9930   -2.6140 C   0  0  0  0  0  0  0  0  0  0  0  0
   -4.5640    7.5130   -4.0680 C   0  0  0  0  0  0  0  0  0  0  0  0
   -4.6270    5.4440   -2.7010 C   0  0  0  0  0  0  0  0  0  0  0  0
   -2.5140    9.7290   -0.5510 C   0  0  1  0  0  0  0  0  0  0  0  0
   -2.8340    9.5190    0.9600 C   0  0  0  0  0  0  0  0  0  0  0  0
   -2.4620   11.2860   -0.7820 C   0  0  0  0  0  0  0  0  0  0  0  0
   -1.5910   11.7860   -1.9500 C   0  0  0  0  0  0  0  0  0  0  0  0
   -0.1970   11.1530   -1.9050 C   0  0  2  0  0  0  0  0  0  0  0  0
    0.4960   11.6160   -0.5780 C   0  0  0  0  0  0  0  0  0  0  0  0
    0.8254   14.5697   -4.2592 H   0  0  0  0  0  0  0  0  0  0  0  0
    2.1204   13.5714   -5.0030 H   0  0  0  0  0  0  0  0  0  0  0  0
    0.4225   12.9850   -5.0030 H   0  0  0  0  0  0  0  0  0  0  0  0
    0.9723   13.4837   -2.3069 H   0  0  0  0  0  0  0  0  0  0  0  0
    3.3837   13.7046   -2.8265 H   0  0  0  0  0  0  0  0  0  0  0  0
    2.9926   12.2723   -1.7590 H   0  0  0  0  0  0  0  0  0  0  0  0
    3.1897   10.7794   -3.6851 H   0  0  0  0  0  0  0  0  0  0  0  0
    3.6224   12.1990   -4.7269 H   0  0  0  0  0  0  0  0  0  0  0  0
    4.8374   11.4685   -2.2778 H   0  0  0  0  0  0  0  0  0  0  0  0
    5.1976    9.5076   -5.4422 H   0  0  0  0  0  0  0  0  0  0  0  0
    5.2060   11.1691   -6.1251 H   0  0  0  0  0  0  0  0  0  0  0  0
    6.7123   10.1904   -6.1251 H   0  0  0  0  0  0  0  0  0  0  0  0
    7.3018   10.4803   -2.4970 H   0  0  0  0  0  0  0  0  0  0  0  0
    7.5496    9.3962   -3.9076 H   0  0  0  0  0  0  0  0  0  0  0  0
    8.2590   11.0465   -3.9076 H   0  0  0  0  0  0  0  0  0  0  0  0
    0.1816   11.5492   -4.0207 H   0  0  0  0  0  0  0  0  0  0  0  0
    1.9941    9.9532   -4.0470 H   0  0  0  0  0  0  0  0  0  0  0  0
    2.7314   10.6498   -2.5883 H   0  0  0  0  0  0  0  0  0  0  0  0
    1.2326    8.2184   -2.6928 H   0  0  0  0  0  0  0  0  0  0  0  0
    1.6222    9.0746   -1.2034 H   0  0  0  0  0  0  0  0  0  0  0  0
   -1.8875    8.5162   -3.1820 H   0  0  0  0  0  0  0  0  0  0  0  0
   -1.3107   10.0188   -3.9797 H   0  0  0  0  0  0  0  0  0  0  0  0
   -0.2784    8.5488   -3.9797 H   0  0  0  0  0  0  0  0  0  0  0  0
   -0.4572    9.3146    0.0154 H   0  0  0  0  0  0  0  0  0  0  0  0
   -0.3459    7.0751   -1.2526 H   0  0  0  0  0  0  0  0  0  0  0  0
   -1.3133    7.2412    0.3049 H   0  0  0  0  0  0  0  0  0  0  0  0
   -2.4404    5.8476   -1.6249 H   0  0  0  0  0  0  0  0  0  0  0  0
   -3.5581    9.6499   -2.3937 H   0  0  0  0  0  0  0  0  0  0  0  0
   -5.1684    8.8721    0.1157 H   0  0  0  0  0  0  0  0  0  0  0  0
   -5.1996   10.4721   -0.7502 H   0  0  0  0  0  0  0  0  0  0  0  0
   -7.1746    9.0794   -1.2839 H   0  0  0  0  0  0  0  0  0  0  0  0
   -6.1399    9.4195   -2.7258 H   0  0  0  0  0  0  0  0  0  0  0  0
   -6.8165    7.1184   -2.7892 H   0  0  0  0  0  0  0  0  0  0  0  0
   -5.9680    7.2410   -0.0800 H   0  0  0  0  0  0  0  0  0  0  0  0
   -4.3167    8.5848   -4.0549 H   0  0  0  0  0  0  0  0  0  0  0  0
   -3.7699    6.9598   -4.5909 H   0  0  0  0  0  0  0  0  0  0  0  0
   -5.5202    7.3637   -4.5909 H   0  0  0  0  0  0  0  0  0  0  0  0
   -4.6114    5.0201   -1.6861 H   0  0  0  0  0  0  0  0  0  0  0  0
   -5.5121    5.0742   -3.2393 H   0  0  0  0  0  0  0  0  0  0  0  0
   -3.7171    5.1402   -3.2393 H   0  0  0  0  0  0  0  0  0  0  0  0
   -2.0688   10.0212    1.5701 H   0  0  0  0  0  0  0  0  0  0  0  0
   -3.8223    9.9447    1.1881 H   0  0  0  0  0  0  0  0  0  0  0  0
   -2.8368    8.4429    1.1881 H   0  0  0  0  0  0  0  0  0  0  0  0
   -3.4910   11.6301   -0.9631 H   0  0  0  0  0  0  0  0  0  0  0  0
   -1.9916   11.6959    0.1239 H   0  0  0  0  0  0  0  0  0  0  0  0
   -2.0765   11.5198   -2.9005 H   0  0  0  0  0  0  0  0  0  0  0  0
   -1.4833   12.8774   -1.8648 H   0  0  0  0  0  0  0  0  0  0  0  0
   -0.0721   11.2364    0.2841 H   0  0  0  0  0  0  0  0  0  0  0  0
    1.5222   11.2215   -0.5433 H   0  0  0  0  0  0  0  0  0  0  0  0
    0.5243   12.7151   -0.5433 H   0  0  0  0  0  0  0  0  0  0  0  0
  1  2  1  0
  2  3  1  0
  3  4  1  0
  4  5  1  0
  5  6  1  0
  6  7  1  0
  7  8  1  0
  7  9  1  0
  2 10  1  0
 10 11  1  0
 11 12  1  0
 12 13  1  0
 13 14  1  6
 13 15  1  0
 15 16  1  0
 16 17  1  0
 17 18  2  0
 18 19  1  0
 19 20  1  0
 20 21  1  0
 21 22  1  0
 22 23  1  0
 22 24  1  0
 24 25  1  0
 24 26  1  0
 19 27  1  0
 27 28  1  1
 27 29  1  0
 29 30  1  0
 30 31  1  0
 31 32  1  1
  7  5  1  0
 31 10  1  0
 31 13  1  0
 27 15  1  0
 24 18  1  0
  1 33  1  0
  1 34  1  0
  1 35  1  0
  2 36  1  1
  3 37  1  0
  3 38  1  0
  4 39  1  0
  4 40  1  0
  5 41  1  1
  8 42  1  0
  8 43  1  0
  8 44  1  0
  9 45  1  0
  9 46  1  0
  9 47  1  0
 10 48  1  6
 11 49  1  0
 11 50  1  0
 12 51  1  0
 12 52  1  0
 14 53  1  0
 14 54  1  0
 14 55  1  0
 15 56  1  1
 16 57  1  0
 16 58  1  0
 17 59  1  0
 19 60  1  6
 20 61  1  0
 20 62  1  0
 21 63  1  0
 21 64  1  0
 22 65  1  6
 23 66  1  0
 25 67  1  0
 25 68  1  0
 25 69  1  0
 26 70  1  0
 26 71  1  0
 26 72  1  0
 28 73  1  0
 28 74  1  0
 28 75  1  0
 29 76  1  0
 29 77  1  0
 30 78  1  0
 30 79  1  0
 32 80  1  0
 32 81  1  0
 32 82  1  0
M  END
>  <meeko>  (15) 
{"is_sidechain": [false], "intermolecular_energy": 2.731, "internal_energy": -0.839}

$$$$
EPH_relaxed_0001_pdb2pqr_Repair_266_r2_0001_out
     RDKit          3D

 82 86  0  0  0  0  0  0  0  0999 V2000
  -13.5060    9.8710    0.5770 C   0  0  0  0  0  0  0  0  0  0  0  0
  -13.0200    8.9460   -0.5430 C   0  0  2  0  0  0  0  0  0  0  0  0
  -13.9970    7.7810   -0.8000 C   0  0  0  0  0  0  0  0  0  0  0  0
  -15.2840    8.2040   -1.5140 C   0  0  0  0  0  0  0  0  0  0  0  0
  -15.2110    7.9430   -2.9880 C   0  0  2  0  0  0  0  0  0  0  0  0
  -13.8970    8.0490   -3.5510 O   0  0  0  0  0  0  0  0  0  0  0  0
  -14.8620    9.0080   -4.0100 C   0  0  0  0  0  0  0  0  0  0  0  0
  -14.5640   10.4160   -3.5990 C   0  0  0  0  0  0  0  0  0  0  0  0
  -15.2870    8.8040   -5.4310 C   0  0  0  0  0  0  0  0  0  0  0  0
  -11.6380    8.4000   -0.2030 C   0  0  1  0  0  0  0  0  0  0  0  0
  -11.6610    7.4230    1.0030 C   0  0  0  0  0  0  0  0  0  0  0  0
  -10.5880    6.3400    0.7210 C   0  0  0  0  0  0  0  0  0  0  0  0
   -9.7620    6.9070   -0.4570 C   0  0  1  0  0  0  0  0  0  0  0  0
   -8.7610    7.9080    0.1990 C   0  0  0  0  0  0  0  0  0  0  0  0
   -9.0260    5.8570   -1.3520 C   0  0  2  0  0  0  0  0  0  0  0  0
   -7.9580    5.0180   -0.6300 C   0  0  0  0  0  0  0  0  0  0  0  0
   -6.5780    5.5870   -0.6500 C   0  0  0  0  0  0  0  0  0  0  0  0
   -6.1510    6.5730   -1.4600 C   0  0  0  0  0  0  0  0  0  0  0  0
   -7.0670    7.1550   -2.5440 C   0  0  1  0  0  0  0  0  0  0  0  0
   -6.2860    7.2620   -3.8800 C   0  0  0  0  0  0  0  0  0  0  0  0
   -4.9840    8.0440   -3.7360 C   0  0  0  0  0  0  0  0  0  0  0  0
   -4.0750    7.4020   -2.6910 C   0  0  2  0  0  0  0  0  0  0  0  0
   -3.6470    6.1260   -3.1750 O   0  0  0  0  0  0  0  0  0  0  0  0
   -4.7580    7.2330   -1.3050 C   0  0  0  0  0  0  0  0  0  0  0  0
   -4.9490    8.6220   -0.6460 C   0  0  0  0  0  0  0  0  0  0  0  0
   -3.7850    6.4470   -0.3860 C   0  0  0  0  0  0  0  0  0  0  0  0
   -8.4760    6.4410   -2.7170 C   0  0  1  0  0  0  0  0  0  0  0  0
   -8.3450    5.2340   -3.6960 C   0  0  0  0  0  0  0  0  0  0  0  0
   -9.4850    7.4480   -3.3860 C   0  0  0  0  0  0  0  0  0  0  0  0
  -10.2700    8.3760   -2.4400 C   0  0  0  0  0  0  0  0  0  0  0  0
  -10.9080    7.5810   -1.2960 C   0  0  2  0  0  0  0  0  0  0  0  0
  -11.9370    6.5810   -1.9250 C   0  0  0  0  0  0  0  0  0  0  0  0
  -13.2696    9.4211    1.5526 H   0  0  0  0  0  0  0  0  0  0  0  0
  -13.0036   10.8458    0.4914 H   0  0  0  0  0  0  0  0  0  0  0  0
  -14.5938   10.0103    0.4914 H   0  0  0  0  0  0  0  0  0  0  0  0
  -12.9682    9.5431   -1.4654 H   0  0  0  0  0  0  0  0  0  0  0  0
  -13.4863    7.0298   -1.4204 H   0  0  0  0  0  0  0  0  0  0  0  0
  -14.2900    7.3839    0.1831 H   0  0  0  0  0  0  0  0  0  0  0  0
  -16.1279    7.6378   -1.0930 H   0  0  0  0  0  0  0  0  0  0  0  0
  -15.4206    9.2850   -1.3633 H   0  0  0  0  0  0  0  0  0  0  0  0
  -16.0414    7.2244   -2.9252 H   0  0  0  0  0  0  0  0  0  0  0  0
  -14.5500   10.4823   -2.5011 H   0  0  0  0  0  0  0  0  0  0  0  0
  -13.5828   10.7143   -3.9969 H   0  0  0  0  0  0  0  0  0  0  0  0
  -15.3402   11.0862   -3.9969 H   0  0  0  0  0  0  0  0  0  0  0  0
  -16.2785    8.3281   -5.4525 H   0  0  0  0  0  0  0  0  0  0  0  0
  -15.3360    9.7767   -5.9423 H   0  0  0  0  0  0  0  0  0  0  0  0
  -14.5587    8.1573   -5.9423 H   0  0  0  0  0  0  0  0  0  0  0  0
  -11.1059    9.3459   -0.0234 H   0  0  0  0  0  0  0  0  0  0  0  0
  -11.4208    7.9616    1.9316 H   0  0  0  0  0  0  0  0  0  0  0  0
  -12.6561    6.9707    1.1263 H   0  0  0  0  0  0  0  0  0  0  0  0
   -9.9502    6.1860    1.6039 H   0  0  0  0  0  0  0  0  0  0  0  0
  -11.0338    5.3623    0.4856 H   0  0  0  0  0  0  0  0  0  0  0  0
   -8.8341    7.8349    1.2941 H   0  0  0  0  0  0  0  0  0  0  0  0
   -7.7365    7.6623   -0.1173 H   0  0  0  0  0  0  0  0  0  0  0  0
   -9.0067    8.9325   -0.1173 H   0  0  0  0  0  0  0  0  0  0  0  0
   -9.8348    5.1562   -1.6064 H   0  0  0  0  0  0  0  0  0  0  0  0
   -8.2651    4.9083    0.4206 H   0  0  0  0  0  0  0  0  0  0  0  0
   -7.9014    4.0641   -1.1748 H   0  0  0  0  0  0  0  0  0  0  0  0
   -5.8488    5.1646    0.0570 H   0  0  0  0  0  0  0  0  0  0  0  0
   -7.3498    8.1594   -2.1958 H   0  0  0  0  0  0  0  0  0  0  0  0
   -6.0505    6.2471   -4.2329 H   0  0  0  0  0  0  0  0  0  0  0  0
   -6.9224    7.8024   -4.5962 H   0  0  0  0  0  0  0  0  0  0  0  0
   -4.4639    8.0590   -4.7052 H   0  0  0  0  0  0  0  0  0  0  0  0
   -5.2231    9.0677   -3.4121 H   0  0  0  0  0  0  0  0  0  0  0  0
   -3.2197    8.0767   -2.5384 H   0  0  0  0  0  0  0  0  0  0  0  0
   -2.6890    6.0600   -3.0240 H   0  0  0  0  0  0  0  0  0  0  0  0
   -4.9341    8.5137    0.4486 H   0  0  0  0  0  0  0  0  0  0  0  0
   -4.1345    9.2916   -0.9593 H   0  0  0  0  0  0  0  0  0  0  0  0
   -5.9140    9.0469   -0.9593 H   0  0  0  0  0  0  0  0  0  0  0  0
   -4.0328    6.6472    0.6669 H   0  0  0  0  0  0  0  0  0  0  0  0
   -3.8807    5.3697   -0.5868 H   0  0  0  0  0  0  0  0  0  0  0  0
   -2.7519    6.7670   -0.5868 H   0  0  0  0  0  0  0  0  0  0  0  0
   -8.2440    4.3030   -3.1188 H   0  0  0  0  0  0  0  0  0  0  0  0
   -9.2422    5.1769   -4.3298 H   0  0  0  0  0  0  0  0  0  0  0  0
   -7.4564    5.3707   -4.3298 H   0  0  0  0  0  0  0  0  0  0  0  0
   -8.9117    8.0843   -4.0762 H   0  0  0  0  0  0  0  0  0  0  0  0
  -10.2464    6.8160   -3.8664 H   0  0  0  0  0  0  0  0  0  0  0  0
   -9.5830    9.1246   -2.0185 H   0  0  0  0  0  0  0  0  0  0  0  0
  -11.0695    8.8670   -3.0143 H   0  0  0  0  0  0  0  0  0  0  0  0
  -12.4764    6.0568   -1.1224 H   0  0  0  0  0  0  0  0  0  0  0  0
  -12.6545    7.1361   -2.5471 H   0  0  0  0  0  0  0  0  0  0  0  0
  -11.4026    5.8480   -2.5471 H   0  0  0  0  0  0  0  0  0  0  0  0
  1  2  1  0
  2  3  1  0
  3  4  1  0
  4  5  1  0
  5  6  1  0
  6  7  1  0
  7  8  1  0
  7  9  1  0
  2 10  1  0
 10 11  1  0
 11 12  1  0
 12 13  1  0
 13 14  1  1
 13 15  1  0
 15 16  1  0
 16 17  1  0
 17 18  2  0
 18 19  1  0
 19 20  1  0
 20 21  1  0
 21 22  1  0
 22 23  1  0
 22 24  1  0
 24 25  1  0
 24 26  1  0
 19 27  1  0
 27 28  1  6
 27 29  1  0
 29 30  1  0
 30 31  1  0
 31 32  1  6
  7  5  1  0
 31 10  1  0
 31 13  1  0
 27 15  1  0
 24 18  1  0
  1 33  1  0
  1 34  1  0
  1 35  1  0
  2 36  1  6
  3 37  1  0
  3 38  1  0
  4 39  1  0
  4 40  1  0
  5 41  1  6
  8 42  1  0
  8 43  1  0
  8 44  1  0
  9 45  1  0
  9 46  1  0
  9 47  1  0
 10 48  1  1
 11 49  1  0
 11 50  1  0
 12 51  1  0
 12 52  1  0
 14 53  1  0
 14 54  1  0
 14 55  1  0
 15 56  1  6
 16 57  1  0
 16 58  1  0
 17 59  1  0
 19 60  1  1
 20 61  1  0
 20 62  1  0
 21 63  1  0
 21 64  1  0
 22 65  1  1
 23 66  1  0
 25 67  1  0
 25 68  1  0
 25 69  1  0
 26 70  1  0
 26 71  1  0
 26 72  1  0
 28 73  1  0
 28 74  1  0
 28 75  1  0
 29 76  1  0
 29 77  1  0
 30 78  1  0
 30 79  1  0
 32 80  1  0
 32 81  1  0
 32 82  1  0
M  END
>  <meeko>  (16) 
{"is_sidechain": [false], "intermolecular_energy": 2.731, "internal_energy": -0.839}

$$$$
EPH_relaxed_0001_pdb2pqr_Repair_266_r2_0001_out
     RDKit          3D

 82 86  0  0  0  0  0  0  0  0999 V2000
  -11.3890    8.5690   -2.8530 C   0  0  0  0  0  0  0  0  0  0  0  0
  -11.0950    7.4450   -1.8550 C   0  0  2  0  0  0  0  0  0  0  0  0
  -12.2200    7.2840   -0.8130 C   0  0  0  0  0  0  0  0  0  0  0  0
  -13.5940    7.7360   -1.3150 C   0  0  0  0  0  0  0  0  0  0  0  0
  -13.8750    9.1630   -0.9530 C   0  0  2  0  0  0  0  0  0  0  0  0
  -15.2520    9.4500   -0.6770 O   0  0  0  0  0  0  0  0  0  0  0  0
  -14.6860   10.1030   -1.8250 C   0  0  0  0  0  0  0  0  0  0  0  0
  -15.2660    9.6530   -3.1290 C   0  0  0  0  0  0  0  0  0  0  0  0
  -14.5020   11.5780   -1.6490 C   0  0  0  0  0  0  0  0  0  0  0  0
   -9.7680    7.7080   -1.1530 C   0  0  1  0  0  0  0  0  0  0  0  0
   -9.8500    7.4880    0.3810 C   0  0  0  0  0  0  0  0  0  0  0  0
   -8.4800    6.9130    0.8240 C   0  0  0  0  0  0  0  0  0  0  0  0
   -7.5530    7.1300   -0.3950 C   0  0  1  0  0  0  0  0  0  0  0  0
   -7.1010    8.6210   -0.2940 C   0  0  0  0  0  0  0  0  0  0  0  0
   -6.3300    6.1630   -0.5140 C   0  0  2  0  0  0  0  0  0  0  0  0
   -5.3150    6.2500    0.6390 C   0  0  0  0  0  0  0  0  0  0  0  0
   -4.2040    7.2280    0.4390 C   0  0  0  0  0  0  0  0  0  0  0  0
   -3.8650    7.7960   -0.7330 C   0  0  0  0  0  0  0  0  0  0  0  0
   -4.5670    7.3950   -2.0360 C   0  0  1  0  0  0  0  0  0  0  0  0
   -3.5070    7.1570   -3.1440 C   0  0  0  0  0  0  0  0  0  0  0  0
   -2.5750    8.3500   -3.3270 C   0  0  0  0  0  0  0  0  0  0  0  0
   -1.8510    8.6830   -2.0250 C   0  0  2  0  0  0  0  0  0  0  0  0
   -0.9610    7.6090   -1.7050 O   0  0  0  0  0  0  0  0  0  0  0  0
   -2.8180    8.9330   -0.8340 C   0  0  0  0  0  0  0  0  0  0  0  0
   -3.5700   10.2700   -1.0460 C   0  0  0  0  0  0  0  0  0  0  0  0
   -1.9590    9.1170    0.4470 C   0  0  0  0  0  0  0  0  0  0  0  0
   -5.6090    6.2000   -1.9220 C   0  0  1  0  0  0  0  0  0  0  0  0
   -4.8730    4.8350   -2.0820 C   0  0  0  0  0  0  0  0  0  0  0  0
   -6.6320    6.2950   -3.1150 C   0  0  0  0  0  0  0  0  0  0  0  0
   -7.8800    7.1710   -2.8930 C   0  0  0  0  0  0  0  0  0  0  0  0
   -8.5600    6.8280   -1.5630 C   0  0  2  0  0  0  0  0  0  0  0  0
   -9.0450    5.3410   -1.6430 C   0  0  0  0  0  0  0  0  0  0  0  0
  -11.6304    9.4919   -2.3052 H   0  0  0  0  0  0  0  0  0  0  0  0
  -10.5050    8.7385   -3.4853 H   0  0  0  0  0  0  0  0  0  0  0  0
  -12.2428    8.2839   -3.4853 H   0  0  0  0  0  0  0  0  0  0  0  0
  -11.0353    6.5050   -2.4232 H   0  0  0  0  0  0  0  0  0  0  0  0
  -12.2847    6.2221   -0.5332 H   0  0  0  0  0  0  0  0  0  0  0  0
  -11.9619    7.9283    0.0404 H   0  0  0  0  0  0  0  0  0  0  0  0
  -13.6250    7.6333   -2.4098 H   0  0  0  0  0  0  0  0  0  0  0  0
  -14.3579    7.1046   -0.8379 H   0  0  0  0  0  0  0  0  0  0  0  0
  -12.8863    9.2630   -0.4814 H   0  0  0  0  0  0  0  0  0  0  0  0
  -16.1221    8.9888   -2.9398 H   0  0  0  0  0  0  0  0  0  0  0  0
  -15.6017   10.5293   -3.7029 H   0  0  0  0  0  0  0  0  0  0  0  0
  -14.5005    9.1101   -3.7029 H   0  0  0  0  0  0  0  0  0  0  0  0
  -14.4720   11.8183   -0.5760 H   0  0  0  0  0  0  0  0  0  0  0  0
  -13.5581   11.8886   -2.1208 H   0  0  0  0  0  0  0  0  0  0  0  0
  -15.3406   12.1110   -2.1208 H   0  0  0  0  0  0  0  0  0  0  0  0
   -9.5980    8.7494   -1.4639 H   0  0  0  0  0  0  0  0  0  0  0  0
  -10.0426    8.4434    0.8910 H   0  0  0  0  0  0  0  0  0  0  0  0
  -10.6690    6.8002    0.6382 H   0  0  0  0  0  0  0  0  0  0  0  0
   -8.0982    7.4529    1.7031 H   0  0  0  0  0  0  0  0  0  0  0  0
   -8.5463    5.8541    1.1143 H   0  0  0  0  0  0  0  0  0  0  0  0
   -7.0143    8.9070    0.7646 H   0  0  0  0  0  0  0  0  0  0  0  0
   -6.1256    8.7427   -0.7877 H   0  0  0  0  0  0  0  0  0  0  0  0
   -7.8446    9.2638   -0.7877 H   0  0  0  0  0  0  0  0  0  0  0  0
   -6.8021    5.1736   -0.4228 H   0  0  0  0  0  0  0  0  0  0  0  0
   -5.8599    6.5365    1.5506 H   0  0  0  0  0  0  0  0  0  0  0  0
   -4.8406    5.2595    0.7020 H   0  0  0  0  0  0  0  0  0  0  0  0
   -3.6133    7.5075    1.3239 H   0  0  0  0  0  0  0  0  0  0  0  0
   -5.2084    8.2456   -2.3101 H   0  0  0  0  0  0  0  0  0  0  0  0
   -2.9048    6.2773   -2.8729 H   0  0  0  0  0  0  0  0  0  0  0  0
   -4.0434    7.0036   -4.0920 H   0  0  0  0  0  0  0  0  0  0  0  0
   -1.8312    8.1100   -4.1011 H   0  0  0  0  0  0  0  0  0  0  0  0
   -3.1757    9.2214   -3.6269 H   0  0  0  0  0  0  0  0  0  0  0  0
   -1.2997    9.6215   -2.1841 H   0  0  0  0  0  0  0  0  0  0  0  0
   -0.8540    7.5930   -0.7390 H   0  0  0  0  0  0  0  0  0  0  0  0
   -3.8177   10.7103   -0.0689 H   0  0  0  0  0  0  0  0  0  0  0  0
   -2.9304   10.9650   -1.6099 H   0  0  0  0  0  0  0  0  0  0  0  0
   -4.4961   10.0844   -1.6099 H   0  0  0  0  0  0  0  0  0  0  0  0
   -2.5925    8.9813    1.3359 H   0  0  0  0  0  0  0  0  0  0  0  0
   -1.1499    8.3718    0.4561 H   0  0  0  0  0  0  0  0  0  0  0  0
   -1.5262   10.1282    0.4561 H   0  0  0  0  0  0  0  0  0  0  0  0
   -4.6494    4.4203   -1.0880 H   0  0  0  0  0  0  0  0  0  0  0  0
   -5.5157    4.1345   -2.6354 H   0  0  0  0  0  0  0  0  0  0  0  0
   -3.9346    4.9871   -2.6354 H   0  0  0  0  0  0  0  0  0  0  0  0
   -6.0925    6.6989   -3.9844 H   0  0  0  0  0  0  0  0  0  0  0  0
   -7.0176    5.2730   -3.2451 H   0  0  0  0  0  0  0  0  0  0  0  0
   -7.5797    8.2292   -2.8815 H   0  0  0  0  0  0  0  0  0  0  0  0
   -8.5916    6.9821   -3.7103 H   0  0  0  0  0  0  0  0  0  0  0  0
   -9.1750    4.9425   -0.6260 H   0  0  0  0  0  0  0  0  0  0  0  0
  -10.0042    5.2965   -2.1796 H   0  0  0  0  0  0  0  0  0  0  0  0
   -8.2965    4.7395   -2.1796 H   0  0  0  0  0  0  0  0  0  0  0  0
  1  2  1  0
  2  3  1  0
  3  4  1  0
  4  5  1  0
  5  6  1  0
  6  7  1  0
  7  8  1  0
  7  9  1  0
  2 10  1  0
 10 11  1  0
 11 12  1  0
 12 13  1  0
 13 14  1  6
 13 15  1  0
 15 16  1  0
 16 17  1  0
 17 18  2  0
 18 19  1  0
 19 20  1  0
 20 21  1  0
 21 22  1  0
 22 23  1  0
 22 24  1  0
 24 25  1  0
 24 26  1  0
 19 27  1  0
 27 28  1  6
 27 29  1  0
 29 30  1  0
 30 31  1  0
 31 32  1  6
  7  5  1  0
 31 10  1  0
 31 13  1  0
 27 15  1  0
 24 18  1  0
  1 33  1  0
  1 34  1  0
  1 35  1  0
  2 36  1  6
  3 37  1  0
  3 38  1  0
  4 39  1  0
  4 40  1  0
  5 41  1  1
  8 42  1  0
  8 43  1  0
  8 44  1  0
  9 45  1  0
  9 46  1  0
  9 47  1  0
 10 48  1  1
 11 49  1  0
 11 50  1  0
 12 51  1  0
 12 52  1  0
 14 53  1  0
 14 54  1  0
 14 55  1  0
 15 56  1  1
 16 57  1  0
 16 58  1  0
 17 59  1  0
 19 60  1  6
 20 61  1  0
 20 62  1  0
 21 63  1  0
 21 64  1  0
 22 65  1  6
 23 66  1  0
 25 67  1  0
 25 68  1  0
 25 69  1  0
 26 70  1  0
 26 71  1  0
 26 72  1  0
 28 73  1  0
 28 74  1  0
 28 75  1  0
 29 76  1  0
 29 77  1  0
 30 78  1  0
 30 79  1  0
 32 80  1  0
 32 81  1  0
 32 82  1  0
M  END
>  <meeko>  (17) 
{"is_sidechain": [false], "intermolecular_energy": 2.731, "internal_energy": -0.839}

$$$$
EPH_relaxed_0001_pdb2pqr_Repair_266_r2_0001_out
     RDKit          3D

 82 86  0  0  0  0  0  0  0  0999 V2000
   -5.5490    4.6460   -0.8010 C   0  0  0  0  0  0  0  0  0  0  0  0
   -5.5860    6.1240   -1.1970 C   0  0  2  0  0  0  0  0  0  0  0  0
   -6.5260    6.3830   -2.3920 C   0  0  0  0  0  0  0  0  0  0  0  0
   -7.8820    5.6830   -2.2700 C   0  0  0  0  0  0  0  0  0  0  0  0
   -9.0190    6.6380   -2.4810 C   0  0  2  0  0  0  0  0  0  0  0  0
   -8.7240    8.0020   -2.1520 O   0  0  0  0  0  0  0  0  0  0  0  0
   -9.7270    7.3580   -1.3490 C   0  0  0  0  0  0  0  0  0  0  0  0
   -9.3260    7.1540    0.0780 C   0  0  0  0  0  0  0  0  0  0  0  0
  -11.1120    7.8750   -1.5860 C   0  0  0  0  0  0  0  0  0  0  0  0
   -4.1790    6.6090   -1.5270 C   0  0  1  0  0  0  0  0  0  0  0  0
   -3.7930    6.3580   -3.0090 C   0  0  0  0  0  0  0  0  0  0  0  0
   -2.8990    7.5470   -3.4460 C   0  0  0  0  0  0  0  0  0  0  0  0
   -2.5290    8.2630   -2.1250 C   0  0  1  0  0  0  0  0  0  0  0  0
   -1.3490    7.4290   -1.5340 C   0  0  0  0  0  0  0  0  0  0  0  0
   -2.1640    9.7790   -2.2390 C   0  0  2  0  0  0  0  0  0  0  0  0
   -0.9220   10.0890   -3.0920 C   0  0  0  0  0  0  0  0  0  0  0  0
    0.3720   10.1220   -2.3470 C   0  0  0  0  0  0  0  0  0  0  0  0
    0.5020   10.1940   -1.0090 C   0  0  0  0  0  0  0  0  0  0  0  0
   -0.7280   10.3500   -0.1060 C   0  0  1  0  0  0  0  0  0  0  0  0
   -0.4600   11.4590    0.9460 C   0  0  0  0  0  0  0  0  0  0  0  0
    0.8200   11.2160    1.7400 C   0  0  0  0  0  0  0  0  0  0  0  0
    2.0280   11.1250    0.8110 C   0  0  2  0  0  0  0  0  0  0  0  0
    2.2450   12.4050    0.2090 O   0  0  0  0  0  0  0  0  0  0  0  0
    1.8690   10.0470   -0.2970 C   0  0  0  0  0  0  0  0  0  0  0  0
    1.9370    8.6350    0.3360 C   0  0  0  0  0  0  0  0  0  0  0  0
    3.0920   10.1550   -1.2480 C   0  0  0  0  0  0  0  0  0  0  0  0
   -2.1180   10.5400   -0.8530 C   0  0  1  0  0  0  0  0  0  0  0  0
   -2.3510   12.0500   -1.1660 C   0  0  0  0  0  0  0  0  0  0  0  0
   -3.2830   10.1010    0.1100 C   0  0  0  0  0  0  0  0  0  0  0  0
   -3.6780    8.6120    0.0900 C   0  0  0  0  0  0  0  0  0  0  0  0
   -3.8860    8.1200   -1.3450 C   0  0  2  0  0  0  0  0  0  0  0  0
   -5.0820    8.9250   -1.9580 C   0  0  0  0  0  0  0  0  0  0  0  0
   -5.5469    4.5602    0.2956 H   0  0  0  0  0  0  0  0  0  0  0  0
   -6.4346    4.1353   -1.2070 H   0  0  0  0  0  0  0  0  0  0  0  0
   -4.6389    4.1803   -1.2070 H   0  0  0  0  0  0  0  0  0  0  0  0
   -5.9818    6.6861   -0.3383 H   0  0  0  0  0  0  0  0  0  0  0  0
   -6.6999    7.4664   -2.4688 H   0  0  0  0  0  0  0  0  0  0  0  0
   -6.0315    5.9735   -3.2852 H   0  0  0  0  0  0  0  0  0  0  0  0
   -7.9410    4.8856   -3.0255 H   0  0  0  0  0  0  0  0  0  0  0  0
   -7.9648    5.2696   -1.2540 H   0  0  0  0  0  0  0  0  0  0  0  0
   -9.3949    6.0413   -3.3252 H   0  0  0  0  0  0  0  0  0  0  0  0
  -10.1093    7.5525    0.7395 H   0  0  0  0  0  0  0  0  0  0  0  0
   -9.1942    6.0793    0.2718 H   0  0  0  0  0  0  0  0  0  0  0  0
   -8.3797    7.6803    0.2718 H   0  0  0  0  0  0  0  0  0  0  0  0
  -11.6050    8.0590   -0.6200 H   0  0  0  0  0  0  0  0  0  0  0  0
  -11.0602    8.8143   -2.1560 H   0  0  0  0  0  0  0  0  0  0  0  0
  -11.6884    7.1315   -2.1560 H   0  0  0  0  0  0  0  0  0  0  0  0
   -3.6055    6.0239   -0.7930 H   0  0  0  0  0  0  0  0  0  0  0  0
   -3.2378    5.4128   -3.1010 H   0  0  0  0  0  0  0  0  0  0  0  0
   -4.6887    6.2834   -3.6432 H   0  0  0  0  0  0  0  0  0  0  0  0
   -1.9951    7.1856   -3.9582 H   0  0  0  0  0  0  0  0  0  0  0  0
   -3.4107    8.2157   -4.1539 H   0  0  0  0  0  0  0  0  0  0  0  0
   -1.3925    7.4597   -0.4353 H   0  0  0  0  0  0  0  0  0  0  0  0
   -1.4299    6.3864   -1.8751 H   0  0  0  0  0  0  0  0  0  0  0  0
   -0.3932    7.8533   -1.8751 H   0  0  0  0  0  0  0  0  0  0  0  0
   -3.0191   10.1860   -2.7985 H   0  0  0  0  0  0  0  0  0  0  0  0
   -0.8450    9.3181   -3.8729 H   0  0  0  0  0  0  0  0  0  0  0  0
   -1.0708   11.1043   -3.4882 H   0  0  0  0  0  0  0  0  0  0  0  0
    1.2967   10.0843   -2.9416 H   0  0  0  0  0  0  0  0  0  0  0  0
   -0.8604    9.3811    0.3978 H   0  0  0  0  0  0  0  0  0  0  0  0
   -0.3744   12.4247    0.4262 H   0  0  0  0  0  0  0  0  0  0  0  0
   -1.2995   11.4545    1.6568 H   0  0  0  0  0  0  0  0  0  0  0  0
    0.9697   12.0469    2.4451 H   0  0  0  0  0  0  0  0  0  0  0  0
    0.7216   10.2644    2.2830 H   0  0  0  0  0  0  0  0  0  0  0  0
    2.8912   10.8221    1.4219 H   0  0  0  0  0  0  0  0  0  0  0  0
    1.4500   12.6270   -0.3040 H   0  0  0  0  0  0  0  0  0  0  0  0
    1.9327    8.7241    1.4324 H   0  0  0  0  0  0  0  0  0  0  0  0
    1.0662    8.0459    0.0126 H   0  0  0  0  0  0  0  0  0  0  0  0
    2.8604    8.1323    0.0126 H   0  0  0  0  0  0  0  0  0  0  0  0
    4.0134   10.2364   -0.6526 H   0  0  0  0  0  0  0  0  0  0  0  0
    3.1435    9.2579   -1.8825 H   0  0  0  0  0  0  0  0  0  0  0  0
    2.9854   11.0472   -1.8825 H   0  0  0  0  0  0  0  0  0  0  0  0
   -2.4375   12.6107   -0.2236 H   0  0  0  0  0  0  0  0  0  0  0  0
   -1.5023   12.4391   -1.7476 H   0  0  0  0  0  0  0  0  0  0  0  0
   -3.2775   12.1652   -1.7476 H   0  0  0  0  0  0  0  0  0  0  0  0
   -2.9775   10.3503    1.1369 H   0  0  0  0  0  0  0  0  0  0  0  0
   -4.1721   10.6391   -0.2504 H   0  0  0  0  0  0  0  0  0  0  0  0
   -2.8785    8.0211    0.5608 H   0  0  0  0  0  0  0  0  0  0  0  0
   -4.6215    8.4917    0.6425 H   0  0  0  0  0  0  0  0  0  0  0  0
   -5.6986    9.3400   -1.1471 H   0  0  0  0  0  0  0  0  0  0  0  0
   -4.6921    9.7452   -2.5787 H   0  0  0  0  0  0  0  0  0  0  0  0
   -5.6951    8.2550   -2.5787 H   0  0  0  0  0  0  0  0  0  0  0  0
  1  2  1  0
  2  3  1  0
  3  4  1  0
  4  5  1  0
  5  6  1  0
  6  7  1  0
  7  8  1  0
  7  9  1  0
  2 10  1  0
 10 11  1  0
 11 12  1  0
 12 13  1  0
 13 14  1  1
 13 15  1  0
 15 16  1  0
 16 17  1  0
 17 18  2  0
 18 19  1  0
 19 20  1  0
 20 21  1  0
 21 22  1  0
 22 23  1  0
 22 24  1  0
 24 25  1  0
 24 26  1  0
 19 27  1  0
 27 28  1  6
 27 29  1  0
 29 30  1  0
 30 31  1  0
 31 32  1  6
  7  5  1  0
 31 10  1  0
 31 13  1  0
 27 15  1  0
 24 18  1  0
  1 33  1  0
  1 34  1  0
  1 35  1  0
  2 36  1  1
  3 37  1  0
  3 38  1  0
  4 39  1  0
  4 40  1  0
  5 41  1  6
  8 42  1  0
  8 43  1  0
  8 44  1  0
  9 45  1  0
  9 46  1  0
  9 47  1  0
 10 48  1  1
 11 49  1  0
 11 50  1  0
 12 51  1  0
 12 52  1  0
 14 53  1  0
 14 54  1  0
 14 55  1  0
 15 56  1  6
 16 57  1  0
 16 58  1  0
 17 59  1  0
 19 60  1  1
 20 61  1  0
 20 62  1  0
 21 63  1  0
 21 64  1  0
 22 65  1  1
 23 66  1  0
 25 67  1  0
 25 68  1  0
 25 69  1  0
 26 70  1  0
 26 71  1  0
 26 72  1  0
 28 73  1  0
 28 74  1  0
 28 75  1  0
 29 76  1  0
 29 77  1  0
 30 78  1  0
 30 79  1  0
 32 80  1  0
 32 81  1  0
 32 82  1  0
M  END
>  <meeko>  (18) 
{"is_sidechain": [false], "intermolecular_energy": 2.731, "internal_energy": -0.839}

$$$$
EPH_relaxed_0001_pdb2pqr_Repair_266_r2_0001_out
     RDKit          3D

 82 86  0  0  0  0  0  0  0  0999 V2000
  -14.5850    6.3410   -0.3020 C   0  0  0  0  0  0  0  0  0  0  0  0
  -13.3100    6.9740    0.2630 C   0  0  2  0  0  0  0  0  0  0  0  0
  -13.5710    8.3700    0.8620 C   0  0  0  0  0  0  0  0  0  0  0  0
  -14.7240    9.1220    0.1910 C   0  0  0  0  0  0  0  0  0  0  0  0
  -14.2460   10.3530   -0.5180 C   0  0  2  0  0  0  0  0  0  0  0  0
  -15.2880   11.2420   -0.9420 O   0  0  0  0  0  0  0  0  0  0  0  0
  -14.5130   10.6290   -1.9860 C   0  0  0  0  0  0  0  0  0  0  0  0
  -15.2860    9.6680   -2.8330 C   0  0  0  0  0  0  0  0  0  0  0  0
  -13.6140   11.5830   -2.7090 C   0  0  0  0  0  0  0  0  0  0  0  0
  -12.2480    7.0650   -0.8270 C   0  0  1  0  0  0  0  0  0  0  0  0
  -12.5600    8.1680   -1.8740 C   0  0  0  0  0  0  0  0  0  0  0  0
  -11.1980    8.7660   -2.3130 C   0  0  0  0  0  0  0  0  0  0  0  0
  -10.1430    7.7760   -1.7640 C   0  0  1  0  0  0  0  0  0  0  0  0
  -10.1090    6.6110   -2.8020 C   0  0  0  0  0  0  0  0  0  0  0  0
   -8.7170    8.3610   -1.5050 C   0  0  2  0  0  0  0  0  0  0  0  0
   -7.9920    8.8910   -2.7550 C   0  0  0  0  0  0  0  0  0  0  0  0
   -7.1460    7.8920   -3.4730 C   0  0  0  0  0  0  0  0  0  0  0  0
   -6.7460    6.7060   -2.9790 C   0  0  0  0  0  0  0  0  0  0  0  0
   -7.0660    6.3070   -1.5330 C   0  0  1  0  0  0  0  0  0  0  0  0
   -5.7920    5.7350   -0.8590 C   0  0  0  0  0  0  0  0  0  0  0  0
   -5.1730    4.5910   -1.6560 C   0  0  0  0  0  0  0  0  0  0  0  0
   -4.8150    5.0420   -3.0700 C   0  0  2  0  0  0  0  0  0  0  0  0
   -3.7600    6.0060   -2.9930 O   0  0  0  0  0  0  0  0  0  0  0  0
   -6.0200    5.6470   -3.8440 C   0  0  0  0  0  0  0  0  0  0  0  0
   -7.0310    4.5260   -4.1900 C   0  0  0  0  0  0  0  0  0  0  0  0
   -5.4930    6.1900   -5.1990 C   0  0  0  0  0  0  0  0  0  0  0  0
   -7.7760    7.4200   -0.6480 C   0  0  1  0  0  0  0  0  0  0  0  0
   -6.7040    8.3420    0.0090 C   0  0  0  0  0  0  0  0  0  0  0  0
   -8.5470    6.7230    0.5350 C   0  0  0  0  0  0  0  0  0  0  0  0
   -9.9940    6.2750    0.2540 C   0  0  0  0  0  0  0  0  0  0  0  0
  -10.8030    7.4070   -0.3860 C   0  0  2  0  0  0  0  0  0  0  0  0
  -10.8740    8.5860    0.6440 C   0  0  0  0  0  0  0  0  0  0  0  0
  -15.2329    6.0193    0.5267 H   0  0  0  0  0  0  0  0  0  0  0  0
  -15.1183    7.0790   -0.9192 H   0  0  0  0  0  0  0  0  0  0  0  0
  -14.3195    5.4701   -0.9192 H   0  0  0  0  0  0  0  0  0  0  0  0
  -12.9524    6.3271    1.0776 H   0  0  0  0  0  0  0  0  0  0  0  0
  -13.8086    8.2510    1.9294 H   0  0  0  0  0  0  0  0  0  0  0  0
  -12.6606    8.9653    0.6985 H   0  0  0  0  0  0  0  0  0  0  0  0
  -15.2073    8.4556   -0.5386 H   0  0  0  0  0  0  0  0  0  0  0  0
  -15.4328    9.4308    0.9734 H   0  0  0  0  0  0  0  0  0  0  0  0
  -13.3224   10.3677    0.0794 H   0  0  0  0  0  0  0  0  0  0  0  0
  -15.8434    8.9750   -2.1857 H   0  0  0  0  0  0  0  0  0  0  0  0
  -15.9913   10.2242   -3.4680 H   0  0  0  0  0  0  0  0  0  0  0  0
  -14.5916    9.0983   -3.4680 H   0  0  0  0  0  0  0  0  0  0  0  0
  -13.0503   12.1812   -1.9780 H   0  0  0  0  0  0  0  0  0  0  0  0
  -12.9119   11.0184   -3.3401 H   0  0  0  0  0  0  0  0  0  0  0  0
  -14.2192   12.2504   -3.3401 H   0  0  0  0  0  0  0  0  0  0  0  0
  -12.2897    6.0352   -1.2113 H   0  0  0  0  0  0  0  0  0  0  0  0
  -13.0792    7.7321   -2.7403 H   0  0  0  0  0  0  0  0  0  0  0  0
  -13.2131    8.9438   -1.4479 H   0  0  0  0  0  0  0  0  0  0  0  0
  -11.1371    8.8300   -3.4094 H   0  0  0  0  0  0  0  0  0  0  0  0
  -11.0489    9.7878   -1.9338 H   0  0  0  0  0  0  0  0  0  0  0  0
  -10.0809    5.6478   -2.2714 H   0  0  0  0  0  0  0  0  0  0  0  0
  -11.0088    6.6558   -3.4331 H   0  0  0  0  0  0  0  0  0  0  0  0
   -9.2133    6.7082   -3.4331 H   0  0  0  0  0  0  0  0  0  0  0  0
   -8.9338    9.2449   -0.8872 H   0  0  0  0  0  0  0  0  0  0  0  0
   -8.7529    9.2602   -3.4584 H   0  0  0  0  0  0  0  0  0  0  0  0
   -7.3045    9.6727   -2.3996 H   0  0  0  0  0  0  0  0  0  0  0  0
   -6.8221    8.1473   -4.4928 H   0  0  0  0  0  0  0  0  0  0  0  0
   -7.8372    5.5252   -1.5974 H   0  0  0  0  0  0  0  0  0  0  0  0
   -5.0500    6.5416   -0.7654 H   0  0  0  0  0  0  0  0  0  0  0  0
   -6.0838    5.3377    0.1244 H   0  0  0  0  0  0  0  0  0  0  0  0
   -4.2607    4.2490   -1.1454 H   0  0  0  0  0  0  0  0  0  0  0  0
   -5.9057    3.7733   -1.7233 H   0  0  0  0  0  0  0  0  0  0  0  0
   -4.4984    4.1500   -3.6304 H   0  0  0  0  0  0  0  0  0  0  0  0
   -4.0760    6.7440   -2.4450 H   0  0  0  0  0  0  0  0  0  0  0  0
   -7.4255    4.0885   -3.2610 H   0  0  0  0  0  0  0  0  0  0  0  0
   -7.8597    4.9481   -4.7774 H   0  0  0  0  0  0  0  0  0  0  0  0
   -6.5258    3.7451   -4.7774 H   0  0  0  0  0  0  0  0  0  0  0  0
   -4.7379    6.9681   -5.0135 H   0  0  0  0  0  0  0  0  0  0  0  0
   -5.0393    5.3679   -5.7720 H   0  0  0  0  0  0  0  0  0  0  0  0
   -6.3283    6.6189   -5.7720 H   0  0  0  0  0  0  0  0  0  0  0  0
   -6.7832    8.2739    1.1040 H   0  0  0  0  0  0  0  0  0  0  0  0
   -5.7006    8.0204   -0.3068 H   0  0  0  0  0  0  0  0  0  0  0  0
   -6.8719    9.3822   -0.3068 H   0  0  0  0  0  0  0  0  0  0  0  0
   -7.9732    5.8308    0.8260 H   0  0  0  0  0  0  0  0  0  0  0  0
   -8.6311    7.4928    1.3163 H   0  0  0  0  0  0  0  0  0  0  0  0
   -9.9777    5.4132   -0.4294 H   0  0  0  0  0  0  0  0  0  0  0  0
  -10.4681    6.0006    1.2079 H   0  0  0  0  0  0  0  0  0  0  0  0
  -10.8496    8.1815    1.6666 H   0  0  0  0  0  0  0  0  0  0  0  0
  -10.0146    9.2560    0.4942 H   0  0  0  0  0  0  0  0  0  0  0  0
  -11.8076    9.1481    0.4942 H   0  0  0  0  0  0  0  0  0  0  0  0
  1  2  1  0
  2  3  1  0
  3  4  1  0
  4  5  1  0
  5  6  1  0
  6  7  1  0
  7  8  1  0
  7  9  1  0
  2 10  1  0
 10 11  1  0
 11 12  1  0
 12 13  1  0
 13 14  1  6
 13 15  1  0
 15 16  1  0
 16 17  1  0
 17 18  2  0
 18 19  1  0
 19 20  1  0
 20 21  1  0
 21 22  1  0
 22 23  1  0
 22 24  1  0
 24 25  1  0
 24 26  1  0
 19 27  1  0
 27 28  1  1
 27 29  1  0
 29 30  1  0
 30 31  1  0
 31 32  1  1
  7  5  1  0
 31 10  1  0
 31 13  1  0
 27 15  1  0
 24 18  1  0
  1 33  1  0
  1 34  1  0
  1 35  1  0
  2 36  1  1
  3 37  1  0
  3 38  1  0
  4 39  1  0
  4 40  1  0
  5 41  1  1
  8 42  1  0
  8 43  1  0
  8 44  1  0
  9 45  1  0
  9 46  1  0
  9 47  1  0
 10 48  1  6
 11 49  1  0
 11 50  1  0
 12 51  1  0
 12 52  1  0
 14 53  1  0
 14 54  1  0
 14 55  1  0
 15 56  1  1
 16 57  1  0
 16 58  1  0
 17 59  1  0
 19 60  1  6
 20 61  1  0
 20 62  1  0
 21 63  1  0
 21 64  1  0
 22 65  1  6
 23 66  1  0
 25 67  1  0
 25 68  1  0
 25 69  1  0
 26 70  1  0
 26 71  1  0
 26 72  1  0
 28 73  1  0
 28 74  1  0
 28 75  1  0
 29 76  1  0
 29 77  1  0
 30 78  1  0
 30 79  1  0
 32 80  1  0
 32 81  1  0
 32 82  1  0
M  END
>  <meeko>  (19) 
{"is_sidechain": [false], "intermolecular_energy": 2.731, "internal_energy": -0.839}

$$$$
