EPH_relaxed_0001_pdb2pqr_Repair_96_r2_0001_out
     RDKit          3D

 82 86  0  0  0  0  0  0  0  0999 V2000
   -1.4040    8.4850   -1.4440 C   0  0  0  0  0  0  0  0  0  0  0  0
   -2.0280    9.2980   -0.3070 C   0  0  2  0  0  0  0  0  0  0  0  0
   -3.4590    9.7620   -0.6430 C   0  0  0  0  0  0  0  0  0  0  0  0
   -4.4920    8.6320   -0.6320 C   0  0  0  0  0  0  0  0  0  0  0  0
   -5.7290    9.0040   -1.3910 C   0  0  2  0  0  0  0  0  0  0  0  0
   -6.8910    8.2320   -1.0590 O   0  0  0  0  0  0  0  0  0  0  0  0
   -6.3980    8.0900   -2.4010 C   0  0  0  0  0  0  0  0  0  0  0  0
   -5.8490    6.7320   -2.7080 C   0  0  0  0  0  0  0  0  0  0  0  0
   -7.2890    8.7000   -3.4380 C   0  0  0  0  0  0  0  0  0  0  0  0
   -1.1510   10.5030    0.0130 C   0  0  1  0  0  0  0  0  0  0  0  0
   -0.0810   10.1930    1.0940 C   0  0  0  0  0  0  0  0  0  0  0  0
    1.1800   11.0150    0.7230 C   0  0  0  0  0  0  0  0  0  0  0  0
    0.6920   12.0140   -0.3520 C   0  0  1  0  0  0  0  0  0  0  0  0
    0.0200   13.1710    0.4510 C   0  0  0  0  0  0  0  0  0  0  0  0
    1.7790   12.5520   -1.3390 C   0  0  2  0  0  0  0  0  0  0  0  0
    2.9110   13.3630   -0.6840 C   0  0  0  0  0  0  0  0  0  0  0  0
    2.6700   14.8340   -0.5910 C   0  0  0  0  0  0  0  0  0  0  0  0
    1.7250   15.5160   -1.2650 C   0  0  0  0  0  0  0  0  0  0  0  0
    0.8380   14.8160   -2.3030 C   0  0  1  0  0  0  0  0  0  0  0  0
    0.7680   15.6790   -3.5900 C   0  0  0  0  0  0  0  0  0  0  0  0
    0.3210   17.1110   -3.3110 C   0  0  0  0  0  0  0  0  0  0  0  0
    1.2600   17.7920   -2.3190 C   0  0  2  0  0  0  0  0  0  0  0  0
    2.5410   17.9560   -2.9350 O   0  0  0  0  0  0  0  0  0  0  0  0
    1.4170   17.0070   -0.9860 C   0  0  0  0  0  0  0  0  0  0  0  0
    0.1000   17.0890   -0.1750 C   0  0  0  0  0  0  0  0  0  0  0  0
    2.4970   17.7270   -0.1330 C   0  0  0  0  0  0  0  0  0  0  0  0
    1.1920   13.2960   -2.6060 C   0  0  1  0  0  0  0  0  0  0  0  0
    2.2850   13.2160   -3.7150 C   0  0  0  0  0  0  0  0  0  0  0  0
   -0.0820   12.5770   -3.1860 C   0  0  0  0  0  0  0  0  0  0  0  0
   -1.0580   11.9620   -2.1640 C   0  0  0  0  0  0  0  0  0  0  0  0
   -0.3100   11.0970   -1.1440 C   0  0  2  0  0  0  0  0  0  0  0  0
    0.3590    9.9120   -1.9200 C   0  0  0  0  0  0  0  0  0  0  0  0
   -0.7855    7.6792   -1.0220 H   0  0  0  0  0  0  0  0  0  0  0  0
   -2.2015    8.0490   -2.0635 H   0  0  0  0  0  0  0  0  0  0  0  0
   -0.7766    9.1426   -2.0635 H   0  0  0  0  0  0  0  0  0  0  0  0
   -2.0920    8.6412    0.5730 H   0  0  0  0  0  0  0  0  0  0  0  0
   -3.7621   10.5166    0.0978 H   0  0  0  0  0  0  0  0  0  0  0  0
   -3.4341   10.1642   -1.6665 H   0  0  0  0  0  0  0  0  0  0  0  0
   -4.0468    7.7377   -1.0924 H   0  0  0  0  0  0  0  0  0  0  0  0
   -4.7764    8.4378    0.4127 H   0  0  0  0  0  0  0  0  0  0  0  0
   -5.4072   10.0544   -1.4459 H   0  0  0  0  0  0  0  0  0  0  0  0
   -5.6348    6.2021   -1.7682 H   0  0  0  0  0  0  0  0  0  0  0  0
   -6.5870    6.1613   -3.2907 H   0  0  0  0  0  0  0  0  0  0  0  0
   -4.9217    6.8345   -3.2907 H   0  0  0  0  0  0  0  0  0  0  0  0
   -8.1000    9.2552   -2.9440 H   0  0  0  0  0  0  0  0  0  0  0  0
   -6.7035    9.3876   -4.0660 H   0  0  0  0  0  0  0  0  0  0  0  0
   -7.7182    7.9054   -4.0660 H   0  0  0  0  0  0  0  0  0  0  0  0
   -1.9269   11.2195    0.3207 H   0  0  0  0  0  0  0  0  0  0  0  0
   -0.4485   10.4905    2.0872 H   0  0  0  0  0  0  0  0  0  0  0  0
    0.1449    9.1170    1.1293 H   0  0  0  0  0  0  0  0  0  0  0  0
    1.5677   11.5497    1.6026 H   0  0  0  0  0  0  0  0  0  0  0  0
    2.0006   10.3790    0.3596 H   0  0  0  0  0  0  0  0  0  0  0  0
    0.1301   12.9814    1.5289 H   0  0  0  0  0  0  0  0  0  0  0  0
    0.5047   14.1247    0.1951 H   0  0  0  0  0  0  0  0  0  0  0  0
   -1.0486   13.2225    0.1951 H   0  0  0  0  0  0  0  0  0  0  0  0
    2.2478   11.6256   -1.7022 H   0  0  0  0  0  0  0  0  0  0  0  0
    3.0593   12.9777    0.3356 H   0  0  0  0  0  0  0  0  0  0  0  0
    3.7898   13.2389   -1.3338 H   0  0  0  0  0  0  0  0  0  0  0  0
    3.3196   15.4088    0.0855 H   0  0  0  0  0  0  0  0  0  0  0  0
   -0.1609   14.7413   -1.8485 H   0  0  0  0  0  0  0  0  0  0  0  0
    1.7660   15.7048   -4.0519 H   0  0  0  0  0  0  0  0  0  0  0  0
    0.0240   15.2214   -4.2586 H   0  0  0  0  0  0  0  0  0  0  0  0
    0.3204   17.6781   -4.2536 H   0  0  0  0  0  0  0  0  0  0  0  0
   -0.6894   17.0852   -2.8770 H   0  0  0  0  0  0  0  0  0  0  0  0
    0.8169   18.7648   -2.0594 H   0  0  0  0  0  0  0  0  0  0  0  0
    2.5780   18.8540   -3.3030 H   0  0  0  0  0  0  0  0  0  0  0  0
    0.3302   17.0747    0.9005 H   0  0  0  0  0  0  0  0  0  0  0  0
   -0.4270   18.0217   -0.4248 H   0  0  0  0  0  0  0  0  0  0  0  0
   -0.5386   16.2289   -0.4248 H   0  0  0  0  0  0  0  0  0  0  0  0
    2.2781   17.5810    0.9351 H   0  0  0  0  0  0  0  0  0  0  0  0
    3.4871   17.3076   -0.3650 H   0  0  0  0  0  0  0  0  0  0  0  0
    2.4907   18.8022   -0.3650 H   0  0  0  0  0  0  0  0  0  0  0  0
    3.2777   13.1433   -3.2468 H   0  0  0  0  0  0  0  0  0  0  0  0
    2.1086   12.3284   -4.3403 H   0  0  0  0  0  0  0  0  0  0  0  0
    2.2398   14.1199   -4.3403 H   0  0  0  0  0  0  0  0  0  0  0  0
   -0.6416   13.3169   -3.7771 H   0  0  0  0  0  0  0  0  0  0  0  0
    0.3060   11.7245   -3.7629 H   0  0  0  0  0  0  0  0  0  0  0  0
   -1.5817   12.7714   -1.6343 H   0  0  0  0  0  0  0  0  0  0  0  0
   -1.7765   11.3269   -2.7030 H   0  0  0  0  0  0  0  0  0  0  0  0
    0.7682    9.1873   -1.2007 H   0  0  0  0  0  0  0  0  0  0  0  0
   -0.3928    9.4168   -2.5521 H   0  0  0  0  0  0  0  0  0  0  0  0
    1.1714   10.2999   -2.5521 H   0  0  0  0  0  0  0  0  0  0  0  0
  1  2  1  0
  2  3  1  0
  3  4  1  0
  4  5  1  0
  5  6  1  0
  6  7  1  0
  7  8  1  0
  7  9  1  0
  2 10  1  0
 10 11  1  0
 11 12  1  0
 12 13  1  0
 13 14  1  1
 13 15  1  0
 15 16  1  0
 16 17  1  0
 17 18  2  0
 18 19  1  0
 19 20  1  0
 20 21  1  0
 21 22  1  0
 22 23  1  0
 22 24  1  0
 24 25  1  0
 24 26  1  0
 19 27  1  0
 27 28  1  6
 27 29  1  0
 29 30  1  0
 30 31  1  0
 31 32  1  6
  7  5  1  0
 31 10  1  0
 31 13  1  0
 27 15  1  0
 24 18  1  0
  1 33  1  0
  1 34  1  0
  1 35  1  0
  2 36  1  1
  3 37  1  0
  3 38  1  0
  4 39  1  0
  4 40  1  0
  5 41  1  6
  8 42  1  0
  8 43  1  0
  8 44  1  0
  9 45  1  0
  9 46  1  0
  9 47  1  0
 10 48  1  1
 11 49  1  0
 11 50  1  0
 12 51  1  0
 12 52  1  0
 14 53  1  0
 14 54  1  0
 14 55  1  0
 15 56  1  6
 16 57  1  0
 16 58  1  0
 17 59  1  0
 19 60  1  1
 20 61  1  0
 20 62  1  0
 21 63  1  0
 21 64  1  0
 22 65  1  1
 23 66  1  0
 25 67  1  0
 25 68  1  0
 25 69  1  0
 26 70  1  0
 26 71  1  0
 26 72  1  0
 28 73  1  0
 28 74  1  0
 28 75  1  0
 29 76  1  0
 29 77  1  0
 30 78  1  0
 30 79  1  0
 32 80  1  0
 32 81  1  0
 32 82  1  0
M  END
>  <meeko>  (1) 
{"is_sidechain": [false], "intermolecular_energy": 2.731, "internal_energy": -0.839}

$$$$
EPH_relaxed_0001_pdb2pqr_Repair_96_r2_0001_out
     RDKit          3D

 82 86  0  0  0  0  0  0  0  0999 V2000
    4.1450   17.3150   -0.7090 C   0  0  0  0  0  0  0  0  0  0  0  0
    2.7840   17.9280   -0.3660 C   0  0  2  0  0  0  0  0  0  0  0  0
    2.8210   18.7240    0.9530 C   0  0  0  0  0  0  0  0  0  0  0  0
    4.1610   18.6340    1.6890 C   0  0  0  0  0  0  0  0  0  0  0  0
    4.0650   19.1760    3.0830 C   0  0  2  0  0  0  0  0  0  0  0  0
    5.0310   20.1870    3.4000 O   0  0  0  0  0  0  0  0  0  0  0  0
    5.1320   18.9590    4.1400 C   0  0  0  0  0  0  0  0  0  0  0  0
    6.3710   18.1720    3.8480 C   0  0  0  0  0  0  0  0  0  0  0  0
    4.7480   19.0910    5.5810 C   0  0  0  0  0  0  0  0  0  0  0  0
    1.7270   16.8320   -0.2850 C   0  0  1  0  0  0  0  0  0  0  0  0
    0.2870   17.3760   -0.4820 C   0  0  0  0  0  0  0  0  0  0  0  0
   -0.5060   16.2780   -1.2380 C   0  0  0  0  0  0  0  0  0  0  0  0
    0.3940   15.0230   -1.1570 C   0  0  1  0  0  0  0  0  0  0  0  0
    0.1200   14.4230    0.2580 C   0  0  0  0  0  0  0  0  0  0  0  0
    0.1950   13.9570   -2.2840 C   0  0  2  0  0  0  0  0  0  0  0  0
   -1.2010   13.3100   -2.3310 C   0  0  0  0  0  0  0  0  0  0  0  0
   -1.3550   12.0680   -1.5170 C   0  0  0  0  0  0  0  0  0  0  0  0
   -0.3470   11.3360   -1.0070 C   0  0  0  0  0  0  0  0  0  0  0  0
    1.1150   11.6860   -1.3160 C   0  0  1  0  0  0  0  0  0  0  0  0
    1.8850   10.3960   -1.7040 C   0  0  0  0  0  0  0  0  0  0  0  0
    1.7570    9.2990   -0.6510 C   0  0  0  0  0  0  0  0  0  0  0  0
    0.2930    8.9390   -0.4140 C   0  0  2  0  0  0  0  0  0  0  0  0
   -0.2290    8.3280   -1.5980 O   0  0  0  0  0  0  0  0  0  0  0  0
   -0.5840   10.1620   -0.0260 C   0  0  0  0  0  0  0  0  0  0  0  0
   -0.2120   10.6370    1.4000 C   0  0  0  0  0  0  0  0  0  0  0  0
   -2.0610    9.6870    0.0460 C   0  0  0  0  0  0  0  0  0  0  0  0
    1.3400   12.8670   -2.3550 C   0  0  1  0  0  0  0  0  0  0  0  0
    1.3310   12.3060   -3.8100 C   0  0  0  0  0  0  0  0  0  0  0  0
    2.7700   13.4860   -2.1270 C   0  0  0  0  0  0  0  0  0  0  0  0
    2.8790   14.6170   -1.0870 C   0  0  0  0  0  0  0  0  0  0  0  0
    1.8090   15.6870   -1.3250 C   0  0  2  0  0  0  0  0  0  0  0  0
    2.0720   16.3230   -2.7320 C   0  0  0  0  0  0  0  0  0  0  0  0
    4.6826   17.0729    0.2196 H   0  0  0  0  0  0  0  0  0  0  0  0
    3.9961   16.3970   -1.2965 H   0  0  0  0  0  0  0  0  0  0  0  0
    4.7338   18.0349   -1.2965 H   0  0  0  0  0  0  0  0  0  0  0  0
    2.5268   18.6343   -1.1691 H   0  0  0  0  0  0  0  0  0  0  0  0
    2.6197   19.7814    0.7263 H   0  0  0  0  0  0  0  0  0  0  0  0
    2.0604   18.2845    1.6151 H   0  0  0  0  0  0  0  0  0  0  0  0
    4.4713   17.5798    1.7370 H   0  0  0  0  0  0  0  0  0  0  0  0
    4.8969   19.2367    1.1366 H   0  0  0  0  0  0  0  0  0  0  0  0
    2.9755   19.0244    3.0924 H   0  0  0  0  0  0  0  0  0  0  0  0
    6.8454   17.8707    4.7936 H   0  0  0  0  0  0  0  0  0  0  0  0
    6.1076   17.2753    3.2679 H   0  0  0  0  0  0  0  0  0  0  0  0
    7.0707   18.7916    3.2679 H   0  0  0  0  0  0  0  0  0  0  0  0
    5.5980   18.7988    6.2152 H   0  0  0  0  0  0  0  0  0  0  0  0
    4.4739   20.1349    5.7933 H   0  0  0  0  0  0  0  0  0  0  0  0
    3.8900   18.4362    5.7933 H   0  0  0  0  0  0  0  0  0  0  0  0
    1.9417   16.4420    0.7209 H   0  0  0  0  0  0  0  0  0  0  0  0
   -0.1793   17.5760    0.4940 H   0  0  0  0  0  0  0  0  0  0  0  0
    0.2948   18.3188   -1.0486 H   0  0  0  0  0  0  0  0  0  0  0  0
   -1.4748   16.0934   -0.7509 H   0  0  0  0  0  0  0  0  0  0  0  0
   -0.7304   16.5647   -2.2760 H   0  0  0  0  0  0  0  0  0  0  0  0
    0.4461   15.1371    1.0285 H   0  0  0  0  0  0  0  0  0  0  0  0
   -0.9566   14.2277    0.3712 H   0  0  0  0  0  0  0  0  0  0  0  0
    0.6774   13.4815    0.3712 H   0  0  0  0  0  0  0  0  0  0  0  0
    0.2745   14.5630   -3.1986 H   0  0  0  0  0  0  0  0  0  0  0  0
   -1.9304   14.0482   -1.9663 H   0  0  0  0  0  0  0  0  0  0  0  0
   -1.3631   13.0108   -3.3770 H   0  0  0  0  0  0  0  0  0  0  0  0
   -2.3796   11.7215   -1.3169 H   0  0  0  0  0  0  0  0  0  0  0  0
    1.5310   12.1039   -0.3874 H   0  0  0  0  0  0  0  0  0  0  0  0
    1.4841   10.0190   -2.6564 H   0  0  0  0  0  0  0  0  0  0  0  0
    2.9506   10.6557   -1.7878 H   0  0  0  0  0  0  0  0  0  0  0  0
    2.2965    8.4045   -0.9956 H   0  0  0  0  0  0  0  0  0  0  0  0
    2.1855    9.6666    0.2930 H   0  0  0  0  0  0  0  0  0  0  0  0
    0.2578    8.2455    0.4392 H   0  0  0  0  0  0  0  0  0  0  0  0
    0.4480    7.7190   -1.9380 H   0  0  0  0  0  0  0  0  0  0  0  0
   -0.7128    9.9975    2.1418 H   0  0  0  0  0  0  0  0  0  0  0  0
    0.8777   10.5717    1.5356 H   0  0  0  0  0  0  0  0  0  0  0  0
   -0.5366   11.6792    1.5356 H   0  0  0  0  0  0  0  0  0  0  0  0
   -2.3639    9.5896    1.0990 H   0  0  0  0  0  0  0  0  0  0  0  0
   -2.7075   10.4225   -0.4550 H   0  0  0  0  0  0  0  0  0  0  0  0
   -2.1576    8.7125   -0.4550 H   0  0  0  0  0  0  0  0  0  0  0  0
    1.3134   11.2066   -3.7790 H   0  0  0  0  0  0  0  0  0  0  0  0
    0.4386   12.6723   -4.3387 H   0  0  0  0  0  0  0  0  0  0  0  0
    2.2347   12.6434   -4.3387 H   0  0  0  0  0  0  0  0  0  0  0  0
    3.4373   12.6728   -1.8055 H   0  0  0  0  0  0  0  0  0  0  0  0
    3.0391   13.9506   -3.0871 H   0  0  0  0  0  0  0  0  0  0  0  0
    2.7468   14.1939   -0.0803 H   0  0  0  0  0  0  0  0  0  0  0  0
    3.8698   15.0853   -1.1813 H   0  0  0  0  0  0  0  0  0  0  0  0
    2.4896   17.3328   -2.6057 H   0  0  0  0  0  0  0  0  0  0  0  0
    2.7855   15.6982   -3.2892 H   0  0  0  0  0  0  0  0  0  0  0  0
    1.1256   16.3846   -3.2892 H   0  0  0  0  0  0  0  0  0  0  0  0
  1  2  1  0
  2  3  1  0
  3  4  1  0
  4  5  1  0
  5  6  1  0
  6  7  1  0
  7  8  1  0
  7  9  1  0
  2 10  1  0
 10 11  1  0
 11 12  1  0
 12 13  1  0
 13 14  1  1
 13 15  1  0
 15 16  1  0
 16 17  1  0
 17 18  2  0
 18 19  1  0
 19 20  1  0
 20 21  1  0
 21 22  1  0
 22 23  1  0
 22 24  1  0
 24 25  1  0
 24 26  1  0
 19 27  1  0
 27 28  1  6
 27 29  1  0
 29 30  1  0
 30 31  1  0
 31 32  1  6
  7  5  1  0
 31 10  1  0
 31 13  1  0
 27 15  1  0
 24 18  1  0
  1 33  1  0
  1 34  1  0
  1 35  1  0
  2 36  1  6
  3 37  1  0
  3 38  1  0
  4 39  1  0
  4 40  1  0
  5 41  1  1
  8 42  1  0
  8 43  1  0
  8 44  1  0
  9 45  1  0
  9 46  1  0
  9 47  1  0
 10 48  1  1
 11 49  1  0
 11 50  1  0
 12 51  1  0
 12 52  1  0
 14 53  1  0
 14 54  1  0
 14 55  1  0
 15 56  1  6
 16 57  1  0
 16 58  1  0
 17 59  1  0
 19 60  1  1
 20 61  1  0
 20 62  1  0
 21 63  1  0
 21 64  1  0
 22 65  1  1
 23 66  1  0
 25 67  1  0
 25 68  1  0
 25 69  1  0
 26 70  1  0
 26 71  1  0
 26 72  1  0
 28 73  1  0
 28 74  1  0
 28 75  1  0
 29 76  1  0
 29 77  1  0
 30 78  1  0
 30 79  1  0
 32 80  1  0
 32 81  1  0
 32 82  1  0
M  END
>  <meeko>  (2) 
{"is_sidechain": [false], "intermolecular_energy": 2.731, "internal_energy": -0.839}

$$$$
EPH_relaxed_0001_pdb2pqr_Repair_96_r2_0001_out
     RDKit          3D

 82 86  0  0  0  0  0  0  0  0999 V2000
    2.1030   18.0750   -2.6420 C   0  0  0  0  0  0  0  0  0  0  0  0
    0.5880   17.8540   -2.6350 C   0  0  2  0  0  0  0  0  0  0  0  0
   -0.0560   18.2870   -1.3030 C   0  0  0  0  0  0  0  0  0  0  0  0
    0.7610   17.8970   -0.0690 C   0  0  0  0  0  0  0  0  0  0  0  0
    1.3210   19.0990    0.6290 C   0  0  2  0  0  0  0  0  0  0  0  0
    2.2540   19.8620   -0.1490 O   0  0  0  0  0  0  0  0  0  0  0  0
    2.7790   19.2300    1.0300 C   0  0  0  0  0  0  0  0  0  0  0  0
    3.7670   18.1420    0.7480 C   0  0  0  0  0  0  0  0  0  0  0  0
    3.1370   20.1920    2.1200 C   0  0  0  0  0  0  0  0  0  0  0  0
    0.2750   16.3890   -2.9130 C   0  0  1  0  0  0  0  0  0  0  0  0
    0.4130   16.0220   -4.4150 C   0  0  0  0  0  0  0  0  0  0  0  0
    0.9500   14.5690   -4.4730 C   0  0  0  0  0  0  0  0  0  0  0  0
    0.7900   14.0360   -3.0310 C   0  0  1  0  0  0  0  0  0  0  0  0
   -0.7090   13.6110   -2.9240 C   0  0  0  0  0  0  0  0  0  0  0  0
    1.7490   12.8740   -2.6130 C   0  0  2  0  0  0  0  0  0  0  0  0
    1.5910   11.5740   -3.4200 C   0  0  0  0  0  0  0  0  0  0  0  0
    0.6150   10.5920   -2.8610 C   0  0  0  0  0  0  0  0  0  0  0  0
    0.1070   10.6160   -1.6150 C   0  0  0  0  0  0  0  0  0  0  0  0
    0.5850   11.6520   -0.5900 C   0  0  1  0  0  0  0  0  0  0  0  0
    0.8720   10.9480    0.7620 C   0  0  0  0  0  0  0  0  0  0  0  0
   -0.3190   10.1370    1.2640 C   0  0  0  0  0  0  0  0  0  0  0  0
   -0.7280    9.0800    0.2420 C   0  0  2  0  0  0  0  0  0  0  0  0
    0.3190    8.1090    0.1390 O   0  0  0  0  0  0  0  0  0  0  0  0
   -1.0330    9.6710   -1.1630 C   0  0  0  0  0  0  0  0  0  0  0  0
   -2.3490   10.4850   -1.1100 C   0  0  0  0  0  0  0  0  0  0  0  0
   -1.2940    8.4860   -2.1320 C   0  0  0  0  0  0  0  0  0  0  0  0
    1.7820   12.5880   -1.0560 C   0  0  1  0  0  0  0  0  0  0  0  0
    3.1470   11.8950   -0.7590 C   0  0  0  0  0  0  0  0  0  0  0  0
    1.7610   13.9120   -0.2040 C   0  0  0  0  0  0  0  0  0  0  0  0
    0.8870   15.0650   -0.7330 C   0  0  0  0  0  0  0  0  0  0  0  0
    1.1640   15.3270   -2.2170 C   0  0  2  0  0  0  0  0  0  0  0  0
    2.6580   15.7780   -2.3520 C   0  0  0  0  0  0  0  0  0  0  0  0
    2.4705   18.1286   -1.6066 H   0  0  0  0  0  0  0  0  0  0  0  0
    2.5931   17.2388   -3.1622 H   0  0  0  0  0  0  0  0  0  0  0  0
    2.3338   19.0163   -3.1622 H   0  0  0  0  0  0  0  0  0  0  0  0
    0.1585   18.4828   -3.4288 H   0  0  0  0  0  0  0  0  0  0  0  0
   -0.1705   19.3810   -1.3121 H   0  0  0  0  0  0  0  0  0  0  0  0
   -1.0211   17.7645   -1.2278 H   0  0  0  0  0  0  0  0  0  0  0  0
    0.1115   17.3496    0.6299 H   0  0  0  0  0  0  0  0  0  0  0  0
    1.6023   17.2701   -0.3995 H   0  0  0  0  0  0  0  0  0  0  0  0
    0.3858   19.2380    1.1913 H   0  0  0  0  0  0  0  0  0  0  0  0
    4.1405   17.7307    1.6974 H   0  0  0  0  0  0  0  0  0  0  0  0
    3.2785   17.3440    0.1696 H   0  0  0  0  0  0  0  0  0  0  0  0
    4.6083   18.5515    0.1696 H   0  0  0  0  0  0  0  0  0  0  0  0
    2.9613   19.7200    3.0979 H   0  0  0  0  0  0  0  0  0  0  0  0
    4.1981   20.4681    2.0314 H   0  0  0  0  0  0  0  0  0  0  0  0
    2.5146   21.0946    2.0314 H   0  0  0  0  0  0  0  0  0  0  0  0
   -0.7498   16.3418   -2.5161 H   0  0  0  0  0  0  0  0  0  0  0  0
   -0.5666   16.0839   -4.9116 H   0  0  0  0  0  0  0  0  0  0  0  0
    1.0940   16.7155   -4.9300 H   0  0  0  0  0  0  0  0  0  0  0  0
    0.3600   13.9649   -5.1779 H   0  0  0  0  0  0  0  0  0  0  0  0
    1.9924   14.5233   -4.8212 H   0  0  0  0  0  0  0  0  0  0  0  0
   -0.9926   13.5306   -1.8642 H   0  0  0  0  0  0  0  0  0  0  0  0
   -1.3401   14.3656   -3.4162 H   0  0  0  0  0  0  0  0  0  0  0  0
   -0.8501   12.6374   -3.4162 H   0  0  0  0  0  0  0  0  0  0  0  0
    2.7365   13.2753   -2.8848 H   0  0  0  0  0  0  0  0  0  0  0  0
    1.2609   11.8416   -4.4346 H   0  0  0  0  0  0  0  0  0  0  0  0
    2.5722   11.0775   -3.3931 H   0  0  0  0  0  0  0  0  0  0  0  0
    0.2829    9.7797   -3.5242 H   0  0  0  0  0  0  0  0  0  0  0  0
   -0.2431   12.3663   -0.4712 H   0  0  0  0  0  0  0  0  0  0  0  0
    1.7296   10.2715    0.6322 H   0  0  0  0  0  0  0  0  0  0  0  0
    1.0817   11.7294    1.5073 H   0  0  0  0  0  0  0  0  0  0  0  0
   -0.0447    9.6399    2.2061 H   0  0  0  0  0  0  0  0  0  0  0  0
   -1.1671   10.8194    1.4223 H   0  0  0  0  0  0  0  0  0  0  0  0
   -1.6621    8.6211    0.5981 H   0  0  0  0  0  0  0  0  0  0  0  0
    0.0250    7.3090    0.6070 H   0  0  0  0  0  0  0  0  0  0  0  0
   -2.6305   10.6591   -0.0610 H   0  0  0  0  0  0  0  0  0  0  0  0
   -2.2033   11.4509   -1.6157 H   0  0  0  0  0  0  0  0  0  0  0  0
   -3.1482    9.9233   -1.6157 H   0  0  0  0  0  0  0  0  0  0  0  0
   -1.4948    7.5742   -1.5504 H   0  0  0  0  0  0  0  0  0  0  0  0
   -2.1631    8.7154   -2.7660 H   0  0  0  0  0  0  0  0  0  0  0  0
   -0.4089    8.3290   -2.7660 H   0  0  0  0  0  0  0  0  0  0  0  0
    3.2918   11.8215    0.3289 H   0  0  0  0  0  0  0  0  0  0  0  0
    3.1494   10.8865   -1.1982 H   0  0  0  0  0  0  0  0  0  0  0  0
    3.9626   12.4882   -1.1982 H   0  0  0  0  0  0  0  0  0  0  0  0
    1.3987   13.6545    0.8022 H   0  0  0  0  0  0  0  0  0  0  0  0
    2.7922   14.2932   -0.2393 H   0  0  0  0  0  0  0  0  0  0  0  0
   -0.1731   14.8004   -0.6061 H   0  0  0  0  0  0  0  0  0  0  0  0
    1.1271   15.9760   -0.1653 H   0  0  0  0  0  0  0  0  0  0  0  0
    3.0933   15.9094   -1.3504 H   0  0  0  0  0  0  0  0  0  0  0  0
    3.2245   15.0108   -2.9002 H   0  0  0  0  0  0  0  0  0  0  0  0
    2.7054   16.7305   -2.9002 H   0  0  0  0  0  0  0  0  0  0  0  0
  1  2  1  0
  2  3  1  0
  3  4  1  0
  4  5  1  0
  5  6  1  0
  6  7  1  0
  7  8  1  0
  7  9  1  0
  2 10  1  0
 10 11  1  0
 11 12  1  0
 12 13  1  0
 13 14  1  6
 13 15  1  0
 15 16  1  0
 16 17  1  0
 17 18  2  0
 18 19  1  0
 19 20  1  0
 20 21  1  0
 21 22  1  0
 22 23  1  0
 22 24  1  0
 24 25  1  0
 24 26  1  0
 19 27  1  0
 27 28  1  6
 27 29  1  0
 29 30  1  0
 30 31  1  0
 31 32  1  1
  7  5  1  0
 31 10  1  0
 31 13  1  0
 27 15  1  0
 24 18  1  0
  1 33  1  0
  1 34  1  0
  1 35  1  0
  2 36  1  6
  3 37  1  0
  3 38  1  0
  4 39  1  0
  4 40  1  0
  5 41  1  1
  8 42  1  0
  8 43  1  0
  8 44  1  0
  9 45  1  0
  9 46  1  0
  9 47  1  0
 10 48  1  1
 11 49  1  0
 11 50  1  0
 12 51  1  0
 12 52  1  0
 14 53  1  0
 14 54  1  0
 14 55  1  0
 15 56  1  6
 16 57  1  0
 16 58  1  0
 17 59  1  0
 19 60  1  1
 20 61  1  0
 20 62  1  0
 21 63  1  0
 21 64  1  0
 22 65  1  1
 23 66  1  0
 25 67  1  0
 25 68  1  0
 25 69  1  0
 26 70  1  0
 26 71  1  0
 26 72  1  0
 28 73  1  0
 28 74  1  0
 28 75  1  0
 29 76  1  0
 29 77  1  0
 30 78  1  0
 30 79  1  0
 32 80  1  0
 32 81  1  0
 32 82  1  0
M  END
>  <meeko>  (3) 
{"is_sidechain": [false], "intermolecular_energy": 2.731, "internal_energy": -0.839}

$$$$
EPH_relaxed_0001_pdb2pqr_Repair_96_r2_0001_out
     RDKit          3D

 82 86  0  0  0  0  0  0  0  0999 V2000
    2.1400   18.1770   -2.7870 C   0  0  0  0  0  0  0  0  0  0  0  0
    0.9720   17.6640   -1.9400 C   0  0  2  0  0  0  0  0  0  0  0  0
    1.2930   17.6910   -0.4320 C   0  0  0  0  0  0  0  0  0  0  0  0
    1.2990   19.0980    0.1710 C   0  0  0  0  0  0  0  0  0  0  0  0
    0.0220   19.8290   -0.1150 C   0  0  2  0  0  0  0  0  0  0  0  0
   -0.7320   20.1940    1.0490 O   0  0  0  0  0  0  0  0  0  0  0  0
   -1.3530   19.2510    0.1610 C   0  0  0  0  0  0  0  0  0  0  0  0
   -1.5210   17.8840    0.7460 C   0  0  0  0  0  0  0  0  0  0  0  0
   -2.5260   19.8060   -0.5850 C   0  0  0  0  0  0  0  0  0  0  0  0
    0.6010   16.2490   -2.3680 C   0  0  1  0  0  0  0  0  0  0  0  0
    0.7740   16.0220   -3.8940 C   0  0  0  0  0  0  0  0  0  0  0  0
    1.2440   14.5560   -4.0770 C   0  0  0  0  0  0  0  0  0  0  0  0
    1.0080   13.8960   -2.6990 C   0  0  1  0  0  0  0  0  0  0  0  0
   -0.5110   13.5380   -2.6800 C   0  0  0  0  0  0  0  0  0  0  0  0
    1.8970   12.6530   -2.3670 C   0  0  2  0  0  0  0  0  0  0  0  0
    1.7060   11.4460   -3.3020 C   0  0  0  0  0  0  0  0  0  0  0  0
    0.6670   10.4650   -2.8720 C   0  0  0  0  0  0  0  0  0  0  0  0
    0.1170   10.3950   -1.6450 C   0  0  0  0  0  0  0  0  0  0  0  0
    0.6070   11.3020   -0.5100 C   0  0  1  0  0  0  0  0  0  0  0  0
    0.8130   10.4580    0.7750 C   0  0  0  0  0  0  0  0  0  0  0  0
   -0.4320    9.6640    1.1590 C   0  0  0  0  0  0  0  0  0  0  0  0
   -0.8540    8.7310    0.0270 C   0  0  2  0  0  0  0  0  0  0  0  0
    0.1490    7.7230   -0.1380 O   0  0  0  0  0  0  0  0  0  0  0  0
   -1.0810    9.4680   -1.3220 C   0  0  0  0  0  0  0  0  0  0  0  0
   -2.3580   10.3390   -1.2310 C   0  0  0  0  0  0  0  0  0  0  0  0
   -1.3630    8.3970   -2.4100 C   0  0  0  0  0  0  0  0  0  0  0  0
    1.8610   12.2180   -0.8460 C   0  0  1  0  0  0  0  0  0  0  0  0
    3.1810   11.4320   -0.5770 C   0  0  0  0  0  0  0  0  0  0  0  0
    1.8730   13.4530    0.1300 C   0  0  0  0  0  0  0  0  0  0  0  0
    1.0730   14.6940   -0.3100 C   0  0  0  0  0  0  0  0  0  0  0  0
    1.4130   15.0830   -1.7520 C   0  0  2  0  0  0  0  0  0  0  0  0
    2.9310   15.4690   -1.7980 C   0  0  0  0  0  0  0  0  0  0  0  0
    2.9449   18.5305   -2.1258 H   0  0  0  0  0  0  0  0  0  0  0  0
    2.5182   17.3622   -3.4218 H   0  0  0  0  0  0  0  0  0  0  0  0
    1.7959   19.0068   -3.4218 H   0  0  0  0  0  0  0  0  0  0  0  0
    0.1197   18.3386   -2.1087 H   0  0  0  0  0  0  0  0  0  0  0  0
    0.5366   17.0907    0.0948 H   0  0  0  0  0  0  0  0  0  0  0  0
    2.3086   17.2857   -0.3123 H   0  0  0  0  0  0  0  0  0  0  0  0
    1.4279   19.0184    1.2605 H   0  0  0  0  0  0  0  0  0  0  0  0
    2.1265   19.6624   -0.2836 H   0  0  0  0  0  0  0  0  0  0  0  0
    0.4607   20.2934   -1.0105 H   0  0  0  0  0  0  0  0  0  0  0  0
   -1.5127   17.9515    1.8439 H   0  0  0  0  0  0  0  0  0  0  0  0
   -2.4783   17.4574    0.4121 H   0  0  0  0  0  0  0  0  0  0  0  0
   -0.6955   17.2383    0.4121 H   0  0  0  0  0  0  0  0  0  0  0  0
   -3.2806   20.1630    0.1314 H   0  0  0  0  0  0  0  0  0  0  0  0
   -2.1956   20.6433   -1.2173 H   0  0  0  0  0  0  0  0  0  0  0  0
   -2.9639   19.0196   -1.2173 H   0  0  0  0  0  0  0  0  0  0  0  0
   -0.4380   16.2144   -2.0083 H   0  0  0  0  0  0  0  0  0  0  0  0
   -0.1836   16.1803   -4.4116 H   0  0  0  0  0  0  0  0  0  0  0  0
    1.5041   16.7270   -4.3182 H   0  0  0  0  0  0  0  0  0  0  0  0
    0.6517   14.0526   -4.8553 H   0  0  0  0  0  0  0  0  0  0  0  0
    2.2948   14.4915   -4.3960 H   0  0  0  0  0  0  0  0  0  0  0  0
   -0.8556   13.4568   -1.6385 H   0  0  0  0  0  0  0  0  0  0  0  0
   -1.0800   14.3266   -3.1940 H   0  0  0  0  0  0  0  0  0  0  0  0
   -0.6680   12.5783   -3.1940 H   0  0  0  0  0  0  0  0  0  0  0  0
    2.9115   13.0281   -2.5673 H   0  0  0  0  0  0  0  0  0  0  0  0
    1.4241   11.8264   -4.2949 H   0  0  0  0  0  0  0  0  0  0  0  0
    2.6613   10.9007   -3.2941 H   0  0  0  0  0  0  0  0  0  0  0  0
    0.3211    9.7374   -3.6209 H   0  0  0  0  0  0  0  0  0  0  0  0
   -0.1904   12.0420   -0.3468 H   0  0  0  0  0  0  0  0  0  0  0  0
    1.6416    9.7546    0.6059 H   0  0  0  0  0  0  0  0  0  0  0  0
    1.0335   11.1525    1.5990 H   0  0  0  0  0  0  0  0  0  0  0  0
   -0.2152    9.0661    2.0565 H   0  0  0  0  0  0  0  0  0  0  0  0
   -1.2520   10.3701    1.3564 H   0  0  0  0  0  0  0  0  0  0  0  0
   -1.8205    8.2874    0.3082 H   0  0  0  0  0  0  0  0  0  0  0  0
    0.9880    8.1730   -0.3380 H   0  0  0  0  0  0  0  0  0  0  0  0
   -2.6100   10.5109   -0.1742 H   0  0  0  0  0  0  0  0  0  0  0  0
   -2.1795   11.3044   -1.7271 H   0  0  0  0  0  0  0  0  0  0  0  0
   -3.1917    9.8204   -1.7271 H   0  0  0  0  0  0  0  0  0  0  0  0
   -1.6147    7.4412   -1.9271 H   0  0  0  0  0  0  0  0  0  0  0  0
   -2.2056    8.7242   -3.0369 H   0  0  0  0  0  0  0  0  0  0  0  0
   -0.4685    8.2668   -3.0369 H   0  0  0  0  0  0  0  0  0  0  0  0
    3.3376   11.3387    0.5078 H   0  0  0  0  0  0  0  0  0  0  0  0
    3.1087   10.4298   -1.0245 H   0  0  0  0  0  0  0  0  0  0  0  0
    4.0277   11.9732   -1.0245 H   0  0  0  0  0  0  0  0  0  0  0  0
    1.4643   13.1185    1.0949 H   0  0  0  0  0  0  0  0  0  0  0  0
    2.9217   13.7835    0.1631 H   0  0  0  0  0  0  0  0  0  0  0  0
   -0.0022   14.4719   -0.2412 H   0  0  0  0  0  0  0  0  0  0  0  0
    1.3361   15.5331    0.3508 H   0  0  0  0  0  0  0  0  0  0  0  0
    3.3157   15.5668   -0.7721 H   0  0  0  0  0  0  0  0  0  0  0  0
    3.4928   14.6851   -2.3271 H   0  0  0  0  0  0  0  0  0  0  0  0
    3.0501   16.4260   -2.3271 H   0  0  0  0  0  0  0  0  0  0  0  0
  1  2  1  0
  2  3  1  0
  3  4  1  0
  4  5  1  0
  5  6  1  0
  6  7  1  0
  7  8  1  0
  7  9  1  0
  2 10  1  0
 10 11  1  0
 11 12  1  0
 12 13  1  0
 13 14  1  6
 13 15  1  0
 15 16  1  0
 16 17  1  0
 17 18  2  0
 18 19  1  0
 19 20  1  0
 20 21  1  0
 21 22  1  0
 22 23  1  0
 22 24  1  0
 24 25  1  0
 24 26  1  0
 19 27  1  0
 27 28  1  1
 27 29  1  0
 29 30  1  0
 30 31  1  0
 31 32  1  1
  7  5  1  0
 31 10  1  0
 31 13  1  0
 27 15  1  0
 24 18  1  0
  1 33  1  0
  1 34  1  0
  1 35  1  0
  2 36  1  1
  3 37  1  0
  3 38  1  0
  4 39  1  0
  4 40  1  0
  5 41  1  6
  8 42  1  0
  8 43  1  0
  8 44  1  0
  9 45  1  0
  9 46  1  0
  9 47  1  0
 10 48  1  6
 11 49  1  0
 11 50  1  0
 12 51  1  0
 12 52  1  0
 14 53  1  0
 14 54  1  0
 14 55  1  0
 15 56  1  6
 16 57  1  0
 16 58  1  0
 17 59  1  0
 19 60  1  1
 20 61  1  0
 20 62  1  0
 21 63  1  0
 21 64  1  0
 22 65  1  1
 23 66  1  0
 25 67  1  0
 25 68  1  0
 25 69  1  0
 26 70  1  0
 26 71  1  0
 26 72  1  0
 28 73  1  0
 28 74  1  0
 28 75  1  0
 29 76  1  0
 29 77  1  0
 30 78  1  0
 30 79  1  0
 32 80  1  0
 32 81  1  0
 32 82  1  0
M  END
>  <meeko>  (4) 
{"is_sidechain": [false], "intermolecular_energy": 2.731, "internal_energy": -0.839}

$$$$
EPH_relaxed_0001_pdb2pqr_Repair_96_r2_0001_out
     RDKit          3D

 82 86  0  0  0  0  0  0  0  0999 V2000
   -4.7520    6.4000   -2.4420 C   0  0  0  0  0  0  0  0  0  0  0  0
   -5.2600    7.8170   -2.1620 C   0  0  2  0  0  0  0  0  0  0  0  0
   -5.0610    8.2250   -0.6890 C   0  0  0  0  0  0  0  0  0  0  0  0
   -4.0360    9.3450   -0.4930 C   0  0  0  0  0  0  0  0  0  0  0  0
   -2.6380    8.8670   -0.7420 C   0  0  2  0  0  0  0  0  0  0  0  0
   -1.6620    9.3660    0.1820 O   0  0  0  0  0  0  0  0  0  0  0  0
   -1.5090    9.7780   -1.1850 C   0  0  0  0  0  0  0  0  0  0  0  0
   -1.7280   11.2420   -1.4080 C   0  0  0  0  0  0  0  0  0  0  0  0
   -0.3250    9.1690   -1.8700 C   0  0  0  0  0  0  0  0  0  0  0  0
   -6.7340    7.9240   -2.5380 C   0  0  1  0  0  0  0  0  0  0  0  0
   -7.0590    7.2250   -3.8840 C   0  0  0  0  0  0  0  0  0  0  0  0
   -8.4820    6.6240   -3.7440 C   0  0  0  0  0  0  0  0  0  0  0  0
   -9.0540    7.2730   -2.4620 C   0  0  1  0  0  0  0  0  0  0  0  0
   -9.5570    8.6800   -2.9150 C   0  0  0  0  0  0  0  0  0  0  0  0
  -10.1740    6.4710   -1.7220 C   0  0  2  0  0  0  0  0  0  0  0  0
  -11.4630    6.2500   -2.5330 C   0  0  0  0  0  0  0  0  0  0  0  0
  -12.5050    7.3070   -2.3740 C   0  0  0  0  0  0  0  0  0  0  0  0
  -12.5340    8.2380   -1.4020 C   0  0  0  0  0  0  0  0  0  0  0  0
  -11.4980    8.2270   -0.2710 C   0  0  1  0  0  0  0  0  0  0  0  0
  -12.2160    8.4180    1.0910 C   0  0  0  0  0  0  0  0  0  0  0  0
  -13.0970    9.6640    1.1180 C   0  0  0  0  0  0  0  0  0  0  0  0
  -14.1510    9.6100    0.0150 C   0  0  2  0  0  0  0  0  0  0  0  0
  -15.0650    8.5470    0.3030 O   0  0  0  0  0  0  0  0  0  0  0  0
  -13.5460    9.4100   -1.4020 C   0  0  0  0  0  0  0  0  0  0  0  0
  -12.8010   10.6960   -1.8360 C   0  0  0  0  0  0  0  0  0  0  0  0
  -14.7210    9.2310   -2.4020 C   0  0  0  0  0  0  0  0  0  0  0  0
  -10.4920    6.9970   -0.2640 C   0  0  1  0  0  0  0  0  0  0  0  0
  -11.1210    5.8000    0.5130 C   0  0  0  0  0  0  0  0  0  0  0  0
   -9.1900    7.4020    0.5230 C   0  0  0  0  0  0  0  0  0  0  0  0
   -8.0710    8.0830   -0.2880 C   0  0  0  0  0  0  0  0  0  0  0  0
   -7.7630    7.2960   -1.5650 C   0  0  2  0  0  0  0  0  0  0  0  0
   -7.2350    5.8840   -1.1410 C   0  0  0  0  0  0  0  0  0  0  0  0
   -4.5663    5.8821   -1.4894 H   0  0  0  0  0  0  0  0  0  0  0  0
   -5.5078    5.8468   -3.0189 H   0  0  0  0  0  0  0  0  0  0  0  0
   -3.8169    6.4530   -3.0189 H   0  0  0  0  0  0  0  0  0  0  0  0
   -4.6675    8.5090   -2.7785 H   0  0  0  0  0  0  0  0  0  0  0  0
   -6.0277    8.5653   -0.2894 H   0  0  0  0  0  0  0  0  0  0  0  0
   -4.6756    7.3408   -0.1601 H   0  0  0  0  0  0  0  0  0  0  0  0
   -4.2631   10.1625   -1.1930 H   0  0  0  0  0  0  0  0  0  0  0  0
   -4.0999    9.6895    0.5497 H   0  0  0  0  0  0  0  0  0  0  0  0
   -3.0099    7.9089   -1.1340 H   0  0  0  0  0  0  0  0  0  0  0  0
   -1.8045   11.7534   -0.4371 H   0  0  0  0  0  0  0  0  0  0  0  0
   -0.8820   11.6571   -1.9754 H   0  0  0  0  0  0  0  0  0  0  0  0
   -2.6585   11.3913   -1.9754 H   0  0  0  0  0  0  0  0  0  0  0  0
    0.3869    8.8029   -1.1155 H   0  0  0  0  0  0  0  0  0  0  0  0
   -0.6568    8.3297   -2.4988 H   0  0  0  0  0  0  0  0  0  0  0  0
    0.1648    9.9271   -2.4988 H   0  0  0  0  0  0  0  0  0  0  0  0
   -6.8437    9.0185   -2.5461 H   0  0  0  0  0  0  0  0  0  0  0  0
   -7.0357    7.9559   -4.7057 H   0  0  0  0  0  0  0  0  0  0  0  0
   -6.3203    6.4422   -4.1110 H   0  0  0  0  0  0  0  0  0  0  0  0
   -9.0995    6.8798   -4.6177 H   0  0  0  0  0  0  0  0  0  0  0  0
   -8.4675    5.5257   -3.6853 H   0  0  0  0  0  0  0  0  0  0  0  0
   -9.7764    9.2937   -2.0289 H   0  0  0  0  0  0  0  0  0  0  0  0
   -8.7788    9.1711   -3.5176 H   0  0  0  0  0  0  0  0  0  0  0  0
  -10.4702    8.5664   -3.5176 H   0  0  0  0  0  0  0  0  0  0  0  0
   -9.7172    5.4766   -1.6104 H   0  0  0  0  0  0  0  0  0  0  0  0
  -11.1904    6.1988   -3.5974 H   0  0  0  0  0  0  0  0  0  0  0  0
  -11.9098    5.3216   -2.1477 H   0  0  0  0  0  0  0  0  0  0  0  0
  -13.3185    7.3269   -3.1141 H   0  0  0  0  0  0  0  0  0  0  0  0
  -10.8294    9.0791   -0.4628 H   0  0  0  0  0  0  0  0  0  0  0  0
  -12.8453    7.5368    1.2846 H   0  0  0  0  0  0  0  0  0  0  0  0
  -11.4416    8.5396    1.8627 H   0  0  0  0  0  0  0  0  0  0  0  0
  -13.6001    9.7282    2.0941 H   0  0  0  0  0  0  0  0  0  0  0  0
  -12.4619   10.5471    0.9542 H   0  0  0  0  0  0  0  0  0  0  0  0
  -14.6643   10.5828    0.0013 H   0  0  0  0  0  0  0  0  0  0  0  0
  -14.8040    7.7810   -0.2360 H   0  0  0  0  0  0  0  0  0  0  0  0
  -12.4788   11.2521   -0.9433 H   0  0  0  0  0  0  0  0  0  0  0  0
  -11.9203   10.4246   -2.4365 H   0  0  0  0  0  0  0  0  0  0  0  0
  -13.4746   11.3250   -2.4365 H   0  0  0  0  0  0  0  0  0  0  0  0
  -15.6584    9.0882   -1.8445 H   0  0  0  0  0  0  0  0  0  0  0  0
  -14.8036   10.1269   -3.0348 H   0  0  0  0  0  0  0  0  0  0  0  0
  -14.5331    8.3511   -3.0348 H   0  0  0  0  0  0  0  0  0  0  0  0
  -11.0285    5.9760    1.5949 H   0  0  0  0  0  0  0  0  0  0  0  0
  -12.1841    5.7077    0.2461 H   0  0  0  0  0  0  0  0  0  0  0  0
  -10.5940    4.8721    0.2461 H   0  0  0  0  0  0  0  0  0  0  0  0
   -9.4876    8.0935    1.3250 H   0  0  0  0  0  0  0  0  0  0  0  0
   -8.7566    6.4524    0.8699 H   0  0  0  0  0  0  0  0  0  0  0  0
   -8.3914    9.0995   -0.5602 H   0  0  0  0  0  0  0  0  0  0  0  0
   -7.1617    8.1185    0.3300 H   0  0  0  0  0  0  0  0  0  0  0  0
   -7.2097    5.8164   -0.0434 H   0  0  0  0  0  0  0  0  0  0  0  0
   -7.9034    5.1073   -1.5409 H   0  0  0  0  0  0  0  0  0  0  0  0
   -6.2209    5.7365   -1.5409 H   0  0  0  0  0  0  0  0  0  0  0  0
  1  2  1  0
  2  3  1  0
  3  4  1  0
  4  5  1  0
  5  6  1  0
  6  7  1  0
  7  8  1  0
  7  9  1  0
  2 10  1  0
 10 11  1  0
 11 12  1  0
 12 13  1  0
 13 14  1  6
 13 15  1  0
 15 16  1  0
 16 17  1  0
 17 18  2  0
 18 19  1  0
 19 20  1  0
 20 21  1  0
 21 22  1  0
 22 23  1  0
 22 24  1  0
 24 25  1  0
 24 26  1  0
 19 27  1  0
 27 28  1  1
 27 29  1  0
 29 30  1  0
 30 31  1  0
 31 32  1  1
  7  5  1  0
 31 10  1  0
 31 13  1  0
 27 15  1  0
 24 18  1  0
  1 33  1  0
  1 34  1  0
  1 35  1  0
  2 36  1  6
  3 37  1  0
  3 38  1  0
  4 39  1  0
  4 40  1  0
  5 41  1  6
  8 42  1  0
  8 43  1  0
  8 44  1  0
  9 45  1  0
  9 46  1  0
  9 47  1  0
 10 48  1  6
 11 49  1  0
 11 50  1  0
 12 51  1  0
 12 52  1  0
 14 53  1  0
 14 54  1  0
 14 55  1  0
 15 56  1  1
 16 57  1  0
 16 58  1  0
 17 59  1  0
 19 60  1  6
 20 61  1  0
 20 62  1  0
 21 63  1  0
 21 64  1  0
 22 65  1  6
 23 66  1  0
 25 67  1  0
 25 68  1  0
 25 69  1  0
 26 70  1  0
 26 71  1  0
 26 72  1  0
 28 73  1  0
 28 74  1  0
 28 75  1  0
 29 76  1  0
 29 77  1  0
 30 78  1  0
 30 79  1  0
 32 80  1  0
 32 81  1  0
 32 82  1  0
M  END
>  <meeko>  (5) 
{"is_sidechain": [false], "intermolecular_energy": 2.731, "internal_energy": -0.839}

$$$$
EPH_relaxed_0001_pdb2pqr_Repair_96_r2_0001_out
     RDKit          3D

 82 86  0  0  0  0  0  0  0  0999 V2000
    3.8940   17.4540    0.3730 C   0  0  0  0  0  0  0  0  0  0  0  0
    2.7780   17.8270   -0.6070 C   0  0  2  0  0  0  0  0  0  0  0  0
    2.1640   19.2050   -0.2910 C   0  0  0  0  0  0  0  0  0  0  0  0
    1.0780   19.1630    0.7880 C   0  0  0  0  0  0  0  0  0  0  0  0
   -0.1220   19.9720    0.3980 C   0  0  2  0  0  0  0  0  0  0  0  0
   -1.0630   20.1950    1.4570 O   0  0  0  0  0  0  0  0  0  0  0  0
   -1.5300   19.4090    0.3490 C   0  0  0  0  0  0  0  0  0  0  0  0
   -1.8110   17.9790    0.6920 C   0  0  0  0  0  0  0  0  0  0  0  0
   -2.5500   20.1060   -0.4970 C   0  0  0  0  0  0  0  0  0  0  0  0
    1.6920   16.7570   -0.5910 C   0  0  1  0  0  0  0  0  0  0  0  0
    0.3200   17.2900   -1.0810 C   0  0  0  0  0  0  0  0  0  0  0  0
   -0.3670   16.1270   -1.8400 C   0  0  0  0  0  0  0  0  0  0  0  0
    0.4710   14.8780   -1.4810 C   0  0  1  0  0  0  0  0  0  0  0  0
   -0.0480   14.4350   -0.0780 C   0  0  0  0  0  0  0  0  0  0  0  0
    0.4320   13.7000   -2.5090 C   0  0  2  0  0  0  0  0  0  0  0  0
   -0.9540   13.0650   -2.7210 C   0  0  0  0  0  0  0  0  0  0  0  0
   -1.2740   11.9190   -1.8200 C   0  0  0  0  0  0  0  0  0  0  0  0
   -0.3850   11.2360   -1.0760 C   0  0  0  0  0  0  0  0  0  0  0  0
    1.1170   11.5360   -1.1720 C   0  0  1  0  0  0  0  0  0  0  0  0
    1.9050   10.2050   -1.2900 C   0  0  0  0  0  0  0  0  0  0  0  0
    1.5750    9.2280   -0.1660 C   0  0  0  0  0  0  0  0  0  0  0  0
    0.0830    8.9090   -0.1400 C   0  0  2  0  0  0  0  0  0  0  0  0
   -0.2540    8.1810   -1.3260 O   0  0  0  0  0  0  0  0  0  0  0  0
   -0.8130   10.1750   -0.0330 C   0  0  0  0  0  0  0  0  0  0  0  0
   -0.6680   10.7960    1.3790 C   0  0  0  0  0  0  0  0  0  0  0  0
   -2.2930    9.7250   -0.1590 C   0  0  0  0  0  0  0  0  0  0  0  0
    1.5430   12.5980   -2.2750 C   0  0  1  0  0  0  0  0  0  0  0  0
    1.7580   11.8840   -3.6450 C   0  0  0  0  0  0  0  0  0  0  0  0
    2.9320   13.2230   -1.8770 C   0  0  0  0  0  0  0  0  0  0  0  0
    2.9000   14.4580   -0.9560 C   0  0  0  0  0  0  0  0  0  0  0  0
    1.9130   15.5060   -1.4780 C   0  0  2  0  0  0  0  0  0  0  0  0
    2.4220   15.9860   -2.8800 C   0  0  0  0  0  0  0  0  0  0  0  0
    3.5317   17.5751    1.4046 H   0  0  0  0  0  0  0  0  0  0  0  0
    4.1913   16.4077    0.2092 H   0  0  0  0  0  0  0  0  0  0  0  0
    4.7607   18.1113    0.2092 H   0  0  0  0  0  0  0  0  0  0  0  0
    3.2257   17.8872   -1.6100 H   0  0  0  0  0  0  0  0  0  0  0  0
    2.9680   19.8730    0.0515 H   0  0  0  0  0  0  0  0  0  0  0  0
    1.6855   19.5628   -1.2146 H   0  0  0  0  0  0  0  0  0  0  0  0
    0.7691   18.1186    0.9425 H   0  0  0  0  0  0  0  0  0  0  0  0
    1.4951   19.5912    1.7114 H   0  0  0  0  0  0  0  0  0  0  0  0
    0.4702   20.5429   -0.3323 H   0  0  0  0  0  0  0  0  0  0  0  0
   -1.8340   17.8619    1.7855 H   0  0  0  0  0  0  0  0  0  0  0  0
   -2.7840   17.6854    0.2712 H   0  0  0  0  0  0  0  0  0  0  0  0
   -1.0214   17.3390    0.2712 H   0  0  0  0  0  0  0  0  0  0  0  0
   -3.2836   20.6073    0.1515 H   0  0  0  0  0  0  0  0  0  0  0  0
   -2.0512   20.8529   -1.1320 H   0  0  0  0  0  0  0  0  0  0  0  0
   -3.0646   19.3698   -1.1320 H   0  0  0  0  0  0  0  0  0  0  0  0
    1.7269   16.4756    0.4718 H   0  0  0  0  0  0  0  0  0  0  0  0
   -0.2952   17.5977   -0.2226 H   0  0  0  0  0  0  0  0  0  0  0  0
    0.4473   18.1664   -1.7335 H   0  0  0  0  0  0  0  0  0  0  0  0
   -1.4077   16.0058   -1.5050 H   0  0  0  0  0  0  0  0  0  0  0  0
   -0.4085   16.3038   -2.9249 H   0  0  0  0  0  0  0  0  0  0  0  0
    0.5394   14.9364    0.7053 H   0  0  0  0  0  0  0  0  0  0  0  0
   -1.1078   14.7113    0.0249 H   0  0  0  0  0  0  0  0  0  0  0  0
    0.0584   13.3450    0.0249 H   0  0  0  0  0  0  0  0  0  0  0  0
    0.6777   14.2044   -3.4552 H   0  0  0  0  0  0  0  0  0  0  0  0
   -1.7133   13.8449   -2.5619 H   0  0  0  0  0  0  0  0  0  0  0  0
   -0.9492   12.6572   -3.7426 H   0  0  0  0  0  0  0  0  0  0  0  0
   -2.3267   11.6060   -1.7590 H   0  0  0  0  0  0  0  0  0  0  0  0
    1.3854   12.0462   -0.2351 H   0  0  0  0  0  0  0  0  0  0  0  0
    1.6570    9.7326   -2.2519 H   0  0  0  0  0  0  0  0  0  0  0  0
    2.9764   10.4441   -1.2206 H   0  0  0  0  0  0  0  0  0  0  0  0
    2.1394    8.2967   -0.3214 H   0  0  0  0  0  0  0  0  0  0  0  0
    1.8515    9.6904    0.7930 H   0  0  0  0  0  0  0  0  0  0  0  0
   -0.1100    8.3105    0.7625 H   0  0  0  0  0  0  0  0  0  0  0  0
   -0.3880    8.8270   -2.0390 H   0  0  0  0  0  0  0  0  0  0  0  0
   -0.8486   10.0226    2.1400 H   0  0  0  0  0  0  0  0  0  0  0  0
    0.3484   11.1990    1.4997 H   0  0  0  0  0  0  0  0  0  0  0  0
   -1.4008   11.6074    1.4997 H   0  0  0  0  0  0  0  0  0  0  0  0
   -2.7232    9.5942    0.8449 H   0  0  0  0  0  0  0  0  0  0  0  0
   -2.8637   10.4902   -0.7056 H   0  0  0  0  0  0  0  0  0  0  0  0
   -2.3411    8.7716   -0.7056 H   0  0  0  0  0  0  0  0  0  0  0  0
    2.0712   10.8439   -3.4713 H   0  0  0  0  0  0  0  0  0  0  0  0
    0.8172   11.8933   -4.2150 H   0  0  0  0  0  0  0  0  0  0  0  0
    2.5372   12.4112   -4.2150 H   0  0  0  0  0  0  0  0  0  0  0  0
    3.5142   12.4419   -1.3661 H   0  0  0  0  0  0  0  0  0  0  0  0
    3.3683   13.5797   -2.8217 H   0  0  0  0  0  0  0  0  0  0  0  0
    2.5934   14.1462    0.0533 H   0  0  0  0  0  0  0  0  0  0  0  0
    3.9052   14.9041   -0.9326 H   0  0  0  0  0  0  0  0  0  0  0  0
    3.2162   16.7350   -2.7450 H   0  0  0  0  0  0  0  0  0  0  0  0
    2.8198   15.1266   -3.4396 H   0  0  0  0  0  0  0  0  0  0  0  0
    1.5874   16.4334   -3.4396 H   0  0  0  0  0  0  0  0  0  0  0  0
  1  2  1  0
  2  3  1  0
  3  4  1  0
  4  5  1  0
  5  6  1  0
  6  7  1  0
  7  8  1  0
  7  9  1  0
  2 10  1  0
 10 11  1  0
 11 12  1  0
 12 13  1  0
 13 14  1  1
 13 15  1  0
 15 16  1  0
 16 17  1  0
 17 18  2  0
 18 19  1  0
 19 20  1  0
 20 21  1  0
 21 22  1  0
 22 23  1  0
 22 24  1  0
 24 25  1  0
 24 26  1  0
 19 27  1  0
 27 28  1  6
 27 29  1  0
 29 30  1  0
 30 31  1  0
 31 32  1  6
  7  5  1  0
 31 10  1  0
 31 13  1  0
 27 15  1  0
 24 18  1  0
  1 33  1  0
  1 34  1  0
  1 35  1  0
  2 36  1  6
  3 37  1  0
  3 38  1  0
  4 39  1  0
  4 40  1  0
  5 41  1  6
  8 42  1  0
  8 43  1  0
  8 44  1  0
  9 45  1  0
  9 46  1  0
  9 47  1  0
 10 48  1  1
 11 49  1  0
 11 50  1  0
 12 51  1  0
 12 52  1  0
 14 53  1  0
 14 54  1  0
 14 55  1  0
 15 56  1  6
 16 57  1  0
 16 58  1  0
 17 59  1  0
 19 60  1  1
 20 61  1  0
 20 62  1  0
 21 63  1  0
 21 64  1  0
 22 65  1  1
 23 66  1  0
 25 67  1  0
 25 68  1  0
 25 69  1  0
 26 70  1  0
 26 71  1  0
 26 72  1  0
 28 73  1  0
 28 74  1  0
 28 75  1  0
 29 76  1  0
 29 77  1  0
 30 78  1  0
 30 79  1  0
 32 80  1  0
 32 81  1  0
 32 82  1  0
M  END
>  <meeko>  (6) 
{"is_sidechain": [false], "intermolecular_energy": 2.731, "internal_energy": -0.839}

$$$$
EPH_relaxed_0001_pdb2pqr_Repair_96_r2_0001_out
     RDKit          3D

 82 86  0  0  0  0  0  0  0  0999 V2000
    0.3990    8.8820   -2.4030 C   0  0  0  0  0  0  0  0  0  0  0  0
    1.1590   10.0140   -3.1000 C   0  0  2  0  0  0  0  0  0  0  0  0
    2.6550   10.0260   -2.7240 C   0  0  0  0  0  0  0  0  0  0  0  0
    3.5610   10.5830   -3.8250 C   0  0  0  0  0  0  0  0  0  0  0  0
    4.9560   10.8160   -3.3290 C   0  0  2  0  0  0  0  0  0  0  0  0
    5.5540   12.0390   -3.7770 O   0  0  0  0  0  0  0  0  0  0  0  0
    6.1750   10.8260   -4.2330 C   0  0  0  0  0  0  0  0  0  0  0  0
    6.0550   10.5980   -5.7070 C   0  0  0  0  0  0  0  0  0  0  0  0
    7.5190   10.5710   -3.6250 C   0  0  0  0  0  0  0  0  0  0  0  0
    0.5240   11.3550   -2.7550 C   0  0  1  0  0  0  0  0  0  0  0  0
   -0.8840   11.2040   -2.1190 C   0  0  0  0  0  0  0  0  0  0  0  0
   -1.0280   12.3420   -1.0760 C   0  0  0  0  0  0  0  0  0  0  0  0
    0.1500   13.2980   -1.3760 C   0  0  1  0  0  0  0  0  0  0  0  0
   -0.3360   14.1680   -2.5780 C   0  0  0  0  0  0  0  0  0  0  0  0
    0.6430   14.1840   -0.1850 C   0  0  2  0  0  0  0  0  0  0  0  0
   -0.3980   15.1730    0.3670 C   0  0  0  0  0  0  0  0  0  0  0  0
   -0.3960   16.5230   -0.2710 C   0  0  0  0  0  0  0  0  0  0  0  0
    0.5880   17.0210   -1.0430 C   0  0  0  0  0  0  0  0  0  0  0  0
    1.8880   16.2390   -1.2650 C   0  0  1  0  0  0  0  0  0  0  0  0
    3.1010   17.1880   -1.0790 C   0  0  0  0  0  0  0  0  0  0  0  0
    3.0120   18.4310   -1.9590 C   0  0  0  0  0  0  0  0  0  0  0  0
    1.7330   19.2130   -1.6690 C   0  0  2  0  0  0  0  0  0  0  0  0
    1.8100   19.7460   -0.3430 O   0  0  0  0  0  0  0  0  0  0  0  0
    0.4440   18.3570   -1.8140 C   0  0  0  0  0  0  0  0  0  0  0  0
    0.2010   18.0320   -3.3090 C   0  0  0  0  0  0  0  0  0  0  0  0
   -0.7590   19.2240   -1.3570 C   0  0  0  0  0  0  0  0  0  0  0  0
    2.0360   14.8900   -0.4360 C   0  0  1  0  0  0  0  0  0  0  0  0
    2.6410   15.1930    0.9690 C   0  0  0  0  0  0  0  0  0  0  0  0
    3.0620   13.9470   -1.1680 C   0  0  0  0  0  0  0  0  0  0  0  0
    2.4950   13.0110   -2.2520 C   0  0  0  0  0  0  0  0  0  0  0  0
    1.2680   12.2530   -1.7340 C   0  0  2  0  0  0  0  0  0  0  0  0
    1.7310   11.3530   -0.5390 C   0  0  0  0  0  0  0  0  0  0  0  0
    0.4801    9.0029   -1.3127 H   0  0  0  0  0  0  0  0  0  0  0  0
   -0.6602    8.9156   -2.6978 H   0  0  0  0  0  0  0  0  0  0  0  0
    0.8311    7.9143   -2.6978 H   0  0  0  0  0  0  0  0  0  0  0  0
    1.0926    9.8396   -4.1841 H   0  0  0  0  0  0  0  0  0  0  0  0
    2.7819   10.6448   -1.8235 H   0  0  0  0  0  0  0  0  0  0  0  0
    2.9539    8.9802   -2.5597 H   0  0  0  0  0  0  0  0  0  0  0  0
    3.5938    9.8645   -4.6573 H   0  0  0  0  0  0  0  0  0  0  0  0
    3.1480   11.5480   -4.1538 H   0  0  0  0  0  0  0  0  0  0  0  0
    4.7369   10.2833   -2.3919 H   0  0  0  0  0  0  0  0  0  0  0  0
    5.5498    9.6381   -5.8896 H   0  0  0  0  0  0  0  0  0  0  0  0
    5.4687   11.4125   -6.1575 H   0  0  0  0  0  0  0  0  0  0  0  0
    7.0583   10.5758   -6.1575 H   0  0  0  0  0  0  0  0  0  0  0  0
    7.4344   10.5871   -2.5284 H   0  0  0  0  0  0  0  0  0  0  0  0
    7.8877    9.5869   -3.9499 H   0  0  0  0  0  0  0  0  0  0  0  0
    8.2225   11.3517   -3.9499 H   0  0  0  0  0  0  0  0  0  0  0  0
    0.5360   11.8253   -3.7493 H   0  0  0  0  0  0  0  0  0  0  0  0
   -1.6609   11.2981   -2.8920 H   0  0  0  0  0  0  0  0  0  0  0  0
   -1.0000   10.2177   -1.6460 H   0  0  0  0  0  0  0  0  0  0  0  0
   -1.9901   12.8611   -1.1981 H   0  0  0  0  0  0  0  0  0  0  0  0
   -1.0068   11.9657   -0.0426 H   0  0  0  0  0  0  0  0  0  0  0  0
   -0.8395   15.0693   -2.1984 H   0  0  0  0  0  0  0  0  0  0  0  0
    0.5286   14.4618   -3.1912 H   0  0  0  0  0  0  0  0  0  0  0  0
   -1.0395   13.5858   -3.1912 H   0  0  0  0  0  0  0  0  0  0  0  0
    0.8008   13.4420    0.6116 H   0  0  0  0  0  0  0  0  0  0  0  0
   -1.3953   14.7313    0.2248 H   0  0  0  0  0  0  0  0  0  0  0  0
   -0.1343   15.3348    1.4226 H   0  0  0  0  0  0  0  0  0  0  0  0
   -1.2722   17.1645   -0.0954 H   0  0  0  0  0  0  0  0  0  0  0  0
    1.8522   15.8777   -2.3034 H   0  0  0  0  0  0  0  0  0  0  0  0
    3.1434   17.5037   -0.0261 H   0  0  0  0  0  0  0  0  0  0  0  0
    4.0054   16.6351   -1.3728 H   0  0  0  0  0  0  0  0  0  0  0  0
    3.8811   19.0756   -1.7609 H   0  0  0  0  0  0  0  0  0  0  0  0
    3.0000   18.1157   -3.0128 H   0  0  0  0  0  0  0  0  0  0  0  0
    1.6609   20.0161   -2.4172 H   0  0  0  0  0  0  0  0  0  0  0  0
    0.9370   20.1130   -0.1230 H   0  0  0  0  0  0  0  0  0  0  0  0
   -0.4559   17.1535   -3.3912 H   0  0  0  0  0  0  0  0  0  0  0  0
   -0.2762   18.8937   -3.7987 H   0  0  0  0  0  0  0  0  0  0  0  0
    1.1625   17.8180   -3.7987 H   0  0  0  0  0  0  0  0  0  0  0  0
   -0.7955   19.2503   -0.2579 H   0  0  0  0  0  0  0  0  0  0  0  0
   -0.6420   20.2468   -1.7446 H   0  0  0  0  0  0  0  0  0  0  0  0
   -1.6923   18.7895   -1.7446 H   0  0  0  0  0  0  0  0  0  0  0  0
    1.9478   14.8458    1.7493 H   0  0  0  0  0  0  0  0  0  0  0  0
    3.6032   14.6704    1.0744 H   0  0  0  0  0  0  0  0  0  0  0  0
    2.7988   16.2765    1.0744 H   0  0  0  0  0  0  0  0  0  0  0  0
    3.8203   14.5862   -1.6439 H   0  0  0  0  0  0  0  0  0  0  0  0
    3.4479   13.2786   -0.3842 H   0  0  0  0  0  0  0  0  0  0  0  0
    2.2051   13.6092   -3.1284 H   0  0  0  0  0  0  0  0  0  0  0  0
    3.2701   12.2797   -2.5248 H   0  0  0  0  0  0  0  0  0  0  0  0
    1.4774   11.8460    0.4111 H   0  0  0  0  0  0  0  0  0  0  0  0
    1.2218   10.3795   -0.5943 H   0  0  0  0  0  0  0  0  0  0  0  0
    2.8191   11.2013   -0.5943 H   0  0  0  0  0  0  0  0  0  0  0  0
  1  2  1  0
  2  3  1  0
  3  4  1  0
  4  5  1  0
  5  6  1  0
  6  7  1  0
  7  8  1  0
  7  9  1  0
  2 10  1  0
 10 11  1  0
 11 12  1  0
 12 13  1  0
 13 14  1  6
 13 15  1  0
 15 16  1  0
 16 17  1  0
 17 18  2  0
 18 19  1  0
 19 20  1  0
 20 21  1  0
 21 22  1  0
 22 23  1  0
 22 24  1  0
 24 25  1  0
 24 26  1  0
 19 27  1  0
 27 28  1  1
 27 29  1  0
 29 30  1  0
 30 31  1  0
 31 32  1  1
  7  5  1  0
 31 10  1  0
 31 13  1  0
 27 15  1  0
 24 18  1  0
  1 33  1  0
  1 34  1  0
  1 35  1  0
  2 36  1  6
  3 37  1  0
  3 38  1  0
  4 39  1  0
  4 40  1  0
  5 41  1  1
  8 42  1  0
  8 43  1  0
  8 44  1  0
  9 45  1  0
  9 46  1  0
  9 47  1  0
 10 48  1  6
 11 49  1  0
 11 50  1  0
 12 51  1  0
 12 52  1  0
 14 53  1  0
 14 54  1  0
 14 55  1  0
 15 56  1  1
 16 57  1  0
 16 58  1  0
 17 59  1  0
 19 60  1  6
 20 61  1  0
 20 62  1  0
 21 63  1  0
 21 64  1  0
 22 65  1  6
 23 66  1  0
 25 67  1  0
 25 68  1  0
 25 69  1  0
 26 70  1  0
 26 71  1  0
 26 72  1  0
 28 73  1  0
 28 74  1  0
 28 75  1  0
 29 76  1  0
 29 77  1  0
 30 78  1  0
 30 79  1  0
 32 80  1  0
 32 81  1  0
 32 82  1  0
M  END
>  <meeko>  (7) 
{"is_sidechain": [false], "intermolecular_energy": 2.731, "internal_energy": -0.839}

$$$$
EPH_relaxed_0001_pdb2pqr_Repair_96_r2_0001_out
     RDKit          3D

 82 86  0  0  0  0  0  0  0  0999 V2000
    1.6840   19.6490   -1.1930 C   0  0  0  0  0  0  0  0  0  0  0  0
    1.1310   19.4000    0.2130 C   0  0  2  0  0  0  0  0  0  0  0  0
    2.2230   19.5140    1.2950 C   0  0  0  0  0  0  0  0  0  0  0  0
    3.6100   19.8460    0.7370 C   0  0  0  0  0  0  0  0  0  0  0  0
    4.6700   18.9640    1.3260 C   0  0  2  0  0  0  0  0  0  0  0  0
    4.2160   18.1050    2.3800 O   0  0  0  0  0  0  0  0  0  0  0  0
    5.1800   19.1050    2.7480 C   0  0  0  0  0  0  0  0  0  0  0  0
    4.6440   20.1560    3.6690 C   0  0  0  0  0  0  0  0  0  0  0  0
    6.5280   18.5480    3.0830 C   0  0  0  0  0  0  0  0  0  0  0  0
    0.4760   18.0250    0.2780 C   0  0  1  0  0  0  0  0  0  0  0  0
   -1.0730   18.0970    0.1970 C   0  0  0  0  0  0  0  0  0  0  0  0
   -1.5380   16.8430   -0.5870 C   0  0  0  0  0  0  0  0  0  0  0  0
   -0.2900   15.9310   -0.6420 C   0  0  1  0  0  0  0  0  0  0  0  0
   -0.2600   15.2100    0.7420 C   0  0  0  0  0  0  0  0  0  0  0  0
   -0.2300   14.9120   -1.8250 C   0  0  2  0  0  0  0  0  0  0  0  0
   -1.3550   13.8620   -1.8400 C   0  0  0  0  0  0  0  0  0  0  0  0
   -1.0560   12.5970   -1.1050 C   0  0  0  0  0  0  0  0  0  0  0  0
    0.1640   12.1960   -0.7020 C   0  0  0  0  0  0  0  0  0  0  0  0
    1.4180   13.0020   -1.0660 C   0  0  1  0  0  0  0  0  0  0  0  0
    2.5200   12.0400   -1.5830 C   0  0  0  0  0  0  0  0  0  0  0  0
    2.8170   10.9100   -0.6020 C   0  0  0  0  0  0  0  0  0  0  0  0
    1.5590   10.0960   -0.3100 C   0  0  2  0  0  0  0  0  0  0  0  0
    1.1670    9.4100   -1.5030 O   0  0  0  0  0  0  0  0  0  0  0  0
    0.3760   10.9620    0.2080 C   0  0  0  0  0  0  0  0  0  0  0  0
    0.6850   11.4610    1.6410 C   0  0  0  0  0  0  0  0  0  0  0  0
   -0.8700   10.0440    0.3280 C   0  0  0  0  0  0  0  0  0  0  0  0
    1.1890   14.2420   -2.0330 C   0  0  1  0  0  0  0  0  0  0  0  0
    1.2470   13.7760   -3.5200 C   0  0  0  0  0  0  0  0  0  0  0  0
    2.3680   15.2680   -1.8420 C   0  0  0  0  0  0  0  0  0  0  0  0
    2.1970   16.3250   -0.7350 C   0  0  0  0  0  0  0  0  0  0  0  0
    0.8320   17.0140   -0.8400 C   0  0  2  0  0  0  0  0  0  0  0  0
    0.7810   17.7670   -2.2130 C   0  0  0  0  0  0  0  0  0  0  0  0
    2.6847   20.0996   -1.1189 H   0  0  0  0  0  0  0  0  0  0  0  0
    1.7510   18.6942   -1.7351 H   0  0  0  0  0  0  0  0  0  0  0  0
    1.0135   20.3321   -1.7351 H   0  0  0  0  0  0  0  0  0  0  0  0
    0.3817   20.1792    0.4164 H   0  0  0  0  0  0  0  0  0  0  0  0
    1.9328   20.3078    1.9991 H   0  0  0  0  0  0  0  0  0  0  0  0
    2.2988   18.5297    1.7803 H   0  0  0  0  0  0  0  0  0  0  0  0
    3.5976   19.7085   -0.3543 H   0  0  0  0  0  0  0  0  0  0  0  0
    3.8453   20.8878    1.0002 H   0  0  0  0  0  0  0  0  0  0  0  0
    5.1898   18.9021    0.3585 H   0  0  0  0  0  0  0  0  0  0  0  0
    4.8026   19.8450    4.7121 H   0  0  0  0  0  0  0  0  0  0  0  0
    5.1678   21.1058    3.4859 H   0  0  0  0  0  0  0  0  0  0  0  0
    3.5676   20.2897    3.4859 H   0  0  0  0  0  0  0  0  0  0  0  0
    6.6437   18.5002    4.1759 H   0  0  0  0  0  0  0  0  0  0  0  0
    6.6226   17.5371    2.6597 H   0  0  0  0  0  0  0  0  0  0  0  0
    7.3085   19.1973    2.6597 H   0  0  0  0  0  0  0  0  0  0  0  0
    0.8750   17.6761    1.2419 H   0  0  0  0  0  0  0  0  0  0  0  0
   -1.5059   18.0937    1.2082 H   0  0  0  0  0  0  0  0  0  0  0  0
   -1.4001   19.0201   -0.3040 H   0  0  0  0  0  0  0  0  0  0  0  0
   -2.3632   16.3404   -0.0612 H   0  0  0  0  0  0  0  0  0  0  0  0
   -1.9151   17.0943   -1.5893 H   0  0  0  0  0  0  0  0  0  0  0  0
   -0.2912   15.9594    1.5466 H   0  0  0  0  0  0  0  0  0  0  0  0
   -1.1312   14.5439    0.8274 H   0  0  0  0  0  0  0  0  0  0  0  0
    0.6635   14.6186    0.8274 H   0  0  0  0  0  0  0  0  0  0  0  0
   -0.4102   15.5553   -2.6989 H   0  0  0  0  0  0  0  0  0  0  0  0
   -2.2491   14.3152   -1.3870 H   0  0  0  0  0  0  0  0  0  0  0  0
   -1.4916   13.5770   -2.8936 H   0  0  0  0  0  0  0  0  0  0  0  0
   -1.9048   11.9369   -0.8733 H   0  0  0  0  0  0  0  0  0  0  0  0
    1.7498   13.4844   -0.1348 H   0  0  0  0  0  0  0  0  0  0  0  0
    2.1871   11.6018   -2.5355 H   0  0  0  0  0  0  0  0  0  0  0  0
    3.4429   12.6254   -1.7075 H   0  0  0  0  0  0  0  0  0  0  0  0
    3.5813   10.2483   -1.0357 H   0  0  0  0  0  0  0  0  0  0  0  0
    3.1777   11.3487    0.3400 H   0  0  0  0  0  0  0  0  0  0  0  0
    1.8038    9.3863    0.4940 H   0  0  0  0  0  0  0  0  0  0  0  0
    1.1640    8.4580   -1.3070 H   0  0  0  0  0  0  0  0  0  0  0  0
    0.2529   10.7632    2.3734 H   0  0  0  0  0  0  0  0  0  0  0  0
    1.7744   11.5143    1.7838 H   0  0  0  0  0  0  0  0  0  0  0  0
    0.2472   12.4600    1.7838 H   0  0  0  0  0  0  0  0  0  0  0  0
   -1.0998    9.8747    1.3903 H   0  0  0  0  0  0  0  0  0  0  0  0
   -1.7293   10.5265   -0.1606 H   0  0  0  0  0  0  0  0  0  0  0  0
   -0.6639    9.0803   -0.1606 H   0  0  0  0  0  0  0  0  0  0  0  0
    1.3828   12.6851   -3.5573 H   0  0  0  0  0  0  0  0  0  0  0  0
    0.3083   14.0462   -4.0258 H   0  0  0  0  0  0  0  0  0  0  0  0
    2.0908   14.2680   -4.0258 H   0  0  0  0  0  0  0  0  0  0  0  0
    3.2768   14.6917   -1.6142 H   0  0  0  0  0  0  0  0  0  0  0  0
    2.4072   15.8391   -2.7813 H   0  0  0  0  0  0  0  0  0  0  0  0
    2.2779   15.8346    0.2463 H   0  0  0  0  0  0  0  0  0  0  0  0
    2.9834   17.0853   -0.8517 H   0  0  0  0  0  0  0  0  0  0  0  0
    0.7077   18.8500   -2.0347 H   0  0  0  0  0  0  0  0  0  0  0  0
    1.6959   17.5505   -2.7841 H   0  0  0  0  0  0  0  0  0  0  0  0
   -0.0963   17.4292   -2.7841 H   0  0  0  0  0  0  0  0  0  0  0  0
  1  2  1  0
  2  3  1  0
  3  4  1  0
  4  5  1  0
  5  6  1  0
  6  7  1  0
  7  8  1  0
  7  9  1  0
  2 10  1  0
 10 11  1  0
 11 12  1  0
 12 13  1  0
 13 14  1  1
 13 15  1  0
 15 16  1  0
 16 17  1  0
 17 18  2  0
 18 19  1  0
 19 20  1  0
 20 21  1  0
 21 22  1  0
 22 23  1  0
 22 24  1  0
 24 25  1  0
 24 26  1  0
 19 27  1  0
 27 28  1  6
 27 29  1  0
 29 30  1  0
 30 31  1  0
 31 32  1  6
  7  5  1  0
 31 10  1  0
 31 13  1  0
 27 15  1  0
 24 18  1  0
  1 33  1  0
  1 34  1  0
  1 35  1  0
  2 36  1  1
  3 37  1  0
  3 38  1  0
  4 39  1  0
  4 40  1  0
  5 41  1  6
  8 42  1  0
  8 43  1  0
  8 44  1  0
  9 45  1  0
  9 46  1  0
  9 47  1  0
 10 48  1  1
 11 49  1  0
 11 50  1  0
 12 51  1  0
 12 52  1  0
 14 53  1  0
 14 54  1  0
 14 55  1  0
 15 56  1  6
 16 57  1  0
 16 58  1  0
 17 59  1  0
 19 60  1  1
 20 61  1  0
 20 62  1  0
 21 63  1  0
 21 64  1  0
 22 65  1  1
 23 66  1  0
 25 67  1  0
 25 68  1  0
 25 69  1  0
 26 70  1  0
 26 71  1  0
 26 72  1  0
 28 73  1  0
 28 74  1  0
 28 75  1  0
 29 76  1  0
 29 77  1  0
 30 78  1  0
 30 79  1  0
 32 80  1  0
 32 81  1  0
 32 82  1  0
M  END
>  <meeko>  (8) 
{"is_sidechain": [false], "intermolecular_energy": 2.731, "internal_energy": -0.839}

$$$$
EPH_relaxed_0001_pdb2pqr_Repair_96_r2_0001_out
     RDKit          3D

 82 86  0  0  0  0  0  0  0  0999 V2000
   -1.8300   14.7610    0.2220 C   0  0  0  0  0  0  0  0  0  0  0  0
   -0.4870   15.4930    0.1450 C   0  0  2  0  0  0  0  0  0  0  0  0
   -0.4700   16.5580   -0.9690 C   0  0  0  0  0  0  0  0  0  0  0  0
   -0.0830   17.9560   -0.4780 C   0  0  0  0  0  0  0  0  0  0  0  0
    1.3530   18.0160   -0.0510 C   0  0  2  0  0  0  0  0  0  0  0  0
    2.0320   19.2270   -0.4050 O   0  0  0  0  0  0  0  0  0  0  0  0
    2.5160   18.0250   -1.0250 C   0  0  0  0  0  0  0  0  0  0  0  0
    2.2950   17.9720   -2.5050 C   0  0  0  0  0  0  0  0  0  0  0  0
    3.8630   17.5930   -0.5360 C   0  0  0  0  0  0  0  0  0  0  0  0
    0.6390   14.4900   -0.0750 C   0  0  1  0  0  0  0  0  0  0  0  0
    0.7840   13.4860    1.0990 C   0  0  0  0  0  0  0  0  0  0  0  0
    1.2120   12.1310    0.4790 C   0  0  0  0  0  0  0  0  0  0  0  0
    1.6200   12.4770   -0.9720 C   0  0  1  0  0  0  0  0  0  0  0  0
    3.0760   13.0290   -0.8590 C   0  0  0  0  0  0  0  0  0  0  0  0
    1.5230   11.3150   -2.0130 C   0  0  2  0  0  0  0  0  0  0  0  0
    2.4400   10.1120   -1.7360 C   0  0  0  0  0  0  0  0  0  0  0  0
    3.7930   10.1840   -2.3630 C   0  0  0  0  0  0  0  0  0  0  0  0
    4.1560   11.0290   -3.3450 C   0  0  0  0  0  0  0  0  0  0  0  0
    3.1320   11.9680   -3.9940 C   0  0  1  0  0  0  0  0  0  0  0  0
    3.2820   11.9110   -5.5370 C   0  0  0  0  0  0  0  0  0  0  0  0
    4.7080   12.1970   -5.9970 C   0  0  0  0  0  0  0  0  0  0  0  0
    5.6900   11.2070   -5.3760 C   0  0  2  0  0  0  0  0  0  0  0  0
    5.4230    9.9020   -5.9010 O   0  0  0  0  0  0  0  0  0  0  0  0
    5.6220   11.1690   -3.8230 C   0  0  0  0  0  0  0  0  0  0  0  0
    6.1990   12.4850   -3.2450 C   0  0  0  0  0  0  0  0  0  0  0  0
    6.5580   10.0320   -3.3320 C   0  0  0  0  0  0  0  0  0  0  0  0
    1.6260   11.7850   -3.5210 C   0  0  1  0  0  0  0  0  0  0  0  0
    0.9280   10.6860   -4.3790 C   0  0  0  0  0  0  0  0  0  0  0  0
    0.8370   13.1220   -3.7860 C   0  0  0  0  0  0  0  0  0  0  0  0
    0.8730   14.1830   -2.6690 C   0  0  0  0  0  0  0  0  0  0  0  0
    0.5330   13.5610   -1.3110 C   0  0  2  0  0  0  0  0  0  0  0  0
   -0.9340   13.0170   -1.3880 C   0  0  0  0  0  0  0  0  0  0  0  0
   -2.1058   14.6107    1.2762 H   0  0  0  0  0  0  0  0  0  0  0  0
   -2.6043   15.3619   -0.2775 H   0  0  0  0  0  0  0  0  0  0  0  0
   -1.7446   13.7847   -0.2775 H   0  0  0  0  0  0  0  0  0  0  0  0
   -0.3382   16.0145    1.1020 H   0  0  0  0  0  0  0  0  0  0  0  0
    0.2541   16.2465   -1.7362 H   0  0  0  0  0  0  0  0  0  0  0  0
   -1.4947   16.6277   -1.3629 H   0  0  0  0  0  0  0  0  0  0  0  0
   -0.2429   18.6771   -1.2932 H   0  0  0  0  0  0  0  0  0  0  0  0
   -0.7100   18.1995    0.3924 H   0  0  0  0  0  0  0  0  0  0  0  0
    1.1392   17.4026    0.8367 H   0  0  0  0  0  0  0  0  0  0  0  0
    1.2441   17.7200   -2.7100 H   0  0  0  0  0  0  0  0  0  0  0  0
    2.5298   18.9519   -2.9461 H   0  0  0  0  0  0  0  0  0  0  0  0
    2.9487   17.2052   -2.9461 H   0  0  0  0  0  0  0  0  0  0  0  0
    3.8703   17.5906    0.5640 H   0  0  0  0  0  0  0  0  0  0  0  0
    4.0800   16.5802   -0.9063 H   0  0  0  0  0  0  0  0  0  0  0  0
    4.6286   18.2907   -0.9063 H   0  0  0  0  0  0  0  0  0  0  0  0
    1.4826   15.1853   -0.1973 H   0  0  0  0  0  0  0  0  0  0  0  0
    1.5499   13.8378    1.8058 H   0  0  0  0  0  0  0  0  0  0  0  0
   -0.1616   13.3860    1.6520 H   0  0  0  0  0  0  0  0  0  0  0  0
    2.0626   11.7033    1.0300 H   0  0  0  0  0  0  0  0  0  0  0  0
    0.4076   11.3817    0.5186 H   0  0  0  0  0  0  0  0  0  0  0  0
    3.3478   13.1320    0.2019 H   0  0  0  0  0  0  0  0  0  0  0  0
    3.7714   12.3321   -1.3496 H   0  0  0  0  0  0  0  0  0  0  0  0
    3.1347   14.0118   -1.3496 H   0  0  0  0  0  0  0  0  0  0  0  0
    0.4968   10.9490   -1.8618 H   0  0  0  0  0  0  0  0  0  0  0  0
    2.5738   10.0302   -0.6472 H   0  0  0  0  0  0  0  0  0  0  0  0
    1.9423    9.2400   -2.1854 H   0  0  0  0  0  0  0  0  0  0  0  0
    4.5581    9.4870   -1.9904 H   0  0  0  0  0  0  0  0  0  0  0  0
    3.3742   12.9782   -3.6322 H   0  0  0  0  0  0  0  0  0  0  0  0
    2.9948   10.9069   -5.8823 H   0  0  0  0  0  0  0  0  0  0  0  0
    2.6311   12.6878   -5.9647 H   0  0  0  0  0  0  0  0  0  0  0  0
    4.7566   12.1130   -7.0927 H   0  0  0  0  0  0  0  0  0  0  0  0
    4.9834   13.2127   -5.6767 H   0  0  0  0  0  0  0  0  0  0  0  0
    6.7049   11.5408   -5.6377 H   0  0  0  0  0  0  0  0  0  0  0  0
    5.8930    9.8250   -6.7490 H   0  0  0  0  0  0  0  0  0  0  0  0
    6.1802   12.4421   -2.1460 H   0  0  0  0  0  0  0  0  0  0  0  0
    7.2359   12.6131   -3.5892 H   0  0  0  0  0  0  0  0  0  0  0  0
    5.5907   13.3344   -3.5892 H   0  0  0  0  0  0  0  0  0  0  0  0
    6.5706   10.0167   -2.2322 H   0  0  0  0  0  0  0  0  0  0  0  0
    6.1899    9.0660   -3.7080 H   0  0  0  0  0  0  0  0  0  0  0  0
    7.5767   10.2077   -3.7080 H   0  0  0  0  0  0  0  0  0  0  0  0
    0.4579    9.9458   -3.7148 H   0  0  0  0  0  0  0  0  0  0  0  0
    0.1587   11.1499   -5.0137 H   0  0  0  0  0  0  0  0  0  0  0  0
    1.6750   10.1869   -5.0137 H   0  0  0  0  0  0  0  0  0  0  0  0
    1.2550   13.5807   -4.6942 H   0  0  0  0  0  0  0  0  0  0  0  0
   -0.2185   12.8226   -3.8647 H   0  0  0  0  0  0  0  0  0  0  0  0
    1.8806   14.6217   -2.6217 H   0  0  0  0  0  0  0  0  0  0  0  0
    0.1261   14.9577   -2.8969 H   0  0  0  0  0  0  0  0  0  0  0  0
   -1.3252   12.8719   -0.3702 H   0  0  0  0  0  0  0  0  0  0  0  0
   -1.5658   13.7406   -1.9239 H   0  0  0  0  0  0  0  0  0  0  0  0
   -0.9412   12.0564   -1.9239 H   0  0  0  0  0  0  0  0  0  0  0  0
  1  2  1  0
  2  3  1  0
  3  4  1  0
  4  5  1  0
  5  6  1  0
  6  7  1  0
  7  8  1  0
  7  9  1  0
  2 10  1  0
 10 11  1  0
 11 12  1  0
 12 13  1  0
 13 14  1  1
 13 15  1  0
 15 16  1  0
 16 17  1  0
 17 18  2  0
 18 19  1  0
 19 20  1  0
 20 21  1  0
 21 22  1  0
 22 23  1  0
 22 24  1  0
 24 25  1  0
 24 26  1  0
 19 27  1  0
 27 28  1  6
 27 29  1  0
 29 30  1  0
 30 31  1  0
 31 32  1  6
  7  5  1  0
 31 10  1  0
 31 13  1  0
 27 15  1  0
 24 18  1  0
  1 33  1  0
  1 34  1  0
  1 35  1  0
  2 36  1  1
  3 37  1  0
  3 38  1  0
  4 39  1  0
  4 40  1  0
  5 41  1  1
  8 42  1  0
  8 43  1  0
  8 44  1  0
  9 45  1  0
  9 46  1  0
  9 47  1  0
 10 48  1  6
 11 49  1  0
 11 50  1  0
 12 51  1  0
 12 52  1  0
 14 53  1  0
 14 54  1  0
 14 55  1  0
 15 56  1  6
 16 57  1  0
 16 58  1  0
 17 59  1  0
 19 60  1  1
 20 61  1  0
 20 62  1  0
 21 63  1  0
 21 64  1  0
 22 65  1  1
 23 66  1  0
 25 67  1  0
 25 68  1  0
 25 69  1  0
 26 70  1  0
 26 71  1  0
 26 72  1  0
 28 73  1  0
 28 74  1  0
 28 75  1  0
 29 76  1  0
 29 77  1  0
 30 78  1  0
 30 79  1  0
 32 80  1  0
 32 81  1  0
 32 82  1  0
M  END
>  <meeko>  (9) 
{"is_sidechain": [false], "intermolecular_energy": 2.731, "internal_energy": -0.839}

$$$$
EPH_relaxed_0001_pdb2pqr_Repair_96_r2_0001_out
     RDKit          3D

 82 86  0  0  0  0  0  0  0  0999 V2000
    0.1400    9.3480   -2.4590 C   0  0  0  0  0  0  0  0  0  0  0  0
    1.1780   10.3890   -2.8880 C   0  0  2  0  0  0  0  0  0  0  0  0
    2.5970    9.7920   -2.9760 C   0  0  0  0  0  0  0  0  0  0  0  0
    3.5240   10.5460   -3.9330 C   0  0  0  0  0  0  0  0  0  0  0  0
    4.9010   10.7050   -3.3610 C   0  0  2  0  0  0  0  0  0  0  0  0
    5.5520   11.9370   -3.7010 O   0  0  0  0  0  0  0  0  0  0  0  0
    6.1600   10.7370   -4.2070 C   0  0  0  0  0  0  0  0  0  0  0  0
    6.1020   10.6080   -5.6970 C   0  0  0  0  0  0  0  0  0  0  0  0
    7.4670   10.4040   -3.5580 C   0  0  0  0  0  0  0  0  0  0  0  0
    1.1670   11.5650   -1.9180 C   0  0  1  0  0  0  0  0  0  0  0  0
    2.2070   11.4080   -0.7770 C   0  0  0  0  0  0  0  0  0  0  0  0
    2.7350   12.8300   -0.4550 C   0  0  0  0  0  0  0  0  0  0  0  0
    1.7540   13.7830   -1.1770 C   0  0  1  0  0  0  0  0  0  0  0  0
    0.5220   13.8880   -0.2240 C   0  0  0  0  0  0  0  0  0  0  0  0
    2.3130   15.1930   -1.5550 C   0  0  2  0  0  0  0  0  0  0  0  0
    2.7390   16.0680   -0.3620 C   0  0  0  0  0  0  0  0  0  0  0  0
    1.6710   16.9500    0.1950 C   0  0  0  0  0  0  0  0  0  0  0  0
    0.5090   17.2510   -0.4140 C   0  0  0  0  0  0  0  0  0  0  0  0
    0.2160   16.7620   -1.8380 C   0  0  1  0  0  0  0  0  0  0  0  0
   -0.3480   17.9350   -2.6820 C   0  0  0  0  0  0  0  0  0  0  0  0
   -1.5590   18.5960   -2.0310 C   0  0  0  0  0  0  0  0  0  0  0  0
   -1.2120   19.1200   -0.6400 C   0  0  2  0  0  0  0  0  0  0  0  0
   -0.2760   20.1940   -0.7730 O   0  0  0  0  0  0  0  0  0  0  0  0
   -0.6260   18.0290    0.2980 C   0  0  0  0  0  0  0  0  0  0  0  0
   -1.7370   17.0220    0.6830 C   0  0  0  0  0  0  0  0  0  0  0  0
   -0.1880   18.7190    1.6180 C   0  0  0  0  0  0  0  0  0  0  0  0
    1.4040   16.0010   -2.5680 C   0  0  1  0  0  0  0  0  0  0  0  0
    2.3360   17.0280   -3.2810 C   0  0  0  0  0  0  0  0  0  0  0  0
    0.8080   15.0830   -3.7000 C   0  0  0  0  0  0  0  0  0  0  0  0
    0.3850   13.6590   -3.2890 C   0  0  0  0  0  0  0  0  0  0  0  0
    1.4950   12.9650   -2.4940 C   0  0  2  0  0  0  0  0  0  0  0  0
    2.7410   12.8250   -3.4350 C   0  0  0  0  0  0  0  0  0  0  0  0
    0.0966    9.3045   -1.3607 H   0  0  0  0  0  0  0  0  0  0  0  0
   -0.8471    9.6301   -2.8541 H   0  0  0  0  0  0  0  0  0  0  0  0
    0.4249    8.3617   -2.8541 H   0  0  0  0  0  0  0  0  0  0  0  0
    0.9024   10.7353   -3.8950 H   0  0  0  0  0  0  0  0  0  0  0  0
    3.0448    9.8115   -1.9715 H   0  0  0  0  0  0  0  0  0  0  0  0
    2.4918    8.7700   -3.3691 H   0  0  0  0  0  0  0  0  0  0  0  0
    3.5928    9.9864   -4.8775 H   0  0  0  0  0  0  0  0  0  0  0  0
    3.1036   11.5489   -4.0987 H   0  0  0  0  0  0  0  0  0  0  0  0
    4.6247   10.1197   -2.4716 H   0  0  0  0  0  0  0  0  0  0  0  0
    5.6644    9.6347   -5.9640 H   0  0  0  0  0  0  0  0  0  0  0  0
    5.4803   11.4155   -6.1110 H   0  0  0  0  0  0  0  0  0  0  0  0
    7.1186   10.6789   -6.1110 H   0  0  0  0  0  0  0  0  0  0  0  0
    7.3514   10.4334   -2.4645 H   0  0  0  0  0  0  0  0  0  0  0  0
    7.7833    9.3966   -3.8663 H   0  0  0  0  0  0  0  0  0  0  0  0
    8.2268   11.1373   -3.8663 H   0  0  0  0  0  0  0  0  0  0  0  0
    0.1160   11.5281   -1.5955 H   0  0  0  0  0  0  0  0  0  0  0  0
    1.7304   10.9704    0.1125 H   0  0  0  0  0  0  0  0  0  0  0  0
    3.0276   10.7408   -1.0793 H   0  0  0  0  0  0  0  0  0  0  0  0
    2.7251   13.0115    0.6299 H   0  0  0  0  0  0  0  0  0  0  0  0
    3.7746   12.9735   -0.7845 H   0  0  0  0  0  0  0  0  0  0  0  0
    0.8635   13.8589    0.8213 H   0  0  0  0  0  0  0  0  0  0  0  0
   -0.0065   14.8344   -0.4109 H   0  0  0  0  0  0  0  0  0  0  0  0
   -0.1590   13.0446   -0.4109 H   0  0  0  0  0  0  0  0  0  0  0  0
    3.2416   14.9424   -2.0889 H   0  0  0  0  0  0  0  0  0  0  0  0
    3.0834   15.4016    0.4425 H   0  0  0  0  0  0  0  0  0  0  0  0
    3.5219   16.7407   -0.7421 H   0  0  0  0  0  0  0  0  0  0  0  0
    1.8487   17.3911    1.1869 H   0  0  0  0  0  0  0  0  0  0  0  0
   -0.5449   15.9739   -1.7385 H   0  0  0  0  0  0  0  0  0  0  0  0
    0.4414   18.6908   -2.8068 H   0  0  0  0  0  0  0  0  0  0  0  0
   -0.6723   17.5240   -3.6494 H   0  0  0  0  0  0  0  0  0  0  0  0
   -1.8921   19.4353   -2.6592 H   0  0  0  0  0  0  0  0  0  0  0  0
   -2.3586   17.8468   -1.9347 H   0  0  0  0  0  0  0  0  0  0  0  0
   -2.1475   19.4632   -0.1741 H   0  0  0  0  0  0  0  0  0  0  0  0
   -0.7680   21.0270   -0.6740 H   0  0  0  0  0  0  0  0  0  0  0  0
   -1.8090   16.9567    1.7787 H   0  0  0  0  0  0  0  0  0  0  0  0
   -2.6989   17.3624    0.2719 H   0  0  0  0  0  0  0  0  0  0  0  0
   -1.4925   16.0314    0.2719 H   0  0  0  0  0  0  0  0  0  0  0  0
   -0.5571   18.1375    2.4757 H   0  0  0  0  0  0  0  0  0  0  0  0
    0.9100   18.7728    1.6568 H   0  0  0  0  0  0  0  0  0  0  0  0
   -0.6065   19.7355    1.6568 H   0  0  0  0  0  0  0  0  0  0  0  0
    2.8738   17.6206   -2.5263 H   0  0  0  0  0  0  0  0  0  0  0  0
    3.0609   16.4903   -3.9098 H   0  0  0  0  0  0  0  0  0  0  0  0
    1.7307   17.6975   -3.9098 H   0  0  0  0  0  0  0  0  0  0  0  0
   -0.0798   15.5896   -4.1064 H   0  0  0  0  0  0  0  0  0  0  0  0
    1.6285   14.9433   -4.4192 H   0  0  0  0  0  0  0  0  0  0  0  0
   -0.5202   13.7181   -2.6668 H   0  0  0  0  0  0  0  0  0  0  0  0
    0.1886   13.0749   -4.2002 H   0  0  0  0  0  0  0  0  0  0  0  0
    3.6511   12.7227   -2.8256 H   0  0  0  0  0  0  0  0  0  0  0  0
    2.6228   11.9345   -4.0698 H   0  0  0  0  0  0  0  0  0  0  0  0
    2.8234   13.7195   -4.0698 H   0  0  0  0  0  0  0  0  0  0  0  0
  1  2  1  0
  2  3  1  0
  3  4  1  0
  4  5  1  0
  5  6  1  0
  6  7  1  0
  7  8  1  0
  7  9  1  0
  2 10  1  0
 10 11  1  0
 11 12  1  0
 12 13  1  0
 13 14  1  1
 13 15  1  0
 15 16  1  0
 16 17  1  0
 17 18  2  0
 18 19  1  0
 19 20  1  0
 20 21  1  0
 21 22  1  0
 22 23  1  0
 22 24  1  0
 24 25  1  0
 24 26  1  0
 19 27  1  0
 27 28  1  6
 27 29  1  0
 29 30  1  0
 30 31  1  0
 31 32  1  6
  7  5  1  0
 31 10  1  0
 31 13  1  0
 27 15  1  0
 24 18  1  0
  1 33  1  0
  1 34  1  0
  1 35  1  0
  2 36  1  6
  3 37  1  0
  3 38  1  0
  4 39  1  0
  4 40  1  0
  5 41  1  1
  8 42  1  0
  8 43  1  0
  8 44  1  0
  9 45  1  0
  9 46  1  0
  9 47  1  0
 10 48  1  1
 11 49  1  0
 11 50  1  0
 12 51  1  0
 12 52  1  0
 14 53  1  0
 14 54  1  0
 14 55  1  0
 15 56  1  6
 16 57  1  0
 16 58  1  0
 17 59  1  0
 19 60  1  1
 20 61  1  0
 20 62  1  0
 21 63  1  0
 21 64  1  0
 22 65  1  1
 23 66  1  0
 25 67  1  0
 25 68  1  0
 25 69  1  0
 26 70  1  0
 26 71  1  0
 26 72  1  0
 28 73  1  0
 28 74  1  0
 28 75  1  0
 29 76  1  0
 29 77  1  0
 30 78  1  0
 30 79  1  0
 32 80  1  0
 32 81  1  0
 32 82  1  0
M  END
>  <meeko>  (10) 
{"is_sidechain": [false], "intermolecular_energy": 2.731, "internal_energy": -0.839}

$$$$
EPH_relaxed_0001_pdb2pqr_Repair_96_r2_0001_out
     RDKit          3D

 82 86  0  0  0  0  0  0  0  0999 V2000
    3.1440   18.5320   -1.0210 C   0  0  0  0  0  0  0  0  0  0  0  0
    2.8390   17.4660   -2.0770 C   0  0  2  0  0  0  0  0  0  0  0  0
    1.4850   17.7080   -2.7730 C   0  0  0  0  0  0  0  0  0  0  0  0
    0.8700   19.0760   -2.4640 C   0  0  0  0  0  0  0  0  0  0  0  0
   -0.4840   18.9460   -1.8340 C   0  0  2  0  0  0  0  0  0  0  0  0
   -1.1580   20.1900   -1.6030 O   0  0  0  0  0  0  0  0  0  0  0  0
   -0.8050   19.4330   -0.4340 C   0  0  0  0  0  0  0  0  0  0  0  0
    0.2340   20.0860    0.4230 C   0  0  0  0  0  0  0  0  0  0  0  0
   -1.9800   18.8400    0.2780 C   0  0  0  0  0  0  0  0  0  0  0  0
    2.8570   16.0820   -1.4380 C   0  0  1  0  0  0  0  0  0  0  0  0
    3.4320   16.0960    0.0030 C   0  0  0  0  0  0  0  0  0  0  0  0
    2.6470   15.0280    0.8090 C   0  0  0  0  0  0  0  0  0  0  0  0
    1.8870   14.2120   -0.2630 C   0  0  1  0  0  0  0  0  0  0  0  0
    2.9400   13.2020   -0.8190 C   0  0  0  0  0  0  0  0  0  0  0  0
    0.5870   13.4870    0.2140 C   0  0  2  0  0  0  0  0  0  0  0  0
    0.7980   12.4140    1.2970 C   0  0  0  0  0  0  0  0  0  0  0  0
    1.0450   11.0330    0.7870 C   0  0  0  0  0  0  0  0  0  0  0  0
    0.8150   10.6110   -0.4700 C   0  0  0  0  0  0  0  0  0  0  0  0
    0.1620   11.5360   -1.5050 C   0  0  1  0  0  0  0  0  0  0  0  0
   -0.9590   10.7670   -2.2530 C   0  0  0  0  0  0  0  0  0  0  0  0
   -0.4630    9.4620   -2.8680 C   0  0  0  0  0  0  0  0  0  0  0  0
    0.1270    8.5450   -1.7990 C   0  0  2  0  0  0  0  0  0  0  0  0
   -0.9230    8.1250   -0.9230 O   0  0  0  0  0  0  0  0  0  0  0  0
    1.2600    9.2160   -0.9740 C   0  0  0  0  0  0  0  0  0  0  0  0
    2.5150    9.3970   -1.8630 C   0  0  0  0  0  0  0  0  0  0  0  0
    1.6690    8.2360    0.1590 C   0  0  0  0  0  0  0  0  0  0  0  0
   -0.3240   12.9490   -0.9630 C   0  0  1  0  0  0  0  0  0  0  0  0
   -1.7690   12.8300   -0.3880 C   0  0  0  0  0  0  0  0  0  0  0  0
   -0.4070   13.9610   -2.1660 C   0  0  0  0  0  0  0  0  0  0  0  0
    0.8790   14.7350   -2.5120 C   0  0  0  0  0  0  0  0  0  0  0  0
    1.4950   15.3640   -1.2590 C   0  0  2  0  0  0  0  0  0  0  0  0
    0.4680   16.4010   -0.6900 C   0  0  0  0  0  0  0  0  0  0  0  0
    3.0203   18.0996   -0.0171 H   0  0  0  0  0  0  0  0  0  0  0  0
    4.1789   18.8840   -1.1436 H   0  0  0  0  0  0  0  0  0  0  0  0
    2.4519   19.3782   -1.1436 H   0  0  0  0  0  0  0  0  0  0  0  0
    3.6214   17.5301   -2.8476 H   0  0  0  0  0  0  0  0  0  0  0  0
    1.6348   17.6321   -3.8601 H   0  0  0  0  0  0  0  0  0  0  0  0
    0.7871   16.9481   -2.3916 H   0  0  0  0  0  0  0  0  0  0  0  0
    1.5337   19.6175   -1.7739 H   0  0  0  0  0  0  0  0  0  0  0  0
    0.7560   19.6225   -3.4118 H   0  0  0  0  0  0  0  0  0  0  0  0
   -0.6514   17.9816   -2.3360 H   0  0  0  0  0  0  0  0  0  0  0  0
   -0.0142   19.9300    1.4832 H   0  0  0  0  0  0  0  0  0  0  0  0
    1.2178   19.6435    0.2078 H   0  0  0  0  0  0  0  0  0  0  0  0
    0.2620   21.1644    0.2078 H   0  0  0  0  0  0  0  0  0  0  0  0
   -1.8274   18.9170    1.3646 H   0  0  0  0  0  0  0  0  0  0  0  0
   -2.8928   19.3853   -0.0036 H   0  0  0  0  0  0  0  0  0  0  0  0
   -2.0835   17.7817   -0.0036 H   0  0  0  0  0  0  0  0  0  0  0  0
    3.4713   15.5460   -2.1765 H   0  0  0  0  0  0  0  0  0  0  0  0
    4.5030   15.8459   -0.0142 H   0  0  0  0  0  0  0  0  0  0  0  0
    3.3276   17.0911    0.4601 H   0  0  0  0  0  0  0  0  0  0  0  0
    3.3365   14.3821    1.3723 H   0  0  0  0  0  0  0  0  0  0  0  0
    1.9692   15.4784    1.5491 H   0  0  0  0  0  0  0  0  0  0  0  0
    3.4538   12.7092    0.0196 H   0  0  0  0  0  0  0  0  0  0  0  0
    2.4323   12.4445   -1.4341 H   0  0  0  0  0  0  0  0  0  0  0  0
    3.6757   13.7408   -1.4341 H   0  0  0  0  0  0  0  0  0  0  0  0
    0.0298   14.2995    0.7032 H   0  0  0  0  0  0  0  0  0  0  0  0
    1.6645   12.7115    1.9059 H   0  0  0  0  0  0  0  0  0  0  0  0
   -0.1432   12.3650    1.8642 H   0  0  0  0  0  0  0  0  0  0  0  0
    1.4492   10.2982    1.4988 H   0  0  0  0  0  0  0  0  0  0  0  0
    0.9589   11.8133   -2.2107 H   0  0  0  0  0  0  0  0  0  0  0  0
   -1.7649   10.5371   -1.5404 H   0  0  0  0  0  0  0  0  0  0  0  0
   -1.3143   11.4086   -3.0728 H   0  0  0  0  0  0  0  0  0  0  0  0
   -1.3059    8.9506   -3.3558 H   0  0  0  0  0  0  0  0  0  0  0  0
    0.3218    9.6958   -3.6024 H   0  0  0  0  0  0  0  0  0  0  0  0
    0.5819    7.6862   -2.3143 H   0  0  0  0  0  0  0  0  0  0  0  0
   -0.6040    7.3470   -0.4340 H   0  0  0  0  0  0  0  0  0  0  0  0
    3.4014    9.5248   -1.2243 H   0  0  0  0  0  0  0  0  0  0  0  0
    2.6457    8.5084   -2.4981 H   0  0  0  0  0  0  0  0  0  0  0  0
    2.3893   10.2863   -2.4981 H   0  0  0  0  0  0  0  0  0  0  0  0
    1.4741    8.7029    1.1357 H   0  0  0  0  0  0  0  0  0  0  0  0
    1.0824    7.3095    0.0719 H   0  0  0  0  0  0  0  0  0  0  0  0
    2.7402    8.0014    0.0719 H   0  0  0  0  0  0  0  0  0  0  0  0
   -1.7277   12.8334    0.7112 H   0  0  0  0  0  0  0  0  0  0  0  0
   -2.3729   13.6815   -0.7349 H   0  0  0  0  0  0  0  0  0  0  0  0
   -2.2255   11.8912   -0.7349 H   0  0  0  0  0  0  0  0  0  0  0  0
   -0.7038   13.3922   -3.0596 H   0  0  0  0  0  0  0  0  0  0  0  0
   -1.1281   14.7283   -1.8477 H   0  0  0  0  0  0  0  0  0  0  0  0
    1.6059   14.0423   -2.9612 H   0  0  0  0  0  0  0  0  0  0  0  0
    0.6248   15.5387   -3.2187 H   0  0  0  0  0  0  0  0  0  0  0  0
    0.4927   16.3761    0.4094 H   0  0  0  0  0  0  0  0  0  0  0  0
    0.7332   17.4096   -1.0399 H   0  0  0  0  0  0  0  0  0  0  0  0
   -0.5431   16.1456   -1.0399 H   0  0  0  0  0  0  0  0  0  0  0  0
  1  2  1  0
  2  3  1  0
  3  4  1  0
  4  5  1  0
  5  6  1  0
  6  7  1  0
  7  8  1  0
  7  9  1  0
  2 10  1  0
 10 11  1  0
 11 12  1  0
 12 13  1  0
 13 14  1  6
 13 15  1  0
 15 16  1  0
 16 17  1  0
 17 18  2  0
 18 19  1  0
 19 20  1  0
 20 21  1  0
 21 22  1  0
 22 23  1  0
 22 24  1  0
 24 25  1  0
 24 26  1  0
 19 27  1  0
 27 28  1  1
 27 29  1  0
 29 30  1  0
 30 31  1  0
 31 32  1  1
  7  5  1  0
 31 10  1  0
 31 13  1  0
 27 15  1  0
 24 18  1  0
  1 33  1  0
  1 34  1  0
  1 35  1  0
  2 36  1  6
  3 37  1  0
  3 38  1  0
  4 39  1  0
  4 40  1  0
  5 41  1  6
  8 42  1  0
  8 43  1  0
  8 44  1  0
  9 45  1  0
  9 46  1  0
  9 47  1  0
 10 48  1  6
 11 49  1  0
 11 50  1  0
 12 51  1  0
 12 52  1  0
 14 53  1  0
 14 54  1  0
 14 55  1  0
 15 56  1  1
 16 57  1  0
 16 58  1  0
 17 59  1  0
 19 60  1  6
 20 61  1  0
 20 62  1  0
 21 63  1  0
 21 64  1  0
 22 65  1  6
 23 66  1  0
 25 67  1  0
 25 68  1  0
 25 69  1  0
 26 70  1  0
 26 71  1  0
 26 72  1  0
 28 73  1  0
 28 74  1  0
 28 75  1  0
 29 76  1  0
 29 77  1  0
 30 78  1  0
 30 79  1  0
 32 80  1  0
 32 81  1  0
 32 82  1  0
M  END
>  <meeko>  (11) 
{"is_sidechain": [false], "intermolecular_energy": 2.731, "internal_energy": -0.839}

$$$$
EPH_relaxed_0001_pdb2pqr_Repair_96_r2_0001_out
     RDKit          3D

 82 86  0  0  0  0  0  0  0  0999 V2000
   -3.2340    7.7720   -0.5740 C   0  0  0  0  0  0  0  0  0  0  0  0
   -3.6780    9.2260   -0.3870 C   0  0  2  0  0  0  0  0  0  0  0  0
   -5.1550    9.4370   -0.7760 C   0  0  0  0  0  0  0  0  0  0  0  0
   -5.8890    8.1420   -1.1300 C   0  0  0  0  0  0  0  0  0  0  0  0
   -6.6670    8.2760   -2.4040 C   0  0  2  0  0  0  0  0  0  0  0  0
   -7.5560    7.1850   -2.6810 O   0  0  0  0  0  0  0  0  0  0  0  0
   -6.4700    7.3690   -3.6040 C   0  0  0  0  0  0  0  0  0  0  0  0
   -5.4640    6.2610   -3.5880 C   0  0  0  0  0  0  0  0  0  0  0  0
   -6.9010    7.8600   -4.9510 C   0  0  0  0  0  0  0  0  0  0  0  0
   -2.7850   10.1510   -1.2060 C   0  0  1  0  0  0  0  0  0  0  0  0
   -3.3300   11.6030   -1.2710 C   0  0  0  0  0  0  0  0  0  0  0  0
   -2.0970   12.5430   -1.2810 C   0  0  0  0  0  0  0  0  0  0  0  0
   -0.8960   11.6080   -1.5560 C   0  0  1  0  0  0  0  0  0  0  0  0
   -0.9020   11.3910   -3.1020 C   0  0  0  0  0  0  0  0  0  0  0  0
    0.4970   12.1040   -1.0480 C   0  0  2  0  0  0  0  0  0  0  0  0
    0.9970   13.4110   -1.6880 C   0  0  0  0  0  0  0  0  0  0  0  0
    1.8210   13.2430   -2.9210 C   0  0  0  0  0  0  0  0  0  0  0  0
    2.3850   12.0920   -3.3330 C   0  0  0  0  0  0  0  0  0  0  0  0
    2.3000   10.8220   -2.4780 C   0  0  1  0  0  0  0  0  0  0  0  0
    3.6980   10.1560   -2.3980 C   0  0  0  0  0  0  0  0  0  0  0  0
    4.3010    9.8930   -3.7750 C   0  0  0  0  0  0  0  0  0  0  0  0
    4.4230   11.1880   -4.5730 C   0  0  2  0  0  0  0  0  0  0  0  0
    5.3910   12.0300   -3.9390 O   0  0  0  0  0  0  0  0  0  0  0  0
    3.0770   11.9530   -4.7120 C   0  0  0  0  0  0  0  0  0  0  0  0
    2.1290   11.1700   -5.6540 C   0  0  0  0  0  0  0  0  0  0  0  0
    3.3670   13.3070   -5.4140 C   0  0  0  0  0  0  0  0  0  0  0  0
    1.6220   10.9920   -1.0500 C   0  0  1  0  0  0  0  0  0  0  0  0
    2.6900   11.4360   -0.0040 C   0  0  0  0  0  0  0  0  0  0  0  0
    1.0820    9.5940   -0.5680 C   0  0  0  0  0  0  0  0  0  0  0  0
   -0.3450    9.2120   -1.0040 C   0  0  0  0  0  0  0  0  0  0  0  0
   -1.3290   10.3510   -0.7170 C   0  0  2  0  0  0  0  0  0  0  0  0
   -1.3610   10.5760    0.8330 C   0  0  0  0  0  0  0  0  0  0  0  0
   -3.0907    7.3029    0.4106 H   0  0  0  0  0  0  0  0  0  0  0  0
   -4.0052    7.2222   -1.1334 H   0  0  0  0  0  0  0  0  0  0  0  0
   -2.2872    7.7468   -1.1334 H   0  0  0  0  0  0  0  0  0  0  0  0
   -3.5815    9.4671    0.6819 H   0  0  0  0  0  0  0  0  0  0  0  0
   -5.6732    9.9093    0.0715 H   0  0  0  0  0  0  0  0  0  0  0  0
   -5.1631   10.0677   -1.6772 H   0  0  0  0  0  0  0  0  0  0  0  0
   -5.1512    7.3344   -1.2462 H   0  0  0  0  0  0  0  0  0  0  0  0
   -6.5964    7.9161   -0.3185 H   0  0  0  0  0  0  0  0  0  0  0  0
   -6.6890    9.3711   -2.3026 H   0  0  0  0  0  0  0  0  0  0  0  0
   -5.2250    5.9978   -2.5470 H   0  0  0  0  0  0  0  0  0  0  0  0
   -5.8788    5.3817   -4.1026 H   0  0  0  0  0  0  0  0  0  0  0  0
   -4.5489    6.5892   -4.1026 H   0  0  0  0  0  0  0  0  0  0  0  0
   -7.6221    8.6815   -4.8283 H   0  0  0  0  0  0  0  0  0  0  0  0
   -6.0238    8.2221   -5.5072 H   0  0  0  0  0  0  0  0  0  0  0  0
   -7.3738    7.0371   -5.5072 H   0  0  0  0  0  0  0  0  0  0  0  0
   -2.7887    9.6104   -2.1640 H   0  0  0  0  0  0  0  0  0  0  0  0
   -3.9220   11.7448   -2.1872 H   0  0  0  0  0  0  0  0  0  0  0  0
   -3.9841   11.8183   -0.4132 H   0  0  0  0  0  0  0  0  0  0  0  0
   -2.1909   13.2983   -2.0751 H   0  0  0  0  0  0  0  0  0  0  0  0
   -1.9870   13.0969   -0.3370 H   0  0  0  0  0  0  0  0  0  0  0  0
   -0.9318   10.3134   -3.3209 H   0  0  0  0  0  0  0  0  0  0  0  0
   -1.7870   11.8782   -3.5372 H   0  0  0  0  0  0  0  0  0  0  0  0
    0.0086   11.8285   -3.5372 H   0  0  0  0  0  0  0  0  0  0  0  0
    0.2910   12.3464    0.0050 H   0  0  0  0  0  0  0  0  0  0  0  0
    0.1186   14.0204   -1.9468 H   0  0  0  0  0  0  0  0  0  0  0  0
    1.6561   13.8815   -0.9435 H   0  0  0  0  0  0  0  0  0  0  0  0
    1.9809   14.1343   -3.5455 H   0  0  0  0  0  0  0  0  0  0  0  0
    1.5979   10.1529   -2.9969 H   0  0  0  0  0  0  0  0  0  0  0  0
    4.3733   10.8199   -1.8384 H   0  0  0  0  0  0  0  0  0  0  0  0
    3.5768    9.1849   -1.8958 H   0  0  0  0  0  0  0  0  0  0  0  0
    5.3005    9.4505   -3.6518 H   0  0  0  0  0  0  0  0  0  0  0  0
    3.6403    9.2043   -4.3220 H   0  0  0  0  0  0  0  0  0  0  0  0
    4.7363   10.9183   -5.5924 H   0  0  0  0  0  0  0  0  0  0  0  0
    6.0600   12.2630   -4.6060 H   0  0  0  0  0  0  0  0  0  0  0  0
    1.4183   10.5830   -5.0537 H   0  0  0  0  0  0  0  0  0  0  0  0
    1.5758   11.8780   -6.2886 H   0  0  0  0  0  0  0  0  0  0  0  0
    2.7197   10.4930   -6.2886 H   0  0  0  0  0  0  0  0  0  0  0  0
    3.5337   14.0853   -4.6548 H   0  0  0  0  0  0  0  0  0  0  0  0
    4.2646   13.2094   -6.0423 H   0  0  0  0  0  0  0  0  0  0  0  0
    2.5082   13.5856   -6.0423 H   0  0  0  0  0  0  0  0  0  0  0  0
    2.2988   11.2734    1.0111 H   0  0  0  0  0  0  0  0  0  0  0  0
    3.6071   10.8446   -0.1427 H   0  0  0  0  0  0  0  0  0  0  0  0
    2.9175   12.5032   -0.1427 H   0  0  0  0  0  0  0  0  0  0  0  0
    1.7652    8.8227   -0.9532 H   0  0  0  0  0  0  0  0  0  0  0  0
    1.0381    9.6654    0.5288 H   0  0  0  0  0  0  0  0  0  0  0  0
   -0.3466    8.9983   -2.0830 H   0  0  0  0  0  0  0  0  0  0  0  0
   -0.6599    8.3245   -0.4355 H   0  0  0  0  0  0  0  0  0  0  0  0
   -1.2240    9.6128    1.3462 H   0  0  0  0  0  0  0  0  0  0  0  0
   -0.5515   11.2631    1.1206 H   0  0  0  0  0  0  0  0  0  0  0  0
   -2.3299   11.0101    1.1206 H   0  0  0  0  0  0  0  0  0  0  0  0
  1  2  1  0
  2  3  1  0
  3  4  1  0
  4  5  1  0
  5  6  1  0
  6  7  1  0
  7  8  1  0
  7  9  1  0
  2 10  1  0
 10 11  1  0
 11 12  1  0
 12 13  1  0
 13 14  1  6
 13 15  1  0
 15 16  1  0
 16 17  1  0
 17 18  2  0
 18 19  1  0
 19 20  1  0
 20 21  1  0
 21 22  1  0
 22 23  1  0
 22 24  1  0
 24 25  1  0
 24 26  1  0
 19 27  1  0
 27 28  1  1
 27 29  1  0
 29 30  1  0
 30 31  1  0
 31 32  1  1
  7  5  1  0
 31 10  1  0
 31 13  1  0
 27 15  1  0
 24 18  1  0
  1 33  1  0
  1 34  1  0
  1 35  1  0
  2 36  1  1
  3 37  1  0
  3 38  1  0
  4 39  1  0
  4 40  1  0
  5 41  1  6
  8 42  1  0
  8 43  1  0
  8 44  1  0
  9 45  1  0
  9 46  1  0
  9 47  1  0
 10 48  1  6
 11 49  1  0
 11 50  1  0
 12 51  1  0
 12 52  1  0
 14 53  1  0
 14 54  1  0
 14 55  1  0
 15 56  1  1
 16 57  1  0
 16 58  1  0
 17 59  1  0
 19 60  1  6
 20 61  1  0
 20 62  1  0
 21 63  1  0
 21 64  1  0
 22 65  1  6
 23 66  1  0
 25 67  1  0
 25 68  1  0
 25 69  1  0
 26 70  1  0
 26 71  1  0
 26 72  1  0
 28 73  1  0
 28 74  1  0
 28 75  1  0
 29 76  1  0
 29 77  1  0
 30 78  1  0
 30 79  1  0
 32 80  1  0
 32 81  1  0
 32 82  1  0
M  END
>  <meeko>  (12) 
{"is_sidechain": [false], "intermolecular_energy": 2.731, "internal_energy": -0.839}

$$$$
EPH_relaxed_0001_pdb2pqr_Repair_96_r2_0001_out
     RDKit          3D

 82 86  0  0  0  0  0  0  0  0999 V2000
    4.8180   18.7420    0.2510 C   0  0  0  0  0  0  0  0  0  0  0  0
    3.4320   19.0880    0.8040 C   0  0  2  0  0  0  0  0  0  0  0  0
    3.3690   18.9530    2.3380 C   0  0  0  0  0  0  0  0  0  0  0  0
    3.8720   20.1900    3.0860 C   0  0  0  0  0  0  0  0  0  0  0  0
    4.5500   19.8230    4.3720 C   0  0  2  0  0  0  0  0  0  0  0  0
    4.0860   18.6040    4.9660 O   0  0  0  0  0  0  0  0  0  0  0  0
    3.8430   19.8060    5.7150 C   0  0  0  0  0  0  0  0  0  0  0  0
    2.3960   20.1630    5.8400 C   0  0  0  0  0  0  0  0  0  0  0  0
    4.6690   19.9190    6.9590 C   0  0  0  0  0  0  0  0  0  0  0  0
    2.3780   18.1960    0.1580 C   0  0  1  0  0  0  0  0  0  0  0  0
    1.6710   18.8790   -1.0420 C   0  0  0  0  0  0  0  0  0  0  0  0
    1.3710   17.7660   -2.0780 C   0  0  0  0  0  0  0  0  0  0  0  0
    1.6100   16.4440   -1.3110 C   0  0  1  0  0  0  0  0  0  0  0  0
    0.3000   16.2120   -0.4950 C   0  0  0  0  0  0  0  0  0  0  0  0
    1.9780   15.1970   -2.1790 C   0  0  2  0  0  0  0  0  0  0  0  0
    0.8950   14.7570   -3.1800 C   0  0  0  0  0  0  0  0  0  0  0  0
   -0.0840   13.7570   -2.6620 C   0  0  0  0  0  0  0  0  0  0  0  0
    0.0670   13.0200   -1.5460 C   0  0  0  0  0  0  0  0  0  0  0  0
    1.3640   13.0860   -0.7280 C   0  0  1  0  0  0  0  0  0  0  0  0
    1.8280   11.6480   -0.3760 C   0  0  0  0  0  0  0  0  0  0  0  0
    0.7390   10.8360    0.3190 C   0  0  0  0  0  0  0  0  0  0  0  0
   -0.5120   10.7440   -0.5490 C   0  0  2  0  0  0  0  0  0  0  0  0
   -0.2100    9.9700   -1.7140 O   0  0  0  0  0  0  0  0  0  0  0  0
   -1.0660   12.1330   -0.9740 C   0  0  0  0  0  0  0  0  0  0  0  0
   -1.6720   12.8510    0.2570 C   0  0  0  0  0  0  0  0  0  0  0  0
   -2.2420   11.8960   -1.9610 C   0  0  0  0  0  0  0  0  0  0  0  0
    2.5300   13.9690   -1.3480 C   0  0  1  0  0  0  0  0  0  0  0  0
    3.3800   13.1110   -2.3350 C   0  0  0  0  0  0  0  0  0  0  0  0
    3.5050   14.4160   -0.1950 C   0  0  0  0  0  0  0  0  0  0  0  0
    3.1520   15.7200    0.5460 C   0  0  0  0  0  0  0  0  0  0  0  0
    2.8570   16.8510   -0.4440 C   0  0  2  0  0  0  0  0  0  0  0  0
    4.1650   17.1220   -1.2640 C   0  0  0  0  0  0  0  0  0  0  0  0
    5.5130   18.5685    1.0858 H   0  0  0  0  0  0  0  0  0  0  0  0
    4.7506   17.8331   -0.3649 H   0  0  0  0  0  0  0  0  0  0  0  0
    5.1857   19.5759   -0.3649 H   0  0  0  0  0  0  0  0  0  0  0  0
    3.2299   20.1408    0.5573 H   0  0  0  0  0  0  0  0  0  0  0  0
    2.3233   18.7732    2.6281 H   0  0  0  0  0  0  0  0  0  0  0  0
    4.0308   18.1190    2.6146 H   0  0  0  0  0  0  0  0  0  0  0  0
    4.5878   20.7269    2.4462 H   0  0  0  0  0  0  0  0  0  0  0  0
    3.0045   20.8229    3.3243 H   0  0  0  0  0  0  0  0  0  0  0  0
    5.4886   20.2894    4.0382 H   0  0  0  0  0  0  0  0  0  0  0  0
    2.1254   20.2298    6.9041 H   0  0  0  0  0  0  0  0  0  0  0  0
    2.2143   21.1329    5.3539 H   0  0  0  0  0  0  0  0  0  0  0  0
    1.7840   19.3889    5.3539 H   0  0  0  0  0  0  0  0  0  0  0  0
    4.0177   19.8299    7.8410 H   0  0  0  0  0  0  0  0  0  0  0  0
    5.4198   19.1152    6.9749 H   0  0  0  0  0  0  0  0  0  0  0  0
    5.1763   20.8949    6.9749 H   0  0  0  0  0  0  0  0  0  0  0  0
    1.7343   18.0100    1.0304 H   0  0  0  0  0  0  0  0  0  0  0  0
    0.7340   19.3507   -0.7110 H   0  0  0  0  0  0  0  0  0  0  0  0
    2.3055   19.6642   -1.4790 H   0  0  0  0  0  0  0  0  0  0  0  0
    0.3295   17.8301   -2.4262 H   0  0  0  0  0  0  0  0  0  0  0  0
    2.0038   17.8486   -2.9740 H   0  0  0  0  0  0  0  0  0  0  0  0
    0.5262   16.2521    0.5808 H   0  0  0  0  0  0  0  0  0  0  0  0
   -0.4314   16.9946   -0.7453 H   0  0  0  0  0  0  0  0  0  0  0  0
   -0.1181   15.2258   -0.7453 H   0  0  0  0  0  0  0  0  0  0  0  0
    2.8139   15.5714   -2.7881 H   0  0  0  0  0  0  0  0  0  0  0  0
    0.3351   15.6517   -3.4899 H   0  0  0  0  0  0  0  0  0  0  0  0
    1.4272   14.2620   -4.0057 H   0  0  0  0  0  0  0  0  0  0  0  0
   -1.0074   13.6097   -3.2414 H   0  0  0  0  0  0  0  0  0  0  0  0
    1.1153   13.6336    0.1930 H   0  0  0  0  0  0  0  0  0  0  0  0
    2.1140   11.1324   -1.3047 H   0  0  0  0  0  0  0  0  0  0  0  0
    2.6771   11.7315    0.3184 H   0  0  0  0  0  0  0  0  0  0  0  0
    1.1164    9.8215    0.5149 H   0  0  0  0  0  0  0  0  0  0  0  0
    0.4754   11.3377    1.2618 H   0  0  0  0  0  0  0  0  0  0  0  0
   -1.2968   10.2639    0.0540 H   0  0  0  0  0  0  0  0  0  0  0  0
    0.6170   10.3160   -2.0900 H   0  0  0  0  0  0  0  0  0  0  0  0
   -1.2838   12.3910    1.1777 H   0  0  0  0  0  0  0  0  0  0  0  0
   -1.3950   13.9153    0.2339 H   0  0  0  0  0  0  0  0  0  0  0  0
   -2.7677   12.7567    0.2339 H   0  0  0  0  0  0  0  0  0  0  0  0
   -3.1655   11.7099   -1.3931 H   0  0  0  0  0  0  0  0  0  0  0  0
   -2.3740   12.7856   -2.5944 H   0  0  0  0  0  0  0  0  0  0  0  0
   -2.0192   11.0247   -2.5944 H   0  0  0  0  0  0  0  0  0  0  0  0
    4.0417   12.4431   -1.7640 H   0  0  0  0  0  0  0  0  0  0  0  0
    2.7108   12.5103   -2.9685 H   0  0  0  0  0  0  0  0  0  0  0  0
    3.9869   13.7745   -2.9685 H   0  0  0  0  0  0  0  0  0  0  0  0
    3.5328   13.6070    0.5498 H   0  0  0  0  0  0  0  0  0  0  0  0
    4.4654   14.6179   -0.6919 H   0  0  0  0  0  0  0  0  0  0  0  0
    2.2638   15.5490    1.1719 H   0  0  0  0  0  0  0  0  0  0  0  0
    4.0107   16.0134    1.1677 H   0  0  0  0  0  0  0  0  0  0  0  0
    5.0023   17.2955   -0.5720 H   0  0  0  0  0  0  0  0  0  0  0  0
    4.3876   16.2509   -1.8977 H   0  0  0  0  0  0  0  0  0  0  0  0
    4.0231   18.0098   -1.8977 H   0  0  0  0  0  0  0  0  0  0  0  0
  1  2  1  0
  2  3  1  0
  3  4  1  0
  4  5  1  0
  5  6  1  0
  6  7  1  0
  7  8  1  0
  7  9  1  0
  2 10  1  0
 10 11  1  0
 11 12  1  0
 12 13  1  0
 13 14  1  1
 13 15  1  0
 15 16  1  0
 16 17  1  0
 17 18  2  0
 18 19  1  0
 19 20  1  0
 20 21  1  0
 21 22  1  0
 22 23  1  0
 22 24  1  0
 24 25  1  0
 24 26  1  0
 19 27  1  0
 27 28  1  6
 27 29  1  0
 29 30  1  0
 30 31  1  0
 31 32  1  6
  7  5  1  0
 31 10  1  0
 31 13  1  0
 27 15  1  0
 24 18  1  0
  1 33  1  0
  1 34  1  0
  1 35  1  0
  2 36  1  1
  3 37  1  0
  3 38  1  0
  4 39  1  0
  4 40  1  0
  5 41  1  1
  8 42  1  0
  8 43  1  0
  8 44  1  0
  9 45  1  0
  9 46  1  0
  9 47  1  0
 10 48  1  1
 11 49  1  0
 11 50  1  0
 12 51  1  0
 12 52  1  0
 14 53  1  0
 14 54  1  0
 14 55  1  0
 15 56  1  6
 16 57  1  0
 16 58  1  0
 17 59  1  0
 19 60  1  1
 20 61  1  0
 20 62  1  0
 21 63  1  0
 21 64  1  0
 22 65  1  1
 23 66  1  0
 25 67  1  0
 25 68  1  0
 25 69  1  0
 26 70  1  0
 26 71  1  0
 26 72  1  0
 28 73  1  0
 28 74  1  0
 28 75  1  0
 29 76  1  0
 29 77  1  0
 30 78  1  0
 30 79  1  0
 32 80  1  0
 32 81  1  0
 32 82  1  0
M  END
>  <meeko>  (13) 
{"is_sidechain": [false], "intermolecular_energy": 2.731, "internal_energy": -0.839}

$$$$
EPH_relaxed_0001_pdb2pqr_Repair_96_r2_0001_out
     RDKit          3D

 82 86  0  0  0  0  0  0  0  0999 V2000
   -4.3120    6.8450   -3.0260 C   0  0  0  0  0  0  0  0  0  0  0  0
   -4.2050    7.1030   -1.5200 C   0  0  2  0  0  0  0  0  0  0  0  0
   -5.5720    6.9970   -0.8140 C   0  0  0  0  0  0  0  0  0  0  0  0
   -6.7270    6.6540   -1.7590 C   0  0  0  0  0  0  0  0  0  0  0  0
   -7.4280    7.8850   -2.2480 C   0  0  2  0  0  0  0  0  0  0  0  0
   -8.6770    7.6410   -2.9070 O   0  0  0  0  0  0  0  0  0  0  0  0
   -7.6320    8.2040   -3.7170 C   0  0  0  0  0  0  0  0  0  0  0  0
   -7.1340    7.2880   -4.7900 C   0  0  0  0  0  0  0  0  0  0  0  0
   -7.8760    9.6270   -4.1130 C   0  0  0  0  0  0  0  0  0  0  0  0
   -3.5950    8.4770   -1.2700 C   0  0  1  0  0  0  0  0  0  0  0  0
   -4.1960    9.1800   -0.0240 C   0  0  0  0  0  0  0  0  0  0  0  0
   -3.0480    9.9910    0.6300 C   0  0  0  0  0  0  0  0  0  0  0  0
   -1.9220    9.9980   -0.4310 C   0  0  1  0  0  0  0  0  0  0  0  0
   -2.3200   11.1290   -1.4300 C   0  0  0  0  0  0  0  0  0  0  0  0
   -0.4670   10.1890    0.1070 C   0  0  2  0  0  0  0  0  0  0  0  0
   -0.2040   11.5300    0.8160 C   0  0  0  0  0  0  0  0  0  0  0  0
    0.2780   12.6330   -0.0670 C   0  0  0  0  0  0  0  0  0  0  0  0
    0.7620   12.4830   -1.3140 C   0  0  0  0  0  0  0  0  0  0  0  0
    0.9530   11.0880   -1.9210 C   0  0  1  0  0  0  0  0  0  0  0  0
    2.3510   11.0010   -2.5890 C   0  0  0  0  0  0  0  0  0  0  0  0
    2.5850   12.1160   -3.6030 C   0  0  0  0  0  0  0  0  0  0  0  0
    2.4430   13.4880   -2.9480 C   0  0  2  0  0  0  0  0  0  0  0  0
    3.5080   13.6620   -2.0080 O   0  0  0  0  0  0  0  0  0  0  0  0
    1.0770   13.6880   -2.2350 C   0  0  0  0  0  0  0  0  0  0  0  0
   -0.0500   13.8000   -3.2910 C   0  0  0  0  0  0  0  0  0  0  0  0
    1.1190   15.0530   -1.4970 C   0  0  0  0  0  0  0  0  0  0  0  0
    0.6640    9.8630   -0.9510 C   0  0  1  0  0  0  0  0  0  0  0  0
    1.9470    9.5130   -0.1370 C   0  0  0  0  0  0  0  0  0  0  0  0
    0.3250    8.5910   -1.8150 C   0  0  0  0  0  0  0  0  0  0  0  0
   -1.1500    8.3950   -2.2140 C   0  0  0  0  0  0  0  0  0  0  0  0
   -2.0710    8.5400   -0.9990 C   0  0  2  0  0  0  0  0  0  0  0  0
   -1.7090    7.4010    0.0140 C   0  0  0  0  0  0  0  0  0  0  0  0
   -4.7283    5.8413   -3.1974 H   0  0  0  0  0  0  0  0  0  0  0  0
   -4.9719    7.5983   -3.4811 H   0  0  0  0  0  0  0  0  0  0  0  0
   -3.3127    6.9101   -3.4811 H   0  0  0  0  0  0  0  0  0  0  0  0
   -3.5535    6.3244   -1.0965 H   0  0  0  0  0  0  0  0  0  0  0  0
   -5.5065    6.2121   -0.0462 H   0  0  0  0  0  0  0  0  0  0  0  0
   -5.7902    7.9861   -0.3849 H   0  0  0  0  0  0  0  0  0  0  0  0
   -6.3283    6.1036   -2.6239 H   0  0  0  0  0  0  0  0  0  0  0  0
   -7.4542    6.0433   -1.2038 H   0  0  0  0  0  0  0  0  0  0  0  0
   -7.0208    8.4761   -1.4144 H   0  0  0  0  0  0  0  0  0  0  0  0
   -6.6567    6.4101   -4.3302 H   0  0  0  0  0  0  0  0  0  0  0  0
   -7.9787    6.9612   -5.4143 H   0  0  0  0  0  0  0  0  0  0  0  0
   -6.4005    7.8192   -5.4143 H   0  0  0  0  0  0  0  0  0  0  0  0
   -7.9821   10.2459   -3.2098 H   0  0  0  0  0  0  0  0  0  0  0  0
   -7.0274    9.9921   -4.7101 H   0  0  0  0  0  0  0  0  0  0  0  0
   -8.7978    9.6885   -4.7101 H   0  0  0  0  0  0  0  0  0  0  0  0
   -3.8267    8.9588   -2.2313 H   0  0  0  0  0  0  0  0  0  0  0  0
   -5.0114    9.8538   -0.3259 H   0  0  0  0  0  0  0  0  0  0  0  0
   -4.6119    8.4455    0.6813 H   0  0  0  0  0  0  0  0  0  0  0  0
   -3.3761   11.0166    0.8549 H   0  0  0  0  0  0  0  0  0  0  0  0
   -2.7194    9.5538    1.5844 H   0  0  0  0  0  0  0  0  0  0  0  0
   -2.6339   12.0209   -0.8679 H   0  0  0  0  0  0  0  0  0  0  0  0
   -1.4561   11.3798   -2.0631 H   0  0  0  0  0  0  0  0  0  0  0  0
   -3.1505   10.7835   -2.0631 H   0  0  0  0  0  0  0  0  0  0  0  0
   -0.4025    9.4191    0.8901 H   0  0  0  0  0  0  0  0  0  0  0  0
   -1.1435   11.8563    1.2858 H   0  0  0  0  0  0  0  0  0  0  0  0
    0.6054   11.3404    1.5364 H   0  0  0  0  0  0  0  0  0  0  0  0
    0.2339   13.6556    0.3358 H   0  0  0  0  0  0  0  0  0  0  0  0
    0.1669   10.9784   -2.6826 H   0  0  0  0  0  0  0  0  0  0  0  0
    3.1207   11.0691   -1.8061 H   0  0  0  0  0  0  0  0  0  0  0  0
    2.4048   10.0433   -3.1274 H   0  0  0  0  0  0  0  0  0  0  0  0
    3.5991   12.0184   -4.0178 H   0  0  0  0  0  0  0  0  0  0  0  0
    1.8329   12.0284   -4.4009 H   0  0  0  0  0  0  0  0  0  0  0  0
    2.4918   14.2423   -3.7471 H   0  0  0  0  0  0  0  0  0  0  0  0
    3.5270   12.8750   -1.4360 H   0  0  0  0  0  0  0  0  0  0  0  0
   -1.0206   13.8965   -2.7825 H   0  0  0  0  0  0  0  0  0  0  0  0
    0.1238   14.6853   -3.9203 H   0  0  0  0  0  0  0  0  0  0  0  0
   -0.0538   12.8978   -3.9203 H   0  0  0  0  0  0  0  0  0  0  0  0
    1.1138   14.8826   -0.4103 H   0  0  0  0  0  0  0  0  0  0  0  0
    2.0342   15.5942   -1.7789 H   0  0  0  0  0  0  0  0  0  0  0  0
    0.2388   15.6495   -1.7789 H   0  0  0  0  0  0  0  0  0  0  0  0
    1.7264    9.5732    0.9390 H   0  0  0  0  0  0  0  0  0  0  0  0
    2.2735    8.4930   -0.3879 H   0  0  0  0  0  0  0  0  0  0  0  0
    2.7463   10.2259   -0.3879 H   0  0  0  0  0  0  0  0  0  0  0  0
    0.9151    8.6511   -2.7414 H   0  0  0  0  0  0  0  0  0  0  0  0
    0.5651    7.7328   -1.1701 H   0  0  0  0  0  0  0  0  0  0  0  0
   -1.4231    9.1512   -2.9647 H   0  0  0  0  0  0  0  0  0  0  0  0
   -1.2701    7.3821   -2.6260 H   0  0  0  0  0  0  0  0  0  0  0  0
   -1.8274    7.7735    1.0422 H   0  0  0  0  0  0  0  0  0  0  0  0
   -2.3787    6.5429   -0.1445 H   0  0  0  0  0  0  0  0  0  0  0  0
   -0.6668    7.0869   -0.1445 H   0  0  0  0  0  0  0  0  0  0  0  0
  1  2  1  0
  2  3  1  0
  3  4  1  0
  4  5  1  0
  5  6  1  0
  6  7  1  0
  7  8  1  0
  7  9  1  0
  2 10  1  0
 10 11  1  0
 11 12  1  0
 12 13  1  0
 13 14  1  6
 13 15  1  0
 15 16  1  0
 16 17  1  0
 17 18  2  0
 18 19  1  0
 19 20  1  0
 20 21  1  0
 21 22  1  0
 22 23  1  0
 22 24  1  0
 24 25  1  0
 24 26  1  0
 19 27  1  0
 27 28  1  1
 27 29  1  0
 29 30  1  0
 30 31  1  0
 31 32  1  1
  7  5  1  0
 31 10  1  0
 31 13  1  0
 27 15  1  0
 24 18  1  0
  1 33  1  0
  1 34  1  0
  1 35  1  0
  2 36  1  1
  3 37  1  0
  3 38  1  0
  4 39  1  0
  4 40  1  0
  5 41  1  1
  8 42  1  0
  8 43  1  0
  8 44  1  0
  9 45  1  0
  9 46  1  0
  9 47  1  0
 10 48  1  6
 11 49  1  0
 11 50  1  0
 12 51  1  0
 12 52  1  0
 14 53  1  0
 14 54  1  0
 14 55  1  0
 15 56  1  1
 16 57  1  0
 16 58  1  0
 17 59  1  0
 19 60  1  6
 20 61  1  0
 20 62  1  0
 21 63  1  0
 21 64  1  0
 22 65  1  6
 23 66  1  0
 25 67  1  0
 25 68  1  0
 25 69  1  0
 26 70  1  0
 26 71  1  0
 26 72  1  0
 28 73  1  0
 28 74  1  0
 28 75  1  0
 29 76  1  0
 29 77  1  0
 30 78  1  0
 30 79  1  0
 32 80  1  0
 32 81  1  0
 32 82  1  0
M  END
>  <meeko>  (14) 
{"is_sidechain": [false], "intermolecular_energy": 2.731, "internal_energy": -0.839}

$$$$
EPH_relaxed_0001_pdb2pqr_Repair_96_r2_0001_out
     RDKit          3D

 82 86  0  0  0  0  0  0  0  0999 V2000
   -4.6980    6.9480   -3.0730 C   0  0  0  0  0  0  0  0  0  0  0  0
   -4.5710    7.2050   -1.5690 C   0  0  2  0  0  0  0  0  0  0  0  0
   -5.9400    7.1850   -0.8590 C   0  0  0  0  0  0  0  0  0  0  0  0
   -6.9080    6.1390   -1.4180 C   0  0  0  0  0  0  0  0  0  0  0  0
   -8.1510    6.7710   -1.9680 C   0  0  2  0  0  0  0  0  0  0  0  0
   -8.3180    8.1550   -1.6320 O   0  0  0  0  0  0  0  0  0  0  0  0
   -9.3000    7.2510   -1.1010 C   0  0  0  0  0  0  0  0  0  0  0  0
   -9.2610    7.1180    0.3890 C   0  0  0  0  0  0  0  0  0  0  0  0
  -10.6530    7.3970   -1.7230 C   0  0  0  0  0  0  0  0  0  0  0  0
   -3.8780    8.5400   -1.3260 C   0  0  1  0  0  0  0  0  0  0  0  0
   -4.4540    9.2990   -0.1010 C   0  0  0  0  0  0  0  0  0  0  0  0
   -3.2660   10.0430    0.5630 C   0  0  0  0  0  0  0  0  0  0  0  0
   -2.1250    9.9630   -0.4780 C   0  0  1  0  0  0  0  0  0  0  0  0
   -2.4320   11.1020   -1.4990 C   0  0  0  0  0  0  0  0  0  0  0  0
   -0.6700   10.0680    0.0840 C   0  0  2  0  0  0  0  0  0  0  0  0
   -0.3330   11.3980    0.7780 C   0  0  0  0  0  0  0  0  0  0  0  0
    0.2340   12.4560   -0.1100 C   0  0  0  0  0  0  0  0  0  0  0  0
    0.7280   12.2570   -1.3460 C   0  0  0  0  0  0  0  0  0  0  0  0
    0.8400   10.8430   -1.9320 C   0  0  1  0  0  0  0  0  0  0  0  0
    2.2400   10.6570   -2.5730 C   0  0  0  0  0  0  0  0  0  0  0  0
    2.5620   11.7410   -3.5980 C   0  0  0  0  0  0  0  0  0  0  0  0
    2.4980   13.1280   -2.9640 C   0  0  2  0  0  0  0  0  0  0  0  0
    3.5560   13.2460   -2.0070 O   0  0  0  0  0  0  0  0  0  0  0  0
    1.1360   13.4250   -2.2770 C   0  0  0  0  0  0  0  0  0  0  0  0
    0.0360   13.5950   -3.3540 C   0  0  0  0  0  0  0  0  0  0  0  0
    1.2540   14.7960   -1.5570 C   0  0  0  0  0  0  0  0  0  0  0  0
    0.4550    9.6540   -0.9500 C   0  0  1  0  0  0  0  0  0  0  0  0
    1.7000    9.2340   -0.1090 C   0  0  0  0  0  0  0  0  0  0  0  0
    0.0500    8.3940   -1.8030 C   0  0  0  0  0  0  0  0  0  0  0  0
   -1.4280    8.2870   -2.2260 C   0  0  0  0  0  0  0  0  0  0  0  0
   -2.3580    8.5090   -1.0290 C   0  0  2  0  0  0  0  0  0  0  0  0
   -2.0870    7.3640    0.0060 C   0  0  0  0  0  0  0  0  0  0  0  0
   -5.1797    5.9731   -3.2390 H   0  0  0  0  0  0  0  0  0  0  0  0
   -5.3079    7.7410   -3.5303 H   0  0  0  0  0  0  0  0  0  0  0  0
   -3.6976    6.9452   -3.5303 H   0  0  0  0  0  0  0  0  0  0  0  0
   -3.9665    6.3900   -1.1442 H   0  0  0  0  0  0  0  0  0  0  0  0
   -5.7751    6.9708    0.2073 H   0  0  0  0  0  0  0  0  0  0  0  0
   -6.4015    8.1700   -1.0228 H   0  0  0  0  0  0  0  0  0  0  0  0
   -6.4053    5.5822   -2.2226 H   0  0  0  0  0  0  0  0  0  0  0  0
   -7.1994    5.4681   -0.5964 H   0  0  0  0  0  0  0  0  0  0  0  0
   -8.1174    6.1208   -2.8546 H   0  0  0  0  0  0  0  0  0  0  0  0
   -9.5420    8.0763    0.8501 H   0  0  0  0  0  0  0  0  0  0  0  0
   -9.9680    6.3372    0.7061 H   0  0  0  0  0  0  0  0  0  0  0  0
   -8.2443    6.8427    0.7061 H   0  0  0  0  0  0  0  0  0  0  0  0
  -11.4132    7.4790   -0.9322 H   0  0  0  0  0  0  0  0  0  0  0  0
  -10.6739    8.3026   -2.3470 H   0  0  0  0  0  0  0  0  0  0  0  0
  -10.8666    6.5167   -2.3470 H   0  0  0  0  0  0  0  0  0  0  0  0
   -4.0617    9.0216   -2.2978 H   0  0  0  0  0  0  0  0  0  0  0  0
   -5.2180   10.0201   -0.4270 H   0  0  0  0  0  0  0  0  0  0  0  0
   -4.9300    8.6040    0.6064 H   0  0  0  0  0  0  0  0  0  0  0  0
   -3.5305   11.0906    0.7696 H   0  0  0  0  0  0  0  0  0  0  0  0
   -2.9822    9.5982    1.5282 H   0  0  0  0  0  0  0  0  0  0  0  0
   -2.6808   12.0250   -0.9548 H   0  0  0  0  0  0  0  0  0  0  0  0
   -1.5486   11.2758   -2.1310 H   0  0  0  0  0  0  0  0  0  0  0  0
   -3.2830   10.8083   -2.1310 H   0  0  0  0  0  0  0  0  0  0  0  0
   -0.6687    9.3081    0.8793 H   0  0  0  0  0  0  0  0  0  0  0  0
   -1.2573   11.7907    1.2269 H   0  0  0  0  0  0  0  0  0  0  0  0
    0.4511   11.1666    1.5140 H   0  0  0  0  0  0  0  0  0  0  0  0
    0.2492   13.4849    0.2788 H   0  0  0  0  0  0  0  0  0  0  0  0
    0.0631   10.7724   -2.7075 H   0  0  0  0  0  0  0  0  0  0  0  0
    2.9991   10.6870   -1.7774 H   0  0  0  0  0  0  0  0  0  0  0  0
    2.2418    9.6900   -3.0973 H   0  0  0  0  0  0  0  0  0  0  0  0
    3.5743   11.5726   -3.9940 H   0  0  0  0  0  0  0  0  0  0  0  0
    1.8189   11.6905   -4.4074 H   0  0  0  0  0  0  0  0  0  0  0  0
    2.6088   13.8662   -3.7720 H   0  0  0  0  0  0  0  0  0  0  0  0
    4.3680   12.9120   -2.4230 H   0  0  0  0  0  0  0  0  0  0  0  0
   -0.9371   13.7454   -2.8637 H   0  0  0  0  0  0  0  0  0  0  0  0
    0.2691   14.4678   -3.9816 H   0  0  0  0  0  0  0  0  0  0  0  0
   -0.0052   12.6926   -3.9816 H   0  0  0  0  0  0  0  0  0  0  0  0
    1.2406   14.6407   -0.4681 H   0  0  0  0  0  0  0  0  0  0  0  0
    2.1973   15.2822   -1.8465 H   0  0  0  0  0  0  0  0  0  0  0  0
    0.4076   15.4362   -1.8465 H   0  0  0  0  0  0  0  0  0  0  0  0
    1.4629    9.3140    0.9622 H   0  0  0  0  0  0  0  0  0  0  0  0
    1.9704    8.1949   -0.3481 H   0  0  0  0  0  0  0  0  0  0  0  0
    2.5446    9.8970   -0.3481 H   0  0  0  0  0  0  0  0  0  0  0  0
    0.6585    8.4029   -2.7193 H   0  0  0  0  0  0  0  0  0  0  0  0
    0.2235    7.5316   -1.1426 H   0  0  0  0  0  0  0  0  0  0  0  0
   -1.6392    9.0479   -2.9918 H   0  0  0  0  0  0  0  0  0  0  0  0
   -1.6062    7.2781   -2.6265 H   0  0  0  0  0  0  0  0  0  0  0  0
   -2.1814    7.7626    1.0269 H   0  0  0  0  0  0  0  0  0  0  0  0
   -2.8187    6.5560   -0.1412 H   0  0  0  0  0  0  0  0  0  0  0  0
   -1.0707    6.9697   -0.1412 H   0  0  0  0  0  0  0  0  0  0  0  0
  1  2  1  0
  2  3  1  0
  3  4  1  0
  4  5  1  0
  5  6  1  0
  6  7  1  0
  7  8  1  0
  7  9  1  0
  2 10  1  0
 10 11  1  0
 11 12  1  0
 12 13  1  0
 13 14  1  6
 13 15  1  0
 15 16  1  0
 16 17  1  0
 17 18  2  0
 18 19  1  0
 19 20  1  0
 20 21  1  0
 21 22  1  0
 22 23  1  0
 22 24  1  0
 24 25  1  0
 24 26  1  0
 19 27  1  0
 27 28  1  1
 27 29  1  0
 29 30  1  0
 30 31  1  0
 31 32  1  1
  7  5  1  0
 31 10  1  0
 31 13  1  0
 27 15  1  0
 24 18  1  0
  1 33  1  0
  1 34  1  0
  1 35  1  0
  2 36  1  1
  3 37  1  0
  3 38  1  0
  4 39  1  0
  4 40  1  0
  5 41  1  6
  8 42  1  0
  8 43  1  0
  8 44  1  0
  9 45  1  0
  9 46  1  0
  9 47  1  0
 10 48  1  6
 11 49  1  0
 11 50  1  0
 12 51  1  0
 12 52  1  0
 14 53  1  0
 14 54  1  0
 14 55  1  0
 15 56  1  1
 16 57  1  0
 16 58  1  0
 17 59  1  0
 19 60  1  6
 20 61  1  0
 20 62  1  0
 21 63  1  0
 21 64  1  0
 22 65  1  6
 23 66  1  0
 25 67  1  0
 25 68  1  0
 25 69  1  0
 26 70  1  0
 26 71  1  0
 26 72  1  0
 28 73  1  0
 28 74  1  0
 28 75  1  0
 29 76  1  0
 29 77  1  0
 30 78  1  0
 30 79  1  0
 32 80  1  0
 32 81  1  0
 32 82  1  0
M  END
>  <meeko>  (15) 
{"is_sidechain": [false], "intermolecular_energy": 2.731, "internal_energy": -0.839}

$$$$
EPH_relaxed_0001_pdb2pqr_Repair_96_r2_0001_out
     RDKit          3D

 82 86  0  0  0  0  0  0  0  0999 V2000
   -1.0310   16.3580   -5.9190 C   0  0  0  0  0  0  0  0  0  0  0  0
    0.1340   15.6540   -6.6210 C   0  0  2  0  0  0  0  0  0  0  0  0
   -0.1860   15.3290   -8.0930 C   0  0  0  0  0  0  0  0  0  0  0  0
    0.3930   16.3400   -9.0870 C   0  0  0  0  0  0  0  0  0  0  0  0
    1.8130   16.0160   -9.4430 C   0  0  2  0  0  0  0  0  0  0  0  0
    2.2910   16.6540  -10.6340 O   0  0  0  0  0  0  0  0  0  0  0  0
    2.2060   15.2200  -10.6730 C   0  0  0  0  0  0  0  0  0  0  0  0
    1.1770   14.6970  -11.6260 C   0  0  0  0  0  0  0  0  0  0  0  0
    3.5380   14.5370  -10.6870 C   0  0  0  0  0  0  0  0  0  0  0  0
    0.4960   14.3770   -5.8720 C   0  0  1  0  0  0  0  0  0  0  0  0
    1.6670   13.6060   -6.5370 C   0  0  0  0  0  0  0  0  0  0  0  0
    2.4880   12.9630   -5.3900 C   0  0  0  0  0  0  0  0  0  0  0  0
    1.5880   13.1020   -4.1400 C   0  0  1  0  0  0  0  0  0  0  0  0
    0.5720   11.9220   -4.2440 C   0  0  0  0  0  0  0  0  0  0  0  0
    2.3200   13.1130   -2.7590 C   0  0  2  0  0  0  0  0  0  0  0  0
    3.0890   11.8250   -2.4180 C   0  0  0  0  0  0  0  0  0  0  0  0
    2.3060   10.7920   -1.6780 C   0  0  0  0  0  0  0  0  0  0  0  0
    1.1310   10.9990   -1.0530 C   0  0  0  0  0  0  0  0  0  0  0  0
    0.5210   12.4040   -0.9690 C   0  0  1  0  0  0  0  0  0  0  0  0
    0.0440   12.6760    0.4820 C   0  0  0  0  0  0  0  0  0  0  0  0
   -0.9020   11.5970    0.9980 C   0  0  0  0  0  0  0  0  0  0  0  0
   -0.2390   10.2220    0.9530 C   0  0  2  0  0  0  0  0  0  0  0  0
    0.8390   10.2000    1.8940 O   0  0  0  0  0  0  0  0  0  0  0  0
    0.2900    9.8430   -0.4580 C   0  0  0  0  0  0  0  0  0  0  0  0
   -0.9040    9.5730   -1.4070 C   0  0  0  0  0  0  0  0  0  0  0  0
    1.0590    8.5000   -0.3340 C   0  0  0  0  0  0  0  0  0  0  0  0
    1.4150   13.5840   -1.5490 C   0  0  1  0  0  0  0  0  0  0  0  0
    2.3840   14.1090   -0.4460 C   0  0  0  0  0  0  0  0  0  0  0  0
    0.4830   14.7930   -1.9340 C   0  0  0  0  0  0  0  0  0  0  0  0
   -0.1150   14.7850   -3.3540 C   0  0  0  0  0  0  0  0  0  0  0  0
    0.9700   14.5240   -4.4040 C   0  0  2  0  0  0  0  0  0  0  0  0
    1.9950   15.7070   -4.3380 C   0  0  0  0  0  0  0  0  0  0  0  0
   -0.9031   16.2807   -4.8292 H   0  0  0  0  0  0  0  0  0  0  0  0
   -1.0488   17.4182   -6.2118 H   0  0  0  0  0  0  0  0  0  0  0  0
   -1.9779   15.8808   -6.2118 H   0  0  0  0  0  0  0  0  0  0  0  0
    0.9904   16.3444   -6.6147 H   0  0  0  0  0  0  0  0  0  0  0  0
    0.2267   14.3366   -8.3271 H   0  0  0  0  0  0  0  0  0  0  0  0
   -1.2803   15.3645   -8.1993 H   0  0  0  0  0  0  0  0  0  0  0  0
   -0.2159   16.3282  -10.0031 H   0  0  0  0  0  0  0  0  0  0  0  0
    0.3757   17.3335   -8.6152 H   0  0  0  0  0  0  0  0  0  0  0  0
    2.0810   15.9128   -8.3811 H   0  0  0  0  0  0  0  0  0  0  0  0
    0.3363   14.2697  -11.0597 H   0  0  0  0  0  0  0  0  0  0  0  0
    0.8123   15.5191  -12.2593 H   0  0  0  0  0  0  0  0  0  0  0  0
    1.6262   13.9178  -12.2593 H   0  0  0  0  0  0  0  0  0  0  0  0
    3.8729   14.3653   -9.6534 H   0  0  0  0  0  0  0  0  0  0  0  0
    3.4501   13.5727  -11.2090 H   0  0  0  0  0  0  0  0  0  0  0  0
    4.2697   15.1711  -11.2090 H   0  0  0  0  0  0  0  0  0  0  0  0
   -0.4757   13.8624   -5.9043 H   0  0  0  0  0  0  0  0  0  0  0  0
    1.2752   12.8256   -7.2059 H   0  0  0  0  0  0  0  0  0  0  0  0
    2.2923   14.2810   -7.1398 H   0  0  0  0  0  0  0  0  0  0  0  0
    2.6925   11.9038   -5.6054 H   0  0  0  0  0  0  0  0  0  0  0  0
    3.4664   13.4473   -5.2553 H   0  0  0  0  0  0  0  0  0  0  0  0
    0.2882   11.5924   -3.2336 H   0  0  0  0  0  0  0  0  0  0  0  0
   -0.3248   12.2570   -4.7858 H   0  0  0  0  0  0  0  0  0  0  0  0
    1.0365   11.0849   -4.7858 H   0  0  0  0  0  0  0  0  0  0  0  0
    3.0864   13.8885   -2.9046 H   0  0  0  0  0  0  0  0  0  0  0  0
    3.4369   11.3772   -3.3606 H   0  0  0  0  0  0  0  0  0  0  0  0
    3.9057   12.1271   -1.7459 H   0  0  0  0  0  0  0  0  0  0  0  0
    2.7241    9.7753   -1.6398 H   0  0  0  0  0  0  0  0  0  0  0  0
   -0.3420   12.4019   -1.6511 H   0  0  0  0  0  0  0  0  0  0  0  0
    0.9241   12.7178    1.1406 H   0  0  0  0  0  0  0  0  0  0  0  0
   -0.5055   13.6289    0.4799 H   0  0  0  0  0  0  0  0  0  0  0  0
   -1.1798   11.8287    2.0368 H   0  0  0  0  0  0  0  0  0  0  0  0
   -1.7950   11.5771    0.3560 H   0  0  0  0  0  0  0  0  0  0  0  0
   -1.0060    9.4766    1.2101 H   0  0  0  0  0  0  0  0  0  0  0  0
    0.8770   11.0740    2.3180 H   0  0  0  0  0  0  0  0  0  0  0  0
   -1.8064    9.3689   -0.8120 H   0  0  0  0  0  0  0  0  0  0  0  0
   -1.0749   10.4552   -2.0415 H   0  0  0  0  0  0  0  0  0  0  0  0
   -0.6787    8.7031   -2.0415 H   0  0  0  0  0  0  0  0  0  0  0  0
    1.1995    8.2547    0.7291 H   0  0  0  0  0  0  0  0  0  0  0  0
    0.4818    7.7006   -0.8216 H   0  0  0  0  0  0  0  0  0  0  0  0
    2.0406    8.5932   -0.8216 H   0  0  0  0  0  0  0  0  0  0  0  0
    1.9668   13.8830    0.5464 H   0  0  0  0  0  0  0  0  0  0  0  0
    3.3622   13.6175   -0.5531 H   0  0  0  0  0  0  0  0  0  0  0  0
    2.5065   15.1969   -0.5531 H   0  0  0  0  0  0  0  0  0  0  0  0
   -0.3541   14.8081   -1.2206 H   0  0  0  0  0  0  0  0  0  0  0  0
    1.1334   15.6795   -1.9008 H   0  0  0  0  0  0  0  0  0  0  0  0
   -0.8768   13.9941   -3.4193 H   0  0  0  0  0  0  0  0  0  0  0  0
   -0.5645   15.7694   -3.5511 H   0  0  0  0  0  0  0  0  0  0  0  0
    2.2063   15.9508   -3.2864 H   0  0  0  0  0  0  0  0  0  0  0  0
    2.9280   15.4122   -4.8406 H   0  0  0  0  0  0  0  0  0  0  0  0
    1.5704   16.5885   -4.8406 H   0  0  0  0  0  0  0  0  0  0  0  0
  1  2  1  0
  2  3  1  0
  3  4  1  0
  4  5  1  0
  5  6  1  0
  6  7  1  0
  7  8  1  0
  7  9  1  0
  2 10  1  0
 10 11  1  0
 11 12  1  0
 12 13  1  0
 13 14  1  1
 13 15  1  0
 15 16  1  0
 16 17  1  0
 17 18  2  0
 18 19  1  0
 19 20  1  0
 20 21  1  0
 21 22  1  0
 22 23  1  0
 22 24  1  0
 24 25  1  0
 24 26  1  0
 19 27  1  0
 27 28  1  1
 27 29  1  0
 29 30  1  0
 30 31  1  0
 31 32  1  6
  7  5  1  0
 31 10  1  0
 31 13  1  0
 27 15  1  0
 24 18  1  0
  1 33  1  0
  1 34  1  0
  1 35  1  0
  2 36  1  6
  3 37  1  0
  3 38  1  0
  4 39  1  0
  4 40  1  0
  5 41  1  1
  8 42  1  0
  8 43  1  0
  8 44  1  0
  9 45  1  0
  9 46  1  0
  9 47  1  0
 10 48  1  1
 11 49  1  0
 11 50  1  0
 12 51  1  0
 12 52  1  0
 14 53  1  0
 14 54  1  0
 14 55  1  0
 15 56  1  6
 16 57  1  0
 16 58  1  0
 17 59  1  0
 19 60  1  6
 20 61  1  0
 20 62  1  0
 21 63  1  0
 21 64  1  0
 22 65  1  1
 23 66  1  0
 25 67  1  0
 25 68  1  0
 25 69  1  0
 26 70  1  0
 26 71  1  0
 26 72  1  0
 28 73  1  0
 28 74  1  0
 28 75  1  0
 29 76  1  0
 29 77  1  0
 30 78  1  0
 30 79  1  0
 32 80  1  0
 32 81  1  0
 32 82  1  0
M  END
>  <meeko>  (16) 
{"is_sidechain": [false], "intermolecular_energy": 2.731, "internal_energy": -0.839}

$$$$
EPH_relaxed_0001_pdb2pqr_Repair_96_r2_0001_out
     RDKit          3D

 82 86  0  0  0  0  0  0  0  0999 V2000
  -15.2850    8.1030    0.8290 C   0  0  0  0  0  0  0  0  0  0  0  0
  -14.7060    8.7660   -0.4240 C   0  0  2  0  0  0  0  0  0  0  0  0
  -15.1160    8.0270   -1.7140 C   0  0  0  0  0  0  0  0  0  0  0  0
  -14.7170    8.7610   -2.9970 C   0  0  0  0  0  0  0  0  0  0  0  0
  -15.2870   10.1470   -3.0430 C   0  0  2  0  0  0  0  0  0  0  0  0
  -14.8240   10.9490   -4.1370 O   0  0  0  0  0  0  0  0  0  0  0  0
  -14.4590   11.3990   -2.8230 C   0  0  0  0  0  0  0  0  0  0  0  0
  -12.9910   11.3250   -2.5400 C   0  0  0  0  0  0  0  0  0  0  0  0
  -15.1580   12.6540   -2.4000 C   0  0  0  0  0  0  0  0  0  0  0  0
  -13.1870    8.8330   -0.3230 C   0  0  1  0  0  0  0  0  0  0  0  0
  -12.6950    9.0530    1.1330 C   0  0  0  0  0  0  0  0  0  0  0  0
  -11.3680    8.2650    1.2800 C   0  0  0  0  0  0  0  0  0  0  0  0
  -10.9700    7.8960   -0.1680 C   0  0  1  0  0  0  0  0  0  0  0  0
  -10.2900    9.1810   -0.7370 C   0  0  0  0  0  0  0  0  0  0  0  0
  -10.0570    6.6380   -0.3350 C   0  0  2  0  0  0  0  0  0  0  0  0
   -8.6720    6.7450    0.3260 C   0  0  0  0  0  0  0  0  0  0  0  0
   -7.5910    7.2970   -0.5440 C   0  0  0  0  0  0  0  0  0  0  0  0
   -7.6540    7.4250   -1.8830 C   0  0  0  0  0  0  0  0  0  0  0  0
   -8.8630    6.9020   -2.6680 C   0  0  1  0  0  0  0  0  0  0  0  0
   -8.3720    6.1040   -3.9050 C   0  0  0  0  0  0  0  0  0  0  0  0
   -7.4130    6.9090   -4.7770 C   0  0  0  0  0  0  0  0  0  0  0  0
   -6.1960    7.3620   -3.9750 C   0  0  2  0  0  0  0  0  0  0  0  0
   -5.4300    6.2090   -3.6100 O   0  0  0  0  0  0  0  0  0  0  0  0
   -6.5680    8.1670   -2.6990 C   0  0  0  0  0  0  0  0  0  0  0  0
   -7.1260    9.5540   -3.1040 C   0  0  0  0  0  0  0  0  0  0  0  0
   -5.2590    8.4410   -1.9090 C   0  0  0  0  0  0  0  0  0  0  0  0
   -9.9490    6.1080   -1.8220 C   0  0  1  0  0  0  0  0  0  0  0  0
   -9.5560    4.6020   -1.7300 C   0  0  0  0  0  0  0  0  0  0  0  0
  -11.3290    6.1610   -2.5780 C   0  0  0  0  0  0  0  0  0  0  0  0
  -12.2390    7.3690   -2.2800 C   0  0  0  0  0  0  0  0  0  0  0  0
  -12.3880    7.5840   -0.7710 C   0  0  2  0  0  0  0  0  0  0  0  0
  -13.0900    6.3160   -0.1740 C   0  0  0  0  0  0  0  0  0  0  0  0
  -14.8654    8.5834    1.7252 H   0  0  0  0  0  0  0  0  0  0  0  0
  -16.3792    8.2154    0.8310 H   0  0  0  0  0  0  0  0  0  0  0  0
  -15.0263    7.0339    0.8310 H   0  0  0  0  0  0  0  0  0  0  0  0
  -15.1196    9.7837   -0.4804 H   0  0  0  0  0  0  0  0  0  0  0  0
  -14.6345    7.0380   -1.7156 H   0  0  0  0  0  0  0  0  0  0  0  0
  -16.2139    7.9592   -1.7106 H   0  0  0  0  0  0  0  0  0  0  0  0
  -13.6199    8.8250   -3.0446 H   0  0  0  0  0  0  0  0  0  0  0  0
  -15.1165    8.1973   -3.8530 H   0  0  0  0  0  0  0  0  0  0  0  0
  -16.2312    9.7989   -2.5988 H   0  0  0  0  0  0  0  0  0  0  0  0
  -12.8272   11.3167   -1.4523 H   0  0  0  0  0  0  0  0  0  0  0  0
  -12.5787   10.4049   -2.9799 H   0  0  0  0  0  0  0  0  0  0  0  0
  -12.4883   12.1989   -2.9799 H   0  0  0  0  0  0  0  0  0  0  0  0
  -15.1866   12.7054   -1.3016 H   0  0  0  0  0  0  0  0  0  0  0  0
  -14.6158   13.5263   -2.7939 H   0  0  0  0  0  0  0  0  0  0  0  0
  -16.1851   12.6522   -2.7939 H   0  0  0  0  0  0  0  0  0  0  0  0
  -12.9933    9.6696   -1.0104 H   0  0  0  0  0  0  0  0  0  0  0  0
  -12.5222   10.1237    1.3169 H   0  0  0  0  0  0  0  0  0  0  0  0
  -13.4437    8.7052    1.8599 H   0  0  0  0  0  0  0  0  0  0  0  0
  -10.5942    8.8916    1.7476 H   0  0  0  0  0  0  0  0  0  0  0  0
  -11.4789    7.3778    1.9208 H   0  0  0  0  0  0  0  0  0  0  0  0
   -9.9535    9.8169    0.0951 H   0  0  0  0  0  0  0  0  0  0  0  0
   -9.4248    8.8957   -1.3535 H   0  0  0  0  0  0  0  0  0  0  0  0
  -11.0125    9.7358   -1.3535 H   0  0  0  0  0  0  0  0  0  0  0  0
  -10.6025    5.8730    0.2370 H   0  0  0  0  0  0  0  0  0  0  0  0
   -8.7653    7.3969    1.2071 H   0  0  0  0  0  0  0  0  0  0  0  0
   -8.3707    5.7155    0.5696 H   0  0  0  0  0  0  0  0  0  0  0  0
   -6.6654    7.6268   -0.0494 H   0  0  0  0  0  0  0  0  0  0  0  0
   -9.4206    7.7921   -2.9949 H   0  0  0  0  0  0  0  0  0  0  0  0
   -7.8558    5.1970   -3.5574 H   0  0  0  0  0  0  0  0  0  0  0  0
   -9.2533    5.8589   -4.5159 H   0  0  0  0  0  0  0  0  0  0  0  0
   -7.0779    6.2825   -5.6167 H   0  0  0  0  0  0  0  0  0  0  0  0
   -7.9402    7.8001   -5.1484 H   0  0  0  0  0  0  0  0  0  0  0  0
   -5.6130    8.0408   -4.6149 H   0  0  0  0  0  0  0  0  0  0  0  0
   -4.7790    6.0530   -4.3160 H   0  0  0  0  0  0  0  0  0  0  0  0
   -7.3593   10.1339   -2.1989 H   0  0  0  0  0  0  0  0  0  0  0  0
   -6.3742   10.0918   -3.7004 H   0  0  0  0  0  0  0  0  0  0  0  0
   -8.0407    9.4213   -3.7004 H   0  0  0  0  0  0  0  0  0  0  0  0
   -5.4663    8.3976   -0.8296 H   0  0  0  0  0  0  0  0  0  0  0  0
   -4.5078    7.6806   -2.1690 H   0  0  0  0  0  0  0  0  0  0  0  0
   -4.8759    9.4388   -2.1690 H   0  0  0  0  0  0  0  0  0  0  0  0
   -9.4790    4.3070   -0.6731 H   0  0  0  0  0  0  0  0  0  0  0  0
  -10.3249    3.9914   -2.2260 H   0  0  0  0  0  0  0  0  0  0  0  0
   -8.5868    4.4450   -2.2260 H   0  0  0  0  0  0  0  0  0  0  0  0
  -11.1172    6.1622   -3.6574 H   0  0  0  0  0  0  0  0  0  0  0  0
  -11.8878    5.2843   -2.2187 H   0  0  0  0  0  0  0  0  0  0  0  0
  -11.7987    8.2709   -2.7302 H   0  0  0  0  0  0  0  0  0  0  0  0
  -13.2338    7.1723   -2.7062 H   0  0  0  0  0  0  0  0  0  0  0  0
  -13.0629    6.3650    0.9246 H   0  0  0  0  0  0  0  0  0  0  0  0
  -14.1356    6.2816   -0.5138 H   0  0  0  0  0  0  0  0  0  0  0  0
  -12.5641    5.4116   -0.5138 H   0  0  0  0  0  0  0  0  0  0  0  0
  1  2  1  0
  2  3  1  0
  3  4  1  0
  4  5  1  0
  5  6  1  0
  6  7  1  0
  7  8  1  0
  7  9  1  0
  2 10  1  0
 10 11  1  0
 11 12  1  0
 12 13  1  0
 13 14  1  6
 13 15  1  0
 15 16  1  0
 16 17  1  0
 17 18  2  0
 18 19  1  0
 19 20  1  0
 20 21  1  0
 21 22  1  0
 22 23  1  0
 22 24  1  0
 24 25  1  0
 24 26  1  0
 19 27  1  0
 27 28  1  1
 27 29  1  0
 29 30  1  0
 30 31  1  0
 31 32  1  1
  7  5  1  0
 31 10  1  0
 31 13  1  0
 27 15  1  0
 24 18  1  0
  1 33  1  0
  1 34  1  0
  1 35  1  0
  2 36  1  6
  3 37  1  0
  3 38  1  0
  4 39  1  0
  4 40  1  0
  5 41  1  1
  8 42  1  0
  8 43  1  0
  8 44  1  0
  9 45  1  0
  9 46  1  0
  9 47  1  0
 10 48  1  6
 11 49  1  0
 11 50  1  0
 12 51  1  0
 12 52  1  0
 14 53  1  0
 14 54  1  0
 14 55  1  0
 15 56  1  1
 16 57  1  0
 16 58  1  0
 17 59  1  0
 19 60  1  6
 20 61  1  0
 20 62  1  0
 21 63  1  0
 21 64  1  0
 22 65  1  6
 23 66  1  0
 25 67  1  0
 25 68  1  0
 25 69  1  0
 26 70  1  0
 26 71  1  0
 26 72  1  0
 28 73  1  0
 28 74  1  0
 28 75  1  0
 29 76  1  0
 29 77  1  0
 30 78  1  0
 30 79  1  0
 32 80  1  0
 32 81  1  0
 32 82  1  0
M  END
>  <meeko>  (17) 
{"is_sidechain": [false], "intermolecular_energy": 2.731, "internal_energy": -0.839}

$$$$
EPH_relaxed_0001_pdb2pqr_Repair_96_r2_0001_out
     RDKit          3D

 82 86  0  0  0  0  0  0  0  0999 V2000
   -0.2440   14.9270   -7.6400 C   0  0  0  0  0  0  0  0  0  0  0  0
    1.1240   14.9880   -6.9560 C   0  0  2  0  0  0  0  0  0  0  0  0
    2.2780   15.0810   -7.9740 C   0  0  0  0  0  0  0  0  0  0  0  0
    2.3250   16.4110   -8.7320 C   0  0  0  0  0  0  0  0  0  0  0  0
    1.9040   16.2490  -10.1620 C   0  0  2  0  0  0  0  0  0  0  0  0
    1.2260   15.0190  -10.4500 O   0  0  0  0  0  0  0  0  0  0  0  0
    2.4960   15.2100  -11.0950 C   0  0  0  0  0  0  0  0  0  0  0  0
    3.5600   14.2630  -10.6360 C   0  0  0  0  0  0  0  0  0  0  0  0
    2.3940   15.4340  -12.5720 C   0  0  0  0  0  0  0  0  0  0  0  0
    1.3140   13.7680   -6.0640 C   0  0  1  0  0  0  0  0  0  0  0  0
    2.7860   13.2770   -6.0270 C   0  0  0  0  0  0  0  0  0  0  0  0
    3.0450   12.7450   -4.5950 C   0  0  0  0  0  0  0  0  0  0  0  0
    1.6390   12.6380   -3.9580 C   0  0  1  0  0  0  0  0  0  0  0  0
    1.0600   11.2890   -4.4900 C   0  0  0  0  0  0  0  0  0  0  0  0
    1.5800   12.7160   -2.3980 C   0  0  2  0  0  0  0  0  0  0  0  0
    2.3170   11.5860   -1.6590 C   0  0  0  0  0  0  0  0  0  0  0  0
    1.4910   10.3810   -1.3500 C   0  0  0  0  0  0  0  0  0  0  0  0
    0.1470   10.3210   -1.3950 C   0  0  0  0  0  0  0  0  0  0  0  0
   -0.6870   11.5740   -1.6920 C   0  0  1  0  0  0  0  0  0  0  0  0
   -1.8580   11.6680   -0.6790 C   0  0  0  0  0  0  0  0  0  0  0  0
   -2.7040   10.3990   -0.6430 C   0  0  0  0  0  0  0  0  0  0  0  0
   -1.8500    9.1850   -0.2870 C   0  0  2  0  0  0  0  0  0  0  0  0
   -1.3930    9.3220    1.0620 O   0  0  0  0  0  0  0  0  0  0  0  0
   -0.6320    8.9930   -1.2340 C   0  0  0  0  0  0  0  0  0  0  0  0
   -1.1260    8.5470   -2.6330 C   0  0  0  0  0  0  0  0  0  0  0  0
    0.2230    7.8210   -0.6810 C   0  0  0  0  0  0  0  0  0  0  0  0
    0.1250   12.9350   -1.8150 C   0  0  1  0  0  0  0  0  0  0  0  0
    0.3010   13.5780   -0.4060 C   0  0  0  0  0  0  0  0  0  0  0  0
   -0.7140   13.9580   -2.6680 C   0  0  0  0  0  0  0  0  0  0  0  0
   -0.5220   13.9110   -4.1960 C   0  0  0  0  0  0  0  0  0  0  0  0
    0.9660   13.9230   -4.5620 C   0  0  2  0  0  0  0  0  0  0  0  0
    1.5710   15.2780   -4.0590 C   0  0  0  0  0  0  0  0  0  0  0  0
   -1.0347   14.8917   -6.8761 H   0  0  0  0  0  0  0  0  0  0  0  0
   -0.3802   15.8200   -8.2677 H   0  0  0  0  0  0  0  0  0  0  0  0
   -0.3002   14.0255   -8.2677 H   0  0  0  0  0  0  0  0  0  0  0  0
    1.1479   15.9024   -6.3449 H   0  0  0  0  0  0  0  0  0  0  0  0
    3.2282   14.9552   -7.4342 H   0  0  0  0  0  0  0  0  0  0  0  0
    2.1118   14.2910   -8.7212 H   0  0  0  0  0  0  0  0  0  0  0  0
    1.6490   17.1259   -8.2401 H   0  0  0  0  0  0  0  0  0  0  0  0
    3.3623   16.7768   -8.7191 H   0  0  0  0  0  0  0  0  0  0  0  0
    1.7542   17.3338  -10.2661 H   0  0  0  0  0  0  0  0  0  0  0  0
    3.5831   14.2425   -9.5364 H   0  0  0  0  0  0  0  0  0  0  0  0
    3.3424   13.2543  -11.0171 H   0  0  0  0  0  0  0  0  0  0  0  0
    4.5366   14.5961  -11.0171 H   0  0  0  0  0  0  0  0  0  0  0  0
    1.9451   16.4199  -12.7632 H   0  0  0  0  0  0  0  0  0  0  0  0
    3.3984   15.3956  -13.0189 H   0  0  0  0  0  0  0  0  0  0  0  0
    1.7636   14.6511  -13.0189 H   0  0  0  0  0  0  0  0  0  0  0  0
    0.6062   13.0772   -6.5455 H   0  0  0  0  0  0  0  0  0  0  0  0
    2.9355   12.4728   -6.7625 H   0  0  0  0  0  0  0  0  0  0  0  0
    3.4804   14.0928   -6.2764 H   0  0  0  0  0  0  0  0  0  0  0  0
    3.5319   11.7592   -4.6291 H   0  0  0  0  0  0  0  0  0  0  0  0
    3.7142   13.4023   -4.0205 H   0  0  0  0  0  0  0  0  0  0  0  0
    0.7847   10.6475   -3.6399 H   0  0  0  0  0  0  0  0  0  0  0  0
    0.1684   11.4888   -5.1024 H   0  0  0  0  0  0  0  0  0  0  0  0
    1.8191   10.7803   -5.1024 H   0  0  0  0  0  0  0  0  0  0  0  0
    2.1507   13.6322   -2.1863 H   0  0  0  0  0  0  0  0  0  0  0  0
    3.1636   11.2665   -2.2844 H   0  0  0  0  0  0  0  0  0  0  0  0
    2.6199   12.0045   -0.6878 H   0  0  0  0  0  0  0  0  0  0  0  0
    2.0263    9.4645   -1.0611 H   0  0  0  0  0  0  0  0  0  0  0  0
   -1.0832   11.4416   -2.7096 H   0  0  0  0  0  0  0  0  0  0  0  0
   -1.4429   11.8436    0.3244 H   0  0  0  0  0  0  0  0  0  0  0  0
   -2.5098   12.4947   -0.9980 H   0  0  0  0  0  0  0  0  0  0  0  0
   -3.4963   10.5156    0.1111 H   0  0  0  0  0  0  0  0  0  0  0  0
   -3.1423   10.2404   -1.6394 H   0  0  0  0  0  0  0  0  0  0  0  0
   -2.4819    8.2922   -0.4038 H   0  0  0  0  0  0  0  0  0  0  0  0
   -1.5970   10.2270    1.3510 H   0  0  0  0  0  0  0  0  0  0  0  0
   -1.9380    7.8139   -2.5186 H   0  0  0  0  0  0  0  0  0  0  0  0
   -1.4972    9.4219   -3.1869 H   0  0  0  0  0  0  0  0  0  0  0  0
   -0.2935    8.0886   -3.1869 H   0  0  0  0  0  0  0  0  0  0  0  0
    0.2072    7.8426    0.4187 H   0  0  0  0  0  0  0  0  0  0  0  0
   -0.1918    6.8657   -1.0349 H   0  0  0  0  0  0  0  0  0  0  0  0
    1.2594    7.9243   -1.0349 H   0  0  0  0  0  0  0  0  0  0  0  0
    0.0949   12.8251    0.3690 H   0  0  0  0  0  0  0  0  0  0  0  0
    1.3324   13.9442   -0.2963 H   0  0  0  0  0  0  0  0  0  0  0  0
   -0.4001   14.4185   -0.2963 H   0  0  0  0  0  0  0  0  0  0  0  0
   -1.7778   13.7705   -2.4604 H   0  0  0  0  0  0  0  0  0  0  0  0
   -0.3526   14.9512   -2.3631 H   0  0  0  0  0  0  0  0  0  0  0  0
   -0.9818   12.9920   -4.5884 H   0  0  0  0  0  0  0  0  0  0  0  0
   -0.9991   14.7986   -4.6371 H   0  0  0  0  0  0  0  0  0  0  0  0
    1.5768   15.2911   -2.9591 H   0  0  0  0  0  0  0  0  0  0  0  0
    2.6006   15.3809   -4.4324 H   0  0  0  0  0  0  0  0  0  0  0  0
    0.9603   16.1133   -4.4324 H   0  0  0  0  0  0  0  0  0  0  0  0
  1  2  1  0
  2  3  1  0
  3  4  1  0
  4  5  1  0
  5  6  1  0
  6  7  1  0
  7  8  1  0
  7  9  1  0
  2 10  1  0
 10 11  1  0
 11 12  1  0
 12 13  1  0
 13 14  1  6
 13 15  1  0
 15 16  1  0
 16 17  1  0
 17 18  2  0
 18 19  1  0
 19 20  1  0
 20 21  1  0
 21 22  1  0
 22 23  1  0
 22 24  1  0
 24 25  1  0
 24 26  1  0
 19 27  1  0
 27 28  1  1
 27 29  1  0
 29 30  1  0
 30 31  1  0
 31 32  1  1
  7  5  1  0
 31 10  1  0
 31 13  1  0
 27 15  1  0
 24 18  1  0
  1 33  1  0
  1 34  1  0
  1 35  1  0
  2 36  1  1
  3 37  1  0
  3 38  1  0
  4 39  1  0
  4 40  1  0
  5 41  1  6
  8 42  1  0
  8 43  1  0
  8 44  1  0
  9 45  1  0
  9 46  1  0
  9 47  1  0
 10 48  1  6
 11 49  1  0
 11 50  1  0
 12 51  1  0
 12 52  1  0
 14 53  1  0
 14 54  1  0
 14 55  1  0
 15 56  1  1
 16 57  1  0
 16 58  1  0
 17 59  1  0
 19 60  1  6
 20 61  1  0
 20 62  1  0
 21 63  1  0
 21 64  1  0
 22 65  1  1
 23 66  1  0
 25 67  1  0
 25 68  1  0
 25 69  1  0
 26 70  1  0
 26 71  1  0
 26 72  1  0
 28 73  1  0
 28 74  1  0
 28 75  1  0
 29 76  1  0
 29 77  1  0
 30 78  1  0
 30 79  1  0
 32 80  1  0
 32 81  1  0
 32 82  1  0
M  END
>  <meeko>  (18) 
{"is_sidechain": [false], "intermolecular_energy": 2.731, "internal_energy": -0.839}

$$$$
EPH_relaxed_0001_pdb2pqr_Repair_96_r2_0001_out
     RDKit          3D

 82 86  0  0  0  0  0  0  0  0999 V2000
    1.8840    9.1710   -0.0330 C   0  0  0  0  0  0  0  0  0  0  0  0
    0.6880    9.9450   -0.5970 C   0  0  2  0  0  0  0  0  0  0  0  0
   -0.1430    9.0940   -1.5780 C   0  0  0  0  0  0  0  0  0  0  0  0
   -1.3740    8.4450   -0.9400 C   0  0  0  0  0  0  0  0  0  0  0  0
   -2.4660    9.4430   -0.7010 C   0  0  2  0  0  0  0  0  0  0  0  0
   -3.1850    9.2610    0.5260 O   0  0  0  0  0  0  0  0  0  0  0  0
   -3.9400    9.0820   -0.6830 C   0  0  0  0  0  0  0  0  0  0  0  0
   -4.4020    7.6770   -0.9100 C   0  0  0  0  0  0  0  0  0  0  0  0
   -4.9440   10.1640   -0.9320 C   0  0  0  0  0  0  0  0  0  0  0  0
    1.1700   11.2150   -1.2880 C   0  0  1  0  0  0  0  0  0  0  0  0
    1.1800   11.0870   -2.8340 C   0  0  0  0  0  0  0  0  0  0  0  0
    0.8010   12.4800   -3.4010 C   0  0  0  0  0  0  0  0  0  0  0  0
    0.9110   13.4360   -2.1900 C   0  0  1  0  0  0  0  0  0  0  0  0
    2.4330   13.7590   -2.0710 C   0  0  0  0  0  0  0  0  0  0  0  0
    0.0480   14.7380   -2.2580 C   0  0  2  0  0  0  0  0  0  0  0  0
    0.3980   15.6940   -3.4130 C   0  0  0  0  0  0  0  0  0  0  0  0
    1.4270   16.7280   -3.0950 C   0  0  0  0  0  0  0  0  0  0  0  0
    1.8380   17.0680   -1.8590 C   0  0  0  0  0  0  0  0  0  0  0  0
    1.1820   16.4570   -0.6140 C   0  0  1  0  0  0  0  0  0  0  0  0
    0.8720   17.5780    0.4110 C   0  0  0  0  0  0  0  0  0  0  0  0
    2.1010   18.4160    0.7510 C   0  0  0  0  0  0  0  0  0  0  0  0
    2.6900   19.0550   -0.5040 C   0  0  2  0  0  0  0  0  0  0  0  0
    1.7590   20.0150   -1.0120 O   0  0  0  0  0  0  0  0  0  0  0  0
    3.0330   18.0220   -1.6130 C   0  0  0  0  0  0  0  0  0  0  0  0
    4.2510   17.1710   -1.1740 C   0  0  0  0  0  0  0  0  0  0  0  0
    3.4850   18.8070   -2.8740 C   0  0  0  0  0  0  0  0  0  0  0  0
   -0.0670   15.5120   -0.8830 C   0  0  1  0  0  0  0  0  0  0  0  0
   -1.3710   16.3640   -0.9590 C   0  0  0  0  0  0  0  0  0  0  0  0
   -0.2450   14.5360    0.3400 C   0  0  0  0  0  0  0  0  0  0  0  0
    0.5410   13.2120    0.2920 C   0  0  0  0  0  0  0  0  0  0  0  0
    0.3470   12.5070   -1.0540 C   0  0  2  0  0  0  0  0  0  0  0  0
   -1.1720   12.1500   -1.1930 C   0  0  0  0  0  0  0  0  0  0  0  0
    1.8497    9.1932    1.0662 H   0  0  0  0  0  0  0  0  0  0  0  0
    1.8425    8.1280   -0.3802 H   0  0  0  0  0  0  0  0  0  0  0  0
    2.8184    9.6361   -0.3802 H   0  0  0  0  0  0  0  0  0  0  0  0
    0.0346   10.2071    0.2482 H   0  0  0  0  0  0  0  0  0  0  0  0
   -0.4793    9.7419   -2.4009 H   0  0  0  0  0  0  0  0  0  0  0  0
    0.5071    8.2774   -1.9253 H   0  0  0  0  0  0  0  0  0  0  0  0
   -1.7504    7.6587   -1.6109 H   0  0  0  0  0  0  0  0  0  0  0  0
   -1.0751    8.0247    0.0316 H   0  0  0  0  0  0  0  0  0  0  0  0
   -1.9036   10.2222   -1.2363 H   0  0  0  0  0  0  0  0  0  0  0  0
   -4.5644    7.1833    0.0595 H   0  0  0  0  0  0  0  0  0  0  0  0
   -5.3438    7.6880   -1.4782 H   0  0  0  0  0  0  0  0  0  0  0  0
   -3.6374    7.1269   -1.4782 H   0  0  0  0  0  0  0  0  0  0  0  0
   -5.3073   10.5555    0.0297 H   0  0  0  0  0  0  0  0  0  0  0  0
   -4.4729   10.9767   -1.5043 H   0  0  0  0  0  0  0  0  0  0  0  0
   -5.7896    9.7549   -1.5043 H   0  0  0  0  0  0  0  0  0  0  0  0
    2.1630   11.3119   -0.8249 H   0  0  0  0  0  0  0  0  0  0  0  0
    2.1815   10.7955   -3.1835 H   0  0  0  0  0  0  0  0  0  0  0  0
    0.4704   10.3171   -3.1711 H   0  0  0  0  0  0  0  0  0  0  0  0
    1.4994   12.7788   -4.1966 H   0  0  0  0  0  0  0  0  0  0  0  0
   -0.2030   12.4889   -3.8502 H   0  0  0  0  0  0  0  0  0  0  0  0
    2.7133   13.8185   -1.0090 H   0  0  0  0  0  0  0  0  0  0  0  0
    3.0158   12.9645   -2.5601 H   0  0  0  0  0  0  0  0  0  0  0  0
    2.6429   14.7217   -2.5601 H   0  0  0  0  0  0  0  0  0  0  0  0
   -0.9532   14.3449   -2.4882 H   0  0  0  0  0  0  0  0  0  0  0  0
    0.7714   15.0899   -4.2530 H   0  0  0  0  0  0  0  0  0  0  0  0
   -0.5260   16.2447   -3.6431 H   0  0  0  0  0  0  0  0  0  0  0  0
    1.8882   17.2566   -3.9422 H   0  0  0  0  0  0  0  0  0  0  0  0
    1.9207   15.7602   -0.1911 H   0  0  0  0  0  0  0  0  0  0  0  0
    0.1006   18.2386   -0.0115 H   0  0  0  0  0  0  0  0  0  0  0  0
    0.5289   17.0967    1.3387 H   0  0  0  0  0  0  0  0  0  0  0  0
    1.8122   19.2087    1.4569 H   0  0  0  0  0  0  0  0  0  0  0  0
    2.8605   17.7591    1.2000 H   0  0  0  0  0  0  0  0  0  0  0  0
    3.6379   19.5340   -0.2174 H   0  0  0  0  0  0  0  0  0  0  0  0
    1.1470   19.5470   -1.6050 H   0  0  0  0  0  0  0  0  0  0  0  0
    4.2984   17.1379   -0.0755 H   0  0  0  0  0  0  0  0  0  0  0  0
    4.1453   16.1492   -1.5674 H   0  0  0  0  0  0  0  0  0  0  0  0
    5.1741   17.6217   -1.5674 H   0  0  0  0  0  0  0  0  0  0  0  0
    4.0120   19.7223   -2.5667 H   0  0  0  0  0  0  0  0  0  0  0  0
    4.1599   18.1792   -3.4743 H   0  0  0  0  0  0  0  0  0  0  0  0
    2.6033   19.0756   -3.4743 H   0  0  0  0  0  0  0  0  0  0  0  0
   -1.7199   16.5920    0.0590 H   0  0  0  0  0  0  0  0  0  0  0  0
   -1.1652   17.3024   -1.4948 H   0  0  0  0  0  0  0  0  0  0  0  0
   -2.1477   15.7986   -1.4948 H   0  0  0  0  0  0  0  0  0  0  0  0
    0.0684   15.0764    1.2454 H   0  0  0  0  0  0  0  0  0  0  0  0
   -1.3049   14.2424    0.3221 H   0  0  0  0  0  0  0  0  0  0  0  0
    1.6108   13.4233    0.4365 H   0  0  0  0  0  0  0  0  0  0  0  0
    0.1671   12.5533    1.0897 H   0  0  0  0  0  0  0  0  0  0  0  0
   -1.6171   12.0454   -0.1925 H   0  0  0  0  0  0  0  0  0  0  0  0
   -1.6882   12.9513   -1.7420 H   0  0  0  0  0  0  0  0  0  0  0  0
   -1.2773   11.2026   -1.7420 H   0  0  0  0  0  0  0  0  0  0  0  0
  1  2  1  0
  2  3  1  0
  3  4  1  0
  4  5  1  0
  5  6  1  0
  6  7  1  0
  7  8  1  0
  7  9  1  0
  2 10  1  0
 10 11  1  0
 11 12  1  0
 12 13  1  0
 13 14  1  1
 13 15  1  0
 15 16  1  0
 16 17  1  0
 17 18  2  0
 18 19  1  0
 19 20  1  0
 20 21  1  0
 21 22  1  0
 22 23  1  0
 22 24  1  0
 24 25  1  0
 24 26  1  0
 19 27  1  0
 27 28  1  6
 27 29  1  0
 29 30  1  0
 30 31  1  0
 31 32  1  6
  7  5  1  0
 31 10  1  0
 31 13  1  0
 27 15  1  0
 24 18  1  0
  1 33  1  0
  1 34  1  0
  1 35  1  0
  2 36  1  1
  3 37  1  0
  3 38  1  0
  4 39  1  0
  4 40  1  0
  5 41  1  1
  8 42  1  0
  8 43  1  0
  8 44  1  0
  9 45  1  0
  9 46  1  0
  9 47  1  0
 10 48  1  1
 11 49  1  0
 11 50  1  0
 12 51  1  0
 12 52  1  0
 14 53  1  0
 14 54  1  0
 14 55  1  0
 15 56  1  6
 16 57  1  0
 16 58  1  0
 17 59  1  0
 19 60  1  1
 20 61  1  0
 20 62  1  0
 21 63  1  0
 21 64  1  0
 22 65  1  1
 23 66  1  0
 25 67  1  0
 25 68  1  0
 25 69  1  0
 26 70  1  0
 26 71  1  0
 26 72  1  0
 28 73  1  0
 28 74  1  0
 28 75  1  0
 29 76  1  0
 29 77  1  0
 30 78  1  0
 30 79  1  0
 32 80  1  0
 32 81  1  0
 32 82  1  0
M  END
>  <meeko>  (19) 
{"is_sidechain": [false], "intermolecular_energy": 2.731, "internal_energy": -0.839}

$$$$
