EPH_relaxed_0001_pdb2pqr_Repair_403_r2_0001_out
     RDKit          3D

 82 86  0  0  0  0  0  0  0  0999 V2000
   -1.6750    8.5610   -1.8540 C   0  0  0  0  0  0  0  0  0  0  0  0
   -2.0580    9.0900   -0.4690 C   0  0  2  0  0  0  0  0  0  0  0  0
   -3.5530    9.4570   -0.3810 C   0  0  0  0  0  0  0  0  0  0  0  0
   -4.4780    8.2440   -0.2550 C   0  0  0  0  0  0  0  0  0  0  0  0
   -5.1660    7.9350   -1.5500 C   0  0  2  0  0  0  0  0  0  0  0  0
   -6.3500    8.7040   -1.7980 O   0  0  0  0  0  0  0  0  0  0  0  0
   -6.5360    7.2890   -1.6370 C   0  0  0  0  0  0  0  0  0  0  0  0
   -7.3000    6.9120   -0.4060 C   0  0  0  0  0  0  0  0  0  0  0  0
   -6.9160    6.5830   -2.9010 C   0  0  0  0  0  0  0  0  0  0  0  0
   -1.2020   10.3030   -0.1210 C   0  0  1  0  0  0  0  0  0  0  0  0
   -0.1690   10.0030    0.9980 C   0  0  0  0  0  0  0  0  0  0  0  0
    1.0980   10.8350    0.6710 C   0  0  0  0  0  0  0  0  0  0  0  0
    0.6410   11.8270   -0.4240 C   0  0  1  0  0  0  0  0  0  0  0  0
   -0.0690   12.9810    0.3520 C   0  0  0  0  0  0  0  0  0  0  0  0
    1.7580   12.3720   -1.3720 C   0  0  2  0  0  0  0  0  0  0  0  0
    2.8590   13.1940   -0.6790 C   0  0  0  0  0  0  0  0  0  0  0  0
    2.6040   14.6620   -0.5980 C   0  0  0  0  0  0  0  0  0  0  0  0
    1.6780   15.3350   -1.3070 C   0  0  0  0  0  0  0  0  0  0  0  0
    0.8350   14.6260   -2.3750 C   0  0  1  0  0  0  0  0  0  0  0  0
    0.8040   15.4870   -3.6650 C   0  0  0  0  0  0  0  0  0  0  0  0
    0.3360   16.9150   -3.4050 C   0  0  0  0  0  0  0  0  0  0  0  0
    1.2340   17.6060   -2.3820 C   0  0  2  0  0  0  0  0  0  0  0  0
    2.5350   17.7780   -2.9530 O   0  0  0  0  0  0  0  0  0  0  0  0
    1.3500   16.8250   -1.0430 C   0  0  0  0  0  0  0  0  0  0  0  0
    0.0040   16.8980   -0.2800 C   0  0  0  0  0  0  0  0  0  0  0  0
    2.3930   17.5550   -0.1540 C   0  0  0  0  0  0  0  0  0  0  0  0
    1.2120   13.1090   -2.6610 C   0  0  1  0  0  0  0  0  0  0  0  0
    2.3440   13.0350   -3.7310 C   0  0  0  0  0  0  0  0  0  0  0  0
   -0.0360   12.3790   -3.2840 C   0  0  0  0  0  0  0  0  0  0  0  0
   -1.0420   11.7580   -2.2970 C   0  0  0  0  0  0  0  0  0  0  0  0
   -0.3250   10.9020   -1.2490 C   0  0  2  0  0  0  0  0  0  0  0  0
    0.3800    9.7200   -1.9970 C   0  0  0  0  0  0  0  0  0  0  0  0
   -1.0332    7.6745   -1.7433 H   0  0  0  0  0  0  0  0  0  0  0  0
   -2.5858    8.2875   -2.4068 H   0  0  0  0  0  0  0  0  0  0  0  0
   -1.1308    9.3409   -2.4068 H   0  0  0  0  0  0  0  0  0  0  0  0
   -1.8728    8.2840    0.2563 H   0  0  0  0  0  0  0  0  0  0  0  0
   -3.7015   10.0999    0.4991 H   0  0  0  0  0  0  0  0  0  0  0  0
   -3.8152    9.9649   -1.3208 H   0  0  0  0  0  0  0  0  0  0  0  0
   -3.8818    7.3711    0.0491 H   0  0  0  0  0  0  0  0  0  0  0  0
   -5.2479    8.4762    0.4955 H   0  0  0  0  0  0  0  0  0  0  0  0
   -4.2054    7.6953   -2.0294 H   0  0  0  0  0  0  0  0  0  0  0  0
   -6.7224    7.1970    0.4857 H   0  0  0  0  0  0  0  0  0  0  0  0
   -8.2669    7.4364   -0.3996 H   0  0  0  0  0  0  0  0  0  0  0  0
   -7.4721    5.8256   -0.3996 H   0  0  0  0  0  0  0  0  0  0  0  0
   -7.4242    5.6389   -2.6551 H   0  0  0  0  0  0  0  0  0  0  0  0
   -7.5924    7.2213   -3.4884 H   0  0  0  0  0  0  0  0  0  0  0  0
   -6.0107    6.3700   -3.4884 H   0  0  0  0  0  0  0  0  0  0  0  0
   -1.9937   11.0143    0.1570 H   0  0  0  0  0  0  0  0  0  0  0  0
   -0.5742   10.2987    1.9770 H   0  0  0  0  0  0  0  0  0  0  0  0
    0.0642    8.9289    1.0430 H   0  0  0  0  0  0  0  0  0  0  0  0
    1.4487   11.3753    1.5627 H   0  0  0  0  0  0  0  0  0  0  0  0
    1.9368   10.2052    0.3397 H   0  0  0  0  0  0  0  0  0  0  0  0
    0.0344   12.8130    1.4342 H   0  0  0  0  0  0  0  0  0  0  0  0
    0.3942   13.9421    0.0843 H   0  0  0  0  0  0  0  0  0  0  0  0
   -1.1357   13.0008    0.0843 H   0  0  0  0  0  0  0  0  0  0  0  0
    2.2463   11.4481   -1.7153 H   0  0  0  0  0  0  0  0  0  0  0  0
    2.9738   12.8120    0.3462 H   0  0  0  0  0  0  0  0  0  0  0  0
    3.7611   13.0759   -1.2972 H   0  0  0  0  0  0  0  0  0  0  0  0
    3.2248   15.2433    0.0997 H   0  0  0  0  0  0  0  0  0  0  0  0
   -0.1794   14.5433   -1.9576 H   0  0  0  0  0  0  0  0  0  0  0  0
    1.8177   15.5204   -4.0909 H   0  0  0  0  0  0  0  0  0  0  0  0
    0.0879   15.0225   -4.3588 H   0  0  0  0  0  0  0  0  0  0  0  0
    0.3637   17.4802   -4.3483 H   0  0  0  0  0  0  0  0  0  0  0  0
   -0.6887   16.8814   -3.0065 H   0  0  0  0  0  0  0  0  0  0  0  0
    0.7746   18.5759   -2.1407 H   0  0  0  0  0  0  0  0  0  0  0  0
    2.6520   17.0910   -3.6310 H   0  0  0  0  0  0  0  0  0  0  0  0
    0.1955   16.8876    0.8032 H   0  0  0  0  0  0  0  0  0  0  0  0
   -0.5210   17.8259   -0.5506 H   0  0  0  0  0  0  0  0  0  0  0  0
   -0.6183   16.0323   -0.5506 H   0  0  0  0  0  0  0  0  0  0  0  0
    2.1528   17.3869    0.9062 H   0  0  0  0  0  0  0  0  0  0  0  0
    3.3975   17.1618   -0.3692 H   0  0  0  0  0  0  0  0  0  0  0  0
    2.3675   18.6334   -0.3692 H   0  0  0  0  0  0  0  0  0  0  0  0
    3.3202   12.9712   -3.2281 H   0  0  0  0  0  0  0  0  0  0  0  0
    2.1965   12.1446   -4.3598 H   0  0  0  0  0  0  0  0  0  0  0  0
    2.3137   13.9370   -4.3598 H   0  0  0  0  0  0  0  0  0  0  0  0
   -0.5802   13.1138   -3.8955 H   0  0  0  0  0  0  0  0  0  0  0  0
    0.3787   11.5286   -3.8451 H   0  0  0  0  0  0  0  0  0  0  0  0
   -1.5914   12.5640   -1.7885 H   0  0  0  0  0  0  0  0  0  0  0  0
   -1.7347   11.1154   -2.8603 H   0  0  0  0  0  0  0  0  0  0  0  0
    0.7987    9.0180   -1.2609 H   0  0  0  0  0  0  0  0  0  0  0  0
   -0.3532    9.1959   -2.6277 H   0  0  0  0  0  0  0  0  0  0  0  0
    1.1895   10.1161   -2.6277 H   0  0  0  0  0  0  0  0  0  0  0  0
  1  2  1  0
  2  3  1  0
  3  4  1  0
  4  5  1  0
  5  6  1  0
  6  7  1  0
  7  8  1  0
  7  9  1  0
  2 10  1  0
 10 11  1  0
 11 12  1  0
 12 13  1  0
 13 14  1  1
 13 15  1  0
 15 16  1  0
 16 17  1  0
 17 18  2  0
 18 19  1  0
 19 20  1  0
 20 21  1  0
 21 22  1  0
 22 23  1  0
 22 24  1  0
 24 25  1  0
 24 26  1  0
 19 27  1  0
 27 28  1  6
 27 29  1  0
 29 30  1  0
 30 31  1  0
 31 32  1  6
  7  5  1  0
 31 10  1  0
 31 13  1  0
 27 15  1  0
 24 18  1  0
  1 33  1  0
  1 34  1  0
  1 35  1  0
  2 36  1  1
  3 37  1  0
  3 38  1  0
  4 39  1  0
  4 40  1  0
  5 41  1  6
  8 42  1  0
  8 43  1  0
  8 44  1  0
  9 45  1  0
  9 46  1  0
  9 47  1  0
 10 48  1  1
 11 49  1  0
 11 50  1  0
 12 51  1  0
 12 52  1  0
 14 53  1  0
 14 54  1  0
 14 55  1  0
 15 56  1  6
 16 57  1  0
 16 58  1  0
 17 59  1  0
 19 60  1  1
 20 61  1  0
 20 62  1  0
 21 63  1  0
 21 64  1  0
 22 65  1  1
 23 66  1  0
 25 67  1  0
 25 68  1  0
 25 69  1  0
 26 70  1  0
 26 71  1  0
 26 72  1  0
 28 73  1  0
 28 74  1  0
 28 75  1  0
 29 76  1  0
 29 77  1  0
 30 78  1  0
 30 79  1  0
 32 80  1  0
 32 81  1  0
 32 82  1  0
M  END
>  <meeko>  (1) 
{"is_sidechain": [false], "intermolecular_energy": 2.731, "internal_energy": -0.839}

$$$$
EPH_relaxed_0001_pdb2pqr_Repair_403_r2_0001_out
     RDKit          3D

 82 86  0  0  0  0  0  0  0  0999 V2000
    1.9910   19.6390   -0.6130 C   0  0  0  0  0  0  0  0  0  0  0  0
    2.3880   18.4180    0.2230 C   0  0  2  0  0  0  0  0  0  0  0  0
    3.8390   17.9740   -0.0510 C   0  0  0  0  0  0  0  0  0  0  0  0
    4.8030   18.2750    1.1010 C   0  0  0  0  0  0  0  0  0  0  0  0
    4.1280   19.0330    2.2040 C   0  0  2  0  0  0  0  0  0  0  0  0
    4.8390   20.1940    2.6530 O   0  0  0  0  0  0  0  0  0  0  0  0
    4.6860   19.1350    3.6120 C   0  0  0  0  0  0  0  0  0  0  0  0
    5.9710   18.4690    3.9920 C   0  0  0  0  0  0  0  0  0  0  0  0
    3.7480   19.4650    4.7310 C   0  0  0  0  0  0  0  0  0  0  0  0
    1.4300   17.2660   -0.0530 C   0  0  1  0  0  0  0  0  0  0  0  0
    0.1710   17.7110   -0.8440 C   0  0  0  0  0  0  0  0  0  0  0  0
   -0.2090   16.5350   -1.7790 C   0  0  0  0  0  0  0  0  0  0  0  0
    0.6290   15.3410   -1.2640 C   0  0  1  0  0  0  0  0  0  0  0  0
   -0.1680   14.7900   -0.0400 C   0  0  0  0  0  0  0  0  0  0  0  0
    0.9400   14.2160   -2.3040 C   0  0  2  0  0  0  0  0  0  0  0  0
   -0.2930   13.4830   -2.8620 C   0  0  0  0  0  0  0  0  0  0  0  0
   -0.7150   12.2720   -2.0980 C   0  0  0  0  0  0  0  0  0  0  0  0
    0.0300   11.6270   -1.1810 C   0  0  0  0  0  0  0  0  0  0  0  0
    1.4780   12.0500   -0.9030 C   0  0  1  0  0  0  0  0  0  0  0  0
    2.3870   10.7940   -0.8660 C   0  0  0  0  0  0  0  0  0  0  0  0
    1.8890    9.7400    0.1170 C   0  0  0  0  0  0  0  0  0  0  0  0
    0.4670    9.3020   -0.2260 C   0  0  2  0  0  0  0  0  0  0  0  0
    0.4890    8.6080   -1.4780 O   0  0  0  0  0  0  0  0  0  0  0  0
   -0.5370   10.4850   -0.3020 C   0  0  0  0  0  0  0  0  0  0  0  0
   -0.7890   11.0460    1.1200 C   0  0  0  0  0  0  0  0  0  0  0  0
   -1.8990    9.9250   -0.7940 C   0  0  0  0  0  0  0  0  0  0  0  0
    2.0570   13.1960   -1.8410 C   0  0  1  0  0  0  0  0  0  0  0  0
    2.6550   12.5700   -3.1380 C   0  0  0  0  0  0  0  0  0  0  0  0
    3.2510   13.9100   -1.1020 C   0  0  0  0  0  0  0  0  0  0  0  0
    2.8900   15.0910   -0.1810 C   0  0  0  0  0  0  0  0  0  0  0  0
    1.9660   16.0820   -0.8960 C   0  0  2  0  0  0  0  0  0  0  0  0
    2.7490   16.6690   -2.1190 C   0  0  0  0  0  0  0  0  0  0  0  0
    1.7210   20.4694    0.0560 H   0  0  0  0  0  0  0  0  0  0  0  0
    2.8376   19.9398   -1.2476 H   0  0  0  0  0  0  0  0  0  0  0  0
    1.1293   19.3844   -1.2476 H   0  0  0  0  0  0  0  0  0  0  0  0
    2.3258   18.7075    1.2824 H   0  0  0  0  0  0  0  0  0  0  0  0
    3.8419   16.8890   -0.2318 H   0  0  0  0  0  0  0  0  0  0  0  0
    4.1910   18.5456   -0.9224 H   0  0  0  0  0  0  0  0  0  0  0  0
    5.1857   17.3254    1.5032 H   0  0  0  0  0  0  0  0  0  0  0  0
    5.6225   18.8956    0.7095 H   0  0  0  0  0  0  0  0  0  0  0  0
    3.1352   18.7524    1.8225 H   0  0  0  0  0  0  0  0  0  0  0  0
    6.0520   18.4270    5.0882 H   0  0  0  0  0  0  0  0  0  0  0  0
    5.9895   17.4478    3.5836 H   0  0  0  0  0  0  0  0  0  0  0  0
    6.8161   19.0426    3.5836 H   0  0  0  0  0  0  0  0  0  0  0  0
    4.2495   19.2885    5.6940 H   0  0  0  0  0  0  0  0  0  0  0  0
    3.4507   20.5217    4.6606 H   0  0  0  0  0  0  0  0  0  0  0  0
    2.8545   18.8272    4.6606 H   0  0  0  0  0  0  0  0  0  0  0  0
    1.2366   16.9367    0.9786 H   0  0  0  0  0  0  0  0  0  0  0  0
   -0.6555   17.9259   -0.1507 H   0  0  0  0  0  0  0  0  0  0  0  0
    0.3705   18.6258   -1.4214 H   0  0  0  0  0  0  0  0  0  0  0  0
   -1.2843   16.3142   -1.7080 H   0  0  0  0  0  0  0  0  0  0  0  0
   -0.0076   16.7609   -2.8366 H   0  0  0  0  0  0  0  0  0  0  0  0
    0.3137   15.1230    0.8912 H   0  0  0  0  0  0  0  0  0  0  0  0
   -1.2004   15.1682   -0.0744 H   0  0  0  0  0  0  0  0  0  0  0  0
   -0.1789   13.6906   -0.0744 H   0  0  0  0  0  0  0  0  0  0  0  0
    1.3567   14.7851   -3.1481 H   0  0  0  0  0  0  0  0  0  0  0  0
   -1.1349   14.1909   -2.8690 H   0  0  0  0  0  0  0  0  0  0  0  0
   -0.0081   13.1271   -3.8631 H   0  0  0  0  0  0  0  0  0  0  0  0
   -1.7197   11.8730   -2.3016 H   0  0  0  0  0  0  0  0  0  0  0  0
    1.4697   12.5327    0.0854 H   0  0  0  0  0  0  0  0  0  0  0  0
    2.4174   10.3510   -1.8724 H   0  0  0  0  0  0  0  0  0  0  0  0
    3.3856   11.1144   -0.5341 H   0  0  0  0  0  0  0  0  0  0  0  0
    2.5550    8.8655    0.0751 H   0  0  0  0  0  0  0  0  0  0  0  0
    1.8882   10.1750    1.1274 H   0  0  0  0  0  0  0  0  0  0  0  0
    0.1180    8.6471    0.5860 H   0  0  0  0  0  0  0  0  0  0  0  0
    1.1660    9.0280   -2.0350 H   0  0  0  0  0  0  0  0  0  0  0  0
   -0.4586   10.3105    1.8682 H   0  0  0  0  0  0  0  0  0  0  0  0
   -0.2244   11.9809    1.2507 H   0  0  0  0  0  0  0  0  0  0  0  0
   -1.8629   11.2449    1.2507 H   0  0  0  0  0  0  0  0  0  0  0  0
   -2.5246    9.6678    0.0735 H   0  0  0  0  0  0  0  0  0  0  0  0
   -2.4102   10.6859   -1.4020 H   0  0  0  0  0  0  0  0  0  0  0  0
   -1.7271    9.0246   -1.4020 H   0  0  0  0  0  0  0  0  0  0  0  0
    3.3914   11.7991   -2.8672 H   0  0  0  0  0  0  0  0  0  0  0  0
    1.8483   12.1143   -3.7309 H   0  0  0  0  0  0  0  0  0  0  0  0
    3.1471   13.3551   -3.7309 H   0  0  0  0  0  0  0  0  0  0  0  0
    3.7628   13.1538   -0.4886 H   0  0  0  0  0  0  0  0  0  0  0  0
    3.8659   14.3465   -1.9028 H   0  0  0  0  0  0  0  0  0  0  0  0
    2.3805   14.7061    0.7147 H   0  0  0  0  0  0  0  0  0  0  0  0
    3.8166   15.6141    0.0977 H   0  0  0  0  0  0  0  0  0  0  0  0
    3.5802   17.2921   -1.7573 H   0  0  0  0  0  0  0  0  0  0  0  0
    3.1471   15.8449   -2.7293 H   0  0  0  0  0  0  0  0  0  0  0  0
    2.0696   17.2822   -2.7293 H   0  0  0  0  0  0  0  0  0  0  0  0
  1  2  1  0
  2  3  1  0
  3  4  1  0
  4  5  1  0
  5  6  1  0
  6  7  1  0
  7  8  1  0
  7  9  1  0
  2 10  1  0
 10 11  1  0
 11 12  1  0
 12 13  1  0
 13 14  1  1
 13 15  1  0
 15 16  1  0
 16 17  1  0
 17 18  2  0
 18 19  1  0
 19 20  1  0
 20 21  1  0
 21 22  1  0
 22 23  1  0
 22 24  1  0
 24 25  1  0
 24 26  1  0
 19 27  1  0
 27 28  1  6
 27 29  1  0
 29 30  1  0
 30 31  1  0
 31 32  1  6
  7  5  1  0
 31 10  1  0
 31 13  1  0
 27 15  1  0
 24 18  1  0
  1 33  1  0
  1 34  1  0
  1 35  1  0
  2 36  1  1
  3 37  1  0
  3 38  1  0
  4 39  1  0
  4 40  1  0
  5 41  1  1
  8 42  1  0
  8 43  1  0
  8 44  1  0
  9 45  1  0
  9 46  1  0
  9 47  1  0
 10 48  1  1
 11 49  1  0
 11 50  1  0
 12 51  1  0
 12 52  1  0
 14 53  1  0
 14 54  1  0
 14 55  1  0
 15 56  1  6
 16 57  1  0
 16 58  1  0
 17 59  1  0
 19 60  1  1
 20 61  1  0
 20 62  1  0
 21 63  1  0
 21 64  1  0
 22 65  1  1
 23 66  1  0
 25 67  1  0
 25 68  1  0
 25 69  1  0
 26 70  1  0
 26 71  1  0
 26 72  1  0
 28 73  1  0
 28 74  1  0
 28 75  1  0
 29 76  1  0
 29 77  1  0
 30 78  1  0
 30 79  1  0
 32 80  1  0
 32 81  1  0
 32 82  1  0
M  END
>  <meeko>  (2) 
{"is_sidechain": [false], "intermolecular_energy": 2.731, "internal_energy": -0.839}

$$$$
EPH_relaxed_0001_pdb2pqr_Repair_403_r2_0001_out
     RDKit          3D

 82 86  0  0  0  0  0  0  0  0999 V2000
    2.3510   17.9550   -2.7120 C   0  0  0  0  0  0  0  0  0  0  0  0
    1.0560   17.5730   -1.9890 C   0  0  2  0  0  0  0  0  0  0  0  0
    1.2080   17.6330   -0.4560 C   0  0  0  0  0  0  0  0  0  0  0  0
    0.8960   19.0080    0.1410 C   0  0  0  0  0  0  0  0  0  0  0  0
   -0.5480   19.1320    0.5210 C   0  0  2  0  0  0  0  0  0  0  0  0
   -1.4300   18.2430   -0.1760 O   0  0  0  0  0  0  0  0  0  0  0  0
   -1.6200   19.6460   -0.4210 C   0  0  0  0  0  0  0  0  0  0  0  0
   -1.2930   20.0690   -1.8190 C   0  0  0  0  0  0  0  0  0  0  0  0
   -2.8850   20.1930    0.1630 C   0  0  0  0  0  0  0  0  0  0  0  0
    0.6150   16.1780   -2.4150 C   0  0  1  0  0  0  0  0  0  0  0  0
    0.7250   15.9580   -3.9470 C   0  0  0  0  0  0  0  0  0  0  0  0
    1.1310   14.4770   -4.1590 C   0  0  0  0  0  0  0  0  0  0  0  0
    0.9180   13.8130   -2.7780 C   0  0  1  0  0  0  0  0  0  0  0  0
   -0.6130   13.5150   -2.7080 C   0  0  0  0  0  0  0  0  0  0  0  0
    1.7690   12.5340   -2.4870 C   0  0  2  0  0  0  0  0  0  0  0  0
    1.4980   11.3440   -3.4240 C   0  0  0  0  0  0  0  0  0  0  0  0
    0.4360   10.4000   -2.9650 C   0  0  0  0  0  0  0  0  0  0  0  0
   -0.0720   10.3400   -1.7200 C   0  0  0  0  0  0  0  0  0  0  0  0
    0.4930   11.2180   -0.5950 C   0  0  1  0  0  0  0  0  0  0  0  0
    0.7110   10.3550    0.6750 C   0  0  0  0  0  0  0  0  0  0  0  0
   -0.5500    9.6060    1.0970 C   0  0  0  0  0  0  0  0  0  0  0  0
   -1.0470    8.7000   -0.0270 C   0  0  2  0  0  0  0  0  0  0  0  0
   -0.0910    7.6560   -0.2350 O   0  0  0  0  0  0  0  0  0  0  0  0
   -1.2930    9.4580   -1.3610 C   0  0  0  0  0  0  0  0  0  0  0  0
   -2.5310   10.3770   -1.2170 C   0  0  0  0  0  0  0  0  0  0  0  0
   -1.6550    8.4090   -2.4460 C   0  0  0  0  0  0  0  0  0  0  0  0
    1.7700   12.0870   -0.9690 C   0  0  1  0  0  0  0  0  0  0  0  0
    3.0660   11.2480   -0.7530 C   0  0  0  0  0  0  0  0  0  0  0  0
    1.8640   13.3120    0.0150 C   0  0  0  0  0  0  0  0  0  0  0  0
    1.0980   14.5870   -0.3870 C   0  0  0  0  0  0  0  0  0  0  0  0
    1.4030   14.9750   -1.8370 C   0  0  2  0  0  0  0  0  0  0  0  0
    2.9320   15.3030   -1.9330 C   0  0  0  0  0  0  0  0  0  0  0  0
    3.1306   18.1850   -1.9708 H   0  0  0  0  0  0  0  0  0  0  0  0
    2.6804   17.1157   -3.3422 H   0  0  0  0  0  0  0  0  0  0  0  0
    2.1721   18.8386   -3.3422 H   0  0  0  0  0  0  0  0  0  0  0  0
    0.2886   18.3080   -2.2735 H   0  0  0  0  0  0  0  0  0  0  0  0
    0.5224   16.8973   -0.0102 H   0  0  0  0  0  0  0  0  0  0  0  0
    2.2623   17.4162   -0.2292 H   0  0  0  0  0  0  0  0  0  0  0  0
    1.5148   19.1558    1.0383 H   0  0  0  0  0  0  0  0  0  0  0  0
    1.1172   19.7707   -0.6202 H   0  0  0  0  0  0  0  0  0  0  0  0
   -0.2768   19.4076    1.5508 H   0  0  0  0  0  0  0  0  0  0  0  0
   -0.6205   20.9390   -1.7910 H   0  0  0  0  0  0  0  0  0  0  0  0
   -0.7985   19.2401   -2.3467 H   0  0  0  0  0  0  0  0  0  0  0  0
   -2.2197   20.3388   -2.3467 H   0  0  0  0  0  0  0  0  0  0  0  0
   -2.8235   20.1664    1.2610 H   0  0  0  0  0  0  0  0  0  0  0  0
   -3.0241   21.2317   -0.1714 H   0  0  0  0  0  0  0  0  0  0  0  0
   -3.7370   19.5829   -0.1714 H   0  0  0  0  0  0  0  0  0  0  0  0
   -0.4114   16.1809   -2.0194 H   0  0  0  0  0  0  0  0  0  0  0  0
   -0.2435   16.1578   -4.4287 H   0  0  0  0  0  0  0  0  0  0  0  0
    1.4669   16.6380   -4.3910 H   0  0  0  0  0  0  0  0  0  0  0  0
    0.4925   14.0043   -4.9199 H   0  0  0  0  0  0  0  0  0  0  0  0
    2.1665   14.3751   -4.5158 H   0  0  0  0  0  0  0  0  0  0  0  0
   -0.9269   13.4539   -1.6555 H   0  0  0  0  0  0  0  0  0  0  0  0
   -1.1670   14.3222   -3.2096 H   0  0  0  0  0  0  0  0  0  0  0  0
   -0.8238   12.5590   -3.2096 H   0  0  0  0  0  0  0  0  0  0  0  0
    2.7898   12.8713   -2.7199 H   0  0  0  0  0  0  0  0  0  0  0  0
    1.1969   11.7442   -4.4034 H   0  0  0  0  0  0  0  0  0  0  0  0
    2.4307   10.7616   -3.4540 H   0  0  0  0  0  0  0  0  0  0  0  0
    0.0349    9.6939   -3.7070 H   0  0  0  0  0  0  0  0  0  0  0  0
   -0.2684   11.9870   -0.3975 H   0  0  0  0  0  0  0  0  0  0  0  0
    1.5051    9.6217    0.4710 H   0  0  0  0  0  0  0  0  0  0  0  0
    0.9873   11.0329    1.4960 H   0  0  0  0  0  0  0  0  0  0  0  0
   -0.3253    8.9922    1.9817 H   0  0  0  0  0  0  0  0  0  0  0  0
   -1.3346   10.3412    1.3289 H   0  0  0  0  0  0  0  0  0  0  0  0
   -2.0194    8.2908    0.2846 H   0  0  0  0  0  0  0  0  0  0  0  0
    0.1020    7.2570    0.6300 H   0  0  0  0  0  0  0  0  0  0  0  0
   -2.7467   10.5371   -0.1503 H   0  0  0  0  0  0  0  0  0  0  0  0
   -2.3275   11.3445   -1.6992 H   0  0  0  0  0  0  0  0  0  0  0  0
   -3.3982    9.9022   -1.6992 H   0  0  0  0  0  0  0  0  0  0  0  0
   -1.9770    7.4758   -1.9608 H   0  0  0  0  0  0  0  0  0  0  0  0
   -2.4713    8.7968   -3.0731 H   0  0  0  0  0  0  0  0  0  0  0  0
   -0.7733    8.2109   -3.0731 H   0  0  0  0  0  0  0  0  0  0  0  0
    3.2502   11.1288    0.3249 H   0  0  0  0  0  0  0  0  0  0  0  0
    2.9431   10.2577   -1.2157 H   0  0  0  0  0  0  0  0  0  0  0  0
    3.9192   11.7656   -1.2157 H   0  0  0  0  0  0  0  0  0  0  0  0
    1.4766   12.9850    0.9912 H   0  0  0  0  0  0  0  0  0  0  0  0
    2.9252   13.6015    0.0133 H   0  0  0  0  0  0  0  0  0  0  0  0
    0.0180   14.4061   -0.2824 H   0  0  0  0  0  0  0  0  0  0  0  0
    1.4159   15.4094    0.2707 H   0  0  0  0  0  0  0  0  0  0  0  0
    3.3520   15.3931   -0.9203 H   0  0  0  0  0  0  0  0  0  0  0  0
    3.4472   14.4949   -2.4730 H   0  0  0  0  0  0  0  0  0  0  0  0
    3.0704   16.2513   -2.4730 H   0  0  0  0  0  0  0  0  0  0  0  0
  1  2  1  0
  2  3  1  0
  3  4  1  0
  4  5  1  0
  5  6  1  0
  6  7  1  0
  7  8  1  0
  7  9  1  0
  2 10  1  0
 10 11  1  0
 11 12  1  0
 12 13  1  0
 13 14  1  1
 13 15  1  0
 15 16  1  0
 16 17  1  0
 17 18  2  0
 18 19  1  0
 19 20  1  0
 20 21  1  0
 21 22  1  0
 22 23  1  0
 22 24  1  0
 24 25  1  0
 24 26  1  0
 19 27  1  0
 27 28  1  6
 27 29  1  0
 29 30  1  0
 30 31  1  0
 31 32  1  1
  7  5  1  0
 31 10  1  0
 31 13  1  0
 27 15  1  0
 24 18  1  0
  1 33  1  0
  1 34  1  0
  1 35  1  0
  2 36  1  6
  3 37  1  0
  3 38  1  0
  4 39  1  0
  4 40  1  0
  5 41  1  1
  8 42  1  0
  8 43  1  0
  8 44  1  0
  9 45  1  0
  9 46  1  0
  9 47  1  0
 10 48  1  1
 11 49  1  0
 11 50  1  0
 12 51  1  0
 12 52  1  0
 14 53  1  0
 14 54  1  0
 14 55  1  0
 15 56  1  6
 16 57  1  0
 16 58  1  0
 17 59  1  0
 19 60  1  1
 20 61  1  0
 20 62  1  0
 21 63  1  0
 21 64  1  0
 22 65  1  1
 23 66  1  0
 25 67  1  0
 25 68  1  0
 25 69  1  0
 26 70  1  0
 26 71  1  0
 26 72  1  0
 28 73  1  0
 28 74  1  0
 28 75  1  0
 29 76  1  0
 29 77  1  0
 30 78  1  0
 30 79  1  0
 32 80  1  0
 32 81  1  0
 32 82  1  0
M  END
>  <meeko>  (3) 
{"is_sidechain": [false], "intermolecular_energy": 2.731, "internal_energy": -0.839}

$$$$
EPH_relaxed_0001_pdb2pqr_Repair_403_r2_0001_out
     RDKit          3D

 82 86  0  0  0  0  0  0  0  0999 V2000
    0.3940   18.4400   -0.1260 C   0  0  0  0  0  0  0  0  0  0  0  0
    1.4720   17.3650   -0.2840 C   0  0  2  0  0  0  0  0  0  0  0  0
    2.7140   17.8920   -1.0300 C   0  0  0  0  0  0  0  0  0  0  0  0
    3.9400   18.0760   -0.1300 C   0  0  0  0  0  0  0  0  0  0  0  0
    3.5580   18.5690    1.2330 C   0  0  2  0  0  0  0  0  0  0  0  0
    3.7820   19.9680    1.4470 O   0  0  0  0  0  0  0  0  0  0  0  0
    4.5640   19.0700    2.2520 C   0  0  0  0  0  0  0  0  0  0  0  0
    6.0300   19.1030    1.9520 C   0  0  0  0  0  0  0  0  0  0  0  0
    4.1780   19.0670    3.6990 C   0  0  0  0  0  0  0  0  0  0  0  0
    0.8980   16.1580   -1.0170 C   0  0  1  0  0  0  0  0  0  0  0  0
    0.7570   16.3980   -2.5440 C   0  0  0  0  0  0  0  0  0  0  0  0
    1.0480   15.0420   -3.2380 C   0  0  0  0  0  0  0  0  0  0  0  0
    1.0180   14.0030   -2.0930 C   0  0  1  0  0  0  0  0  0  0  0  0
   -0.4960   13.7030   -1.8630 C   0  0  0  0  0  0  0  0  0  0  0  0
    1.8370   12.6920   -2.3290 C   0  0  2  0  0  0  0  0  0  0  0  0
    1.3620   11.8300   -3.5120 C   0  0  0  0  0  0  0  0  0  0  0  0
    0.3380   10.7970   -3.1780 C   0  0  0  0  0  0  0  0  0  0  0  0
    0.0260   10.3760   -1.9380 C   0  0  0  0  0  0  0  0  0  0  0  0
    0.8040   10.8830   -0.7160 C   0  0  1  0  0  0  0  0  0  0  0  0
    1.1720    9.6840    0.1960 C   0  0  0  0  0  0  0  0  0  0  0  0
   -0.0450    8.8480    0.5840 C   0  0  0  0  0  0  0  0  0  0  0  0
   -0.7570    8.3150   -0.6560 C   0  0  2  0  0  0  0  0  0  0  0  0
    0.1000    7.3750   -1.3110 O   0  0  0  0  0  0  0  0  0  0  0  0
   -1.1680    9.4320   -1.6550 C   0  0  0  0  0  0  0  0  0  0  0  0
   -2.3200   10.2730   -1.0510 C   0  0  0  0  0  0  0  0  0  0  0  0
   -1.7480    8.7490   -2.9230 C   0  0  0  0  0  0  0  0  0  0  0  0
    2.0500   11.8180   -1.0270 C   0  0  1  0  0  0  0  0  0  0  0  0
    3.3200   10.9480   -1.2780 C   0  0  0  0  0  0  0  0  0  0  0  0
    2.3600   12.7000    0.2410 C   0  0  0  0  0  0  0  0  0  0  0  0
    1.6080   14.0390    0.3560 C   0  0  0  0  0  0  0  0  0  0  0  0
    1.7030   14.8360   -0.9490 C   0  0  2  0  0  0  0  0  0  0  0  0
    3.2130   15.1710   -1.1960 C   0  0  0  0  0  0  0  0  0  0  0  0
    0.2116   18.6219    0.9434 H   0  0  0  0  0  0  0  0  0  0  0  0
    0.7320   19.3713   -0.6039 H   0  0  0  0  0  0  0  0  0  0  0  0
   -0.5364   18.0994   -0.6039 H   0  0  0  0  0  0  0  0  0  0  0  0
    1.7945   17.0694    0.7253 H   0  0  0  0  0  0  0  0  0  0  0  0
    2.9710   17.1768   -1.8253 H   0  0  0  0  0  0  0  0  0  0  0  0
    2.4541   18.8845   -1.4266 H   0  0  0  0  0  0  0  0  0  0  0  0
    4.4557   17.1097   -0.0280 H   0  0  0  0  0  0  0  0  0  0  0  0
    4.5969   18.8262   -0.5944 H   0  0  0  0  0  0  0  0  0  0  0  0
    2.7460   17.8300    1.2997 H   0  0  0  0  0  0  0  0  0  0  0  0
    6.5969   19.1158    2.8946 H   0  0  0  0  0  0  0  0  0  0  0  0
    6.3054   18.2108    1.3705 H   0  0  0  0  0  0  0  0  0  0  0  0
    6.2650   20.0067    1.3705 H   0  0  0  0  0  0  0  0  0  0  0  0
    5.0855   19.0741    4.3206 H   0  0  0  0  0  0  0  0  0  0  0  0
    3.5755   19.9605    3.9196 H   0  0  0  0  0  0  0  0  0  0  0  0
    3.5895   18.1643    3.9196 H   0  0  0  0  0  0  0  0  0  0  0  0
   -0.0529   16.0480   -0.4750 H   0  0  0  0  0  0  0  0  0  0  0  0
   -0.2629   16.7344   -2.7821 H   0  0  0  0  0  0  0  0  0  0  0  0
    1.4547   17.1758   -2.8879 H   0  0  0  0  0  0  0  0  0  0  0  0
    0.2755   14.8159   -3.9878 H   0  0  0  0  0  0  0  0  0  0  0  0
    2.0091   15.0452   -3.7731 H   0  0  0  0  0  0  0  0  0  0  0  0
   -0.7018   13.6622   -0.7832 H   0  0  0  0  0  0  0  0  0  0  0  0
   -1.1013   14.4987   -2.3218 H   0  0  0  0  0  0  0  0  0  0  0  0
   -0.7521   12.7366   -2.3218 H   0  0  0  0  0  0  0  0  0  0  0  0
    2.8247   13.0798   -2.6190 H   0  0  0  0  0  0  0  0  0  0  0  0
    0.9328   12.5010   -4.2707 H   0  0  0  0  0  0  0  0  0  0  0  0
    2.2474   11.2787   -3.8613 H   0  0  0  0  0  0  0  0  0  0  0  0
   -0.2084   10.3407   -4.0166 H   0  0  0  0  0  0  0  0  0  0  0  0
    0.1239   11.5633   -0.1824 H   0  0  0  0  0  0  0  0  0  0  0  0
    1.8859    9.0403   -0.3388 H   0  0  0  0  0  0  0  0  0  0  0  0
    1.6069   10.0897    1.1213 H   0  0  0  0  0  0  0  0  0  0  0  0
    0.2830    8.0002    1.2033 H   0  0  0  0  0  0  0  0  0  0  0  0
   -0.7449    9.4851    1.1446 H   0  0  0  0  0  0  0  0  0  0  0  0
   -1.6891    7.8366   -0.3208 H   0  0  0  0  0  0  0  0  0  0  0  0
    0.3670    6.7110   -0.6530 H   0  0  0  0  0  0  0  0  0  0  0  0
   -2.2661   10.2336    0.0470 H   0  0  0  0  0  0  0  0  0  0  0  0
   -2.2264   11.3167   -1.3855 H   0  0  0  0  0  0  0  0  0  0  0  0
   -3.2856    9.8659   -1.3855 H   0  0  0  0  0  0  0  0  0  0  0  0
   -2.4332    7.9421   -2.6239 H   0  0  0  0  0  0  0  0  0  0  0  0
   -2.2955    9.4919   -3.5217 H   0  0  0  0  0  0  0  0  0  0  0  0
   -0.9263    8.3291   -3.5217 H   0  0  0  0  0  0  0  0  0  0  0  0
    3.7562   10.6492   -0.3134 H   0  0  0  0  0  0  0  0  0  0  0  0
    3.0421   10.0497   -1.8488 H   0  0  0  0  0  0  0  0  0  0  0  0
    4.0573   11.5316   -1.8488 H   0  0  0  0  0  0  0  0  0  0  0  0
    2.1131   12.1021    1.1307 H   0  0  0  0  0  0  0  0  0  0  0  0
    3.4216   12.9730    0.1492 H   0  0  0  0  0  0  0  0  0  0  0  0
    0.5496   13.8391    0.5792 H   0  0  0  0  0  0  0  0  0  0  0  0
    2.0668   14.6305    1.1620 H   0  0  0  0  0  0  0  0  0  0  0  0
    3.7261   15.2848   -0.2297 H   0  0  0  0  0  0  0  0  0  0  0  0
    3.6812   14.3549   -1.7659 H   0  0  0  0  0  0  0  0  0  0  0  0
    3.2921   16.1085   -1.7659 H   0  0  0  0  0  0  0  0  0  0  0  0
  1  2  1  0
  2  3  1  0
  3  4  1  0
  4  5  1  0
  5  6  1  0
  6  7  1  0
  7  8  1  0
  7  9  1  0
  2 10  1  0
 10 11  1  0
 11 12  1  0
 12 13  1  0
 13 14  1  1
 13 15  1  0
 15 16  1  0
 16 17  1  0
 17 18  2  0
 18 19  1  0
 19 20  1  0
 20 21  1  0
 21 22  1  0
 22 23  1  0
 22 24  1  0
 24 25  1  0
 24 26  1  0
 19 27  1  0
 27 28  1  6
 27 29  1  0
 29 30  1  0
 30 31  1  0
 31 32  1  6
  7  5  1  0
 31 10  1  0
 31 13  1  0
 27 15  1  0
 24 18  1  0
  1 33  1  0
  1 34  1  0
  1 35  1  0
  2 36  1  1
  3 37  1  0
  3 38  1  0
  4 39  1  0
  4 40  1  0
  5 41  1  1
  8 42  1  0
  8 43  1  0
  8 44  1  0
  9 45  1  0
  9 46  1  0
  9 47  1  0
 10 48  1  1
 11 49  1  0
 11 50  1  0
 12 51  1  0
 12 52  1  0
 14 53  1  0
 14 54  1  0
 14 55  1  0
 15 56  1  6
 16 57  1  0
 16 58  1  0
 17 59  1  0
 19 60  1  1
 20 61  1  0
 20 62  1  0
 21 63  1  0
 21 64  1  0
 22 65  1  1
 23 66  1  0
 25 67  1  0
 25 68  1  0
 25 69  1  0
 26 70  1  0
 26 71  1  0
 26 72  1  0
 28 73  1  0
 28 74  1  0
 28 75  1  0
 29 76  1  0
 29 77  1  0
 30 78  1  0
 30 79  1  0
 32 80  1  0
 32 81  1  0
 32 82  1  0
M  END
>  <meeko>  (4) 
{"is_sidechain": [false], "intermolecular_energy": 2.731, "internal_energy": -0.839}

$$$$
EPH_relaxed_0001_pdb2pqr_Repair_403_r2_0001_out
     RDKit          3D

 82 86  0  0  0  0  0  0  0  0999 V2000
    3.5530   17.7290    0.6200 C   0  0  0  0  0  0  0  0  0  0  0  0
    2.6810   17.9590   -0.6180 C   0  0  2  0  0  0  0  0  0  0  0  0
    1.9850   19.3350   -0.5900 C   0  0  0  0  0  0  0  0  0  0  0  0
    1.1960   19.6000    0.6950 C   0  0  0  0  0  0  0  0  0  0  0  0
   -0.1670   20.1500    0.4050 C   0  0  2  0  0  0  0  0  0  0  0  0
   -1.0600   20.1620    1.5260 O   0  0  0  0  0  0  0  0  0  0  0  0
   -1.4310   19.3110    0.4300 C   0  0  0  0  0  0  0  0  0  0  0  0
   -1.3920   17.8500    0.7530 C   0  0  0  0  0  0  0  0  0  0  0  0
   -2.6270   19.7950   -0.3300 C   0  0  0  0  0  0  0  0  0  0  0  0
    1.6410   16.8520   -0.7340 C   0  0  1  0  0  0  0  0  0  0  0  0
    0.4030   17.2800   -1.5680 C   0  0  0  0  0  0  0  0  0  0  0  0
   -0.0730   16.0220   -2.3400 C   0  0  0  0  0  0  0  0  0  0  0  0
    0.6880   14.8480   -1.6800 C   0  0  1  0  0  0  0  0  0  0  0  0
   -0.1250   14.5180   -0.3890 C   0  0  0  0  0  0  0  0  0  0  0  0
    0.9030   13.5790   -2.5670 C   0  0  2  0  0  0  0  0  0  0  0  0
   -0.3870   12.8700   -3.0160 C   0  0  0  0  0  0  0  0  0  0  0  0
   -0.8790   11.8010   -2.0980 C   0  0  0  0  0  0  0  0  0  0  0  0
   -0.1660   11.2280   -1.1100 C   0  0  0  0  0  0  0  0  0  0  0  0
    1.3120   11.5800   -0.9000 C   0  0  1  0  0  0  0  0  0  0  0  0
    2.1320   10.2780   -0.7060 C   0  0  0  0  0  0  0  0  0  0  0  0
    1.5770    9.3970    0.4100 C   0  0  0  0  0  0  0  0  0  0  0  0
    0.1240    9.0210    0.1360 C   0  0  2  0  0  0  0  0  0  0  0  0
    0.0770    8.1720   -1.0150 O   0  0  0  0  0  0  0  0  0  0  0  0
   -0.7970   10.2530   -0.0860 C   0  0  0  0  0  0  0  0  0  0  0  0
   -0.9860   11.0090    1.2530 C   0  0  0  0  0  0  0  0  0  0  0  0
   -2.2020    9.7320   -0.4920 C   0  0  0  0  0  0  0  0  0  0  0  0
    1.9540   12.5500   -1.9820 C   0  0  1  0  0  0  0  0  0  0  0  0
    2.4860   11.7210   -3.1910 C   0  0  0  0  0  0  0  0  0  0  0  0
    3.2060   13.2680   -1.3510 C   0  0  0  0  0  0  0  0  0  0  0  0
    2.9430   14.5810   -0.5890 C   0  0  0  0  0  0  0  0  0  0  0  0
    2.0790   15.5330   -1.4200 C   0  0  2  0  0  0  0  0  0  0  0  0
    2.8810   15.9010   -2.7150 C   0  0  0  0  0  0  0  0  0  0  0  0
    2.9512   17.8877    1.5270 H   0  0  0  0  0  0  0  0  0  0  0  0
    3.9380   16.6986    0.6111 H   0  0  0  0  0  0  0  0  0  0  0  0
    4.3961   18.4355    0.6111 H   0  0  0  0  0  0  0  0  0  0  0  0
    3.3424   17.9410   -1.4968 H   0  0  0  0  0  0  0  0  0  0  0  0
    2.7537   20.1151   -0.6925 H   0  0  0  0  0  0  0  0  0  0  0  0
    1.2621   19.3463   -1.4190 H   0  0  0  0  0  0  0  0  0  0  0  0
    1.0889   18.6556    1.2487 H   0  0  0  0  0  0  0  0  0  0  0  0
    1.7470   20.3445    1.2883 H   0  0  0  0  0  0  0  0  0  0  0  0
    0.2463   20.8397   -0.3456 H   0  0  0  0  0  0  0  0  0  0  0  0
   -1.3884   17.7158    1.8448 H   0  0  0  0  0  0  0  0  0  0  0  0
   -2.2773   17.3563    0.3258 H   0  0  0  0  0  0  0  0  0  0  0  0
   -0.4816   17.4042    0.3258 H   0  0  0  0  0  0  0  0  0  0  0  0
   -3.4078   20.1110    0.3775 H   0  0  0  0  0  0  0  0  0  0  0  0
   -2.3390   20.6473   -0.9629 H   0  0  0  0  0  0  0  0  0  0  0  0
   -3.0128   18.9822   -0.9629 H   0  0  0  0  0  0  0  0  0  0  0  0
    1.4425   16.6733    0.3331 H   0  0  0  0  0  0  0  0  0  0  0  0
   -0.3954   17.6410   -0.9029 H   0  0  0  0  0  0  0  0  0  0  0  0
    0.6563   18.0961   -2.2606 H   0  0  0  0  0  0  0  0  0  0  0  0
   -1.1597   15.8891   -2.2335 H   0  0  0  0  0  0  0  0  0  0  0  0
    0.1268   16.0944   -3.4193 H   0  0  0  0  0  0  0  0  0  0  0  0
    0.4788   14.7631    0.4972 H   0  0  0  0  0  0  0  0  0  0  0  0
   -1.0512   15.1114   -0.3772 H   0  0  0  0  0  0  0  0  0  0  0  0
   -0.3756   13.4470   -0.3772 H   0  0  0  0  0  0  0  0  0  0  0  0
    1.3447   14.0025   -3.4811 H   0  0  0  0  0  0  0  0  0  0  0  0
   -1.1777   13.6292   -3.1085 H   0  0  0  0  0  0  0  0  0  0  0  0
   -0.1446   12.3689   -3.9647 H   0  0  0  0  0  0  0  0  0  0  0  0
   -1.9122   11.4515   -2.2408 H   0  0  0  0  0  0  0  0  0  0  0  0
    1.3527   12.1865    0.0168 H   0  0  0  0  0  0  0  0  0  0  0  0
    2.1157    9.7077   -1.6465 H   0  0  0  0  0  0  0  0  0  0  0  0
    3.1555   10.5670   -0.4252 H   0  0  0  0  0  0  0  0  0  0  0  0
    2.1797    8.4793    0.4777 H   0  0  0  0  0  0  0  0  0  0  0  0
    1.6224    9.9575    1.3554 H   0  0  0  0  0  0  0  0  0  0  0  0
   -0.2561    8.5025    1.0286 H   0  0  0  0  0  0  0  0  0  0  0  0
    0.6370    8.5730   -1.7000 H   0  0  0  0  0  0  0  0  0  0  0  0
   -0.8133   10.3183    2.0916 H   0  0  0  0  0  0  0  0  0  0  0  0
   -0.2681   11.8406    1.3091 H   0  0  0  0  0  0  0  0  0  0  0  0
   -2.0108   11.4049    1.3091 H   0  0  0  0  0  0  0  0  0  0  0  0
   -2.7881    9.5147    0.4131 H   0  0  0  0  0  0  0  0  0  0  0  0
   -2.7190   10.4982   -1.0884 H   0  0  0  0  0  0  0  0  0  0  0  0
   -2.0944    8.8140   -1.0884 H   0  0  0  0  0  0  0  0  0  0  0  0
    3.0453   10.8494   -2.8202 H   0  0  0  0  0  0  0  0  0  0  0  0
    1.6381   11.3793   -3.8028 H   0  0  0  0  0  0  0  0  0  0  0  0
    3.1498   12.3495   -3.8028 H   0  0  0  0  0  0  0  0  0  0  0  0
    3.6745   12.5634   -0.6481 H   0  0  0  0  0  0  0  0  0  0  0  0
    3.8359   13.5530   -2.2066 H   0  0  0  0  0  0  0  0  0  0  0  0
    2.4228   14.3524    0.3529 H   0  0  0  0  0  0  0  0  0  0  0  0
    3.9080   15.0689   -0.3873 H   0  0  0  0  0  0  0  0  0  0  0  0
    3.8476   16.3445   -2.4340 H   0  0  0  0  0  0  0  0  0  0  0  0
    3.0537   14.9921   -3.3100 H   0  0  0  0  0  0  0  0  0  0  0  0
    2.3046   16.6247   -3.3100 H   0  0  0  0  0  0  0  0  0  0  0  0
  1  2  1  0
  2  3  1  0
  3  4  1  0
  4  5  1  0
  5  6  1  0
  6  7  1  0
  7  8  1  0
  7  9  1  0
  2 10  1  0
 10 11  1  0
 11 12  1  0
 12 13  1  0
 13 14  1  1
 13 15  1  0
 15 16  1  0
 16 17  1  0
 17 18  2  0
 18 19  1  0
 19 20  1  0
 20 21  1  0
 21 22  1  0
 22 23  1  0
 22 24  1  0
 24 25  1  0
 24 26  1  0
 19 27  1  0
 27 28  1  6
 27 29  1  0
 29 30  1  0
 30 31  1  0
 31 32  1  6
  7  5  1  0
 31 10  1  0
 31 13  1  0
 27 15  1  0
 24 18  1  0
  1 33  1  0
  1 34  1  0
  1 35  1  0
  2 36  1  6
  3 37  1  0
  3 38  1  0
  4 39  1  0
  4 40  1  0
  5 41  1  6
  8 42  1  0
  8 43  1  0
  8 44  1  0
  9 45  1  0
  9 46  1  0
  9 47  1  0
 10 48  1  1
 11 49  1  0
 11 50  1  0
 12 51  1  0
 12 52  1  0
 14 53  1  0
 14 54  1  0
 14 55  1  0
 15 56  1  6
 16 57  1  0
 16 58  1  0
 17 59  1  0
 19 60  1  1
 20 61  1  0
 20 62  1  0
 21 63  1  0
 21 64  1  0
 22 65  1  1
 23 66  1  0
 25 67  1  0
 25 68  1  0
 25 69  1  0
 26 70  1  0
 26 71  1  0
 26 72  1  0
 28 73  1  0
 28 74  1  0
 28 75  1  0
 29 76  1  0
 29 77  1  0
 30 78  1  0
 30 79  1  0
 32 80  1  0
 32 81  1  0
 32 82  1  0
M  END
>  <meeko>  (5) 
{"is_sidechain": [false], "intermolecular_energy": 2.731, "internal_energy": -0.839}

$$$$
EPH_relaxed_0001_pdb2pqr_Repair_403_r2_0001_out
     RDKit          3D

 82 86  0  0  0  0  0  0  0  0999 V2000
   -5.2060    5.7780   -1.6670 C   0  0  0  0  0  0  0  0  0  0  0  0
   -5.4720    7.2830   -1.7620 C   0  0  2  0  0  0  0  0  0  0  0  0
   -5.2280    8.0020   -0.4190 C   0  0  0  0  0  0  0  0  0  0  0  0
   -4.1960    9.1290   -0.5030 C   0  0  0  0  0  0  0  0  0  0  0  0
   -2.8270    8.6060   -0.8170 C   0  0  2  0  0  0  0  0  0  0  0  0
   -1.8280    8.9170    0.1630 O   0  0  0  0  0  0  0  0  0  0  0  0
   -1.6430    9.4990   -1.1370 C   0  0  0  0  0  0  0  0  0  0  0  0
   -1.7740   10.9900   -1.1600 C   0  0  0  0  0  0  0  0  0  0  0  0
   -0.4940    8.9170   -1.9000 C   0  0  0  0  0  0  0  0  0  0  0  0
   -6.9010    7.5290   -2.2320 C   0  0  1  0  0  0  0  0  0  0  0  0
   -7.2110    6.8380   -3.5870 C   0  0  0  0  0  0  0  0  0  0  0  0
   -8.6920    6.3860   -3.5290 C   0  0  0  0  0  0  0  0  0  0  0  0
   -9.2750    7.1150   -2.2960 C   0  0  1  0  0  0  0  0  0  0  0  0
   -9.6040    8.5550   -2.8000 C   0  0  0  0  0  0  0  0  0  0  0  0
  -10.5140    6.4440   -1.6180 C   0  0  2  0  0  0  0  0  0  0  0  0
  -11.7660    6.3360   -2.5070 C   0  0  0  0  0  0  0  0  0  0  0  0
  -12.7040    7.4950   -2.4310 C   0  0  0  0  0  0  0  0  0  0  0  0
  -12.6990    8.4440   -1.4760 C   0  0  0  0  0  0  0  0  0  0  0  0
  -11.7420    8.3540   -0.2810 C   0  0  1  0  0  0  0  0  0  0  0  0
  -12.5210    8.6440    1.0290 C   0  0  0  0  0  0  0  0  0  0  0  0
  -13.2710    9.9710    0.9820 C   0  0  0  0  0  0  0  0  0  0  0  0
  -14.2550    9.9990   -0.1850 C   0  0  2  0  0  0  0  0  0  0  0  0
  -15.2870    9.0390    0.0590 O   0  0  0  0  0  0  0  0  0  0  0  0
  -13.5860    9.7110   -1.5580 C   0  0  0  0  0  0  0  0  0  0  0  0
  -12.6890   10.9070   -1.9610 C   0  0  0  0  0  0  0  0  0  0  0  0
  -14.7080    9.6290   -2.6280 C   0  0  0  0  0  0  0  0  0  0  0  0
  -10.8680    7.0290   -0.1910 C   0  0  1  0  0  0  0  0  0  0  0  0
  -11.6620    5.9180    0.5610 C   0  0  0  0  0  0  0  0  0  0  0  0
   -9.5830    7.3190    0.6720 C   0  0  0  0  0  0  0  0  0  0  0  0
   -8.3530    7.8680   -0.0750 C   0  0  0  0  0  0  0  0  0  0  0  0
   -8.0470    7.0280   -1.3190 C   0  0  2  0  0  0  0  0  0  0  0  0
   -7.6910    5.5790   -0.8410 C   0  0  0  0  0  0  0  0  0  0  0  0
   -5.1535    5.4810   -0.6092 H   0  0  0  0  0  0  0  0  0  0  0  0
   -6.0211    5.2296   -2.1618 H   0  0  0  0  0  0  0  0  0  0  0  0
   -4.2523    5.5423   -2.1618 H   0  0  0  0  0  0  0  0  0  0  0  0
   -4.7629    7.6991   -2.4928 H   0  0  0  0  0  0  0  0  0  0  0  0
   -6.1817    8.4293   -0.0756 H   0  0  0  0  0  0  0  0  0  0  0  0
   -4.8285    7.2518    0.2793 H   0  0  0  0  0  0  0  0  0  0  0  0
   -4.4990    9.8314   -1.2934 H   0  0  0  0  0  0  0  0  0  0  0  0
   -4.1552    9.6297    0.4756 H   0  0  0  0  0  0  0  0  0  0  0  0
   -3.2534    7.7330   -1.3328 H   0  0  0  0  0  0  0  0  0  0  0  0
   -1.8075   11.3711   -0.1287 H   0  0  0  0  0  0  0  0  0  0  0  0
   -0.9107   11.4259   -1.6841 H   0  0  0  0  0  0  0  0  0  0  0  0
   -2.7001   11.2687   -1.6841 H   0  0  0  0  0  0  0  0  0  0  0  0
    0.2590    8.5356   -1.1946 H   0  0  0  0  0  0  0  0  0  0  0  0
   -0.8542    8.0927   -2.5330 H   0  0  0  0  0  0  0  0  0  0  0  0
   -0.0425    9.6951   -2.5330 H   0  0  0  0  0  0  0  0  0  0  0  0
   -6.8983    8.6286   -2.2616 H   0  0  0  0  0  0  0  0  0  0  0  0
   -7.0630    7.5458   -4.4159 H   0  0  0  0  0  0  0  0  0  0  0  0
   -6.5425    5.9809   -3.7556 H   0  0  0  0  0  0  0  0  0  0  0  0
   -9.2249    6.6839   -4.4440 H   0  0  0  0  0  0  0  0  0  0  0  0
   -8.7917    5.2932   -3.4529 H   0  0  0  0  0  0  0  0  0  0  0  0
   -9.7559    9.2198   -1.9369 H   0  0  0  0  0  0  0  0  0  0  0  0
   -8.7684    8.9301   -3.4092 H   0  0  0  0  0  0  0  0  0  0  0  0
  -10.5196    8.5300   -3.4092 H   0  0  0  0  0  0  0  0  0  0  0  0
  -10.1673    5.4116   -1.4631 H   0  0  0  0  0  0  0  0  0  0  0  0
  -11.4340    6.2353   -3.5509 H   0  0  0  0  0  0  0  0  0  0  0  0
  -12.3275    5.4653   -2.1373 H   0  0  0  0  0  0  0  0  0  0  0  0
  -13.4634    7.5808   -3.2222 H   0  0  0  0  0  0  0  0  0  0  0  0
  -10.9801    9.1310   -0.4420 H   0  0  0  0  0  0  0  0  0  0  0  0
  -13.2470    7.8343    1.1941 H   0  0  0  0  0  0  0  0  0  0  0  0
  -11.7880    8.7036    1.8470 H   0  0  0  0  0  0  0  0  0  0  0  0
  -13.8244   10.1056    1.9231 H   0  0  0  0  0  0  0  0  0  0  0  0
  -12.5412   10.7828    0.8462 H   0  0  0  0  0  0  0  0  0  0  0  0
  -14.6665   11.0174   -0.2450 H   0  0  0  0  0  0  0  0  0  0  0  0
  -16.0870    9.5260    0.3200 H   0  0  0  0  0  0  0  0  0  0  0  0
  -12.3146   11.4062   -1.0551 H   0  0  0  0  0  0  0  0  0  0  0  0
  -11.8390   10.5434   -2.5571 H   0  0  0  0  0  0  0  0  0  0  0  0
  -13.2761   11.6211   -2.5571 H   0  0  0  0  0  0  0  0  0  0  0  0
  -15.6858    9.5575   -2.1292 H   0  0  0  0  0  0  0  0  0  0  0  0
  -14.6820   10.5314   -3.2564 H   0  0  0  0  0  0  0  0  0  0  0  0
  -14.5511    8.7399   -3.2564 H   0  0  0  0  0  0  0  0  0  0  0  0
  -11.5579    6.0637    1.6463 H   0  0  0  0  0  0  0  0  0  0  0  0
  -12.7249    5.9754    0.2836 H   0  0  0  0  0  0  0  0  0  0  0  0
  -11.2635    4.9310    0.2836 H   0  0  0  0  0  0  0  0  0  0  0  0
   -9.8590    8.0534    1.4431 H   0  0  0  0  0  0  0  0  0  0  0  0
   -9.2698    6.3384    1.0596 H   0  0  0  0  0  0  0  0  0  0  0  0
   -8.5516    8.9056   -0.3814 H   0  0  0  0  0  0  0  0  0  0  0  0
   -7.4851    7.8251    0.5994 H   0  0  0  0  0  0  0  0  0  0  0  0
   -7.6832    5.5472    0.2585 H   0  0  0  0  0  0  0  0  0  0  0  0
   -8.4421    4.8720   -1.2230 H   0  0  0  0  0  0  0  0  0  0  0  0
   -6.6977    5.3006   -1.2230 H   0  0  0  0  0  0  0  0  0  0  0  0
  1  2  1  0
  2  3  1  0
  3  4  1  0
  4  5  1  0
  5  6  1  0
  6  7  1  0
  7  8  1  0
  7  9  1  0
  2 10  1  0
 10 11  1  0
 11 12  1  0
 12 13  1  0
 13 14  1  6
 13 15  1  0
 15 16  1  0
 16 17  1  0
 17 18  2  0
 18 19  1  0
 19 20  1  0
 20 21  1  0
 21 22  1  0
 22 23  1  0
 22 24  1  0
 24 25  1  0
 24 26  1  0
 19 27  1  0
 27 28  1  1
 27 29  1  0
 29 30  1  0
 30 31  1  0
 31 32  1  1
  7  5  1  0
 31 10  1  0
 31 13  1  0
 27 15  1  0
 24 18  1  0
  1 33  1  0
  1 34  1  0
  1 35  1  0
  2 36  1  6
  3 37  1  0
  3 38  1  0
  4 39  1  0
  4 40  1  0
  5 41  1  6
  8 42  1  0
  8 43  1  0
  8 44  1  0
  9 45  1  0
  9 46  1  0
  9 47  1  0
 10 48  1  6
 11 49  1  0
 11 50  1  0
 12 51  1  0
 12 52  1  0
 14 53  1  0
 14 54  1  0
 14 55  1  0
 15 56  1  1
 16 57  1  0
 16 58  1  0
 17 59  1  0
 19 60  1  6
 20 61  1  0
 20 62  1  0
 21 63  1  0
 21 64  1  0
 22 65  1  6
 23 66  1  0
 25 67  1  0
 25 68  1  0
 25 69  1  0
 26 70  1  0
 26 71  1  0
 26 72  1  0
 28 73  1  0
 28 74  1  0
 28 75  1  0
 29 76  1  0
 29 77  1  0
 30 78  1  0
 30 79  1  0
 32 80  1  0
 32 81  1  0
 32 82  1  0
M  END
>  <meeko>  (6) 
{"is_sidechain": [false], "intermolecular_energy": 2.731, "internal_energy": -0.839}

$$$$
EPH_relaxed_0001_pdb2pqr_Repair_403_r2_0001_out
     RDKit          3D

 82 86  0  0  0  0  0  0  0  0999 V2000
    0.4120    8.8830   -2.5380 C   0  0  0  0  0  0  0  0  0  0  0  0
    1.1760   10.0400   -3.1880 C   0  0  2  0  0  0  0  0  0  0  0  0
    2.6690   10.0380   -2.8050 C   0  0  0  0  0  0  0  0  0  0  0  0
    3.5820   10.6320   -3.8810 C   0  0  0  0  0  0  0  0  0  0  0  0
    4.9670   10.8720   -3.3630 C   0  0  2  0  0  0  0  0  0  0  0  0
    5.5840   12.0760   -3.8380 O   0  0  0  0  0  0  0  0  0  0  0  0
    6.2050   10.8450   -4.2400 C   0  0  0  0  0  0  0  0  0  0  0  0
    6.1150   10.5690   -5.7080 C   0  0  0  0  0  0  0  0  0  0  0  0
    7.5340   10.6010   -3.5950 C   0  0  0  0  0  0  0  0  0  0  0  0
    0.5390   11.3680   -2.7960 C   0  0  1  0  0  0  0  0  0  0  0  0
   -0.8410   11.1890   -2.1100 C   0  0  0  0  0  0  0  0  0  0  0  0
   -0.9580   12.3070   -1.0420 C   0  0  0  0  0  0  0  0  0  0  0  0
    0.1960   13.2830   -1.3710 C   0  0  1  0  0  0  0  0  0  0  0  0
   -0.3460   14.1670   -2.5380 C   0  0  0  0  0  0  0  0  0  0  0  0
    0.7240   14.1540   -0.1850 C   0  0  2  0  0  0  0  0  0  0  0  0
   -0.3070   15.1210    0.4230 C   0  0  0  0  0  0  0  0  0  0  0  0
   -0.3440   16.4820   -0.1900 C   0  0  0  0  0  0  0  0  0  0  0  0
    0.6030   17.0040   -0.9910 C   0  0  0  0  0  0  0  0  0  0  0  0
    1.9030   16.2420   -1.2760 C   0  0  1  0  0  0  0  0  0  0  0  0
    3.1120   17.2020   -1.1200 C   0  0  0  0  0  0  0  0  0  0  0  0
    2.9740   18.4590   -1.9750 C   0  0  0  0  0  0  0  0  0  0  0  0
    1.6980   19.2200   -1.6220 C   0  0  2  0  0  0  0  0  0  0  0  0
    1.8200   19.7320   -0.2910 O   0  0  0  0  0  0  0  0  0  0  0  0
    0.4150   18.3510   -1.7330 C   0  0  0  0  0  0  0  0  0  0  0  0
    0.1180   18.0480   -3.2220 C   0  0  0  0  0  0  0  0  0  0  0  0
   -0.7800   19.1960   -1.2150 C   0  0  0  0  0  0  0  0  0  0  0  0
    2.0980   14.8820   -0.4770 C   0  0  1  0  0  0  0  0  0  0  0  0
    2.7530   15.1680    0.9090 C   0  0  0  0  0  0  0  0  0  0  0  0
    3.1060   13.9630   -1.2630 C   0  0  0  0  0  0  0  0  0  0  0  0
    2.5090   13.0380   -2.3410 C   0  0  0  0  0  0  0  0  0  0  0  0
    1.3110   12.2570   -1.7900 C   0  0  2  0  0  0  0  0  0  0  0  0
    1.8300   11.3430   -0.6290 C   0  0  0  0  0  0  0  0  0  0  0  0
    0.4716    8.9733   -1.4433 H   0  0  0  0  0  0  0  0  0  0  0  0
   -0.6417    8.9172   -2.8519 H   0  0  0  0  0  0  0  0  0  0  0  0
    0.8573    7.9274   -2.8519 H   0  0  0  0  0  0  0  0  0  0  0  0
    1.1153    9.9059   -4.2781 H   0  0  0  0  0  0  0  0  0  0  0  0
    2.7916   10.6251   -1.8829 H   0  0  0  0  0  0  0  0  0  0  0  0
    2.9661    8.9867   -2.6763 H   0  0  0  0  0  0  0  0  0  0  0  0
    3.6348    9.9333   -4.7289 H   0  0  0  0  0  0  0  0  0  0  0  0
    3.1604   11.5991   -4.1922 H   0  0  0  0  0  0  0  0  0  0  0  0
    4.7238   10.3717   -2.4140 H   0  0  0  0  0  0  0  0  0  0  0  0
    5.7775    9.5341   -5.8665 H   0  0  0  0  0  0  0  0  0  0  0  0
    5.3968   11.2634   -6.1683 H   0  0  0  0  0  0  0  0  0  0  0  0
    7.1045   10.7066   -6.1683 H   0  0  0  0  0  0  0  0  0  0  0  0
    7.4200   10.6219   -2.5011 H   0  0  0  0  0  0  0  0  0  0  0  0
    7.9170    9.6175   -3.9050 H   0  0  0  0  0  0  0  0  0  0  0  0
    8.2414   11.3843   -3.9050 H   0  0  0  0  0  0  0  0  0  0  0  0
    0.5072   11.8553   -3.7816 H   0  0  0  0  0  0  0  0  0  0  0  0
   -1.6480   11.2871   -2.8511 H   0  0  0  0  0  0  0  0  0  0  0  0
   -0.9275   10.1933   -1.6506 H   0  0  0  0  0  0  0  0  0  0  0  0
   -1.9303   12.8158   -1.1173 H   0  0  0  0  0  0  0  0  0  0  0  0
   -0.8920   11.9133   -0.0170 H   0  0  0  0  0  0  0  0  0  0  0  0
   -0.8785   15.0356   -2.1232 H   0  0  0  0  0  0  0  0  0  0  0  0
    0.4950   14.5136   -3.1565 H   0  0  0  0  0  0  0  0  0  0  0  0
   -1.0364   13.5747   -3.1565 H   0  0  0  0  0  0  0  0  0  0  0  0
    0.9215   13.4007    0.5919 H   0  0  0  0  0  0  0  0  0  0  0  0
   -1.3039   14.6701    0.3098 H   0  0  0  0  0  0  0  0  0  0  0  0
   -0.0059   15.2673    1.4708 H   0  0  0  0  0  0  0  0  0  0  0  0
   -1.2189   17.1108    0.0318 H   0  0  0  0  0  0  0  0  0  0  0  0
    1.8314   15.8986   -2.3186 H   0  0  0  0  0  0  0  0  0  0  0  0
    3.1917   17.5004   -0.0642 H   0  0  0  0  0  0  0  0  0  0  0  0
    4.0109   16.6652   -1.4573 H   0  0  0  0  0  0  0  0  0  0  0  0
    3.8425   19.1110   -1.7998 H   0  0  0  0  0  0  0  0  0  0  0  0
    2.9247   18.1612   -3.0328 H   0  0  0  0  0  0  0  0  0  0  0  0
    1.5874   20.0350   -2.3524 H   0  0  0  0  0  0  0  0  0  0  0  0
    2.5360   20.3890   -0.2930 H   0  0  0  0  0  0  0  0  0  0  0  0
   -0.6505   17.2640   -3.2904 H   0  0  0  0  0  0  0  0  0  0  0  0
   -0.2447   18.9611   -3.7167 H   0  0  0  0  0  0  0  0  0  0  0  0
    1.0382   17.7037   -3.7167 H   0  0  0  0  0  0  0  0  0  0  0  0
   -0.7797   19.1958   -0.1150 H   0  0  0  0  0  0  0  0  0  0  0  0
   -0.6849   20.2288   -1.5815 H   0  0  0  0  0  0  0  0  0  0  0  0
   -1.7220   18.7621   -1.5815 H   0  0  0  0  0  0  0  0  0  0  0  0
    2.0623   14.8664    1.7102 H   0  0  0  0  0  0  0  0  0  0  0  0
    3.6888   14.5966    0.9972 H   0  0  0  0  0  0  0  0  0  0  0  0
    2.9700   16.2428    0.9972 H   0  0  0  0  0  0  0  0  0  0  0  0
    3.8387   14.6187   -1.7561 H   0  0  0  0  0  0  0  0  0  0  0  0
    3.5283   13.2863   -0.5056 H   0  0  0  0  0  0  0  0  0  0  0  0
    2.1794   13.6470   -3.1957 H   0  0  0  0  0  0  0  0  0  0  0  0
    3.2814   12.3206   -2.6551 H   0  0  0  0  0  0  0  0  0  0  0  0
    1.5719   11.7976    0.3389 H   0  0  0  0  0  0  0  0  0  0  0  0
    1.3603   10.3512   -0.7052 H   0  0  0  0  0  0  0  0  0  0  0  0
    2.9223   11.2382   -0.7052 H   0  0  0  0  0  0  0  0  0  0  0  0
  1  2  1  0
  2  3  1  0
  3  4  1  0
  4  5  1  0
  5  6  1  0
  6  7  1  0
  7  8  1  0
  7  9  1  0
  2 10  1  0
 10 11  1  0
 11 12  1  0
 12 13  1  0
 13 14  1  6
 13 15  1  0
 15 16  1  0
 16 17  1  0
 17 18  2  0
 18 19  1  0
 19 20  1  0
 20 21  1  0
 21 22  1  0
 22 23  1  0
 22 24  1  0
 24 25  1  0
 24 26  1  0
 19 27  1  0
 27 28  1  1
 27 29  1  0
 29 30  1  0
 30 31  1  0
 31 32  1  1
  7  5  1  0
 31 10  1  0
 31 13  1  0
 27 15  1  0
 24 18  1  0
  1 33  1  0
  1 34  1  0
  1 35  1  0
  2 36  1  6
  3 37  1  0
  3 38  1  0
  4 39  1  0
  4 40  1  0
  5 41  1  1
  8 42  1  0
  8 43  1  0
  8 44  1  0
  9 45  1  0
  9 46  1  0
  9 47  1  0
 10 48  1  6
 11 49  1  0
 11 50  1  0
 12 51  1  0
 12 52  1  0
 14 53  1  0
 14 54  1  0
 14 55  1  0
 15 56  1  1
 16 57  1  0
 16 58  1  0
 17 59  1  0
 19 60  1  6
 20 61  1  0
 20 62  1  0
 21 63  1  0
 21 64  1  0
 22 65  1  6
 23 66  1  0
 25 67  1  0
 25 68  1  0
 25 69  1  0
 26 70  1  0
 26 71  1  0
 26 72  1  0
 28 73  1  0
 28 74  1  0
 28 75  1  0
 29 76  1  0
 29 77  1  0
 30 78  1  0
 30 79  1  0
 32 80  1  0
 32 81  1  0
 32 82  1  0
M  END
>  <meeko>  (7) 
{"is_sidechain": [false], "intermolecular_energy": 2.731, "internal_energy": -0.839}

$$$$
EPH_relaxed_0001_pdb2pqr_Repair_403_r2_0001_out
     RDKit          3D

 82 86  0  0  0  0  0  0  0  0999 V2000
   -3.6570    7.1760   -3.4350 C   0  0  0  0  0  0  0  0  0  0  0  0
   -3.6700    7.2520   -1.9050 C   0  0  2  0  0  0  0  0  0  0  0  0
   -5.0770    7.0050   -1.3240 C   0  0  0  0  0  0  0  0  0  0  0  0
   -6.2000    7.1320   -2.3560 C   0  0  0  0  0  0  0  0  0  0  0  0
   -7.5240    7.3980   -1.7050 C   0  0  2  0  0  0  0  0  0  0  0  0
   -8.1610    6.2400   -1.1490 O   0  0  0  0  0  0  0  0  0  0  0  0
   -8.8420    6.8730   -2.2450 C   0  0  0  0  0  0  0  0  0  0  0  0
   -8.9010    6.0420   -3.4870 C   0  0  0  0  0  0  0  0  0  0  0  0
  -10.1050    7.5700   -1.8460 C   0  0  0  0  0  0  0  0  0  0  0  0
   -3.1480    8.6090   -1.4480 C   0  0  1  0  0  0  0  0  0  0  0  0
   -3.8390    9.1080   -0.1510 C   0  0  0  0  0  0  0  0  0  0  0  0
   -2.7660    9.8800    0.6590 C   0  0  0  0  0  0  0  0  0  0  0  0
   -1.5990   10.0850   -0.3360 C   0  0  1  0  0  0  0  0  0  0  0  0
   -2.0170   11.3180   -1.1970 C   0  0  0  0  0  0  0  0  0  0  0  0
   -0.1800   10.2740    0.2930 C   0  0  2  0  0  0  0  0  0  0  0  0
   -0.0220   11.5200    1.1830 C   0  0  0  0  0  0  0  0  0  0  0  0
    0.4340   12.7540    0.4770 C   0  0  0  0  0  0  0  0  0  0  0  0
    0.9780   12.7950   -0.7530 C   0  0  0  0  0  0  0  0  0  0  0  0
    1.2720   11.5050   -1.5290 C   0  0  1  0  0  0  0  0  0  0  0  0
    2.6980   11.5770   -2.1330 C   0  0  0  0  0  0  0  0  0  0  0  0
    2.9120   12.8280   -2.9800 C   0  0  0  0  0  0  0  0  0  0  0  0
    2.6670   14.0910   -2.1580 C   0  0  2  0  0  0  0  0  0  0  0  0
    3.6800   14.1900   -1.1520 O   0  0  0  0  0  0  0  0  0  0  0  0
    1.2640   14.1260   -1.4920 C   0  0  0  0  0  0  0  0  0  0  0  0
    0.1770   14.3230   -2.5780 C   0  0  0  0  0  0  0  0  0  0  0  0
    1.1990   15.3810   -0.5810 C   0  0  0  0  0  0  0  0  0  0  0  0
    1.0100   10.1490   -0.7420 C   0  0  1  0  0  0  0  0  0  0  0  0
    2.2760    9.7580    0.0800 C   0  0  0  0  0  0  0  0  0  0  0  0
    0.7790    8.9880   -1.7810 C   0  0  0  0  0  0  0  0  0  0  0  0
   -0.6650    8.7740   -2.2740 C   0  0  0  0  0  0  0  0  0  0  0  0
   -1.6420    8.7100   -1.0970 C   0  0  2  0  0  0  0  0  0  0  0  0
   -1.2600    7.4650   -0.2250 C   0  0  0  0  0  0  0  0  0  0  0  0
   -3.4793    6.1369   -3.7490 H   0  0  0  0  0  0  0  0  0  0  0  0
   -4.6265    7.5169   -3.8273 H   0  0  0  0  0  0  0  0  0  0  0  0
   -2.8559    7.8197   -3.8273 H   0  0  0  0  0  0  0  0  0  0  0  0
   -3.0125    6.4549   -1.5277 H   0  0  0  0  0  0  0  0  0  0  0  0
   -5.1054    5.9891   -0.9031 H   0  0  0  0  0  0  0  0  0  0  0  0
   -5.2509    7.7798   -0.5628 H   0  0  0  0  0  0  0  0  0  0  0  0
   -5.9650    7.9623   -3.0382 H   0  0  0  0  0  0  0  0  0  0  0  0
   -6.2720    6.1805   -2.9032 H   0  0  0  0  0  0  0  0  0  0  0  0
   -7.1994    8.4041   -1.4010 H   0  0  0  0  0  0  0  0  0  0  0  0
   -8.9765    4.9791   -3.2138 H   0  0  0  0  0  0  0  0  0  0  0  0
   -9.7809    6.3314   -4.0804 H   0  0  0  0  0  0  0  0  0  0  0  0
   -7.9891    6.2042   -4.0804 H   0  0  0  0  0  0  0  0  0  0  0  0
  -10.1723    7.6072   -0.7487 H   0  0  0  0  0  0  0  0  0  0  0  0
  -10.1015    8.5939   -2.2480 H   0  0  0  0  0  0  0  0  0  0  0  0
  -10.9694    7.0212   -2.2480 H   0  0  0  0  0  0  0  0  0  0  0  0
   -3.3653    9.2034   -2.3477 H   0  0  0  0  0  0  0  0  0  0  0  0
   -4.6773    9.7749   -0.4010 H   0  0  0  0  0  0  0  0  0  0  0  0
   -4.2427    8.2660    0.4304 H   0  0  0  0  0  0  0  0  0  0  0  0
   -3.1597   10.8486    1.0007 H   0  0  0  0  0  0  0  0  0  0  0  0
   -2.4534    9.3357    1.5624 H   0  0  0  0  0  0  0  0  0  0  0  0
   -2.2989   12.1494   -0.5342 H   0  0  0  0  0  0  0  0  0  0  0  0
   -1.1728   11.6251   -1.8318 H   0  0  0  0  0  0  0  0  0  0  0  0
   -2.8740   11.0484   -1.8318 H   0  0  0  0  0  0  0  0  0  0  0  0
   -0.1054    9.4106    0.9705 H   0  0  0  0  0  0  0  0  0  0  0  0
   -0.9971   11.7335    1.6452 H   0  0  0  0  0  0  0  0  0  0  0  0
    0.7664   11.2765    1.9105 H   0  0  0  0  0  0  0  0  0  0  0  0
    0.3152   13.7105    1.0072 H   0  0  0  0  0  0  0  0  0  0  0  0
    0.5273   11.4595   -2.3373 H   0  0  0  0  0  0  0  0  0  0  0  0
    3.4294   11.5781   -1.3113 H   0  0  0  0  0  0  0  0  0  0  0  0
    2.8274   10.7035   -2.7889 H   0  0  0  0  0  0  0  0  0  0  0  0
    3.9463   12.8369   -3.3543 H   0  0  0  0  0  0  0  0  0  0  0  0
    2.2001   12.8108   -3.8184 H   0  0  0  0  0  0  0  0  0  0  0  0
    2.7075   14.9466   -2.8481 H   0  0  0  0  0  0  0  0  0  0  0  0
    4.5350   14.0060   -1.5760 H   0  0  0  0  0  0  0  0  0  0  0  0
   -0.7957   14.4993   -2.0955 H   0  0  0  0  0  0  0  0  0  0  0  0
    0.4376   15.1886   -3.2048 H   0  0  0  0  0  0  0  0  0  0  0  0
    0.1172   13.4211   -3.2048 H   0  0  0  0  0  0  0  0  0  0  0  0
    1.2151   15.0696    0.4739 H   0  0  0  0  0  0  0  0  0  0  0  0
    2.0648   16.0279   -0.7856 H   0  0  0  0  0  0  0  0  0  0  0  0
    0.2710   15.9350   -0.7856 H   0  0  0  0  0  0  0  0  0  0  0  0
    2.0513    9.8274    1.1546 H   0  0  0  0  0  0  0  0  0  0  0  0
    2.5699    8.7272   -0.1673 H   0  0  0  0  0  0  0  0  0  0  0  0
    3.0999   10.4435   -0.1673 H   0  0  0  0  0  0  0  0  0  0  0  0
    1.4032    9.2003   -2.6615 H   0  0  0  0  0  0  0  0  0  0  0  0
    1.0394    8.0644   -1.2432 H   0  0  0  0  0  0  0  0  0  0  0  0
   -0.9482    9.6090   -2.9317 H   0  0  0  0  0  0  0  0  0  0  0  0
   -0.7114    7.8205   -2.8206 H   0  0  0  0  0  0  0  0  0  0  0  0
   -1.3399    7.7254    0.8408 H   0  0  0  0  0  0  0  0  0  0  0  0
   -1.9446    6.6345   -0.4519 H   0  0  0  0  0  0  0  0  0  0  0  0
   -0.2274    7.1614   -0.4519 H   0  0  0  0  0  0  0  0  0  0  0  0
  1  2  1  0
  2  3  1  0
  3  4  1  0
  4  5  1  0
  5  6  1  0
  6  7  1  0
  7  8  1  0
  7  9  1  0
  2 10  1  0
 10 11  1  0
 11 12  1  0
 12 13  1  0
 13 14  1  6
 13 15  1  0
 15 16  1  0
 16 17  1  0
 17 18  2  0
 18 19  1  0
 19 20  1  0
 20 21  1  0
 21 22  1  0
 22 23  1  0
 22 24  1  0
 24 25  1  0
 24 26  1  0
 19 27  1  0
 27 28  1  1
 27 29  1  0
 29 30  1  0
 30 31  1  0
 31 32  1  1
  7  5  1  0
 31 10  1  0
 31 13  1  0
 27 15  1  0
 24 18  1  0
  1 33  1  0
  1 34  1  0
  1 35  1  0
  2 36  1  1
  3 37  1  0
  3 38  1  0
  4 39  1  0
  4 40  1  0
  5 41  1  1
  8 42  1  0
  8 43  1  0
  8 44  1  0
  9 45  1  0
  9 46  1  0
  9 47  1  0
 10 48  1  6
 11 49  1  0
 11 50  1  0
 12 51  1  0
 12 52  1  0
 14 53  1  0
 14 54  1  0
 14 55  1  0
 15 56  1  1
 16 57  1  0
 16 58  1  0
 17 59  1  0
 19 60  1  6
 20 61  1  0
 20 62  1  0
 21 63  1  0
 21 64  1  0
 22 65  1  6
 23 66  1  0
 25 67  1  0
 25 68  1  0
 25 69  1  0
 26 70  1  0
 26 71  1  0
 26 72  1  0
 28 73  1  0
 28 74  1  0
 28 75  1  0
 29 76  1  0
 29 77  1  0
 30 78  1  0
 30 79  1  0
 32 80  1  0
 32 81  1  0
 32 82  1  0
M  END
>  <meeko>  (8) 
{"is_sidechain": [false], "intermolecular_energy": 2.731, "internal_energy": -0.839}

$$$$
EPH_relaxed_0001_pdb2pqr_Repair_403_r2_0001_out
     RDKit          3D

 82 86  0  0  0  0  0  0  0  0999 V2000
   -1.2210   16.3860   -5.8080 C   0  0  0  0  0  0  0  0  0  0  0  0
   -0.0200   15.6720   -6.4360 C   0  0  2  0  0  0  0  0  0  0  0  0
   -0.2750   15.2900   -7.9070 C   0  0  0  0  0  0  0  0  0  0  0  0
    0.2800   16.3030   -8.9120 C   0  0  0  0  0  0  0  0  0  0  0  0
    1.7070   16.0100   -9.2640 C   0  0  2  0  0  0  0  0  0  0  0  0
    2.1950   16.7070  -10.4170 O   0  0  0  0  0  0  0  0  0  0  0  0
    2.1230   15.2770  -10.5260 C   0  0  0  0  0  0  0  0  0  0  0  0
    1.1120   14.7910  -11.5160 C   0  0  0  0  0  0  0  0  0  0  0  0
    3.4620   14.6070  -10.5550 C   0  0  0  0  0  0  0  0  0  0  0  0
    0.3250   14.4270   -5.6270 C   0  0  1  0  0  0  0  0  0  0  0  0
    1.3440   13.5070   -6.3520 C   0  0  0  0  0  0  0  0  0  0  0  0
    2.2410   12.8810   -5.2540 C   0  0  0  0  0  0  0  0  0  0  0  0
    1.5100   13.1930   -3.9270 C   0  0  1  0  0  0  0  0  0  0  0  0
    0.3980   12.1040   -3.8160 C   0  0  0  0  0  0  0  0  0  0  0  0
    2.4000   13.2420   -2.6430 C   0  0  2  0  0  0  0  0  0  0  0  0
    3.0990   11.9200   -2.2820 C   0  0  0  0  0  0  0  0  0  0  0  0
    2.3290   11.0190   -1.3740 C   0  0  0  0  0  0  0  0  0  0  0  0
    1.2580   11.3760   -0.6420 C   0  0  0  0  0  0  0  0  0  0  0  0
    0.7760   12.8320   -0.6090 C   0  0  1  0  0  0  0  0  0  0  0  0
    0.4980   13.2530    0.8580 C   0  0  0  0  0  0  0  0  0  0  0  0
   -0.4630   12.3040    1.5670 C   0  0  0  0  0  0  0  0  0  0  0  0
    0.0780   10.8770    1.5640 C   0  0  2  0  0  0  0  0  0  0  0  0
    1.2550   10.8290    2.3770 O   0  0  0  0  0  0  0  0  0  0  0  0
    0.4030   10.3470    0.1400 C   0  0  0  0  0  0  0  0  0  0  0  0
   -0.9130   10.1140   -0.6420 C   0  0  0  0  0  0  0  0  0  0  0  0
    1.0720    8.9540    0.2900 C   0  0  0  0  0  0  0  0  0  0  0  0
    1.6850   13.8810   -1.3830 C   0  0  1  0  0  0  0  0  0  0  0  0
    2.8180   14.3980   -0.4440 C   0  0  0  0  0  0  0  0  0  0  0  0
    0.8140   15.1360   -1.7620 C   0  0  0  0  0  0  0  0  0  0  0  0
    0.0530   15.0750   -3.1000 C   0  0  0  0  0  0  0  0  0  0  0  0
    0.9810   14.6400   -4.2390 C   0  0  2  0  0  0  0  0  0  0  0  0
    2.0970   15.7290   -4.3890 C   0  0  0  0  0  0  0  0  0  0  0  0
   -1.1430   16.3396   -4.7117 H   0  0  0  0  0  0  0  0  0  0  0  0
   -1.2322   17.4376   -6.1306 H   0  0  0  0  0  0  0  0  0  0  0  0
   -2.1502   15.8935   -6.1306 H   0  0  0  0  0  0  0  0  0  0  0  0
    0.8273   16.3733   -6.4198 H   0  0  0  0  0  0  0  0  0  0  0  0
    0.1976   14.3155   -8.0995 H   0  0  0  0  0  0  0  0  0  0  0  0
   -1.3657   15.2631   -8.0473 H   0  0  0  0  0  0  0  0  0  0  0  0
   -0.3279   16.2660   -9.8280 H   0  0  0  0  0  0  0  0  0  0  0  0
    0.2385   17.3010   -8.4513 H   0  0  0  0  0  0  0  0  0  0  0  0
    1.9621   15.8596   -8.2046 H   0  0  0  0  0  0  0  0  0  0  0  0
    0.2457   14.3746  -10.9810 H   0  0  0  0  0  0  0  0  0  0  0  0
    0.7844   15.6300  -12.1474 H   0  0  0  0  0  0  0  0  0  0  0  0
    1.5626   14.0111  -12.1474 H   0  0  0  0  0  0  0  0  0  0  0  0
    3.8078   14.4340   -9.5252 H   0  0  0  0  0  0  0  0  0  0  0  0
    3.3790   13.6442  -11.0805 H   0  0  0  0  0  0  0  0  0  0  0  0
    4.1828   15.2507  -11.0805 H   0  0  0  0  0  0  0  0  0  0  0  0
   -0.6817   14.0004   -5.5064 H   0  0  0  0  0  0  0  0  0  0  0  0
    0.8146   12.7169   -6.9047 H   0  0  0  0  0  0  0  0  0  0  0  0
    1.9452   14.0767   -7.0759 H   0  0  0  0  0  0  0  0  0  0  0  0
    2.3329   11.7947   -5.4005 H   0  0  0  0  0  0  0  0  0  0  0  0
    3.2641   13.2848   -5.2712 H   0  0  0  0  0  0  0  0  0  0  0  0
    0.1894   11.8997   -2.7555 H   0  0  0  0  0  0  0  0  0  0  0  0
   -0.5181   12.4640   -4.3071 H   0  0  0  0  0  0  0  0  0  0  0  0
    0.7388   11.1806   -4.3071 H   0  0  0  0  0  0  0  0  0  0  0  0
    3.2033   13.9326   -2.9392 H   0  0  0  0  0  0  0  0  0  0  0  0
    3.2961   11.3735   -3.2161 H   0  0  0  0  0  0  0  0  0  0  0  0
    4.0111   12.1978   -1.7334 H   0  0  0  0  0  0  0  0  0  0  0  0
    2.6659    9.9747   -1.2969 H   0  0  0  0  0  0  0  0  0  0  0  0
   -0.1594   12.8554   -1.1874 H   0  0  0  0  0  0  0  0  0  0  0  0
    1.4507   13.2657    1.4077 H   0  0  0  0  0  0  0  0  0  0  0  0
    0.0295   14.2480    0.8367 H   0  0  0  0  0  0  0  0  0  0  0  0
   -0.5954   12.6366    2.6071 H   0  0  0  0  0  0  0  0  0  0  0  0
   -1.4251   12.3158    1.0339 H   0  0  0  0  0  0  0  0  0  0  0  0
   -0.7103   10.2244    1.9674 H   0  0  0  0  0  0  0  0  0  0  0  0
    1.5410   11.7450    2.5340 H   0  0  0  0  0  0  0  0  0  0  0  0
   -1.7404    9.9675    0.0679 H   0  0  0  0  0  0  0  0  0  0  0  0
   -1.1233   10.9889   -1.2747 H   0  0  0  0  0  0  0  0  0  0  0  0
   -0.8102    9.2201   -1.2747 H   0  0  0  0  0  0  0  0  0  0  0  0
    1.1866    8.7153    1.3577 H   0  0  0  0  0  0  0  0  0  0  0  0
    0.4421    8.1910   -0.1907 H   0  0  0  0  0  0  0  0  0  0  0  0
    2.0613    8.9687   -0.1907 H   0  0  0  0  0  0  0  0  0  0  0  0
    2.5163   14.2603    0.6048 H   0  0  0  0  0  0  0  0  0  0  0  0
    3.7412   13.8320   -0.6373 H   0  0  0  0  0  0  0  0  0  0  0  0
    2.9955   15.4662   -0.6373 H   0  0  0  0  0  0  0  0  0  0  0  0
    0.0715   15.2793   -0.9631 H   0  0  0  0  0  0  0  0  0  0  0  0
    1.5326   15.9609   -1.8770 H   0  0  0  0  0  0  0  0  0  0  0  0
   -0.7720   14.3528   -3.0122 H   0  0  0  0  0  0  0  0  0  0  0  0
   -0.3363   16.0782   -3.3283 H   0  0  0  0  0  0  0  0  0  0  0  0
    2.4293   16.0533   -3.3918 H   0  0  0  0  0  0  0  0  0  0  0  0
    2.9499   15.3064   -4.9403 H   0  0  0  0  0  0  0  0  0  0  0  0
    1.6954   16.5920   -4.9403 H   0  0  0  0  0  0  0  0  0  0  0  0
  1  2  1  0
  2  3  1  0
  3  4  1  0
  4  5  1  0
  5  6  1  0
  6  7  1  0
  7  8  1  0
  7  9  1  0
  2 10  1  0
 10 11  1  0
 11 12  1  0
 12 13  1  0
 13 14  1  1
 13 15  1  0
 15 16  1  0
 16 17  1  0
 17 18  2  0
 18 19  1  0
 19 20  1  0
 20 21  1  0
 21 22  1  0
 22 23  1  0
 22 24  1  0
 24 25  1  0
 24 26  1  0
 19 27  1  0
 27 28  1  1
 27 29  1  0
 29 30  1  0
 30 31  1  0
 31 32  1  6
  7  5  1  0
 31 10  1  0
 31 13  1  0
 27 15  1  0
 24 18  1  0
  1 33  1  0
  1 34  1  0
  1 35  1  0
  2 36  1  6
  3 37  1  0
  3 38  1  0
  4 39  1  0
  4 40  1  0
  5 41  1  1
  8 42  1  0
  8 43  1  0
  8 44  1  0
  9 45  1  0
  9 46  1  0
  9 47  1  0
 10 48  1  1
 11 49  1  0
 11 50  1  0
 12 51  1  0
 12 52  1  0
 14 53  1  0
 14 54  1  0
 14 55  1  0
 15 56  1  6
 16 57  1  0
 16 58  1  0
 17 59  1  0
 19 60  1  6
 20 61  1  0
 20 62  1  0
 21 63  1  0
 21 64  1  0
 22 65  1  1
 23 66  1  0
 25 67  1  0
 25 68  1  0
 25 69  1  0
 26 70  1  0
 26 71  1  0
 26 72  1  0
 28 73  1  0
 28 74  1  0
 28 75  1  0
 29 76  1  0
 29 77  1  0
 30 78  1  0
 30 79  1  0
 32 80  1  0
 32 81  1  0
 32 82  1  0
M  END
>  <meeko>  (9) 
{"is_sidechain": [false], "intermolecular_energy": 2.731, "internal_energy": -0.839}

$$$$
EPH_relaxed_0001_pdb2pqr_Repair_403_r2_0001_out
     RDKit          3D

 82 86  0  0  0  0  0  0  0  0999 V2000
   -0.2950   15.0970   -7.6160 C   0  0  0  0  0  0  0  0  0  0  0  0
    1.0820   15.0700   -6.9460 C   0  0  2  0  0  0  0  0  0  0  0  0
    2.2290   15.1570   -7.9720 C   0  0  0  0  0  0  0  0  0  0  0  0
    2.2600   16.4740   -8.7520 C   0  0  0  0  0  0  0  0  0  0  0  0
    1.8630   16.2790  -10.1840 C   0  0  2  0  0  0  0  0  0  0  0  0
    1.2060   15.0350  -10.4590 O   0  0  0  0  0  0  0  0  0  0  0  0
    2.4830   15.2310  -11.0890 C   0  0  0  0  0  0  0  0  0  0  0  0
    3.5530   14.3080  -10.5950 C   0  0  0  0  0  0  0  0  0  0  0  0
    2.4010   15.4260  -12.5710 C   0  0  0  0  0  0  0  0  0  0  0  0
    1.2270   13.8060   -6.1070 C   0  0  1  0  0  0  0  0  0  0  0  0
    2.6580   13.2090   -6.1680 C   0  0  0  0  0  0  0  0  0  0  0  0
    2.9510   12.6050   -4.7710 C   0  0  0  0  0  0  0  0  0  0  0  0
    1.5760   12.5750   -4.0630 C   0  0  1  0  0  0  0  0  0  0  0  0
    0.8720   11.2940   -4.6080 C   0  0  0  0  0  0  0  0  0  0  0  0
    1.6030   12.5980   -2.5000 C   0  0  2  0  0  0  0  0  0  0  0  0
    2.2930   11.3900   -1.8410 C   0  0  0  0  0  0  0  0  0  0  0  0
    1.3970   10.2370   -1.5290 C   0  0  0  0  0  0  0  0  0  0  0  0
    0.0520   10.2760   -1.5040 C   0  0  0  0  0  0  0  0  0  0  0  0
   -0.7020   11.5960   -1.7110 C   0  0  1  0  0  0  0  0  0  0  0  0
   -1.8090   11.7350   -0.6340 C   0  0  0  0  0  0  0  0  0  0  0  0
   -2.7430   10.5300   -0.5950 C   0  0  0  0  0  0  0  0  0  0  0  0
   -1.9630    9.2440   -0.3280 C   0  0  2  0  0  0  0  0  0  0  0  0
   -1.4280    9.2970    0.9980 O   0  0  0  0  0  0  0  0  0  0  0  0
   -0.8140    9.0020   -1.3460 C   0  0  0  0  0  0  0  0  0  0  0  0
   -1.4120    8.6470   -2.7300 C   0  0  0  0  0  0  0  0  0  0  0  0
   -0.0210    7.7510   -0.8820 C   0  0  0  0  0  0  0  0  0  0  0  0
    0.2010   12.8980   -1.8310 C   0  0  1  0  0  0  0  0  0  0  0  0
    0.4970   13.4730   -0.4120 C   0  0  0  0  0  0  0  0  0  0  0  0
   -0.6030   14.0120   -2.6020 C   0  0  0  0  0  0  0  0  0  0  0  0
   -0.4940   14.0100   -4.1390 C   0  0  0  0  0  0  0  0  0  0  0  0
    0.9690   13.9290   -4.5840 C   0  0  2  0  0  0  0  0  0  0  0  0
    1.6980   15.2160   -4.0690 C   0  0  0  0  0  0  0  0  0  0  0  0
   -1.0782   15.1124   -6.8438 H   0  0  0  0  0  0  0  0  0  0  0  0
   -0.3803   15.9970   -8.2427 H   0  0  0  0  0  0  0  0  0  0  0  0
   -0.4155   14.2010   -8.2427 H   0  0  0  0  0  0  0  0  0  0  0  0
    1.1521   15.9560   -6.2978 H   0  0  0  0  0  0  0  0  0  0  0  0
    3.1833   15.0487   -7.4357 H   0  0  0  0  0  0  0  0  0  0  0  0
    2.0654   14.3535   -8.7052 H   0  0  0  0  0  0  0  0  0  0  0  0
    1.5628   17.1832   -8.2821 H   0  0  0  0  0  0  0  0  0  0  0  0
    3.2894   16.8611   -8.7310 H   0  0  0  0  0  0  0  0  0  0  0  0
    1.7002   17.3595  -10.3104 H   0  0  0  0  0  0  0  0  0  0  0  0
    3.5559   14.3055   -9.4950 H   0  0  0  0  0  0  0  0  0  0  0  0
    3.3580   13.2901  -10.9635 H   0  0  0  0  0  0  0  0  0  0  0  0
    4.5313   14.6502  -10.9635 H   0  0  0  0  0  0  0  0  0  0  0  0
    1.9829   16.4202  -12.7874 H   0  0  0  0  0  0  0  0  0  0  0  0
    3.4078   15.3487  -13.0073 H   0  0  0  0  0  0  0  0  0  0  0  0
    1.7520   14.6524  -13.0073 H   0  0  0  0  0  0  0  0  0  0  0  0
    0.4459   13.1864   -6.5717 H   0  0  0  0  0  0  0  0  0  0  0  0
    2.7087   12.4249   -6.9378 H   0  0  0  0  0  0  0  0  0  0  0  0
    3.3972   13.9813   -6.4271 H   0  0  0  0  0  0  0  0  0  0  0  0
    3.3614   11.5888   -4.8655 H   0  0  0  0  0  0  0  0  0  0  0  0
    3.6958   13.1899   -4.2114 H   0  0  0  0  0  0  0  0  0  0  0  0
    0.5320   10.6754   -3.7644 H   0  0  0  0  0  0  0  0  0  0  0  0
    0.0067   11.5842   -5.2220 H   0  0  0  0  0  0  0  0  0  0  0  0
    1.5809   10.7191   -5.2220 H   0  0  0  0  0  0  0  0  0  0  0  0
    2.2487   13.4631   -2.2889 H   0  0  0  0  0  0  0  0  0  0  0  0
    3.0800   11.0345   -2.5223 H   0  0  0  0  0  0  0  0  0  0  0  0
    2.6767   11.7481   -0.8743 H   0  0  0  0  0  0  0  0  0  0  0  0
    1.8770    9.2741   -1.3002 H   0  0  0  0  0  0  0  0  0  0  0  0
   -1.1599   11.5316   -2.7091 H   0  0  0  0  0  0  0  0  0  0  0  0
   -1.3310   11.8424    0.3509 H   0  0  0  0  0  0  0  0  0  0  0  0
   -2.4138   12.6176   -0.8895 H   0  0  0  0  0  0  0  0  0  0  0  0
   -3.4840   10.6744    0.2051 H   0  0  0  0  0  0  0  0  0  0  0  0
   -3.2432   10.4414   -1.5707 H   0  0  0  0  0  0  0  0  0  0  0  0
   -2.6635    8.4034   -0.4406 H   0  0  0  0  0  0  0  0  0  0  0  0
   -0.6920    9.9320    0.9940 H   0  0  0  0  0  0  0  0  0  0  0  0
   -2.3504    8.0899   -2.5920 H   0  0  0  0  0  0  0  0  0  0  0  0
   -1.6136    9.5718   -3.2905 H   0  0  0  0  0  0  0  0  0  0  0  0
   -0.6967    8.0272   -3.2905 H   0  0  0  0  0  0  0  0  0  0  0  0
    0.0003    7.7173    0.2173 H   0  0  0  0  0  0  0  0  0  0  0  0
   -0.5093    6.8437   -1.2672 H   0  0  0  0  0  0  0  0  0  0  0  0
    1.0079    7.8054   -1.2672 H   0  0  0  0  0  0  0  0  0  0  0  0
    0.1347   12.7691    0.3517 H   0  0  0  0  0  0  0  0  0  0  0  0
    1.5811   13.6166   -0.2934 H   0  0  0  0  0  0  0  0  0  0  0  0
   -0.0160   14.4388   -0.2934 H   0  0  0  0  0  0  0  0  0  0  0  0
   -1.6657   13.8943   -2.3437 H   0  0  0  0  0  0  0  0  0  0  0  0
   -0.1535   14.9639   -2.2830 H   0  0  0  0  0  0  0  0  0  0  0  0
   -1.0400   13.1422   -4.5375 H   0  0  0  0  0  0  0  0  0  0  0  0
   -0.9263   14.9459   -4.5228 H   0  0  0  0  0  0  0  0  0  0  0  0
    1.7006   15.2206   -2.9690 H   0  0  0  0  0  0  0  0  0  0  0  0
    2.7342   15.2230   -4.4381 H   0  0  0  0  0  0  0  0  0  0  0  0
    1.1712   16.1083   -4.4381 H   0  0  0  0  0  0  0  0  0  0  0  0
  1  2  1  0
  2  3  1  0
  3  4  1  0
  4  5  1  0
  5  6  1  0
  6  7  1  0
  7  8  1  0
  7  9  1  0
  2 10  1  0
 10 11  1  0
 11 12  1  0
 12 13  1  0
 13 14  1  1
 13 15  1  0
 15 16  1  0
 16 17  1  0
 17 18  2  0
 18 19  1  0
 19 20  1  0
 20 21  1  0
 21 22  1  0
 22 23  1  0
 22 24  1  0
 24 25  1  0
 24 26  1  0
 19 27  1  0
 27 28  1  1
 27 29  1  0
 29 30  1  0
 30 31  1  0
 31 32  1  1
  7  5  1  0
 31 10  1  0
 31 13  1  0
 27 15  1  0
 24 18  1  0
  1 33  1  0
  1 34  1  0
  1 35  1  0
  2 36  1  1
  3 37  1  0
  3 38  1  0
  4 39  1  0
  4 40  1  0
  5 41  1  6
  8 42  1  0
  8 43  1  0
  8 44  1  0
  9 45  1  0
  9 46  1  0
  9 47  1  0
 10 48  1  6
 11 49  1  0
 11 50  1  0
 12 51  1  0
 12 52  1  0
 14 53  1  0
 14 54  1  0
 14 55  1  0
 15 56  1  6
 16 57  1  0
 16 58  1  0
 17 59  1  0
 19 60  1  6
 20 61  1  0
 20 62  1  0
 21 63  1  0
 21 64  1  0
 22 65  1  1
 23 66  1  0
 25 67  1  0
 25 68  1  0
 25 69  1  0
 26 70  1  0
 26 71  1  0
 26 72  1  0
 28 73  1  0
 28 74  1  0
 28 75  1  0
 29 76  1  0
 29 77  1  0
 30 78  1  0
 30 79  1  0
 32 80  1  0
 32 81  1  0
 32 82  1  0
M  END
>  <meeko>  (10) 
{"is_sidechain": [false], "intermolecular_energy": 2.731, "internal_energy": -0.839}

$$$$
EPH_relaxed_0001_pdb2pqr_Repair_403_r2_0001_out
     RDKit          3D

 82 86  0  0  0  0  0  0  0  0999 V2000
   -0.2770   10.4160   -3.7390 C   0  0  0  0  0  0  0  0  0  0  0  0
    0.8270   10.2150   -2.6980 C   0  0  2  0  0  0  0  0  0  0  0  0
    0.6100    8.9390   -1.8600 C   0  0  0  0  0  0  0  0  0  0  0  0
   -0.8520    8.4910   -1.7890 C   0  0  0  0  0  0  0  0  0  0  0  0
   -1.7040    9.4900   -1.0680 C   0  0  2  0  0  0  0  0  0  0  0  0
   -1.9870    9.1610    0.2990 O   0  0  0  0  0  0  0  0  0  0  0  0
   -3.1150    9.1980   -0.5910 C   0  0  0  0  0  0  0  0  0  0  0  0
   -3.7550    7.8640   -0.8180 C   0  0  0  0  0  0  0  0  0  0  0  0
   -4.0390   10.3490   -0.3440 C   0  0  0  0  0  0  0  0  0  0  0  0
    0.9070   11.4320   -1.7830 C   0  0  1  0  0  0  0  0  0  0  0  0
    1.9290   11.2470   -0.6310 C   0  0  0  0  0  0  0  0  0  0  0  0
    2.5670   12.6360   -0.3710 C   0  0  0  0  0  0  0  0  0  0  0  0
    1.6650   13.6290   -1.1410 C   0  0  1  0  0  0  0  0  0  0  0  0
    0.4430   13.8740   -0.2010 C   0  0  0  0  0  0  0  0  0  0  0  0
    2.3330   14.9720   -1.5810 C   0  0  2  0  0  0  0  0  0  0  0  0
    2.8240   15.8650   -0.4270 C   0  0  0  0  0  0  0  0  0  0  0  0
    1.8280   16.8530    0.0830 C   0  0  0  0  0  0  0  0  0  0  0  0
    0.6940   17.2150   -0.5450 C   0  0  0  0  0  0  0  0  0  0  0  0
    0.3660   16.6860   -1.9470 C   0  0  1  0  0  0  0  0  0  0  0  0
   -0.1030   17.8590   -2.8470 C   0  0  0  0  0  0  0  0  0  0  0  0
   -1.2600   18.6420   -2.2330 C   0  0  0  0  0  0  0  0  0  0  0  0
   -0.8750   19.2010   -0.8660 C   0  0  2  0  0  0  0  0  0  0  0  0
    0.1420   20.1910   -1.0430 O   0  0  0  0  0  0  0  0  0  0  0  0
   -0.3770   18.1110    0.1240 C   0  0  0  0  0  0  0  0  0  0  0  0
   -1.5650   17.2130    0.5500 C   0  0  0  0  0  0  0  0  0  0  0  0
    0.1110   18.8250    1.4140 C   0  0  0  0  0  0  0  0  0  0  0  0
    1.4920   15.8010   -2.6350 C   0  0  1  0  0  0  0  0  0  0  0  0
    2.5030   16.7180   -3.3890 C   0  0  0  0  0  0  0  0  0  0  0  0
    0.8280   14.8810   -3.7260 C   0  0  0  0  0  0  0  0  0  0  0  0
    0.2940   13.5150   -3.2520 C   0  0  0  0  0  0  0  0  0  0  0  0
    1.3450   12.7740   -2.4210 C   0  0  2  0  0  0  0  0  0  0  0  0
    2.5770   12.4940   -3.3470 C   0  0  0  0  0  0  0  0  0  0  0  0
   -1.2354   10.5905   -3.2281 H   0  0  0  0  0  0  0  0  0  0  0  0
   -0.0336   11.2846   -4.3685 H   0  0  0  0  0  0  0  0  0  0  0  0
   -0.3554    9.5174   -4.3685 H   0  0  0  0  0  0  0  0  0  0  0  0
    1.7760   10.0955   -3.2413 H   0  0  0  0  0  0  0  0  0  0  0  0
    1.2012    8.1257   -2.3062 H   0  0  0  0  0  0  0  0  0  0  0  0
    0.9253    9.1718   -0.8322 H   0  0  0  0  0  0  0  0  0  0  0  0
   -1.2367    8.3669   -2.8120 H   0  0  0  0  0  0  0  0  0  0  0  0
   -0.8929    7.5420   -1.2342 H   0  0  0  0  0  0  0  0  0  0  0  0
   -1.2818   10.3135   -1.6626 H   0  0  0  0  0  0  0  0  0  0  0  0
   -3.9798    7.3954    0.1515 H   0  0  0  0  0  0  0  0  0  0  0  0
   -4.6875    7.9966   -1.3862 H   0  0  0  0  0  0  0  0  0  0  0  0
   -3.0680    7.2196   -1.3862 H   0  0  0  0  0  0  0  0  0  0  0  0
   -4.1582   10.4975    0.7394 H   0  0  0  0  0  0  0  0  0  0  0  0
   -3.6186   11.2600   -0.7949 H   0  0  0  0  0  0  0  0  0  0  0  0
   -5.0194   10.1355   -0.7949 H   0  0  0  0  0  0  0  0  0  0  0  0
   -0.1442   11.4925   -1.4647 H   0  0  0  0  0  0  0  0  0  0  0  0
    1.4178   10.8895    0.2750 H   0  0  0  0  0  0  0  0  0  0  0  0
    2.6952   10.5045   -0.8985 H   0  0  0  0  0  0  0  0  0  0  0  0
    2.5696   12.8671    0.7044 H   0  0  0  0  0  0  0  0  0  0  0  0
    3.6154   12.6822   -0.7008 H   0  0  0  0  0  0  0  0  0  0  0  0
    0.7683   13.8088    0.8478 H   0  0  0  0  0  0  0  0  0  0  0  0
    0.0264   14.8735   -0.3942 H   0  0  0  0  0  0  0  0  0  0  0  0
   -0.3267   13.1123   -0.3942 H   0  0  0  0  0  0  0  0  0  0  0  0
    3.2396   14.6253   -2.0985 H   0  0  0  0  0  0  0  0  0  0  0  0
    3.1132   15.2114    0.4092 H   0  0  0  0  0  0  0  0  0  0  0  0
    3.6581   16.4559   -0.8332 H   0  0  0  0  0  0  0  0  0  0  0  0
    2.0386   17.3250    1.0540 H   0  0  0  0  0  0  0  0  0  0  0  0
   -0.4549   15.9657   -1.8156 H   0  0  0  0  0  0  0  0  0  0  0  0
    0.7433   18.5443   -3.0023 H   0  0  0  0  0  0  0  0  0  0  0  0
   -0.4568   17.4304   -3.7963 H   0  0  0  0  0  0  0  0  0  0  0  0
   -1.5257   19.4748   -2.9007 H   0  0  0  0  0  0  0  0  0  0  0  0
   -2.1159   17.9627   -2.1064 H   0  0  0  0  0  0  0  0  0  0  0  0
   -1.7813   19.6376   -0.4211 H   0  0  0  0  0  0  0  0  0  0  0  0
    0.1550   20.4350   -1.9840 H   0  0  0  0  0  0  0  0  0  0  0  0
   -1.6187   17.1724    1.6479 H   0  0  0  0  0  0  0  0  0  0  0  0
   -2.5016   17.6309    0.1523 H   0  0  0  0  0  0  0  0  0  0  0  0
   -1.4184   16.1979    0.1523 H   0  0  0  0  0  0  0  0  0  0  0  0
   -0.2599   18.2824    2.2961 H   0  0  0  0  0  0  0  0  0  0  0  0
    1.2107   18.8424    1.4298 H   0  0  0  0  0  0  0  0  0  0  0  0
   -0.2723   19.8560    1.4298 H   0  0  0  0  0  0  0  0  0  0  0  0
    3.1122   17.2705   -2.6585 H   0  0  0  0  0  0  0  0  0  0  0  0
    3.1584   16.0999   -4.0202 H   0  0  0  0  0  0  0  0  0  0  0  0
    1.9516   17.4304   -4.0202 H   0  0  0  0  0  0  0  0  0  0  0  0
   -0.0167   15.4361   -4.1600 H   0  0  0  0  0  0  0  0  0  0  0  0
    1.6364   14.6442   -4.4335 H   0  0  0  0  0  0  0  0  0  0  0  0
   -0.6044   13.6735   -2.6374 H   0  0  0  0  0  0  0  0  0  0  0  0
    0.0533   12.9066   -4.1362 H   0  0  0  0  0  0  0  0  0  0  0  0
    3.4632   12.2926   -2.7273 H   0  0  0  0  0  0  0  0  0  0  0  0
    2.3674   11.6206   -3.9820 H   0  0  0  0  0  0  0  0  0  0  0  0
    2.7655   13.3722   -3.9820 H   0  0  0  0  0  0  0  0  0  0  0  0
  1  2  1  0
  2  3  1  0
  3  4  1  0
  4  5  1  0
  5  6  1  0
  6  7  1  0
  7  8  1  0
  7  9  1  0
  2 10  1  0
 10 11  1  0
 11 12  1  0
 12 13  1  0
 13 14  1  1
 13 15  1  0
 15 16  1  0
 16 17  1  0
 17 18  2  0
 18 19  1  0
 19 20  1  0
 20 21  1  0
 21 22  1  0
 22 23  1  0
 22 24  1  0
 24 25  1  0
 24 26  1  0
 19 27  1  0
 27 28  1  6
 27 29  1  0
 29 30  1  0
 30 31  1  0
 31 32  1  6
  7  5  1  0
 31 10  1  0
 31 13  1  0
 27 15  1  0
 24 18  1  0
  1 33  1  0
  1 34  1  0
  1 35  1  0
  2 36  1  6
  3 37  1  0
  3 38  1  0
  4 39  1  0
  4 40  1  0
  5 41  1  1
  8 42  1  0
  8 43  1  0
  8 44  1  0
  9 45  1  0
  9 46  1  0
  9 47  1  0
 10 48  1  1
 11 49  1  0
 11 50  1  0
 12 51  1  0
 12 52  1  0
 14 53  1  0
 14 54  1  0
 14 55  1  0
 15 56  1  6
 16 57  1  0
 16 58  1  0
 17 59  1  0
 19 60  1  1
 20 61  1  0
 20 62  1  0
 21 63  1  0
 21 64  1  0
 22 65  1  1
 23 66  1  0
 25 67  1  0
 25 68  1  0
 25 69  1  0
 26 70  1  0
 26 71  1  0
 26 72  1  0
 28 73  1  0
 28 74  1  0
 28 75  1  0
 29 76  1  0
 29 77  1  0
 30 78  1  0
 30 79  1  0
 32 80  1  0
 32 81  1  0
 32 82  1  0
M  END
>  <meeko>  (11) 
{"is_sidechain": [false], "intermolecular_energy": 2.731, "internal_energy": -0.839}

$$$$
EPH_relaxed_0001_pdb2pqr_Repair_403_r2_0001_out
     RDKit          3D

 82 86  0  0  0  0  0  0  0  0999 V2000
    2.5740   16.1570   -7.3060 C   0  0  0  0  0  0  0  0  0  0  0  0
    1.4080   15.1750   -7.1560 C   0  0  2  0  0  0  0  0  0  0  0  0
    0.1630   15.6280   -7.9450 C   0  0  0  0  0  0  0  0  0  0  0  0
    0.4910   16.3000   -9.2810 C   0  0  0  0  0  0  0  0  0  0  0  0
    1.8930   16.0040   -9.7210 C   0  0  2  0  0  0  0  0  0  0  0  0
    2.2610   16.5840  -10.9790 O   0  0  0  0  0  0  0  0  0  0  0  0
    2.2270   15.1490  -10.9290 C   0  0  0  0  0  0  0  0  0  0  0  0
    1.1540   14.5360  -11.7720 C   0  0  0  0  0  0  0  0  0  0  0  0
    3.5800   14.5110  -11.0020 C   0  0  0  0  0  0  0  0  0  0  0  0
    1.0580   15.0050   -5.6830 C   0  0  1  0  0  0  0  0  0  0  0  0
   -0.2470   15.7480   -5.2890 C   0  0  0  0  0  0  0  0  0  0  0  0
   -0.9490   14.8790   -4.2140 C   0  0  0  0  0  0  0  0  0  0  0  0
    0.1210   13.8480   -3.7860 C   0  0  1  0  0  0  0  0  0  0  0  0
    1.0240   14.6070   -2.7630 C   0  0  0  0  0  0  0  0  0  0  0  0
   -0.4130   12.5020   -3.1960 C   0  0  2  0  0  0  0  0  0  0  0  0
   -1.2210   12.6350   -1.8930 C   0  0  0  0  0  0  0  0  0  0  0  0
   -0.4230   12.5450   -0.6350 C   0  0  0  0  0  0  0  0  0  0  0  0
    0.8370   12.0830   -0.5400 C   0  0  0  0  0  0  0  0  0  0  0  0
    1.5560   11.4960   -1.7630 C   0  0  1  0  0  0  0  0  0  0  0  0
    2.2440   10.1630   -1.3680 C   0  0  0  0  0  0  0  0  0  0  0  0
    3.1710   10.3170   -0.1660 C   0  0  0  0  0  0  0  0  0  0  0  0
    2.4080   10.8470    1.0460 C   0  0  2  0  0  0  0  0  0  0  0  0
    1.4690    9.8540    1.4700 O   0  0  0  0  0  0  0  0  0  0  0  0
    1.6640   12.1830    0.7650 C   0  0  0  0  0  0  0  0  0  0  0  0
    2.6950   13.3280    0.6010 C   0  0  0  0  0  0  0  0  0  0  0  0
    0.8220   12.5340    2.0220 C   0  0  0  0  0  0  0  0  0  0  0  0
    0.6810   11.3640   -3.0830 C   0  0  1  0  0  0  0  0  0  0  0  0
   -0.0870   10.0070   -3.0790 C   0  0  0  0  0  0  0  0  0  0  0  0
    1.6380   11.3290   -4.3320 C   0  0  0  0  0  0  0  0  0  0  0  0
    2.0340   12.6860   -4.9430 C   0  0  0  0  0  0  0  0  0  0  0  0
    0.8010   13.5640   -5.1750 C   0  0  2  0  0  0  0  0  0  0  0  0
   -0.1160   12.8360   -6.2160 C   0  0  0  0  0  0  0  0  0  0  0  0
    2.9308   16.4575   -6.3098 H   0  0  0  0  0  0  0  0  0  0  0  0
    3.3928   15.6724   -7.8580 H   0  0  0  0  0  0  0  0  0  0  0  0
    2.2357   17.0463   -7.8580 H   0  0  0  0  0  0  0  0  0  0  0  0
    1.7313   14.2105   -7.5745 H   0  0  0  0  0  0  0  0  0  0  0  0
   -0.4617   14.7449   -8.1447 H   0  0  0  0  0  0  0  0  0  0  0  0
   -0.3538   16.3771   -7.3271 H   0  0  0  0  0  0  0  0  0  0  0  0
   -0.2081   15.9318  -10.0463 H   0  0  0  0  0  0  0  0  0  0  0  0
    0.3951   17.3880   -9.1503 H   0  0  0  0  0  0  0  0  0  0  0  0
    2.2396   15.9748   -8.6774 H   0  0  0  0  0  0  0  0  0  0  0  0
    0.3835   14.0958  -11.1219 H   0  0  0  0  0  0  0  0  0  0  0  0
    0.6992   15.3106  -12.4070 H   0  0  0  0  0  0  0  0  0  0  0  0
    1.5903   13.7508  -12.4070 H   0  0  0  0  0  0  0  0  0  0  0  0
    3.9570   14.3332   -9.9840 H   0  0  0  0  0  0  0  0  0  0  0  0
    3.5053   13.5532  -11.5378 H   0  0  0  0  0  0  0  0  0  0  0  0
    4.2715   15.1779  -11.5378 H   0  0  0  0  0  0  0  0  0  0  0  0
    1.9755   15.4065   -5.2280 H   0  0  0  0  0  0  0  0  0  0  0  0
   -0.0087   16.7400   -4.8778 H   0  0  0  0  0  0  0  0  0  0  0  0
   -0.8971   15.8956   -6.1640 H   0  0  0  0  0  0  0  0  0  0  0  0
   -1.2584   15.4958   -3.3574 H   0  0  0  0  0  0  0  0  0  0  0  0
   -1.8616   14.3986   -4.5967 H   0  0  0  0  0  0  0  0  0  0  0  0
    0.7159   14.3480   -1.7393 H   0  0  0  0  0  0  0  0  0  0  0  0
    2.0740   14.3163   -2.9145 H   0  0  0  0  0  0  0  0  0  0  0  0
    0.9182   15.6914   -2.9145 H   0  0  0  0  0  0  0  0  0  0  0  0
   -1.1327   12.1786   -3.9625 H   0  0  0  0  0  0  0  0  0  0  0  0
   -1.7270   13.6117   -1.9052 H   0  0  0  0  0  0  0  0  0  0  0  0
   -1.9129   11.7800   -1.8758 H   0  0  0  0  0  0  0  0  0  0  0  0
   -0.9059   12.8852    0.2930 H   0  0  0  0  0  0  0  0  0  0  0  0
    2.3161   12.2358   -2.0544 H   0  0  0  0  0  0  0  0  0  0  0  0
    1.4669    9.4245   -1.1217 H   0  0  0  0  0  0  0  0  0  0  0  0
    2.8559    9.8371   -2.2220 H   0  0  0  0  0  0  0  0  0  0  0  0
    3.6051    9.3372    0.0819 H   0  0  0  0  0  0  0  0  0  0  0  0
    3.9641   11.0345   -0.4234 H   0  0  0  0  0  0  0  0  0  0  0  0
    3.1460   11.0582    1.8339 H   0  0  0  0  0  0  0  0  0  0  0  0
    1.9380    9.2380    2.0580 H   0  0  0  0  0  0  0  0  0  0  0  0
    3.0124   13.6805    1.5935 H   0  0  0  0  0  0  0  0  0  0  0  0
    3.5697   12.9572    0.0466 H   0  0  0  0  0  0  0  0  0  0  0  0
    2.2348   14.1592    0.0466 H   0  0  0  0  0  0  0  0  0  0  0  0
    1.3980   12.2939    2.9279 H   0  0  0  0  0  0  0  0  0  0  0  0
    0.5814   13.6073    2.0142 H   0  0  0  0  0  0  0  0  0  0  0  0
   -0.1097   11.9493    2.0142 H   0  0  0  0  0  0  0  0  0  0  0  0
   -0.2663    9.6902   -2.0410 H   0  0  0  0  0  0  0  0  0  0  0  0
   -1.0499   10.1291   -3.5966 H   0  0  0  0  0  0  0  0  0  0  0  0
    0.5134    9.2444   -3.5966 H   0  0  0  0  0  0  0  0  0  0  0  0
    2.5636   10.8186   -4.0275 H   0  0  0  0  0  0  0  0  0  0  0  0
    1.0652   10.8159   -5.1186 H   0  0  0  0  0  0  0  0  0  0  0  0
    2.7199   13.2034   -4.2561 H   0  0  0  0  0  0  0  0  0  0  0  0
    2.5227   12.5050   -5.9117 H   0  0  0  0  0  0  0  0  0  0  0  0
   -0.8703   12.2372   -5.6846 H   0  0  0  0  0  0  0  0  0  0  0  0
   -0.6192   13.5833   -6.8472 H   0  0  0  0  0  0  0  0  0  0  0  0
    0.4977   12.1764   -6.8472 H   0  0  0  0  0  0  0  0  0  0  0  0
  1  2  1  0
  2  3  1  0
  3  4  1  0
  4  5  1  0
  5  6  1  0
  6  7  1  0
  7  8  1  0
  7  9  1  0
  2 10  1  0
 10 11  1  0
 11 12  1  0
 12 13  1  0
 13 14  1  1
 13 15  1  0
 15 16  1  0
 16 17  1  0
 17 18  2  0
 18 19  1  0
 19 20  1  0
 20 21  1  0
 21 22  1  0
 22 23  1  0
 22 24  1  0
 24 25  1  0
 24 26  1  0
 19 27  1  0
 27 28  1  1
 27 29  1  0
 29 30  1  0
 30 31  1  0
 31 32  1  6
  7  5  1  0
 31 10  1  0
 31 13  1  0
 27 15  1  0
 24 18  1  0
  1 33  1  0
  1 34  1  0
  1 35  1  0
  2 36  1  6
  3 37  1  0
  3 38  1  0
  4 39  1  0
  4 40  1  0
  5 41  1  1
  8 42  1  0
  8 43  1  0
  8 44  1  0
  9 45  1  0
  9 46  1  0
  9 47  1  0
 10 48  1  1
 11 49  1  0
 11 50  1  0
 12 51  1  0
 12 52  1  0
 14 53  1  0
 14 54  1  0
 14 55  1  0
 15 56  1  6
 16 57  1  0
 16 58  1  0
 17 59  1  0
 19 60  1  6
 20 61  1  0
 20 62  1  0
 21 63  1  0
 21 64  1  0
 22 65  1  1
 23 66  1  0
 25 67  1  0
 25 68  1  0
 25 69  1  0
 26 70  1  0
 26 71  1  0
 26 72  1  0
 28 73  1  0
 28 74  1  0
 28 75  1  0
 29 76  1  0
 29 77  1  0
 30 78  1  0
 30 79  1  0
 32 80  1  0
 32 81  1  0
 32 82  1  0
M  END
>  <meeko>  (12) 
{"is_sidechain": [false], "intermolecular_energy": 2.731, "internal_energy": -0.839}

$$$$
EPH_relaxed_0001_pdb2pqr_Repair_403_r2_0001_out
     RDKit          3D

 82 86  0  0  0  0  0  0  0  0999 V2000
    0.0120    9.3750   -2.3750 C   0  0  0  0  0  0  0  0  0  0  0  0
    1.1400   10.3320   -2.7700 C   0  0  2  0  0  0  0  0  0  0  0  0
    2.5170    9.6370   -2.7710 C   0  0  0  0  0  0  0  0  0  0  0  0
    3.4740   10.1680   -3.8420 C   0  0  0  0  0  0  0  0  0  0  0  0
    4.8220   10.4870   -3.2710 C   0  0  2  0  0  0  0  0  0  0  0  0
    5.2620   11.8340   -3.4920 O   0  0  0  0  0  0  0  0  0  0  0  0
    6.0380   10.8020   -4.1230 C   0  0  0  0  0  0  0  0  0  0  0  0
    5.9620   10.8120   -5.6180 C   0  0  0  0  0  0  0  0  0  0  0  0
    7.3980   10.6180   -3.5250 C   0  0  0  0  0  0  0  0  0  0  0  0
    1.1610   11.5280   -1.8260 C   0  0  1  0  0  0  0  0  0  0  0  0
    2.2240   11.3860   -0.7040 C   0  0  0  0  0  0  0  0  0  0  0  0
    2.7730   12.8080   -0.4240 C   0  0  0  0  0  0  0  0  0  0  0  0
    1.7850   13.7560   -1.1450 C   0  0  1  0  0  0  0  0  0  0  0  0
    0.5760   13.8930   -0.1690 C   0  0  0  0  0  0  0  0  0  0  0  0
    2.3500   15.1520   -1.5650 C   0  0  2  0  0  0  0  0  0  0  0  0
    2.8090   16.0470   -0.4010 C   0  0  0  0  0  0  0  0  0  0  0  0
    1.7630   16.9520    0.1590 C   0  0  0  0  0  0  0  0  0  0  0  0
    0.5900   17.2520   -0.4300 C   0  0  0  0  0  0  0  0  0  0  0  0
    0.2620   16.7350   -1.8370 C   0  0  1  0  0  0  0  0  0  0  0  0
   -0.3090   17.8960   -2.6940 C   0  0  0  0  0  0  0  0  0  0  0  0
   -1.5000   18.5820   -2.0320 C   0  0  0  0  0  0  0  0  0  0  0  0
   -1.1180   19.1330   -0.6600 C   0  0  2  0  0  0  0  0  0  0  0  0
   -0.1750   20.1940   -0.8360 O   0  0  0  0  0  0  0  0  0  0  0  0
   -0.5210   18.0560    0.2880 C   0  0  0  0  0  0  0  0  0  0  0  0
   -1.6340   17.0680    0.7190 C   0  0  0  0  0  0  0  0  0  0  0  0
   -0.0480   18.7690    1.5830 C   0  0  0  0  0  0  0  0  0  0  0  0
    1.4270   15.9470   -2.5760 C   0  0  1  0  0  0  0  0  0  0  0  0
    2.3530   16.9490   -3.3300 C   0  0  0  0  0  0  0  0  0  0  0  0
    0.7980   15.0100   -3.6750 C   0  0  0  0  0  0  0  0  0  0  0  0
    0.3700   13.6010   -3.2240 C   0  0  0  0  0  0  0  0  0  0  0  0
    1.4900   12.9120   -2.4390 C   0  0  2  0  0  0  0  0  0  0  0  0
    2.7140   12.7400   -3.4020 C   0  0  0  0  0  0  0  0  0  0  0  0
   -0.0541    9.3189   -1.2784 H   0  0  0  0  0  0  0  0  0  0  0  0
   -0.9412    9.7441   -2.7814 H   0  0  0  0  0  0  0  0  0  0  0  0
    0.2209    8.3744   -2.7814 H   0  0  0  0  0  0  0  0  0  0  0  0
    0.9412   10.6725   -3.7969 H   0  0  0  0  0  0  0  0  0  0  0  0
    2.9819    9.7860   -1.7853 H   0  0  0  0  0  0  0  0  0  0  0  0
    2.3407    8.5747   -2.9958 H   0  0  0  0  0  0  0  0  0  0  0  0
    3.5903    9.4053   -4.6261 H   0  0  0  0  0  0  0  0  0  0  0  0
    3.0478   11.0947   -4.2539 H   0  0  0  0  0  0  0  0  0  0  0  0
    4.6646    9.7811   -2.4422 H   0  0  0  0  0  0  0  0  0  0  0  0
    4.9165   10.9496   -5.9311 H   0  0  0  0  0  0  0  0  0  0  0  0
    6.5740   11.6374   -6.0107 H   0  0  0  0  0  0  0  0  0  0  0  0
    6.3397    9.8564   -6.0107 H   0  0  0  0  0  0  0  0  0  0  0  0
    7.3206   10.6285   -2.4278 H   0  0  0  0  0  0  0  0  0  0  0  0
    7.8160    9.6551   -3.8539 H   0  0  0  0  0  0  0  0  0  0  0  0
    8.0568   11.4352   -3.8539 H   0  0  0  0  0  0  0  0  0  0  0  0
    0.1169   11.5078   -1.4805 H   0  0  0  0  0  0  0  0  0  0  0  0
    1.7623   10.9727    0.2048 H   0  0  0  0  0  0  0  0  0  0  0  0
    3.0315   10.7045   -1.0096 H   0  0  0  0  0  0  0  0  0  0  0  0
    2.7889   13.0124    0.6567 H   0  0  0  0  0  0  0  0  0  0  0  0
    3.8066   12.9338   -0.7789 H   0  0  0  0  0  0  0  0  0  0  0  0
    0.9366   13.8521    0.8694 H   0  0  0  0  0  0  0  0  0  0  0  0
    0.0705   14.8542   -0.3441 H   0  0  0  0  0  0  0  0  0  0  0  0
   -0.1317   13.0693   -0.3441 H   0  0  0  0  0  0  0  0  0  0  0  0
    3.2649   14.8814   -2.1125 H   0  0  0  0  0  0  0  0  0  0  0  0
    3.1632   15.3941    0.4104 H   0  0  0  0  0  0  0  0  0  0  0  0
    3.5904   16.7032   -0.8119 H   0  0  0  0  0  0  0  0  0  0  0  0
    1.9677   17.4134    1.1364 H   0  0  0  0  0  0  0  0  0  0  0  0
   -0.5035   15.9563   -1.7043 H   0  0  0  0  0  0  0  0  0  0  0  0
    0.4845   18.6414   -2.8511 H   0  0  0  0  0  0  0  0  0  0  0  0
   -0.6572   17.4681   -3.6456 H   0  0  0  0  0  0  0  0  0  0  0  0
   -1.8393   19.4105   -2.6711 H   0  0  0  0  0  0  0  0  0  0  0  0
   -2.3040   17.8426   -1.9024 H   0  0  0  0  0  0  0  0  0  0  0  0
   -2.0399   19.4957   -0.1818 H   0  0  0  0  0  0  0  0  0  0  0  0
    0.7070   19.7940   -0.9200 H   0  0  0  0  0  0  0  0  0  0  0  0
   -1.6816   17.0257    1.8172 H   0  0  0  0  0  0  0  0  0  0  0  0
   -2.6015   17.4101    0.3229 H   0  0  0  0  0  0  0  0  0  0  0  0
   -1.4090   16.0668    0.3229 H   0  0  0  0  0  0  0  0  0  0  0  0
   -0.4146   18.2164    2.4606 H   0  0  0  0  0  0  0  0  0  0  0  0
    1.0513   18.8015    1.6031 H   0  0  0  0  0  0  0  0  0  0  0  0
   -0.4455   19.7945    1.6031 H   0  0  0  0  0  0  0  0  0  0  0  0
    2.9113   17.5531   -2.5996 H   0  0  0  0  0  0  0  0  0  0  0  0
    3.0602   16.3909   -3.9612 H   0  0  0  0  0  0  0  0  0  0  0  0
    1.7410   17.6101   -3.9612 H   0  0  0  0  0  0  0  0  0  0  0  0
   -0.0931   15.5167   -4.0740 H   0  0  0  0  0  0  0  0  0  0  0  0
    1.6018   14.8459   -4.4077 H   0  0  0  0  0  0  0  0  0  0  0  0
   -0.5203   13.6834   -2.5832 H   0  0  0  0  0  0  0  0  0  0  0  0
    0.1473   12.9996   -4.1177 H   0  0  0  0  0  0  0  0  0  0  0  0
    3.6316   12.6111   -2.8092 H   0  0  0  0  0  0  0  0  0  0  0  0
    2.5599   11.8547   -4.0364 H   0  0  0  0  0  0  0  0  0  0  0  0
    2.8098   13.6335   -4.0364 H   0  0  0  0  0  0  0  0  0  0  0  0
  1  2  1  0
  2  3  1  0
  3  4  1  0
  4  5  1  0
  5  6  1  0
  6  7  1  0
  7  8  1  0
  7  9  1  0
  2 10  1  0
 10 11  1  0
 11 12  1  0
 12 13  1  0
 13 14  1  1
 13 15  1  0
 15 16  1  0
 16 17  1  0
 17 18  2  0
 18 19  1  0
 19 20  1  0
 20 21  1  0
 21 22  1  0
 22 23  1  0
 22 24  1  0
 24 25  1  0
 24 26  1  0
 19 27  1  0
 27 28  1  6
 27 29  1  0
 29 30  1  0
 30 31  1  0
 31 32  1  6
  7  5  1  0
 31 10  1  0
 31 13  1  0
 27 15  1  0
 24 18  1  0
  1 33  1  0
  1 34  1  0
  1 35  1  0
  2 36  1  6
  3 37  1  0
  3 38  1  0
  4 39  1  0
  4 40  1  0
  5 41  1  1
  8 42  1  0
  8 43  1  0
  8 44  1  0
  9 45  1  0
  9 46  1  0
  9 47  1  0
 10 48  1  1
 11 49  1  0
 11 50  1  0
 12 51  1  0
 12 52  1  0
 14 53  1  0
 14 54  1  0
 14 55  1  0
 15 56  1  6
 16 57  1  0
 16 58  1  0
 17 59  1  0
 19 60  1  1
 20 61  1  0
 20 62  1  0
 21 63  1  0
 21 64  1  0
 22 65  1  1
 23 66  1  0
 25 67  1  0
 25 68  1  0
 25 69  1  0
 26 70  1  0
 26 71  1  0
 26 72  1  0
 28 73  1  0
 28 74  1  0
 28 75  1  0
 29 76  1  0
 29 77  1  0
 30 78  1  0
 30 79  1  0
 32 80  1  0
 32 81  1  0
 32 82  1  0
M  END
>  <meeko>  (13) 
{"is_sidechain": [false], "intermolecular_energy": 2.731, "internal_energy": -0.839}

$$$$
EPH_relaxed_0001_pdb2pqr_Repair_403_r2_0001_out
     RDKit          3D

 82 86  0  0  0  0  0  0  0  0999 V2000
   -2.2710    7.7940   -2.2290 C   0  0  0  0  0  0  0  0  0  0  0  0
   -2.2310    8.3910   -0.8200 C   0  0  2  0  0  0  0  0  0  0  0  0
   -3.6150    8.3690   -0.1400 C   0  0  0  0  0  0  0  0  0  0  0  0
   -4.7800    8.5930   -1.1070 C   0  0  0  0  0  0  0  0  0  0  0  0
   -5.8640    7.5760   -0.9150 C   0  0  2  0  0  0  0  0  0  0  0  0
   -5.4180    6.2140   -0.9430 O   0  0  0  0  0  0  0  0  0  0  0  0
   -6.3070    6.6110   -1.9990 C   0  0  0  0  0  0  0  0  0  0  0  0
   -5.6760    6.6180   -3.3560 C   0  0  0  0  0  0  0  0  0  0  0  0
   -7.6710    6.0020   -1.9000 C   0  0  0  0  0  0  0  0  0  0  0  0
   -1.7010    9.8190   -0.8760 C   0  0  1  0  0  0  0  0  0  0  0  0
   -1.2610   10.3480    0.5150 C   0  0  0  0  0  0  0  0  0  0  0  0
   -0.0370   11.2700    0.2760 C   0  0  0  0  0  0  0  0  0  0  0  0
   -0.0190   11.5060   -1.2520 C   0  0  1  0  0  0  0  0  0  0  0  0
   -1.0740   12.6310   -1.4970 C   0  0  0  0  0  0  0  0  0  0  0  0
    1.3660   11.8680   -1.8790 C   0  0  2  0  0  0  0  0  0  0  0  0
    1.9860   13.1840   -1.3780 C   0  0  0  0  0  0  0  0  0  0  0  0
    1.6270   14.3990   -2.1670 C   0  0  0  0  0  0  0  0  0  0  0  0
    1.0750   14.4000   -3.3940 C   0  0  0  0  0  0  0  0  0  0  0  0
    0.8460   13.0880   -4.1550 C   0  0  1  0  0  0  0  0  0  0  0  0
    1.3400   13.2440   -5.6180 C   0  0  0  0  0  0  0  0  0  0  0  0
    0.7140   14.4440   -6.3210 C   0  0  0  0  0  0  0  0  0  0  0  0
    1.0130   15.7370   -5.5660 C   0  0  2  0  0  0  0  0  0  0  0  0
    2.4180   16.0000   -5.6410 O   0  0  0  0  0  0  0  0  0  0  0  0
    0.5680   15.6940   -4.0780 C   0  0  0  0  0  0  0  0  0  0  0  0
   -0.9790   15.7120   -3.9960 C   0  0  0  0  0  0  0  0  0  0  0  0
    1.0540   17.0010   -3.3960 C   0  0  0  0  0  0  0  0  0  0  0  0
    1.4070   11.7750   -3.4580 C   0  0  1  0  0  0  0  0  0  0  0  0
    2.9010   11.5600   -3.8530 C   0  0  0  0  0  0  0  0  0  0  0  0
    0.6200   10.5250   -4.0050 C   0  0  0  0  0  0  0  0  0  0  0  0
   -0.6800   10.1470   -3.2690 C   0  0  0  0  0  0  0  0  0  0  0  0
   -0.4530   10.0810   -1.7550 C   0  0  2  0  0  0  0  0  0  0  0  0
    0.5870    8.9430   -1.4760 C   0  0  0  0  0  0  0  0  0  0  0  0
   -2.3444    6.6986   -2.1611 H   0  0  0  0  0  0  0  0  0  0  0  0
   -3.1448    8.1873   -2.7692 H   0  0  0  0  0  0  0  0  0  0  0  0
   -1.3525    8.0672   -2.7692 H   0  0  0  0  0  0  0  0  0  0  0  0
   -1.5565    7.7671   -0.2153 H   0  0  0  0  0  0  0  0  0  0  0  0
   -3.7486    7.3901    0.3437 H   0  0  0  0  0  0  0  0  0  0  0  0
   -3.6318    9.1996    0.5810 H   0  0  0  0  0  0  0  0  0  0  0  0
   -5.1978    9.5960   -0.9353 H   0  0  0  0  0  0  0  0  0  0  0  0
   -4.3968    8.4957   -2.1335 H   0  0  0  0  0  0  0  0  0  0  0  0
   -6.4252    8.2620   -0.2634 H   0  0  0  0  0  0  0  0  0  0  0  0
   -4.5811    6.6301   -3.2512 H   0  0  0  0  0  0  0  0  0  0  0  0
   -5.9816    5.7164   -3.9071 H   0  0  0  0  0  0  0  0  0  0  0  0
   -6.0015    7.5126   -3.9071 H   0  0  0  0  0  0  0  0  0  0  0  0
   -7.9425    5.8808   -0.8409 H   0  0  0  0  0  0  0  0  0  0  0  0
   -8.4026    6.6590   -2.3932 H   0  0  0  0  0  0  0  0  0  0  0  0
   -7.6702    5.0187   -2.3932 H   0  0  0  0  0  0  0  0  0  0  0  0
   -2.5777   10.3236   -1.3081 H   0  0  0  0  0  0  0  0  0  0  0  0
   -2.0792   10.9175    0.9799 H   0  0  0  0  0  0  0  0  0  0  0  0
   -1.0048    9.5183    1.1903 H   0  0  0  0  0  0  0  0  0  0  0  0
   -0.1566   12.2217    0.8145 H   0  0  0  0  0  0  0  0  0  0  0  0
    0.8997   10.8227    0.6401 H   0  0  0  0  0  0  0  0  0  0  0  0
   -1.4330   13.0138   -0.5303 H   0  0  0  0  0  0  0  0  0  0  0  0
   -0.6109   13.4502   -2.0667 H   0  0  0  0  0  0  0  0  0  0  0  0
   -1.9212   12.2214   -2.0667 H   0  0  0  0  0  0  0  0  0  0  0  0
    2.0145   11.0670   -1.4946 H   0  0  0  0  0  0  0  0  0  0  0  0
    1.6554   13.3423   -0.3409 H   0  0  0  0  0  0  0  0  0  0  0  0
    3.0748   13.0656   -1.4802 H   0  0  0  0  0  0  0  0  0  0  0  0
    1.8311   15.3768   -1.7062 H   0  0  0  0  0  0  0  0  0  0  0  0
   -0.2405   12.9166   -4.1446 H   0  0  0  0  0  0  0  0  0  0  0  0
    2.4327   13.3705   -5.6098 H   0  0  0  0  0  0  0  0  0  0  0  0
    1.0416   12.3403   -6.1697 H   0  0  0  0  0  0  0  0  0  0  0  0
    1.1239   14.5188   -7.3390 H   0  0  0  0  0  0  0  0  0  0  0  0
   -0.3762   14.3015   -6.3543 H   0  0  0  0  0  0  0  0  0  0  0  0
    0.4325   16.5401   -6.0436 H   0  0  0  0  0  0  0  0  0  0  0  0
    2.6850   16.4110   -4.8020 H   0  0  0  0  0  0  0  0  0  0  0  0
   -1.2902   15.7156   -2.9410 H   0  0  0  0  0  0  0  0  0  0  0  0
   -1.3621   16.6147   -4.4944 H   0  0  0  0  0  0  0  0  0  0  0  0
   -1.3830   14.8185   -4.4944 H   0  0  0  0  0  0  0  0  0  0  0  0
    1.0100   16.8826   -2.3033 H   0  0  0  0  0  0  0  0  0  0  0  0
    2.0900   17.2102   -3.7007 H   0  0  0  0  0  0  0  0  0  0  0  0
    0.4064   17.8363   -3.7007 H   0  0  0  0  0  0  0  0  0  0  0  0
    3.5120   11.4721   -2.9425 H   0  0  0  0  0  0  0  0  0  0  0  0
    2.9942   10.6392   -4.4475 H   0  0  0  0  0  0  0  0  0  0  0  0
    3.2501   12.4172   -4.4475 H   0  0  0  0  0  0  0  0  0  0  0  0
    0.3614   10.7276   -5.0548 H   0  0  0  0  0  0  0  0  0  0  0  0
    1.2957    9.6703   -3.8539 H   0  0  0  0  0  0  0  0  0  0  0  0
   -1.4489   10.9033   -3.4851 H   0  0  0  0  0  0  0  0  0  0  0  0
   -1.0059    9.1563   -3.6186 H   0  0  0  0  0  0  0  0  0  0  0  0
    0.7058    8.8130   -0.3902 H   0  0  0  0  0  0  0  0  0  0  0  0
    0.2297    8.0026   -1.9210 H   0  0  0  0  0  0  0  0  0  0  0  0
    1.5557    9.2144   -1.9210 H   0  0  0  0  0  0  0  0  0  0  0  0
  1  2  1  0
  2  3  1  0
  3  4  1  0
  4  5  1  0
  5  6  1  0
  6  7  1  0
  7  8  1  0
  7  9  1  0
  2 10  1  0
 10 11  1  0
 11 12  1  0
 12 13  1  0
 13 14  1  1
 13 15  1  0
 15 16  1  0
 16 17  1  0
 17 18  2  0
 18 19  1  0
 19 20  1  0
 20 21  1  0
 21 22  1  0
 22 23  1  0
 22 24  1  0
 24 25  1  0
 24 26  1  0
 19 27  1  0
 27 28  1  1
 27 29  1  0
 29 30  1  0
 30 31  1  0
 31 32  1  6
  7  5  1  0
 31 10  1  0
 31 13  1  0
 27 15  1  0
 24 18  1  0
  1 33  1  0
  1 34  1  0
  1 35  1  0
  2 36  1  1
  3 37  1  0
  3 38  1  0
  4 39  1  0
  4 40  1  0
  5 41  1  1
  8 42  1  0
  8 43  1  0
  8 44  1  0
  9 45  1  0
  9 46  1  0
  9 47  1  0
 10 48  1  6
 11 49  1  0
 11 50  1  0
 12 51  1  0
 12 52  1  0
 14 53  1  0
 14 54  1  0
 14 55  1  0
 15 56  1  1
 16 57  1  0
 16 58  1  0
 17 59  1  0
 19 60  1  6
 20 61  1  0
 20 62  1  0
 21 63  1  0
 21 64  1  0
 22 65  1  6
 23 66  1  0
 25 67  1  0
 25 68  1  0
 25 69  1  0
 26 70  1  0
 26 71  1  0
 26 72  1  0
 28 73  1  0
 28 74  1  0
 28 75  1  0
 29 76  1  0
 29 77  1  0
 30 78  1  0
 30 79  1  0
 32 80  1  0
 32 81  1  0
 32 82  1  0
M  END
>  <meeko>  (14) 
{"is_sidechain": [false], "intermolecular_energy": 2.731, "internal_energy": -0.839}

$$$$
EPH_relaxed_0001_pdb2pqr_Repair_403_r2_0001_out
     RDKit          3D

 82 86  0  0  0  0  0  0  0  0999 V2000
   -2.4460   10.2370   -0.9410 C   0  0  0  0  0  0  0  0  0  0  0  0
   -0.9330   10.3050   -1.1660 C   0  0  2  0  0  0  0  0  0  0  0  0
   -0.2000    9.0910   -0.5610 C   0  0  0  0  0  0  0  0  0  0  0  0
    1.3100    9.2950   -0.4110 C   0  0  0  0  0  0  0  0  0  0  0  0
    1.9330    8.2250    0.4340 C   0  0  2  0  0  0  0  0  0  0  0  0
    2.1060    8.5770    1.8130 O   0  0  0  0  0  0  0  0  0  0  0  0
    3.3090    8.3500    1.0610 C   0  0  0  0  0  0  0  0  0  0  0  0
    4.1460    9.5750    0.8680 C   0  0  0  0  0  0  0  0  0  0  0  0
    4.0340    7.0990    1.4470 C   0  0  0  0  0  0  0  0  0  0  0  0
   -0.3770   11.5960   -0.5750 C   0  0  1  0  0  0  0  0  0  0  0  0
    0.7730   11.3440    0.4350 C   0  0  0  0  0  0  0  0  0  0  0  0
    1.7730   12.5180    0.2770 C   0  0  0  0  0  0  0  0  0  0  0  0
    1.0120   13.5670   -0.5670 C   0  0  1  0  0  0  0  0  0  0  0  0
    0.0970   14.3160    0.4520 C   0  0  0  0  0  0  0  0  0  0  0  0
    1.8920   14.5620   -1.3920 C   0  0  2  0  0  0  0  0  0  0  0  0
    2.8050   15.4740   -0.5540 C   0  0  0  0  0  0  0  0  0  0  0  0
    2.2040   16.7800   -0.1510 C   0  0  0  0  0  0  0  0  0  0  0  0
    1.0950   17.3280   -0.6810 C   0  0  0  0  0  0  0  0  0  0  0  0
    0.3780   16.6650   -1.8640 C   0  0  1  0  0  0  0  0  0  0  0  0
    0.0470   17.7370   -2.9360 C   0  0  0  0  0  0  0  0  0  0  0  0
   -0.7370   18.9140   -2.3630 C   0  0  0  0  0  0  0  0  0  0  0  0
    0.0350   19.5820   -1.2280 C   0  0  2  0  0  0  0  0  0  0  0  0
    1.2110   20.1940   -1.7680 O   0  0  0  0  0  0  0  0  0  0  0  0
    0.4310   18.5970   -0.0930 C   0  0  0  0  0  0  0  0  0  0  0  0
   -0.8340   18.1670    0.6880 C   0  0  0  0  0  0  0  0  0  0  0  0
    1.3240   19.3670    0.9170 C   0  0  0  0  0  0  0  0  0  0  0  0
    1.0930   15.3860   -2.4800 C   0  0  1  0  0  0  0  0  0  0  0  0
    2.1310   15.8250   -3.5580 C   0  0  0  0  0  0  0  0  0  0  0  0
    0.0210   14.5080   -3.2280 C   0  0  0  0  0  0  0  0  0  0  0  0
   -0.7310   13.4610   -2.3840 C   0  0  0  0  0  0  0  0  0  0  0  0
    0.2460   12.6180   -1.5590 C   0  0  2  0  0  0  0  0  0  0  0  0
    1.1640   11.8350   -2.5590 C   0  0  0  0  0  0  0  0  0  0  0  0
   -2.6561   10.2276    0.1387 H   0  0  0  0  0  0  0  0  0  0  0  0
   -2.9248   11.1145   -1.4000 H   0  0  0  0  0  0  0  0  0  0  0  0
   -2.8441    9.3201   -1.4000 H   0  0  0  0  0  0  0  0  0  0  0  0
   -0.7595   10.2876   -2.2521 H   0  0  0  0  0  0  0  0  0  0  0  0
   -0.6237    8.8902    0.4341 H   0  0  0  0  0  0  0  0  0  0  0  0
   -0.3431    8.2504   -1.2559 H   0  0  0  0  0  0  0  0  0  0  0  0
    1.7731    9.2761   -1.4086 H   0  0  0  0  0  0  0  0  0  0  0  0
    1.4777   10.2633    0.0833 H   0  0  0  0  0  0  0  0  0  0  0  0
    1.4705    7.4376   -0.1793 H   0  0  0  0  0  0  0  0  0  0  0  0
    4.4266    9.9857    1.8491 H   0  0  0  0  0  0  0  0  0  0  0  0
    5.0550    9.3133    0.3065 H   0  0  0  0  0  0  0  0  0  0  0  0
    3.5718   10.3267    0.3065 H   0  0  0  0  0  0  0  0  0  0  0  0
    4.0775    7.0239    2.5436 H   0  0  0  0  0  0  0  0  0  0  0  0
    3.5016    6.2264    1.0406 H   0  0  0  0  0  0  0  0  0  0  0  0
    5.0558    7.1271    1.0406 H   0  0  0  0  0  0  0  0  0  0  0  0
   -1.2972   12.0090   -0.1360 H   0  0  0  0  0  0  0  0  0  0  0  0
    0.3772   11.3191    1.4610 H   0  0  0  0  0  0  0  0  0  0  0  0
    1.2637   10.3787    0.2416 H   0  0  0  0  0  0  0  0  0  0  0  0
    2.0440   12.9323    1.2593 H   0  0  0  0  0  0  0  0  0  0  0  0
    2.7142   12.2036   -0.1976 H   0  0  0  0  0  0  0  0  0  0  0  0
    0.4060   14.0631    1.4770 H   0  0  0  0  0  0  0  0  0  0  0  0
    0.1890   15.4013    0.2986 H   0  0  0  0  0  0  0  0  0  0  0  0
   -0.9488   14.0114    0.2986 H   0  0  0  0  0  0  0  0  0  0  0  0
    2.5655   13.8845   -1.9373 H   0  0  0  0  0  0  0  0  0  0  0  0
    3.0814   14.9300    0.3612 H   0  0  0  0  0  0  0  0  0  0  0  0
    3.6635   15.7190   -1.1966 H   0  0  0  0  0  0  0  0  0  0  0  0
    2.7109   17.3422    0.6471 H   0  0  0  0  0  0  0  0  0  0  0  0
   -0.5533   16.2438   -1.4576 H   0  0  0  0  0  0  0  0  0  0  0  0
    0.9892   18.1140   -3.3605 H   0  0  0  0  0  0  0  0  0  0  0  0
   -0.5801   17.2597   -3.7034 H   0  0  0  0  0  0  0  0  0  0  0  0
   -0.9145   19.6508   -3.1603 H   0  0  0  0  0  0  0  0  0  0  0  0
   -1.6922   18.5400   -1.9658 H   0  0  0  0  0  0  0  0  0  0  0  0
   -0.6294   20.3316   -0.7734 H   0  0  0  0  0  0  0  0  0  0  0  0
    1.4630   20.9210   -1.1740 H   0  0  0  0  0  0  0  0  0  0  0  0
   -0.6382   18.2336    1.7684 H   0  0  0  0  0  0  0  0  0  0  0  0
   -1.6705   18.8313    0.4254 H   0  0  0  0  0  0  0  0  0  0  0  0
   -1.0924   17.1305    0.4254 H   0  0  0  0  0  0  0  0  0  0  0  0
    1.0239   19.1083    1.9432 H   0  0  0  0  0  0  0  0  0  0  0  0
    2.3769   19.0889    0.7617 H   0  0  0  0  0  0  0  0  0  0  0  0
    1.2039   20.4493    0.7617 H   0  0  0  0  0  0  0  0  0  0  0  0
    3.0353   16.2074   -3.0620 H   0  0  0  0  0  0  0  0  0  0  0  0
    2.3948   14.9614   -4.1862 H   0  0  0  0  0  0  0  0  0  0  0  0
    1.6951   16.6158   -4.1862 H   0  0  0  0  0  0  0  0  0  0  0  0
   -0.7279   15.1904   -3.6562 H   0  0  0  0  0  0  0  0  0  0  0  0
    0.5908   13.9262   -3.9675 H   0  0  0  0  0  0  0  0  0  0  0  0
   -1.4240   13.9776   -1.7036 H   0  0  0  0  0  0  0  0  0  0  0  0
   -1.2833   12.7943   -3.0626 H   0  0  0  0  0  0  0  0  0  0  0  0
    1.8823   11.2223   -1.9945 H   0  0  0  0  0  0  0  0  0  0  0  0
    0.5442   11.1832   -3.1922 H   0  0  0  0  0  0  0  0  0  0  0  0
    1.7099   12.5499   -3.1922 H   0  0  0  0  0  0  0  0  0  0  0  0
  1  2  1  0
  2  3  1  0
  3  4  1  0
  4  5  1  0
  5  6  1  0
  6  7  1  0
  7  8  1  0
  7  9  1  0
  2 10  1  0
 10 11  1  0
 11 12  1  0
 12 13  1  0
 13 14  1  1
 13 15  1  0
 15 16  1  0
 16 17  1  0
 17 18  2  0
 18 19  1  0
 19 20  1  0
 20 21  1  0
 21 22  1  0
 22 23  1  0
 22 24  1  0
 24 25  1  0
 24 26  1  0
 19 27  1  0
 27 28  1  6
 27 29  1  0
 29 30  1  0
 30 31  1  0
 31 32  1  6
  7  5  1  0
 31 10  1  0
 31 13  1  0
 27 15  1  0
 24 18  1  0
  1 33  1  0
  1 34  1  0
  1 35  1  0
  2 36  1  6
  3 37  1  0
  3 38  1  0
  4 39  1  0
  4 40  1  0
  5 41  1  1
  8 42  1  0
  8 43  1  0
  8 44  1  0
  9 45  1  0
  9 46  1  0
  9 47  1  0
 10 48  1  1
 11 49  1  0
 11 50  1  0
 12 51  1  0
 12 52  1  0
 14 53  1  0
 14 54  1  0
 14 55  1  0
 15 56  1  6
 16 57  1  0
 16 58  1  0
 17 59  1  0
 19 60  1  1
 20 61  1  0
 20 62  1  0
 21 63  1  0
 21 64  1  0
 22 65  1  1
 23 66  1  0
 25 67  1  0
 25 68  1  0
 25 69  1  0
 26 70  1  0
 26 71  1  0
 26 72  1  0
 28 73  1  0
 28 74  1  0
 28 75  1  0
 29 76  1  0
 29 77  1  0
 30 78  1  0
 30 79  1  0
 32 80  1  0
 32 81  1  0
 32 82  1  0
M  END
>  <meeko>  (15) 
{"is_sidechain": [false], "intermolecular_energy": 2.731, "internal_energy": -0.839}

$$$$
EPH_relaxed_0001_pdb2pqr_Repair_403_r2_0001_out
     RDKit          3D

 82 86  0  0  0  0  0  0  0  0999 V2000
    2.8780   11.3800   -5.3790 C   0  0  0  0  0  0  0  0  0  0  0  0
    1.8850   11.0690   -4.2560 C   0  0  2  0  0  0  0  0  0  0  0  0
    0.7720   10.1050   -4.7150 C   0  0  0  0  0  0  0  0  0  0  0  0
   -0.3130    9.8700   -3.6600 C   0  0  0  0  0  0  0  0  0  0  0  0
    0.1940    9.0420   -2.5190 C   0  0  2  0  0  0  0  0  0  0  0  0
   -0.6760    7.9730   -2.1220 O   0  0  0  0  0  0  0  0  0  0  0  0
   -0.4630    9.0110   -1.1510 C   0  0  0  0  0  0  0  0  0  0  0  0
   -1.6830    9.8250   -0.8530 C   0  0  0  0  0  0  0  0  0  0  0  0
    0.3540    8.5760    0.0250 C   0  0  0  0  0  0  0  0  0  0  0  0
    1.2710   12.3620   -3.7320 C   0  0  1  0  0  0  0  0  0  0  0  0
   -0.2700   12.2670   -3.5660 C   0  0  0  0  0  0  0  0  0  0  0  0
   -0.6380   13.1190   -2.3240 C   0  0  0  0  0  0  0  0  0  0  0  0
    0.6390   13.9360   -2.0180 C   0  0  1  0  0  0  0  0  0  0  0  0
    0.5940   15.1380   -3.0120 C   0  0  0  0  0  0  0  0  0  0  0  0
    0.8150   14.4150   -0.5400 C   0  0  2  0  0  0  0  0  0  0  0  0
   -0.2720   15.3790   -0.0330 C   0  0  0  0  0  0  0  0  0  0  0  0
    0.0150   16.8300   -0.2420 C   0  0  0  0  0  0  0  0  0  0  0  0
    1.2160   17.3530   -0.5520 C   0  0  0  0  0  0  0  0  0  0  0  0
    2.4660   16.4670   -0.6260 C   0  0  1  0  0  0  0  0  0  0  0  0
    3.6310   17.1500    0.1350 C   0  0  0  0  0  0  0  0  0  0  0  0
    3.8940   18.5720   -0.3520 C   0  0  0  0  0  0  0  0  0  0  0  0
    2.6450   19.4380   -0.2080 C   0  0  2  0  0  0  0  0  0  0  0  0
    2.3610   19.6080    1.1840 O   0  0  0  0  0  0  0  0  0  0  0  0
    1.4020   18.8440   -0.9270 C   0  0  0  0  0  0  0  0  0  0  0  0
    1.5930   18.9390   -2.4610 C   0  0  0  0  0  0  0  0  0  0  0  0
    0.1800   19.7390   -0.5850 C   0  0  0  0  0  0  0  0  0  0  0  0
    2.2660   14.9490   -0.2000 C   0  0  1  0  0  0  0  0  0  0  0  0
    2.4440   14.8010    1.3420 C   0  0  0  0  0  0  0  0  0  0  0  0
    3.3950   14.0750   -0.8640 C   0  0  0  0  0  0  0  0  0  0  0  0
    3.1120   13.5310   -2.2770 C   0  0  0  0  0  0  0  0  0  0  0  0
    1.7380   12.8590   -2.3410 C   0  0  2  0  0  0  0  0  0  0  0  0
    1.7600   11.6320   -1.3670 C   0  0  0  0  0  0  0  0  0  0  0  0
    3.8418   11.6818   -4.9431 H   0  0  0  0  0  0  0  0  0  0  0  0
    3.0213   10.4837   -6.0004 H   0  0  0  0  0  0  0  0  0  0  0  0
    2.4844   12.1979   -6.0004 H   0  0  0  0  0  0  0  0  0  0  0  0
    2.4428   10.5692   -3.4503 H   0  0  0  0  0  0  0  0  0  0  0  0
    0.2972   10.5256   -5.6137 H   0  0  0  0  0  0  0  0  0  0  0  0
    1.2486    9.1326   -4.9080 H   0  0  0  0  0  0  0  0  0  0  0  0
   -0.6501   10.8427   -3.2725 H   0  0  0  0  0  0  0  0  0  0  0  0
   -1.1425    9.3266   -4.1361 H   0  0  0  0  0  0  0  0  0  0  0  0
    1.2356    9.2031   -2.8338 H   0  0  0  0  0  0  0  0  0  0  0  0
   -1.8101    9.9098    0.2363 H   0  0  0  0  0  0  0  0  0  0  0  0
   -1.5693   10.8289   -1.2882 H   0  0  0  0  0  0  0  0  0  0  0  0
   -2.5663    9.3346   -1.2882 H   0  0  0  0  0  0  0  0  0  0  0  0
   -0.1652    8.8524    0.9545 H   0  0  0  0  0  0  0  0  0  0  0  0
    0.4917    7.4851   -0.0076 H   0  0  0  0  0  0  0  0  0  0  0  0
    1.3359    9.0707   -0.0076 H   0  0  0  0  0  0  0  0  0  0  0  0
    1.6115   13.0576   -4.5132 H   0  0  0  0  0  0  0  0  0  0  0  0
   -0.7728   12.6638   -4.4603 H   0  0  0  0  0  0  0  0  0  0  0  0
   -0.5904   11.2225   -3.4382 H   0  0  0  0  0  0  0  0  0  0  0  0
   -1.4822   13.7876   -2.5482 H   0  0  0  0  0  0  0  0  0  0  0  0
   -0.9505   12.4989   -1.4709 H   0  0  0  0  0  0  0  0  0  0  0  0
    0.5587   16.0806   -2.4461 H   0  0  0  0  0  0  0  0  0  0  0  0
    1.4933   15.1240   -3.6453 H   0  0  0  0  0  0  0  0  0  0  0  0
   -0.3017   15.0568   -3.6453 H   0  0  0  0  0  0  0  0  0  0  0  0
    0.6767   13.4834    0.0282 H   0  0  0  0  0  0  0  0  0  0  0  0
   -1.2098   15.1392   -0.5555 H   0  0  0  0  0  0  0  0  0  0  0  0
   -0.3250   15.2327    1.0559 H   0  0  0  0  0  0  0  0  0  0  0  0
   -0.8263   17.5304   -0.1334 H   0  0  0  0  0  0  0  0  0  0  0  0
    2.7163   16.3836   -1.6939 H   0  0  0  0  0  0  0  0  0  0  0  0
    3.3806   17.1846    1.2056 H   0  0  0  0  0  0  0  0  0  0  0  0
    4.5412   16.5603   -0.0490 H   0  0  0  0  0  0  0  0  0  0  0  0
    4.7076   19.0118    0.2436 H   0  0  0  0  0  0  0  0  0  0  0  0
    4.1733   18.5329   -1.4152 H   0  0  0  0  0  0  0  0  0  0  0  0
    2.8545   20.4036   -0.6914 H   0  0  0  0  0  0  0  0  0  0  0  0
    2.3260   20.5630    1.3630 H   0  0  0  0  0  0  0  0  0  0  0  0
    2.5579   19.4189   -2.6813 H   0  0  0  0  0  0  0  0  0  0  0  0
    1.5783   17.9286   -2.8956 H   0  0  0  0  0  0  0  0  0  0  0  0
    0.7784   19.5369   -2.8956 H   0  0  0  0  0  0  0  0  0  0  0  0
    0.0757   19.8154    0.5074 H   0  0  0  0  0  0  0  0  0  0  0  0
    0.3300   20.7424   -1.0101 H   0  0  0  0  0  0  0  0  0  0  0  0
   -0.7314   19.2932   -1.0101 H   0  0  0  0  0  0  0  0  0  0  0  0
    1.6972   15.4219    1.8586 H   0  0  0  0  0  0  0  0  0  0  0  0
    2.3059   13.7477    1.6276 H   0  0  0  0  0  0  0  0  0  0  0  0
    3.4544   15.1290    1.6276 H   0  0  0  0  0  0  0  0  0  0  0  0
    4.3035   14.6925   -0.9210 H   0  0  0  0  0  0  0  0  0  0  0  0
    3.4823   13.1840   -0.2249 H   0  0  0  0  0  0  0  0  0  0  0  0
    3.1390   14.3638   -2.9952 H   0  0  0  0  0  0  0  0  0  0  0  0
    3.8798   12.7833   -2.5250 H   0  0  0  0  0  0  0  0  0  0  0  0
    1.7536   11.9895   -0.3267 H   0  0  0  0  0  0  0  0  0  0  0  0
    0.8729   11.0064   -1.5452 H   0  0  0  0  0  0  0  0  0  0  0  0
    2.6689   11.0386   -1.5452 H   0  0  0  0  0  0  0  0  0  0  0  0
  1  2  1  0
  2  3  1  0
  3  4  1  0
  4  5  1  0
  5  6  1  0
  6  7  1  0
  7  8  1  0
  7  9  1  0
  2 10  1  0
 10 11  1  0
 11 12  1  0
 12 13  1  0
 13 14  1  6
 13 15  1  0
 15 16  1  0
 16 17  1  0
 17 18  2  0
 18 19  1  0
 19 20  1  0
 20 21  1  0
 21 22  1  0
 22 23  1  0
 22 24  1  0
 24 25  1  0
 24 26  1  0
 19 27  1  0
 27 28  1  1
 27 29  1  0
 29 30  1  0
 30 31  1  0
 31 32  1  1
  7  5  1  0
 31 10  1  0
 31 13  1  0
 27 15  1  0
 24 18  1  0
  1 33  1  0
  1 34  1  0
  1 35  1  0
  2 36  1  1
  3 37  1  0
  3 38  1  0
  4 39  1  0
  4 40  1  0
  5 41  1  1
  8 42  1  0
  8 43  1  0
  8 44  1  0
  9 45  1  0
  9 46  1  0
  9 47  1  0
 10 48  1  6
 11 49  1  0
 11 50  1  0
 12 51  1  0
 12 52  1  0
 14 53  1  0
 14 54  1  0
 14 55  1  0
 15 56  1  1
 16 57  1  0
 16 58  1  0
 17 59  1  0
 19 60  1  6
 20 61  1  0
 20 62  1  0
 21 63  1  0
 21 64  1  0
 22 65  1  6
 23 66  1  0
 25 67  1  0
 25 68  1  0
 25 69  1  0
 26 70  1  0
 26 71  1  0
 26 72  1  0
 28 73  1  0
 28 74  1  0
 28 75  1  0
 29 76  1  0
 29 77  1  0
 30 78  1  0
 30 79  1  0
 32 80  1  0
 32 81  1  0
 32 82  1  0
M  END
>  <meeko>  (16) 
{"is_sidechain": [false], "intermolecular_energy": 2.731, "internal_energy": -0.839}

$$$$
EPH_relaxed_0001_pdb2pqr_Repair_403_r2_0001_out
     RDKit          3D

 82 86  0  0  0  0  0  0  0  0999 V2000
    0.8820   14.8340   -2.6100 C   0  0  0  0  0  0  0  0  0  0  0  0
    1.1680   14.1510   -3.9500 C   0  0  2  0  0  0  0  0  0  0  0  0
    0.4900   14.8780   -5.1290 C   0  0  0  0  0  0  0  0  0  0  0  0
    1.1510   14.6050   -6.4830 C   0  0  0  0  0  0  0  0  0  0  0  0
    0.8840   15.7080   -7.4620 C   0  0  2  0  0  0  0  0  0  0  0  0
    0.3900   15.2710   -8.7350 O   0  0  0  0  0  0  0  0  0  0  0  0
    1.6810   15.9030   -8.7390 C   0  0  0  0  0  0  0  0  0  0  0  0
    2.8060   14.9870   -9.1050 C   0  0  0  0  0  0  0  0  0  0  0  0
    1.6870   17.2570   -9.3780 C   0  0  0  0  0  0  0  0  0  0  0  0
    0.7110   12.6980   -3.9010 C   0  0  1  0  0  0  0  0  0  0  0  0
    1.8430   11.7030   -4.2690 C   0  0  0  0  0  0  0  0  0  0  0  0
    1.6280   10.4380   -3.3980 C   0  0  0  0  0  0  0  0  0  0  0  0
    0.2080   10.6080   -2.8090 C   0  0  1  0  0  0  0  0  0  0  0  0
   -0.7560   10.1430   -3.9450 C   0  0  0  0  0  0  0  0  0  0  0  0
   -0.0770    9.8580   -1.4670 C   0  0  2  0  0  0  0  0  0  0  0  0
    0.0220    8.3240   -1.5430 C   0  0  0  0  0  0  0  0  0  0  0  0
   -1.2490    7.6190   -1.8810 C   0  0  0  0  0  0  0  0  0  0  0  0
   -2.4800    8.1610   -1.8360 C   0  0  0  0  0  0  0  0  0  0  0  0
   -2.6940    9.5890   -1.3190 C   0  0  1  0  0  0  0  0  0  0  0  0
   -3.8860    9.6080   -0.3260 C   0  0  0  0  0  0  0  0  0  0  0  0
   -5.1550    9.0090   -0.9250 C   0  0  0  0  0  0  0  0  0  0  0  0
   -4.9180    7.5690   -1.3740 C   0  0  2  0  0  0  0  0  0  0  0  0
   -4.6780    6.7590   -0.2200 O   0  0  0  0  0  0  0  0  0  0  0  0
   -3.7340    7.4250   -2.3700 C   0  0  0  0  0  0  0  0  0  0  0  0
   -4.1210    8.0500   -3.7330 C   0  0  0  0  0  0  0  0  0  0  0  0
   -3.5130    5.9110   -2.6340 C   0  0  0  0  0  0  0  0  0  0  0  0
   -1.4050   10.3160   -0.7380 C   0  0  1  0  0  0  0  0  0  0  0  0
   -1.2290    9.9630    0.7700 C   0  0  0  0  0  0  0  0  0  0  0  0
   -1.6180   11.8740   -0.8070 C   0  0  0  0  0  0  0  0  0  0  0  0
   -1.2060   12.5750   -2.1160 C   0  0  0  0  0  0  0  0  0  0  0  0
    0.2050   12.1570   -2.5410 C   0  0  2  0  0  0  0  0  0  0  0  0
    1.2000   12.6310   -1.4270 C   0  0  0  0  0  0  0  0  0  0  0  0
    1.1641   14.1603   -1.7875 H   0  0  0  0  0  0  0  0  0  0  0  0
    1.4666   15.7631   -2.5399 H   0  0  0  0  0  0  0  0  0  0  0  0
   -0.1902   15.0693   -2.5399 H   0  0  0  0  0  0  0  0  0  0  0  0
    2.2543   14.1931   -4.1176 H   0  0  0  0  0  0  0  0  0  0  0  0
   -0.5587   14.5503   -5.1822 H   0  0  0  0  0  0  0  0  0  0  0  0
    0.5834   15.9572   -4.9376 H   0  0  0  0  0  0  0  0  0  0  0  0
    2.2374   14.5127   -6.3373 H   0  0  0  0  0  0  0  0  0  0  0  0
    0.7278   13.6749   -6.8902 H   0  0  0  0  0  0  0  0  0  0  0  0
    0.6130   16.3974   -6.6488 H   0  0  0  0  0  0  0  0  0  0  0  0
    3.2784   14.6023   -8.1891 H   0  0  0  0  0  0  0  0  0  0  0  0
    2.4162   14.1461   -9.6975 H   0  0  0  0  0  0  0  0  0  0  0  0
    3.5504   15.5391   -9.6975 H   0  0  0  0  0  0  0  0  0  0  0  0
    1.6904   18.0312   -8.5966 H   0  0  0  0  0  0  0  0  0  0  0  0
    2.5856   17.3633  -10.0034 H   0  0  0  0  0  0  0  0  0  0  0  0
    0.7894   17.3713  -10.0034 H   0  0  0  0  0  0  0  0  0  0  0  0
   -0.1197   12.7420   -4.6207 H   0  0  0  0  0  0  0  0  0  0  0  0
    1.7859   11.4422   -5.3361 H   0  0  0  0  0  0  0  0  0  0  0  0
    2.8330   12.1456   -4.0847 H   0  0  0  0  0  0  0  0  0  0  0  0
    1.6871    9.5280   -4.0132 H   0  0  0  0  0  0  0  0  0  0  0  0
    2.3947   10.3341   -2.6161 H   0  0  0  0  0  0  0  0  0  0  0  0
   -1.6623    9.7058   -3.5007 H   0  0  0  0  0  0  0  0  0  0  0  0
   -1.0327   11.0067   -4.5675 H   0  0  0  0  0  0  0  0  0  0  0  0
   -0.2523    9.3888   -4.5675 H   0  0  0  0  0  0  0  0  0  0  0  0
    0.7625   10.1805   -0.8336 H   0  0  0  0  0  0  0  0  0  0  0  0
    0.7667    8.0692   -2.3114 H   0  0  0  0  0  0  0  0  0  0  0  0
    0.2977    7.9865   -0.5330 H   0  0  0  0  0  0  0  0  0  0  0  0
   -1.1733    6.5670   -2.1935 H   0  0  0  0  0  0  0  0  0  0  0  0
   -2.9346   10.1989   -2.2022 H   0  0  0  0  0  0  0  0  0  0  0  0
   -3.6101    9.0287    0.5674 H   0  0  0  0  0  0  0  0  0  0  0  0
   -4.0973   10.6585   -0.0775 H   0  0  0  0  0  0  0  0  0  0  0  0
   -5.9525    9.0235   -0.1675 H   0  0  0  0  0  0  0  0  0  0  0  0
   -5.4465    9.6070   -1.8010 H   0  0  0  0  0  0  0  0  0  0  0  0
   -5.8200    7.2382   -1.9097 H   0  0  0  0  0  0  0  0  0  0  0  0
   -3.7880    6.3770   -0.3080 H   0  0  0  0  0  0  0  0  0  0  0  0
   -4.6932    8.9740   -3.5634 H   0  0  0  0  0  0  0  0  0  0  0  0
   -3.2088    8.2828   -4.3019 H   0  0  0  0  0  0  0  0  0  0  0  0
   -4.7360    7.3371   -4.3019 H   0  0  0  0  0  0  0  0  0  0  0  0
   -3.4353    5.3790   -1.6744 H   0  0  0  0  0  0  0  0  0  0  0  0
   -4.3623    5.5110   -3.2073 H   0  0  0  0  0  0  0  0  0  0  0  0
   -2.5848    5.7704   -3.2073 H   0  0  0  0  0  0  0  0  0  0  0  0
   -1.6353   10.7779    1.3872 H   0  0  0  0  0  0  0  0  0  0  0  0
   -1.7675    9.0303    0.9935 H   0  0  0  0  0  0  0  0  0  0  0  0
   -0.1600    9.8318    0.9935 H   0  0  0  0  0  0  0  0  0  0  0  0
   -2.6883   12.0708   -0.6469 H   0  0  0  0  0  0  0  0  0  0  0  0
   -0.9521   12.2896   -0.0364 H   0  0  0  0  0  0  0  0  0  0  0  0
   -1.9168   12.3016   -2.9098 H   0  0  0  0  0  0  0  0  0  0  0  0
   -1.2145   13.6623   -1.9494 H   0  0  0  0  0  0  0  0  0  0  0  0
    0.7672   12.4248   -0.4369 H   0  0  0  0  0  0  0  0  0  0  0  0
    2.1519   12.0896   -1.5310 H   0  0  0  0  0  0  0  0  0  0  0  0
    1.3793   13.7113   -1.5310 H   0  0  0  0  0  0  0  0  0  0  0  0
  1  2  1  0
  2  3  1  0
  3  4  1  0
  4  5  1  0
  5  6  1  0
  6  7  1  0
  7  8  1  0
  7  9  1  0
  2 10  1  0
 10 11  1  0
 11 12  1  0
 12 13  1  0
 13 14  1  6
 13 15  1  0
 15 16  1  0
 16 17  1  0
 17 18  2  0
 18 19  1  0
 19 20  1  0
 20 21  1  0
 21 22  1  0
 22 23  1  0
 22 24  1  0
 24 25  1  0
 24 26  1  0
 19 27  1  0
 27 28  1  1
 27 29  1  0
 29 30  1  0
 30 31  1  0
 31 32  1  1
  7  5  1  0
 31 10  1  0
 31 13  1  0
 27 15  1  0
 24 18  1  0
  1 33  1  0
  1 34  1  0
  1 35  1  0
  2 36  1  6
  3 37  1  0
  3 38  1  0
  4 39  1  0
  4 40  1  0
  5 41  1  1
  8 42  1  0
  8 43  1  0
  8 44  1  0
  9 45  1  0
  9 46  1  0
  9 47  1  0
 10 48  1  6
 11 49  1  0
 11 50  1  0
 12 51  1  0
 12 52  1  0
 14 53  1  0
 14 54  1  0
 14 55  1  0
 15 56  1  1
 16 57  1  0
 16 58  1  0
 17 59  1  0
 19 60  1  6
 20 61  1  0
 20 62  1  0
 21 63  1  0
 21 64  1  0
 22 65  1  6
 23 66  1  0
 25 67  1  0
 25 68  1  0
 25 69  1  0
 26 70  1  0
 26 71  1  0
 26 72  1  0
 28 73  1  0
 28 74  1  0
 28 75  1  0
 29 76  1  0
 29 77  1  0
 30 78  1  0
 30 79  1  0
 32 80  1  0
 32 81  1  0
 32 82  1  0
M  END
>  <meeko>  (17) 
{"is_sidechain": [false], "intermolecular_energy": 2.731, "internal_energy": -0.839}

$$$$
EPH_relaxed_0001_pdb2pqr_Repair_403_r2_0001_out
     RDKit          3D

 82 86  0  0  0  0  0  0  0  0999 V2000
   -1.7020   14.9130    0.4910 C   0  0  0  0  0  0  0  0  0  0  0  0
   -0.3600   15.6100    0.2500 C   0  0  2  0  0  0  0  0  0  0  0  0
   -0.4250   16.6050   -0.9260 C   0  0  0  0  0  0  0  0  0  0  0  0
   -0.0190   18.0320   -0.5480 C   0  0  0  0  0  0  0  0  0  0  0  0
    1.4020   18.0980   -0.0770 C   0  0  2  0  0  0  0  0  0  0  0  0
    2.1000   19.2950   -0.4480 O   0  0  0  0  0  0  0  0  0  0  0  0
    2.5960   18.0700   -1.0130 C   0  0  0  0  0  0  0  0  0  0  0  0
    2.4220   17.9720   -2.4970 C   0  0  0  0  0  0  0  0  0  0  0  0
    3.9240   17.6480   -0.4670 C   0  0  0  0  0  0  0  0  0  0  0  0
    0.7270   14.5720   -0.0050 C   0  0  1  0  0  0  0  0  0  0  0  0
    0.8610   13.5500    1.1560 C   0  0  0  0  0  0  0  0  0  0  0  0
    1.2300   12.1890    0.5120 C   0  0  0  0  0  0  0  0  0  0  0  0
    1.6190   12.5380   -0.9430 C   0  0  1  0  0  0  0  0  0  0  0  0
    3.0950   13.0380   -0.8540 C   0  0  0  0  0  0  0  0  0  0  0  0
    1.4610   11.3920   -1.9950 C   0  0  2  0  0  0  0  0  0  0  0  0
    2.3420   10.1550   -1.7490 C   0  0  0  0  0  0  0  0  0  0  0  0
    3.6840   10.1880   -2.4030 C   0  0  0  0  0  0  0  0  0  0  0  0
    4.0550   11.0320   -3.3840 C   0  0  0  0  0  0  0  0  0  0  0  0
    3.0500   12.0130   -4.0020 C   0  0  1  0  0  0  0  0  0  0  0  0
    3.1670   11.9680   -5.5480 C   0  0  0  0  0  0  0  0  0  0  0  0
    4.5930   12.2100   -6.0340 C   0  0  0  0  0  0  0  0  0  0  0  0
    5.5530   11.1800   -5.4440 C   0  0  2  0  0  0  0  0  0  0  0  0
    5.2310    9.8920   -5.9780 O   0  0  0  0  0  0  0  0  0  0  0  0
    5.5160   11.1270   -3.8910 C   0  0  0  0  0  0  0  0  0  0  0  0
    6.1490   12.4160   -3.3110 C   0  0  0  0  0  0  0  0  0  0  0  0
    6.4220    9.9530   -3.4320 C   0  0  0  0  0  0  0  0  0  0  0  0
    1.5490   11.8750   -3.4990 C   0  0  1  0  0  0  0  0  0  0  0  0
    0.7970   10.8100   -4.3540 C   0  0  0  0  0  0  0  0  0  0  0  0
    0.8020   13.2410   -3.7330 C   0  0  0  0  0  0  0  0  0  0  0  0
    0.8970   14.2870   -2.6060 C   0  0  0  0  0  0  0  0  0  0  0  0
    0.5640   13.6620   -1.2480 C   0  0  2  0  0  0  0  0  0  0  0  0
   -0.9230   13.1690   -1.3000 C   0  0  0  0  0  0  0  0  0  0  0  0
   -1.8785   14.8213    1.5729 H   0  0  0  0  0  0  0  0  0  0  0  0
   -2.5097   15.5055    0.0366 H   0  0  0  0  0  0  0  0  0  0  0  0
   -1.6818   13.9114    0.0366 H   0  0  0  0  0  0  0  0  0  0  0  0
   -0.1190   16.1854    1.1560 H   0  0  0  0  0  0  0  0  0  0  0  0
    0.2501   16.2503   -1.7187 H   0  0  0  0  0  0  0  0  0  0  0  0
   -1.4738   16.6457   -1.2551 H   0  0  0  0  0  0  0  0  0  0  0  0
   -0.1328   18.6802   -1.4294 H   0  0  0  0  0  0  0  0  0  0  0  0
   -0.6685   18.3667    0.2743 H   0  0  0  0  0  0  0  0  0  0  0  0
    1.1562   17.5144    0.8224 H   0  0  0  0  0  0  0  0  0  0  0  0
    1.4838   17.4436   -2.7221 H   0  0  0  0  0  0  0  0  0  0  0  0
    2.3864   18.9828   -2.9295 H   0  0  0  0  0  0  0  0  0  0  0  0
    3.2679   17.4176   -2.9295 H   0  0  0  0  0  0  0  0  0  0  0  0
    3.8888   17.6592    0.6324 H   0  0  0  0  0  0  0  0  0  0  0  0
    4.1577   16.6313   -0.8160 H   0  0  0  0  0  0  0  0  0  0  0  0
    4.7017   18.3433   -0.8160 H   0  0  0  0  0  0  0  0  0  0  0  0
    1.5915   15.2391   -0.1381 H   0  0  0  0  0  0  0  0  0  0  0  0
    1.6524   13.8674    1.8509 H   0  0  0  0  0  0  0  0  0  0  0  0
   -0.0759   13.4759    1.7276 H   0  0  0  0  0  0  0  0  0  0  0  0
    2.0770   11.7266    1.0400 H   0  0  0  0  0  0  0  0  0  0  0  0
    0.4018   11.4667    0.5603 H   0  0  0  0  0  0  0  0  0  0  0  0
    3.3857   13.1365    0.2023 H   0  0  0  0  0  0  0  0  0  0  0  0
    3.7579   12.3143   -1.3508 H   0  0  0  0  0  0  0  0  0  0  0  0
    3.1816   14.0156   -1.3508 H   0  0  0  0  0  0  0  0  0  0  0  0
    0.4258   11.0597   -1.8276 H   0  0  0  0  0  0  0  0  0  0  0  0
    2.4948   10.0568   -0.6641 H   0  0  0  0  0  0  0  0  0  0  0  0
    1.8058    9.3053   -2.1969 H   0  0  0  0  0  0  0  0  0  0  0  0
    4.4325    9.4615   -2.0538 H   0  0  0  0  0  0  0  0  0  0  0  0
    3.3330   13.0108   -3.6355 H   0  0  0  0  0  0  0  0  0  0  0  0
    2.8384   10.9782   -5.8979 H   0  0  0  0  0  0  0  0  0  0  0  0
    2.5349   12.7713   -5.9543 H   0  0  0  0  0  0  0  0  0  0  0  0
    4.6166   12.1369   -7.1313 H   0  0  0  0  0  0  0  0  0  0  0  0
    4.9096   13.2118   -5.7082 H   0  0  0  0  0  0  0  0  0  0  0  0
    6.5735   11.4817   -5.7225 H   0  0  0  0  0  0  0  0  0  0  0  0
    5.6330    9.2240   -5.3970 H   0  0  0  0  0  0  0  0  0  0  0  0
    6.1277   12.3725   -2.2121 H   0  0  0  0  0  0  0  0  0  0  0  0
    7.1906   12.4996   -3.6545 H   0  0  0  0  0  0  0  0  0  0  0  0
    5.5783   13.2914   -3.6545 H   0  0  0  0  0  0  0  0  0  0  0  0
    6.4486    9.9185   -2.3329 H   0  0  0  0  0  0  0  0  0  0  0  0
    6.0186    9.0056   -3.8189 H   0  0  0  0  0  0  0  0  0  0  0  0
    7.4407   10.1030   -3.8189 H   0  0  0  0  0  0  0  0  0  0  0  0
    0.2921   10.0949   -3.6878 H   0  0  0  0  0  0  0  0  0  0  0  0
    0.0505   11.3099   -4.9887 H   0  0  0  0  0  0  0  0  0  0  0  0
    1.5178   10.2738   -4.9887 H   0  0  0  0  0  0  0  0  0  0  0  0
    1.2173   13.6954   -4.6446 H   0  0  0  0  0  0  0  0  0  0  0  0
   -0.2646   12.9790   -3.7931 H   0  0  0  0  0  0  0  0  0  0  0  0
    1.9198   14.6907   -2.5751 H   0  0  0  0  0  0  0  0  0  0  0  0
    0.1723   15.0890   -2.8100 H   0  0  0  0  0  0  0  0  0  0  0  0
   -1.3035   13.0428   -0.2756 H   0  0  0  0  0  0  0  0  0  0  0  0
   -1.5372   13.9116   -1.8304 H   0  0  0  0  0  0  0  0  0  0  0  0
   -0.9719   12.2066   -1.8304 H   0  0  0  0  0  0  0  0  0  0  0  0
  1  2  1  0
  2  3  1  0
  3  4  1  0
  4  5  1  0
  5  6  1  0
  6  7  1  0
  7  8  1  0
  7  9  1  0
  2 10  1  0
 10 11  1  0
 11 12  1  0
 12 13  1  0
 13 14  1  1
 13 15  1  0
 15 16  1  0
 16 17  1  0
 17 18  2  0
 18 19  1  0
 19 20  1  0
 20 21  1  0
 21 22  1  0
 22 23  1  0
 22 24  1  0
 24 25  1  0
 24 26  1  0
 19 27  1  0
 27 28  1  6
 27 29  1  0
 29 30  1  0
 30 31  1  0
 31 32  1  6
  7  5  1  0
 31 10  1  0
 31 13  1  0
 27 15  1  0
 24 18  1  0
  1 33  1  0
  1 34  1  0
  1 35  1  0
  2 36  1  1
  3 37  1  0
  3 38  1  0
  4 39  1  0
  4 40  1  0
  5 41  1  1
  8 42  1  0
  8 43  1  0
  8 44  1  0
  9 45  1  0
  9 46  1  0
  9 47  1  0
 10 48  1  6
 11 49  1  0
 11 50  1  0
 12 51  1  0
 12 52  1  0
 14 53  1  0
 14 54  1  0
 14 55  1  0
 15 56  1  6
 16 57  1  0
 16 58  1  0
 17 59  1  0
 19 60  1  1
 20 61  1  0
 20 62  1  0
 21 63  1  0
 21 64  1  0
 22 65  1  1
 23 66  1  0
 25 67  1  0
 25 68  1  0
 25 69  1  0
 26 70  1  0
 26 71  1  0
 26 72  1  0
 28 73  1  0
 28 74  1  0
 28 75  1  0
 29 76  1  0
 29 77  1  0
 30 78  1  0
 30 79  1  0
 32 80  1  0
 32 81  1  0
 32 82  1  0
M  END
>  <meeko>  (18) 
{"is_sidechain": [false], "intermolecular_energy": 2.731, "internal_energy": -0.839}

$$$$
EPH_relaxed_0001_pdb2pqr_Repair_403_r2_0001_out
     RDKit          3D

 82 86  0  0  0  0  0  0  0  0999 V2000
    0.7930   14.6990   -4.6910 C   0  0  0  0  0  0  0  0  0  0  0  0
    0.6210   14.1130   -3.2870 C   0  0  2  0  0  0  0  0  0  0  0  0
    1.8950   14.2690   -2.4330 C   0  0  0  0  0  0  0  0  0  0  0  0
    1.8410   15.4470   -1.4560 C   0  0  0  0  0  0  0  0  0  0  0  0
    1.1110   16.6180   -2.0400 C   0  0  2  0  0  0  0  0  0  0  0  0
    1.9490   17.5860   -2.6840 O   0  0  0  0  0  0  0  0  0  0  0  0
    1.2460   18.0350   -1.5140 C   0  0  0  0  0  0  0  0  0  0  0  0
    2.1370   18.3550   -0.3550 C   0  0  0  0  0  0  0  0  0  0  0  0
    0.1530   19.0140   -1.8070 C   0  0  0  0  0  0  0  0  0  0  0  0
    0.2340   12.6420   -3.3810 C   0  0  1  0  0  0  0  0  0  0  0  0
    1.4460   11.7240   -3.6930 C   0  0  0  0  0  0  0  0  0  0  0  0
    1.2060   10.3940   -2.9340 C   0  0  0  0  0  0  0  0  0  0  0  0
   -0.2730   10.4610   -2.4860 C   0  0  1  0  0  0  0  0  0  0  0  0
   -1.0920   10.0360   -3.7450 C   0  0  0  0  0  0  0  0  0  0  0  0
   -0.6550    9.6070   -1.2330 C   0  0  2  0  0  0  0  0  0  0  0  0
   -0.4720    8.0880   -1.3980 C   0  0  0  0  0  0  0  0  0  0  0  0
   -1.6660    7.3550   -1.9130 C   0  0  0  0  0  0  0  0  0  0  0  0
   -2.9210    7.8390   -1.9620 C   0  0  0  0  0  0  0  0  0  0  0  0
   -3.2570    9.2170   -1.3770 C   0  0  1  0  0  0  0  0  0  0  0  0
   -4.5420    9.1150   -0.5150 C   0  0  0  0  0  0  0  0  0  0  0  0
   -5.7130    8.5060   -1.2810 C   0  0  0  0  0  0  0  0  0  0  0  0
   -5.3610    7.1130   -1.7970 C   0  0  2  0  0  0  0  0  0  0  0  0
   -5.1990    6.2350   -0.6790 O   0  0  0  0  0  0  0  0  0  0  0  0
   -4.0760    7.0890   -2.6710 C   0  0  0  0  0  0  0  0  0  0  0  0
   -4.3530    7.7910   -4.0230 C   0  0  0  0  0  0  0  0  0  0  0  0
   -3.7550    5.6080   -3.0080 C   0  0  0  0  0  0  0  0  0  0  0  0
   -2.0710    9.9560   -0.6190 C   0  0  1  0  0  0  0  0  0  0  0  0
   -2.0320    9.5060    0.8740 C   0  0  0  0  0  0  0  0  0  0  0  0
   -2.3530   11.5050   -0.6080 C   0  0  0  0  0  0  0  0  0  0  0  0
   -1.8460   12.3120   -1.8180 C   0  0  0  0  0  0  0  0  0  0  0  0
   -0.3800   11.9860   -2.1190 C   0  0  2  0  0  0  0  0  0  0  0  0
    0.4720   12.4230   -0.8790 C   0  0  0  0  0  0  0  0  0  0  0  0
    1.1020   15.7519   -4.6136 H   0  0  0  0  0  0  0  0  0  0  0  0
    1.5621   14.1301   -5.2341 H   0  0  0  0  0  0  0  0  0  0  0  0
   -0.1615   14.6360   -5.2341 H   0  0  0  0  0  0  0  0  0  0  0  0
   -0.1815   14.6771   -2.7892 H   0  0  0  0  0  0  0  0  0  0  0  0
    2.0407   13.3447   -1.8547 H   0  0  0  0  0  0  0  0  0  0  0  0
    2.7253   14.4651   -3.1273 H   0  0  0  0  0  0  0  0  0  0  0  0
    1.3249   15.1263   -0.5391 H   0  0  0  0  0  0  0  0  0  0  0  0
    2.8729   15.7598   -1.2385 H   0  0  0  0  0  0  0  0  0  0  0  0
    0.2330   15.9920   -2.2571 H   0  0  0  0  0  0  0  0  0  0  0  0
    1.5994   18.1619    0.5850 H   0  0  0  0  0  0  0  0  0  0  0  0
    3.0368   17.7239   -0.3991 H   0  0  0  0  0  0  0  0  0  0  0  0
    2.4297   19.4144   -0.3991 H   0  0  0  0  0  0  0  0  0  0  0  0
   -0.2661   19.3894   -0.8618 H   0  0  0  0  0  0  0  0  0  0  0  0
    0.5600   19.8552   -2.3873 H   0  0  0  0  0  0  0  0  0  0  0  0
   -0.6384   18.5171   -2.3873 H   0  0  0  0  0  0  0  0  0  0  0  0
   -0.5207   12.7007   -4.1792 H   0  0  0  0  0  0  0  0  0  0  0  0
    1.5106   11.5365   -4.7750 H   0  0  0  0  0  0  0  0  0  0  0  0
    2.3892   12.1941   -3.3779 H   0  0  0  0  0  0  0  0  0  0  0  0
    1.3719    9.5328   -3.5979 H   0  0  0  0  0  0  0  0  0  0  0  0
    1.8936   10.2688   -2.0846 H   0  0  0  0  0  0  0  0  0  0  0  0
   -2.0269    9.5509   -3.4277 H   0  0  0  0  0  0  0  0  0  0  0  0
   -1.3268   10.9260   -4.3473 H   0  0  0  0  0  0  0  0  0  0  0  0
   -0.4995    9.3316   -4.3473 H   0  0  0  0  0  0  0  0  0  0  0  0
    0.0987    9.9194   -0.4952 H   0  0  0  0  0  0  0  0  0  0  0  0
    0.3588    7.9197   -2.0990 H   0  0  0  0  0  0  0  0  0  0  0  0
   -0.2834    7.6924   -0.3890 H   0  0  0  0  0  0  0  0  0  0  0  0
   -1.5066    6.3319   -2.2842 H   0  0  0  0  0  0  0  0  0  0  0  0
   -3.4373    9.8769   -2.2384 H   0  0  0  0  0  0  0  0  0  0  0  0
   -4.3293    8.4864    0.3623 H   0  0  0  0  0  0  0  0  0  0  0  0
   -4.8293   10.1354   -0.2214 H   0  0  0  0  0  0  0  0  0  0  0  0
   -6.5825    8.4329   -0.6112 H   0  0  0  0  0  0  0  0  0  0  0  0
   -5.9439    9.1515   -2.1413 H   0  0  0  0  0  0  0  0  0  0  0  0
   -6.1864    6.7833   -2.4451 H   0  0  0  0  0  0  0  0  0  0  0  0
   -5.5030    5.3520   -0.9510 H   0  0  0  0  0  0  0  0  0  0  0  0
   -4.7510    8.7996   -3.8377 H   0  0  0  0  0  0  0  0  0  0  0  0
   -3.4169    7.8657   -4.5959 H   0  0  0  0  0  0  0  0  0  0  0  0
   -5.0879    7.2064   -4.5959 H   0  0  0  0  0  0  0  0  0  0  0  0
   -3.6315    5.0382   -2.0752 H   0  0  0  0  0  0  0  0  0  0  0  0
   -4.5808    5.1780   -3.5938 H   0  0  0  0  0  0  0  0  0  0  0  0
   -2.8253    5.5585   -3.5938 H   0  0  0  0  0  0  0  0  0  0  0  0
   -2.1085   10.3892    1.5253 H   0  0  0  0  0  0  0  0  0  0  0  0
   -2.8748    8.8282    1.0748 H   0  0  0  0  0  0  0  0  0  0  0  0
   -1.0852    8.9833    1.0748 H   0  0  0  0  0  0  0  0  0  0  0  0
   -3.4425   11.6444   -0.5479 H   0  0  0  0  0  0  0  0  0  0  0  0
   -1.7902   11.8938    0.2534 H   0  0  0  0  0  0  0  0  0  0  0  0
   -2.4578   12.0639   -2.6979 H   0  0  0  0  0  0  0  0  0  0  0  0
   -1.9259   13.3837   -1.5832 H   0  0  0  0  0  0  0  0  0  0  0  0
   -0.0590   12.1507    0.0451 H   0  0  0  0  0  0  0  0  0  0  0  0
    1.4465   11.9134   -0.9057 H   0  0  0  0  0  0  0  0  0  0  0  0
    0.6267   13.5117   -0.9057 H   0  0  0  0  0  0  0  0  0  0  0  0
  1  2  1  0
  2  3  1  0
  3  4  1  0
  4  5  1  0
  5  6  1  0
  6  7  1  0
  7  8  1  0
  7  9  1  0
  2 10  1  0
 10 11  1  0
 11 12  1  0
 12 13  1  0
 13 14  1  6
 13 15  1  0
 15 16  1  0
 16 17  1  0
 17 18  2  0
 18 19  1  0
 19 20  1  0
 20 21  1  0
 21 22  1  0
 22 23  1  0
 22 24  1  0
 24 25  1  0
 24 26  1  0
 19 27  1  0
 27 28  1  1
 27 29  1  0
 29 30  1  0
 30 31  1  0
 31 32  1  1
  7  5  1  0
 31 10  1  0
 31 13  1  0
 27 15  1  0
 24 18  1  0
  1 33  1  0
  1 34  1  0
  1 35  1  0
  2 36  1  1
  3 37  1  0
  3 38  1  0
  4 39  1  0
  4 40  1  0
  5 41  1  6
  8 42  1  0
  8 43  1  0
  8 44  1  0
  9 45  1  0
  9 46  1  0
  9 47  1  0
 10 48  1  6
 11 49  1  0
 11 50  1  0
 12 51  1  0
 12 52  1  0
 14 53  1  0
 14 54  1  0
 14 55  1  0
 15 56  1  1
 16 57  1  0
 16 58  1  0
 17 59  1  0
 19 60  1  6
 20 61  1  0
 20 62  1  0
 21 63  1  0
 21 64  1  0
 22 65  1  6
 23 66  1  0
 25 67  1  0
 25 68  1  0
 25 69  1  0
 26 70  1  0
 26 71  1  0
 26 72  1  0
 28 73  1  0
 28 74  1  0
 28 75  1  0
 29 76  1  0
 29 77  1  0
 30 78  1  0
 30 79  1  0
 32 80  1  0
 32 81  1  0
 32 82  1  0
M  END
>  <meeko>  (19) 
{"is_sidechain": [false], "intermolecular_energy": 2.731, "internal_energy": -0.839}

$$$$
