EPH_relaxed_0001_pdb2pqr_Repair_233_r2_0001_out
     RDKit          3D

 82 86  0  0  0  0  0  0  0  0999 V2000
   -1.5960    8.5720   -1.8110 C   0  0  0  0  0  0  0  0  0  0  0  0
   -2.0040    9.1530   -0.4550 C   0  0  2  0  0  0  0  0  0  0  0  0
   -3.4920    9.5540   -0.4180 C   0  0  0  0  0  0  0  0  0  0  0  0
   -4.4470    8.3630   -0.2960 C   0  0  0  0  0  0  0  0  0  0  0  0
   -5.0790    8.0220   -1.6110 C   0  0  2  0  0  0  0  0  0  0  0  0
   -6.3420    8.6550   -1.8510 O   0  0  0  0  0  0  0  0  0  0  0  0
   -6.3620    7.2230   -1.7410 C   0  0  0  0  0  0  0  0  0  0  0  0
   -7.0900    6.7150   -0.5360 C   0  0  0  0  0  0  0  0  0  0  0  0
   -6.6410    6.5220   -3.0340 C   0  0  0  0  0  0  0  0  0  0  0  0
   -1.1320   10.3590   -0.1220 C   0  0  1  0  0  0  0  0  0  0  0  0
   -0.0560   10.0410    0.9500 C   0  0  0  0  0  0  0  0  0  0  0  0
    1.1990   10.8740    0.5860 C   0  0  0  0  0  0  0  0  0  0  0  0
    0.7030   11.8840   -0.4750 C   0  0  1  0  0  0  0  0  0  0  0  0
    0.0270   13.0270    0.3450 C   0  0  0  0  0  0  0  0  0  0  0  0
    1.7830   12.4400   -1.4590 C   0  0  2  0  0  0  0  0  0  0  0  0
    2.9130   13.2490   -0.7980 C   0  0  0  0  0  0  0  0  0  0  0  0
    2.6650   14.7170   -0.6850 C   0  0  0  0  0  0  0  0  0  0  0  0
    1.7140   15.4020   -1.3470 C   0  0  0  0  0  0  0  0  0  0  0  0
    0.8270   14.7110   -2.3910 C   0  0  1  0  0  0  0  0  0  0  0  0
    0.7480   15.5900   -3.6660 C   0  0  0  0  0  0  0  0  0  0  0  0
    0.2940   17.0160   -3.3670 C   0  0  0  0  0  0  0  0  0  0  0  0
    1.2330   17.6890   -2.3700 C   0  0  2  0  0  0  0  0  0  0  0  0
    2.5110   17.8670   -2.9880 O   0  0  0  0  0  0  0  0  0  0  0  0
    1.4000   16.8890   -1.0480 C   0  0  0  0  0  0  0  0  0  0  0  0
    0.0850   16.9530   -0.2310 C   0  0  0  0  0  0  0  0  0  0  0  0
    2.4790   17.6030   -0.1900 C   0  0  0  0  0  0  0  0  0  0  0  0
    1.1880   13.1980   -2.7140 C   0  0  1  0  0  0  0  0  0  0  0  0
    2.2770   13.1370   -3.8280 C   0  0  0  0  0  0  0  0  0  0  0  0
   -0.0860   12.4790   -3.2980 C   0  0  0  0  0  0  0  0  0  0  0  0
   -1.0540   11.8460   -2.2810 C   0  0  0  0  0  0  0  0  0  0  0  0
   -0.2980   10.9720   -1.2750 C   0  0  2  0  0  0  0  0  0  0  0  0
    0.3740    9.8000   -2.0680 C   0  0  0  0  0  0  0  0  0  0  0  0
   -0.9702    7.6809   -1.6548 H   0  0  0  0  0  0  0  0  0  0  0  0
   -2.4973    8.2926   -2.3764 H   0  0  0  0  0  0  0  0  0  0  0  0
   -1.0273    9.3249   -2.3764 H   0  0  0  0  0  0  0  0  0  0  0  0
   -1.8553    8.3662    0.2992 H   0  0  0  0  0  0  0  0  0  0  0  0
   -3.6517   10.2172    0.4449 H   0  0  0  0  0  0  0  0  0  0  0  0
   -3.7157   10.0491   -1.3745 H   0  0  0  0  0  0  0  0  0  0  0  0
   -3.8838    7.4901    0.0657 H   0  0  0  0  0  0  0  0  0  0  0  0
   -5.2468    8.6358    0.4082 H   0  0  0  0  0  0  0  0  0  0  0  0
   -4.0915    7.9141   -2.0834 H   0  0  0  0  0  0  0  0  0  0  0  0
   -6.5836    7.0684    0.3743 H   0  0  0  0  0  0  0  0  0  0  0  0
   -8.1247    7.0882   -0.5484 H   0  0  0  0  0  0  0  0  0  0  0  0
   -7.0968    5.6151   -0.5484 H   0  0  0  0  0  0  0  0  0  0  0  0
   -7.0406    5.5181   -2.8280 H   0  0  0  0  0  0  0  0  0  0  0  0
   -7.3782    7.0986   -3.6120 H   0  0  0  0  0  0  0  0  0  0  0  0
   -5.7092    6.4343   -3.6120 H   0  0  0  0  0  0  0  0  0  0  0  0
   -1.9105   11.0670    0.1985 H   0  0  0  0  0  0  0  0  0  0  0  0
   -0.4213   10.3232    1.9485 H   0  0  0  0  0  0  0  0  0  0  0  0
    0.1760    8.9659    0.9694 H   0  0  0  0  0  0  0  0  0  0  0  0
    1.5863   11.3996    1.4713 H   0  0  0  0  0  0  0  0  0  0  0  0
    2.0218   10.2469    0.2122 H   0  0  0  0  0  0  0  0  0  0  0  0
    0.1456   12.8265    1.4201 H   0  0  0  0  0  0  0  0  0  0  0  0
    0.5026   13.9872    0.0964 H   0  0  0  0  0  0  0  0  0  0  0  0
   -1.0436   13.0728    0.0964 H   0  0  0  0  0  0  0  0  0  0  0  0
    2.2543   11.5202   -1.8357 H   0  0  0  0  0  0  0  0  0  0  0  0
    3.0673   12.8514    0.2160 H   0  0  0  0  0  0  0  0  0  0  0  0
    3.7897   13.1382   -1.4531 H   0  0  0  0  0  0  0  0  0  0  0  0
    3.3140   15.2866   -0.0035 H   0  0  0  0  0  0  0  0  0  0  0  0
   -0.1702   14.6253   -1.9348 H   0  0  0  0  0  0  0  0  0  0  0  0
    1.7443   15.6274   -4.1307 H   0  0  0  0  0  0  0  0  0  0  0  0
    0.0043   15.1370   -4.3381 H   0  0  0  0  0  0  0  0  0  0  0  0
    0.2867   17.5951   -4.3022 H   0  0  0  0  0  0  0  0  0  0  0  0
   -0.7147   16.9792   -2.9298 H   0  0  0  0  0  0  0  0  0  0  0  0
    0.7848   18.6558   -2.0971 H   0  0  0  0  0  0  0  0  0  0  0  0
    3.1310   17.2460   -2.5690 H   0  0  0  0  0  0  0  0  0  0  0  0
    0.3200   16.9416    0.8435 H   0  0  0  0  0  0  0  0  0  0  0  0
   -0.4556   17.8785   -0.4783 H   0  0  0  0  0  0  0  0  0  0  0  0
   -0.5429   16.0844   -0.4783 H   0  0  0  0  0  0  0  0  0  0  0  0
    2.2558   17.4553    0.8770 H   0  0  0  0  0  0  0  0  0  0  0  0
    3.4685   17.1808   -0.4195 H   0  0  0  0  0  0  0  0  0  0  0  0
    2.4772   18.6788   -0.4195 H   0  0  0  0  0  0  0  0  0  0  0  0
    3.2730   13.0812   -3.3644 H   0  0  0  0  0  0  0  0  0  0  0  0
    2.1129   12.2466   -4.4528 H   0  0  0  0  0  0  0  0  0  0  0  0
    2.2134   14.0401   -4.4528 H   0  0  0  0  0  0  0  0  0  0  0  0
   -0.6520   13.2235   -3.8772 H   0  0  0  0  0  0  0  0  0  0  0  0
    0.3042   11.6359   -3.8870 H   0  0  0  0  0  0  0  0  0  0  0  0
   -1.5800   12.6457   -1.7390 H   0  0  0  0  0  0  0  0  0  0  0  0
   -1.7709   11.2139   -2.8256 H   0  0  0  0  0  0  0  0  0  0  0  0
    0.7924    9.0702   -1.3592 H   0  0  0  0  0  0  0  0  0  0  0  0
   -0.3784    9.3066   -2.7008 H   0  0  0  0  0  0  0  0  0  0  0  0
    1.1799   10.2001   -2.7008 H   0  0  0  0  0  0  0  0  0  0  0  0
  1  2  1  0
  2  3  1  0
  3  4  1  0
  4  5  1  0
  5  6  1  0
  6  7  1  0
  7  8  1  0
  7  9  1  0
  2 10  1  0
 10 11  1  0
 11 12  1  0
 12 13  1  0
 13 14  1  1
 13 15  1  0
 15 16  1  0
 16 17  1  0
 17 18  2  0
 18 19  1  0
 19 20  1  0
 20 21  1  0
 21 22  1  0
 22 23  1  0
 22 24  1  0
 24 25  1  0
 24 26  1  0
 19 27  1  0
 27 28  1  6
 27 29  1  0
 29 30  1  0
 30 31  1  0
 31 32  1  6
  7  5  1  0
 31 10  1  0
 31 13  1  0
 27 15  1  0
 24 18  1  0
  1 33  1  0
  1 34  1  0
  1 35  1  0
  2 36  1  1
  3 37  1  0
  3 38  1  0
  4 39  1  0
  4 40  1  0
  5 41  1  6
  8 42  1  0
  8 43  1  0
  8 44  1  0
  9 45  1  0
  9 46  1  0
  9 47  1  0
 10 48  1  1
 11 49  1  0
 11 50  1  0
 12 51  1  0
 12 52  1  0
 14 53  1  0
 14 54  1  0
 14 55  1  0
 15 56  1  6
 16 57  1  0
 16 58  1  0
 17 59  1  0
 19 60  1  1
 20 61  1  0
 20 62  1  0
 21 63  1  0
 21 64  1  0
 22 65  1  1
 23 66  1  0
 25 67  1  0
 25 68  1  0
 25 69  1  0
 26 70  1  0
 26 71  1  0
 26 72  1  0
 28 73  1  0
 28 74  1  0
 28 75  1  0
 29 76  1  0
 29 77  1  0
 30 78  1  0
 30 79  1  0
 32 80  1  0
 32 81  1  0
 32 82  1  0
M  END
>  <meeko>  (1) 
{"is_sidechain": [false], "intermolecular_energy": 2.731, "internal_energy": -0.839}

$$$$
EPH_relaxed_0001_pdb2pqr_Repair_233_r2_0001_out
     RDKit          3D

 82 86  0  0  0  0  0  0  0  0999 V2000
    2.0050   19.6040   -0.6030 C   0  0  0  0  0  0  0  0  0  0  0  0
    2.4130   18.3750    0.2130 C   0  0  2  0  0  0  0  0  0  0  0  0
    3.8560   17.9270   -0.0940 C   0  0  0  0  0  0  0  0  0  0  0  0
    4.8680   18.3300    0.9810 C   0  0  0  0  0  0  0  0  0  0  0  0
    4.1900   18.8340    2.2200 C   0  0  2  0  0  0  0  0  0  0  0  0
    4.4910   20.1940    2.5560 O   0  0  0  0  0  0  0  0  0  0  0  0
    4.9340   19.1980    3.4910 C   0  0  0  0  0  0  0  0  0  0  0  0
    6.4220   19.0730    3.5880 C   0  0  0  0  0  0  0  0  0  0  0  0
    4.1790   19.2070    4.7840 C   0  0  0  0  0  0  0  0  0  0  0  0
    1.4450   17.2290   -0.0530 C   0  0  1  0  0  0  0  0  0  0  0  0
    0.1600   17.6910   -0.7900 C   0  0  0  0  0  0  0  0  0  0  0  0
   -0.2540   16.5350   -1.7360 C   0  0  0  0  0  0  0  0  0  0  0  0
    0.5990   15.3300   -1.2750 C   0  0  1  0  0  0  0  0  0  0  0  0
   -0.1550   14.7540   -0.0360 C   0  0  0  0  0  0  0  0  0  0  0  0
    0.8720   14.2260   -2.3490 C   0  0  2  0  0  0  0  0  0  0  0  0
   -0.3810   13.5070   -2.8780 C   0  0  0  0  0  0  0  0  0  0  0  0
   -0.7770   12.2800   -2.1250 C   0  0  0  0  0  0  0  0  0  0  0  0
   -0.0010   11.6150   -1.2490 C   0  0  0  0  0  0  0  0  0  0  0  0
    1.4560   12.0320   -1.0130 C   0  0  1  0  0  0  0  0  0  0  0  0
    2.3640   10.7750   -1.0340 C   0  0  0  0  0  0  0  0  0  0  0  0
    1.8990    9.7010   -0.0560 C   0  0  0  0  0  0  0  0  0  0  0  0
    0.4660    9.2710   -0.3590 C   0  0  2  0  0  0  0  0  0  0  0  0
    0.4430    8.6030   -1.6240 O   0  0  0  0  0  0  0  0  0  0  0  0
   -0.5390   10.4560   -0.3740 C   0  0  0  0  0  0  0  0  0  0  0  0
   -0.7400   10.9870    1.0670 C   0  0  0  0  0  0  0  0  0  0  0  0
   -1.9180    9.9070   -0.8300 C   0  0  0  0  0  0  0  0  0  0  0  0
    2.0040   13.1960   -1.9460 C   0  0  1  0  0  0  0  0  0  0  0  0
    2.5550   12.5970   -3.2760 C   0  0  0  0  0  0  0  0  0  0  0  0
    3.2230   13.8940   -1.2350 C   0  0  0  0  0  0  0  0  0  0  0  0
    2.8960   15.0560   -0.2770 C   0  0  0  0  0  0  0  0  0  0  0  0
    1.9490   16.0620   -0.9390 C   0  0  2  0  0  0  0  0  0  0  0  0
    2.6890   16.6740   -2.1760 C   0  0  0  0  0  0  0  0  0  0  0  0
    1.7331   20.4231    0.0789 H   0  0  0  0  0  0  0  0  0  0  0  0
    2.8468   19.9190   -1.2372 H   0  0  0  0  0  0  0  0  0  0  0  0
    1.1420   19.3531   -1.2372 H   0  0  0  0  0  0  0  0  0  0  0  0
    2.3732   18.6561    1.2757 H   0  0  0  0  0  0  0  0  0  0  0  0
    3.8668   16.8310   -0.1874 H   0  0  0  0  0  0  0  0  0  0  0  0
    4.1577   18.4309   -1.0241 H   0  0  0  0  0  0  0  0  0  0  0  0
    5.4800   17.4537    1.2409 H   0  0  0  0  0  0  0  0  0  0  0  0
    5.4921   19.1410    0.5776 H   0  0  0  0  0  0  0  0  0  0  0  0
    3.3185   18.1891    2.0339 H   0  0  0  0  0  0  0  0  0  0  0  0
    6.7196   19.0480    4.6467 H   0  0  0  0  0  0  0  0  0  0  0  0
    6.7449   18.1446    3.0943 H   0  0  0  0  0  0  0  0  0  0  0  0
    6.8953   19.9345    3.0943 H   0  0  0  0  0  0  0  0  0  0  0  0
    4.8896   19.1985    5.6236 H   0  0  0  0  0  0  0  0  0  0  0  0
    3.5571   20.1126    4.8391 H   0  0  0  0  0  0  0  0  0  0  0  0
    3.5357   18.3165    4.8391 H   0  0  0  0  0  0  0  0  0  0  0  0
    1.2884   16.8782    0.9777 H   0  0  0  0  0  0  0  0  0  0  0  0
   -0.6416   17.8916   -0.0639 H   0  0  0  0  0  0  0  0  0  0  0  0
    0.3404   18.6176   -1.3546 H   0  0  0  0  0  0  0  0  0  0  0  0
   -1.3266   16.3138   -1.6328 H   0  0  0  0  0  0  0  0  0  0  0  0
   -0.0887   16.7827   -2.7949 H   0  0  0  0  0  0  0  0  0  0  0  0
    0.3222   15.1185    0.8857 H   0  0  0  0  0  0  0  0  0  0  0  0
   -1.2045   15.0825   -0.0602 H   0  0  0  0  0  0  0  0  0  0  0  0
   -0.1141   13.6550   -0.0602 H   0  0  0  0  0  0  0  0  0  0  0  0
    1.2601   14.8107   -3.1960 H   0  0  0  0  0  0  0  0  0  0  0  0
   -1.2214   14.2157   -2.8395 H   0  0  0  0  0  0  0  0  0  0  0  0
   -0.1334   13.1728   -3.8963 H   0  0  0  0  0  0  0  0  0  0  0  0
   -1.7888   11.8860   -2.3011 H   0  0  0  0  0  0  0  0  0  0  0  0
    1.4819   12.4948   -0.0154 H   0  0  0  0  0  0  0  0  0  0  0  0
    2.3585   10.3530   -2.0498 H   0  0  0  0  0  0  0  0  0  0  0  0
    3.3741   11.0878   -0.7309 H   0  0  0  0  0  0  0  0  0  0  0  0
    2.5622    8.8273   -0.1387 H   0  0  0  0  0  0  0  0  0  0  0  0
    1.9335   10.1149    0.9626 H   0  0  0  0  0  0  0  0  0  0  0  0
    0.1448    8.5989    0.4504 H   0  0  0  0  0  0  0  0  0  0  0  0
    1.0980    9.0360   -2.1970 H   0  0  0  0  0  0  0  0  0  0  0  0
   -0.4460   10.2103    1.7883 H   0  0  0  0  0  0  0  0  0  0  0  0
   -0.1184   11.8819    1.2181 H   0  0  0  0  0  0  0  0  0  0  0  0
   -1.7984   11.2460    1.2181 H   0  0  0  0  0  0  0  0  0  0  0  0
   -2.5266    9.6647    0.0537 H   0  0  0  0  0  0  0  0  0  0  0  0
   -2.4344   10.6681   -1.4334 H   0  0  0  0  0  0  0  0  0  0  0  0
   -1.7700    8.9992   -1.4334 H   0  0  0  0  0  0  0  0  0  0  0  0
    3.2834   11.8051   -3.0474 H   0  0  0  0  0  0  0  0  0  0  0  0
    1.7241   12.1736   -3.8594 H   0  0  0  0  0  0  0  0  0  0  0  0
    3.0461   13.3897   -3.8594 H   0  0  0  0  0  0  0  0  0  0  0  0
    3.7554   13.1251   -0.6560 H   0  0  0  0  0  0  0  0  0  0  0  0
    3.8094   14.3473   -2.0478 H   0  0  0  0  0  0  0  0  0  0  0  0
    2.4175   14.6528    0.6277 H   0  0  0  0  0  0  0  0  0  0  0  0
    3.8324   15.5726   -0.0195 H   0  0  0  0  0  0  0  0  0  0  0  0
    3.4936   17.3394   -1.8297 H   0  0  0  0  0  0  0  0  0  0  0  0
    3.1190   15.8641   -2.7836 H   0  0  0  0  0  0  0  0  0  0  0  0
    1.9742   17.2484   -2.7836 H   0  0  0  0  0  0  0  0  0  0  0  0
  1  2  1  0
  2  3  1  0
  3  4  1  0
  4  5  1  0
  5  6  1  0
  6  7  1  0
  7  8  1  0
  7  9  1  0
  2 10  1  0
 10 11  1  0
 11 12  1  0
 12 13  1  0
 13 14  1  1
 13 15  1  0
 15 16  1  0
 16 17  1  0
 17 18  2  0
 18 19  1  0
 19 20  1  0
 20 21  1  0
 21 22  1  0
 22 23  1  0
 22 24  1  0
 24 25  1  0
 24 26  1  0
 19 27  1  0
 27 28  1  6
 27 29  1  0
 29 30  1  0
 30 31  1  0
 31 32  1  6
  7  5  1  0
 31 10  1  0
 31 13  1  0
 27 15  1  0
 24 18  1  0
  1 33  1  0
  1 34  1  0
  1 35  1  0
  2 36  1  1
  3 37  1  0
  3 38  1  0
  4 39  1  0
  4 40  1  0
  5 41  1  1
  8 42  1  0
  8 43  1  0
  8 44  1  0
  9 45  1  0
  9 46  1  0
  9 47  1  0
 10 48  1  1
 11 49  1  0
 11 50  1  0
 12 51  1  0
 12 52  1  0
 14 53  1  0
 14 54  1  0
 14 55  1  0
 15 56  1  6
 16 57  1  0
 16 58  1  0
 17 59  1  0
 19 60  1  1
 20 61  1  0
 20 62  1  0
 21 63  1  0
 21 64  1  0
 22 65  1  1
 23 66  1  0
 25 67  1  0
 25 68  1  0
 25 69  1  0
 26 70  1  0
 26 71  1  0
 26 72  1  0
 28 73  1  0
 28 74  1  0
 28 75  1  0
 29 76  1  0
 29 77  1  0
 30 78  1  0
 30 79  1  0
 32 80  1  0
 32 81  1  0
 32 82  1  0
M  END
>  <meeko>  (2) 
{"is_sidechain": [false], "intermolecular_energy": 2.731, "internal_energy": -0.839}

$$$$
EPH_relaxed_0001_pdb2pqr_Repair_233_r2_0001_out
     RDKit          3D

 82 86  0  0  0  0  0  0  0  0999 V2000
    0.4150   18.4540    0.0150 C   0  0  0  0  0  0  0  0  0  0  0  0
    1.5080   17.4070   -0.2160 C   0  0  2  0  0  0  0  0  0  0  0  0
    2.7160   17.9870   -0.9790 C   0  0  0  0  0  0  0  0  0  0  0  0
    3.9550   18.1940   -0.1030 C   0  0  0  0  0  0  0  0  0  0  0  0
    3.5890   18.6530    1.2760 C   0  0  2  0  0  0  0  0  0  0  0  0
    3.8610   20.0360    1.5380 O   0  0  0  0  0  0  0  0  0  0  0  0
    4.6090   19.0840    2.3130 C   0  0  0  0  0  0  0  0  0  0  0  0
    6.0760   19.0760    2.0140 C   0  0  0  0  0  0  0  0  0  0  0  0
    4.2210   19.0450    3.7580 C   0  0  0  0  0  0  0  0  0  0  0  0
    0.9340   16.2170   -0.9760 C   0  0  1  0  0  0  0  0  0  0  0  0
    0.7860   16.4930   -2.4960 C   0  0  0  0  0  0  0  0  0  0  0  0
    1.0780   15.1560   -3.2240 C   0  0  0  0  0  0  0  0  0  0  0  0
    1.0560   14.0890   -2.1050 C   0  0  1  0  0  0  0  0  0  0  0  0
   -0.4570   13.7800   -1.8750 C   0  0  0  0  0  0  0  0  0  0  0  0
    1.8770   12.7870   -2.3760 C   0  0  2  0  0  0  0  0  0  0  0  0
    1.4000   11.9530   -3.5780 C   0  0  0  0  0  0  0  0  0  0  0  0
    0.3800   10.9090   -3.2650 C   0  0  0  0  0  0  0  0  0  0  0  0
    0.0750   10.4570   -2.0340 C   0  0  0  0  0  0  0  0  0  0  0  0
    0.8560   10.9350   -0.8030 C   0  0  1  0  0  0  0  0  0  0  0  0
    1.2310    9.7160    0.0780 C   0  0  0  0  0  0  0  0  0  0  0  0
    0.0180    8.8680    0.4500 C   0  0  0  0  0  0  0  0  0  0  0  0
   -0.6980    8.3630   -0.7990 C   0  0  2  0  0  0  0  0  0  0  0  0
    0.1590    7.4410   -1.4810 O   0  0  0  0  0  0  0  0  0  0  0  0
   -1.1160    9.5030   -1.7690 C   0  0  0  0  0  0  0  0  0  0  0  0
   -2.2670   10.3260   -1.1400 C   0  0  0  0  0  0  0  0  0  0  0  0
   -1.7000    8.8500   -3.0510 C   0  0  0  0  0  0  0  0  0  0  0  0
    2.0990   11.8820   -1.0960 C   0  0  1  0  0  0  0  0  0  0  0  0
    3.3690   11.0220   -1.3730 C   0  0  0  0  0  0  0  0  0  0  0  0
    2.4110   12.7330    0.1910 C   0  0  0  0  0  0  0  0  0  0  0  0
    1.6560   14.0670    0.3420 C   0  0  0  0  0  0  0  0  0  0  0  0
    1.7430   14.8950   -0.9430 C   0  0  2  0  0  0  0  0  0  0  0  0
    3.2520   15.2410   -1.1880 C   0  0  0  0  0  0  0  0  0  0  0  0
    0.2662   18.5965    1.0955 H   0  0  0  0  0  0  0  0  0  0  0  0
    0.7180   19.4074   -0.4423 H   0  0  0  0  0  0  0  0  0  0  0  0
   -0.5245   18.1103   -0.4423 H   0  0  0  0  0  0  0  0  0  0  0  0
    1.8676   17.0800    0.7708 H   0  0  0  0  0  0  0  0  0  0  0  0
    2.9777   17.2948   -1.7929 H   0  0  0  0  0  0  0  0  0  0  0  0
    2.4160   18.9777   -1.3512 H   0  0  0  0  0  0  0  0  0  0  0  0
    4.5018   17.2425   -0.0285 H   0  0  0  0  0  0  0  0  0  0  0  0
    4.5781   18.9716   -0.5689 H   0  0  0  0  0  0  0  0  0  0  0  0
    2.7523   17.9401    1.3167 H   0  0  0  0  0  0  0  0  0  0  0  0
    6.6424   19.0729    2.9570 H   0  0  0  0  0  0  0  0  0  0  0  0
    6.3268   18.1765    1.4327 H   0  0  0  0  0  0  0  0  0  0  0  0
    6.3366   19.9727    1.4327 H   0  0  0  0  0  0  0  0  0  0  0  0
    5.1222   19.1356    4.3822 H   0  0  0  0  0  0  0  0  0  0  0  0
    3.5380   19.8790    3.9769 H   0  0  0  0  0  0  0  0  0  0  0  0
    3.7176   18.0917    3.9769 H   0  0  0  0  0  0  0  0  0  0  0  0
   -0.0146   16.0920   -0.4332 H   0  0  0  0  0  0  0  0  0  0  0  0
   -0.2359   16.8318   -2.7217 H   0  0  0  0  0  0  0  0  0  0  0  0
    1.4802   17.2809   -2.8237 H   0  0  0  0  0  0  0  0  0  0  0  0
    0.3030   14.9461   -3.9759 H   0  0  0  0  0  0  0  0  0  0  0  0
    2.0368   15.1754   -3.7628 H   0  0  0  0  0  0  0  0  0  0  0  0
   -0.6626   13.7380   -0.7952 H   0  0  0  0  0  0  0  0  0  0  0  0
   -1.0669   14.5721   -2.3339 H   0  0  0  0  0  0  0  0  0  0  0  0
   -0.7075   12.8122   -2.3339 H   0  0  0  0  0  0  0  0  0  0  0  0
    2.8623   13.1847   -2.6605 H   0  0  0  0  0  0  0  0  0  0  0  0
    0.9660   12.6411   -4.3184 H   0  0  0  0  0  0  0  0  0  0  0  0
    2.2856   11.4131   -3.9445 H   0  0  0  0  0  0  0  0  0  0  0  0
   -0.1691   10.4719   -4.1120 H   0  0  0  0  0  0  0  0  0  0  0  0
    0.1755   11.5991   -0.2500 H   0  0  0  0  0  0  0  0  0  0  0  0
    1.9446    9.0874   -0.4749 H   0  0  0  0  0  0  0  0  0  0  0  0
    1.6688   10.1003    1.0111 H   0  0  0  0  0  0  0  0  0  0  0  0
    0.3507    8.0064    1.0474 H   0  0  0  0  0  0  0  0  0  0  0  0
   -0.6812    9.4900    1.0282 H   0  0  0  0  0  0  0  0  0  0  0  0
   -1.6272    7.8739   -0.4712 H   0  0  0  0  0  0  0  0  0  0  0  0
    1.0760    7.7230   -1.3270 H   0  0  0  0  0  0  0  0  0  0  0  0
   -2.1969   10.2758   -0.0434 H   0  0  0  0  0  0  0  0  0  0  0  0
   -2.1885   11.3740   -1.4649 H   0  0  0  0  0  0  0  0  0  0  0  0
   -3.2333    9.9128   -1.4649 H   0  0  0  0  0  0  0  0  0  0  0  0
   -2.4087    8.0576   -2.7686 H   0  0  0  0  0  0  0  0  0  0  0  0
   -2.2220    9.6137   -3.6463 H   0  0  0  0  0  0  0  0  0  0  0  0
   -0.8830    8.4162   -3.6463 H   0  0  0  0  0  0  0  0  0  0  0  0
    3.8204   10.7163   -0.4176 H   0  0  0  0  0  0  0  0  0  0  0  0
    3.0879   10.1277   -1.9485 H   0  0  0  0  0  0  0  0  0  0  0  0
    4.0951   11.6150   -1.9485 H   0  0  0  0  0  0  0  0  0  0  0  0
    2.1690   12.1128    1.0667 H   0  0  0  0  0  0  0  0  0  0  0  0
    3.4715   13.0112    0.1017 H   0  0  0  0  0  0  0  0  0  0  0  0
    0.5991   13.8590    0.5651 H   0  0  0  0  0  0  0  0  0  0  0  0
    2.1169   14.6400    1.1601 H   0  0  0  0  0  0  0  0  0  0  0  0
    3.7630   15.3582   -0.2210 H   0  0  0  0  0  0  0  0  0  0  0  0
    3.7267   14.4284   -1.7575 H   0  0  0  0  0  0  0  0  0  0  0  0
    3.3253   16.1793   -1.7575 H   0  0  0  0  0  0  0  0  0  0  0  0
  1  2  1  0
  2  3  1  0
  3  4  1  0
  4  5  1  0
  5  6  1  0
  6  7  1  0
  7  8  1  0
  7  9  1  0
  2 10  1  0
 10 11  1  0
 11 12  1  0
 12 13  1  0
 13 14  1  1
 13 15  1  0
 15 16  1  0
 16 17  1  0
 17 18  2  0
 18 19  1  0
 19 20  1  0
 20 21  1  0
 21 22  1  0
 22 23  1  0
 22 24  1  0
 24 25  1  0
 24 26  1  0
 19 27  1  0
 27 28  1  6
 27 29  1  0
 29 30  1  0
 30 31  1  0
 31 32  1  6
  7  5  1  0
 31 10  1  0
 31 13  1  0
 27 15  1  0
 24 18  1  0
  1 33  1  0
  1 34  1  0
  1 35  1  0
  2 36  1  1
  3 37  1  0
  3 38  1  0
  4 39  1  0
  4 40  1  0
  5 41  1  1
  8 42  1  0
  8 43  1  0
  8 44  1  0
  9 45  1  0
  9 46  1  0
  9 47  1  0
 10 48  1  1
 11 49  1  0
 11 50  1  0
 12 51  1  0
 12 52  1  0
 14 53  1  0
 14 54  1  0
 14 55  1  0
 15 56  1  6
 16 57  1  0
 16 58  1  0
 17 59  1  0
 19 60  1  1
 20 61  1  0
 20 62  1  0
 21 63  1  0
 21 64  1  0
 22 65  1  1
 23 66  1  0
 25 67  1  0
 25 68  1  0
 25 69  1  0
 26 70  1  0
 26 71  1  0
 26 72  1  0
 28 73  1  0
 28 74  1  0
 28 75  1  0
 29 76  1  0
 29 77  1  0
 30 78  1  0
 30 79  1  0
 32 80  1  0
 32 81  1  0
 32 82  1  0
M  END
>  <meeko>  (3) 
{"is_sidechain": [false], "intermolecular_energy": 2.731, "internal_energy": -0.839}

$$$$
EPH_relaxed_0001_pdb2pqr_Repair_233_r2_0001_out
     RDKit          3D

 82 86  0  0  0  0  0  0  0  0999 V2000
    2.2710   18.1360   -2.7170 C   0  0  0  0  0  0  0  0  0  0  0  0
    1.0140   17.7170   -1.9510 C   0  0  2  0  0  0  0  0  0  0  0  0
    1.2240   17.7540   -0.4240 C   0  0  0  0  0  0  0  0  0  0  0  0
    0.8800   19.1030    0.2120 C   0  0  0  0  0  0  0  0  0  0  0  0
   -0.5630   19.1760    0.6120 C   0  0  2  0  0  0  0  0  0  0  0  0
   -1.4300   18.2940   -0.1140 O   0  0  0  0  0  0  0  0  0  0  0  0
   -1.6570   19.7010   -0.2990 C   0  0  0  0  0  0  0  0  0  0  0  0
   -1.3550   20.1900   -1.6810 C   0  0  0  0  0  0  0  0  0  0  0  0
   -2.9280   20.1920    0.3200 C   0  0  0  0  0  0  0  0  0  0  0  0
    0.5830   16.3200   -2.3830 C   0  0  1  0  0  0  0  0  0  0  0  0
    0.6570   16.1220   -3.9210 C   0  0  0  0  0  0  0  0  0  0  0  0
    1.0790   14.6500   -4.1620 C   0  0  0  0  0  0  0  0  0  0  0  0
    0.9120   13.9650   -2.7850 C   0  0  1  0  0  0  0  0  0  0  0  0
   -0.6110   13.6420   -2.6800 C   0  0  0  0  0  0  0  0  0  0  0  0
    1.7900   12.6960   -2.5340 C   0  0  2  0  0  0  0  0  0  0  0  0
    1.5130   11.5130   -3.4780 C   0  0  0  0  0  0  0  0  0  0  0  0
    0.4790   10.5470   -3.0050 C   0  0  0  0  0  0  0  0  0  0  0  0
    0.0030   10.4640   -1.7480 C   0  0  0  0  0  0  0  0  0  0  0  0
    0.5840   11.3360   -0.6270 C   0  0  1  0  0  0  0  0  0  0  0  0
    0.8480   10.4600    0.6260 C   0  0  0  0  0  0  0  0  0  0  0  0
   -0.3900    9.6860    1.0700 C   0  0  0  0  0  0  0  0  0  0  0  0
   -0.9030    8.7870   -0.0520 C   0  0  2  0  0  0  0  0  0  0  0  0
    0.0640    7.7610   -0.2990 O   0  0  0  0  0  0  0  0  0  0  0  0
   -1.1940    9.5580   -1.3700 C   0  0  0  0  0  0  0  0  0  0  0  0
   -2.4430   10.4560   -1.1820 C   0  0  0  0  0  0  0  0  0  0  0  0
   -1.5680    8.5170   -2.4590 C   0  0  0  0  0  0  0  0  0  0  0  0
    1.8370   12.2300   -1.0220 C   0  0  1  0  0  0  0  0  0  0  0  0
    3.1510   11.4080   -0.8500 C   0  0  0  0  0  0  0  0  0  0  0  0
    1.9380   13.4430   -0.0240 C   0  0  0  0  0  0  0  0  0  0  0  0
    1.1430   14.7110   -0.3900 C   0  0  0  0  0  0  0  0  0  0  0  0
    1.4040   15.1230   -1.8420 C   0  0  2  0  0  0  0  0  0  0  0  0
    2.9250   15.4750   -1.9730 C   0  0  0  0  0  0  0  0  0  0  0  0
    3.0646   18.4005   -2.0027 H   0  0  0  0  0  0  0  0  0  0  0  0
    2.6100   17.3023   -3.3494 H   0  0  0  0  0  0  0  0  0  0  0  0
    2.0419   19.0064   -3.3494 H   0  0  0  0  0  0  0  0  0  0  0  0
    0.2230   18.4421   -2.1931 H   0  0  0  0  0  0  0  0  0  0  0  0
    0.5872   16.9822    0.0329 H   0  0  0  0  0  0  0  0  0  0  0  0
    2.2943   17.5766   -0.2424 H   0  0  0  0  0  0  0  0  0  0  0  0
    1.5052   19.2455    1.1057 H   0  0  0  0  0  0  0  0  0  0  0  0
    1.0698   19.8909   -0.5318 H   0  0  0  0  0  0  0  0  0  0  0  0
   -0.2887   19.4161    1.6498 H   0  0  0  0  0  0  0  0  0  0  0  0
   -0.7779   21.1245   -1.6213 H   0  0  0  0  0  0  0  0  0  0  0  0
   -0.7684   19.4305   -2.2187 H   0  0  0  0  0  0  0  0  0  0  0  0
   -2.2968   20.3744   -2.2187 H   0  0  0  0  0  0  0  0  0  0  0  0
   -2.8393   20.1577    1.4159 H   0  0  0  0  0  0  0  0  0  0  0  0
   -3.1158   21.2274   -0.0005 H   0  0  0  0  0  0  0  0  0  0  0  0
   -3.7631   19.5518   -0.0005 H   0  0  0  0  0  0  0  0  0  0  0  0
   -0.4324   16.3010   -1.9604 H   0  0  0  0  0  0  0  0  0  0  0  0
   -0.3263   16.3135   -4.3754 H   0  0  0  0  0  0  0  0  0  0  0  0
    1.3769   16.8189   -4.3750 H   0  0  0  0  0  0  0  0  0  0  0  0
    0.4280   14.1774   -4.9122 H   0  0  0  0  0  0  0  0  0  0  0  0
    2.1065   14.5685   -4.5463 H   0  0  0  0  0  0  0  0  0  0  0  0
   -0.9006   13.5806   -1.6206 H   0  0  0  0  0  0  0  0  0  0  0  0
   -1.1893   14.4375   -3.1727 H   0  0  0  0  0  0  0  0  0  0  0  0
   -0.8167   12.6803   -3.1727 H   0  0  0  0  0  0  0  0  0  0  0  0
    2.7985   13.0524   -2.7906 H   0  0  0  0  0  0  0  0  0  0  0  0
    1.1806   11.9202   -4.4443 H   0  0  0  0  0  0  0  0  0  0  0  0
    2.4536   10.9458   -3.5381 H   0  0  0  0  0  0  0  0  0  0  0  0
    0.0711    9.8432   -3.7455 H   0  0  0  0  0  0  0  0  0  0  0  0
   -0.1835   12.0906   -0.4001 H   0  0  0  0  0  0  0  0  0  0  0  0
    1.6478    9.7419    0.3921 H   0  0  0  0  0  0  0  0  0  0  0  0
    1.1349   11.1316    1.4486 H   0  0  0  0  0  0  0  0  0  0  0  0
   -0.1329    9.0643    1.9403 H   0  0  0  0  0  0  0  0  0  0  0  0
   -1.1793   10.4062    1.3314 H   0  0  0  0  0  0  0  0  0  0  0  0
   -1.8607    8.3594    0.2796 H   0  0  0  0  0  0  0  0  0  0  0  0
    0.0220    7.1330    0.4420 H   0  0  0  0  0  0  0  0  0  0  0  0
   -2.6364   10.5950   -0.1081 H   0  0  0  0  0  0  0  0  0  0  0  0
   -2.2653   11.4344   -1.6522 H   0  0  0  0  0  0  0  0  0  0  0  0
   -3.3139    9.9760   -1.6522 H   0  0  0  0  0  0  0  0  0  0  0  0
   -1.9023    7.5864   -1.9772 H   0  0  0  0  0  0  0  0  0  0  0  0
   -2.3786    8.9171   -3.0858 H   0  0  0  0  0  0  0  0  0  0  0  0
   -0.6881    8.3098   -3.0858 H   0  0  0  0  0  0  0  0  0  0  0  0
    3.3630   11.2754    0.2212 H   0  0  0  0  0  0  0  0  0  0  0  0
    3.0321   10.4230   -1.3249 H   0  0  0  0  0  0  0  0  0  0  0  0
    3.9848   11.9458   -1.3249 H   0  0  0  0  0  0  0  0  0  0  0  0
    1.5803   13.0975    0.9572 H   0  0  0  0  0  0  0  0  0  0  0  0
    2.9945   13.7485   -0.0478 H   0  0  0  0  0  0  0  0  0  0  0  0
    0.0690   14.5121   -0.2601 H   0  0  0  0  0  0  0  0  0  0  0  0
    1.4661   15.5296    0.2699 H   0  0  0  0  0  0  0  0  0  0  0  0
    3.3655   15.5769   -0.9702 H   0  0  0  0  0  0  0  0  0  0  0  0
    3.4412   14.6726   -2.5204 H   0  0  0  0  0  0  0  0  0  0  0  0
    3.0362   16.4226   -2.5204 H   0  0  0  0  0  0  0  0  0  0  0  0
  1  2  1  0
  2  3  1  0
  3  4  1  0
  4  5  1  0
  5  6  1  0
  6  7  1  0
  7  8  1  0
  7  9  1  0
  2 10  1  0
 10 11  1  0
 11 12  1  0
 12 13  1  0
 13 14  1  1
 13 15  1  0
 15 16  1  0
 16 17  1  0
 17 18  2  0
 18 19  1  0
 19 20  1  0
 20 21  1  0
 21 22  1  0
 22 23  1  0
 22 24  1  0
 24 25  1  0
 24 26  1  0
 19 27  1  0
 27 28  1  6
 27 29  1  0
 29 30  1  0
 30 31  1  0
 31 32  1  1
  7  5  1  0
 31 10  1  0
 31 13  1  0
 27 15  1  0
 24 18  1  0
  1 33  1  0
  1 34  1  0
  1 35  1  0
  2 36  1  1
  3 37  1  0
  3 38  1  0
  4 39  1  0
  4 40  1  0
  5 41  1  1
  8 42  1  0
  8 43  1  0
  8 44  1  0
  9 45  1  0
  9 46  1  0
  9 47  1  0
 10 48  1  1
 11 49  1  0
 11 50  1  0
 12 51  1  0
 12 52  1  0
 14 53  1  0
 14 54  1  0
 14 55  1  0
 15 56  1  6
 16 57  1  0
 16 58  1  0
 17 59  1  0
 19 60  1  1
 20 61  1  0
 20 62  1  0
 21 63  1  0
 21 64  1  0
 22 65  1  1
 23 66  1  0
 25 67  1  0
 25 68  1  0
 25 69  1  0
 26 70  1  0
 26 71  1  0
 26 72  1  0
 28 73  1  0
 28 74  1  0
 28 75  1  0
 29 76  1  0
 29 77  1  0
 30 78  1  0
 30 79  1  0
 32 80  1  0
 32 81  1  0
 32 82  1  0
M  END
>  <meeko>  (4) 
{"is_sidechain": [false], "intermolecular_energy": 2.731, "internal_energy": -0.839}

$$$$
EPH_relaxed_0001_pdb2pqr_Repair_233_r2_0001_out
     RDKit          3D

 82 86  0  0  0  0  0  0  0  0999 V2000
    1.3970   18.6910   -2.8310 C   0  0  0  0  0  0  0  0  0  0  0  0
    0.4940   18.0160   -1.7950 C   0  0  2  0  0  0  0  0  0  0  0  0
    1.1300   18.0030   -0.3910 C   0  0  0  0  0  0  0  0  0  0  0  0
    1.5160   19.3930    0.1230 C   0  0  0  0  0  0  0  0  0  0  0  0
    2.3950   19.3110    1.3350 C   0  0  2  0  0  0  0  0  0  0  0  0
    3.5360   20.1790    1.3060 O   0  0  0  0  0  0  0  0  0  0  0  0
    3.8110   18.7690    1.3060 C   0  0  0  0  0  0  0  0  0  0  0  0
    4.4310   18.2700    0.0380 C   0  0  0  0  0  0  0  0  0  0  0  0
    4.4130   18.2720    2.5840 C   0  0  0  0  0  0  0  0  0  0  0  0
    0.1730   16.5920   -2.2350 C   0  0  1  0  0  0  0  0  0  0  0  0
    0.2060   16.4220   -3.7770 C   0  0  0  0  0  0  0  0  0  0  0  0
    0.7490   14.9970   -4.0580 C   0  0  0  0  0  0  0  0  0  0  0  0
    0.6960   14.2820   -2.6870 C   0  0  1  0  0  0  0  0  0  0  0  0
   -0.7880   13.8230   -2.5320 C   0  0  0  0  0  0  0  0  0  0  0  0
    1.6920   13.0930   -2.4890 C   0  0  2  0  0  0  0  0  0  0  0  0
    1.4860   11.9030   -3.4420 C   0  0  0  0  0  0  0  0  0  0  0  0
    0.5600   10.8420   -2.9470 C   0  0  0  0  0  0  0  0  0  0  0  0
    0.1410   10.7000   -1.6760 C   0  0  0  0  0  0  0  0  0  0  0  0
    0.6840   11.6060   -0.5620 C   0  0  1  0  0  0  0  0  0  0  0  0
    1.0720   10.7410    0.6660 C   0  0  0  0  0  0  0  0  0  0  0  0
   -0.0750    9.8530    1.1420 C   0  0  0  0  0  0  0  0  0  0  0  0
   -0.5470    8.9270    0.0240 C   0  0  2  0  0  0  0  0  0  0  0  0
    0.4960    7.9950   -0.2740 O   0  0  0  0  0  0  0  0  0  0  0  0
   -0.9560    9.6860   -1.2690 C   0  0  0  0  0  0  0  0  0  0  0  0
   -2.2710   10.4660   -1.0220 C   0  0  0  0  0  0  0  0  0  0  0  0
   -1.2770    8.6300   -2.3610 C   0  0  0  0  0  0  0  0  0  0  0  0
    1.8370   12.6130   -0.9880 C   0  0  1  0  0  0  0  0  0  0  0  0
    3.2250   11.9100   -0.8780 C   0  0  0  0  0  0  0  0  0  0  0  0
    1.8670   13.8180    0.0250 C   0  0  0  0  0  0  0  0  0  0  0  0
    0.9490   15.0140   -0.2900 C   0  0  0  0  0  0  0  0  0  0  0  0
    1.1170   15.4660   -1.7430 C   0  0  2  0  0  0  0  0  0  0  0  0
    2.5950   15.9550   -1.9240 C   0  0  0  0  0  0  0  0  0  0  0  0
    2.1753   19.2728   -2.3155 H   0  0  0  0  0  0  0  0  0  0  0  0
    1.8700   17.9232   -3.4609 H   0  0  0  0  0  0  0  0  0  0  0  0
    0.7945   19.3620   -3.4609 H   0  0  0  0  0  0  0  0  0  0  0  0
   -0.4337   18.6037   -1.7313 H   0  0  0  0  0  0  0  0  0  0  0  0
    0.4095   17.5603    0.3125 H   0  0  0  0  0  0  0  0  0  0  0  0
    2.0587   17.4181   -0.4643 H   0  0  0  0  0  0  0  0  0  0  0  0
    2.0538   19.9305   -0.6719 H   0  0  0  0  0  0  0  0  0  0  0  0
    0.5940   19.9236    0.4030 H   0  0  0  0  0  0  0  0  0  0  0  0
    1.5307   19.0822    1.9758 H   0  0  0  0  0  0  0  0  0  0  0  0
    5.2672   17.5970    0.2788 H   0  0  0  0  0  0  0  0  0  0  0  0
    3.6776   17.7235   -0.5482 H   0  0  0  0  0  0  0  0  0  0  0  0
    4.8038   19.1228   -0.5482 H   0  0  0  0  0  0  0  0  0  0  0  0
    3.8779   18.7138    3.4375 H   0  0  0  0  0  0  0  0  0  0  0  0
    4.3298   17.1760    2.6266 H   0  0  0  0  0  0  0  0  0  0  0  0
    5.4734   18.5612    2.6266 H   0  0  0  0  0  0  0  0  0  0  0  0
   -0.8205   16.4765   -1.7771 H   0  0  0  0  0  0  0  0  0  0  0  0
   -0.8070   16.5301   -4.1918 H   0  0  0  0  0  0  0  0  0  0  0  0
    0.8428   17.1870   -4.2453 H   0  0  0  0  0  0  0  0  0  0  0  0
    0.1151   14.4775   -4.7917 H   0  0  0  0  0  0  0  0  0  0  0  0
    1.7642   15.0133   -4.4811 H   0  0  0  0  0  0  0  0  0  0  0  0
   -1.0382   13.7456   -1.4636 H   0  0  0  0  0  0  0  0  0  0  0  0
   -1.4511   14.5580   -3.0116 H   0  0  0  0  0  0  0  0  0  0  0  0
   -0.9204   12.8419   -3.0116 H   0  0  0  0  0  0  0  0  0  0  0  0
    2.6546   13.5414   -2.7758 H   0  0  0  0  0  0  0  0  0  0  0  0
    1.0824   12.2917   -4.3886 H   0  0  0  0  0  0  0  0  0  0  0  0
    2.4703   11.4231   -3.5464 H   0  0  0  0  0  0  0  0  0  0  0  0
    0.1886   10.1144   -3.6837 H   0  0  0  0  0  0  0  0  0  0  0  0
   -0.1385   12.2857   -0.2946 H   0  0  0  0  0  0  0  0  0  0  0  0
    1.9233   10.1007    0.3915 H   0  0  0  0  0  0  0  0  0  0  0  0
    1.3286   11.4248    1.4886 H   0  0  0  0  0  0  0  0  0  0  0  0
    0.2689    9.2453    1.9919 H   0  0  0  0  0  0  0  0  0  0  0  0
   -0.9150   10.4957    1.4442 H   0  0  0  0  0  0  0  0  0  0  0  0
   -1.4498    8.4108    0.3826 H   0  0  0  0  0  0  0  0  0  0  0  0
    1.1340    8.4430   -0.8550 H   0  0  0  0  0  0  0  0  0  0  0  0
   -2.4401   10.5663    0.0603 H   0  0  0  0  0  0  0  0  0  0  0  0
   -2.1953   11.4653   -1.4754 H   0  0  0  0  0  0  0  0  0  0  0  0
   -3.1117    9.9204   -1.4754 H   0  0  0  0  0  0  0  0  0  0  0  0
   -1.5649    7.6827   -1.8816 H   0  0  0  0  0  0  0  0  0  0  0  0
   -2.1061    8.9908   -2.9875 H   0  0  0  0  0  0  0  0  0  0  0  0
   -0.3874    8.4683   -2.9875 H   0  0  0  0  0  0  0  0  0  0  0  0
    3.4860   11.7778    0.1824 H   0  0  0  0  0  0  0  0  0  0  0  0
    3.1781   10.9270   -1.3694 H   0  0  0  0  0  0  0  0  0  0  0  0
    3.9897   12.5295   -1.3694 H   0  0  0  0  0  0  0  0  0  0  0  0
    1.5795   13.4292    1.0130 H   0  0  0  0  0  0  0  0  0  0  0  0
    2.8902   14.2176   -0.0338 H   0  0  0  0  0  0  0  0  0  0  0  0
   -0.0973   14.7180   -0.1239 H   0  0  0  0  0  0  0  0  0  0  0  0
    1.2224   15.8496    0.3711 H   0  0  0  0  0  0  0  0  0  0  0  0
    3.0545   16.1070   -0.9362 H   0  0  0  0  0  0  0  0  0  0  0  0
    3.1660   15.1979   -2.4814 H   0  0  0  0  0  0  0  0  0  0  0  0
    2.6018   16.9033   -2.4814 H   0  0  0  0  0  0  0  0  0  0  0  0
  1  2  1  0
  2  3  1  0
  3  4  1  0
  4  5  1  0
  5  6  1  0
  6  7  1  0
  7  8  1  0
  7  9  1  0
  2 10  1  0
 10 11  1  0
 11 12  1  0
 12 13  1  0
 13 14  1  1
 13 15  1  0
 15 16  1  0
 16 17  1  0
 17 18  2  0
 18 19  1  0
 19 20  1  0
 20 21  1  0
 21 22  1  0
 22 23  1  0
 22 24  1  0
 24 25  1  0
 24 26  1  0
 19 27  1  0
 27 28  1  6
 27 29  1  0
 29 30  1  0
 30 31  1  0
 31 32  1  1
  7  5  1  0
 31 10  1  0
 31 13  1  0
 27 15  1  0
 24 18  1  0
  1 33  1  0
  1 34  1  0
  1 35  1  0
  2 36  1  1
  3 37  1  0
  3 38  1  0
  4 39  1  0
  4 40  1  0
  5 41  1  1
  8 42  1  0
  8 43  1  0
  8 44  1  0
  9 45  1  0
  9 46  1  0
  9 47  1  0
 10 48  1  1
 11 49  1  0
 11 50  1  0
 12 51  1  0
 12 52  1  0
 14 53  1  0
 14 54  1  0
 14 55  1  0
 15 56  1  6
 16 57  1  0
 16 58  1  0
 17 59  1  0
 19 60  1  1
 20 61  1  0
 20 62  1  0
 21 63  1  0
 21 64  1  0
 22 65  1  1
 23 66  1  0
 25 67  1  0
 25 68  1  0
 25 69  1  0
 26 70  1  0
 26 71  1  0
 26 72  1  0
 28 73  1  0
 28 74  1  0
 28 75  1  0
 29 76  1  0
 29 77  1  0
 30 78  1  0
 30 79  1  0
 32 80  1  0
 32 81  1  0
 32 82  1  0
M  END
>  <meeko>  (5) 
{"is_sidechain": [false], "intermolecular_energy": 2.731, "internal_energy": -0.839}

$$$$
EPH_relaxed_0001_pdb2pqr_Repair_233_r2_0001_out
     RDKit          3D

 82 86  0  0  0  0  0  0  0  0999 V2000
   -5.1190    5.9170   -1.6920 C   0  0  0  0  0  0  0  0  0  0  0  0
   -5.4290    7.4150   -1.7580 C   0  0  2  0  0  0  0  0  0  0  0  0
   -5.2140    8.1130   -0.4010 C   0  0  0  0  0  0  0  0  0  0  0  0
   -4.1760    9.2370   -0.4440 C   0  0  0  0  0  0  0  0  0  0  0  0
   -2.8010    8.7120   -0.7280 C   0  0  2  0  0  0  0  0  0  0  0  0
   -1.8100    9.0760    0.2400 O   0  0  0  0  0  0  0  0  0  0  0  0
   -1.6240    9.6000   -1.0850 C   0  0  0  0  0  0  0  0  0  0  0  0
   -1.7670   11.0870   -1.1770 C   0  0  0  0  0  0  0  0  0  0  0  0
   -0.4660    8.9940   -1.8150 C   0  0  0  0  0  0  0  0  0  0  0  0
   -6.8620    7.6280   -2.2330 C   0  0  1  0  0  0  0  0  0  0  0  0
   -7.1530    6.9300   -3.5880 C   0  0  0  0  0  0  0  0  0  0  0  0
   -8.6240    6.4440   -3.5340 C   0  0  0  0  0  0  0  0  0  0  0  0
   -9.2260    7.1610   -2.3030 C   0  0  1  0  0  0  0  0  0  0  0  0
   -9.5860    8.5930   -2.8090 C   0  0  0  0  0  0  0  0  0  0  0  0
  -10.4520    6.4630   -1.6280 C   0  0  2  0  0  0  0  0  0  0  0  0
  -11.6980    6.3260   -2.5200 C   0  0  0  0  0  0  0  0  0  0  0  0
  -12.6620    7.4630   -2.4470 C   0  0  0  0  0  0  0  0  0  0  0  0
  -12.6810    8.4130   -1.4930 C   0  0  0  0  0  0  0  0  0  0  0  0
  -11.7250    8.3450   -0.2950 C   0  0  1  0  0  0  0  0  0  0  0  0
  -12.5140    8.6180    1.0130 C   0  0  0  0  0  0  0  0  0  0  0  0
  -13.2940    9.9280    0.9630 C   0  0  0  0  0  0  0  0  0  0  0  0
  -14.2750    9.9340   -0.2060 C   0  0  2  0  0  0  0  0  0  0  0  0
  -15.2860    8.9500    0.0350 O   0  0  0  0  0  0  0  0  0  0  0  0
  -13.5960    9.6590   -1.5770 C   0  0  0  0  0  0  0  0  0  0  0  0
  -12.7250   10.8750   -1.9790 C   0  0  0  0  0  0  0  0  0  0  0  0
  -14.7130    9.5520   -2.6500 C   0  0  0  0  0  0  0  0  0  0  0  0
  -10.8220    7.0400   -0.2020 C   0  0  1  0  0  0  0  0  0  0  0  0
  -11.5930    5.9120    0.5490 C   0  0  0  0  0  0  0  0  0  0  0  0
   -9.5470    7.3590    0.6640 C   0  0  0  0  0  0  0  0  0  0  0  0
   -8.3270    7.9350   -0.0800 C   0  0  0  0  0  0  0  0  0  0  0  0
   -7.9990    7.1010   -1.3220 C   0  0  2  0  0  0  0  0  0  0  0  0
   -7.6120    5.6610   -0.8430 C   0  0  0  0  0  0  0  0  0  0  0  0
   -5.0538    5.6021   -0.6401 H   0  0  0  0  0  0  0  0  0  0  0  0
   -5.9197    5.3544   -2.1943 H   0  0  0  0  0  0  0  0  0  0  0  0
   -4.1607    5.7184   -2.1943 H   0  0  0  0  0  0  0  0  0  0  0  0
   -4.7283    7.8670   -2.4754 H   0  0  0  0  0  0  0  0  0  0  0  0
   -6.1739    8.5392   -0.0740 H   0  0  0  0  0  0  0  0  0  0  0  0
   -4.8336    7.3511    0.2953 H   0  0  0  0  0  0  0  0  0  0  0  0
   -4.4553    9.9501   -1.2336 H   0  0  0  0  0  0  0  0  0  0  0  0
   -4.1594    9.7260    0.5412 H   0  0  0  0  0  0  0  0  0  0  0  0
   -3.2173    7.8122   -1.2044 H   0  0  0  0  0  0  0  0  0  0  0  0
   -1.8081   11.5147   -0.1644 H   0  0  0  0  0  0  0  0  0  0  0  0
   -0.9050   11.5055   -1.7171 H   0  0  0  0  0  0  0  0  0  0  0  0
   -2.6930   11.3336   -1.7171 H   0  0  0  0  0  0  0  0  0  0  0  0
    0.2657    8.6111   -1.0884 H   0  0  0  0  0  0  0  0  0  0  0  0
   -0.8228    8.1670   -2.4465 H   0  0  0  0  0  0  0  0  0  0  0  0
    0.0100    9.7586   -2.4465 H   0  0  0  0  0  0  0  0  0  0  0  0
   -6.8839    8.7273   -2.2641 H   0  0  0  0  0  0  0  0  0  0  0  0
   -7.0191    7.6409   -4.4167 H   0  0  0  0  0  0  0  0  0  0  0  0
   -6.4648    6.0882   -3.7544 H   0  0  0  0  0  0  0  0  0  0  0  0
   -9.1611    6.7289   -4.4507 H   0  0  0  0  0  0  0  0  0  0  0  0
   -8.6994    5.3492   -3.4577 H   0  0  0  0  0  0  0  0  0  0  0  0
   -9.7525    9.2555   -1.9468 H   0  0  0  0  0  0  0  0  0  0  0  0
   -8.7585    8.9853   -3.4184 H   0  0  0  0  0  0  0  0  0  0  0  0
  -10.5006    8.5474   -3.4184 H   0  0  0  0  0  0  0  0  0  0  0  0
  -10.0833    5.4385   -1.4717 H   0  0  0  0  0  0  0  0  0  0  0  0
  -11.3609    6.2325   -3.5629 H   0  0  0  0  0  0  0  0  0  0  0  0
  -12.2405    5.4428   -2.1517 H   0  0  0  0  0  0  0  0  0  0  0  0
  -13.4215    7.5307   -3.2399 H   0  0  0  0  0  0  0  0  0  0  0  0
  -10.9803    9.1388   -0.4543 H   0  0  0  0  0  0  0  0  0  0  0  0
  -13.2219    7.7921    1.1767 H   0  0  0  0  0  0  0  0  0  0  0  0
  -11.7848    8.6947    1.8330 H   0  0  0  0  0  0  0  0  0  0  0  0
  -13.8528   10.0504    1.9026 H   0  0  0  0  0  0  0  0  0  0  0  0
  -12.5821   10.7557    0.8284 H   0  0  0  0  0  0  0  0  0  0  0  0
  -14.7087   10.9430   -0.2669 H   0  0  0  0  0  0  0  0  0  0  0  0
  -14.8960    8.2590    0.5960 H   0  0  0  0  0  0  0  0  0  0  0  0
  -12.3621   11.3817   -1.0726 H   0  0  0  0  0  0  0  0  0  0  0  0
  -11.8670   10.5305   -2.5749 H   0  0  0  0  0  0  0  0  0  0  0  0
  -13.3273   11.5765   -2.5749 H   0  0  0  0  0  0  0  0  0  0  0  0
  -15.6903    9.4584   -2.1539 H   0  0  0  0  0  0  0  0  0  0  0  0
  -14.7057   10.4550   -3.2782 H   0  0  0  0  0  0  0  0  0  0  0  0
  -14.5344    8.6669   -3.2782 H   0  0  0  0  0  0  0  0  0  0  0  0
  -11.4924    6.0591    1.6345 H   0  0  0  0  0  0  0  0  0  0  0  0
  -12.6568    5.9473    0.2712 H   0  0  0  0  0  0  0  0  0  0  0  0
  -11.1738    4.9337    0.2712 H   0  0  0  0  0  0  0  0  0  0  0  0
   -9.8415    8.0875    1.4337 H   0  0  0  0  0  0  0  0  0  0  0  0
   -9.2131    6.3858    1.0532 H   0  0  0  0  0  0  0  0  0  0  0  0
   -8.5478    8.9677   -0.3879 H   0  0  0  0  0  0  0  0  0  0  0  0
   -7.4603    7.9123    0.5969 H   0  0  0  0  0  0  0  0  0  0  0  0
   -7.6037    5.6302    0.2565 H   0  0  0  0  0  0  0  0  0  0  0  0
   -8.3476    4.9376   -1.2246 H   0  0  0  0  0  0  0  0  0  0  0  0
   -6.6129    5.4038   -1.2246 H   0  0  0  0  0  0  0  0  0  0  0  0
  1  2  1  0
  2  3  1  0
  3  4  1  0
  4  5  1  0
  5  6  1  0
  6  7  1  0
  7  8  1  0
  7  9  1  0
  2 10  1  0
 10 11  1  0
 11 12  1  0
 12 13  1  0
 13 14  1  6
 13 15  1  0
 15 16  1  0
 16 17  1  0
 17 18  2  0
 18 19  1  0
 19 20  1  0
 20 21  1  0
 21 22  1  0
 22 23  1  0
 22 24  1  0
 24 25  1  0
 24 26  1  0
 19 27  1  0
 27 28  1  1
 27 29  1  0
 29 30  1  0
 30 31  1  0
 31 32  1  1
  7  5  1  0
 31 10  1  0
 31 13  1  0
 27 15  1  0
 24 18  1  0
  1 33  1  0
  1 34  1  0
  1 35  1  0
  2 36  1  6
  3 37  1  0
  3 38  1  0
  4 39  1  0
  4 40  1  0
  5 41  1  6
  8 42  1  0
  8 43  1  0
  8 44  1  0
  9 45  1  0
  9 46  1  0
  9 47  1  0
 10 48  1  6
 11 49  1  0
 11 50  1  0
 12 51  1  0
 12 52  1  0
 14 53  1  0
 14 54  1  0
 14 55  1  0
 15 56  1  1
 16 57  1  0
 16 58  1  0
 17 59  1  0
 19 60  1  6
 20 61  1  0
 20 62  1  0
 21 63  1  0
 21 64  1  0
 22 65  1  6
 23 66  1  0
 25 67  1  0
 25 68  1  0
 25 69  1  0
 26 70  1  0
 26 71  1  0
 26 72  1  0
 28 73  1  0
 28 74  1  0
 28 75  1  0
 29 76  1  0
 29 77  1  0
 30 78  1  0
 30 79  1  0
 32 80  1  0
 32 81  1  0
 32 82  1  0
M  END
>  <meeko>  (6) 
{"is_sidechain": [false], "intermolecular_energy": 2.731, "internal_energy": -0.839}

$$$$
EPH_relaxed_0001_pdb2pqr_Repair_233_r2_0001_out
     RDKit          3D

 82 86  0  0  0  0  0  0  0  0999 V2000
    0.4090    8.8650   -2.5580 C   0  0  0  0  0  0  0  0  0  0  0  0
    1.1740   10.0280   -3.1970 C   0  0  2  0  0  0  0  0  0  0  0  0
    2.6660   10.0240   -2.8100 C   0  0  0  0  0  0  0  0  0  0  0  0
    3.5830   10.6130   -3.8850 C   0  0  0  0  0  0  0  0  0  0  0  0
    4.9710   10.8380   -3.3680 C   0  0  2  0  0  0  0  0  0  0  0  0
    5.5940   12.0440   -3.8290 O   0  0  0  0  0  0  0  0  0  0  0  0
    6.2060   10.8140   -4.2480 C   0  0  0  0  0  0  0  0  0  0  0  0
    6.1110   10.5570   -5.7200 C   0  0  0  0  0  0  0  0  0  0  0  0
    7.5350   10.5540   -3.6100 C   0  0  0  0  0  0  0  0  0  0  0  0
    0.5350   11.3530   -2.7970 C   0  0  1  0  0  0  0  0  0  0  0  0
   -0.8390   11.1660   -2.0980 C   0  0  0  0  0  0  0  0  0  0  0  0
   -0.9510   12.2820   -1.0280 C   0  0  0  0  0  0  0  0  0  0  0  0
    0.1960   13.2630   -1.3650 C   0  0  1  0  0  0  0  0  0  0  0  0
   -0.3600   14.1470   -2.5250 C   0  0  0  0  0  0  0  0  0  0  0  0
    0.7310   14.1340   -0.1820 C   0  0  2  0  0  0  0  0  0  0  0  0
   -0.2980   15.0960    0.4380 C   0  0  0  0  0  0  0  0  0  0  0  0
   -0.3470   16.4570   -0.1730 C   0  0  0  0  0  0  0  0  0  0  0  0
    0.5910   16.9860   -0.9810 C   0  0  0  0  0  0  0  0  0  0  0  0
    1.8920   16.2290   -1.2790 C   0  0  1  0  0  0  0  0  0  0  0  0
    3.0970   17.1940   -1.1330 C   0  0  0  0  0  0  0  0  0  0  0  0
    2.9460   18.4520   -1.9830 C   0  0  0  0  0  0  0  0  0  0  0  0
    1.6710   19.2080   -1.6170 C   0  0  2  0  0  0  0  0  0  0  0  0
    1.8030   19.7170   -0.2870 O   0  0  0  0  0  0  0  0  0  0  0  0
    0.3900   18.3330   -1.7180 C   0  0  0  0  0  0  0  0  0  0  0  0
    0.0810   18.0320   -3.2060 C   0  0  0  0  0  0  0  0  0  0  0  0
   -0.8040   19.1720   -1.1880 C   0  0  0  0  0  0  0  0  0  0  0  0
    2.1000   14.8680   -0.4840 C   0  0  1  0  0  0  0  0  0  0  0  0
    2.7660   15.1550    0.8960 C   0  0  0  0  0  0  0  0  0  0  0  0
    3.1050   13.9560   -1.2820 C   0  0  0  0  0  0  0  0  0  0  0  0
    2.5010   13.0310   -2.3560 C   0  0  0  0  0  0  0  0  0  0  0  0
    1.3120   12.2430   -1.7960 C   0  0  2  0  0  0  0  0  0  0  0  0
    1.8460   11.3290   -0.6410 C   0  0  0  0  0  0  0  0  0  0  0  0
    0.4636    8.9481   -1.4625 H   0  0  0  0  0  0  0  0  0  0  0  0
   -0.6434    8.8994   -2.8763 H   0  0  0  0  0  0  0  0  0  0  0  0
    0.8574    7.9123   -2.8763 H   0  0  0  0  0  0  0  0  0  0  0  0
    1.1161    9.9022   -4.2882 H   0  0  0  0  0  0  0  0  0  0  0  0
    2.7874   10.6134   -1.8892 H   0  0  0  0  0  0  0  0  0  0  0  0
    2.9606    8.9725   -2.6776 H   0  0  0  0  0  0  0  0  0  0  0  0
    3.6280    9.9168   -4.7355 H   0  0  0  0  0  0  0  0  0  0  0  0
    3.1701   11.5852   -4.1923 H   0  0  0  0  0  0  0  0  0  0  0  0
    4.7271   10.3272   -2.4248 H   0  0  0  0  0  0  0  0  0  0  0  0
    5.7342    9.5377   -5.8907 H   0  0  0  0  0  0  0  0  0  0  0  0
    5.4221   11.2836   -6.1754 H   0  0  0  0  0  0  0  0  0  0  0  0
    7.1069   10.6608   -6.1754 H   0  0  0  0  0  0  0  0  0  0  0  0
    7.4267   10.5752   -2.5155 H   0  0  0  0  0  0  0  0  0  0  0  0
    7.9050    9.5664   -3.9228 H   0  0  0  0  0  0  0  0  0  0  0  0
    8.2499   11.3293   -3.9228 H   0  0  0  0  0  0  0  0  0  0  0  0
    0.4924   11.8424   -3.7812 H   0  0  0  0  0  0  0  0  0  0  0  0
   -1.6533   11.2611   -2.8314 H   0  0  0  0  0  0  0  0  0  0  0  0
   -0.9167   10.1693   -1.6392 H   0  0  0  0  0  0  0  0  0  0  0  0
   -1.9259   12.7871   -1.0944 H   0  0  0  0  0  0  0  0  0  0  0  0
   -0.8745   11.8871   -0.0042 H   0  0  0  0  0  0  0  0  0  0  0  0
   -0.9010   15.0071   -2.1036 H   0  0  0  0  0  0  0  0  0  0  0  0
    0.4748   14.5066   -3.1445 H   0  0  0  0  0  0  0  0  0  0  0  0
   -1.0457   13.5503   -3.1445 H   0  0  0  0  0  0  0  0  0  0  0  0
    0.9377   13.3792    0.5910 H   0  0  0  0  0  0  0  0  0  0  0  0
   -1.2941   14.6409    0.3347 H   0  0  0  0  0  0  0  0  0  0  0  0
    0.0131   15.2424    1.4829 H   0  0  0  0  0  0  0  0  0  0  0  0
   -1.2237   17.0805    0.0563 H   0  0  0  0  0  0  0  0  0  0  0  0
    1.8126   15.8859   -2.3211 H   0  0  0  0  0  0  0  0  0  0  0  0
    3.1854   17.4903   -0.0774 H   0  0  0  0  0  0  0  0  0  0  0  0
    3.9947   16.6619   -1.4810 H   0  0  0  0  0  0  0  0  0  0  0  0
    3.8137   19.1067   -1.8144 H   0  0  0  0  0  0  0  0  0  0  0  0
    2.8873   18.1560   -3.0408 H   0  0  0  0  0  0  0  0  0  0  0  0
    1.5508   20.0245   -2.3442 H   0  0  0  0  0  0  0  0  0  0  0  0
    0.9530   20.1200   -0.0410 H   0  0  0  0  0  0  0  0  0  0  0  0
   -0.7056   17.2657   -3.2694 H   0  0  0  0  0  0  0  0  0  0  0  0
   -0.2621   18.9516   -3.7026 H   0  0  0  0  0  0  0  0  0  0  0  0
    0.9913   17.6649   -3.7026 H   0  0  0  0  0  0  0  0  0  0  0  0
   -0.7963   19.1666   -0.0880 H   0  0  0  0  0  0  0  0  0  0  0  0
   -0.7144   20.2068   -1.5502 H   0  0  0  0  0  0  0  0  0  0  0  0
   -1.7472   18.7371   -1.5502 H   0  0  0  0  0  0  0  0  0  0  0  0
    2.0795   14.8592    1.7030 H   0  0  0  0  0  0  0  0  0  0  0  0
    3.6996   14.5793    0.9794 H   0  0  0  0  0  0  0  0  0  0  0  0
    2.9888   16.2290    0.9794 H   0  0  0  0  0  0  0  0  0  0  0  0
    3.8295   14.6164   -1.7809 H   0  0  0  0  0  0  0  0  0  0  0  0
    3.5389   13.2798   -0.5307 H   0  0  0  0  0  0  0  0  0  0  0  0
    2.1603   13.6408   -3.2058 H   0  0  0  0  0  0  0  0  0  0  0  0
    3.2735   12.3176   -2.6790 H   0  0  0  0  0  0  0  0  0  0  0  0
    1.5853   11.7752    0.3300 H   0  0  0  0  0  0  0  0  0  0  0  0
    1.3883   10.3319   -0.7210 H   0  0  0  0  0  0  0  0  0  0  0  0
    2.9393   11.2381   -0.7210 H   0  0  0  0  0  0  0  0  0  0  0  0
  1  2  1  0
  2  3  1  0
  3  4  1  0
  4  5  1  0
  5  6  1  0
  6  7  1  0
  7  8  1  0
  7  9  1  0
  2 10  1  0
 10 11  1  0
 11 12  1  0
 12 13  1  0
 13 14  1  6
 13 15  1  0
 15 16  1  0
 16 17  1  0
 17 18  2  0
 18 19  1  0
 19 20  1  0
 20 21  1  0
 21 22  1  0
 22 23  1  0
 22 24  1  0
 24 25  1  0
 24 26  1  0
 19 27  1  0
 27 28  1  1
 27 29  1  0
 29 30  1  0
 30 31  1  0
 31 32  1  1
  7  5  1  0
 31 10  1  0
 31 13  1  0
 27 15  1  0
 24 18  1  0
  1 33  1  0
  1 34  1  0
  1 35  1  0
  2 36  1  6
  3 37  1  0
  3 38  1  0
  4 39  1  0
  4 40  1  0
  5 41  1  1
  8 42  1  0
  8 43  1  0
  8 44  1  0
  9 45  1  0
  9 46  1  0
  9 47  1  0
 10 48  1  6
 11 49  1  0
 11 50  1  0
 12 51  1  0
 12 52  1  0
 14 53  1  0
 14 54  1  0
 14 55  1  0
 15 56  1  1
 16 57  1  0
 16 58  1  0
 17 59  1  0
 19 60  1  6
 20 61  1  0
 20 62  1  0
 21 63  1  0
 21 64  1  0
 22 65  1  6
 23 66  1  0
 25 67  1  0
 25 68  1  0
 25 69  1  0
 26 70  1  0
 26 71  1  0
 26 72  1  0
 28 73  1  0
 28 74  1  0
 28 75  1  0
 29 76  1  0
 29 77  1  0
 30 78  1  0
 30 79  1  0
 32 80  1  0
 32 81  1  0
 32 82  1  0
M  END
>  <meeko>  (7) 
{"is_sidechain": [false], "intermolecular_energy": 2.731, "internal_energy": -0.839}

$$$$
EPH_relaxed_0001_pdb2pqr_Repair_233_r2_0001_out
     RDKit          3D

 82 86  0  0  0  0  0  0  0  0999 V2000
   -0.0610   10.5730   -4.0920 C   0  0  0  0  0  0  0  0  0  0  0  0
    1.0970   10.3850   -3.1080 C   0  0  2  0  0  0  0  0  0  0  0  0
    1.0040    9.0460   -2.3490 C   0  0  0  0  0  0  0  0  0  0  0  0
   -0.4160    8.6930   -1.8960 C   0  0  0  0  0  0  0  0  0  0  0  0
   -0.6480    9.0650   -0.4620 C   0  0  2  0  0  0  0  0  0  0  0  0
   -2.0240    9.0660   -0.0600 O   0  0  0  0  0  0  0  0  0  0  0  0
   -1.3540   10.3370   -0.0320 C   0  0  0  0  0  0  0  0  0  0  0  0
   -1.8720   11.3200   -1.0350 C   0  0  0  0  0  0  0  0  0  0  0  0
   -1.1090   10.8590    1.3490 C   0  0  0  0  0  0  0  0  0  0  0  0
    1.1310   11.5430   -2.1180 C   0  0  1  0  0  0  0  0  0  0  0  0
    2.1740   11.3340   -0.9880 C   0  0  0  0  0  0  0  0  0  0  0  0
    2.7490   12.7320   -0.6450 C   0  0  0  0  0  0  0  0  0  0  0  0
    1.7940   13.7280   -1.3430 C   0  0  1  0  0  0  0  0  0  0  0  0
    0.5730   13.8560   -0.3790 C   0  0  0  0  0  0  0  0  0  0  0  0
    2.3960   15.1270   -1.7010 C   0  0  2  0  0  0  0  0  0  0  0  0
    2.8580   15.9650   -0.4960 C   0  0  0  0  0  0  0  0  0  0  0  0
    1.8230   16.8720    0.0840 C   0  0  0  0  0  0  0  0  0  0  0  0
    0.6670   17.2210   -0.5100 C   0  0  0  0  0  0  0  0  0  0  0  0
    0.3480   16.7660   -1.9400 C   0  0  1  0  0  0  0  0  0  0  0  0
   -0.1840   17.9720   -2.7600 C   0  0  0  0  0  0  0  0  0  0  0  0
   -1.3690   18.6590   -2.0880 C   0  0  0  0  0  0  0  0  0  0  0  0
   -0.9950   19.1480   -0.6910 C   0  0  2  0  0  0  0  0  0  0  0  0
   -0.0260   20.1930   -0.8120 O   0  0  0  0  0  0  0  0  0  0  0  0
   -0.4370   18.0220    0.2240 C   0  0  0  0  0  0  0  0  0  0  0  0
   -1.5770   17.0440    0.6010 C   0  0  0  0  0  0  0  0  0  0  0  0
    0.0330   18.6740    1.5520 C   0  0  0  0  0  0  0  0  0  0  0  0
    1.5060   15.9800   -2.6920 C   0  0  1  0  0  0  0  0  0  0  0  0
    2.4650   16.9900   -3.3940 C   0  0  0  0  0  0  0  0  0  0  0  0
    0.8730   15.1020   -3.8350 C   0  0  0  0  0  0  0  0  0  0  0  0
    0.4070   13.6860   -3.4460 C   0  0  0  0  0  0  0  0  0  0  0  0
    1.5000   12.9420   -2.6720 C   0  0  2  0  0  0  0  0  0  0  0  0
    2.7330   12.7790   -3.6240 C   0  0  0  0  0  0  0  0  0  0  0  0
   -0.9962   10.7248   -3.5330 H   0  0  0  0  0  0  0  0  0  0  0  0
    0.1346   11.4512   -4.7249 H   0  0  0  0  0  0  0  0  0  0  0  0
   -0.1533    9.6781   -4.7249 H   0  0  0  0  0  0  0  0  0  0  0  0
    2.0282   10.3682   -3.6933 H   0  0  0  0  0  0  0  0  0  0  0  0
    1.3666    8.2456   -3.0108 H   0  0  0  0  0  0  0  0  0  0  0  0
    1.6155    9.1481   -1.4404 H   0  0  0  0  0  0  0  0  0  0  0  0
   -1.1365    9.2350   -2.5262 H   0  0  0  0  0  0  0  0  0  0  0  0
   -0.5474    7.6053   -1.9942 H   0  0  0  0  0  0  0  0  0  0  0  0
    0.3124    8.6182   -0.1654 H   0  0  0  0  0  0  0  0  0  0  0  0
   -2.3229   12.1756   -0.5109 H   0  0  0  0  0  0  0  0  0  0  0  0
   -1.0423   11.6721   -1.6656 H   0  0  0  0  0  0  0  0  0  0  0  0
   -2.6315   10.8347   -1.6656 H   0  0  0  0  0  0  0  0  0  0  0  0
   -1.4556   10.1206    2.0870 H   0  0  0  0  0  0  0  0  0  0  0  0
   -0.0326   11.0385    1.4876 H   0  0  0  0  0  0  0  0  0  0  0  0
   -1.6587   11.8017    1.4876 H   0  0  0  0  0  0  0  0  0  0  0  0
    0.0817   11.5330   -1.7882 H   0  0  0  0  0  0  0  0  0  0  0  0
    1.6903   10.8958   -0.1025 H   0  0  0  0  0  0  0  0  0  0  0  0
    2.9712   10.6472   -1.3088 H   0  0  0  0  0  0  0  0  0  0  0  0
    2.7522   12.8944    0.4429 H   0  0  0  0  0  0  0  0  0  0  0  0
    3.7905   12.8484   -0.9793 H   0  0  0  0  0  0  0  0  0  0  0  0
    0.9232   13.8193    0.6631 H   0  0  0  0  0  0  0  0  0  0  0  0
    0.0613   14.8127   -0.5604 H   0  0  0  0  0  0  0  0  0  0  0  0
   -0.1260   13.0262   -0.5604 H   0  0  0  0  0  0  0  0  0  0  0  0
    3.3125   14.8584   -2.2467 H   0  0  0  0  0  0  0  0  0  0  0  0
    3.1849   15.2730    0.2941 H   0  0  0  0  0  0  0  0  0  0  0  0
    3.6607   16.6181   -0.8691 H   0  0  0  0  0  0  0  0  0  0  0  0
    2.0225   17.2904    1.0816 H   0  0  0  0  0  0  0  0  0  0  0  0
   -0.4372   16.0011   -1.8482 H   0  0  0  0  0  0  0  0  0  0  0  0
    0.6282   18.7045   -2.8773 H   0  0  0  0  0  0  0  0  0  0  0  0
   -0.5274   17.5892   -3.7324 H   0  0  0  0  0  0  0  0  0  0  0  0
   -1.6806   19.5189   -2.6991 H   0  0  0  0  0  0  0  0  0  0  0  0
   -2.1909   17.9335   -1.9980 H   0  0  0  0  0  0  0  0  0  0  0  0
   -1.9158   19.5133   -0.2128 H   0  0  0  0  0  0  0  0  0  0  0  0
    0.0130   20.4510   -1.7490 H   0  0  0  0  0  0  0  0  0  0  0  0
   -1.6553   16.9768    1.6962 H   0  0  0  0  0  0  0  0  0  0  0  0
   -2.5275   17.4119    0.1873 H   0  0  0  0  0  0  0  0  0  0  0  0
   -1.3579   16.0486    0.1873 H   0  0  0  0  0  0  0  0  0  0  0  0
   -0.3748   18.1083    2.4027 H   0  0  0  0  0  0  0  0  0  0  0  0
    1.1320   18.6627    1.5972 H   0  0  0  0  0  0  0  0  0  0  0  0
   -0.3251   19.7131    1.5972 H   0  0  0  0  0  0  0  0  0  0  0  0
    3.0119   17.5659   -2.6329 H   0  0  0  0  0  0  0  0  0  0  0  0
    3.1811   16.4398   -4.0221 H   0  0  0  0  0  0  0  0  0  0  0  0
    1.8784   17.6766   -4.0221 H   0  0  0  0  0  0  0  0  0  0  0  0
   -0.0006   15.6442   -4.2259 H   0  0  0  0  0  0  0  0  0  0  0  0
    1.6837   14.9485   -4.5624 H   0  0  0  0  0  0  0  0  0  0  0  0
   -0.4911   13.7633   -2.8156 H   0  0  0  0  0  0  0  0  0  0  0  0
    0.1849   13.1249   -4.3657 H   0  0  0  0  0  0  0  0  0  0  0  0
    3.6466   12.6582   -3.0233 H   0  0  0  0  0  0  0  0  0  0  0  0
    2.5915   11.8917   -4.2586 H   0  0  0  0  0  0  0  0  0  0  0  0
    2.8269   13.6725   -4.2586 H   0  0  0  0  0  0  0  0  0  0  0  0
  1  2  1  0
  2  3  1  0
  3  4  1  0
  4  5  1  0
  5  6  1  0
  6  7  1  0
  7  8  1  0
  7  9  1  0
  2 10  1  0
 10 11  1  0
 11 12  1  0
 12 13  1  0
 13 14  1  1
 13 15  1  0
 15 16  1  0
 16 17  1  0
 17 18  2  0
 18 19  1  0
 19 20  1  0
 20 21  1  0
 21 22  1  0
 22 23  1  0
 22 24  1  0
 24 25  1  0
 24 26  1  0
 19 27  1  0
 27 28  1  6
 27 29  1  0
 29 30  1  0
 30 31  1  0
 31 32  1  6
  7  5  1  0
 31 10  1  0
 31 13  1  0
 27 15  1  0
 24 18  1  0
  1 33  1  0
  1 34  1  0
  1 35  1  0
  2 36  1  6
  3 37  1  0
  3 38  1  0
  4 39  1  0
  4 40  1  0
  5 41  1  1
  8 42  1  0
  8 43  1  0
  8 44  1  0
  9 45  1  0
  9 46  1  0
  9 47  1  0
 10 48  1  1
 11 49  1  0
 11 50  1  0
 12 51  1  0
 12 52  1  0
 14 53  1  0
 14 54  1  0
 14 55  1  0
 15 56  1  6
 16 57  1  0
 16 58  1  0
 17 59  1  0
 19 60  1  1
 20 61  1  0
 20 62  1  0
 21 63  1  0
 21 64  1  0
 22 65  1  1
 23 66  1  0
 25 67  1  0
 25 68  1  0
 25 69  1  0
 26 70  1  0
 26 71  1  0
 26 72  1  0
 28 73  1  0
 28 74  1  0
 28 75  1  0
 29 76  1  0
 29 77  1  0
 30 78  1  0
 30 79  1  0
 32 80  1  0
 32 81  1  0
 32 82  1  0
M  END
>  <meeko>  (8) 
{"is_sidechain": [false], "intermolecular_energy": 2.731, "internal_energy": -0.839}

$$$$
EPH_relaxed_0001_pdb2pqr_Repair_233_r2_0001_out
     RDKit          3D

 82 86  0  0  0  0  0  0  0  0999 V2000
    4.1760   16.9890    0.7590 C   0  0  0  0  0  0  0  0  0  0  0  0
    3.3870   16.9220   -0.5520 C   0  0  2  0  0  0  0  0  0  0  0  0
    2.9080   18.3130   -1.0130 C   0  0  0  0  0  0  0  0  0  0  0  0
    2.1770   18.2960   -2.3590 C   0  0  0  0  0  0  0  0  0  0  0  0
    0.7650   18.7820   -2.2280 C   0  0  2  0  0  0  0  0  0  0  0  0
    0.5940   20.1900   -2.4370 O   0  0  0  0  0  0  0  0  0  0  0  0
    0.2970   19.7040   -1.1180 C   0  0  0  0  0  0  0  0  0  0  0  0
    1.2370   20.1940   -0.0620 C   0  0  0  0  0  0  0  0  0  0  0  0
   -1.1610   19.7330   -0.7800 C   0  0  0  0  0  0  0  0  0  0  0  0
    2.1950   15.9860   -0.3930 C   0  0  1  0  0  0  0  0  0  0  0  0
    0.8410   16.7440   -0.3620 C   0  0  0  0  0  0  0  0  0  0  0  0
   -0.1980   15.8340   -1.0670 C   0  0  0  0  0  0  0  0  0  0  0  0
    0.5030   14.4600   -1.1830 C   0  0  1  0  0  0  0  0  0  0  0  0
    0.3200   13.7960    0.2180 C   0  0  0  0  0  0  0  0  0  0  0  0
    0.0060   13.5250   -2.3340 C   0  0  2  0  0  0  0  0  0  0  0  0
   -1.4670   13.0900   -2.2300 C   0  0  0  0  0  0  0  0  0  0  0  0
   -1.7060   11.8230   -1.4780 C   0  0  0  0  0  0  0  0  0  0  0  0
   -0.7650   10.9170   -1.1530 C   0  0  0  0  0  0  0  0  0  0  0  0
    0.6830   11.0770   -1.6350 C   0  0  1  0  0  0  0  0  0  0  0  0
    1.1930    9.7250   -2.1990 C   0  0  0  0  0  0  0  0  0  0  0  0
    1.0330    8.5790   -1.2060 C   0  0  0  0  0  0  0  0  0  0  0  0
   -0.4280    8.4130   -0.7950 C   0  0  2  0  0  0  0  0  0  0  0  0
   -1.1800    7.9790   -1.9320 O   0  0  0  0  0  0  0  0  0  0  0  0
   -1.0540    9.7150   -0.2200 C   0  0  0  0  0  0  0  0  0  0  0  0
   -0.4390   10.0190    1.1680 C   0  0  0  0  0  0  0  0  0  0  0  0
   -2.5650    9.4520    0.0220 C   0  0  0  0  0  0  0  0  0  0  0  0
    0.9540   12.2920   -2.6230 C   0  0  1  0  0  0  0  0  0  0  0  0
    0.6780   11.8540   -4.0940 C   0  0  0  0  0  0  0  0  0  0  0  0
    2.4780   12.6800   -2.5540 C   0  0  0  0  0  0  0  0  0  0  0  0
    2.8880   13.6990   -1.4730 C   0  0  0  0  0  0  0  0  0  0  0  0
    1.9710   14.9260   -1.5000 C   0  0  2  0  0  0  0  0  0  0  0  0
    2.1500   15.6260   -2.8900 C   0  0  0  0  0  0  0  0  0  0  0  0
    3.4803   16.9299    1.6090 H   0  0  0  0  0  0  0  0  0  0  0  0
    4.8832   16.1477    0.8048 H   0  0  0  0  0  0  0  0  0  0  0  0
    4.7312   17.9375    0.8048 H   0  0  0  0  0  0  0  0  0  0  0  0
    4.0640   16.5332   -1.3269 H   0  0  0  0  0  0  0  0  0  0  0  0
    2.2241   18.7152   -0.2511 H   0  0  0  0  0  0  0  0  0  0  0  0
    3.8052   18.9364   -1.1415 H   0  0  0  0  0  0  0  0  0  0  0  0
    2.7141   18.9466   -3.0648 H   0  0  0  0  0  0  0  0  0  0  0  0
    2.1506   17.2581   -2.7223 H   0  0  0  0  0  0  0  0  0  0  0  0
    0.3761   17.8246   -2.6051 H   0  0  0  0  0  0  0  0  0  0  0  0
    0.8183   19.9757    0.9315 H   0  0  0  0  0  0  0  0  0  0  0  0
    2.2070   19.6868   -0.1706 H   0  0  0  0  0  0  0  0  0  0  0  0
    1.3767   21.2797   -0.1706 H   0  0  0  0  0  0  0  0  0  0  0  0
   -1.2840   19.7354    0.3131 H   0  0  0  0  0  0  0  0  0  0  0  0
   -1.6173   20.6404   -1.2024 H   0  0  0  0  0  0  0  0  0  0  0  0
   -1.6531   18.8445   -1.2024 H   0  0  0  0  0  0  0  0  0  0  0  0
    2.4721   15.4923    0.5501 H   0  0  0  0  0  0  0  0  0  0  0  0
    0.5359   16.9319    0.6780 H   0  0  0  0  0  0  0  0  0  0  0  0
    0.9217   17.7171   -0.8686 H   0  0  0  0  0  0  0  0  0  0  0  0
   -1.1150   15.7526   -0.4650 H   0  0  0  0  0  0  0  0  0  0  0  0
   -0.5039   16.2306   -2.0463 H   0  0  0  0  0  0  0  0  0  0  0  0
    0.5243   14.5373    1.0046 H   0  0  0  0  0  0  0  0  0  0  0  0
   -0.7125   13.4301    0.3183 H   0  0  0  0  0  0  0  0  0  0  0  0
    1.0192   12.9528    0.3183 H   0  0  0  0  0  0  0  0  0  0  0  0
    0.0624   14.1828   -3.2138 H   0  0  0  0  0  0  0  0  0  0  0  0
   -2.0242   13.8941   -1.7270 H   0  0  0  0  0  0  0  0  0  0  0  0
   -1.8017   12.9000   -3.2605 H   0  0  0  0  0  0  0  0  0  0  0  0
   -2.7385   11.6118   -1.1627 H   0  0  0  0  0  0  0  0  0  0  0  0
    1.2703   11.3564   -0.7479 H   0  0  0  0  0  0  0  0  0  0  0  0
    0.6232    9.4852   -3.1089 H   0  0  0  0  0  0  0  0  0  0  0  0
    2.2667    9.8356   -2.4108 H   0  0  0  0  0  0  0  0  0  0  0  0
    1.3838    7.6467   -1.6726 H   0  0  0  0  0  0  0  0  0  0  0  0
    1.6265    8.8069   -0.3083 H   0  0  0  0  0  0  0  0  0  0  0  0
   -0.4613    7.6660    0.0118 H   0  0  0  0  0  0  0  0  0  0  0  0
   -1.8400    7.3370   -1.6200 H   0  0  0  0  0  0  0  0  0  0  0  0
   -1.1268    9.6790    1.9562 H   0  0  0  0  0  0  0  0  0  0  0  0
    0.5214    9.4918    1.2669 H   0  0  0  0  0  0  0  0  0  0  0  0
   -0.2746   11.1021    1.2669 H   0  0  0  0  0  0  0  0  0  0  0  0
   -2.7626    9.4176    1.1036 H   0  0  0  0  0  0  0  0  0  0  0  0
   -3.1555   10.2609   -0.4331 H   0  0  0  0  0  0  0  0  0  0  0  0
   -2.8474    8.4912   -0.4331 H   0  0  0  0  0  0  0  0  0  0  0  0
    0.0916   10.9234   -4.0956 H   0  0  0  0  0  0  0  0  0  0  0  0
    0.1140   12.6437   -4.6120 H   0  0  0  0  0  0  0  0  0  0  0  0
    1.6337   11.6860   -4.6120 H   0  0  0  0  0  0  0  0  0  0  0  0
    3.0485   11.7568   -2.3744 H   0  0  0  0  0  0  0  0  0  0  0  0
    2.6922   13.1756   -3.5124 H   0  0  0  0  0  0  0  0  0  0  0  0
    2.8210   13.2214   -0.4844 H   0  0  0  0  0  0  0  0  0  0  0  0
    3.9187   14.0270   -1.6731 H   0  0  0  0  0  0  0  0  0  0  0  0
    2.4199   16.6814   -2.7370 H   0  0  0  0  0  0  0  0  0  0  0  0
    2.9481   15.1216   -3.4545 H   0  0  0  0  0  0  0  0  0  0  0  0
    1.2078   15.5666   -3.4545 H   0  0  0  0  0  0  0  0  0  0  0  0
  1  2  1  0
  2  3  1  0
  3  4  1  0
  4  5  1  0
  5  6  1  0
  6  7  1  0
  7  8  1  0
  7  9  1  0
  2 10  1  0
 10 11  1  0
 11 12  1  0
 12 13  1  0
 13 14  1  1
 13 15  1  0
 15 16  1  0
 16 17  1  0
 17 18  2  0
 18 19  1  0
 19 20  1  0
 20 21  1  0
 21 22  1  0
 22 23  1  0
 22 24  1  0
 24 25  1  0
 24 26  1  0
 19 27  1  0
 27 28  1  6
 27 29  1  0
 29 30  1  0
 30 31  1  0
 31 32  1  6
  7  5  1  0
 31 10  1  0
 31 13  1  0
 27 15  1  0
 24 18  1  0
  1 33  1  0
  1 34  1  0
  1 35  1  0
  2 36  1  6
  3 37  1  0
  3 38  1  0
  4 39  1  0
  4 40  1  0
  5 41  1  6
  8 42  1  0
  8 43  1  0
  8 44  1  0
  9 45  1  0
  9 46  1  0
  9 47  1  0
 10 48  1  1
 11 49  1  0
 11 50  1  0
 12 51  1  0
 12 52  1  0
 14 53  1  0
 14 54  1  0
 14 55  1  0
 15 56  1  6
 16 57  1  0
 16 58  1  0
 17 59  1  0
 19 60  1  1
 20 61  1  0
 20 62  1  0
 21 63  1  0
 21 64  1  0
 22 65  1  1
 23 66  1  0
 25 67  1  0
 25 68  1  0
 25 69  1  0
 26 70  1  0
 26 71  1  0
 26 72  1  0
 28 73  1  0
 28 74  1  0
 28 75  1  0
 29 76  1  0
 29 77  1  0
 30 78  1  0
 30 79  1  0
 32 80  1  0
 32 81  1  0
 32 82  1  0
M  END
>  <meeko>  (9) 
{"is_sidechain": [false], "intermolecular_energy": 2.731, "internal_energy": -0.839}

$$$$
EPH_relaxed_0001_pdb2pqr_Repair_233_r2_0001_out
     RDKit          3D

 82 86  0  0  0  0  0  0  0  0999 V2000
    0.1600   17.7760   -2.5120 C   0  0  0  0  0  0  0  0  0  0  0  0
   -0.0910   16.8670   -1.3060 C   0  0  2  0  0  0  0  0  0  0  0  0
   -0.1550   17.6590    0.0150 C   0  0  0  0  0  0  0  0  0  0  0  0
    0.4500   19.0620   -0.0790 C   0  0  0  0  0  0  0  0  0  0  0  0
    1.6150   19.2270    0.8510 C   0  0  2  0  0  0  0  0  0  0  0  0
    2.5870   20.1910    0.4270 O   0  0  0  0  0  0  0  0  0  0  0  0
    3.0340   18.8270    0.4930 C   0  0  0  0  0  0  0  0  0  0  0  0
    3.3640   18.2300   -0.8390 C   0  0  0  0  0  0  0  0  0  0  0  0
    4.0040   18.5630    1.6020 C   0  0  0  0  0  0  0  0  0  0  0  0
    0.9950   15.8010   -1.2230 C   0  0  1  0  0  0  0  0  0  0  0  0
    1.2110   15.2790    0.2230 C   0  0  0  0  0  0  0  0  0  0  0  0
    1.5650   13.7740    0.1060 C   0  0  0  0  0  0  0  0  0  0  0  0
    1.8660   13.5590   -1.3950 C   0  0  1  0  0  0  0  0  0  0  0  0
    3.3360   14.0480   -1.5830 C   0  0  0  0  0  0  0  0  0  0  0  0
    1.6670   12.1070   -1.9390 C   0  0  2  0  0  0  0  0  0  0  0  0
    2.5800   11.0420   -1.3060 C   0  0  0  0  0  0  0  0  0  0  0  0
    3.8820   10.8240   -2.0040 C   0  0  0  0  0  0  0  0  0  0  0  0
    4.1840   11.2440   -3.2460 C   0  0  0  0  0  0  0  0  0  0  0  0
    3.1300   11.9330   -4.1220 C   0  0  1  0  0  0  0  0  0  0  0  0
    3.1600   11.3210   -5.5470 C   0  0  0  0  0  0  0  0  0  0  0  0
    4.5520   11.3580   -6.1710 C   0  0  0  0  0  0  0  0  0  0  0  0
    5.5600   10.6120   -5.2990 C   0  0  2  0  0  0  0  0  0  0  0  0
    5.2290    9.2200   -5.3000 O   0  0  0  0  0  0  0  0  0  0  0  0
    5.6120   11.1360   -3.8370 C   0  0  0  0  0  0  0  0  0  0  0  0
    6.2560   12.5440   -3.8110 C   0  0  0  0  0  0  0  0  0  0  0  0
    6.5610   10.2090   -3.0310 C   0  0  0  0  0  0  0  0  0  0  0  0
    1.6620   12.0010   -3.5180 C   0  0  1  0  0  0  0  0  0  0  0  0
    0.8800   10.6990   -3.8740 C   0  0  0  0  0  0  0  0  0  0  0  0
    0.8810   13.1880   -4.1950 C   0  0  0  0  0  0  0  0  0  0  0  0
    1.0230   14.5760   -3.5410 C   0  0  0  0  0  0  0  0  0  0  0  0
    0.7770   14.4980   -2.0310 C   0  0  2  0  0  0  0  0  0  0  0  0
   -0.7020   14.0300   -1.8110 C   0  0  0  0  0  0  0  0  0  0  0  0
    0.4376   18.7812   -2.1620 H   0  0  0  0  0  0  0  0  0  0  0  0
    0.9771   17.3609   -3.1203 H   0  0  0  0  0  0  0  0  0  0  0  0
   -0.7544   17.8390   -3.1203 H   0  0  0  0  0  0  0  0  0  0  0  0
   -1.0707   16.3883   -1.4510 H   0  0  0  0  0  0  0  0  0  0  0  0
   -1.2099   17.7548    0.3117 H   0  0  0  0  0  0  0  0  0  0  0  0
    0.4396   17.1012    0.7535 H   0  0  0  0  0  0  0  0  0  0  0  0
    0.7901   19.2352   -1.1107 H   0  0  0  0  0  0  0  0  0  0  0  0
   -0.3238   19.7891    0.2082 H   0  0  0  0  0  0  0  0  0  0  0  0
    0.9823   19.0009    1.7220 H   0  0  0  0  0  0  0  0  0  0  0  0
    3.8914   17.2758   -0.6926 H   0  0  0  0  0  0  0  0  0  0  0  0
    2.4355   18.0532   -1.4017 H   0  0  0  0  0  0  0  0  0  0  0  0
    4.0076   18.9222   -1.4017 H   0  0  0  0  0  0  0  0  0  0  0  0
    3.5002   18.7001    2.5702 H   0  0  0  0  0  0  0  0  0  0  0  0
    4.3765   17.5308    1.5254 H   0  0  0  0  0  0  0  0  0  0  0  0
    4.8482   19.2641    1.5254 H   0  0  0  0  0  0  0  0  0  0  0  0
    1.8398   16.3666   -1.6431 H   0  0  0  0  0  0  0  0  0  0  0  0
    2.0353   15.8259    0.7042 H   0  0  0  0  0  0  0  0  0  0  0  0
    0.3093   15.4266    0.8354 H   0  0  0  0  0  0  0  0  0  0  0  0
    2.4476   13.5341    0.7172 H   0  0  0  0  0  0  0  0  0  0  0  0
    0.7524   13.1255    0.4653 H   0  0  0  0  0  0  0  0  0  0  0  0
    3.7999   14.2023   -0.5976 H   0  0  0  0  0  0  0  0  0  0  0  0
    3.9056   13.2909   -2.1419 H   0  0  0  0  0  0  0  0  0  0  0  0
    3.3386   14.9954   -2.1419 H   0  0  0  0  0  0  0  0  0  0  0  0
    0.6485   11.8659   -1.6005 H   0  0  0  0  0  0  0  0  0  0  0  0
    2.7956   11.3496   -0.2721 H   0  0  0  0  0  0  0  0  0  0  0  0
    2.0330   10.0903   -1.3765 H   0  0  0  0  0  0  0  0  0  0  0  0
    4.6606   10.2731   -1.4560 H   0  0  0  0  0  0  0  0  0  0  0  0
    3.4180   12.9937   -4.1651 H   0  0  0  0  0  0  0  0  0  0  0  0
    2.8278   10.2740   -5.4881 H   0  0  0  0  0  0  0  0  0  0  0  0
    2.4933   11.9224   -6.1825 H   0  0  0  0  0  0  0  0  0  0  0  0
    4.5146   10.8849   -7.1634 H   0  0  0  0  0  0  0  0  0  0  0  0
    4.8707   12.4073   -6.2575 H   0  0  0  0  0  0  0  0  0  0  0  0
    6.5580   10.7833   -5.7286 H   0  0  0  0  0  0  0  0  0  0  0  0
    5.2170    8.9210   -6.2260 H   0  0  0  0  0  0  0  0  0  0  0  0
    6.4012   12.8616   -2.7679 H   0  0  0  0  0  0  0  0  0  0  0  0
    7.2289   12.5117   -4.3233 H   0  0  0  0  0  0  0  0  0  0  0  0
    5.5953   13.2589   -4.3233 H   0  0  0  0  0  0  0  0  0  0  0  0
    6.3999   10.3663   -1.9543 H   0  0  0  0  0  0  0  0  0  0  0  0
    6.3502    9.1594   -3.2838 H   0  0  0  0  0  0  0  0  0  0  0  0
    7.6054   10.4444   -3.2838 H   0  0  0  0  0  0  0  0  0  0  0  0
    0.5743   10.1901   -2.9480 H   0  0  0  0  0  0  0  0  0  0  0  0
   -0.0128   10.9569   -4.4625 H   0  0  0  0  0  0  0  0  0  0  0  0
    1.5271   10.0320   -4.4625 H   0  0  0  0  0  0  0  0  0  0  0  0
    1.2364   13.2712   -5.2327 H   0  0  0  0  0  0  0  0  0  0  0  0
   -0.1829   12.9286   -4.0914 H   0  0  0  0  0  0  0  0  0  0  0  0
    2.0394   14.9563   -3.7209 H   0  0  0  0  0  0  0  0  0  0  0  0
    0.2756   15.2507   -3.9839 H   0  0  0  0  0  0  0  0  0  0  0  0
   -0.9093   13.9644   -0.7327 H   0  0  0  0  0  0  0  0  0  0  0  0
   -1.3885   14.7548   -2.2729 H   0  0  0  0  0  0  0  0  0  0  0  0
   -0.8466   13.0422   -2.2729 H   0  0  0  0  0  0  0  0  0  0  0  0
  1  2  1  0
  2  3  1  0
  3  4  1  0
  4  5  1  0
  5  6  1  0
  6  7  1  0
  7  8  1  0
  7  9  1  0
  2 10  1  0
 10 11  1  0
 11 12  1  0
 12 13  1  0
 13 14  1  1
 13 15  1  0
 15 16  1  0
 16 17  1  0
 17 18  2  0
 18 19  1  0
 19 20  1  0
 20 21  1  0
 21 22  1  0
 22 23  1  0
 22 24  1  0
 24 25  1  0
 24 26  1  0
 19 27  1  0
 27 28  1  1
 27 29  1  0
 29 30  1  0
 30 31  1  0
 31 32  1  6
  7  5  1  0
 31 10  1  0
 31 13  1  0
 27 15  1  0
 24 18  1  0
  1 33  1  0
  1 34  1  0
  1 35  1  0
  2 36  1  6
  3 37  1  0
  3 38  1  0
  4 39  1  0
  4 40  1  0
  5 41  1  1
  8 42  1  0
  8 43  1  0
  8 44  1  0
  9 45  1  0
  9 46  1  0
  9 47  1  0
 10 48  1  6
 11 49  1  0
 11 50  1  0
 12 51  1  0
 12 52  1  0
 14 53  1  0
 14 54  1  0
 14 55  1  0
 15 56  1  1
 16 57  1  0
 16 58  1  0
 17 59  1  0
 19 60  1  6
 20 61  1  0
 20 62  1  0
 21 63  1  0
 21 64  1  0
 22 65  1  6
 23 66  1  0
 25 67  1  0
 25 68  1  0
 25 69  1  0
 26 70  1  0
 26 71  1  0
 26 72  1  0
 28 73  1  0
 28 74  1  0
 28 75  1  0
 29 76  1  0
 29 77  1  0
 30 78  1  0
 30 79  1  0
 32 80  1  0
 32 81  1  0
 32 82  1  0
M  END
>  <meeko>  (10) 
{"is_sidechain": [false], "intermolecular_energy": 2.731, "internal_energy": -0.839}

$$$$
EPH_relaxed_0001_pdb2pqr_Repair_233_r2_0001_out
     RDKit          3D

 82 86  0  0  0  0  0  0  0  0999 V2000
    2.6100   19.3640   -0.8700 C   0  0  0  0  0  0  0  0  0  0  0  0
    2.4600   18.4010   -2.0510 C   0  0  2  0  0  0  0  0  0  0  0  0
    1.0540   18.4700   -2.6800 C   0  0  0  0  0  0  0  0  0  0  0  0
    0.2050   19.6350   -2.1650 C   0  0  0  0  0  0  0  0  0  0  0  0
   -1.0670   19.1570   -1.5330 C   0  0  2  0  0  0  0  0  0  0  0  0
   -1.8830   20.1940   -0.9720 O   0  0  0  0  0  0  0  0  0  0  0  0
   -1.3430   19.2400   -0.0430 C   0  0  0  0  0  0  0  0  0  0  0  0
   -0.3390   19.8150    0.9060 C   0  0  0  0  0  0  0  0  0  0  0  0
   -2.3700   18.3240    0.5460 C   0  0  0  0  0  0  0  0  0  0  0  0
    2.7610   16.9760   -1.6020 C   0  0  1  0  0  0  0  0  0  0  0  0
    3.6340   16.9260   -0.3200 C   0  0  0  0  0  0  0  0  0  0  0  0
    3.1610   15.6940    0.4950 C   0  0  0  0  0  0  0  0  0  0  0  0
    2.2740   14.8940   -0.4870 C   0  0  1  0  0  0  0  0  0  0  0  0
    3.2780   14.0850   -1.3670 C   0  0  0  0  0  0  0  0  0  0  0  0
    1.1920   13.9660    0.1560 C   0  0  2  0  0  0  0  0  0  0  0  0
    1.7460   12.8310    1.0350 C   0  0  0  0  0  0  0  0  0  0  0  0
    2.0180   11.5480    0.3210 C   0  0  0  0  0  0  0  0  0  0  0  0
    1.5640   11.2220   -0.9030 C   0  0  0  0  0  0  0  0  0  0  0  0
    0.6070   12.1510   -1.6610 C   0  0  1  0  0  0  0  0  0  0  0  0
   -0.5640   11.3210   -2.2490 C   0  0  0  0  0  0  0  0  0  0  0  0
   -0.0820   10.1550   -3.1060 C   0  0  0  0  0  0  0  0  0  0  0  0
    0.8200    9.2220   -2.3010 C   0  0  2  0  0  0  0  0  0  0  0  0
    0.0370    8.5890   -1.2840 O   0  0  0  0  0  0  0  0  0  0  0  0
    2.0300    9.9500   -1.6530 C   0  0  0  0  0  0  0  0  0  0  0  0
    3.0330   10.3750   -2.7530 C   0  0  0  0  0  0  0  0  0  0  0  0
    2.7780    8.9260   -0.7560 C   0  0  0  0  0  0  0  0  0  0  0  0
    0.1070   13.4320   -0.8630 C   0  0  1  0  0  0  0  0  0  0  0  0
   -1.1570   13.0750   -0.0220 C   0  0  0  0  0  0  0  0  0  0  0  0
   -0.3430   14.5360   -1.8920 C   0  0  0  0  0  0  0  0  0  0  0  0
    0.7480   15.4970   -2.4000 C   0  0  0  0  0  0  0  0  0  0  0  0
    1.5550   16.0770   -1.2340 C   0  0  2  0  0  0  0  0  0  0  0  0
    0.5750   16.9150   -0.3440 C   0  0  0  0  0  0  0  0  0  0  0  0
    2.5228   18.8042    0.0729 H   0  0  0  0  0  0  0  0  0  0  0  0
    3.5949   19.8516   -0.9172 H   0  0  0  0  0  0  0  0  0  0  0  0
    1.8200   20.1280   -0.9172 H   0  0  0  0  0  0  0  0  0  0  0  0
    3.1824   18.7072   -2.8220 H   0  0  0  0  0  0  0  0  0  0  0  0
    1.1658   18.5768   -3.7691 H   0  0  0  0  0  0  0  0  0  0  0  0
    0.5313   17.5435   -2.4002 H   0  0  0  0  0  0  0  0  0  0  0  0
    0.7854   20.1961   -1.4178 H   0  0  0  0  0  0  0  0  0  0  0  0
   -0.0566   20.2736   -3.0216 H   0  0  0  0  0  0  0  0  0  0  0  0
   -1.1409   18.3279   -2.2521 H   0  0  0  0  0  0  0  0  0  0  0  0
   -0.6637   19.6290    1.9404 H   0  0  0  0  0  0  0  0  0  0  0  0
    0.6387   19.3399    0.7376 H   0  0  0  0  0  0  0  0  0  0  0  0
   -0.2540   20.8987    0.7376 H   0  0  0  0  0  0  0  0  0  0  0  0
   -2.3170   18.3713    1.6437 H   0  0  0  0  0  0  0  0  0  0  0  0
   -3.3717   18.6341    0.2136 H   0  0  0  0  0  0  0  0  0  0  0  0
   -2.1760   17.2935    0.2136 H   0  0  0  0  0  0  0  0  0  0  0  0
    3.2499   16.5952   -2.5109 H   0  0  0  0  0  0  0  0  0  0  0  0
    4.6953   16.8181   -0.5883 H   0  0  0  0  0  0  0  0  0  0  0  0
    3.5293   17.8512    0.2657 H   0  0  0  0  0  0  0  0  0  0  0  0
    4.0210   15.0907    0.8212 H   0  0  0  0  0  0  0  0  0  0  0  0
    2.6187   15.9809    1.4080 H   0  0  0  0  0  0  0  0  0  0  0  0
    3.9691   13.5282   -0.7171 H   0  0  0  0  0  0  0  0  0  0  0  0
    2.7227   13.3790   -2.0020 H   0  0  0  0  0  0  0  0  0  0  0  0
    3.8497   14.7777   -2.0020 H   0  0  0  0  0  0  0  0  0  0  0  0
    0.6727   14.6499    0.8435 H   0  0  0  0  0  0  0  0  0  0  0  0
    2.6889   13.1773    1.4834 H   0  0  0  0  0  0  0  0  0  0  0  0
    0.9630   12.6083    1.7748 H   0  0  0  0  0  0  0  0  0  0  0  0
    2.6428   10.8061    0.8399 H   0  0  0  0  0  0  0  0  0  0  0  0
    1.1965   12.5941   -2.4772 H   0  0  0  0  0  0  0  0  0  0  0  0
   -1.1660   10.9232   -1.4187 H   0  0  0  0  0  0  0  0  0  0  0  0
   -1.1548   11.9878   -2.8943 H   0  0  0  0  0  0  0  0  0  0  0  0
   -0.9536    9.5896   -3.4676 H   0  0  0  0  0  0  0  0  0  0  0  0
    0.4944   10.5564   -3.9526 H   0  0  0  0  0  0  0  0  0  0  0  0
    1.2373    8.4814   -2.9991 H   0  0  0  0  0  0  0  0  0  0  0  0
   -0.8660    8.4860   -1.6290 H   0  0  0  0  0  0  0  0  0  0  0  0
    3.9491   10.7632   -2.2838 H   0  0  0  0  0  0  0  0  0  0  0  0
    3.2817    9.5049   -3.3784 H   0  0  0  0  0  0  0  0  0  0  0  0
    2.5809   11.1589   -3.3784 H   0  0  0  0  0  0  0  0  0  0  0  0
    2.6013    9.1679    0.3024 H   0  0  0  0  0  0  0  0  0  0  0  0
    2.4060    7.9127   -0.9676 H   0  0  0  0  0  0  0  0  0  0  0  0
    3.8565    8.9722   -0.9676 H   0  0  0  0  0  0  0  0  0  0  0  0
   -0.9160   13.1431    1.0491 H   0  0  0  0  0  0  0  0  0  0  0  0
   -1.9674   13.7794   -0.2610 H   0  0  0  0  0  0  0  0  0  0  0  0
   -1.4791   12.0507   -0.2610 H   0  0  0  0  0  0  0  0  0  0  0  0
   -0.7677   14.0222   -2.7670 H   0  0  0  0  0  0  0  0  0  0  0  0
   -1.0526   15.1710   -1.3413 H   0  0  0  0  0  0  0  0  0  0  0  0
    1.4268   14.9488   -3.0698 H   0  0  0  0  0  0  0  0  0  0  0  0
    0.2629   16.3255   -2.9369 H   0  0  0  0  0  0  0  0  0  0  0  0
    0.7934   16.7282    0.7178 H   0  0  0  0  0  0  0  0  0  0  0  0
    0.7055   17.9852   -0.5625 H   0  0  0  0  0  0  0  0  0  0  0  0
   -0.4619   16.6199   -0.5625 H   0  0  0  0  0  0  0  0  0  0  0  0
  1  2  1  0
  2  3  1  0
  3  4  1  0
  4  5  1  0
  5  6  1  0
  6  7  1  0
  7  8  1  0
  7  9  1  0
  2 10  1  0
 10 11  1  0
 11 12  1  0
 12 13  1  0
 13 14  1  6
 13 15  1  0
 15 16  1  0
 16 17  1  0
 17 18  2  0
 18 19  1  0
 19 20  1  0
 20 21  1  0
 21 22  1  0
 22 23  1  0
 22 24  1  0
 24 25  1  0
 24 26  1  0
 19 27  1  0
 27 28  1  1
 27 29  1  0
 29 30  1  0
 30 31  1  0
 31 32  1  1
  7  5  1  0
 31 10  1  0
 31 13  1  0
 27 15  1  0
 24 18  1  0
  1 33  1  0
  1 34  1  0
  1 35  1  0
  2 36  1  6
  3 37  1  0
  3 38  1  0
  4 39  1  0
  4 40  1  0
  5 41  1  6
  8 42  1  0
  8 43  1  0
  8 44  1  0
  9 45  1  0
  9 46  1  0
  9 47  1  0
 10 48  1  6
 11 49  1  0
 11 50  1  0
 12 51  1  0
 12 52  1  0
 14 53  1  0
 14 54  1  0
 14 55  1  0
 15 56  1  1
 16 57  1  0
 16 58  1  0
 17 59  1  0
 19 60  1  6
 20 61  1  0
 20 62  1  0
 21 63  1  0
 21 64  1  0
 22 65  1  6
 23 66  1  0
 25 67  1  0
 25 68  1  0
 25 69  1  0
 26 70  1  0
 26 71  1  0
 26 72  1  0
 28 73  1  0
 28 74  1  0
 28 75  1  0
 29 76  1  0
 29 77  1  0
 30 78  1  0
 30 79  1  0
 32 80  1  0
 32 81  1  0
 32 82  1  0
M  END
>  <meeko>  (11) 
{"is_sidechain": [false], "intermolecular_energy": 2.731, "internal_energy": -0.839}

$$$$
EPH_relaxed_0001_pdb2pqr_Repair_233_r2_0001_out
     RDKit          3D

 82 86  0  0  0  0  0  0  0  0999 V2000
   -0.9140   16.3950   -5.8710 C   0  0  0  0  0  0  0  0  0  0  0  0
    0.1810   15.6950   -6.6810 C   0  0  2  0  0  0  0  0  0  0  0  0
   -0.2230   15.4990   -8.1560 C   0  0  0  0  0  0  0  0  0  0  0  0
    0.4260   16.5050   -9.1110 C   0  0  0  0  0  0  0  0  0  0  0  0
    1.8340   16.1200   -9.4500 C   0  0  2  0  0  0  0  0  0  0  0  0
    2.3310   16.6830  -10.6710 O   0  0  0  0  0  0  0  0  0  0  0  0
    2.2000   15.2530  -10.6400 C   0  0  0  0  0  0  0  0  0  0  0  0
    1.1540   14.7170  -11.5670 C   0  0  0  0  0  0  0  0  0  0  0  0
    3.5090   14.5270  -10.6210 C   0  0  0  0  0  0  0  0  0  0  0  0
    0.5150   14.3490   -6.0490 C   0  0  1  0  0  0  0  0  0  0  0  0
    1.7440   13.6680   -6.7080 C   0  0  0  0  0  0  0  0  0  0  0  0
    2.4950   12.9140   -5.5800 C   0  0  0  0  0  0  0  0  0  0  0  0
    1.5070   12.9060   -4.3900 C   0  0  1  0  0  0  0  0  0  0  0  0
    0.5230   11.7330   -4.6930 C   0  0  0  0  0  0  0  0  0  0  0  0
    2.1400   12.7770   -2.9670 C   0  0  2  0  0  0  0  0  0  0  0  0
    2.9080   11.4680   -2.7110 C   0  0  0  0  0  0  0  0  0  0  0  0
    2.0940   10.3520   -2.1440 C   0  0  0  0  0  0  0  0  0  0  0  0
    0.8750   10.4770   -1.5870 C   0  0  0  0  0  0  0  0  0  0  0  0
    0.2340   11.8570   -1.3980 C   0  0  1  0  0  0  0  0  0  0  0  0
   -0.3490   11.9650    0.0360 C   0  0  0  0  0  0  0  0  0  0  0  0
   -1.3090   10.8250    0.3650 C   0  0  0  0  0  0  0  0  0  0  0  0
   -0.6180    9.4710    0.2210 C   0  0  2  0  0  0  0  0  0  0  0  0
    0.3920    9.3600    1.2280 O   0  0  0  0  0  0  0  0  0  0  0  0
    0.0170    9.2530   -1.1810 C   0  0  0  0  0  0  0  0  0  0  0  0
   -1.1020    9.0730   -2.2370 C   0  0  0  0  0  0  0  0  0  0  0  0
    0.8010    7.9140   -1.1470 C   0  0  0  0  0  0  0  0  0  0  0  0
    1.1430   13.1030   -1.7820 C   0  0  1  0  0  0  0  0  0  0  0  0
    2.0210   13.5170   -0.5620 C   0  0  0  0  0  0  0  0  0  0  0  0
    0.2170   14.3360   -2.1010 C   0  0  0  0  0  0  0  0  0  0  0  0
   -0.2790   14.4750   -3.5530 C   0  0  0  0  0  0  0  0  0  0  0  0
    0.8810   14.3410   -4.5440 C   0  0  2  0  0  0  0  0  0  0  0  0
    1.8760   15.5210   -4.2780 C   0  0  0  0  0  0  0  0  0  0  0  0
   -0.7140   16.2671   -4.7969 H   0  0  0  0  0  0  0  0  0  0  0  0
   -0.9235   17.4671   -6.1171 H   0  0  0  0  0  0  0  0  0  0  0  0
   -1.8910   15.9536   -6.1171 H   0  0  0  0  0  0  0  0  0  0  0  0
    1.0694   16.3434   -6.6657 H   0  0  0  0  0  0  0  0  0  0  0  0
    0.0729   14.4857   -8.4654 H   0  0  0  0  0  0  0  0  0  0  0  0
   -1.3103   15.6551   -8.2150 H   0  0  0  0  0  0  0  0  0  0  0  0
   -0.1646   16.5484  -10.0380 H   0  0  0  0  0  0  0  0  0  0  0  0
    0.4496   17.4850   -8.6119 H   0  0  0  0  0  0  0  0  0  0  0  0
    2.0998   16.0609   -8.3842 H   0  0  0  0  0  0  0  0  0  0  0  0
    0.3262   14.2928  -10.9798 H   0  0  0  0  0  0  0  0  0  0  0  0
    0.7740   15.5315  -12.2012 H   0  0  0  0  0  0  0  0  0  0  0  0
    1.5932   13.9328  -12.2012 H   0  0  0  0  0  0  0  0  0  0  0  0
    3.8181   14.3556   -9.5793 H   0  0  0  0  0  0  0  0  0  0  0  0
    3.3998   13.5606  -11.1349 H   0  0  0  0  0  0  0  0  0  0  0  0
    4.2710   15.1314  -11.1349 H   0  0  0  0  0  0  0  0  0  0  0  0
   -0.4419   13.8295   -6.2055 H   0  0  0  0  0  0  0  0  0  0  0  0
    1.4147   12.9601   -7.4829 H   0  0  0  0  0  0  0  0  0  0  0  0
    2.3968   14.4111   -7.1893 H   0  0  0  0  0  0  0  0  0  0  0  0
    2.7347   11.8869   -5.8925 H   0  0  0  0  0  0  0  0  0  0  0  0
    3.4518   13.3925   -5.3241 H   0  0  0  0  0  0  0  0  0  0  0  0
    0.1624   11.3032   -3.7468 H   0  0  0  0  0  0  0  0  0  0  0  0
   -0.3316   12.1118   -5.2729 H   0  0  0  0  0  0  0  0  0  0  0  0
    1.0446   10.9573   -5.2729 H   0  0  0  0  0  0  0  0  0  0  0  0
    2.8992   13.5729   -2.9735 H   0  0  0  0  0  0  0  0  0  0  0  0
    3.3301   11.1286   -3.6684 H   0  0  0  0  0  0  0  0  0  0  0  0
    3.6696   11.7049   -1.9534 H   0  0  0  0  0  0  0  0  0  0  0  0
    2.5274    9.3418   -2.1850 H   0  0  0  0  0  0  0  0  0  0  0  0
   -0.5781   11.9185   -2.1374 H   0  0  0  0  0  0  0  0  0  0  0  0
    0.4817   11.9455    0.7568 H   0  0  0  0  0  0  0  0  0  0  0  0
   -0.9152   12.9061    0.0962 H   0  0  0  0  0  0  0  0  0  0  0  0
   -1.6633   10.9401    1.4000 H   0  0  0  0  0  0  0  0  0  0  0  0
   -2.1545   10.8642   -0.3376 H   0  0  0  0  0  0  0  0  0  0  0  0
   -1.3871    8.6938    0.3415 H   0  0  0  0  0  0  0  0  0  0  0  0
   -0.0550    9.2050    2.0770 H   0  0  0  0  0  0  0  0  0  0  0  0
   -2.0649    8.9181   -1.7282 H   0  0  0  0  0  0  0  0  0  0  0  0
   -1.1605    9.9733   -2.8663 H   0  0  0  0  0  0  0  0  0  0  0  0
   -0.8752    8.1998   -2.8663 H   0  0  0  0  0  0  0  0  0  0  0  0
    0.9747    7.6173   -0.1021 H   0  0  0  0  0  0  0  0  0  0  0  0
    0.2169    7.1340   -1.6574 H   0  0  0  0  0  0  0  0  0  0  0  0
    1.7670    8.0417   -1.6574 H   0  0  0  0  0  0  0  0  0  0  0  0
    1.4935   13.2682    0.3706 H   0  0  0  0  0  0  0  0  0  0  0  0
    2.9776   12.9751   -0.5979 H   0  0  0  0  0  0  0  0  0  0  0  0
    2.2115   14.5998   -0.5979 H   0  0  0  0  0  0  0  0  0  0  0  0
   -0.6685   14.2638   -1.4523 H   0  0  0  0  0  0  0  0  0  0  0  0
    0.8459   15.2213   -1.9257 H   0  0  0  0  0  0  0  0  0  0  0  0
   -1.0195   13.6876   -3.7572 H   0  0  0  0  0  0  0  0  0  0  0  0
   -0.7314   15.4702   -3.6752 H   0  0  0  0  0  0  0  0  0  0  0  0
    1.9954   15.6626   -3.1937 H   0  0  0  0  0  0  0  0  0  0  0  0
    2.8523   15.2856   -4.7267 H   0  0  0  0  0  0  0  0  0  0  0  0
    1.4791   16.4435   -4.7267 H   0  0  0  0  0  0  0  0  0  0  0  0
  1  2  1  0
  2  3  1  0
  3  4  1  0
  4  5  1  0
  5  6  1  0
  6  7  1  0
  7  8  1  0
  7  9  1  0
  2 10  1  0
 10 11  1  0
 11 12  1  0
 12 13  1  0
 13 14  1  6
 13 15  1  0
 15 16  1  0
 16 17  1  0
 17 18  2  0
 18 19  1  0
 19 20  1  0
 20 21  1  0
 21 22  1  0
 22 23  1  0
 22 24  1  0
 24 25  1  0
 24 26  1  0
 19 27  1  0
 27 28  1  1
 27 29  1  0
 29 30  1  0
 30 31  1  0
 31 32  1  6
  7  5  1  0
 31 10  1  0
 31 13  1  0
 27 15  1  0
 24 18  1  0
  1 33  1  0
  1 34  1  0
  1 35  1  0
  2 36  1  6
  3 37  1  0
  3 38  1  0
  4 39  1  0
  4 40  1  0
  5 41  1  1
  8 42  1  0
  8 43  1  0
  8 44  1  0
  9 45  1  0
  9 46  1  0
  9 47  1  0
 10 48  1  1
 11 49  1  0
 11 50  1  0
 12 51  1  0
 12 52  1  0
 14 53  1  0
 14 54  1  0
 14 55  1  0
 15 56  1  6
 16 57  1  0
 16 58  1  0
 17 59  1  0
 19 60  1  6
 20 61  1  0
 20 62  1  0
 21 63  1  0
 21 64  1  0
 22 65  1  1
 23 66  1  0
 25 67  1  0
 25 68  1  0
 25 69  1  0
 26 70  1  0
 26 71  1  0
 26 72  1  0
 28 73  1  0
 28 74  1  0
 28 75  1  0
 29 76  1  0
 29 77  1  0
 30 78  1  0
 30 79  1  0
 32 80  1  0
 32 81  1  0
 32 82  1  0
M  END
>  <meeko>  (12) 
{"is_sidechain": [false], "intermolecular_energy": 2.731, "internal_energy": -0.839}

$$$$
EPH_relaxed_0001_pdb2pqr_Repair_233_r2_0001_out
     RDKit          3D

 82 86  0  0  0  0  0  0  0  0999 V2000
   -0.1600    9.3150   -2.2200 C   0  0  0  0  0  0  0  0  0  0  0  0
    0.9240   10.2810   -2.7060 C   0  0  2  0  0  0  0  0  0  0  0  0
    2.3060    9.6040   -2.8020 C   0  0  0  0  0  0  0  0  0  0  0  0
    3.2300   10.2350   -3.8460 C   0  0  0  0  0  0  0  0  0  0  0  0
    4.6060   10.4680   -3.2990 C   0  0  2  0  0  0  0  0  0  0  0  0
    5.1270   11.7840   -3.5290 O   0  0  0  0  0  0  0  0  0  0  0  0
    5.8240   10.7050   -4.1720 C   0  0  0  0  0  0  0  0  0  0  0  0
    5.7230   10.7200   -5.6660 C   0  0  0  0  0  0  0  0  0  0  0  0
    7.1800   10.4360   -3.5980 C   0  0  0  0  0  0  0  0  0  0  0  0
    0.9980   11.4880   -1.7790 C   0  0  1  0  0  0  0  0  0  0  0  0
    2.0890   11.3350   -0.6850 C   0  0  0  0  0  0  0  0  0  0  0  0
    2.6770   12.7480   -0.4390 C   0  0  0  0  0  0  0  0  0  0  0  0
    1.6920   13.7090   -1.1450 C   0  0  1  0  0  0  0  0  0  0  0  0
    0.5130   13.8860   -0.1370 C   0  0  0  0  0  0  0  0  0  0  0  0
    2.2760   15.0860   -1.5980 C   0  0  2  0  0  0  0  0  0  0  0  0
    2.7880   15.9850   -0.4590 C   0  0  0  0  0  0  0  0  0  0  0  0
    1.7780   16.9210    0.1180 C   0  0  0  0  0  0  0  0  0  0  0  0
    0.5970   17.2400   -0.4430 C   0  0  0  0  0  0  0  0  0  0  0  0
    0.2180   16.7140   -1.8330 C   0  0  1  0  0  0  0  0  0  0  0  0
   -0.3500   17.8770   -2.6890 C   0  0  0  0  0  0  0  0  0  0  0  0
   -1.5060   18.5980   -2.0030 C   0  0  0  0  0  0  0  0  0  0  0  0
   -1.0730   19.1570   -0.6500 C   0  0  2  0  0  0  0  0  0  0  0  0
   -0.1120   20.1940   -0.8660 O   0  0  0  0  0  0  0  0  0  0  0  0
   -0.4750   18.0780    0.2960 C   0  0  0  0  0  0  0  0  0  0  0  0
   -1.5980   17.1220    0.7700 C   0  0  0  0  0  0  0  0  0  0  0  0
    0.0500   18.7970    1.5680 C   0  0  0  0  0  0  0  0  0  0  0  0
    1.3440   15.8900   -2.5940 C   0  0  1  0  0  0  0  0  0  0  0  0
    2.2710   16.8610   -3.3860 C   0  0  0  0  0  0  0  0  0  0  0  0
    0.6630   14.9550   -3.6620 C   0  0  0  0  0  0  0  0  0  0  0  0
    0.2160   13.5610   -3.1820 C   0  0  0  0  0  0  0  0  0  0  0  0
    1.3420   12.8570   -2.4190 C   0  0  2  0  0  0  0  0  0  0  0  0
    2.5340   12.6440   -3.4130 C   0  0  0  0  0  0  0  0  0  0  0  0
   -0.1738    9.3027   -1.1202 H   0  0  0  0  0  0  0  0  0  0  0  0
   -1.1400    9.6447   -2.5953 H   0  0  0  0  0  0  0  0  0  0  0  0
    0.0551    8.3036   -2.5953 H   0  0  0  0  0  0  0  0  0  0  0  0
    0.6461   10.6070   -3.7192 H   0  0  0  0  0  0  0  0  0  0  0  0
    2.7950    9.6724   -1.8191 H   0  0  0  0  0  0  0  0  0  0  0  0
    2.1328    8.5634   -3.1137 H   0  0  0  0  0  0  0  0  0  0  0  0
    3.3003    9.5620   -4.7133 H   0  0  0  0  0  0  0  0  0  0  0  0
    2.8066   11.2080   -4.1358 H   0  0  0  0  0  0  0  0  0  0  0  0
    4.4184    9.7736   -2.4668 H   0  0  0  0  0  0  0  0  0  0  0  0
    4.6748   10.8757   -5.9611 H   0  0  0  0  0  0  0  0  0  0  0  0
    6.3419   11.5361   -6.0672 H   0  0  0  0  0  0  0  0  0  0  0  0
    6.0781    9.7593   -6.0672 H   0  0  0  0  0  0  0  0  0  0  0  0
    7.1221   10.4475   -2.4996 H   0  0  0  0  0  0  0  0  0  0  0  0
    7.5324    9.4504   -3.9363 H   0  0  0  0  0  0  0  0  0  0  0  0
    7.8820   11.2124   -3.9363 H   0  0  0  0  0  0  0  0  0  0  0  0
   -0.0365   11.4967   -1.4051 H   0  0  0  0  0  0  0  0  0  0  0  0
    1.6440   10.9433    0.2416 H   0  0  0  0  0  0  0  0  0  0  0  0
    2.8721   10.6314   -1.0039 H   0  0  0  0  0  0  0  0  0  0  0  0
    2.7270   12.9656    0.6381 H   0  0  0  0  0  0  0  0  0  0  0  0
    3.7029   12.8456   -0.8237 H   0  0  0  0  0  0  0  0  0  0  0  0
    0.8983   13.8282    0.8917 H   0  0  0  0  0  0  0  0  0  0  0  0
    0.0384   14.8655   -0.2962 H   0  0  0  0  0  0  0  0  0  0  0  0
   -0.2283   13.0891   -0.2962 H   0  0  0  0  0  0  0  0  0  0  0  0
    3.1688   14.7869   -2.1667 H   0  0  0  0  0  0  0  0  0  0  0  0
    3.1502   15.3345    0.3508 H   0  0  0  0  0  0  0  0  0  0  0  0
    3.5722   16.6178   -0.9000 H   0  0  0  0  0  0  0  0  0  0  0  0
    2.0196   17.3896    1.0834 H   0  0  0  0  0  0  0  0  0  0  0  0
   -0.5613   15.9553   -1.6688 H   0  0  0  0  0  0  0  0  0  0  0  0
    0.4555   18.6020   -2.8776 H   0  0  0  0  0  0  0  0  0  0  0  0
   -0.7341   17.4457   -3.6252 H   0  0  0  0  0  0  0  0  0  0  0  0
   -1.8447   19.4260   -2.6431 H   0  0  0  0  0  0  0  0  0  0  0  0
   -2.3224   17.8788   -1.8412 H   0  0  0  0  0  0  0  0  0  0  0  0
   -1.9724   19.5470   -0.1511 H   0  0  0  0  0  0  0  0  0  0  0  0
    0.1620   20.1520   -1.7980 H   0  0  0  0  0  0  0  0  0  0  0  0
   -1.6222   17.1014    1.8695 H   0  0  0  0  0  0  0  0  0  0  0  0
   -2.5668   17.4768    0.3885 H   0  0  0  0  0  0  0  0  0  0  0  0
   -1.4024   16.1090    0.3885 H   0  0  0  0  0  0  0  0  0  0  0  0
   -0.3271   18.2806    2.4631 H   0  0  0  0  0  0  0  0  0  0  0  0
    1.1499   18.7803    1.5711 H   0  0  0  0  0  0  0  0  0  0  0  0
   -0.3008   19.8395    1.5711 H   0  0  0  0  0  0  0  0  0  0  0  0
    2.8530   17.4706   -2.6791 H   0  0  0  0  0  0  0  0  0  0  0  0
    2.9568   16.2786   -4.0189 H   0  0  0  0  0  0  0  0  0  0  0  0
    1.6575   17.5190   -4.0189 H   0  0  0  0  0  0  0  0  0  0  0  0
   -0.2275   15.4773   -4.0417 H   0  0  0  0  0  0  0  0  0  0  0  0
    1.4419   14.7636   -4.4148 H   0  0  0  0  0  0  0  0  0  0  0  0
   -0.6544   13.6709   -2.5185 H   0  0  0  0  0  0  0  0  0  0  0  0
   -0.0446   12.9540   -4.0616 H   0  0  0  0  0  0  0  0  0  0  0  0
    3.4608   12.4784   -2.8440 H   0  0  0  0  0  0  0  0  0  0  0  0
    2.3311   11.7679   -4.0464 H   0  0  0  0  0  0  0  0  0  0  0  0
    2.6471   13.5362   -4.0464 H   0  0  0  0  0  0  0  0  0  0  0  0
  1  2  1  0
  2  3  1  0
  3  4  1  0
  4  5  1  0
  5  6  1  0
  6  7  1  0
  7  8  1  0
  7  9  1  0
  2 10  1  0
 10 11  1  0
 11 12  1  0
 12 13  1  0
 13 14  1  1
 13 15  1  0
 15 16  1  0
 16 17  1  0
 17 18  2  0
 18 19  1  0
 19 20  1  0
 20 21  1  0
 21 22  1  0
 22 23  1  0
 22 24  1  0
 24 25  1  0
 24 26  1  0
 19 27  1  0
 27 28  1  6
 27 29  1  0
 29 30  1  0
 30 31  1  0
 31 32  1  6
  7  5  1  0
 31 10  1  0
 31 13  1  0
 27 15  1  0
 24 18  1  0
  1 33  1  0
  1 34  1  0
  1 35  1  0
  2 36  1  6
  3 37  1  0
  3 38  1  0
  4 39  1  0
  4 40  1  0
  5 41  1  1
  8 42  1  0
  8 43  1  0
  8 44  1  0
  9 45  1  0
  9 46  1  0
  9 47  1  0
 10 48  1  1
 11 49  1  0
 11 50  1  0
 12 51  1  0
 12 52  1  0
 14 53  1  0
 14 54  1  0
 14 55  1  0
 15 56  1  6
 16 57  1  0
 16 58  1  0
 17 59  1  0
 19 60  1  1
 20 61  1  0
 20 62  1  0
 21 63  1  0
 21 64  1  0
 22 65  1  1
 23 66  1  0
 25 67  1  0
 25 68  1  0
 25 69  1  0
 26 70  1  0
 26 71  1  0
 26 72  1  0
 28 73  1  0
 28 74  1  0
 28 75  1  0
 29 76  1  0
 29 77  1  0
 30 78  1  0
 30 79  1  0
 32 80  1  0
 32 81  1  0
 32 82  1  0
M  END
>  <meeko>  (13) 
{"is_sidechain": [false], "intermolecular_energy": 2.731, "internal_energy": -0.839}

$$$$
EPH_relaxed_0001_pdb2pqr_Repair_233_r2_0001_out
     RDKit          3D

 82 86  0  0  0  0  0  0  0  0999 V2000
   -4.0490    7.3590   -3.5540 C   0  0  0  0  0  0  0  0  0  0  0  0
   -3.7030    7.2790   -2.0640 C   0  0  2  0  0  0  0  0  0  0  0  0
   -4.9100    6.8430   -1.2100 C   0  0  0  0  0  0  0  0  0  0  0  0
   -6.1570    6.5050   -2.0330 C   0  0  0  0  0  0  0  0  0  0  0  0
   -7.3650    6.3310   -1.1630 C   0  0  2  0  0  0  0  0  0  0  0  0
   -8.4420    5.6080   -1.7720 O   0  0  0  0  0  0  0  0  0  0  0  0
   -8.7040    6.9830   -1.4510 C   0  0  0  0  0  0  0  0  0  0  0  0
   -8.9040    7.8600   -2.6470 C   0  0  0  0  0  0  0  0  0  0  0  0
   -9.6690    7.1650   -0.3210 C   0  0  0  0  0  0  0  0  0  0  0  0
   -3.1810    8.6260   -1.5790 C   0  0  1  0  0  0  0  0  0  0  0  0
   -3.8410    9.0790   -0.2490 C   0  0  0  0  0  0  0  0  0  0  0  0
   -2.7530    9.8350    0.5560 C   0  0  0  0  0  0  0  0  0  0  0  0
   -1.6150   10.0820   -0.4630 C   0  0  1  0  0  0  0  0  0  0  0  0
   -2.0670   11.3370   -1.2730 C   0  0  0  0  0  0  0  0  0  0  0  0
   -0.1820   10.2650    0.1340 C   0  0  2  0  0  0  0  0  0  0  0  0
   -0.0110   11.4840    1.0580 C   0  0  0  0  0  0  0  0  0  0  0  0
    0.4160   12.7430    0.3790 C   0  0  0  0  0  0  0  0  0  0  0  0
    0.9260   12.8280   -0.8630 C   0  0  0  0  0  0  0  0  0  0  0  0
    1.2100   11.5650   -1.6860 C   0  0  1  0  0  0  0  0  0  0  0  0
    2.6200   11.6690   -2.3250 C   0  0  0  0  0  0  0  0  0  0  0  0
    2.8000   12.9480   -3.1380 C   0  0  0  0  0  0  0  0  0  0  0  0
    2.5660   14.1830   -2.2710 C   0  0  2  0  0  0  0  0  0  0  0  0
    3.6050   14.2600   -1.2900 O   0  0  0  0  0  0  0  0  0  0  0  0
    1.1810   14.1840   -1.5670 C   0  0  0  0  0  0  0  0  0  0  0  0
    0.0640   14.4030   -2.6170 C   0  0  0  0  0  0  0  0  0  0  0  0
    1.1290   15.4090   -0.6160 C   0  0  0  0  0  0  0  0  0  0  0  0
    0.9810   10.1830   -0.9360 C   0  0  1  0  0  0  0  0  0  0  0  0
    2.2720    9.7780   -0.1600 C   0  0  0  0  0  0  0  0  0  0  0  0
    0.7330    9.0530   -2.0040 C   0  0  0  0  0  0  0  0  0  0  0  0
   -0.7220    8.8400   -2.4650 C   0  0  0  0  0  0  0  0  0  0  0  0
   -1.6670    8.7310   -1.2650 C   0  0  2  0  0  0  0  0  0  0  0  0
   -1.2510    7.4640   -0.4420 C   0  0  0  0  0  0  0  0  0  0  0  0
   -5.1147    7.6054   -3.6702 H   0  0  0  0  0  0  0  0  0  0  0  0
   -3.4380    8.1396   -4.0309 H   0  0  0  0  0  0  0  0  0  0  0  0
   -3.8427    6.3895   -4.0309 H   0  0  0  0  0  0  0  0  0  0  0  0
   -2.9221    6.5133   -1.9462 H   0  0  0  0  0  0  0  0  0  0  0  0
   -4.6230    5.9518   -0.6326 H   0  0  0  0  0  0  0  0  0  0  0  0
   -5.1718    7.6948   -0.5651 H   0  0  0  0  0  0  0  0  0  0  0  0
   -6.3457    7.3212   -2.7459 H   0  0  0  0  0  0  0  0  0  0  0  0
   -5.9739    5.5565   -2.5592 H   0  0  0  0  0  0  0  0  0  0  0  0
   -6.7387    6.2997   -0.2592 H   0  0  0  0  0  0  0  0  0  0  0  0
   -9.1373    8.8830   -2.3167 H   0  0  0  0  0  0  0  0  0  0  0  0
   -7.9852    7.8705   -3.2517 H   0  0  0  0  0  0  0  0  0  0  0  0
   -9.7365    7.4711   -3.2517 H   0  0  0  0  0  0  0  0  0  0  0  0
   -9.1361    7.0645    0.6360 H   0  0  0  0  0  0  0  0  0  0  0  0
  -10.1235    8.1647   -0.3844 H   0  0  0  0  0  0  0  0  0  0  0  0
  -10.4564    6.3995   -0.3844 H   0  0  0  0  0  0  0  0  0  0  0  0
   -3.4280    9.2451   -2.4540 H   0  0  0  0  0  0  0  0  0  0  0  0
   -4.6909    9.7459   -0.4559 H   0  0  0  0  0  0  0  0  0  0  0  0
   -4.2222    8.2160    0.3165 H   0  0  0  0  0  0  0  0  0  0  0  0
   -3.1454   10.7887    0.9387 H   0  0  0  0  0  0  0  0  0  0  0  0
   -2.4115    9.2655    1.4330 H   0  0  0  0  0  0  0  0  0  0  0  0
   -2.3556   12.1383   -0.5769 H   0  0  0  0  0  0  0  0  0  0  0  0
   -1.2370   11.6830   -1.9065 H   0  0  0  0  0  0  0  0  0  0  0  0
   -2.9270   11.0743   -1.9065 H   0  0  0  0  0  0  0  0  0  0  0  0
   -0.0818    9.3822    0.7825 H   0  0  0  0  0  0  0  0  0  0  0  0
   -0.9753   11.6742    1.5519 H   0  0  0  0  0  0  0  0  0  0  0  0
    0.7981   11.2253    1.7569 H   0  0  0  0  0  0  0  0  0  0  0  0
    0.3041   13.6812    0.9422 H   0  0  0  0  0  0  0  0  0  0  0  0
    0.4438   11.5377   -2.4748 H   0  0  0  0  0  0  0  0  0  0  0  0
    3.3729   11.6517   -1.5232 H   0  0  0  0  0  0  0  0  0  0  0  0
    2.7400   10.8173   -3.0107 H   0  0  0  0  0  0  0  0  0  0  0  0
    3.8238   12.9785   -3.5392 H   0  0  0  0  0  0  0  0  0  0  0  0
    2.0658   12.9497   -3.9571 H   0  0  0  0  0  0  0  0  0  0  0  0
    2.5801   15.0601   -2.9347 H   0  0  0  0  0  0  0  0  0  0  0  0
    4.0740   15.1010   -1.4230 H   0  0  0  0  0  0  0  0  0  0  0  0
   -0.8905   14.5901   -2.1033 H   0  0  0  0  0  0  0  0  0  0  0  0
    0.3173   15.2686   -3.2468 H   0  0  0  0  0  0  0  0  0  0  0  0
   -0.0283   13.5058   -3.2468 H   0  0  0  0  0  0  0  0  0  0  0  0
    1.1437   15.0634    0.4282 H   0  0  0  0  0  0  0  0  0  0  0  0
    2.0006   16.0541   -0.8010 H   0  0  0  0  0  0  0  0  0  0  0  0
    0.2059   15.9779   -0.8010 H   0  0  0  0  0  0  0  0  0  0  0  0
    2.0832    9.8372    0.9221 H   0  0  0  0  0  0  0  0  0  0  0  0
    2.5528    8.7486   -0.4274 H   0  0  0  0  0  0  0  0  0  0  0  0
    3.0905   10.4625   -0.4274 H   0  0  0  0  0  0  0  0  0  0  0  0
    1.3314    9.2988   -2.8937 H   0  0  0  0  0  0  0  0  0  0  0  0
    1.0162    8.1158   -1.5026 H   0  0  0  0  0  0  0  0  0  0  0  0
   -1.0300    9.6917   -3.0893 H   0  0  0  0  0  0  0  0  0  0  0  0
   -0.7744    7.9030   -3.0388 H   0  0  0  0  0  0  0  0  0  0  0  0
   -1.3236    7.6850    0.6331 H   0  0  0  0  0  0  0  0  0  0  0  0
   -1.9220    6.6286   -0.6907 H   0  0  0  0  0  0  0  0  0  0  0  0
   -0.2154    7.1890   -0.6907 H   0  0  0  0  0  0  0  0  0  0  0  0
  1  2  1  0
  2  3  1  0
  3  4  1  0
  4  5  1  0
  5  6  1  0
  6  7  1  0
  7  8  1  0
  7  9  1  0
  2 10  1  0
 10 11  1  0
 11 12  1  0
 12 13  1  0
 13 14  1  6
 13 15  1  0
 15 16  1  0
 16 17  1  0
 17 18  2  0
 18 19  1  0
 19 20  1  0
 20 21  1  0
 21 22  1  0
 22 23  1  0
 22 24  1  0
 24 25  1  0
 24 26  1  0
 19 27  1  0
 27 28  1  1
 27 29  1  0
 29 30  1  0
 30 31  1  0
 31 32  1  1
  7  5  1  0
 31 10  1  0
 31 13  1  0
 27 15  1  0
 24 18  1  0
  1 33  1  0
  1 34  1  0
  1 35  1  0
  2 36  1  6
  3 37  1  0
  3 38  1  0
  4 39  1  0
  4 40  1  0
  5 41  1  1
  8 42  1  0
  8 43  1  0
  8 44  1  0
  9 45  1  0
  9 46  1  0
  9 47  1  0
 10 48  1  6
 11 49  1  0
 11 50  1  0
 12 51  1  0
 12 52  1  0
 14 53  1  0
 14 54  1  0
 14 55  1  0
 15 56  1  1
 16 57  1  0
 16 58  1  0
 17 59  1  0
 19 60  1  6
 20 61  1  0
 20 62  1  0
 21 63  1  0
 21 64  1  0
 22 65  1  6
 23 66  1  0
 25 67  1  0
 25 68  1  0
 25 69  1  0
 26 70  1  0
 26 71  1  0
 26 72  1  0
 28 73  1  0
 28 74  1  0
 28 75  1  0
 29 76  1  0
 29 77  1  0
 30 78  1  0
 30 79  1  0
 32 80  1  0
 32 81  1  0
 32 82  1  0
M  END
>  <meeko>  (14) 
{"is_sidechain": [false], "intermolecular_energy": 2.731, "internal_energy": -0.839}

$$$$
EPH_relaxed_0001_pdb2pqr_Repair_233_r2_0001_out
     RDKit          3D

 82 86  0  0  0  0  0  0  0  0999 V2000
   -2.3030    7.8610   -2.2400 C   0  0  0  0  0  0  0  0  0  0  0  0
   -2.1930    8.4350   -0.8250 C   0  0  2  0  0  0  0  0  0  0  0  0
   -3.5420    8.4020   -0.0780 C   0  0  0  0  0  0  0  0  0  0  0  0
   -4.7590    8.5080   -1.0010 C   0  0  0  0  0  0  0  0  0  0  0  0
   -5.5090    7.2130   -1.0800 C   0  0  2  0  0  0  0  0  0  0  0  0
   -5.6540    6.6840   -2.4040 O   0  0  0  0  0  0  0  0  0  0  0  0
   -6.8670    7.0720   -1.7410 C   0  0  0  0  0  0  0  0  0  0  0  0
   -7.5560    8.2440   -2.3670 C   0  0  0  0  0  0  0  0  0  0  0  0
   -7.7370    5.9180   -1.3510 C   0  0  0  0  0  0  0  0  0  0  0  0
   -1.6640    9.8630   -0.8830 C   0  0  1  0  0  0  0  0  0  0  0  0
   -1.2160   10.3910    0.5060 C   0  0  0  0  0  0  0  0  0  0  0  0
    0.0060   11.3140    0.2610 C   0  0  0  0  0  0  0  0  0  0  0  0
    0.0150   11.5510   -1.2680 C   0  0  1  0  0  0  0  0  0  0  0  0
   -1.0420   12.6750   -1.5050 C   0  0  0  0  0  0  0  0  0  0  0  0
    1.3970   11.9140   -1.9030 C   0  0  2  0  0  0  0  0  0  0  0  0
    2.0190   13.2300   -1.4040 C   0  0  0  0  0  0  0  0  0  0  0  0
    1.6550   14.4460   -2.1900 C   0  0  0  0  0  0  0  0  0  0  0  0
    1.0950   14.4470   -3.4140 C   0  0  0  0  0  0  0  0  0  0  0  0
    0.8620   13.1360   -4.1750 C   0  0  1  0  0  0  0  0  0  0  0  0
    1.3470   13.2930   -5.6400 C   0  0  0  0  0  0  0  0  0  0  0  0
    0.7170   14.4940   -6.3390 C   0  0  0  0  0  0  0  0  0  0  0  0
    1.0200   15.7860   -5.5840 C   0  0  2  0  0  0  0  0  0  0  0  0
    2.4240   16.0490   -5.6670 O   0  0  0  0  0  0  0  0  0  0  0  0
    0.5830   15.7410   -4.0930 C   0  0  0  0  0  0  0  0  0  0  0  0
   -0.9630   15.7590   -4.0030 C   0  0  0  0  0  0  0  0  0  0  0  0
    1.0730   17.0480   -3.4130 C   0  0  0  0  0  0  0  0  0  0  0  0
    1.4280   11.8220   -3.4820 C   0  0  1  0  0  0  0  0  0  0  0  0
    2.9190   11.6080   -3.8860 C   0  0  0  0  0  0  0  0  0  0  0  0
    0.6380   10.5730   -4.0250 C   0  0  0  0  0  0  0  0  0  0  0  0
   -0.6570   10.1930   -3.2810 C   0  0  0  0  0  0  0  0  0  0  0  0
   -0.4210   10.1260   -1.7690 C   0  0  2  0  0  0  0  0  0  0  0  0
    0.6210    8.9880   -1.4980 C   0  0  0  0  0  0  0  0  0  0  0  0
   -2.5098    6.7821   -2.1830 H   0  0  0  0  0  0  0  0  0  0  0  0
   -3.1212    8.3633   -2.7769 H   0  0  0  0  0  0  0  0  0  0  0  0
   -1.3570    8.0252   -2.7769 H   0  0  0  0  0  0  0  0  0  0  0  0
   -1.4902    7.8010   -0.2645 H   0  0  0  0  0  0  0  0  0  0  0  0
   -3.6086    7.4547    0.4771 H   0  0  0  0  0  0  0  0  0  0  0  0
   -3.5639    9.2793    0.5852 H   0  0  0  0  0  0  0  0  0  0  0  0
   -5.4326    9.2871   -0.6147 H   0  0  0  0  0  0  0  0  0  0  0  0
   -4.4027    8.7602   -2.0107 H   0  0  0  0  0  0  0  0  0  0  0  0
   -5.1339    6.9089   -0.0916 H   0  0  0  0  0  0  0  0  0  0  0  0
   -7.9446    8.9050   -1.5783 H   0  0  0  0  0  0  0  0  0  0  0  0
   -6.8406    8.7993   -2.9914 H   0  0  0  0  0  0  0  0  0  0  0  0
   -8.3891    7.8890   -2.9914 H   0  0  0  0  0  0  0  0  0  0  0  0
   -7.7874    5.8511   -0.2542 H   0  0  0  0  0  0  0  0  0  0  0  0
   -8.7486    6.0681   -1.7561 H   0  0  0  0  0  0  0  0  0  0  0  0
   -7.3143    4.9868   -1.7561 H   0  0  0  0  0  0  0  0  0  0  0  0
   -2.5433   10.3677   -1.3097 H   0  0  0  0  0  0  0  0  0  0  0  0
   -2.0319   10.9595    0.9763 H   0  0  0  0  0  0  0  0  0  0  0  0
   -0.9552    9.5607    1.1788 H   0  0  0  0  0  0  0  0  0  0  0  0
   -0.1113   12.2652    0.8008 H   0  0  0  0  0  0  0  0  0  0  0  0
    0.9450   10.8673    0.6197 H   0  0  0  0  0  0  0  0  0  0  0  0
   -1.3981   13.0537   -0.5356 H   0  0  0  0  0  0  0  0  0  0  0  0
   -0.5821   13.4969   -2.0732 H   0  0  0  0  0  0  0  0  0  0  0  0
   -1.8906   12.2664   -2.0732 H   0  0  0  0  0  0  0  0  0  0  0  0
    2.0490   11.1134   -1.5236 H   0  0  0  0  0  0  0  0  0  0  0  0
    1.6939   13.3870   -0.3649 H   0  0  0  0  0  0  0  0  0  0  0  0
    3.1073   13.1123   -1.5122 H   0  0  0  0  0  0  0  0  0  0  0  0
    1.8619   15.4236   -1.7300 H   0  0  0  0  0  0  0  0  0  0  0  0
   -0.2244   12.9646   -4.1587 H   0  0  0  0  0  0  0  0  0  0  0  0
    2.4397   13.4193   -5.6381 H   0  0  0  0  0  0  0  0  0  0  0  0
    1.0449   12.3898   -6.1905 H   0  0  0  0  0  0  0  0  0  0  0  0
    1.1217   14.5698   -7.3590 H   0  0  0  0  0  0  0  0  0  0  0  0
   -0.3734   14.3515   -6.3672 H   0  0  0  0  0  0  0  0  0  0  0  0
    0.4367   16.5898   -6.0569 H   0  0  0  0  0  0  0  0  0  0  0  0
    2.7380   16.2540   -4.7700 H   0  0  0  0  0  0  0  0  0  0  0  0
   -1.2688   15.7626   -2.9464 H   0  0  0  0  0  0  0  0  0  0  0  0
   -1.3487   16.6617   -4.4994 H   0  0  0  0  0  0  0  0  0  0  0  0
   -1.3696   14.8655   -4.4994 H   0  0  0  0  0  0  0  0  0  0  0  0
    1.0293   16.9314   -2.3201 H   0  0  0  0  0  0  0  0  0  0  0  0
    2.1094   17.2540   -3.7186 H   0  0  0  0  0  0  0  0  0  0  0  0
    0.4275   17.8846   -3.7186 H   0  0  0  0  0  0  0  0  0  0  0  0
    3.5355   11.5195   -2.9793 H   0  0  0  0  0  0  0  0  0  0  0  0
    3.0090   10.6877   -4.4818 H   0  0  0  0  0  0  0  0  0  0  0  0
    3.2642   12.4658   -4.4818 H   0  0  0  0  0  0  0  0  0  0  0  0
    0.3722   10.7770   -5.0727 H   0  0  0  0  0  0  0  0  0  0  0  0
    1.3151    9.7184   -3.8793 H   0  0  0  0  0  0  0  0  0  0  0  0
   -1.4281   10.9487   -3.4917 H   0  0  0  0  0  0  0  0  0  0  0  0
   -0.9838    9.2021   -3.6293 H   0  0  0  0  0  0  0  0  0  0  0  0
    0.7437    8.8540   -0.4131 H   0  0  0  0  0  0  0  0  0  0  0  0
    0.2630    8.0490   -1.9453 H   0  0  0  0  0  0  0  0  0  0  0  0
    1.5879    9.2620   -1.9453 H   0  0  0  0  0  0  0  0  0  0  0  0
  1  2  1  0
  2  3  1  0
  3  4  1  0
  4  5  1  0
  5  6  1  0
  6  7  1  0
  7  8  1  0
  7  9  1  0
  2 10  1  0
 10 11  1  0
 11 12  1  0
 12 13  1  0
 13 14  1  1
 13 15  1  0
 15 16  1  0
 16 17  1  0
 17 18  2  0
 18 19  1  0
 19 20  1  0
 20 21  1  0
 21 22  1  0
 22 23  1  0
 22 24  1  0
 24 25  1  0
 24 26  1  0
 19 27  1  0
 27 28  1  6
 27 29  1  0
 29 30  1  0
 30 31  1  0
 31 32  1  6
  7  5  1  0
 31 10  1  0
 31 13  1  0
 27 15  1  0
 24 18  1  0
  1 33  1  0
  1 34  1  0
  1 35  1  0
  2 36  1  1
  3 37  1  0
  3 38  1  0
  4 39  1  0
  4 40  1  0
  5 41  1  1
  8 42  1  0
  8 43  1  0
  8 44  1  0
  9 45  1  0
  9 46  1  0
  9 47  1  0
 10 48  1  6
 11 49  1  0
 11 50  1  0
 12 51  1  0
 12 52  1  0
 14 53  1  0
 14 54  1  0
 14 55  1  0
 15 56  1  1
 16 57  1  0
 16 58  1  0
 17 59  1  0
 19 60  1  6
 20 61  1  0
 20 62  1  0
 21 63  1  0
 21 64  1  0
 22 65  1  6
 23 66  1  0
 25 67  1  0
 25 68  1  0
 25 69  1  0
 26 70  1  0
 26 71  1  0
 26 72  1  0
 28 73  1  0
 28 74  1  0
 28 75  1  0
 29 76  1  0
 29 77  1  0
 30 78  1  0
 30 79  1  0
 32 80  1  0
 32 81  1  0
 32 82  1  0
M  END
>  <meeko>  (15) 
{"is_sidechain": [false], "intermolecular_energy": 2.731, "internal_energy": -0.839}

$$$$
EPH_relaxed_0001_pdb2pqr_Repair_233_r2_0001_out
     RDKit          3D

 82 86  0  0  0  0  0  0  0  0999 V2000
    3.2270   19.0140   -2.0210 C   0  0  0  0  0  0  0  0  0  0  0  0
    1.7730   19.0140   -1.5420 C   0  0  2  0  0  0  0  0  0  0  0  0
    1.5180   20.0800   -0.4590 C   0  0  0  0  0  0  0  0  0  0  0  0
    1.6150   19.5400    0.9710 C   0  0  0  0  0  0  0  0  0  0  0  0
    2.8290   20.0600    1.6780 C   0  0  2  0  0  0  0  0  0  0  0  0
    3.9930   20.1930    0.8510 O   0  0  0  0  0  0  0  0  0  0  0  0
    4.0780   19.2310    1.9150 C   0  0  0  0  0  0  0  0  0  0  0  0
    4.1730   17.8120    1.4460 C   0  0  0  0  0  0  0  0  0  0  0  0
    5.0060   19.6330    3.0190 C   0  0  0  0  0  0  0  0  0  0  0  0
    1.4010   17.6340   -1.0130 C   0  0  1  0  0  0  0  0  0  0  0  0
    0.1610   17.6660   -0.0800 C   0  0  0  0  0  0  0  0  0  0  0  0
   -0.6180   16.3490   -0.3250 C   0  0  0  0  0  0  0  0  0  0  0  0
    0.3580   15.4630   -1.1330 C   0  0  1  0  0  0  0  0  0  0  0  0
    1.3150   14.8450   -0.0670 C   0  0  0  0  0  0  0  0  0  0  0  0
   -0.2920   14.3610   -2.0330 C   0  0  2  0  0  0  0  0  0  0  0  0
   -1.0940   13.2890   -1.2750 C   0  0  0  0  0  0  0  0  0  0  0  0
   -0.3130   12.0880   -0.8540 C   0  0  0  0  0  0  0  0  0  0  0  0
    0.9030   11.7440   -1.3170 C   0  0  0  0  0  0  0  0  0  0  0  0
    1.5760   12.5480   -2.4360 C   0  0  1  0  0  0  0  0  0  0  0  0
    2.1480   11.5740   -3.5010 C   0  0  0  0  0  0  0  0  0  0  0  0
    3.0760   10.5260   -2.8960 C   0  0  0  0  0  0  0  0  0  0  0  0
    2.3540    9.7080   -1.8280 C   0  0  2  0  0  0  0  0  0  0  0  0
    1.3320    8.9290   -2.4570 O   0  0  0  0  0  0  0  0  0  0  0  0
    1.7280   10.5830   -0.7070 C   0  0  0  0  0  0  0  0  0  0  0  0
    2.8520   11.1930    0.1670 C   0  0  0  0  0  0  0  0  0  0  0  0
    0.9110    9.6500    0.2270 C   0  0  0  0  0  0  0  0  0  0  0  0
    0.7020   13.7090   -3.0780 C   0  0  1  0  0  0  0  0  0  0  0  0
   -0.1780   13.1370   -4.2320 C   0  0  0  0  0  0  0  0  0  0  0  0
    1.6600   14.7710   -3.7360 C   0  0  0  0  0  0  0  0  0  0  0  0
    2.1730   15.9020   -2.8250 C   0  0  0  0  0  0  0  0  0  0  0  0
    1.0190   16.5520   -2.0540 C   0  0  2  0  0  0  0  0  0  0  0  0
    0.0510   17.2010   -3.1010 C   0  0  0  0  0  0  0  0  0  0  0  0
    3.5753   17.9769   -2.1357 H   0  0  0  0  0  0  0  0  0  0  0  0
    3.2942   19.5325   -2.9888 H   0  0  0  0  0  0  0  0  0  0  0  0
    3.8563   19.5325   -1.2827 H   0  0  0  0  0  0  0  0  0  0  0  0
    1.1398   19.2645   -2.4059 H   0  0  0  0  0  0  0  0  0  0  0  0
    2.2617   20.8816   -0.5788 H   0  0  0  0  0  0  0  0  0  0  0  0
    0.4877   20.4394   -0.5978 H   0  0  0  0  0  0  0  0  0  0  0  0
    0.7184   19.8467    1.5295 H   0  0  0  0  0  0  0  0  0  0  0  0
    1.6912   18.4439    0.9194 H   0  0  0  0  0  0  0  0  0  0  0  0
    2.2058   20.6653    2.3528 H   0  0  0  0  0  0  0  0  0  0  0  0
    4.2180   17.1405    2.3161 H   0  0  0  0  0  0  0  0  0  0  0  0
    3.2893   17.5666    0.8387 H   0  0  0  0  0  0  0  0  0  0  0  0
    5.0816   17.6866    0.8387 H   0  0  0  0  0  0  0  0  0  0  0  0
    4.5315   19.4275    3.9899 H   0  0  0  0  0  0  0  0  0  0  0  0
    5.9411   19.0593    2.9391 H   0  0  0  0  0  0  0  0  0  0  0  0
    5.2271   20.7076    2.9391 H   0  0  0  0  0  0  0  0  0  0  0  0
    2.3468   17.3652   -0.5198 H   0  0  0  0  0  0  0  0  0  0  0  0
    0.4795   17.7276    0.9711 H   0  0  0  0  0  0  0  0  0  0  0  0
   -0.4693   18.5424   -0.2912 H   0  0  0  0  0  0  0  0  0  0  0  0
   -0.8788   15.8688    0.6297 H   0  0  0  0  0  0  0  0  0  0  0  0
   -1.5659   16.5178   -0.8570 H   0  0  0  0  0  0  0  0  0  0  0  0
    0.9446   15.0842    0.9408 H   0  0  0  0  0  0  0  0  0  0  0  0
    1.3503   13.7531   -0.1951 H   0  0  0  0  0  0  0  0  0  0  0  0
    2.3248   15.2621   -0.1951 H   0  0  0  0  0  0  0  0  0  0  0  0
   -1.0321   14.9339   -2.6109 H   0  0  0  0  0  0  0  0  0  0  0  0
   -1.5149   13.7547   -0.3717 H   0  0  0  0  0  0  0  0  0  0  0  0
   -1.8569   12.9249   -1.9789 H   0  0  0  0  0  0  0  0  0  0  0  0
   -0.7703   11.4285   -0.1017 H   0  0  0  0  0  0  0  0  0  0  0  0
    2.3965   13.1045   -1.9595 H   0  0  0  0  0  0  0  0  0  0  0  0
    1.3103   11.0601   -3.9951 H   0  0  0  0  0  0  0  0  0  0  0  0
    2.7362   12.1684   -4.2156 H   0  0  0  0  0  0  0  0  0  0  0  0
    3.4241    9.8512   -3.6919 H   0  0  0  0  0  0  0  0  0  0  0  0
    3.9279   11.0405   -2.4274 H   0  0  0  0  0  0  0  0  0  0  0  0
    3.1023    9.0641   -1.3429 H   0  0  0  0  0  0  0  0  0  0  0  0
    1.6670    8.0200   -2.5450 H   0  0  0  0  0  0  0  0  0  0  0  0
    2.6038   11.0583    1.2301 H   0  0  0  0  0  0  0  0  0  0  0  0
    3.8036   10.6876   -0.0542 H   0  0  0  0  0  0  0  0  0  0  0  0
    2.9468   12.2663   -0.0542 H   0  0  0  0  0  0  0  0  0  0  0  0
    1.1291    9.8990    1.2760 H   0  0  0  0  0  0  0  0  0  0  0  0
   -0.1632    9.7866    0.0334 H   0  0  0  0  0  0  0  0  0  0  0  0
    1.1882    8.6033    0.0334 H   0  0  0  0  0  0  0  0  0  0  0  0
   -1.0281   12.5844   -3.8055 H   0  0  0  0  0  0  0  0  0  0  0  0
   -0.5527   13.9647   -4.8522 H   0  0  0  0  0  0  0  0  0  0  0  0
    0.4263   12.4586   -4.8522 H   0  0  0  0  0  0  0  0  0  0  0  0
    2.5372   14.2326   -4.1242 H   0  0  0  0  0  0  0  0  0  0  0  0
    1.0507   15.2726   -4.5023 H   0  0  0  0  0  0  0  0  0  0  0  0
    2.8959   15.4862   -2.1076 H   0  0  0  0  0  0  0  0  0  0  0  0
    2.6507   16.6685   -3.4529 H   0  0  0  0  0  0  0  0  0  0  0  0
   -0.7512   17.7389   -2.5746 H   0  0  0  0  0  0  0  0  0  0  0  0
    0.6124   17.9059   -3.7318 H   0  0  0  0  0  0  0  0  0  0  0  0
   -0.3879   16.4139   -3.7318 H   0  0  0  0  0  0  0  0  0  0  0  0
  1  2  1  0
  2  3  1  0
  3  4  1  0
  4  5  1  0
  5  6  1  0
  6  7  1  0
  7  8  1  0
  7  9  1  0
  2 10  1  0
 10 11  1  0
 11 12  1  0
 12 13  1  0
 13 14  1  1
 13 15  1  0
 15 16  1  0
 16 17  1  0
 17 18  2  0
 18 19  1  0
 19 20  1  0
 20 21  1  0
 21 22  1  0
 22 23  1  0
 22 24  1  0
 24 25  1  0
 24 26  1  0
 19 27  1  0
 27 28  1  6
 27 29  1  0
 29 30  1  0
 30 31  1  0
 31 32  1  6
  7  5  1  0
 31 10  1  0
 31 13  1  0
 27 15  1  0
 24 18  1  0
  1 33  1  0
  1 34  1  0
  1 35  1  0
  2 36  1  6
  3 37  1  0
  3 38  1  0
  4 39  1  0
  4 40  1  0
  5 41  1  1
  8 42  1  0
  8 43  1  0
  8 44  1  0
  9 45  1  0
  9 46  1  0
  9 47  1  0
 10 48  1  1
 11 49  1  0
 11 50  1  0
 12 51  1  0
 12 52  1  0
 14 53  1  0
 14 54  1  0
 14 55  1  0
 15 56  1  6
 16 57  1  0
 16 58  1  0
 17 59  1  0
 19 60  1  1
 20 61  1  0
 20 62  1  0
 21 63  1  0
 21 64  1  0
 22 65  1  1
 23 66  1  0
 25 67  1  0
 25 68  1  0
 25 69  1  0
 26 70  1  0
 26 71  1  0
 26 72  1  0
 28 73  1  0
 28 74  1  0
 28 75  1  0
 29 76  1  0
 29 77  1  0
 30 78  1  0
 30 79  1  0
 32 80  1  0
 32 81  1  0
 32 82  1  0
M  END
>  <meeko>  (16) 
{"is_sidechain": [false], "intermolecular_energy": 2.731, "internal_energy": -0.839}

$$$$
EPH_relaxed_0001_pdb2pqr_Repair_233_r2_0001_out
     RDKit          3D

 82 86  0  0  0  0  0  0  0  0999 V2000
    2.8300   11.3630   -5.3490 C   0  0  0  0  0  0  0  0  0  0  0  0
    1.8120   11.0590   -4.2460 C   0  0  2  0  0  0  0  0  0  0  0  0
    0.6900   10.1220   -4.7350 C   0  0  0  0  0  0  0  0  0  0  0  0
   -0.3760    9.8330   -3.6740 C   0  0  0  0  0  0  0  0  0  0  0  0
    0.1830    9.0490   -2.5260 C   0  0  2  0  0  0  0  0  0  0  0  0
   -0.6380    7.9570   -2.0900 O   0  0  0  0  0  0  0  0  0  0  0  0
   -0.4470    9.0220   -1.1450 C   0  0  0  0  0  0  0  0  0  0  0  0
   -1.6910    9.7960   -0.8410 C   0  0  0  0  0  0  0  0  0  0  0  0
    0.4080    8.6450    0.0240 C   0  0  0  0  0  0  0  0  0  0  0  0
    1.2130   12.3580   -3.7190 C   0  0  1  0  0  0  0  0  0  0  0  0
   -0.3250   12.2740   -3.5330 C   0  0  0  0  0  0  0  0  0  0  0  0
   -0.6730   13.1320   -2.2890 C   0  0  0  0  0  0  0  0  0  0  0  0
    0.6140   13.9420   -2.0020 C   0  0  1  0  0  0  0  0  0  0  0  0
    0.5640   15.1410   -3.0000 C   0  0  0  0  0  0  0  0  0  0  0  0
    0.8110   14.4250   -0.5280 C   0  0  2  0  0  0  0  0  0  0  0  0
   -0.2620   15.3980   -0.0110 C   0  0  0  0  0  0  0  0  0  0  0  0
    0.0310   16.8450   -0.2280 C   0  0  0  0  0  0  0  0  0  0  0  0
    1.2310   17.3600   -0.5550 C   0  0  0  0  0  0  0  0  0  0  0  0
    2.4740   16.4650   -0.6420 C   0  0  1  0  0  0  0  0  0  0  0  0
    3.6540   17.1430    0.1020 C   0  0  0  0  0  0  0  0  0  0  0  0
    3.9200   18.5620   -0.3930 C   0  0  0  0  0  0  0  0  0  0  0  0
    2.6780   19.4360   -0.2360 C   0  0  2  0  0  0  0  0  0  0  0  0
    2.4130   19.6130    1.1590 O   0  0  0  0  0  0  0  0  0  0  0  0
    1.4220   18.8480   -0.9370 C   0  0  0  0  0  0  0  0  0  0  0  0
    1.5940   18.9370   -2.4740 C   0  0  0  0  0  0  0  0  0  0  0  0
    0.2110   19.7520   -0.5830 C   0  0  0  0  0  0  0  0  0  0  0  0
    2.2700   14.9500   -0.2090 C   0  0  1  0  0  0  0  0  0  0  0  0
    2.4670   14.8060    1.3310 C   0  0  0  0  0  0  0  0  0  0  0  0
    3.3850   14.0670   -0.8840 C   0  0  0  0  0  0  0  0  0  0  0  0
    3.0810   13.5200   -2.2920 C   0  0  0  0  0  0  0  0  0  0  0  0
    1.7010   12.8560   -2.3360 C   0  0  2  0  0  0  0  0  0  0  0  0
    1.7270   11.6320   -1.3580 C   0  0  0  0  0  0  0  0  0  0  0  0
    3.7894   11.6495   -4.8936 H   0  0  0  0  0  0  0  0  0  0  0  0
    2.9729   10.4683   -5.9728 H   0  0  0  0  0  0  0  0  0  0  0  0
    2.4589   12.1895   -5.9728 H   0  0  0  0  0  0  0  0  0  0  0  0
    2.3460   10.5406   -3.4360 H   0  0  0  0  0  0  0  0  0  0  0  0
    0.1998   10.5897   -5.6016 H   0  0  0  0  0  0  0  0  0  0  0  0
    1.1611    9.1607   -4.9880 H   0  0  0  0  0  0  0  0  0  0  0  0
   -0.7702   10.7876   -3.2954 H   0  0  0  0  0  0  0  0  0  0  0  0
   -1.1723    9.2355   -4.1418 H   0  0  0  0  0  0  0  0  0  0  0  0
    1.2116    9.2425   -2.8643 H   0  0  0  0  0  0  0  0  0  0  0  0
   -1.8169    9.8744    0.2490 H   0  0  0  0  0  0  0  0  0  0  0  0
   -1.6108   10.8039   -1.2742 H   0  0  0  0  0  0  0  0  0  0  0  0
   -2.5598    9.2787   -1.2742 H   0  0  0  0  0  0  0  0  0  0  0  0
   -0.1238    8.8795    0.9579 H   0  0  0  0  0  0  0  0  0  0  0  0
    0.6257    7.5674   -0.0134 H   0  0  0  0  0  0  0  0  0  0  0  0
    1.3505    9.2110   -0.0134 H   0  0  0  0  0  0  0  0  0  0  0  0
    1.5476   13.0487   -4.5070 H   0  0  0  0  0  0  0  0  0  0  0  0
   -0.8363   12.6713   -4.4222 H   0  0  0  0  0  0  0  0  0  0  0  0
   -0.6500   11.2319   -3.3974 H   0  0  0  0  0  0  0  0  0  0  0  0
   -1.5157   13.8053   -2.5048 H   0  0  0  0  0  0  0  0  0  0  0  0
   -0.9794   12.5169   -1.4301 H   0  0  0  0  0  0  0  0  0  0  0  0
    0.5246   16.0852   -2.4371 H   0  0  0  0  0  0  0  0  0  0  0  0
    1.4634   15.1288   -3.6331 H   0  0  0  0  0  0  0  0  0  0  0  0
   -0.3313   15.0540   -3.6331 H   0  0  0  0  0  0  0  0  0  0  0  0
    0.6722   13.4968    0.0457 H   0  0  0  0  0  0  0  0  0  0  0  0
   -1.2079   15.1627   -0.5207 H   0  0  0  0  0  0  0  0  0  0  0  0
   -0.3013   15.2559    1.0791 H   0  0  0  0  0  0  0  0  0  0  0  0
   -0.8045   17.5508   -0.1108 H   0  0  0  0  0  0  0  0  0  0  0  0
    2.7094   16.3763   -1.7129 H   0  0  0  0  0  0  0  0  0  0  0  0
    3.4178   17.1825    1.1756 H   0  0  0  0  0  0  0  0  0  0  0  0
    4.5578   16.5468   -0.0920 H   0  0  0  0  0  0  0  0  0  0  0  0
    4.7437   18.9986    0.1909 H   0  0  0  0  0  0  0  0  0  0  0  0
    4.1860   18.5179   -1.4594 H   0  0  0  0  0  0  0  0  0  0  0  0
    2.8874   20.3984   -0.7258 H   0  0  0  0  0  0  0  0  0  0  0  0
    1.6080   20.1520    1.2390 H   0  0  0  0  0  0  0  0  0  0  0  0
    2.5486   19.4309   -2.7081 H   0  0  0  0  0  0  0  0  0  0  0  0
    1.5905   17.9239   -2.9026 H   0  0  0  0  0  0  0  0  0  0  0  0
    0.7650   19.5193   -2.9026 H   0  0  0  0  0  0  0  0  0  0  0  0
    0.1145   19.8241    0.5104 H   0  0  0  0  0  0  0  0  0  0  0  0
    0.3674   20.7560   -1.0043 H   0  0  0  0  0  0  0  0  0  0  0  0
   -0.7071   19.3166   -1.0043 H   0  0  0  0  0  0  0  0  0  0  0  0
    1.6864   15.3766    1.8555 H   0  0  0  0  0  0  0  0  0  0  0  0
    2.3968   13.7448    1.6120 H   0  0  0  0  0  0  0  0  0  0  0  0
    3.4568   15.1950    1.6120 H   0  0  0  0  0  0  0  0  0  0  0  0
    4.2965   14.6787   -0.9544 H   0  0  0  0  0  0  0  0  0  0  0  0
    3.4747   13.1775   -0.2431 H   0  0  0  0  0  0  0  0  0  0  0  0
    3.1041   14.3502   -3.0133 H   0  0  0  0  0  0  0  0  0  0  0  0
    3.8410   12.7669   -2.5474 H   0  0  0  0  0  0  0  0  0  0  0  0
    1.7193   11.9927   -0.3189 H   0  0  0  0  0  0  0  0  0  0  0  0
    0.8420   11.0029   -1.5343 H   0  0  0  0  0  0  0  0  0  0  0  0
    2.6379   11.0411   -1.5343 H   0  0  0  0  0  0  0  0  0  0  0  0
  1  2  1  0
  2  3  1  0
  3  4  1  0
  4  5  1  0
  5  6  1  0
  6  7  1  0
  7  8  1  0
  7  9  1  0
  2 10  1  0
 10 11  1  0
 11 12  1  0
 12 13  1  0
 13 14  1  6
 13 15  1  0
 15 16  1  0
 16 17  1  0
 17 18  2  0
 18 19  1  0
 19 20  1  0
 20 21  1  0
 21 22  1  0
 22 23  1  0
 22 24  1  0
 24 25  1  0
 24 26  1  0
 19 27  1  0
 27 28  1  1
 27 29  1  0
 29 30  1  0
 30 31  1  0
 31 32  1  1
  7  5  1  0
 31 10  1  0
 31 13  1  0
 27 15  1  0
 24 18  1  0
  1 33  1  0
  1 34  1  0
  1 35  1  0
  2 36  1  1
  3 37  1  0
  3 38  1  0
  4 39  1  0
  4 40  1  0
  5 41  1  1
  8 42  1  0
  8 43  1  0
  8 44  1  0
  9 45  1  0
  9 46  1  0
  9 47  1  0
 10 48  1  6
 11 49  1  0
 11 50  1  0
 12 51  1  0
 12 52  1  0
 14 53  1  0
 14 54  1  0
 14 55  1  0
 15 56  1  1
 16 57  1  0
 16 58  1  0
 17 59  1  0
 19 60  1  6
 20 61  1  0
 20 62  1  0
 21 63  1  0
 21 64  1  0
 22 65  1  6
 23 66  1  0
 25 67  1  0
 25 68  1  0
 25 69  1  0
 26 70  1  0
 26 71  1  0
 26 72  1  0
 28 73  1  0
 28 74  1  0
 28 75  1  0
 29 76  1  0
 29 77  1  0
 30 78  1  0
 30 79  1  0
 32 80  1  0
 32 81  1  0
 32 82  1  0
M  END
>  <meeko>  (17) 
{"is_sidechain": [false], "intermolecular_energy": 2.731, "internal_energy": -0.839}

$$$$
EPH_relaxed_0001_pdb2pqr_Repair_233_r2_0001_out
     RDKit          3D

 82 86  0  0  0  0  0  0  0  0999 V2000
    0.9460   14.9530   -2.6660 C   0  0  0  0  0  0  0  0  0  0  0  0
    1.1830   14.2850   -4.0230 C   0  0  2  0  0  0  0  0  0  0  0  0
    0.4540   15.0180   -5.1660 C   0  0  0  0  0  0  0  0  0  0  0  0
    0.9300   14.6080   -6.5620 C   0  0  0  0  0  0  0  0  0  0  0  0
    0.7180   15.7020   -7.5640 C   0  0  2  0  0  0  0  0  0  0  0  0
    0.4020   15.2490   -8.8870 O   0  0  0  0  0  0  0  0  0  0  0  0
    1.6460   15.9530   -8.7380 C   0  0  0  0  0  0  0  0  0  0  0  0
    2.8570   15.1050   -8.9710 C   0  0  0  0  0  0  0  0  0  0  0  0
    1.6500   17.3100   -9.3700 C   0  0  0  0  0  0  0  0  0  0  0  0
    0.7360   12.8280   -3.9690 C   0  0  1  0  0  0  0  0  0  0  0  0
    1.8640   11.8420   -4.3760 C   0  0  0  0  0  0  0  0  0  0  0  0
    1.6820   10.5720   -3.5060 C   0  0  0  0  0  0  0  0  0  0  0  0
    0.2790   10.7290   -2.8750 C   0  0  1  0  0  0  0  0  0  0  0  0
   -0.7150   10.2640   -3.9860 C   0  0  0  0  0  0  0  0  0  0  0  0
    0.0370    9.9690   -1.5300 C   0  0  2  0  0  0  0  0  0  0  0  0
    0.1440    8.4370   -1.6180 C   0  0  0  0  0  0  0  0  0  0  0  0
   -1.1320    7.7250   -1.9240 C   0  0  0  0  0  0  0  0  0  0  0  0
   -2.3650    8.2590   -1.8400 C   0  0  0  0  0  0  0  0  0  0  0  0
   -2.5720    9.6830   -1.3080 C   0  0  1  0  0  0  0  0  0  0  0  0
   -3.7350    9.6880   -0.2810 C   0  0  0  0  0  0  0  0  0  0  0  0
   -5.0170    9.0840   -0.8460 C   0  0  0  0  0  0  0  0  0  0  0  0
   -4.7850    7.6480   -1.3110 C   0  0  2  0  0  0  0  0  0  0  0  0
   -4.5060    6.8330   -0.1690 O   0  0  0  0  0  0  0  0  0  0  0  0
   -3.6290    7.5180   -2.3420 C   0  0  0  0  0  0  0  0  0  0  0  0
   -4.0590    8.1480   -3.6890 C   0  0  0  0  0  0  0  0  0  0  0  0
   -3.4060    6.0060   -2.6200 C   0  0  0  0  0  0  0  0  0  0  0  0
   -1.2720   10.4140   -0.7600 C   0  0  1  0  0  0  0  0  0  0  0  0
   -1.0500   10.0540    0.7400 C   0  0  0  0  0  0  0  0  0  0  0  0
   -1.4970   11.9720   -0.8140 C   0  0  0  0  0  0  0  0  0  0  0  0
   -1.1270   12.6820   -2.1300 C   0  0  0  0  0  0  0  0  0  0  0  0
    0.2740   12.2760   -2.5980 C   0  0  2  0  0  0  0  0  0  0  0  0
    1.2970   12.7510   -1.5100 C   0  0  0  0  0  0  0  0  0  0  0  0
    1.1966   14.2466   -1.8609 H   0  0  0  0  0  0  0  0  0  0  0  0
    1.5820   15.8465   -2.5811 H   0  0  0  0  0  0  0  0  0  0  0  0
   -0.1109   15.2458   -2.5811 H   0  0  0  0  0  0  0  0  0  0  0  0
    2.2614   14.3359   -4.2339 H   0  0  0  0  0  0  0  0  0  0  0  0
   -0.6214   14.8004   -5.0879 H   0  0  0  0  0  0  0  0  0  0  0  0
    0.6746   16.0897   -5.0529 H   0  0  0  0  0  0  0  0  0  0  0  0
    2.0028   14.3691   -6.5168 H   0  0  0  0  0  0  0  0  0  0  0  0
    0.3441   13.7332   -6.8806 H   0  0  0  0  0  0  0  0  0  0  0  0
    0.3152   16.3679   -6.7867 H   0  0  0  0  0  0  0  0  0  0  0  0
    3.2859   14.8046   -8.0036 H   0  0  0  0  0  0  0  0  0  0  0  0
    2.5724   14.2078   -9.5403 H   0  0  0  0  0  0  0  0  0  0  0  0
    3.6027   15.6793   -9.5403 H   0  0  0  0  0  0  0  0  0  0  0  0
    1.6523   18.0802   -8.5847 H   0  0  0  0  0  0  0  0  0  0  0  0
    2.5485   17.4208   -9.9949 H   0  0  0  0  0  0  0  0  0  0  0  0
    0.7522   17.4261   -9.9949 H   0  0  0  0  0  0  0  0  0  0  0  0
   -0.1161   12.8707   -4.6634 H   0  0  0  0  0  0  0  0  0  0  0  0
    1.7774   11.5864   -5.4424 H   0  0  0  0  0  0  0  0  0  0  0  0
    2.8563   12.2899   -4.2189 H   0  0  0  0  0  0  0  0  0  0  0  0
    1.7290    9.6656   -4.1275 H   0  0  0  0  0  0  0  0  0  0  0  0
    2.4716   10.4697   -2.7470 H   0  0  0  0  0  0  0  0  0  0  0  0
   -1.6167    9.8422   -3.5181 H   0  0  0  0  0  0  0  0  0  0  0  0
   -0.9948   11.1247   -4.6113 H   0  0  0  0  0  0  0  0  0  0  0  0
   -0.2337    9.4976   -4.6113 H   0  0  0  0  0  0  0  0  0  0  0  0
    0.8922   10.2935   -0.9189 H   0  0  0  0  0  0  0  0  0  0  0  0
    0.8681    8.1918   -2.4089 H   0  0  0  0  0  0  0  0  0  0  0  0
    0.4508    8.0955   -0.6183 H   0  0  0  0  0  0  0  0  0  0  0  0
   -1.0585    6.6755   -2.2452 H   0  0  0  0  0  0  0  0  0  0  0  0
   -2.8409   10.2972   -2.1800 H   0  0  0  0  0  0  0  0  0  0  0  0
   -3.4294    9.1054    0.6006 H   0  0  0  0  0  0  0  0  0  0  0  0
   -3.9460   10.7357   -0.0206 H   0  0  0  0  0  0  0  0  0  0  0  0
   -5.7918    9.0888   -0.0652 H   0  0  0  0  0  0  0  0  0  0  0  0
   -5.3375    9.6852   -1.7096 H   0  0  0  0  0  0  0  0  0  0  0  0
   -5.7000    7.3143   -1.8222 H   0  0  0  0  0  0  0  0  0  0  0  0
   -5.2820    6.8710    0.4160 H   0  0  0  0  0  0  0  0  0  0  0  0
   -4.6696    9.0426   -3.4970 H   0  0  0  0  0  0  0  0  0  0  0  0
   -3.1647    8.4309   -4.2636 H   0  0  0  0  0  0  0  0  0  0  0  0
   -4.6483    7.4182   -4.2636 H   0  0  0  0  0  0  0  0  0  0  0  0
   -3.3263    5.4655   -1.6653 H   0  0  0  0  0  0  0  0  0  0  0  0
   -4.2554    5.6099   -3.1958 H   0  0  0  0  0  0  0  0  0  0  0  0
   -2.4784    5.8720   -3.1958 H   0  0  0  0  0  0  0  0  0  0  0  0
   -1.5217   10.8189    1.3744 H   0  0  0  0  0  0  0  0  0  0  0  0
   -1.5003    9.0731    0.9522 H   0  0  0  0  0  0  0  0  0  0  0  0
    0.0287   10.0159    0.9522 H   0  0  0  0  0  0  0  0  0  0  0  0
   -2.5636   12.1610   -0.6224 H   0  0  0  0  0  0  0  0  0  0  0  0
   -0.8124   12.3880   -0.0602 H   0  0  0  0  0  0  0  0  0  0  0  0
   -1.8584   12.4079   -2.9045 H   0  0  0  0  0  0  0  0  0  0  0  0
   -1.1375   13.7683   -1.9570 H   0  0  0  0  0  0  0  0  0  0  0  0
    0.8833   12.5589   -0.5090 H   0  0  0  0  0  0  0  0  0  0  0  0
    2.2411   12.1991   -1.6286 H   0  0  0  0  0  0  0  0  0  0  0  0
    1.4846   13.8284   -1.6286 H   0  0  0  0  0  0  0  0  0  0  0  0
  1  2  1  0
  2  3  1  0
  3  4  1  0
  4  5  1  0
  5  6  1  0
  6  7  1  0
  7  8  1  0
  7  9  1  0
  2 10  1  0
 10 11  1  0
 11 12  1  0
 12 13  1  0
 13 14  1  6
 13 15  1  0
 15 16  1  0
 16 17  1  0
 17 18  2  0
 18 19  1  0
 19 20  1  0
 20 21  1  0
 21 22  1  0
 22 23  1  0
 22 24  1  0
 24 25  1  0
 24 26  1  0
 19 27  1  0
 27 28  1  1
 27 29  1  0
 29 30  1  0
 30 31  1  0
 31 32  1  1
  7  5  1  0
 31 10  1  0
 31 13  1  0
 27 15  1  0
 24 18  1  0
  1 33  1  0
  1 34  1  0
  1 35  1  0
  2 36  1  6
  3 37  1  0
  3 38  1  0
  4 39  1  0
  4 40  1  0
  5 41  1  1
  8 42  1  0
  8 43  1  0
  8 44  1  0
  9 45  1  0
  9 46  1  0
  9 47  1  0
 10 48  1  6
 11 49  1  0
 11 50  1  0
 12 51  1  0
 12 52  1  0
 14 53  1  0
 14 54  1  0
 14 55  1  0
 15 56  1  1
 16 57  1  0
 16 58  1  0
 17 59  1  0
 19 60  1  6
 20 61  1  0
 20 62  1  0
 21 63  1  0
 21 64  1  0
 22 65  1  6
 23 66  1  0
 25 67  1  0
 25 68  1  0
 25 69  1  0
 26 70  1  0
 26 71  1  0
 26 72  1  0
 28 73  1  0
 28 74  1  0
 28 75  1  0
 29 76  1  0
 29 77  1  0
 30 78  1  0
 30 79  1  0
 32 80  1  0
 32 81  1  0
 32 82  1  0
M  END
>  <meeko>  (18) 
{"is_sidechain": [false], "intermolecular_energy": 2.731, "internal_energy": -0.839}

$$$$
