EPH_relaxed_0001_pdb2pqr_Repair_22_r2_0001_out
     RDKit          3D

 82 86  0  0  0  0  0  0  0  0999 V2000
   -1.7170    8.5770   -1.8740 C   0  0  0  0  0  0  0  0  0  0  0  0
   -2.1070    9.1020   -0.4900 C   0  0  2  0  0  0  0  0  0  0  0  0
   -3.6020    9.4700   -0.4070 C   0  0  0  0  0  0  0  0  0  0  0  0
   -4.5260    8.2590   -0.2520 C   0  0  0  0  0  0  0  0  0  0  0  0
   -5.2150    7.9190   -1.5390 C   0  0  2  0  0  0  0  0  0  0  0  0
   -6.3190    8.7720   -1.8700 O   0  0  0  0  0  0  0  0  0  0  0  0
   -6.6370    7.3950   -1.6130 C   0  0  0  0  0  0  0  0  0  0  0  0
   -7.4550    7.1800   -0.3780 C   0  0  0  0  0  0  0  0  0  0  0  0
   -7.0570    6.6350   -2.8320 C   0  0  0  0  0  0  0  0  0  0  0  0
   -1.2520   10.3130   -0.1340 C   0  0  1  0  0  0  0  0  0  0  0  0
   -0.2340   10.0140    0.9980 C   0  0  0  0  0  0  0  0  0  0  0  0
    1.0400   10.8410    0.6850 C   0  0  0  0  0  0  0  0  0  0  0  0
    0.5990   11.8320   -0.4180 C   0  0  1  0  0  0  0  0  0  0  0  0
   -0.1170   12.9900    0.3470 C   0  0  0  0  0  0  0  0  0  0  0  0
    1.7290   12.3720   -1.3540 C   0  0  2  0  0  0  0  0  0  0  0  0
    2.8240   13.1920   -0.6500 C   0  0  0  0  0  0  0  0  0  0  0  0
    2.5710   14.6610   -0.5750 C   0  0  0  0  0  0  0  0  0  0  0  0
    1.6560   15.3350   -1.2960 C   0  0  0  0  0  0  0  0  0  0  0  0
    0.8240   14.6260   -2.3730 C   0  0  1  0  0  0  0  0  0  0  0  0
    0.8110   15.4840   -3.6660 C   0  0  0  0  0  0  0  0  0  0  0  0
    0.3430   16.9140   -3.4140 C   0  0  0  0  0  0  0  0  0  0  0  0
    1.2310   17.6040   -2.3820 C   0  0  2  0  0  0  0  0  0  0  0  0
    2.5390   17.7720   -2.9370 O   0  0  0  0  0  0  0  0  0  0  0  0
    1.3280   16.8270   -1.0400 C   0  0  0  0  0  0  0  0  0  0  0  0
   -0.0270   16.9050   -0.2930 C   0  0  0  0  0  0  0  0  0  0  0  0
    2.3620   17.5560   -0.1400 C   0  0  0  0  0  0  0  0  0  0  0  0
    1.2000   13.1070   -2.6510 C   0  0  1  0  0  0  0  0  0  0  0  0
    2.3450   13.0280   -3.7070 C   0  0  0  0  0  0  0  0  0  0  0  0
   -0.0420   12.3790   -3.2880 C   0  0  0  0  0  0  0  0  0  0  0  0
   -1.0620   11.7630   -2.3110 C   0  0  0  0  0  0  0  0  0  0  0  0
   -0.3600   10.9070   -1.2520 C   0  0  2  0  0  0  0  0  0  0  0  0
    0.3510    9.7220   -1.9900 C   0  0  0  0  0  0  0  0  0  0  0  0
   -1.0644    7.6985   -1.7624 H   0  0  0  0  0  0  0  0  0  0  0  0
   -2.6241    8.2920   -2.4271 H   0  0  0  0  0  0  0  0  0  0  0  0
   -1.1822    9.3632   -2.4271 H   0  0  0  0  0  0  0  0  0  0  0  0
   -1.9264    8.2930    0.2331 H   0  0  0  0  0  0  0  0  0  0  0  0
   -3.7491   10.1322    0.4589 H   0  0  0  0  0  0  0  0  0  0  0  0
   -3.8666    9.9568   -1.3573 H   0  0  0  0  0  0  0  0  0  0  0  0
   -3.9287    7.3940    0.0719 H   0  0  0  0  0  0  0  0  0  0  0  0
   -5.2955    8.5081    0.4935 H   0  0  0  0  0  0  0  0  0  0  0  0
   -4.2722    7.5590   -1.9766 H   0  0  0  0  0  0  0  0  0  0  0  0
   -6.8278    7.3448    0.5105 H   0  0  0  0  0  0  0  0  0  0  0  0
   -8.2975    7.8872   -0.3685 H   0  0  0  0  0  0  0  0  0  0  0  0
   -7.8408    6.1499   -0.3685 H   0  0  0  0  0  0  0  0  0  0  0  0
   -7.5685    5.7095   -2.5289 H   0  0  0  0  0  0  0  0  0  0  0  0
   -7.7417    7.2529   -3.4315 H   0  0  0  0  0  0  0  0  0  0  0  0
   -6.1695    6.3840   -3.4315 H   0  0  0  0  0  0  0  0  0  0  0  0
   -2.0456   11.0264    0.1329 H   0  0  0  0  0  0  0  0  0  0  0  0
   -0.6506   10.3139    1.9709 H   0  0  0  0  0  0  0  0  0  0  0  0
   -0.0044    8.9394    1.0486 H   0  0  0  0  0  0  0  0  0  0  0  0
    1.3815   11.3822    1.5797 H   0  0  0  0  0  0  0  0  0  0  0  0
    1.8810   10.2079    0.3658 H   0  0  0  0  0  0  0  0  0  0  0  0
   -0.0179   12.8298    1.4308 H   0  0  0  0  0  0  0  0  0  0  0  0
    0.3452   13.9503    0.0745 H   0  0  0  0  0  0  0  0  0  0  0  0
   -1.1826   13.0056    0.0745 H   0  0  0  0  0  0  0  0  0  0  0  0
    2.2193   11.4462   -1.6894 H   0  0  0  0  0  0  0  0  0  0  0  0
    2.9260   12.8117    0.3771 H   0  0  0  0  0  0  0  0  0  0  0  0
    3.7332   13.0703   -1.2570 H   0  0  0  0  0  0  0  0  0  0  0  0
    3.1844   15.2421    0.1293 H   0  0  0  0  0  0  0  0  0  0  0  0
   -0.1956   14.5477   -1.9676 H   0  0  0  0  0  0  0  0  0  0  0  0
    1.8298   15.5141   -4.0796 H   0  0  0  0  0  0  0  0  0  0  0  0
    0.1029   15.0196   -4.3680 H   0  0  0  0  0  0  0  0  0  0  0  0
    0.3830   17.4776   -4.3578 H   0  0  0  0  0  0  0  0  0  0  0  0
   -0.6865   16.8839   -3.0277 H   0  0  0  0  0  0  0  0  0  0  0  0
    0.7713   18.5758   -2.1488 H   0  0  0  0  0  0  0  0  0  0  0  0
    2.4750   17.6120   -3.8940 H   0  0  0  0  0  0  0  0  0  0  0  0
    0.1515   16.8947    0.7924 H   0  0  0  0  0  0  0  0  0  0  0  0
   -0.5457   17.8345   -0.5705 H   0  0  0  0  0  0  0  0  0  0  0  0
   -0.6489   16.0412   -0.5705 H   0  0  0  0  0  0  0  0  0  0  0  0
    2.1149   17.3818    0.9176 H   0  0  0  0  0  0  0  0  0  0  0  0
    3.3694   17.1673   -0.3500 H   0  0  0  0  0  0  0  0  0  0  0  0
    2.3343   18.6354   -0.3500 H   0  0  0  0  0  0  0  0  0  0  0  0
    3.3147   12.9611   -3.1921 H   0  0  0  0  0  0  0  0  0  0  0  0
    2.2021   12.1376   -4.3369 H   0  0  0  0  0  0  0  0  0  0  0  0
    2.3257   13.9296   -4.3369 H   0  0  0  0  0  0  0  0  0  0  0  0
   -0.5766   13.1137   -3.9079 H   0  0  0  0  0  0  0  0  0  0  0  0
    0.3770   11.5264   -3.8425 H   0  0  0  0  0  0  0  0  0  0  0  0
   -1.6150   12.5718   -1.8110 H   0  0  0  0  0  0  0  0  0  0  0  0
   -1.7497   11.1211   -2.8810 H   0  0  0  0  0  0  0  0  0  0  0  0
    0.7688    9.0257   -1.2479 H   0  0  0  0  0  0  0  0  0  0  0  0
   -0.3784    9.1920   -2.6201 H   0  0  0  0  0  0  0  0  0  0  0  0
    1.1619   10.1162   -2.6201 H   0  0  0  0  0  0  0  0  0  0  0  0
  1  2  1  0
  2  3  1  0
  3  4  1  0
  4  5  1  0
  5  6  1  0
  6  7  1  0
  7  8  1  0
  7  9  1  0
  2 10  1  0
 10 11  1  0
 11 12  1  0
 12 13  1  0
 13 14  1  1
 13 15  1  0
 15 16  1  0
 16 17  1  0
 17 18  2  0
 18 19  1  0
 19 20  1  0
 20 21  1  0
 21 22  1  0
 22 23  1  0
 22 24  1  0
 24 25  1  0
 24 26  1  0
 19 27  1  0
 27 28  1  6
 27 29  1  0
 29 30  1  0
 30 31  1  0
 31 32  1  6
  7  5  1  0
 31 10  1  0
 31 13  1  0
 27 15  1  0
 24 18  1  0
  1 33  1  0
  1 34  1  0
  1 35  1  0
  2 36  1  1
  3 37  1  0
  3 38  1  0
  4 39  1  0
  4 40  1  0
  5 41  1  6
  8 42  1  0
  8 43  1  0
  8 44  1  0
  9 45  1  0
  9 46  1  0
  9 47  1  0
 10 48  1  1
 11 49  1  0
 11 50  1  0
 12 51  1  0
 12 52  1  0
 14 53  1  0
 14 54  1  0
 14 55  1  0
 15 56  1  6
 16 57  1  0
 16 58  1  0
 17 59  1  0
 19 60  1  1
 20 61  1  0
 20 62  1  0
 21 63  1  0
 21 64  1  0
 22 65  1  1
 23 66  1  0
 25 67  1  0
 25 68  1  0
 25 69  1  0
 26 70  1  0
 26 71  1  0
 26 72  1  0
 28 73  1  0
 28 74  1  0
 28 75  1  0
 29 76  1  0
 29 77  1  0
 30 78  1  0
 30 79  1  0
 32 80  1  0
 32 81  1  0
 32 82  1  0
M  END
>  <meeko>  (1) 
{"is_sidechain": [false], "intermolecular_energy": 2.731, "internal_energy": -0.839}

$$$$
EPH_relaxed_0001_pdb2pqr_Repair_22_r2_0001_out
     RDKit          3D

 82 86  0  0  0  0  0  0  0  0999 V2000
    4.2120   17.5590   -0.6400 C   0  0  0  0  0  0  0  0  0  0  0  0
    2.8570   18.1270   -0.2060 C   0  0  2  0  0  0  0  0  0  0  0  0
    2.9290   18.8110    1.1740 C   0  0  0  0  0  0  0  0  0  0  0  0
    4.2510   18.5760    1.9090 C   0  0  0  0  0  0  0  0  0  0  0  0
    4.2140   19.1210    3.3050 C   0  0  2  0  0  0  0  0  0  0  0  0
    5.1310   20.1940    3.5530 O   0  0  0  0  0  0  0  0  0  0  0  0
    5.3610   18.9820    4.2880 C   0  0  0  0  0  0  0  0  0  0  0  0
    6.6270   18.2750    3.9160 C   0  0  0  0  0  0  0  0  0  0  0  0
    5.0670   19.0990    5.7510 C   0  0  0  0  0  0  0  0  0  0  0  0
    1.8110   17.0190   -0.1850 C   0  0  1  0  0  0  0  0  0  0  0  0
    0.3820   17.5410   -0.4900 C   0  0  0  0  0  0  0  0  0  0  0  0
   -0.3420   16.4230   -1.2850 C   0  0  0  0  0  0  0  0  0  0  0  0
    0.5650   15.1810   -1.1240 C   0  0  1  0  0  0  0  0  0  0  0  0
    0.2000   14.5960    0.2760 C   0  0  0  0  0  0  0  0  0  0  0  0
    0.4590   14.0990   -2.2480 C   0  0  2  0  0  0  0  0  0  0  0  0
   -0.9210   13.4320   -2.3840 C   0  0  0  0  0  0  0  0  0  0  0  0
   -1.1170   12.1980   -1.5660 C   0  0  0  0  0  0  0  0  0  0  0  0
   -0.1380   11.4870   -0.9770 C   0  0  0  0  0  0  0  0  0  0  0  0
    1.3370   11.8520   -1.1870 C   0  0  1  0  0  0  0  0  0  0  0  0
    2.1490   10.5680   -1.5030 C   0  0  0  0  0  0  0  0  0  0  0  0
    1.9610    9.4830   -0.4470 C   0  0  0  0  0  0  0  0  0  0  0  0
    0.4890    9.1060   -0.3090 C   0  0  2  0  0  0  0  0  0  0  0  0
    0.0590    8.4740   -1.5190 O   0  0  0  0  0  0  0  0  0  0  0  0
   -0.4290   10.3220    0.0000 C   0  0  0  0  0  0  0  0  0  0  0  0
   -0.1650   10.8200    1.4430 C   0  0  0  0  0  0  0  0  0  0  0  0
   -1.9010    9.8280   -0.0250 C   0  0  0  0  0  0  0  0  0  0  0  0
    1.6210   13.0240   -2.2240 C   0  0  1  0  0  0  0  0  0  0  0  0
    1.7210   12.4440   -3.6680 C   0  0  0  0  0  0  0  0  0  0  0  0
    3.0230   13.6650   -1.9040 C   0  0  0  0  0  0  0  0  0  0  0  0
    3.0450   14.8100   -0.8740 C   0  0  0  0  0  0  0  0  0  0  0  0
    1.9800   15.8620   -1.2010 C   0  0  2  0  0  0  0  0  0  0  0  0
    2.3340   16.4840   -2.5940 C   0  0  0  0  0  0  0  0  0  0  0  0
    4.8073   17.3095    0.2507 H   0  0  0  0  0  0  0  0  0  0  0  0
    4.0536   16.6515   -1.2412 H   0  0  0  0  0  0  0  0  0  0  0  0
    4.7480   18.3082   -1.2412 H   0  0  0  0  0  0  0  0  0  0  0  0
    2.5699   18.8945   -0.9398 H   0  0  0  0  0  0  0  0  0  0  0  0
    2.7983   19.8939    1.0321 H   0  0  0  0  0  0  0  0  0  0  0  0
    2.1341   18.3699    1.7933 H   0  0  0  0  0  0  0  0  0  0  0  0
    4.4466   17.4945    1.9537 H   0  0  0  0  0  0  0  0  0  0  0  0
    5.0471   19.0983    1.3581 H   0  0  0  0  0  0  0  0  0  0  0  0
    3.1399   18.8991    3.3883 H   0  0  0  0  0  0  0  0  0  0  0  0
    7.1621   17.9762    4.8294 H   0  0  0  0  0  0  0  0  0  0  0  0
    6.3867   17.3805    3.3226 H   0  0  0  0  0  0  0  0  0  0  0  0
    7.2625   18.9488    3.3226 H   0  0  0  0  0  0  0  0  0  0  0  0
    5.9368   18.7529    6.3286 H   0  0  0  0  0  0  0  0  0  0  0  0
    4.8562   20.1496    5.9998 H   0  0  0  0  0  0  0  0  0  0  0  0
    4.1920   18.4806    5.9998 H   0  0  0  0  0  0  0  0  0  0  0  0
    1.9593   16.6449    0.8387 H   0  0  0  0  0  0  0  0  0  0  0  0
   -0.1544   17.7470    0.4480 H   0  0  0  0  0  0  0  0  0  0  0  0
    0.4179   18.4766   -1.0674 H   0  0  0  0  0  0  0  0  0  0  0  0
   -1.3405   16.2319   -0.8649 H   0  0  0  0  0  0  0  0  0  0  0  0
   -0.4958   16.6936   -2.3400 H   0  0  0  0  0  0  0  0  0  0  0  0
    0.6067   15.2479    1.0632 H   0  0  0  0  0  0  0  0  0  0  0  0
   -0.8940   14.5393    0.3758 H   0  0  0  0  0  0  0  0  0  0  0  0
    0.6300   13.5885    0.3758 H   0  0  0  0  0  0  0  0  0  0  0  0
    0.5937   14.6949   -3.1627 H   0  0  0  0  0  0  0  0  0  0  0  0
   -1.6838   14.1647   -2.0818 H   0  0  0  0  0  0  0  0  0  0  0  0
   -1.0042   13.1168   -3.4346 H   0  0  0  0  0  0  0  0  0  0  0  0
   -2.1487   11.8401   -1.4338 H   0  0  0  0  0  0  0  0  0  0  0  0
    1.6805   12.2864   -0.2366 H   0  0  0  0  0  0  0  0  0  0  0  0
    1.8210   10.1737   -2.4761 H   0  0  0  0  0  0  0  0  0  0  0  0
    3.2145   10.8411   -1.5156 H   0  0  0  0  0  0  0  0  0  0  0  0
    2.5350    8.5917   -0.7404 H   0  0  0  0  0  0  0  0  0  0  0  0
    2.3170    9.8684    0.5198 H   0  0  0  0  0  0  0  0  0  0  0  0
    0.4031    8.4223    0.5485 H   0  0  0  0  0  0  0  0  0  0  0  0
    0.5820    8.8480   -2.2480 H   0  0  0  0  0  0  0  0  0  0  0  0
   -0.5550   10.0844    2.1619 H   0  0  0  0  0  0  0  0  0  0  0  0
    0.9173   10.9439    1.5959 H   0  0  0  0  0  0  0  0  0  0  0  0
   -0.6698   11.7853    1.5959 H   0  0  0  0  0  0  0  0  0  0  0  0
   -2.2644    9.7060    1.0061 H   0  0  0  0  0  0  0  0  0  0  0  0
   -2.5264   10.5655   -0.5494 H   0  0  0  0  0  0  0  0  0  0  0  0
   -1.9549    8.8625   -0.5494 H   0  0  0  0  0  0  0  0  0  0  0  0
    1.9077   11.3612   -3.6161 H   0  0  0  0  0  0  0  0  0  0  0  0
    0.7778   12.6282   -4.2033 H   0  0  0  0  0  0  0  0  0  0  0  0
    2.5480   12.9334   -4.2033 H   0  0  0  0  0  0  0  0  0  0  0  0
    3.6761   12.8648   -1.5258 H   0  0  0  0  0  0  0  0  0  0  0  0
    3.3527   14.1218   -2.8488 H   0  0  0  0  0  0  0  0  0  0  0  0
    2.8483   14.3977    0.1267 H   0  0  0  0  0  0  0  0  0  0  0  0
    4.0340   15.2906   -0.9047 H   0  0  0  0  0  0  0  0  0  0  0  0
    2.8732   17.4313   -2.4462 H   0  0  0  0  0  0  0  0  0  0  0  0
    2.9693   15.7845   -3.1571 H   0  0  0  0  0  0  0  0  0  0  0  0
    1.4082   16.6730   -3.1571 H   0  0  0  0  0  0  0  0  0  0  0  0
  1  2  1  0
  2  3  1  0
  3  4  1  0
  4  5  1  0
  5  6  1  0
  6  7  1  0
  7  8  1  0
  7  9  1  0
  2 10  1  0
 10 11  1  0
 11 12  1  0
 12 13  1  0
 13 14  1  1
 13 15  1  0
 15 16  1  0
 16 17  1  0
 17 18  2  0
 18 19  1  0
 19 20  1  0
 20 21  1  0
 21 22  1  0
 22 23  1  0
 22 24  1  0
 24 25  1  0
 24 26  1  0
 19 27  1  0
 27 28  1  6
 27 29  1  0
 29 30  1  0
 30 31  1  0
 31 32  1  6
  7  5  1  0
 31 10  1  0
 31 13  1  0
 27 15  1  0
 24 18  1  0
  1 33  1  0
  1 34  1  0
  1 35  1  0
  2 36  1  6
  3 37  1  0
  3 38  1  0
  4 39  1  0
  4 40  1  0
  5 41  1  1
  8 42  1  0
  8 43  1  0
  8 44  1  0
  9 45  1  0
  9 46  1  0
  9 47  1  0
 10 48  1  1
 11 49  1  0
 11 50  1  0
 12 51  1  0
 12 52  1  0
 14 53  1  0
 14 54  1  0
 14 55  1  0
 15 56  1  6
 16 57  1  0
 16 58  1  0
 17 59  1  0
 19 60  1  1
 20 61  1  0
 20 62  1  0
 21 63  1  0
 21 64  1  0
 22 65  1  1
 23 66  1  0
 25 67  1  0
 25 68  1  0
 25 69  1  0
 26 70  1  0
 26 71  1  0
 26 72  1  0
 28 73  1  0
 28 74  1  0
 28 75  1  0
 29 76  1  0
 29 77  1  0
 30 78  1  0
 30 79  1  0
 32 80  1  0
 32 81  1  0
 32 82  1  0
M  END
>  <meeko>  (2) 
{"is_sidechain": [false], "intermolecular_energy": 2.731, "internal_energy": -0.839}

$$$$
EPH_relaxed_0001_pdb2pqr_Repair_22_r2_0001_out
     RDKit          3D

 82 86  0  0  0  0  0  0  0  0999 V2000
    2.3790   17.9430   -2.7000 C   0  0  0  0  0  0  0  0  0  0  0  0
    1.0650   17.5790   -2.0040 C   0  0  2  0  0  0  0  0  0  0  0  0
    1.1830   17.6450   -0.4680 C   0  0  0  0  0  0  0  0  0  0  0  0
    0.8810   19.0290    0.1130 C   0  0  0  0  0  0  0  0  0  0  0  0
   -0.5560   19.1570    0.5200 C   0  0  2  0  0  0  0  0  0  0  0  0
   -1.4470   18.2420   -0.1310 O   0  0  0  0  0  0  0  0  0  0  0  0
   -1.6510   19.6350   -0.4160 C   0  0  0  0  0  0  0  0  0  0  0  0
   -1.3550   20.0170   -1.8320 C   0  0  0  0  0  0  0  0  0  0  0  0
   -2.9060   20.1940    0.1780 C   0  0  0  0  0  0  0  0  0  0  0  0
    0.6190   16.1850   -2.4330 C   0  0  1  0  0  0  0  0  0  0  0  0
    0.7200   15.9710   -3.9660 C   0  0  0  0  0  0  0  0  0  0  0  0
    1.1220   14.4900   -4.1850 C   0  0  0  0  0  0  0  0  0  0  0  0
    0.9160   13.8220   -2.8060 C   0  0  1  0  0  0  0  0  0  0  0  0
   -0.6150   13.5260   -2.7280 C   0  0  0  0  0  0  0  0  0  0  0  0
    1.7660   12.5400   -2.5250 C   0  0  2  0  0  0  0  0  0  0  0  0
    1.4880   11.3530   -3.4640 C   0  0  0  0  0  0  0  0  0  0  0  0
    0.4270   10.4100   -3.0020 C   0  0  0  0  0  0  0  0  0  0  0  0
   -0.0740   10.3470   -1.7550 C   0  0  0  0  0  0  0  0  0  0  0  0
    0.4980   11.2190   -0.6300 C   0  0  1  0  0  0  0  0  0  0  0  0
    0.7220   10.3510    0.6360 C   0  0  0  0  0  0  0  0  0  0  0  0
   -0.5370    9.6030    1.0620 C   0  0  0  0  0  0  0  0  0  0  0  0
   -1.0430    8.7020   -0.0620 C   0  0  2  0  0  0  0  0  0  0  0  0
   -0.0900    7.6570   -0.2790 O   0  0  0  0  0  0  0  0  0  0  0  0
   -1.2950    9.4650   -1.3920 C   0  0  0  0  0  0  0  0  0  0  0  0
   -2.5310   10.3860   -1.2380 C   0  0  0  0  0  0  0  0  0  0  0  0
   -1.6650    8.4200   -2.4790 C   0  0  0  0  0  0  0  0  0  0  0  0
    1.7750   12.0880   -1.0080 C   0  0  1  0  0  0  0  0  0  0  0  0
    3.0710   11.2460   -0.8020 C   0  0  0  0  0  0  0  0  0  0  0  0
    1.8770   13.3090   -0.0200 C   0  0  0  0  0  0  0  0  0  0  0  0
    1.1110   14.5870   -0.4130 C   0  0  0  0  0  0  0  0  0  0  0  0
    1.4080   14.9800   -1.8630 C   0  0  2  0  0  0  0  0  0  0  0  0
    2.9370   15.3050   -1.9670 C   0  0  0  0  0  0  0  0  0  0  0  0
    3.1481   18.1561   -1.9430 H   0  0  0  0  0  0  0  0  0  0  0  0
    2.7063   17.1017   -3.3286 H   0  0  0  0  0  0  0  0  0  0  0  0
    2.2268   18.8328   -3.3286 H   0  0  0  0  0  0  0  0  0  0  0  0
    0.3124   18.3210   -2.3089 H   0  0  0  0  0  0  0  0  0  0  0  0
    0.4748   16.9239   -0.0339 H   0  0  0  0  0  0  0  0  0  0  0  0
    2.2277   17.4109   -0.2152 H   0  0  0  0  0  0  0  0  0  0  0  0
    1.5174   19.1920    0.9953 H   0  0  0  0  0  0  0  0  0  0  0  0
    1.0858   19.7798   -0.6644 H   0  0  0  0  0  0  0  0  0  0  0  0
   -0.2654   19.4660    1.5349 H   0  0  0  0  0  0  0  0  0  0  0  0
   -0.6813   20.8865   -1.8440 H   0  0  0  0  0  0  0  0  0  0  0  0
   -0.8731   19.1726   -2.3465 H   0  0  0  0  0  0  0  0  0  0  0  0
   -2.2930   20.2728   -2.3465 H   0  0  0  0  0  0  0  0  0  0  0  0
   -2.8375   20.1635    1.2754 H   0  0  0  0  0  0  0  0  0  0  0  0
   -3.0360   21.2351   -0.1525 H   0  0  0  0  0  0  0  0  0  0  0  0
   -3.7669   19.5942   -0.1525 H   0  0  0  0  0  0  0  0  0  0  0  0
   -0.4054   16.1872   -2.0323 H   0  0  0  0  0  0  0  0  0  0  0  0
   -0.2508   16.1744   -4.4417 H   0  0  0  0  0  0  0  0  0  0  0  0
    1.4604   16.6514   -4.4120 H   0  0  0  0  0  0  0  0  0  0  0  0
    0.4783   14.0210   -4.9437 H   0  0  0  0  0  0  0  0  0  0  0  0
    2.1553   14.3875   -4.5480 H   0  0  0  0  0  0  0  0  0  0  0  0
   -0.9237   13.4663   -1.6739 H   0  0  0  0  0  0  0  0  0  0  0  0
   -1.1705   14.3334   -3.2276 H   0  0  0  0  0  0  0  0  0  0  0  0
   -0.8295   12.5698   -3.2276 H   0  0  0  0  0  0  0  0  0  0  0  0
    2.7857   12.8764   -2.7640 H   0  0  0  0  0  0  0  0  0  0  0  0
    1.1825   11.7564   -4.4407 H   0  0  0  0  0  0  0  0  0  0  0  0
    2.4195   10.7691   -3.5007 H   0  0  0  0  0  0  0  0  0  0  0  0
    0.0204    9.7071   -3.7440 H   0  0  0  0  0  0  0  0  0  0  0  0
   -0.2616   11.9878   -0.4251 H   0  0  0  0  0  0  0  0  0  0  0  0
    1.5138    9.6172    0.4249 H   0  0  0  0  0  0  0  0  0  0  0  0
    1.0041   11.0255    1.4579 H   0  0  0  0  0  0  0  0  0  0  0  0
   -0.3081    8.9854    1.9430 H   0  0  0  0  0  0  0  0  0  0  0  0
   -1.3188   10.3390    1.3009 H   0  0  0  0  0  0  0  0  0  0  0  0
   -2.0145    8.2940    0.2537 H   0  0  0  0  0  0  0  0  0  0  0  0
    0.5880    7.9990   -0.8870 H   0  0  0  0  0  0  0  0  0  0  0  0
   -2.7409   10.5424   -0.1696 H   0  0  0  0  0  0  0  0  0  0  0  0
   -2.3283   11.3550   -1.7175 H   0  0  0  0  0  0  0  0  0  0  0  0
   -3.4015    9.9146   -1.7175 H   0  0  0  0  0  0  0  0  0  0  0  0
   -1.9947    7.4888   -1.9952 H   0  0  0  0  0  0  0  0  0  0  0  0
   -2.4779    8.8152   -3.1060 H   0  0  0  0  0  0  0  0  0  0  0  0
   -0.7846    8.2157   -3.1060 H   0  0  0  0  0  0  0  0  0  0  0  0
    3.2609   11.1226    0.2744 H   0  0  0  0  0  0  0  0  0  0  0  0
    2.9439   10.2575   -1.2676 H   0  0  0  0  0  0  0  0  0  0  0  0
    3.9225   11.7638   -1.2676 H   0  0  0  0  0  0  0  0  0  0  0  0
    1.4946   12.9791    0.9572 H   0  0  0  0  0  0  0  0  0  0  0  0
    2.9387   13.5965   -0.0266 H   0  0  0  0  0  0  0  0  0  0  0  0
    0.0313   14.4077   -0.3027 H   0  0  0  0  0  0  0  0  0  0  0  0
    1.4345   15.4064    0.2458 H   0  0  0  0  0  0  0  0  0  0  0  0
    3.3622   15.3954   -0.9565 H   0  0  0  0  0  0  0  0  0  0  0  0
    3.4479   14.4954   -2.5087 H   0  0  0  0  0  0  0  0  0  0  0  0
    3.0745   16.2524   -2.5087 H   0  0  0  0  0  0  0  0  0  0  0  0
  1  2  1  0
  2  3  1  0
  3  4  1  0
  4  5  1  0
  5  6  1  0
  6  7  1  0
  7  8  1  0
  7  9  1  0
  2 10  1  0
 10 11  1  0
 11 12  1  0
 12 13  1  0
 13 14  1  1
 13 15  1  0
 15 16  1  0
 16 17  1  0
 17 18  2  0
 18 19  1  0
 19 20  1  0
 20 21  1  0
 21 22  1  0
 22 23  1  0
 22 24  1  0
 24 25  1  0
 24 26  1  0
 19 27  1  0
 27 28  1  6
 27 29  1  0
 29 30  1  0
 30 31  1  0
 31 32  1  1
  7  5  1  0
 31 10  1  0
 31 13  1  0
 27 15  1  0
 24 18  1  0
  1 33  1  0
  1 34  1  0
  1 35  1  0
  2 36  1  6
  3 37  1  0
  3 38  1  0
  4 39  1  0
  4 40  1  0
  5 41  1  1
  8 42  1  0
  8 43  1  0
  8 44  1  0
  9 45  1  0
  9 46  1  0
  9 47  1  0
 10 48  1  1
 11 49  1  0
 11 50  1  0
 12 51  1  0
 12 52  1  0
 14 53  1  0
 14 54  1  0
 14 55  1  0
 15 56  1  6
 16 57  1  0
 16 58  1  0
 17 59  1  0
 19 60  1  1
 20 61  1  0
 20 62  1  0
 21 63  1  0
 21 64  1  0
 22 65  1  1
 23 66  1  0
 25 67  1  0
 25 68  1  0
 25 69  1  0
 26 70  1  0
 26 71  1  0
 26 72  1  0
 28 73  1  0
 28 74  1  0
 28 75  1  0
 29 76  1  0
 29 77  1  0
 30 78  1  0
 30 79  1  0
 32 80  1  0
 32 81  1  0
 32 82  1  0
M  END
>  <meeko>  (3) 
{"is_sidechain": [false], "intermolecular_energy": 2.731, "internal_energy": -0.839}

$$$$
EPH_relaxed_0001_pdb2pqr_Repair_22_r2_0001_out
     RDKit          3D

 82 86  0  0  0  0  0  0  0  0999 V2000
    0.4140   18.4330   -0.0460 C   0  0  0  0  0  0  0  0  0  0  0  0
    1.4990   17.3720   -0.2500 C   0  0  2  0  0  0  0  0  0  0  0  0
    2.7210   17.9290   -1.0070 C   0  0  0  0  0  0  0  0  0  0  0  0
    3.9530   18.1350   -0.1210 C   0  0  0  0  0  0  0  0  0  0  0  0
    3.5760   18.6090    1.2500 C   0  0  2  0  0  0  0  0  0  0  0  0
    3.8080   20.0040    1.4860 O   0  0  0  0  0  0  0  0  0  0  0  0
    4.5860   19.0900    2.2760 C   0  0  0  0  0  0  0  0  0  0  0  0
    6.0510   19.1190    1.9740 C   0  0  0  0  0  0  0  0  0  0  0  0
    4.2030   19.0660    3.7230 C   0  0  0  0  0  0  0  0  0  0  0  0
    0.9230   16.1760   -0.9980 C   0  0  1  0  0  0  0  0  0  0  0  0
    0.7810   16.4370   -2.5220 C   0  0  0  0  0  0  0  0  0  0  0  0
    1.0690   15.0910   -3.2350 C   0  0  0  0  0  0  0  0  0  0  0  0
    1.0390   14.0360   -2.1040 C   0  0  1  0  0  0  0  0  0  0  0  0
   -0.4760   13.7360   -1.8760 C   0  0  0  0  0  0  0  0  0  0  0  0
    1.8550   12.7270   -2.3580 C   0  0  2  0  0  0  0  0  0  0  0  0
    1.3780   11.8820   -3.5530 C   0  0  0  0  0  0  0  0  0  0  0  0
    0.3520   10.8460   -3.2320 C   0  0  0  0  0  0  0  0  0  0  0  0
    0.0410   10.4090   -1.9970 C   0  0  0  0  0  0  0  0  0  0  0  0
    0.8210   10.8970   -0.7700 C   0  0  1  0  0  0  0  0  0  0  0  0
    1.1880    9.6850    0.1270 C   0  0  0  0  0  0  0  0  0  0  0  0
   -0.0300    8.8470    0.5040 C   0  0  0  0  0  0  0  0  0  0  0  0
   -0.7440    8.3310   -0.7430 C   0  0  2  0  0  0  0  0  0  0  0  0
    0.1100    7.3990   -1.4120 O   0  0  0  0  0  0  0  0  0  0  0  0
   -1.1540    9.4630   -1.7260 C   0  0  0  0  0  0  0  0  0  0  0  0
   -2.3040   10.2970   -1.1090 C   0  0  0  0  0  0  0  0  0  0  0  0
   -1.7370    8.7980   -3.0030 C   0  0  0  0  0  0  0  0  0  0  0  0
    2.0680   11.8350   -1.0680 C   0  0  1  0  0  0  0  0  0  0  0  0
    3.3360   10.9670   -1.3320 C   0  0  0  0  0  0  0  0  0  0  0  0
    2.3800   12.6990    0.2110 C   0  0  0  0  0  0  0  0  0  0  0  0
    1.6300   14.0380    0.3450 C   0  0  0  0  0  0  0  0  0  0  0  0
    1.7260   14.8520   -0.9490 C   0  0  2  0  0  0  0  0  0  0  0  0
    3.2360   15.1880   -1.1930 C   0  0  0  0  0  0  0  0  0  0  0  0
    0.2530   18.5905    1.0307 H   0  0  0  0  0  0  0  0  0  0  0  0
    0.7327   19.3775   -0.5111 H   0  0  0  0  0  0  0  0  0  0  0  0
   -0.5232   18.0932   -0.5111 H   0  0  0  0  0  0  0  0  0  0  0  0
    1.8438   17.0561    0.7456 H   0  0  0  0  0  0  0  0  0  0  0  0
    2.9840   17.2233   -1.8088 H   0  0  0  0  0  0  0  0  0  0  0  0
    2.4353   18.9179   -1.3950 H   0  0  0  0  0  0  0  0  0  0  0  0
    4.4923   17.1804   -0.0325 H   0  0  0  0  0  0  0  0  0  0  0  0
    4.5867   18.9035   -0.5877 H   0  0  0  0  0  0  0  0  0  0  0  0
    2.7605   17.8729    1.3061 H   0  0  0  0  0  0  0  0  0  0  0  0
    6.6194   19.1302    2.9157 H   0  0  0  0  0  0  0  0  0  0  0  0
    6.3232   18.2261    1.3921 H   0  0  0  0  0  0  0  0  0  0  0  0
    6.2876   20.0220    1.3921 H   0  0  0  0  0  0  0  0  0  0  0  0
    5.1097   19.1228    4.3433 H   0  0  0  0  0  0  0  0  0  0  0  0
    3.5528   19.9252    3.9445 H   0  0  0  0  0  0  0  0  0  0  0  0
    3.6651   18.1324    3.9445 H   0  0  0  0  0  0  0  0  0  0  0  0
   -0.0272   16.0598   -0.4561 H   0  0  0  0  0  0  0  0  0  0  0  0
   -0.2386   16.7783   -2.7545 H   0  0  0  0  0  0  0  0  0  0  0  0
    1.4799   17.2182   -2.8557 H   0  0  0  0  0  0  0  0  0  0  0  0
    0.2952   14.8764   -3.9868 H   0  0  0  0  0  0  0  0  0  0  0  0
    2.0293   15.1002   -3.7715 H   0  0  0  0  0  0  0  0  0  0  0  0
   -0.6832   13.6950   -0.7965 H   0  0  0  0  0  0  0  0  0  0  0  0
   -1.0806   14.5319   -2.3354 H   0  0  0  0  0  0  0  0  0  0  0  0
   -0.7317   12.7698   -2.3354 H   0  0  0  0  0  0  0  0  0  0  0  0
    2.8432   13.1170   -2.6432 H   0  0  0  0  0  0  0  0  0  0  0  0
    0.9496   12.5640   -4.3022 H   0  0  0  0  0  0  0  0  0  0  0  0
    2.2623   11.3342   -3.9107 H   0  0  0  0  0  0  0  0  0  0  0  0
   -0.1963   10.4021   -4.0760 H   0  0  0  0  0  0  0  0  0  0  0  0
    0.1417   11.5709   -0.2274 H   0  0  0  0  0  0  0  0  0  0  0  0
    1.9006    9.0470   -0.4163 H   0  0  0  0  0  0  0  0  0  0  0  0
    1.6244   10.0777    1.0572 H   0  0  0  0  0  0  0  0  0  0  0  0
    0.2965    7.9906    1.1123 H   0  0  0  0  0  0  0  0  0  0  0  0
   -0.7285    9.4785    1.0727 H   0  0  0  0  0  0  0  0  0  0  0  0
   -1.6759    7.8486   -0.4132 H   0  0  0  0  0  0  0  0  0  0  0  0
    0.4690    6.7950   -0.7400 H   0  0  0  0  0  0  0  0  0  0  0  0
   -2.2418   10.2519   -0.0117 H   0  0  0  0  0  0  0  0  0  0  0  0
   -2.2162   11.3428   -1.4385 H   0  0  0  0  0  0  0  0  0  0  0  0
   -3.2708    9.8887   -1.4385 H   0  0  0  0  0  0  0  0  0  0  0  0
   -2.4367    7.9999   -2.7140 H   0  0  0  0  0  0  0  0  0  0  0  0
   -2.2689    9.5537   -3.5997 H   0  0  0  0  0  0  0  0  0  0  0  0
   -0.9182    8.3695   -3.5997 H   0  0  0  0  0  0  0  0  0  0  0  0
    3.7791   10.6637   -0.3720 H   0  0  0  0  0  0  0  0  0  0  0  0
    3.0544   10.0713   -1.9051 H   0  0  0  0  0  0  0  0  0  0  0  0
    4.0691   11.5536   -1.9051 H   0  0  0  0  0  0  0  0  0  0  0  0
    2.1328   12.0895    1.0927 H   0  0  0  0  0  0  0  0  0  0  0  0
    3.4419   12.9717    0.1219 H   0  0  0  0  0  0  0  0  0  0  0  0
    0.5713   13.8369    0.5659 H   0  0  0  0  0  0  0  0  0  0  0  0
    2.0898   14.6177    1.1590 H   0  0  0  0  0  0  0  0  0  0  0  0
    3.7473   15.3018   -0.2257 H   0  0  0  0  0  0  0  0  0  0  0  0
    3.7058   14.3724   -1.7623 H   0  0  0  0  0  0  0  0  0  0  0  0
    3.3156   16.1258   -1.7623 H   0  0  0  0  0  0  0  0  0  0  0  0
  1  2  1  0
  2  3  1  0
  3  4  1  0
  4  5  1  0
  5  6  1  0
  6  7  1  0
  7  8  1  0
  7  9  1  0
  2 10  1  0
 10 11  1  0
 11 12  1  0
 12 13  1  0
 13 14  1  1
 13 15  1  0
 15 16  1  0
 16 17  1  0
 17 18  2  0
 18 19  1  0
 19 20  1  0
 20 21  1  0
 21 22  1  0
 22 23  1  0
 22 24  1  0
 24 25  1  0
 24 26  1  0
 19 27  1  0
 27 28  1  6
 27 29  1  0
 29 30  1  0
 30 31  1  0
 31 32  1  6
  7  5  1  0
 31 10  1  0
 31 13  1  0
 27 15  1  0
 24 18  1  0
  1 33  1  0
  1 34  1  0
  1 35  1  0
  2 36  1  1
  3 37  1  0
  3 38  1  0
  4 39  1  0
  4 40  1  0
  5 41  1  1
  8 42  1  0
  8 43  1  0
  8 44  1  0
  9 45  1  0
  9 46  1  0
  9 47  1  0
 10 48  1  1
 11 49  1  0
 11 50  1  0
 12 51  1  0
 12 52  1  0
 14 53  1  0
 14 54  1  0
 14 55  1  0
 15 56  1  6
 16 57  1  0
 16 58  1  0
 17 59  1  0
 19 60  1  1
 20 61  1  0
 20 62  1  0
 21 63  1  0
 21 64  1  0
 22 65  1  1
 23 66  1  0
 25 67  1  0
 25 68  1  0
 25 69  1  0
 26 70  1  0
 26 71  1  0
 26 72  1  0
 28 73  1  0
 28 74  1  0
 28 75  1  0
 29 76  1  0
 29 77  1  0
 30 78  1  0
 30 79  1  0
 32 80  1  0
 32 81  1  0
 32 82  1  0
M  END
>  <meeko>  (4) 
{"is_sidechain": [false], "intermolecular_energy": 2.731, "internal_energy": -0.839}

$$$$
EPH_relaxed_0001_pdb2pqr_Repair_22_r2_0001_out
     RDKit          3D

 82 86  0  0  0  0  0  0  0  0999 V2000
   -3.4160    9.3230    0.5300 C   0  0  0  0  0  0  0  0  0  0  0  0
   -2.5800    9.6760   -0.7040 C   0  0  2  0  0  0  0  0  0  0  0  0
   -1.9140    8.4330   -1.3280 C   0  0  0  0  0  0  0  0  0  0  0  0
   -2.8350    7.6450   -2.2620 C   0  0  0  0  0  0  0  0  0  0  0  0
   -4.2690    7.7410   -1.8380 C   0  0  2  0  0  0  0  0  0  0  0  0
   -4.8220    6.5250   -1.3160 O   0  0  0  0  0  0  0  0  0  0  0  0
   -5.4000    7.0100   -2.5380 C   0  0  0  0  0  0  0  0  0  0  0  0
   -5.1450    6.1310   -3.7230 C   0  0  0  0  0  0  0  0  0  0  0  0
   -6.7940    7.5310   -2.3810 C   0  0  0  0  0  0  0  0  0  0  0  0
   -1.5190   10.7060   -0.3360 C   0  0  1  0  0  0  0  0  0  0  0  0
   -0.4190   10.1250    0.5930 C   0  0  0  0  0  0  0  0  0  0  0  0
    0.9110   10.8170    0.1970 C   0  0  0  0  0  0  0  0  0  0  0  0
    0.4830   11.9990   -0.7040 C   0  0  1  0  0  0  0  0  0  0  0  0
    0.0480   13.1230    0.2880 C   0  0  0  0  0  0  0  0  0  0  0  0
    1.5510   12.5120   -1.7250 C   0  0  2  0  0  0  0  0  0  0  0  0
    2.8350   13.0800   -1.0950 C   0  0  0  0  0  0  0  0  0  0  0  0
    2.8120   14.5450   -0.8120 C   0  0  0  0  0  0  0  0  0  0  0  0
    1.9210   15.4240   -1.3070 C   0  0  0  0  0  0  0  0  0  0  0  0
    0.8630   14.9820   -2.3270 C   0  0  1  0  0  0  0  0  0  0  0  0
    0.8110   16.0030   -3.4940 C   0  0  0  0  0  0  0  0  0  0  0  0
    0.5940   17.4340   -3.0100 C   0  0  0  0  0  0  0  0  0  0  0  0
    1.6970   17.8560   -2.0440 C   0  0  2  0  0  0  0  0  0  0  0  0
    2.9340   17.9280   -2.7600 O   0  0  0  0  0  0  0  0  0  0  0  0
    1.8500   16.8960   -0.8310 C   0  0  0  0  0  0  0  0  0  0  0  0
    0.6280   17.0440    0.1080 C   0  0  0  0  0  0  0  0  0  0  0  0
    3.0860   17.3550   -0.0120 C   0  0  0  0  0  0  0  0  0  0  0  0
    0.9740   13.4800   -2.8350 C   0  0  1  0  0  0  0  0  0  0  0  0
    1.9510   13.3990   -4.0480 C   0  0  0  0  0  0  0  0  0  0  0  0
   -0.4330   13.0120   -3.3650 C   0  0  0  0  0  0  0  0  0  0  0  0
   -1.3980   12.4040   -2.3300 C   0  0  0  0  0  0  0  0  0  0  0  0
   -0.6990   11.3280   -1.4940 C   0  0  2  0  0  0  0  0  0  0  0  0
   -0.2690   10.1730   -2.4620 C   0  0  0  0  0  0  0  0  0  0  0  0
   -2.8464    9.5635    1.4398 H   0  0  0  0  0  0  0  0  0  0  0  0
   -4.3503    9.9034    0.5182 H   0  0  0  0  0  0  0  0  0  0  0  0
   -3.6516    8.2486    0.5182 H   0  0  0  0  0  0  0  0  0  0  0  0
   -3.2621   10.0984   -1.4565 H   0  0  0  0  0  0  0  0  0  0  0  0
   -1.0354    8.7614   -1.9026 H   0  0  0  0  0  0  0  0  0  0  0  0
   -1.6464    7.7615   -0.4989 H   0  0  0  0  0  0  0  0  0  0  0  0
   -2.7371    8.0468   -3.2813 H   0  0  0  0  0  0  0  0  0  0  0  0
   -2.5368    6.5869   -2.2247 H   0  0  0  0  0  0  0  0  0  0  0  0
   -4.1376    8.7946   -1.5505 H   0  0  0  0  0  0  0  0  0  0  0  0
   -4.8539    5.1275   -3.3793 H   0  0  0  0  0  0  0  0  0  0  0  0
   -6.0595    6.0596   -4.3302 H   0  0  0  0  0  0  0  0  0  0  0  0
   -4.3343    6.5601   -4.3302 H   0  0  0  0  0  0  0  0  0  0  0  0
   -7.0336    7.6206   -1.3112 H   0  0  0  0  0  0  0  0  0  0  0  0
   -6.8721    8.5190   -2.8582 H   0  0  0  0  0  0  0  0  0  0  0  0
   -7.5010    6.8364   -2.8582 H   0  0  0  0  0  0  0  0  0  0  0  0
   -2.1589   11.4725    0.1256 H   0  0  0  0  0  0  0  0  0  0  0  0
   -0.6592   10.3394    1.6448 H   0  0  0  0  0  0  0  0  0  0  0  0
   -0.3446    9.0331    0.4828 H   0  0  0  0  0  0  0  0  0  0  0  0
    1.4401   11.1812    1.0900 H   0  0  0  0  0  0  0  0  0  0  0  0
    1.6016   10.1310   -0.3152 H   0  0  0  0  0  0  0  0  0  0  0  0
    0.1837   12.7724    1.3218 H   0  0  0  0  0  0  0  0  0  0  0  0
    0.6645   14.0185    0.1206 H   0  0  0  0  0  0  0  0  0  0  0  0
   -1.0107   13.3702    0.1206 H   0  0  0  0  0  0  0  0  0  0  0  0
    1.8534   11.5860   -2.2361 H   0  0  0  0  0  0  0  0  0  0  0  0
    3.0095   12.5531   -0.1453 H   0  0  0  0  0  0  0  0  0  0  0  0
    3.6321   12.9259   -1.8372 H   0  0  0  0  0  0  0  0  0  0  0  0
    3.5895   14.9402   -0.1417 H   0  0  0  0  0  0  0  0  0  0  0  0
   -0.0963   14.9805   -1.7888 H   0  0  0  0  0  0  0  0  0  0  0  0
    1.7619   15.9575   -4.0451 H   0  0  0  0  0  0  0  0  0  0  0  0
   -0.0415   15.7343   -4.1351 H   0  0  0  0  0  0  0  0  0  0  0  0
    0.5959   18.1114   -3.8767 H   0  0  0  0  0  0  0  0  0  0  0  0
   -0.3711   17.4844   -2.4846 H   0  0  0  0  0  0  0  0  0  0  0  0
    1.4180   18.8375   -1.6332 H   0  0  0  0  0  0  0  0  0  0  0  0
    2.7300   18.1900   -3.6740 H   0  0  0  0  0  0  0  0  0  0  0  0
    0.9630   17.0034    1.1549 H   0  0  0  0  0  0  0  0  0  0  0  0
    0.1344   18.0085   -0.0819 H   0  0  0  0  0  0  0  0  0  0  0  0
   -0.0816   16.2252   -0.0819 H   0  0  0  0  0  0  0  0  0  0  0  0
    2.8650   17.2729    1.0624 H   0  0  0  0  0  0  0  0  0  0  0  0
    3.9472   16.7167   -0.2590 H   0  0  0  0  0  0  0  0  0  0  0  0
    3.3218   18.4006   -0.2590 H   0  0  0  0  0  0  0  0  0  0  0  0
    2.9845   13.3133   -3.6813 H   0  0  0  0  0  0  0  0  0  0  0  0
    1.7046   12.5182   -4.6591 H   0  0  0  0  0  0  0  0  0  0  0  0
    1.8530   14.3084   -4.6591 H   0  0  0  0  0  0  0  0  0  0  0  0
   -0.9295   13.8876   -3.8087 H   0  0  0  0  0  0  0  0  0  0  0  0
   -0.2178   12.1968   -4.0714 H   0  0  0  0  0  0  0  0  0  0  0  0
   -1.7582   13.2007   -1.6625 H   0  0  0  0  0  0  0  0  0  0  0  0
   -2.2395   11.9402   -2.8654 H   0  0  0  0  0  0  0  0  0  0  0  0
    0.0551    9.3024   -1.8729 H   0  0  0  0  0  0  0  0  0  0  0  0
   -1.1218    9.8896   -3.0963 H   0  0  0  0  0  0  0  0  0  0  0  0
    0.5616   10.5163   -3.0963 H   0  0  0  0  0  0  0  0  0  0  0  0
  1  2  1  0
  2  3  1  0
  3  4  1  0
  4  5  1  0
  5  6  1  0
  6  7  1  0
  7  8  1  0
  7  9  1  0
  2 10  1  0
 10 11  1  0
 11 12  1  0
 12 13  1  0
 13 14  1  1
 13 15  1  0
 15 16  1  0
 16 17  1  0
 17 18  2  0
 18 19  1  0
 19 20  1  0
 20 21  1  0
 21 22  1  0
 22 23  1  0
 22 24  1  0
 24 25  1  0
 24 26  1  0
 19 27  1  0
 27 28  1  6
 27 29  1  0
 29 30  1  0
 30 31  1  0
 31 32  1  6
  7  5  1  0
 31 10  1  0
 31 13  1  0
 27 15  1  0
 24 18  1  0
  1 33  1  0
  1 34  1  0
  1 35  1  0
  2 36  1  6
  3 37  1  0
  3 38  1  0
  4 39  1  0
  4 40  1  0
  5 41  1  1
  8 42  1  0
  8 43  1  0
  8 44  1  0
  9 45  1  0
  9 46  1  0
  9 47  1  0
 10 48  1  1
 11 49  1  0
 11 50  1  0
 12 51  1  0
 12 52  1  0
 14 53  1  0
 14 54  1  0
 14 55  1  0
 15 56  1  6
 16 57  1  0
 16 58  1  0
 17 59  1  0
 19 60  1  1
 20 61  1  0
 20 62  1  0
 21 63  1  0
 21 64  1  0
 22 65  1  1
 23 66  1  0
 25 67  1  0
 25 68  1  0
 25 69  1  0
 26 70  1  0
 26 71  1  0
 26 72  1  0
 28 73  1  0
 28 74  1  0
 28 75  1  0
 29 76  1  0
 29 77  1  0
 30 78  1  0
 30 79  1  0
 32 80  1  0
 32 81  1  0
 32 82  1  0
M  END
>  <meeko>  (5) 
{"is_sidechain": [false], "intermolecular_energy": 2.731, "internal_energy": -0.839}

$$$$
EPH_relaxed_0001_pdb2pqr_Repair_22_r2_0001_out
     RDKit          3D

 82 86  0  0  0  0  0  0  0  0999 V2000
   -4.5110    6.1280   -2.6460 C   0  0  0  0  0  0  0  0  0  0  0  0
   -5.0820    7.4920   -2.2490 C   0  0  2  0  0  0  0  0  0  0  0  0
   -4.8970    7.7840   -0.7460 C   0  0  0  0  0  0  0  0  0  0  0  0
   -3.9210    8.9280   -0.4570 C   0  0  0  0  0  0  0  0  0  0  0  0
   -2.5360    8.6080   -0.9310 C   0  0  2  0  0  0  0  0  0  0  0  0
   -1.4930    8.9510   -0.0080 O   0  0  0  0  0  0  0  0  0  0  0  0
   -1.4970    9.6660   -1.2540 C   0  0  0  0  0  0  0  0  0  0  0  0
   -1.8010   11.1250   -1.1180 C   0  0  0  0  0  0  0  0  0  0  0  0
   -0.3640    9.3030   -2.1620 C   0  0  0  0  0  0  0  0  0  0  0  0
   -6.5590    7.5640   -2.6150 C   0  0  1  0  0  0  0  0  0  0  0  0
   -6.8990    6.7480   -3.8910 C   0  0  0  0  0  0  0  0  0  0  0  0
   -8.3180    6.1600   -3.6820 C   0  0  0  0  0  0  0  0  0  0  0  0
   -8.8770    6.9180   -2.4550 C   0  0  1  0  0  0  0  0  0  0  0  0
   -9.3890    8.2780   -3.0240 C   0  0  0  0  0  0  0  0  0  0  0  0
   -9.9860    6.1810   -1.6350 C   0  0  2  0  0  0  0  0  0  0  0  0
  -11.2830    5.8880   -2.4090 C   0  0  0  0  0  0  0  0  0  0  0  0
  -12.3270    6.9520   -2.3310 C   0  0  0  0  0  0  0  0  0  0  0  0
  -12.3470    7.9640   -1.4440 C   0  0  0  0  0  0  0  0  0  0  0  0
  -11.2980    8.0550   -0.3280 C   0  0  1  0  0  0  0  0  0  0  0  0
  -12.0010    8.3630    1.0200 C   0  0  0  0  0  0  0  0  0  0  0  0
  -12.8850    9.6050    0.9480 C   0  0  0  0  0  0  0  0  0  0  0  0
  -13.9520    9.4520   -0.1330 C   0  0  2  0  0  0  0  0  0  0  0  0
  -14.8590    8.4170    0.2570 O   0  0  0  0  0  0  0  0  0  0  0  0
  -13.3630    9.1300   -1.5340 C   0  0  0  0  0  0  0  0  0  0  0  0
  -12.6260   10.3750   -2.0880 C   0  0  0  0  0  0  0  0  0  0  0  0
  -14.5480    8.8620   -2.5010 C   0  0  0  0  0  0  0  0  0  0  0  0
  -10.2890    6.8320   -0.2250 C   0  0  1  0  0  0  0  0  0  0  0  0
  -10.9060    5.7070    0.6620 C   0  0  0  0  0  0  0  0  0  0  0  0
   -8.9790    7.3070    0.5090 C   0  0  0  0  0  0  0  0  0  0  0  0
   -7.8720    7.9170   -0.3720 C   0  0  0  0  0  0  0  0  0  0  0  0
   -7.5760    7.0210   -1.5790 C   0  0  2  0  0  0  0  0  0  0  0  0
   -7.0380    5.6520   -1.0390 C   0  0  0  0  0  0  0  0  0  0  0  0
   -4.2704    5.5533   -1.7395 H   0  0  0  0  0  0  0  0  0  0  0  0
   -5.2547    5.5785   -3.2419 H   0  0  0  0  0  0  0  0  0  0  0  0
   -3.5977    6.2722   -3.2419 H   0  0  0  0  0  0  0  0  0  0  0  0
   -4.5234    8.2588   -2.8057 H   0  0  0  0  0  0  0  0  0  0  0  0
   -5.8765    8.0472   -0.3202 H   0  0  0  0  0  0  0  0  0  0  0  0
   -4.4723    6.8765   -0.2920 H   0  0  0  0  0  0  0  0  0  0  0  0
   -4.2728    9.8350   -0.9704 H   0  0  0  0  0  0  0  0  0  0  0  0
   -3.8841    9.0805    0.6318 H   0  0  0  0  0  0  0  0  0  0  0  0
   -2.9045    7.7389   -1.4956 H   0  0  0  0  0  0  0  0  0  0  0  0
   -1.8563   11.3902   -0.0519 H   0  0  0  0  0  0  0  0  0  0  0  0
   -1.0058   11.7118   -1.6011 H   0  0  0  0  0  0  0  0  0  0  0  0
   -2.7644   11.3454   -1.6011 H   0  0  0  0  0  0  0  0  0  0  0  0
    0.5128    9.0221   -1.5600 H   0  0  0  0  0  0  0  0  0  0  0  0
   -0.6601    8.4547   -2.7967 H   0  0  0  0  0  0  0  0  0  0  0  0
   -0.1120   10.1654   -2.7967 H   0  0  0  0  0  0  0  0  0  0  0  0
   -6.6704    8.6536   -2.7173 H   0  0  0  0  0  0  0  0  0  0  0  0
   -6.8871    7.4037   -4.7741 H   0  0  0  0  0  0  0  0  0  0  0  0
   -6.1613    5.9491   -4.0567 H   0  0  0  0  0  0  0  0  0  0  0  0
   -8.9462    6.3373   -4.5674 H   0  0  0  0  0  0  0  0  0  0  0  0
   -8.2999    5.0711   -3.5272 H   0  0  0  0  0  0  0  0  0  0  0  0
   -9.6425    8.9514   -2.1920 H   0  0  0  0  0  0  0  0  0  0  0  0
   -8.6021    8.7370   -3.6405 H   0  0  0  0  0  0  0  0  0  0  0  0
  -10.2832    8.1042   -3.6405 H   0  0  0  0  0  0  0  0  0  0  0  0
   -9.5254    5.2009   -1.4420 H   0  0  0  0  0  0  0  0  0  0  0  0
  -11.0218    5.7452   -3.4680 H   0  0  0  0  0  0  0  0  0  0  0  0
  -11.7225    4.9958   -1.9391 H   0  0  0  0  0  0  0  0  0  0  0  0
  -13.1494    6.9050   -3.0600 H   0  0  0  0  0  0  0  0  0  0  0  0
  -10.6344    8.8887   -0.6010 H   0  0  0  0  0  0  0  0  0  0  0  0
  -12.6257    7.5010    1.2971 H   0  0  0  0  0  0  0  0  0  0  0  0
  -11.2184    8.5529    1.7693 H   0  0  0  0  0  0  0  0  0  0  0  0
  -13.3765    9.7541    1.9207 H   0  0  0  0  0  0  0  0  0  0  0  0
  -12.2544   10.4714    0.6994 H   0  0  0  0  0  0  0  0  0  0  0  0
  -14.4687   10.4187   -0.2249 H   0  0  0  0  0  0  0  0  0  0  0  0
  -15.4500    8.7840    0.9370 H   0  0  0  0  0  0  0  0  0  0  0  0
  -12.2627   10.9888   -1.2506 H   0  0  0  0  0  0  0  0  0  0  0  0
  -11.7731   10.0526   -2.7034 H   0  0  0  0  0  0  0  0  0  0  0  0
  -13.3189   10.9676   -2.7034 H   0  0  0  0  0  0  0  0  0  0  0  0
  -15.4578    8.6562   -1.9179 H   0  0  0  0  0  0  0  0  0  0  0  0
  -14.7110    9.7460   -3.1351 H   0  0  0  0  0  0  0  0  0  0  0  0
  -14.3147    7.9939   -3.1351 H   0  0  0  0  0  0  0  0  0  0  0  0
  -10.7674    5.9596    1.7236 H   0  0  0  0  0  0  0  0  0  0  0  0
  -11.9803    5.6159    0.4440 H   0  0  0  0  0  0  0  0  0  0  0  0
  -10.4053    4.7521    0.4440 H   0  0  0  0  0  0  0  0  0  0  0  0
   -9.2695    8.0652    1.2511 H   0  0  0  0  0  0  0  0  0  0  0  0
   -8.5386    6.3925    0.9329 H   0  0  0  0  0  0  0  0  0  0  0  0
   -8.1993    8.9048   -0.7287 H   0  0  0  0  0  0  0  0  0  0  0  0
   -6.9557    8.0092    0.2296 H   0  0  0  0  0  0  0  0  0  0  0  0
   -7.0428    5.6643    0.0609 H   0  0  0  0  0  0  0  0  0  0  0  0
   -7.6827    4.8368   -1.3994 H   0  0  0  0  0  0  0  0  0  0  0  0
   -6.0108    5.4938   -1.3994 H   0  0  0  0  0  0  0  0  0  0  0  0
  1  2  1  0
  2  3  1  0
  3  4  1  0
  4  5  1  0
  5  6  1  0
  6  7  1  0
  7  8  1  0
  7  9  1  0
  2 10  1  0
 10 11  1  0
 11 12  1  0
 12 13  1  0
 13 14  1  6
 13 15  1  0
 15 16  1  0
 16 17  1  0
 17 18  2  0
 18 19  1  0
 19 20  1  0
 20 21  1  0
 21 22  1  0
 22 23  1  0
 22 24  1  0
 24 25  1  0
 24 26  1  0
 19 27  1  0
 27 28  1  1
 27 29  1  0
 29 30  1  0
 30 31  1  0
 31 32  1  1
  7  5  1  0
 31 10  1  0
 31 13  1  0
 27 15  1  0
 24 18  1  0
  1 33  1  0
  1 34  1  0
  1 35  1  0
  2 36  1  6
  3 37  1  0
  3 38  1  0
  4 39  1  0
  4 40  1  0
  5 41  1  6
  8 42  1  0
  8 43  1  0
  8 44  1  0
  9 45  1  0
  9 46  1  0
  9 47  1  0
 10 48  1  6
 11 49  1  0
 11 50  1  0
 12 51  1  0
 12 52  1  0
 14 53  1  0
 14 54  1  0
 14 55  1  0
 15 56  1  1
 16 57  1  0
 16 58  1  0
 17 59  1  0
 19 60  1  6
 20 61  1  0
 20 62  1  0
 21 63  1  0
 21 64  1  0
 22 65  1  6
 23 66  1  0
 25 67  1  0
 25 68  1  0
 25 69  1  0
 26 70  1  0
 26 71  1  0
 26 72  1  0
 28 73  1  0
 28 74  1  0
 28 75  1  0
 29 76  1  0
 29 77  1  0
 30 78  1  0
 30 79  1  0
 32 80  1  0
 32 81  1  0
 32 82  1  0
M  END
>  <meeko>  (6) 
{"is_sidechain": [false], "intermolecular_energy": 2.731, "internal_energy": -0.839}

$$$$
EPH_relaxed_0001_pdb2pqr_Repair_22_r2_0001_out
     RDKit          3D

 82 86  0  0  0  0  0  0  0  0999 V2000
    3.9300   17.5160    0.3810 C   0  0  0  0  0  0  0  0  0  0  0  0
    2.8310   17.9130   -0.6080 C   0  0  2  0  0  0  0  0  0  0  0  0
    2.2010   19.2770   -0.2600 C   0  0  0  0  0  0  0  0  0  0  0  0
    1.0910   19.1920    0.7910 C   0  0  0  0  0  0  0  0  0  0  0  0
   -0.1290   19.9560    0.3720 C   0  0  2  0  0  0  0  0  0  0  0  0
   -1.0770   20.1910    1.4200 O   0  0  0  0  0  0  0  0  0  0  0  0
   -1.5220   19.3550    0.3390 C   0  0  0  0  0  0  0  0  0  0  0  0
   -1.7670   17.9320    0.7320 C   0  0  0  0  0  0  0  0  0  0  0  0
   -2.5570   19.9950   -0.5320 C   0  0  0  0  0  0  0  0  0  0  0  0
    1.7530   16.8360   -0.6460 C   0  0  1  0  0  0  0  0  0  0  0  0
    0.4240   17.3430   -1.2670 C   0  0  0  0  0  0  0  0  0  0  0  0
   -0.1920   16.1500   -2.0420 C   0  0  0  0  0  0  0  0  0  0  0  0
    0.6190   14.9200   -1.5720 C   0  0  1  0  0  0  0  0  0  0  0  0
   -0.0140   14.5200   -0.2030 C   0  0  0  0  0  0  0  0  0  0  0  0
    0.6710   13.7090   -2.5590 C   0  0  2  0  0  0  0  0  0  0  0  0
   -0.6890   13.0570   -2.8650 C   0  0  0  0  0  0  0  0  0  0  0  0
   -1.0780   11.9380   -1.9560 C   0  0  0  0  0  0  0  0  0  0  0  0
   -0.2510   11.2870   -1.1180 C   0  0  0  0  0  0  0  0  0  0  0  0
    1.2520   11.5950   -1.0980 C   0  0  1  0  0  0  0  0  0  0  0  0
    2.0530   10.2670   -1.1050 C   0  0  0  0  0  0  0  0  0  0  0  0
    1.6350    9.3250    0.0200 C   0  0  0  0  0  0  0  0  0  0  0  0
    0.1470    8.9960   -0.0690 C   0  0  2  0  0  0  0  0  0  0  0  0
   -0.0850    8.2270   -1.2530 O   0  0  0  0  0  0  0  0  0  0  0  0
   -0.7600   10.2580   -0.0790 C   0  0  0  0  0  0  0  0  0  0  0  0
   -0.7370   10.9260    1.3180 C   0  0  0  0  0  0  0  0  0  0  0  0
   -2.2220    9.7930   -0.3140 C   0  0  0  0  0  0  0  0  0  0  0  0
    1.7640   12.6230   -2.1970 C   0  0  1  0  0  0  0  0  0  0  0  0
    2.0960   11.8660   -3.5190 C   0  0  0  0  0  0  0  0  0  0  0  0
    3.1120   13.2720   -1.7050 C   0  0  0  0  0  0  0  0  0  0  0  0
    2.9970   14.5350   -0.8320 C   0  0  0  0  0  0  0  0  0  0  0  0
    2.0520   15.5590   -1.4690 C   0  0  2  0  0  0  0  0  0  0  0  0
    2.6750   15.9960   -2.8390 C   0  0  0  0  0  0  0  0  0  0  0  0
    3.5631   17.6485    1.4095 H   0  0  0  0  0  0  0  0  0  0  0  0
    4.2032   16.4624    0.2221 H   0  0  0  0  0  0  0  0  0  0  0  0
    4.8134   18.1518    0.2221 H   0  0  0  0  0  0  0  0  0  0  0  0
    3.2970   18.0084   -1.5998 H   0  0  0  0  0  0  0  0  0  0  0  0
    2.9926   19.9374    0.1236 H   0  0  0  0  0  0  0  0  0  0  0  0
    1.7420   19.6636   -1.1818 H   0  0  0  0  0  0  0  0  0  0  0  0
    0.8180   18.1364    0.9366 H   0  0  0  0  0  0  0  0  0  0  0  0
    1.4684   19.6340    1.7249 H   0  0  0  0  0  0  0  0  0  0  0  0
    0.4503   20.5169   -0.3762 H   0  0  0  0  0  0  0  0  0  0  0  0
   -1.7808   17.8517    1.8290 H   0  0  0  0  0  0  0  0  0  0  0  0
   -2.7353   17.6015    0.3279 H   0  0  0  0  0  0  0  0  0  0  0  0
   -0.9650   17.2967    0.3279 H   0  0  0  0  0  0  0  0  0  0  0  0
   -3.3240   20.4693    0.0979 H   0  0  0  0  0  0  0  0  0  0  0  0
   -2.0815   20.7570   -1.1671 H   0  0  0  0  0  0  0  0  0  0  0  0
   -3.0263   19.2292   -1.1671 H   0  0  0  0  0  0  0  0  0  0  0  0
    1.7010   16.5898    0.4248 H   0  0  0  0  0  0  0  0  0  0  0  0
   -0.2624   17.6743   -0.4739 H   0  0  0  0  0  0  0  0  0  0  0  0
    0.6017   18.1984   -1.9354 H   0  0  0  0  0  0  0  0  0  0  0  0
   -1.2566   16.0322   -1.7915 H   0  0  0  0  0  0  0  0  0  0  0  0
   -0.1434   16.2905   -3.1319 H   0  0  0  0  0  0  0  0  0  0  0  0
    0.6064   14.9121    0.6164 H   0  0  0  0  0  0  0  0  0  0  0  0
   -1.0271   14.9422   -0.1301 H   0  0  0  0  0  0  0  0  0  0  0  0
   -0.0676   13.4237   -0.1301 H   0  0  0  0  0  0  0  0  0  0  0  0
    0.9923   14.1845   -3.4974 H   0  0  0  0  0  0  0  0  0  0  0  0
   -1.4627   13.8358   -2.7959 H   0  0  0  0  0  0  0  0  0  0  0  0
   -0.5966   12.6162   -3.8686 H   0  0  0  0  0  0  0  0  0  0  0  0
   -2.1305   11.6187   -1.9730 H   0  0  0  0  0  0  0  0  0  0  0  0
    1.4386   12.1380   -0.1598 H   0  0  0  0  0  0  0  0  0  0  0  0
    1.8884    9.7611   -2.0678 H   0  0  0  0  0  0  0  0  0  0  0  0
    3.1137   10.5164   -0.9545 H   0  0  0  0  0  0  0  0  0  0  0  0
    2.2149    8.3934   -0.0563 H   0  0  0  0  0  0  0  0  0  0  0  0
    1.8282    9.8204    0.9829 H   0  0  0  0  0  0  0  0  0  0  0  0
   -0.1194    8.4260    0.8333 H   0  0  0  0  0  0  0  0  0  0  0  0
   -0.4180    7.3560   -0.9780 H   0  0  0  0  0  0  0  0  0  0  0  0
   -0.7637   10.1492    2.0964 H   0  0  0  0  0  0  0  0  0  0  0  0
    0.1822   11.5207    1.4250 H   0  0  0  0  0  0  0  0  0  0  0  0
   -1.6131   11.5826    1.4250 H   0  0  0  0  0  0  0  0  0  0  0  0
   -2.7170    9.6356    0.6556 H   0  0  0  0  0  0  0  0  0  0  0  0
   -2.7648   10.5628   -0.8821 H   0  0  0  0  0  0  0  0  0  0  0  0
   -2.2203    8.8510   -0.8821 H   0  0  0  0  0  0  0  0  0  0  0  0
    2.5273   10.8827   -3.2801 H   0  0  0  0  0  0  0  0  0  0  0  0
    1.1750   11.7299   -4.1048 H   0  0  0  0  0  0  0  0  0  0  0  0
    2.8200   12.4514   -4.1048 H   0  0  0  0  0  0  0  0  0  0  0  0
    3.6534   12.5126   -1.1217 H   0  0  0  0  0  0  0  0  0  0  0  0
    3.6238   13.6014   -2.6213 H   0  0  0  0  0  0  0  0  0  0  0  0
    2.6082   14.2538    0.1578 H   0  0  0  0  0  0  0  0  0  0  0  0
    3.9947   14.9890   -0.7396 H   0  0  0  0  0  0  0  0  0  0  0  0
    3.5630   16.6189   -2.6559 H   0  0  0  0  0  0  0  0  0  0  0  0
    2.9654   15.1026   -3.4113 H   0  0  0  0  0  0  0  0  0  0  0  0
    1.9339   16.5732   -3.4113 H   0  0  0  0  0  0  0  0  0  0  0  0
  1  2  1  0
  2  3  1  0
  3  4  1  0
  4  5  1  0
  5  6  1  0
  6  7  1  0
  7  8  1  0
  7  9  1  0
  2 10  1  0
 10 11  1  0
 11 12  1  0
 12 13  1  0
 13 14  1  1
 13 15  1  0
 15 16  1  0
 16 17  1  0
 17 18  2  0
 18 19  1  0
 19 20  1  0
 20 21  1  0
 21 22  1  0
 22 23  1  0
 22 24  1  0
 24 25  1  0
 24 26  1  0
 19 27  1  0
 27 28  1  6
 27 29  1  0
 29 30  1  0
 30 31  1  0
 31 32  1  6
  7  5  1  0
 31 10  1  0
 31 13  1  0
 27 15  1  0
 24 18  1  0
  1 33  1  0
  1 34  1  0
  1 35  1  0
  2 36  1  6
  3 37  1  0
  3 38  1  0
  4 39  1  0
  4 40  1  0
  5 41  1  6
  8 42  1  0
  8 43  1  0
  8 44  1  0
  9 45  1  0
  9 46  1  0
  9 47  1  0
 10 48  1  1
 11 49  1  0
 11 50  1  0
 12 51  1  0
 12 52  1  0
 14 53  1  0
 14 54  1  0
 14 55  1  0
 15 56  1  6
 16 57  1  0
 16 58  1  0
 17 59  1  0
 19 60  1  1
 20 61  1  0
 20 62  1  0
 21 63  1  0
 21 64  1  0
 22 65  1  1
 23 66  1  0
 25 67  1  0
 25 68  1  0
 25 69  1  0
 26 70  1  0
 26 71  1  0
 26 72  1  0
 28 73  1  0
 28 74  1  0
 28 75  1  0
 29 76  1  0
 29 77  1  0
 30 78  1  0
 30 79  1  0
 32 80  1  0
 32 81  1  0
 32 82  1  0
M  END
>  <meeko>  (7) 
{"is_sidechain": [false], "intermolecular_energy": 2.731, "internal_energy": -0.839}

$$$$
EPH_relaxed_0001_pdb2pqr_Repair_22_r2_0001_out
     RDKit          3D

 82 86  0  0  0  0  0  0  0  0999 V2000
    0.0920   10.3680   -3.4550 C   0  0  0  0  0  0  0  0  0  0  0  0
    1.1130   10.1910   -2.3270 C   0  0  2  0  0  0  0  0  0  0  0  0
    0.7910    8.9730   -1.4380 C   0  0  0  0  0  0  0  0  0  0  0  0
    0.0160    9.3270   -0.1660 C   0  0  0  0  0  0  0  0  0  0  0  0
   -1.3940    8.8230   -0.2170 C   0  0  2  0  0  0  0  0  0  0  0  0
   -1.9770    8.8060   -1.5270 O   0  0  0  0  0  0  0  0  0  0  0  0
   -2.5820    9.6960   -0.5760 C   0  0  0  0  0  0  0  0  0  0  0  0
   -2.4140   11.1460   -0.9060 C   0  0  0  0  0  0  0  0  0  0  0  0
   -3.9460    9.2670   -0.1310 C   0  0  0  0  0  0  0  0  0  0  0  0
    1.1740   11.4550   -1.4770 C   0  0  1  0  0  0  0  0  0  0  0  0
    2.2560   11.3770   -0.3680 C   0  0  0  0  0  0  0  0  0  0  0  0
    2.8350   12.8070   -0.2070 C   0  0  0  0  0  0  0  0  0  0  0  0
    1.8500   13.7150   -0.9800 C   0  0  1  0  0  0  0  0  0  0  0  0
    0.6620   13.9490    0.0060 C   0  0  0  0  0  0  0  0  0  0  0  0
    2.4300   15.0650   -1.5150 C   0  0  2  0  0  0  0  0  0  0  0  0
    2.9280   16.0370   -0.4320 C   0  0  0  0  0  0  0  0  0  0  0  0
    1.9080   17.0010    0.0780 C   0  0  0  0  0  0  0  0  0  0  0  0
    0.7300   17.2770   -0.5110 C   0  0  0  0  0  0  0  0  0  0  0  0
    0.3640   16.6620   -1.8680 C   0  0  1  0  0  0  0  0  0  0  0  0
   -0.2030   17.7650   -2.8000 C   0  0  0  0  0  0  0  0  0  0  0  0
   -1.3680   18.5210   -2.1700 C   0  0  0  0  0  0  0  0  0  0  0  0
   -0.9490   19.1670   -0.8510 C   0  0  2  0  0  0  0  0  0  0  0  0
    0.0080   20.1940   -1.1250 O   0  0  0  0  0  0  0  0  0  0  0  0
   -0.3530   18.1540    0.1650 C   0  0  0  0  0  0  0  0  0  0  0  0
   -1.4730   17.2230    0.6910 C   0  0  0  0  0  0  0  0  0  0  0  0
    0.1580   18.9540    1.3930 C   0  0  0  0  0  0  0  0  0  0  0  0
    1.5010   15.7980   -2.5660 C   0  0  1  0  0  0  0  0  0  0  0  0
    2.4290   16.7230   -3.4120 C   0  0  0  0  0  0  0  0  0  0  0  0
    0.8340   14.7930   -3.5780 C   0  0  0  0  0  0  0  0  0  0  0  0
    0.3900   13.4300   -3.0140 C   0  0  0  0  0  0  0  0  0  0  0  0
    1.5140   12.7820   -2.2000 C   0  0  2  0  0  0  0  0  0  0  0  0
    2.7150   12.5140   -3.1700 C   0  0  0  0  0  0  0  0  0  0  0  0
   -0.9049   10.5408   -3.0234 H   0  0  0  0  0  0  0  0  0  0  0  0
    0.3773   11.2301   -4.0758 H   0  0  0  0  0  0  0  0  0  0  0  0
    0.0704    9.4602   -4.0758 H   0  0  0  0  0  0  0  0  0  0  0  0
    2.0926   10.0095   -2.7933 H   0  0  0  0  0  0  0  0  0  0  0  0
    0.1892    8.2639   -2.0253 H   0  0  0  0  0  0  0  0  0  0  0  0
    1.7527    8.5443   -1.1196 H   0  0  0  0  0  0  0  0  0  0  0  0
    0.5247    8.8756    0.6985 H   0  0  0  0  0  0  0  0  0  0  0  0
   -0.0149   10.4230   -0.0775 H   0  0  0  0  0  0  0  0  0  0  0  0
   -1.2062    8.1427    0.6268 H   0  0  0  0  0  0  0  0  0  0  0  0
   -2.3465   11.7284    0.0247 H   0  0  0  0  0  0  0  0  0  0  0  0
   -1.4938   11.2843   -1.4926 H   0  0  0  0  0  0  0  0  0  0  0  0
   -3.2782   11.4911   -1.4926 H   0  0  0  0  0  0  0  0  0  0  0  0
   -3.9860    9.2544    0.9682 H   0  0  0  0  0  0  0  0  0  0  0  0
   -4.6964    9.9725   -0.5172 H   0  0  0  0  0  0  0  0  0  0  0  0
   -4.1575    8.2590   -0.5172 H   0  0  0  0  0  0  0  0  0  0  0  0
    0.1370   11.4819   -1.1110 H   0  0  0  0  0  0  0  0  0  0  0  0
    1.8055   11.0419    0.5779 H   0  0  0  0  0  0  0  0  0  0  0  0
    3.0452   10.6590   -0.6357 H   0  0  0  0  0  0  0  0  0  0  0  0
    2.8752   13.0926    0.8545 H   0  0  0  0  0  0  0  0  0  0  0  0
    3.8635   12.8864   -0.5889 H   0  0  0  0  0  0  0  0  0  0  0  0
    1.0256   13.8774    1.0417 H   0  0  0  0  0  0  0  0  0  0  0  0
    0.2354   14.9484   -0.1646 H   0  0  0  0  0  0  0  0  0  0  0  0
   -0.1118   13.1860   -0.1646 H   0  0  0  0  0  0  0  0  0  0  0  0
    3.3291   14.7364   -2.0569 H   0  0  0  0  0  0  0  0  0  0  0  0
    3.2883   15.4413    0.4196 H   0  0  0  0  0  0  0  0  0  0  0  0
    3.7115   16.6459   -0.9067 H   0  0  0  0  0  0  0  0  0  0  0  0
    2.1391   17.5302    1.0142 H   0  0  0  0  0  0  0  0  0  0  0  0
   -0.4133   15.9112   -1.6627 H   0  0  0  0  0  0  0  0  0  0  0  0
    0.6001   18.4813   -3.0279 H   0  0  0  0  0  0  0  0  0  0  0  0
   -0.5772   17.2733   -3.7101 H   0  0  0  0  0  0  0  0  0  0  0  0
   -1.7058   19.3050   -2.8637 H   0  0  0  0  0  0  0  0  0  0  0  0
   -2.1819   17.8087   -1.9695 H   0  0  0  0  0  0  0  0  0  0  0  0
   -1.8544   19.5822   -0.3843 H   0  0  0  0  0  0  0  0  0  0  0  0
    0.3230   20.0680   -2.0360 H   0  0  0  0  0  0  0  0  0  0  0  0
   -1.4673   17.2277    1.7910 H   0  0  0  0  0  0  0  0  0  0  0  0
   -2.4478   17.5806    0.3278 H   0  0  0  0  0  0  0  0  0  0  0  0
   -1.2995   16.1993    0.3278 H   0  0  0  0  0  0  0  0  0  0  0  0
   -0.1630   18.4515    2.3174 H   0  0  0  0  0  0  0  0  0  0  0  0
    1.2565   19.0053    1.3660 H   0  0  0  0  0  0  0  0  0  0  0  0
   -0.2574   19.9722    1.3660 H   0  0  0  0  0  0  0  0  0  0  0  0
    3.0456   17.3376   -2.7396 H   0  0  0  0  0  0  0  0  0  0  0  0
    3.0820   16.1058   -4.0465 H   0  0  0  0  0  0  0  0  0  0  0  0
    1.8139   17.3780   -4.0465 H   0  0  0  0  0  0  0  0  0  0  0  0
   -0.0558   15.2851   -3.9976 H   0  0  0  0  0  0  0  0  0  0  0  0
    1.6204   14.5585   -4.3105 H   0  0  0  0  0  0  0  0  0  0  0  0
   -0.4858   13.5770   -2.3649 H   0  0  0  0  0  0  0  0  0  0  0  0
    0.1385   12.7671   -3.8550 H   0  0  0  0  0  0  0  0  0  0  0  0
    3.6227   12.3115   -2.5825 H   0  0  0  0  0  0  0  0  0  0  0  0
    2.4871   11.6446   -3.8042 H   0  0  0  0  0  0  0  0  0  0  0  0
    2.8783   13.3978   -3.8042 H   0  0  0  0  0  0  0  0  0  0  0  0
  1  2  1  0
  2  3  1  0
  3  4  1  0
  4  5  1  0
  5  6  1  0
  6  7  1  0
  7  8  1  0
  7  9  1  0
  2 10  1  0
 10 11  1  0
 11 12  1  0
 12 13  1  0
 13 14  1  1
 13 15  1  0
 15 16  1  0
 16 17  1  0
 17 18  2  0
 18 19  1  0
 19 20  1  0
 20 21  1  0
 21 22  1  0
 22 23  1  0
 22 24  1  0
 24 25  1  0
 24 26  1  0
 19 27  1  0
 27 28  1  6
 27 29  1  0
 29 30  1  0
 30 31  1  0
 31 32  1  6
  7  5  1  0
 31 10  1  0
 31 13  1  0
 27 15  1  0
 24 18  1  0
  1 33  1  0
  1 34  1  0
  1 35  1  0
  2 36  1  6
  3 37  1  0
  3 38  1  0
  4 39  1  0
  4 40  1  0
  5 41  1  1
  8 42  1  0
  8 43  1  0
  8 44  1  0
  9 45  1  0
  9 46  1  0
  9 47  1  0
 10 48  1  1
 11 49  1  0
 11 50  1  0
 12 51  1  0
 12 52  1  0
 14 53  1  0
 14 54  1  0
 14 55  1  0
 15 56  1  6
 16 57  1  0
 16 58  1  0
 17 59  1  0
 19 60  1  1
 20 61  1  0
 20 62  1  0
 21 63  1  0
 21 64  1  0
 22 65  1  1
 23 66  1  0
 25 67  1  0
 25 68  1  0
 25 69  1  0
 26 70  1  0
 26 71  1  0
 26 72  1  0
 28 73  1  0
 28 74  1  0
 28 75  1  0
 29 76  1  0
 29 77  1  0
 30 78  1  0
 30 79  1  0
 32 80  1  0
 32 81  1  0
 32 82  1  0
M  END
>  <meeko>  (8) 
{"is_sidechain": [false], "intermolecular_energy": 2.731, "internal_energy": -0.839}

$$$$
EPH_relaxed_0001_pdb2pqr_Repair_22_r2_0001_out
     RDKit          3D

 82 86  0  0  0  0  0  0  0  0999 V2000
    0.4370    8.8220   -2.3840 C   0  0  0  0  0  0  0  0  0  0  0  0
    1.1810    9.9660   -3.0770 C   0  0  2  0  0  0  0  0  0  0  0  0
    2.6810    9.9850   -2.7180 C   0  0  0  0  0  0  0  0  0  0  0  0
    3.5690   10.5740   -3.8170 C   0  0  0  0  0  0  0  0  0  0  0  0
    4.9650   10.8210   -3.3290 C   0  0  2  0  0  0  0  0  0  0  0  0
    5.5540   12.0420   -3.7940 O   0  0  0  0  0  0  0  0  0  0  0  0
    6.1800   10.8270   -4.2380 C   0  0  0  0  0  0  0  0  0  0  0  0
    6.0560   10.5810   -5.7090 C   0  0  0  0  0  0  0  0  0  0  0  0
    7.5280   10.5870   -3.6320 C   0  0  0  0  0  0  0  0  0  0  0  0
    0.5410   11.3000   -2.7100 C   0  0  1  0  0  0  0  0  0  0  0  0
   -0.8320   11.1300   -2.0070 C   0  0  0  0  0  0  0  0  0  0  0  0
   -0.9460   12.2720   -0.9650 C   0  0  0  0  0  0  0  0  0  0  0  0
    0.2000   13.2460   -1.3260 C   0  0  1  0  0  0  0  0  0  0  0  0
   -0.3560   14.0990   -2.5080 C   0  0  0  0  0  0  0  0  0  0  0  0
    0.7340   14.1460   -0.1650 C   0  0  2  0  0  0  0  0  0  0  0  0
   -0.2960   15.1220    0.4300 C   0  0  0  0  0  0  0  0  0  0  0  0
   -0.3450   16.4680   -0.2140 C   0  0  0  0  0  0  0  0  0  0  0  0
    0.5920   16.9770   -1.0360 C   0  0  0  0  0  0  0  0  0  0  0  0
    1.8940   16.2140   -1.3140 C   0  0  1  0  0  0  0  0  0  0  0  0
    3.0980   17.1840   -1.1910 C   0  0  0  0  0  0  0  0  0  0  0  0
    2.9460   18.4200   -2.0730 C   0  0  0  0  0  0  0  0  0  0  0  0
    1.6700   19.1830   -1.7270 C   0  0  2  0  0  0  0  0  0  0  0  0
    1.8010   19.7250   -0.4090 O   0  0  0  0  0  0  0  0  0  0  0  0
    0.3900   18.3050   -1.8060 C   0  0  0  0  0  0  0  0  0  0  0  0
    0.0820   17.9660   -3.2860 C   0  0  0  0  0  0  0  0  0  0  0  0
   -0.8050   19.1560   -1.2980 C   0  0  0  0  0  0  0  0  0  0  0  0
    2.1020   14.8740   -0.4850 C   0  0  1  0  0  0  0  0  0  0  0  0
    2.7680   15.1950    0.8880 C   0  0  0  0  0  0  0  0  0  0  0  0
    3.1080   13.9430   -1.2590 C   0  0  0  0  0  0  0  0  0  0  0  0
    2.5060   12.9900   -2.3100 C   0  0  0  0  0  0  0  0  0  0  0  0
    1.3180   12.2160   -1.7310 C   0  0  2  0  0  0  0  0  0  0  0  0
    1.8510   11.3310   -0.5540 C   0  0  0  0  0  0  0  0  0  0  0  0
    0.5148    8.9416   -1.2933 H   0  0  0  0  0  0  0  0  0  0  0  0
   -0.6222    8.8408   -2.6803 H   0  0  0  0  0  0  0  0  0  0  0  0
    0.8837    7.8614   -2.6803 H   0  0  0  0  0  0  0  0  0  0  0  0
    1.1031    9.8021   -4.1619 H   0  0  0  0  0  0  0  0  0  0  0  0
    2.8123   10.5859   -1.8060 H   0  0  0  0  0  0  0  0  0  0  0  0
    2.9918    8.9390   -2.5795 H   0  0  0  0  0  0  0  0  0  0  0  0
    3.6058    9.8698   -4.6612 H   0  0  0  0  0  0  0  0  0  0  0  0
    3.1382   11.5378   -4.1262 H   0  0  0  0  0  0  0  0  0  0  0  0
    4.7528   10.2984   -2.3846 H   0  0  0  0  0  0  0  0  0  0  0  0
    5.5668    9.6105   -5.8785 H   0  0  0  0  0  0  0  0  0  0  0  0
    5.4530   11.3801   -6.1649 H   0  0  0  0  0  0  0  0  0  0  0  0
    7.0571   10.5716   -6.1649 H   0  0  0  0  0  0  0  0  0  0  0  0
    7.4449   10.6018   -2.5352 H   0  0  0  0  0  0  0  0  0  0  0  0
    7.9073    9.6072   -3.9578 H   0  0  0  0  0  0  0  0  0  0  0  0
    8.2222   11.3757   -3.9578 H   0  0  0  0  0  0  0  0  0  0  0  0
    0.4979   11.7645   -3.7062 H   0  0  0  0  0  0  0  0  0  0  0  0
   -1.6462   11.2060   -2.7428 H   0  0  0  0  0  0  0  0  0  0  0  0
   -0.9085   10.1451   -1.5232 H   0  0  0  0  0  0  0  0  0  0  0  0
   -1.9216   12.7739   -1.0443 H   0  0  0  0  0  0  0  0  0  0  0  0
   -0.8694   11.9028    0.0683 H   0  0  0  0  0  0  0  0  0  0  0  0
   -0.9157   14.9577   -2.1089 H   0  0  0  0  0  0  0  0  0  0  0  0
    0.4803   14.4608   -3.1242 H   0  0  0  0  0  0  0  0  0  0  0  0
   -1.0246   13.4799   -3.1242 H   0  0  0  0  0  0  0  0  0  0  0  0
    0.9417   13.4109    0.6265 H   0  0  0  0  0  0  0  0  0  0  0  0
   -1.2917   14.6640    0.3366 H   0  0  0  0  0  0  0  0  0  0  0  0
    0.0138   15.2939    1.4714 H   0  0  0  0  0  0  0  0  0  0  0  0
   -1.2211   17.0974    0.0014 H   0  0  0  0  0  0  0  0  0  0  0  0
    1.8165   15.8447   -2.3472 H   0  0  0  0  0  0  0  0  0  0  0  0
    3.1849   17.5071   -0.1431 H   0  0  0  0  0  0  0  0  0  0  0  0
    3.9969   16.6445   -1.5242 H   0  0  0  0  0  0  0  0  0  0  0  0
    3.8127   19.0800   -1.9205 H   0  0  0  0  0  0  0  0  0  0  0  0
    2.8885   18.0973   -3.1230 H   0  0  0  0  0  0  0  0  0  0  0  0
    1.5492   19.9805   -2.4750 H   0  0  0  0  0  0  0  0  0  0  0  0
    0.9510   20.1360   -0.1740 H   0  0  0  0  0  0  0  0  0  0  0  0
   -0.6571   17.1525   -3.3297 H   0  0  0  0  0  0  0  0  0  0  0  0
   -0.3225   18.8564   -3.7896 H   0  0  0  0  0  0  0  0  0  0  0  0
    1.0070   17.6484   -3.7896 H   0  0  0  0  0  0  0  0  0  0  0  0
   -0.8108   19.1601   -0.1980 H   0  0  0  0  0  0  0  0  0  0  0  0
   -0.7044   20.1870   -1.6680 H   0  0  0  0  0  0  0  0  0  0  0  0
   -1.7464   18.7238   -1.6680 H   0  0  0  0  0  0  0  0  0  0  0  0
    2.1020   14.8740    1.7025 H   0  0  0  0  0  0  0  0  0  0  0  0
    3.7258   14.6596    0.9650 H   0  0  0  0  0  0  0  0  0  0  0  0
    2.9459   16.2778    0.9650 H   0  0  0  0  0  0  0  0  0  0  0  0
    3.8322   14.5913   -1.7739 H   0  0  0  0  0  0  0  0  0  0  0  0
    3.5415   13.2863   -0.4903 H   0  0  0  0  0  0  0  0  0  0  0  0
    2.1655   13.5775   -3.1754 H   0  0  0  0  0  0  0  0  0  0  0  0
    3.2795   12.2695   -2.6143 H   0  0  0  0  0  0  0  0  0  0  0  0
    1.5737   11.7915    0.4057 H   0  0  0  0  0  0  0  0  0  0  0  0
    1.4075   10.3266   -0.6205 H   0  0  0  0  0  0  0  0  0  0  0  0
    2.9462   11.2533   -0.6205 H   0  0  0  0  0  0  0  0  0  0  0  0
  1  2  1  0
  2  3  1  0
  3  4  1  0
  4  5  1  0
  5  6  1  0
  6  7  1  0
  7  8  1  0
  7  9  1  0
  2 10  1  0
 10 11  1  0
 11 12  1  0
 12 13  1  0
 13 14  1  6
 13 15  1  0
 15 16  1  0
 16 17  1  0
 17 18  2  0
 18 19  1  0
 19 20  1  0
 20 21  1  0
 21 22  1  0
 22 23  1  0
 22 24  1  0
 24 25  1  0
 24 26  1  0
 19 27  1  0
 27 28  1  1
 27 29  1  0
 29 30  1  0
 30 31  1  0
 31 32  1  1
  7  5  1  0
 31 10  1  0
 31 13  1  0
 27 15  1  0
 24 18  1  0
  1 33  1  0
  1 34  1  0
  1 35  1  0
  2 36  1  6
  3 37  1  0
  3 38  1  0
  4 39  1  0
  4 40  1  0
  5 41  1  1
  8 42  1  0
  8 43  1  0
  8 44  1  0
  9 45  1  0
  9 46  1  0
  9 47  1  0
 10 48  1  6
 11 49  1  0
 11 50  1  0
 12 51  1  0
 12 52  1  0
 14 53  1  0
 14 54  1  0
 14 55  1  0
 15 56  1  1
 16 57  1  0
 16 58  1  0
 17 59  1  0
 19 60  1  6
 20 61  1  0
 20 62  1  0
 21 63  1  0
 21 64  1  0
 22 65  1  6
 23 66  1  0
 25 67  1  0
 25 68  1  0
 25 69  1  0
 26 70  1  0
 26 71  1  0
 26 72  1  0
 28 73  1  0
 28 74  1  0
 28 75  1  0
 29 76  1  0
 29 77  1  0
 30 78  1  0
 30 79  1  0
 32 80  1  0
 32 81  1  0
 32 82  1  0
M  END
>  <meeko>  (9) 
{"is_sidechain": [false], "intermolecular_energy": 2.731, "internal_energy": -0.839}

$$$$
EPH_relaxed_0001_pdb2pqr_Repair_22_r2_0001_out
     RDKit          3D

 82 86  0  0  0  0  0  0  0  0999 V2000
    2.5540   19.3740   -0.6530 C   0  0  0  0  0  0  0  0  0  0  0  0
    2.5500   18.4600   -1.8820 C   0  0  2  0  0  0  0  0  0  0  0  0
    1.2170   18.5330   -2.6550 C   0  0  0  0  0  0  0  0  0  0  0  0
    0.3070   19.6790   -2.2060 C   0  0  0  0  0  0  0  0  0  0  0  0
   -0.9770   19.1720   -1.6220 C   0  0  2  0  0  0  0  0  0  0  0  0
   -1.9180   20.1940   -1.2690 O   0  0  0  0  0  0  0  0  0  0  0  0
   -1.3940   19.4130   -0.1830 C   0  0  0  0  0  0  0  0  0  0  0  0
   -0.5280   20.1870    0.7610 C   0  0  0  0  0  0  0  0  0  0  0  0
   -2.3960   18.4890    0.4350 C   0  0  0  0  0  0  0  0  0  0  0  0
    2.8310   17.0230   -1.4620 C   0  0  1  0  0  0  0  0  0  0  0  0
    3.6230   16.9330   -0.1300 C   0  0  0  0  0  0  0  0  0  0  0  0
    3.1070   15.6740    0.6130 C   0  0  0  0  0  0  0  0  0  0  0  0
    2.2870   14.9030   -0.4480 C   0  0  1  0  0  0  0  0  0  0  0  0
    3.3480   14.1270   -1.2890 C   0  0  0  0  0  0  0  0  0  0  0  0
    1.1730   13.9510    0.0980 C   0  0  2  0  0  0  0  0  0  0  0  0
    1.6790   12.7890    0.9710 C   0  0  0  0  0  0  0  0  0  0  0  0
    2.0010   11.5310    0.2340 C   0  0  0  0  0  0  0  0  0  0  0  0
    1.6250   11.2440   -1.0260 C   0  0  0  0  0  0  0  0  0  0  0  0
    0.7110   12.1940   -1.8110 C   0  0  1  0  0  0  0  0  0  0  0  0
   -0.4170   11.3790   -2.4960 C   0  0  0  0  0  0  0  0  0  0  0  0
    0.1230   10.2440   -3.3600 C   0  0  0  0  0  0  0  0  0  0  0  0
    0.9790    9.2890   -2.5320 C   0  0  2  0  0  0  0  0  0  0  0  0
    0.1390    8.6200   -1.5860 O   0  0  0  0  0  0  0  0  0  0  0  0
    2.1440    9.9990   -1.7860 C   0  0  0  0  0  0  0  0  0  0  0  0
    3.2100   10.4630   -2.8090 C   0  0  0  0  0  0  0  0  0  0  0  0
    2.8400    8.9490   -0.8790 C   0  0  0  0  0  0  0  0  0  0  0  0
    0.1560   13.4460   -1.0040 C   0  0  1  0  0  0  0  0  0  0  0  0
   -1.1550   13.0570   -0.2540 C   0  0  0  0  0  0  0  0  0  0  0  0
   -0.2360   14.5810   -2.0220 C   0  0  0  0  0  0  0  0  0  0  0  0
    0.8790   15.5630   -2.4300 C   0  0  0  0  0  0  0  0  0  0  0  0
    1.6090   16.1070   -1.1980 C   0  0  2  0  0  0  0  0  0  0  0  0
    0.5720   16.9120   -0.3440 C   0  0  0  0  0  0  0  0  0  0  0  0
    2.5513   18.7606    0.2601 H   0  0  0  0  0  0  0  0  0  0  0  0
    3.4549   20.0050   -0.6682 H   0  0  0  0  0  0  0  0  0  0  0  0
    1.6586   20.0128   -0.6682 H   0  0  0  0  0  0  0  0  0  0  0  0
    3.3435   18.8108   -2.5583 H   0  0  0  0  0  0  0  0  0  0  0  0
    1.4420   18.6665   -3.7234 H   0  0  0  0  0  0  0  0  0  0  0  0
    0.6770   17.5961   -2.4536 H   0  0  0  0  0  0  0  0  0  0  0  0
    0.8333   20.2751   -1.4460 H   0  0  0  0  0  0  0  0  0  0  0  0
    0.0646   20.2897   -3.0882 H   0  0  0  0  0  0  0  0  0  0  0  0
   -0.9206   18.2573   -2.2304 H   0  0  0  0  0  0  0  0  0  0  0  0
   -0.8036   19.9407    1.7971 H   0  0  0  0  0  0  0  0  0  0  0  0
    0.5265   19.9249    0.5899 H   0  0  0  0  0  0  0  0  0  0  0  0
   -0.6705   21.2642    0.5899 H   0  0  0  0  0  0  0  0  0  0  0  0
   -2.3267   18.5529    1.5309 H   0  0  0  0  0  0  0  0  0  0  0  0
   -3.4078   18.7777    0.1141 H   0  0  0  0  0  0  0  0  0  0  0  0
   -2.1900   17.4572    0.1141 H   0  0  0  0  0  0  0  0  0  0  0  0
    3.3775   16.6753   -2.3511 H   0  0  0  0  0  0  0  0  0  0  0  0
    4.6995   16.8372   -0.3351 H   0  0  0  0  0  0  0  0  0  0  0  0
    3.4772   17.8380    0.4781 H   0  0  0  0  0  0  0  0  0  0  0  0
    3.9483   15.0633    0.9726 H   0  0  0  0  0  0  0  0  0  0  0  0
    2.5072   15.9293    1.4990 H   0  0  0  0  0  0  0  0  0  0  0  0
    4.0484   13.6147   -0.6130 H   0  0  0  0  0  0  0  0  0  0  0  0
    2.8415   13.3847   -1.9234 H   0  0  0  0  0  0  0  0  0  0  0  0
    3.9019   14.8346   -1.9234 H   0  0  0  0  0  0  0  0  0  0  0  0
    0.6091   14.6097    0.7749 H   0  0  0  0  0  0  0  0  0  0  0  0
    2.5910   13.1236    1.4870 H   0  0  0  0  0  0  0  0  0  0  0  0
    0.8533   12.5391    1.6535 H   0  0  0  0  0  0  0  0  0  0  0  0
    2.5962   10.7744    0.7662 H   0  0  0  0  0  0  0  0  0  0  0  0
    1.3465   12.6660   -2.5748 H   0  0  0  0  0  0  0  0  0  0  0  0
   -1.0657   10.9514   -1.7173 H   0  0  0  0  0  0  0  0  0  0  0  0
   -0.9716   12.0643   -3.1538 H   0  0  0  0  0  0  0  0  0  0  0  0
   -0.7215    9.6876   -3.7927 H   0  0  0  0  0  0  0  0  0  0  0  0
    0.7475   10.6750   -4.1564 H   0  0  0  0  0  0  0  0  0  0  0  0
    1.4424    8.5741   -3.2279 H   0  0  0  0  0  0  0  0  0  0  0  0
   -0.7670    8.9460   -1.7150 H   0  0  0  0  0  0  0  0  0  0  0  0
    4.0906   10.8463   -2.2726 H   0  0  0  0  0  0  0  0  0  0  0  0
    3.5068    9.6126   -3.4405 H   0  0  0  0  0  0  0  0  0  0  0  0
    2.7899   11.2597   -3.4405 H   0  0  0  0  0  0  0  0  0  0  0  0
    2.6696    9.2061    0.1769 H   0  0  0  0  0  0  0  0  0  0  0  0
    2.4232    7.9522   -1.0856 H   0  0  0  0  0  0  0  0  0  0  0  0
    3.9204    8.9447   -1.0856 H   0  0  0  0  0  0  0  0  0  0  0  0
   -0.9851   13.1074    0.8316 H   0  0  0  0  0  0  0  0  0  0  0  0
   -1.9578   13.7557   -0.5323 H   0  0  0  0  0  0  0  0  0  0  0  0
   -1.4468   12.0336   -0.5323 H   0  0  0  0  0  0  0  0  0  0  0  0
   -0.6027   14.0945   -2.9379 H   0  0  0  0  0  0  0  0  0  0  0  0
   -0.9821   15.1947   -1.4959 H   0  0  0  0  0  0  0  0  0  0  0  0
    1.6011   15.0399   -3.0742 H   0  0  0  0  0  0  0  0  0  0  0  0
    0.4231   16.4070   -2.9684 H   0  0  0  0  0  0  0  0  0  0  0  0
    0.7759   16.7537    0.7253 H   0  0  0  0  0  0  0  0  0  0  0  0
    0.6566   17.9833   -0.5787 H   0  0  0  0  0  0  0  0  0  0  0  0
   -0.4449   16.5644   -0.5787 H   0  0  0  0  0  0  0  0  0  0  0  0
  1  2  1  0
  2  3  1  0
  3  4  1  0
  4  5  1  0
  5  6  1  0
  6  7  1  0
  7  8  1  0
  7  9  1  0
  2 10  1  0
 10 11  1  0
 11 12  1  0
 12 13  1  0
 13 14  1  6
 13 15  1  0
 15 16  1  0
 16 17  1  0
 17 18  2  0
 18 19  1  0
 19 20  1  0
 20 21  1  0
 21 22  1  0
 22 23  1  0
 22 24  1  0
 24 25  1  0
 24 26  1  0
 19 27  1  0
 27 28  1  1
 27 29  1  0
 29 30  1  0
 30 31  1  0
 31 32  1  1
  7  5  1  0
 31 10  1  0
 31 13  1  0
 27 15  1  0
 24 18  1  0
  1 33  1  0
  1 34  1  0
  1 35  1  0
  2 36  1  6
  3 37  1  0
  3 38  1  0
  4 39  1  0
  4 40  1  0
  5 41  1  6
  8 42  1  0
  8 43  1  0
  8 44  1  0
  9 45  1  0
  9 46  1  0
  9 47  1  0
 10 48  1  6
 11 49  1  0
 11 50  1  0
 12 51  1  0
 12 52  1  0
 14 53  1  0
 14 54  1  0
 14 55  1  0
 15 56  1  1
 16 57  1  0
 16 58  1  0
 17 59  1  0
 19 60  1  6
 20 61  1  0
 20 62  1  0
 21 63  1  0
 21 64  1  0
 22 65  1  6
 23 66  1  0
 25 67  1  0
 25 68  1  0
 25 69  1  0
 26 70  1  0
 26 71  1  0
 26 72  1  0
 28 73  1  0
 28 74  1  0
 28 75  1  0
 29 76  1  0
 29 77  1  0
 30 78  1  0
 30 79  1  0
 32 80  1  0
 32 81  1  0
 32 82  1  0
M  END
>  <meeko>  (10) 
{"is_sidechain": [false], "intermolecular_energy": 2.731, "internal_energy": -0.839}

$$$$
EPH_relaxed_0001_pdb2pqr_Repair_22_r2_0001_out
     RDKit          3D

 82 86  0  0  0  0  0  0  0  0999 V2000
    0.1150   17.7690   -2.5580 C   0  0  0  0  0  0  0  0  0  0  0  0
   -0.1300   16.8780   -1.3370 C   0  0  2  0  0  0  0  0  0  0  0  0
   -0.1840   17.6890   -0.0270 C   0  0  0  0  0  0  0  0  0  0  0  0
    0.4510   19.0780   -0.1360 C   0  0  0  0  0  0  0  0  0  0  0  0
    1.5950   19.2410    0.8190 C   0  0  2  0  0  0  0  0  0  0  0  0
    2.5840   20.1940    0.4100 O   0  0  0  0  0  0  0  0  0  0  0  0
    3.0180   18.8270    0.4970 C   0  0  0  0  0  0  0  0  0  0  0  0
    3.3750   18.2170   -0.8220 C   0  0  0  0  0  0  0  0  0  0  0  0
    3.9610   18.5650    1.6300 C   0  0  0  0  0  0  0  0  0  0  0  0
    0.9560   15.8120   -1.2450 C   0  0  1  0  0  0  0  0  0  0  0  0
    1.1640   15.2950    0.2040 C   0  0  0  0  0  0  0  0  0  0  0  0
    1.5180   13.7890    0.0940 C   0  0  0  0  0  0  0  0  0  0  0  0
    1.8270   13.5690   -1.4050 C   0  0  1  0  0  0  0  0  0  0  0  0
    3.2980   14.0570   -1.5870 C   0  0  0  0  0  0  0  0  0  0  0  0
    1.6300   12.1150   -1.9450 C   0  0  2  0  0  0  0  0  0  0  0  0
    2.5400   11.0520   -1.3040 C   0  0  0  0  0  0  0  0  0  0  0  0
    3.8460   10.8310   -1.9940 C   0  0  0  0  0  0  0  0  0  0  0  0
    4.1540   11.2470   -3.2370 C   0  0  0  0  0  0  0  0  0  0  0  0
    3.1050   11.9340   -4.1200 C   0  0  1  0  0  0  0  0  0  0  0  0
    3.1420   11.3170   -5.5430 C   0  0  0  0  0  0  0  0  0  0  0  0
    4.5370   11.3510   -6.1590 C   0  0  0  0  0  0  0  0  0  0  0  0
    5.5400   10.6080   -5.2810 C   0  0  2  0  0  0  0  0  0  0  0  0
    5.2090    9.2160   -5.2790 O   0  0  0  0  0  0  0  0  0  0  0  0
    5.5840   11.1370   -3.8200 C   0  0  0  0  0  0  0  0  0  0  0  0
    6.2290   12.5450   -3.7950 C   0  0  0  0  0  0  0  0  0  0  0  0
    6.5290   10.2120   -3.0060 C   0  0  0  0  0  0  0  0  0  0  0  0
    1.6340   12.0040   -3.5230 C   0  0  1  0  0  0  0  0  0  0  0  0
    0.8530   10.7020   -3.8800 C   0  0  0  0  0  0  0  0  0  0  0  0
    0.8560   13.1890   -4.2090 C   0  0  0  0  0  0  0  0  0  0  0  0
    0.9950   14.5790   -3.5590 C   0  0  0  0  0  0  0  0  0  0  0  0
    0.7420   14.5060   -2.0500 C   0  0  2  0  0  0  0  0  0  0  0  0
   -0.7380   14.0390   -1.8350 C   0  0  0  0  0  0  0  0  0  0  0  0
    0.3929   18.7797   -2.2245 H   0  0  0  0  0  0  0  0  0  0  0  0
    0.9300   17.3455   -3.1633 H   0  0  0  0  0  0  0  0  0  0  0  0
   -0.8020   17.8218   -3.1633 H   0  0  0  0  0  0  0  0  0  0  0  0
   -1.1114   16.3990   -1.4691 H   0  0  0  0  0  0  0  0  0  0  0  0
   -1.2381   17.8109    0.2627 H   0  0  0  0  0  0  0  0  0  0  0  0
    0.3952   17.1288    0.7218 H   0  0  0  0  0  0  0  0  0  0  0  0
    0.8200   19.2218   -1.1622 H   0  0  0  0  0  0  0  0  0  0  0  0
   -0.3152   19.8261    0.1157 H   0  0  0  0  0  0  0  0  0  0  0  0
    0.9408   19.0268    1.6770 H   0  0  0  0  0  0  0  0  0  0  0  0
    3.9242   17.2786   -0.6554 H   0  0  0  0  0  0  0  0  0  0  0  0
    2.4565   18.0083   -1.3901 H   0  0  0  0  0  0  0  0  0  0  0  0
    4.0068   18.9157   -1.3901 H   0  0  0  0  0  0  0  0  0  0  0  0
    3.4358   18.7109    2.5854 H   0  0  0  0  0  0  0  0  0  0  0  0
    4.3296   17.5304    1.5685 H   0  0  0  0  0  0  0  0  0  0  0  0
    4.8105   19.2612    1.5685 H   0  0  0  0  0  0  0  0  0  0  0  0
    1.8031   16.3758   -1.6627 H   0  0  0  0  0  0  0  0  0  0  0  0
    1.9859   15.8432    0.6877 H   0  0  0  0  0  0  0  0  0  0  0  0
    0.2591   15.4452    0.8111 H   0  0  0  0  0  0  0  0  0  0  0  0
    2.3972   13.5508    0.7107 H   0  0  0  0  0  0  0  0  0  0  0  0
    0.7033   13.1420    0.4511 H   0  0  0  0  0  0  0  0  0  0  0  0
    3.7584   14.2098   -0.5998 H   0  0  0  0  0  0  0  0  0  0  0  0
    3.8690   13.3002   -2.1448 H   0  0  0  0  0  0  0  0  0  0  0  0
    3.3034   15.0051   -2.1448 H   0  0  0  0  0  0  0  0  0  0  0  0
    0.6098   11.8752   -1.6109 H   0  0  0  0  0  0  0  0  0  0  0  0
    2.7501   11.3631   -0.2700 H   0  0  0  0  0  0  0  0  0  0  0  0
    1.9932   10.1002   -1.3749 H   0  0  0  0  0  0  0  0  0  0  0  0
    4.6217   10.2821   -1.4400 H   0  0  0  0  0  0  0  0  0  0  0  0
    3.3932   12.9946   -4.1653 H   0  0  0  0  0  0  0  0  0  0  0  0
    2.8087   10.2705   -5.4824 H   0  0  0  0  0  0  0  0  0  0  0  0
    2.4791   11.9164   -6.1842 H   0  0  0  0  0  0  0  0  0  0  0  0
    4.5044   10.8749   -7.1501 H   0  0  0  0  0  0  0  0  0  0  0  0
    4.8565   12.4000   -6.2460 H   0  0  0  0  0  0  0  0  0  0  0  0
    6.5401   10.7774   -5.7065 H   0  0  0  0  0  0  0  0  0  0  0  0
    6.0110    8.7230   -5.0370 H   0  0  0  0  0  0  0  0  0  0  0  0
    6.3747   12.8631   -2.7521 H   0  0  0  0  0  0  0  0  0  0  0  0
    7.2017   12.5119   -4.3076 H   0  0  0  0  0  0  0  0  0  0  0  0
    5.5686   13.2600   -4.3076 H   0  0  0  0  0  0  0  0  0  0  0  0
    6.3636   10.3739   -1.9306 H   0  0  0  0  0  0  0  0  0  0  0  0
    6.3181    9.1616   -3.2554 H   0  0  0  0  0  0  0  0  0  0  0  0
    7.5747   10.4453   -3.2554 H   0  0  0  0  0  0  0  0  0  0  0  0
    0.5473   10.1923   -2.9544 H   0  0  0  0  0  0  0  0  0  0  0  0
   -0.0398   10.9597   -4.4687 H   0  0  0  0  0  0  0  0  0  0  0  0
    1.5007   10.0357   -4.4687 H   0  0  0  0  0  0  0  0  0  0  0  0
    1.2168   13.2684   -5.2451 H   0  0  0  0  0  0  0  0  0  0  0  0
   -0.2085   12.9300   -4.1104 H   0  0  0  0  0  0  0  0  0  0  0  0
    2.0122   14.9587   -3.7354 H   0  0  0  0  0  0  0  0  0  0  0  0
    0.2497   15.2522   -4.0076 H   0  0  0  0  0  0  0  0  0  0  0  0
   -0.9486   13.9725   -0.7574 H   0  0  0  0  0  0  0  0  0  0  0  0
   -1.4225   14.7648   -2.2983 H   0  0  0  0  0  0  0  0  0  0  0  0
   -0.8820   13.0518   -2.2983 H   0  0  0  0  0  0  0  0  0  0  0  0
  1  2  1  0
  2  3  1  0
  3  4  1  0
  4  5  1  0
  5  6  1  0
  6  7  1  0
  7  8  1  0
  7  9  1  0
  2 10  1  0
 10 11  1  0
 11 12  1  0
 12 13  1  0
 13 14  1  1
 13 15  1  0
 15 16  1  0
 16 17  1  0
 17 18  2  0
 18 19  1  0
 19 20  1  0
 20 21  1  0
 21 22  1  0
 22 23  1  0
 22 24  1  0
 24 25  1  0
 24 26  1  0
 19 27  1  0
 27 28  1  1
 27 29  1  0
 29 30  1  0
 30 31  1  0
 31 32  1  6
  7  5  1  0
 31 10  1  0
 31 13  1  0
 27 15  1  0
 24 18  1  0
  1 33  1  0
  1 34  1  0
  1 35  1  0
  2 36  1  6
  3 37  1  0
  3 38  1  0
  4 39  1  0
  4 40  1  0
  5 41  1  1
  8 42  1  0
  8 43  1  0
  8 44  1  0
  9 45  1  0
  9 46  1  0
  9 47  1  0
 10 48  1  6
 11 49  1  0
 11 50  1  0
 12 51  1  0
 12 52  1  0
 14 53  1  0
 14 54  1  0
 14 55  1  0
 15 56  1  1
 16 57  1  0
 16 58  1  0
 17 59  1  0
 19 60  1  6
 20 61  1  0
 20 62  1  0
 21 63  1  0
 21 64  1  0
 22 65  1  6
 23 66  1  0
 25 67  1  0
 25 68  1  0
 25 69  1  0
 26 70  1  0
 26 71  1  0
 26 72  1  0
 28 73  1  0
 28 74  1  0
 28 75  1  0
 29 76  1  0
 29 77  1  0
 30 78  1  0
 30 79  1  0
 32 80  1  0
 32 81  1  0
 32 82  1  0
M  END
>  <meeko>  (11) 
{"is_sidechain": [false], "intermolecular_energy": 2.731, "internal_energy": -0.839}

$$$$
EPH_relaxed_0001_pdb2pqr_Repair_22_r2_0001_out
     RDKit          3D

 82 86  0  0  0  0  0  0  0  0999 V2000
   -3.9560    7.1600   -3.3900 C   0  0  0  0  0  0  0  0  0  0  0  0
   -3.9820    7.2630   -1.8630 C   0  0  2  0  0  0  0  0  0  0  0  0
   -5.4060    7.0970   -1.2940 C   0  0  0  0  0  0  0  0  0  0  0  0
   -6.5070    7.1900   -2.3550 C   0  0  0  0  0  0  0  0  0  0  0  0
   -7.8180    7.6050   -1.7580 C   0  0  2  0  0  0  0  0  0  0  0  0
   -8.3520    6.6900   -0.7930 O   0  0  0  0  0  0  0  0  0  0  0  0
   -9.1180    6.8600   -1.9970 C   0  0  0  0  0  0  0  0  0  0  0  0
   -9.1720    5.6400   -2.8620 C   0  0  0  0  0  0  0  0  0  0  0  0
  -10.4090    7.5910   -1.7920 C   0  0  0  0  0  0  0  0  0  0  0  0
   -3.3980    8.6000   -1.4210 C   0  0  1  0  0  0  0  0  0  0  0  0
   -3.9940    9.0990   -0.0780 C   0  0  0  0  0  0  0  0  0  0  0  0
   -2.8530    9.8310    0.6730 C   0  0  0  0  0  0  0  0  0  0  0  0
   -1.7450   10.0210   -0.3890 C   0  0  1  0  0  0  0  0  0  0  0  0
   -2.1840   11.2760   -1.2070 C   0  0  0  0  0  0  0  0  0  0  0  0
   -0.2860   10.1660    0.1520 C   0  0  2  0  0  0  0  0  0  0  0  0
   -0.0400   11.3940    1.0460 C   0  0  0  0  0  0  0  0  0  0  0  0
    0.4030   12.6260    0.3290 C   0  0  0  0  0  0  0  0  0  0  0  0
    0.8700   12.6720   -0.9320 C   0  0  0  0  0  0  0  0  0  0  0  0
    1.0820   11.3850   -1.7410 C   0  0  1  0  0  0  0  0  0  0  0  0
    2.4700   11.4300   -2.4320 C   0  0  0  0  0  0  0  0  0  0  0  0
    2.6630   12.6880   -3.2740 C   0  0  0  0  0  0  0  0  0  0  0  0
    2.5020   13.9440   -2.4230 C   0  0  2  0  0  0  0  0  0  0  0  0
    3.5780   14.0040   -1.4810 O   0  0  0  0  0  0  0  0  0  0  0  0
    1.1440   14.0050   -1.6700 C   0  0  0  0  0  0  0  0  0  0  0  0
   -0.0020   14.2440   -2.6840 C   0  0  0  0  0  0  0  0  0  0  0  0
    1.1680   15.2490   -0.7410 C   0  0  0  0  0  0  0  0  0  0  0  0
    0.8340   10.0250   -0.9570 C   0  0  1  0  0  0  0  0  0  0  0  0
    2.1380    9.5910   -0.2200 C   0  0  0  0  0  0  0  0  0  0  0  0
    0.5090    8.8860   -1.9940 C   0  0  0  0  0  0  0  0  0  0  0  0
   -0.9670    8.7150   -2.3990 C   0  0  0  0  0  0  0  0  0  0  0  0
   -1.8710    8.6580   -1.1640 C   0  0  2  0  0  0  0  0  0  0  0  0
   -1.4680    7.3930   -0.3330 C   0  0  0  0  0  0  0  0  0  0  0  0
   -3.6966    6.1322   -3.6838 H   0  0  0  0  0  0  0  0  0  0  0  0
   -4.9472    7.4171   -3.7918 H   0  0  0  0  0  0  0  0  0  0  0  0
   -3.2056    7.8567   -3.7918 H   0  0  0  0  0  0  0  0  0  0  0  0
   -3.3690    6.4404   -1.4661 H   0  0  0  0  0  0  0  0  0  0  0  0
   -5.4736    6.1122   -0.8086 H   0  0  0  0  0  0  0  0  0  0  0  0
   -5.5689    7.9246   -0.5879 H   0  0  0  0  0  0  0  0  0  0  0  0
   -6.2102    7.9299   -3.1130 H   0  0  0  0  0  0  0  0  0  0  0  0
   -6.6347    6.1945   -2.8051 H   0  0  0  0  0  0  0  0  0  0  0  0
   -7.5497    8.6681   -1.8469 H   0  0  0  0  0  0  0  0  0  0  0  0
   -9.2117    4.7422   -2.2276 H   0  0  0  0  0  0  0  0  0  0  0  0
  -10.0692    5.6802   -3.4971 H   0  0  0  0  0  0  0  0  0  0  0  0
   -8.2747    5.6008   -3.4971 H   0  0  0  0  0  0  0  0  0  0  0  0
  -10.6015    7.7000   -0.7145 H   0  0  0  0  0  0  0  0  0  0  0  0
  -10.3443    8.5865   -2.2555 H   0  0  0  0  0  0  0  0  0  0  0  0
  -11.2294    7.0234   -2.2555 H   0  0  0  0  0  0  0  0  0  0  0  0
   -3.6561    9.2124   -2.2975 H   0  0  0  0  0  0  0  0  0  0  0  0
   -4.8278    9.7911   -0.2675 H   0  0  0  0  0  0  0  0  0  0  0  0
   -4.3838    8.2600    0.5171 H   0  0  0  0  0  0  0  0  0  0  0  0
   -3.1991   10.8042    1.0513 H   0  0  0  0  0  0  0  0  0  0  0  0
   -2.4995    9.2652    1.5476 H   0  0  0  0  0  0  0  0  0  0  0  0
   -2.4665   12.0837   -0.5158 H   0  0  0  0  0  0  0  0  0  0  0  0
   -1.3496   11.6109   -1.8408 H   0  0  0  0  0  0  0  0  0  0  0  0
   -3.0452   11.0177   -1.8408 H   0  0  0  0  0  0  0  0  0  0  0  0
   -0.1924    9.2918    0.8131 H   0  0  0  0  0  0  0  0  0  0  0  0
   -0.9783   11.6253    1.5715 H   0  0  0  0  0  0  0  0  0  0  0  0
    0.7858   11.1200    1.7190 H   0  0  0  0  0  0  0  0  0  0  0  0
    0.3425   13.5771    0.8783 H   0  0  0  0  0  0  0  0  0  0  0  0
    0.2874   11.3694   -2.5015 H   0  0  0  0  0  0  0  0  0  0  0  0
    3.2507   11.4006   -1.6576 H   0  0  0  0  0  0  0  0  0  0  0  0
    2.5361   10.5632   -3.1060 H   0  0  0  0  0  0  0  0  0  0  0  0
    3.6720   12.6768   -3.7118 H   0  0  0  0  0  0  0  0  0  0  0  0
    1.9000   12.7006   -4.0662 H   0  0  0  0  0  0  0  0  0  0  0  0
    2.5213   14.8078   -3.1038 H   0  0  0  0  0  0  0  0  0  0  0  0
    3.8950   14.9220   -1.4540 H   0  0  0  0  0  0  0  0  0  0  0  0
   -0.9380   14.4392   -2.1402 H   0  0  0  0  0  0  0  0  0  0  0  0
    0.2424   15.1105   -3.3160 H   0  0  0  0  0  0  0  0  0  0  0  0
   -0.1243   13.3520   -3.3160 H   0  0  0  0  0  0  0  0  0  0  0  0
    1.1617   14.9224    0.3094 H   0  0  0  0  0  0  0  0  0  0  0  0
    2.0776   15.8356   -0.9371 H   0  0  0  0  0  0  0  0  0  0  0  0
    0.2817   15.8703   -0.9371 H   0  0  0  0  0  0  0  0  0  0  0  0
    1.9796    9.6437    0.8673 H   0  0  0  0  0  0  0  0  0  0  0  0
    2.3935    8.5594   -0.5037 H   0  0  0  0  0  0  0  0  0  0  0  0
    2.9608   10.2638   -0.5037 H   0  0  0  0  0  0  0  0  0  0  0  0
    1.0828    9.0954   -2.9088 H   0  0  0  0  0  0  0  0  0  0  0  0
    0.7779    7.9486   -1.4851 H   0  0  0  0  0  0  0  0  0  0  0  0
   -1.2688    9.5662   -3.0269 H   0  0  0  0  0  0  0  0  0  0  0  0
   -1.0714    7.7711   -2.9541 H   0  0  0  0  0  0  0  0  0  0  0  0
   -1.5407    7.6211    0.7406 H   0  0  0  0  0  0  0  0  0  0  0  0
   -2.1459    6.5621   -0.5780 H   0  0  0  0  0  0  0  0  0  0  0  0
   -0.4344    7.1073   -0.5780 H   0  0  0  0  0  0  0  0  0  0  0  0
  1  2  1  0
  2  3  1  0
  3  4  1  0
  4  5  1  0
  5  6  1  0
  6  7  1  0
  7  8  1  0
  7  9  1  0
  2 10  1  0
 10 11  1  0
 11 12  1  0
 12 13  1  0
 13 14  1  6
 13 15  1  0
 15 16  1  0
 16 17  1  0
 17 18  2  0
 18 19  1  0
 19 20  1  0
 20 21  1  0
 21 22  1  0
 22 23  1  0
 22 24  1  0
 24 25  1  0
 24 26  1  0
 19 27  1  0
 27 28  1  1
 27 29  1  0
 29 30  1  0
 30 31  1  0
 31 32  1  1
  7  5  1  0
 31 10  1  0
 31 13  1  0
 27 15  1  0
 24 18  1  0
  1 33  1  0
  1 34  1  0
  1 35  1  0
  2 36  1  1
  3 37  1  0
  3 38  1  0
  4 39  1  0
  4 40  1  0
  5 41  1  1
  8 42  1  0
  8 43  1  0
  8 44  1  0
  9 45  1  0
  9 46  1  0
  9 47  1  0
 10 48  1  6
 11 49  1  0
 11 50  1  0
 12 51  1  0
 12 52  1  0
 14 53  1  0
 14 54  1  0
 14 55  1  0
 15 56  1  1
 16 57  1  0
 16 58  1  0
 17 59  1  0
 19 60  1  6
 20 61  1  0
 20 62  1  0
 21 63  1  0
 21 64  1  0
 22 65  1  6
 23 66  1  0
 25 67  1  0
 25 68  1  0
 25 69  1  0
 26 70  1  0
 26 71  1  0
 26 72  1  0
 28 73  1  0
 28 74  1  0
 28 75  1  0
 29 76  1  0
 29 77  1  0
 30 78  1  0
 30 79  1  0
 32 80  1  0
 32 81  1  0
 32 82  1  0
M  END
>  <meeko>  (12) 
{"is_sidechain": [false], "intermolecular_energy": 2.731, "internal_energy": -0.839}

$$$$
EPH_relaxed_0001_pdb2pqr_Repair_22_r2_0001_out
     RDKit          3D

 82 86  0  0  0  0  0  0  0  0999 V2000
   -0.8500   16.3460   -5.8410 C   0  0  0  0  0  0  0  0  0  0  0  0
    0.2390   15.6440   -6.6560 C   0  0  2  0  0  0  0  0  0  0  0  0
   -0.1660   15.4650   -8.1330 C   0  0  0  0  0  0  0  0  0  0  0  0
    0.4610   16.4980   -9.0730 C   0  0  0  0  0  0  0  0  0  0  0  0
    1.8650   16.1280   -9.4460 C   0  0  2  0  0  0  0  0  0  0  0  0
    2.3260   16.6940  -10.6800 O   0  0  0  0  0  0  0  0  0  0  0  0
    2.2120   15.2620  -10.6430 C   0  0  0  0  0  0  0  0  0  0  0  0
    1.1510   14.7120  -11.5420 C   0  0  0  0  0  0  0  0  0  0  0  0
    3.5310   14.5530  -10.6540 C   0  0  0  0  0  0  0  0  0  0  0  0
    0.5610   14.2890   -6.0370 C   0  0  1  0  0  0  0  0  0  0  0  0
    1.8330   13.6400   -6.6460 C   0  0  0  0  0  0  0  0  0  0  0  0
    2.5380   12.8730   -5.4980 C   0  0  0  0  0  0  0  0  0  0  0  0
    1.4910   12.8260   -4.3600 C   0  0  1  0  0  0  0  0  0  0  0  0
    0.5420   11.6450   -4.7370 C   0  0  0  0  0  0  0  0  0  0  0  0
    2.0540   12.6750   -2.9100 C   0  0  2  0  0  0  0  0  0  0  0  0
    2.8280   11.3720   -2.6430 C   0  0  0  0  0  0  0  0  0  0  0  0
    2.0050   10.2320   -2.1410 C   0  0  0  0  0  0  0  0  0  0  0  0
    0.7580   10.3280   -1.6440 C   0  0  0  0  0  0  0  0  0  0  0  0
    0.0860   11.6940   -1.4580 C   0  0  1  0  0  0  0  0  0  0  0  0
   -0.5690   11.7630   -0.0530 C   0  0  0  0  0  0  0  0  0  0  0  0
   -1.5270   10.6030    0.2020 C   0  0  0  0  0  0  0  0  0  0  0  0
   -0.8090    9.2620    0.0650 C   0  0  2  0  0  0  0  0  0  0  0  0
    0.1510    9.1440    1.1200 O   0  0  0  0  0  0  0  0  0  0  0  0
   -0.1010    9.0840   -1.3070 C   0  0  0  0  0  0  0  0  0  0  0  0
   -1.1630    8.9100   -2.4210 C   0  0  0  0  0  0  0  0  0  0  0  0
    0.7010    7.7550   -1.2610 C   0  0  0  0  0  0  0  0  0  0  0  0
    0.9940   12.9610   -1.7700 C   0  0  1  0  0  0  0  0  0  0  0  0
    1.8040   13.3610   -0.4990 C   0  0  0  0  0  0  0  0  0  0  0  0
    0.0660   14.1870   -2.1100 C   0  0  0  0  0  0  0  0  0  0  0  0
   -0.3580   14.3500   -3.5820 C   0  0  0  0  0  0  0  0  0  0  0  0
    0.8520   14.2540   -4.5150 C   0  0  2  0  0  0  0  0  0  0  0  0
    1.8140   15.4430   -4.1750 C   0  0  0  0  0  0  0  0  0  0  0  0
   -0.6467   16.2150   -4.7679 H   0  0  0  0  0  0  0  0  0  0  0  0
   -0.8563   17.4186   -6.0847 H   0  0  0  0  0  0  0  0  0  0  0  0
   -1.8296   15.9089   -6.0847 H   0  0  0  0  0  0  0  0  0  0  0  0
    1.1330   16.2845   -6.6334 H   0  0  0  0  0  0  0  0  0  0  0  0
    0.1475   14.4626   -8.4600 H   0  0  0  0  0  0  0  0  0  0  0  0
   -1.2561   15.6022   -8.1861 H   0  0  0  0  0  0  0  0  0  0  0  0
   -0.1459   16.5619   -9.9882 H   0  0  0  0  0  0  0  0  0  0  0  0
    0.4887   17.4653   -8.5500 H   0  0  0  0  0  0  0  0  0  0  0  0
    2.1572   16.0743   -8.3869 H   0  0  0  0  0  0  0  0  0  0  0  0
    0.3374   14.2902  -10.9336 H   0  0  0  0  0  0  0  0  0  0  0  0
    0.7543   15.5180  -12.1768 H   0  0  0  0  0  0  0  0  0  0  0  0
    1.5810   13.9232  -12.1768 H   0  0  0  0  0  0  0  0  0  0  0  0
    3.8607   14.3758   -9.6196 H   0  0  0  0  0  0  0  0  0  0  0  0
    3.4254   13.5901  -11.1752 H   0  0  0  0  0  0  0  0  0  0  0  0
    4.2758   15.1723  -11.1752 H   0  0  0  0  0  0  0  0  0  0  0  0
   -0.3786   13.7596   -6.2537 H   0  0  0  0  0  0  0  0  0  0  0  0
    1.5546   12.9442   -7.4513 H   0  0  0  0  0  0  0  0  0  0  0  0
    2.4976   14.4031   -7.0772 H   0  0  0  0  0  0  0  0  0  0  0  0
    2.8086   11.8563   -5.8190 H   0  0  0  0  0  0  0  0  0  0  0  0
    3.4737   13.3590   -5.1844 H   0  0  0  0  0  0  0  0  0  0  0  0
    0.1623   11.1724   -3.8191 H   0  0  0  0  0  0  0  0  0  0  0  0
   -0.3026   12.0278   -5.3287 H   0  0  0  0  0  0  0  0  0  0  0  0
    1.0977   10.9027   -5.3287 H   0  0  0  0  0  0  0  0  0  0  0  0
    2.8005   13.4815   -2.8618 H   0  0  0  0  0  0  0  0  0  0  0  0
    3.3025   11.0596   -3.5849 H   0  0  0  0  0  0  0  0  0  0  0  0
    3.5465   11.6037   -1.8429 H   0  0  0  0  0  0  0  0  0  0  0  0
    2.4557    9.2294   -2.1807 H   0  0  0  0  0  0  0  0  0  0  0  0
   -0.6900   11.7590   -2.2349 H   0  0  0  0  0  0  0  0  0  0  0  0
    0.2249   11.7388    0.7080 H   0  0  0  0  0  0  0  0  0  0  0  0
   -1.1508   12.6951   -0.0006 H   0  0  0  0  0  0  0  0  0  0  0  0
   -1.9354   10.6904    1.2196 H   0  0  0  0  0  0  0  0  0  0  0  0
   -2.3361   10.6457   -0.5421 H   0  0  0  0  0  0  0  0  0  0  0  0
   -1.5709    8.4712    0.1300 H   0  0  0  0  0  0  0  0  0  0  0  0
    1.0290    9.0610    0.7110 H   0  0  0  0  0  0  0  0  0  0  0  0
   -2.1505    8.7482   -1.9642 H   0  0  0  0  0  0  0  0  0  0  0  0
   -1.1916    9.8154   -3.0450 H   0  0  0  0  0  0  0  0  0  0  0  0
   -0.9011    8.0428   -3.0450 H   0  0  0  0  0  0  0  0  0  0  0  0
    0.8745    7.4675   -0.2135 H   0  0  0  0  0  0  0  0  0  0  0  0
    0.1293    6.9640   -1.7685 H   0  0  0  0  0  0  0  0  0  0  0  0
    1.6673    7.8921   -1.7685 H   0  0  0  0  0  0  0  0  0  0  0  0
    1.2365   13.0808    0.4007 H   0  0  0  0  0  0  0  0  0  0  0  0
    2.7711   12.8369   -0.5005 H   0  0  0  0  0  0  0  0  0  0  0  0
    1.9758   14.4475   -0.5005 H   0  0  0  0  0  0  0  0  0  0  0  0
   -0.8499   14.0879   -1.5089 H   0  0  0  0  0  0  0  0  0  0  0  0
    0.6713   15.0774   -1.8845 H   0  0  0  0  0  0  0  0  0  0  0  0
   -1.0750   13.5566   -3.8399 H   0  0  0  0  0  0  0  0  0  0  0  0
   -0.8189   15.3410   -3.7064 H   0  0  0  0  0  0  0  0  0  0  0  0
    1.8976   15.5463   -3.0831 H   0  0  0  0  0  0  0  0  0  0  0  0
    2.8081   15.2438   -4.6016 H   0  0  0  0  0  0  0  0  0  0  0  0
    1.4117   16.3737   -4.6016 H   0  0  0  0  0  0  0  0  0  0  0  0
  1  2  1  0
  2  3  1  0
  3  4  1  0
  4  5  1  0
  5  6  1  0
  6  7  1  0
  7  8  1  0
  7  9  1  0
  2 10  1  0
 10 11  1  0
 11 12  1  0
 12 13  1  0
 13 14  1  6
 13 15  1  0
 15 16  1  0
 16 17  1  0
 17 18  2  0
 18 19  1  0
 19 20  1  0
 20 21  1  0
 21 22  1  0
 22 23  1  0
 22 24  1  0
 24 25  1  0
 24 26  1  0
 19 27  1  0
 27 28  1  1
 27 29  1  0
 29 30  1  0
 30 31  1  0
 31 32  1  1
  7  5  1  0
 31 10  1  0
 31 13  1  0
 27 15  1  0
 24 18  1  0
  1 33  1  0
  1 34  1  0
  1 35  1  0
  2 36  1  6
  3 37  1  0
  3 38  1  0
  4 39  1  0
  4 40  1  0
  5 41  1  1
  8 42  1  0
  8 43  1  0
  8 44  1  0
  9 45  1  0
  9 46  1  0
  9 47  1  0
 10 48  1  1
 11 49  1  0
 11 50  1  0
 12 51  1  0
 12 52  1  0
 14 53  1  0
 14 54  1  0
 14 55  1  0
 15 56  1  6
 16 57  1  0
 16 58  1  0
 17 59  1  0
 19 60  1  6
 20 61  1  0
 20 62  1  0
 21 63  1  0
 21 64  1  0
 22 65  1  1
 23 66  1  0
 25 67  1  0
 25 68  1  0
 25 69  1  0
 26 70  1  0
 26 71  1  0
 26 72  1  0
 28 73  1  0
 28 74  1  0
 28 75  1  0
 29 76  1  0
 29 77  1  0
 30 78  1  0
 30 79  1  0
 32 80  1  0
 32 81  1  0
 32 82  1  0
M  END
>  <meeko>  (13) 
{"is_sidechain": [false], "intermolecular_energy": 2.731, "internal_energy": -0.839}

$$$$
EPH_relaxed_0001_pdb2pqr_Repair_22_r2_0001_out
     RDKit          3D

 82 86  0  0  0  0  0  0  0  0999 V2000
   -0.2920   15.1050   -7.6210 C   0  0  0  0  0  0  0  0  0  0  0  0
    1.0850   15.0720   -6.9530 C   0  0  2  0  0  0  0  0  0  0  0  0
    2.2310   15.1560   -7.9810 C   0  0  0  0  0  0  0  0  0  0  0  0
    2.2610   16.4710   -8.7650 C   0  0  0  0  0  0  0  0  0  0  0  0
    1.8570   16.2730  -10.1940 C   0  0  2  0  0  0  0  0  0  0  0  0
    1.2010   15.0270  -10.4650 O   0  0  0  0  0  0  0  0  0  0  0  0
    2.4740   15.2240  -11.1010 C   0  0  0  0  0  0  0  0  0  0  0  0
    3.5480   14.3040  -10.6110 C   0  0  0  0  0  0  0  0  0  0  0  0
    2.3850   15.4160  -12.5820 C   0  0  0  0  0  0  0  0  0  0  0  0
    1.2260   13.8060   -6.1170 C   0  0  1  0  0  0  0  0  0  0  0  0
    2.6560   13.2040   -6.1810 C   0  0  0  0  0  0  0  0  0  0  0  0
    2.9480   12.5960   -4.7850 C   0  0  0  0  0  0  0  0  0  0  0  0
    1.5740   12.5710   -4.0750 C   0  0  1  0  0  0  0  0  0  0  0  0
    0.8640   11.2920   -4.6220 C   0  0  0  0  0  0  0  0  0  0  0  0
    1.6030   12.5910   -2.5120 C   0  0  2  0  0  0  0  0  0  0  0  0
    2.2890   11.3790   -1.8560 C   0  0  0  0  0  0  0  0  0  0  0  0
    1.3900   10.2290   -1.5450 C   0  0  0  0  0  0  0  0  0  0  0  0
    0.0450   10.2730   -1.5170 C   0  0  0  0  0  0  0  0  0  0  0  0
   -0.7050   11.5960   -1.7220 C   0  0  1  0  0  0  0  0  0  0  0  0
   -1.8090   11.7370   -0.6420 C   0  0  0  0  0  0  0  0  0  0  0  0
   -2.7480   10.5350   -0.6040 C   0  0  0  0  0  0  0  0  0  0  0  0
   -1.9730    9.2470   -0.3410 C   0  0  2  0  0  0  0  0  0  0  0  0
   -1.4360    9.2950    0.9850 O   0  0  0  0  0  0  0  0  0  0  0  0
   -0.8260    9.0020   -1.3610 C   0  0  0  0  0  0  0  0  0  0  0  0
   -1.4270    8.6510   -2.7450 C   0  0  0  0  0  0  0  0  0  0  0  0
   -0.0370    7.7470   -0.9000 C   0  0  0  0  0  0  0  0  0  0  0  0
    0.2030   12.8950   -1.8410 C   0  0  1  0  0  0  0  0  0  0  0  0
    0.5030   13.4660   -0.4220 C   0  0  0  0  0  0  0  0  0  0  0  0
   -0.5980   14.0130   -2.6090 C   0  0  0  0  0  0  0  0  0  0  0  0
   -0.4910   14.0130   -4.1460 C   0  0  0  0  0  0  0  0  0  0  0  0
    0.9710   13.9270   -4.5940 C   0  0  2  0  0  0  0  0  0  0  0  0
    1.7060   15.2110   -4.0770 C   0  0  0  0  0  0  0  0  0  0  0  0
   -1.0742   15.1237   -6.8479 H   0  0  0  0  0  0  0  0  0  0  0  0
   -0.3741   16.0054   -8.2476 H   0  0  0  0  0  0  0  0  0  0  0  0
   -0.4171   14.2096   -8.2476 H   0  0  0  0  0  0  0  0  0  0  0  0
    1.1596   15.9565   -6.3033 H   0  0  0  0  0  0  0  0  0  0  0  0
    3.1860   15.0493   -7.4456 H   0  0  0  0  0  0  0  0  0  0  0  0
    2.0664   14.3504   -8.7117 H   0  0  0  0  0  0  0  0  0  0  0  0
    1.5674   17.1830   -8.2938 H   0  0  0  0  0  0  0  0  0  0  0  0
    3.2913   16.8560   -8.7499 H   0  0  0  0  0  0  0  0  0  0  0  0
    1.6916   17.3531  -10.3205 H   0  0  0  0  0  0  0  0  0  0  0  0
    3.5533   14.2995   -9.5110 H   0  0  0  0  0  0  0  0  0  0  0  0
    3.3558   13.2861  -10.9809 H   0  0  0  0  0  0  0  0  0  0  0  0
    4.5244   14.6503  -10.9809 H   0  0  0  0  0  0  0  0  0  0  0  0
    1.9314   16.3945  -12.7983 H   0  0  0  0  0  0  0  0  0  0  0  0
    3.3939   15.3750  -13.0183 H   0  0  0  0  0  0  0  0  0  0  0  0
    1.7642   14.6196  -13.0183 H   0  0  0  0  0  0  0  0  0  0  0  0
    0.4419   13.1901   -6.5817 H   0  0  0  0  0  0  0  0  0  0  0  0
    2.7034   12.4214   -6.9525 H   0  0  0  0  0  0  0  0  0  0  0  0
    3.3977   13.9742   -6.4394 H   0  0  0  0  0  0  0  0  0  0  0  0
    3.3536   11.5781   -4.8819 H   0  0  0  0  0  0  0  0  0  0  0  0
    3.6962   13.1766   -4.2254 H   0  0  0  0  0  0  0  0  0  0  0  0
    0.5210   10.6741   -3.7790 H   0  0  0  0  0  0  0  0  0  0  0  0
    0.0002   11.5864   -5.2361 H   0  0  0  0  0  0  0  0  0  0  0  0
    1.5707   10.7146   -5.2361 H   0  0  0  0  0  0  0  0  0  0  0  0
    2.2524   13.4532   -2.3000 H   0  0  0  0  0  0  0  0  0  0  0  0
    3.0739   11.0219   -2.5389 H   0  0  0  0  0  0  0  0  0  0  0  0
    2.6747   11.7341   -0.8889 H   0  0  0  0  0  0  0  0  0  0  0  0
    1.8669    9.2637   -1.3196 H   0  0  0  0  0  0  0  0  0  0  0  0
   -1.1649   11.5351   -2.7194 H   0  0  0  0  0  0  0  0  0  0  0  0
   -1.3284   11.8401    0.3421 H   0  0  0  0  0  0  0  0  0  0  0  0
   -2.4108   12.6227   -0.8937 H   0  0  0  0  0  0  0  0  0  0  0  0
   -3.4872   10.6806    0.1975 H   0  0  0  0  0  0  0  0  0  0  0  0
   -3.2502   10.4503   -1.5790 H   0  0  0  0  0  0  0  0  0  0  0  0
   -2.6770    8.4095   -0.4548 H   0  0  0  0  0  0  0  0  0  0  0  0
   -1.2980    8.3780    1.2790 H   0  0  0  0  0  0  0  0  0  0  0  0
   -2.3693    8.1007   -2.6066 H   0  0  0  0  0  0  0  0  0  0  0  0
   -1.6222    9.5771   -3.3055 H   0  0  0  0  0  0  0  0  0  0  0  0
   -0.7163    8.0260   -3.3055 H   0  0  0  0  0  0  0  0  0  0  0  0
   -0.0146    7.7113    0.1992 H   0  0  0  0  0  0  0  0  0  0  0  0
   -0.5291    6.8422   -1.2863 H   0  0  0  0  0  0  0  0  0  0  0  0
    0.9917    7.7983   -1.2863 H   0  0  0  0  0  0  0  0  0  0  0  0
    0.1344   12.7645    0.3410 H   0  0  0  0  0  0  0  0  0  0  0  0
    1.5882   13.6005   -0.3028 H   0  0  0  0  0  0  0  0  0  0  0  0
   -0.0020   14.4360   -0.3028 H   0  0  0  0  0  0  0  0  0  0  0  0
   -1.6608   13.8986   -2.3495 H   0  0  0  0  0  0  0  0  0  0  0  0
   -0.1448   14.9629   -2.2890 H   0  0  0  0  0  0  0  0  0  0  0  0
   -1.0410   13.1480   -4.5450 H   0  0  0  0  0  0  0  0  0  0  0  0
   -0.9199   14.9514   -4.5273 H   0  0  0  0  0  0  0  0  0  0  0  0
    1.7080   15.2145   -2.9770 H   0  0  0  0  0  0  0  0  0  0  0  0
    2.7424   15.2137   -4.4456 H   0  0  0  0  0  0  0  0  0  0  0  0
    1.1835   16.1061   -4.4456 H   0  0  0  0  0  0  0  0  0  0  0  0
  1  2  1  0
  2  3  1  0
  3  4  1  0
  4  5  1  0
  5  6  1  0
  6  7  1  0
  7  8  1  0
  7  9  1  0
  2 10  1  0
 10 11  1  0
 11 12  1  0
 12 13  1  0
 13 14  1  1
 13 15  1  0
 15 16  1  0
 16 17  1  0
 17 18  2  0
 18 19  1  0
 19 20  1  0
 20 21  1  0
 21 22  1  0
 22 23  1  0
 22 24  1  0
 24 25  1  0
 24 26  1  0
 19 27  1  0
 27 28  1  1
 27 29  1  0
 29 30  1  0
 30 31  1  0
 31 32  1  1
  7  5  1  0
 31 10  1  0
 31 13  1  0
 27 15  1  0
 24 18  1  0
  1 33  1  0
  1 34  1  0
  1 35  1  0
  2 36  1  1
  3 37  1  0
  3 38  1  0
  4 39  1  0
  4 40  1  0
  5 41  1  6
  8 42  1  0
  8 43  1  0
  8 44  1  0
  9 45  1  0
  9 46  1  0
  9 47  1  0
 10 48  1  6
 11 49  1  0
 11 50  1  0
 12 51  1  0
 12 52  1  0
 14 53  1  0
 14 54  1  0
 14 55  1  0
 15 56  1  6
 16 57  1  0
 16 58  1  0
 17 59  1  0
 19 60  1  6
 20 61  1  0
 20 62  1  0
 21 63  1  0
 21 64  1  0
 22 65  1  1
 23 66  1  0
 25 67  1  0
 25 68  1  0
 25 69  1  0
 26 70  1  0
 26 71  1  0
 26 72  1  0
 28 73  1  0
 28 74  1  0
 28 75  1  0
 29 76  1  0
 29 77  1  0
 30 78  1  0
 30 79  1  0
 32 80  1  0
 32 81  1  0
 32 82  1  0
M  END
>  <meeko>  (14) 
{"is_sidechain": [false], "intermolecular_energy": 2.731, "internal_energy": -0.839}

$$$$
EPH_relaxed_0001_pdb2pqr_Repair_22_r2_0001_out
     RDKit          3D

 82 86  0  0  0  0  0  0  0  0999 V2000
   -2.3660    7.8440   -2.2150 C   0  0  0  0  0  0  0  0  0  0  0  0
   -2.2470    8.4160   -0.8000 C   0  0  2  0  0  0  0  0  0  0  0  0
   -3.5890    8.3760   -0.0420 C   0  0  0  0  0  0  0  0  0  0  0  0
   -4.8090    8.6040   -0.9380 C   0  0  0  0  0  0  0  0  0  0  0  0
   -5.5320    7.3230   -1.2270 C   0  0  2  0  0  0  0  0  0  0  0  0
   -5.6700    7.0140   -2.6200 O   0  0  0  0  0  0  0  0  0  0  0  0
   -6.8900    7.2620   -1.9020 C   0  0  0  0  0  0  0  0  0  0  0  0
   -7.6040    8.5060   -2.3300 C   0  0  0  0  0  0  0  0  0  0  0  0
   -7.7330    6.0410   -1.7060 C   0  0  0  0  0  0  0  0  0  0  0  0
   -1.7260    9.8480   -0.8600 C   0  0  1  0  0  0  0  0  0  0  0  0
   -1.3100   10.3910    0.5330 C   0  0  0  0  0  0  0  0  0  0  0  0
   -0.0900   11.3200    0.3040 C   0  0  0  0  0  0  0  0  0  0  0  0
   -0.0500   11.5420   -1.2260 C   0  0  1  0  0  0  0  0  0  0  0  0
   -1.1080   12.6580   -1.4960 C   0  0  0  0  0  0  0  0  0  0  0  0
    1.3430   11.9080   -1.8350 C   0  0  2  0  0  0  0  0  0  0  0  0
    1.9460   13.2320   -1.3350 C   0  0  0  0  0  0  0  0  0  0  0  0
    1.5910   14.4390   -2.1400 C   0  0  0  0  0  0  0  0  0  0  0  0
    1.0580   14.4250   -3.3760 C   0  0  0  0  0  0  0  0  0  0  0  0
    0.8490   13.1050   -4.1290 C   0  0  1  0  0  0  0  0  0  0  0  0
    1.3640   13.2520   -5.5850 C   0  0  0  0  0  0  0  0  0  0  0  0
    0.7410   14.4420   -6.3090 C   0  0  0  0  0  0  0  0  0  0  0  0
    1.0200   15.7430   -5.5600 C   0  0  2  0  0  0  0  0  0  0  0  0
    2.4240   16.0140   -5.6160 O   0  0  0  0  0  0  0  0  0  0  0  0
    0.5520   15.7090   -4.0780 C   0  0  0  0  0  0  0  0  0  0  0  0
   -0.9950   15.7180   -4.0210 C   0  0  0  0  0  0  0  0  0  0  0  0
    1.0190   17.0260   -3.4010 C   0  0  0  0  0  0  0  0  0  0  0  0
    1.4090   11.8020   -3.4120 C   0  0  1  0  0  0  0  0  0  0  0  0
    2.9090   11.5940   -3.7820 C   0  0  0  0  0  0  0  0  0  0  0  0
    0.6380   10.5430   -3.9600 C   0  0  0  0  0  0  0  0  0  0  0  0
   -0.6700   10.1620   -3.2400 C   0  0  0  0  0  0  0  0  0  0  0  0
   -0.4660   10.1100   -1.7230 C   0  0  2  0  0  0  0  0  0  0  0  0
    0.5770    8.9820   -1.4180 C   0  0  0  0  0  0  0  0  0  0  0  0
   -2.5897    6.7685   -2.1581 H   0  0  0  0  0  0  0  0  0  0  0  0
   -3.1762    8.3592   -2.7518 H   0  0  0  0  0  0  0  0  0  0  0  0
   -1.4176    7.9933   -2.7518 H   0  0  0  0  0  0  0  0  0  0  0  0
   -1.5365    7.7841   -0.2470 H   0  0  0  0  0  0  0  0  0  0  0  0
   -3.6886    7.3903    0.4360 H   0  0  0  0  0  0  0  0  0  0  0  0
   -3.5695    9.1973    0.6895 H   0  0  0  0  0  0  0  0  0  0  0  0
   -5.4983    9.2961   -0.4322 H   0  0  0  0  0  0  0  0  0  0  0  0
   -4.4594    9.0234   -1.8930 H   0  0  0  0  0  0  0  0  0  0  0  0
   -5.1472    6.8701   -0.3014 H   0  0  0  0  0  0  0  0  0  0  0  0
   -7.9265    9.0679   -1.4411 H   0  0  0  0  0  0  0  0  0  0  0  0
   -6.9261    9.1292   -2.9317 H   0  0  0  0  0  0  0  0  0  0  0  0
   -8.4841    8.2351   -2.9317 H   0  0  0  0  0  0  0  0  0  0  0  0
   -7.8624    5.8536   -0.6298 H   0  0  0  0  0  0  0  0  0  0  0  0
   -8.7172    6.1963   -2.1721 H   0  0  0  0  0  0  0  0  0  0  0  0
   -7.2390    5.1757   -2.1721 H   0  0  0  0  0  0  0  0  0  0  0  0
   -2.5993   10.3440   -1.3087 H   0  0  0  0  0  0  0  0  0  0  0  0
   -2.1390   10.9579    0.9817 H   0  0  0  0  0  0  0  0  0  0  0  0
   -1.0574    9.5686    1.2185 H   0  0  0  0  0  0  0  0  0  0  0  0
   -0.2253   12.2757    0.8316 H   0  0  0  0  0  0  0  0  0  0  0  0
    0.8443   10.8833    0.6866 H   0  0  0  0  0  0  0  0  0  0  0  0
   -1.4799   13.0502   -0.5379 H   0  0  0  0  0  0  0  0  0  0  0  0
   -0.6430   13.4729   -2.0701 H   0  0  0  0  0  0  0  0  0  0  0  0
   -1.9466   12.2371   -2.0701 H   0  0  0  0  0  0  0  0  0  0  0  0
    1.9912   11.1146   -1.4346 H   0  0  0  0  0  0  0  0  0  0  0  0
    1.5979   13.3963   -0.3045 H   0  0  0  0  0  0  0  0  0  0  0  0
    3.0371   13.1204   -1.4190 H   0  0  0  0  0  0  0  0  0  0  0  0
    1.7811   15.4221   -1.6845 H   0  0  0  0  0  0  0  0  0  0  0  0
   -0.2363   12.9260   -4.1337 H   0  0  0  0  0  0  0  0  0  0  0  0
    2.4555   13.3860   -5.5610 H   0  0  0  0  0  0  0  0  0  0  0  0
    1.0796   12.3417   -6.1331 H   0  0  0  0  0  0  0  0  0  0  0  0
    1.1666   14.5108   -7.3210 H   0  0  0  0  0  0  0  0  0  0  0  0
   -0.3476   14.2920   -6.3591 H   0  0  0  0  0  0  0  0  0  0  0  0
    0.4419   16.5387   -6.0525 H   0  0  0  0  0  0  0  0  0  0  0  0
    2.5410   16.8630   -6.0760 H   0  0  0  0  0  0  0  0  0  0  0  0
   -1.3232   15.7199   -2.9711 H   0  0  0  0  0  0  0  0  0  0  0  0
   -1.3753   16.6184   -4.5257 H   0  0  0  0  0  0  0  0  0  0  0  0
   -1.3857   14.8221   -4.5257 H   0  0  0  0  0  0  0  0  0  0  0  0
    0.9782   16.9108   -2.3078 H   0  0  0  0  0  0  0  0  0  0  0  0
    2.0513   17.2499   -3.7078 H   0  0  0  0  0  0  0  0  0  0  0  0
    0.3583   17.8503   -3.7078 H   0  0  0  0  0  0  0  0  0  0  0  0
    3.5056   11.5113   -2.8616 H   0  0  0  0  0  0  0  0  0  0  0  0
    3.0165   10.6723   -4.3728 H   0  0  0  0  0  0  0  0  0  0  0  0
    3.2633   12.4516   -4.3728 H   0  0  0  0  0  0  0  0  0  0  0  0
    0.3932   10.7358   -5.0150 H   0  0  0  0  0  0  0  0  0  0  0  0
    1.3170    9.6940   -3.7922 H   0  0  0  0  0  0  0  0  0  0  0  0
   -1.4408   10.9111   -3.4739 H   0  0  0  0  0  0  0  0  0  0  0  0
   -0.9833    9.1659   -3.5860 H   0  0  0  0  0  0  0  0  0  0  0  0
    0.6841    8.8662   -0.3294 H   0  0  0  0  0  0  0  0  0  0  0  0
    0.2303    8.0340   -1.8552 H   0  0  0  0  0  0  0  0  0  0  0  0
    1.5492    9.2535   -1.8552 H   0  0  0  0  0  0  0  0  0  0  0  0
  1  2  1  0
  2  3  1  0
  3  4  1  0
  4  5  1  0
  5  6  1  0
  6  7  1  0
  7  8  1  0
  7  9  1  0
  2 10  1  0
 10 11  1  0
 11 12  1  0
 12 13  1  0
 13 14  1  1
 13 15  1  0
 15 16  1  0
 16 17  1  0
 17 18  2  0
 18 19  1  0
 19 20  1  0
 20 21  1  0
 21 22  1  0
 22 23  1  0
 22 24  1  0
 24 25  1  0
 24 26  1  0
 19 27  1  0
 27 28  1  1
 27 29  1  0
 29 30  1  0
 30 31  1  0
 31 32  1  6
  7  5  1  0
 31 10  1  0
 31 13  1  0
 27 15  1  0
 24 18  1  0
  1 33  1  0
  1 34  1  0
  1 35  1  0
  2 36  1  1
  3 37  1  0
  3 38  1  0
  4 39  1  0
  4 40  1  0
  5 41  1  1
  8 42  1  0
  8 43  1  0
  8 44  1  0
  9 45  1  0
  9 46  1  0
  9 47  1  0
 10 48  1  6
 11 49  1  0
 11 50  1  0
 12 51  1  0
 12 52  1  0
 14 53  1  0
 14 54  1  0
 14 55  1  0
 15 56  1  1
 16 57  1  0
 16 58  1  0
 17 59  1  0
 19 60  1  6
 20 61  1  0
 20 62  1  0
 21 63  1  0
 21 64  1  0
 22 65  1  6
 23 66  1  0
 25 67  1  0
 25 68  1  0
 25 69  1  0
 26 70  1  0
 26 71  1  0
 26 72  1  0
 28 73  1  0
 28 74  1  0
 28 75  1  0
 29 76  1  0
 29 77  1  0
 30 78  1  0
 30 79  1  0
 32 80  1  0
 32 81  1  0
 32 82  1  0
M  END
>  <meeko>  (15) 
{"is_sidechain": [false], "intermolecular_energy": 2.731, "internal_energy": -0.839}

$$$$
EPH_relaxed_0001_pdb2pqr_Repair_22_r2_0001_out
     RDKit          3D

 82 86  0  0  0  0  0  0  0  0999 V2000
    2.8870   11.3640   -5.3160 C   0  0  0  0  0  0  0  0  0  0  0  0
    1.8730   11.0620   -4.2090 C   0  0  2  0  0  0  0  0  0  0  0  0
    0.7630   10.1030   -4.6840 C   0  0  0  0  0  0  0  0  0  0  0  0
   -0.3280    9.8580   -3.6380 C   0  0  0  0  0  0  0  0  0  0  0  0
    0.1810    9.0450   -2.4870 C   0  0  2  0  0  0  0  0  0  0  0  0
   -0.6930    7.9890   -2.0670 O   0  0  0  0  0  0  0  0  0  0  0  0
   -0.4670    9.0410   -1.1150 C   0  0  0  0  0  0  0  0  0  0  0  0
   -1.6790    9.8670   -0.8220 C   0  0  0  0  0  0  0  0  0  0  0  0
    0.3560    8.6210    0.0630 C   0  0  0  0  0  0  0  0  0  0  0  0
    1.2570   12.3600   -3.7000 C   0  0  1  0  0  0  0  0  0  0  0  0
   -0.2810   12.2620   -3.5200 C   0  0  0  0  0  0  0  0  0  0  0  0
   -0.6440   13.1300   -2.2880 C   0  0  0  0  0  0  0  0  0  0  0  0
    0.6320   13.9560   -2.0040 C   0  0  1  0  0  0  0  0  0  0  0  0
    0.5750   15.1440   -3.0160 C   0  0  0  0  0  0  0  0  0  0  0  0
    0.8170   14.4580   -0.5350 C   0  0  2  0  0  0  0  0  0  0  0  0
   -0.2700   15.4250   -0.0340 C   0  0  0  0  0  0  0  0  0  0  0  0
    0.0090   16.8730   -0.2660 C   0  0  0  0  0  0  0  0  0  0  0  0
    1.2050   17.3970   -0.5920 C   0  0  0  0  0  0  0  0  0  0  0  0
    2.4580   16.5150   -0.6640 C   0  0  1  0  0  0  0  0  0  0  0  0
    3.6270   17.2150    0.0790 C   0  0  0  0  0  0  0  0  0  0  0  0
    3.8800   18.6310   -0.4310 C   0  0  0  0  0  0  0  0  0  0  0  0
    2.6280   19.4930   -0.2900 C   0  0  2  0  0  0  0  0  0  0  0  0
    2.3530   19.6820    1.1020 O   0  0  0  0  0  0  0  0  0  0  0  0
    1.3820   18.8830   -0.9910 C   0  0  0  0  0  0  0  0  0  0  0  0
    1.5610   18.9570   -2.5270 C   0  0  0  0  0  0  0  0  0  0  0  0
    0.1590   19.7780   -0.6530 C   0  0  0  0  0  0  0  0  0  0  0  0
    2.2680   15.0030   -0.2140 C   0  0  1  0  0  0  0  0  0  0  0  0
    2.4590   14.8780    1.3290 C   0  0  0  0  0  0  0  0  0  0  0  0
    3.3960   14.1250   -0.8730 C   0  0  0  0  0  0  0  0  0  0  0  0
    3.1050   13.5590   -2.2760 C   0  0  0  0  0  0  0  0  0  0  0  0
    1.7330   12.8790   -2.3200 C   0  0  2  0  0  0  0  0  0  0  0  0
    1.7680   11.6670   -1.3280 C   0  0  0  0  0  0  0  0  0  0  0  0
    3.8483   11.6503   -4.8645 H   0  0  0  0  0  0  0  0  0  0  0  0
    3.0269   10.4685   -5.9394 H   0  0  0  0  0  0  0  0  0  0  0  0
    2.5142   12.1901   -5.9394 H   0  0  0  0  0  0  0  0  0  0  0  0
    2.4141   10.5619   -3.3923 H   0  0  0  0  0  0  0  0  0  0  0  0
    0.2936   10.5324   -5.5813 H   0  0  0  0  0  0  0  0  0  0  0  0
    1.2405    9.1324   -4.8838 H   0  0  0  0  0  0  0  0  0  0  0  0
   -0.6837   10.8278   -3.2599 H   0  0  0  0  0  0  0  0  0  0  0  0
   -1.1445    9.2990   -4.1184 H   0  0  0  0  0  0  0  0  0  0  0  0
    1.2216    9.1936   -2.8113 H   0  0  0  0  0  0  0  0  0  0  0  0
   -1.8082    9.9551    0.2668 H   0  0  0  0  0  0  0  0  0  0  0  0
   -1.5543   10.8689   -1.2587 H   0  0  0  0  0  0  0  0  0  0  0  0
   -2.5659    9.3845   -1.2587 H   0  0  0  0  0  0  0  0  0  0  0  0
   -0.1693    8.8891    0.9916 H   0  0  0  0  0  0  0  0  0  0  0  0
    0.5127    7.5327    0.0315 H   0  0  0  0  0  0  0  0  0  0  0  0
    1.3292    9.1327    0.0315 H   0  0  0  0  0  0  0  0  0  0  0  0
    1.5876   13.0448   -4.4948 H   0  0  0  0  0  0  0  0  0  0  0  0
   -0.7922   12.6438   -4.4161 H   0  0  0  0  0  0  0  0  0  0  0  0
   -0.5955   11.2181   -3.3738 H   0  0  0  0  0  0  0  0  0  0  0  0
   -1.4925   13.7919   -2.5156 H   0  0  0  0  0  0  0  0  0  0  0  0
   -0.9482   12.5214   -1.4237 H   0  0  0  0  0  0  0  0  0  0  0  0
    0.5294   16.0942   -2.4637 H   0  0  0  0  0  0  0  0  0  0  0  0
    1.4748   15.1303   -3.6485 H   0  0  0  0  0  0  0  0  0  0  0  0
   -0.3194   15.0442   -3.6485 H   0  0  0  0  0  0  0  0  0  0  0  0
    0.6867   13.5343    0.0479 H   0  0  0  0  0  0  0  0  0  0  0  0
   -1.2107   15.1738   -0.5459 H   0  0  0  0  0  0  0  0  0  0  0  0
   -0.3140   15.2945    1.0573 H   0  0  0  0  0  0  0  0  0  0  0  0
   -0.8347   17.5711   -0.1616 H   0  0  0  0  0  0  0  0  0  0  0  0
    2.7000   16.4167   -1.7325 H   0  0  0  0  0  0  0  0  0  0  0  0
    3.3844   17.2643    1.1508 H   0  0  0  0  0  0  0  0  0  0  0  0
    4.5384   16.6266   -0.1031 H   0  0  0  0  0  0  0  0  0  0  0  0
    4.6960   19.0832    0.1518 H   0  0  0  0  0  0  0  0  0  0  0  0
    4.1517   18.5776   -1.4956 H   0  0  0  0  0  0  0  0  0  0  0  0
    2.8298   20.4523   -0.7889 H   0  0  0  0  0  0  0  0  0  0  0  0
    2.4850   20.6240    1.3020 H   0  0  0  0  0  0  0  0  0  0  0  0
    2.5543   19.3676   -2.7610 H   0  0  0  0  0  0  0  0  0  0  0  0
    1.4711   17.9480   -2.9557 H   0  0  0  0  0  0  0  0  0  0  0  0
    0.7848   19.6080   -2.9557 H   0  0  0  0  0  0  0  0  0  0  0  0
    0.0524   19.8560    0.4390 H   0  0  0  0  0  0  0  0  0  0  0  0
    0.3095   20.7808   -1.0793 H   0  0  0  0  0  0  0  0  0  0  0  0
   -0.7513   19.3312   -1.0793 H   0  0  0  0  0  0  0  0  0  0  0  0
    1.6455   15.4104    1.8435 H   0  0  0  0  0  0  0  0  0  0  0  0
    2.4413   13.8162    1.6158 H   0  0  0  0  0  0  0  0  0  0  0  0
    3.4249   15.3192    1.6158 H   0  0  0  0  0  0  0  0  0  0  0  0
    4.3011   14.7459   -0.9458 H   0  0  0  0  0  0  0  0  0  0  0  0
    3.4925   13.2440   -0.2215 H   0  0  0  0  0  0  0  0  0  0  0  0
    3.1225   14.3814   -3.0064 H   0  0  0  0  0  0  0  0  0  0  0  0
    3.8746   12.8115   -2.5188 H   0  0  0  0  0  0  0  0  0  0  0  0
    1.7572   12.0398   -0.2931 H   0  0  0  0  0  0  0  0  0  0  0  0
    0.8879   11.0292   -1.4972 H   0  0  0  0  0  0  0  0  0  0  0  0
    2.6834   11.0810   -1.4972 H   0  0  0  0  0  0  0  0  0  0  0  0
  1  2  1  0
  2  3  1  0
  3  4  1  0
  4  5  1  0
  5  6  1  0
  6  7  1  0
  7  8  1  0
  7  9  1  0
  2 10  1  0
 10 11  1  0
 11 12  1  0
 12 13  1  0
 13 14  1  6
 13 15  1  0
 15 16  1  0
 16 17  1  0
 17 18  2  0
 18 19  1  0
 19 20  1  0
 20 21  1  0
 21 22  1  0
 22 23  1  0
 22 24  1  0
 24 25  1  0
 24 26  1  0
 19 27  1  0
 27 28  1  1
 27 29  1  0
 29 30  1  0
 30 31  1  0
 31 32  1  1
  7  5  1  0
 31 10  1  0
 31 13  1  0
 27 15  1  0
 24 18  1  0
  1 33  1  0
  1 34  1  0
  1 35  1  0
  2 36  1  1
  3 37  1  0
  3 38  1  0
  4 39  1  0
  4 40  1  0
  5 41  1  1
  8 42  1  0
  8 43  1  0
  8 44  1  0
  9 45  1  0
  9 46  1  0
  9 47  1  0
 10 48  1  6
 11 49  1  0
 11 50  1  0
 12 51  1  0
 12 52  1  0
 14 53  1  0
 14 54  1  0
 14 55  1  0
 15 56  1  1
 16 57  1  0
 16 58  1  0
 17 59  1  0
 19 60  1  6
 20 61  1  0
 20 62  1  0
 21 63  1  0
 21 64  1  0
 22 65  1  6
 23 66  1  0
 25 67  1  0
 25 68  1  0
 25 69  1  0
 26 70  1  0
 26 71  1  0
 26 72  1  0
 28 73  1  0
 28 74  1  0
 28 75  1  0
 29 76  1  0
 29 77  1  0
 30 78  1  0
 30 79  1  0
 32 80  1  0
 32 81  1  0
 32 82  1  0
M  END
>  <meeko>  (16) 
{"is_sidechain": [false], "intermolecular_energy": 2.731, "internal_energy": -0.839}

$$$$
EPH_relaxed_0001_pdb2pqr_Repair_22_r2_0001_out
     RDKit          3D

 82 86  0  0  0  0  0  0  0  0999 V2000
    0.7360    9.3920   -0.0820 C   0  0  0  0  0  0  0  0  0  0  0  0
   -0.4550   10.3550   -0.1010 C   0  0  2  0  0  0  0  0  0  0  0  0
   -1.1260   10.4210   -1.4880 C   0  0  0  0  0  0  0  0  0  0  0  0
   -0.3140    9.7460   -2.5970 C   0  0  0  0  0  0  0  0  0  0  0  0
   -0.1370   10.6470   -3.7820 C   0  0  2  0  0  0  0  0  0  0  0  0
    0.4950   10.0330   -4.9120 O   0  0  0  0  0  0  0  0  0  0  0  0
    1.2180   11.1060   -4.2880 C   0  0  0  0  0  0  0  0  0  0  0  0
    2.4870   10.6790   -3.6210 C   0  0  0  0  0  0  0  0  0  0  0  0
    1.2870   12.3500   -5.1190 C   0  0  0  0  0  0  0  0  0  0  0  0
   -0.0060   11.7470    0.3260 C   0  0  1  0  0  0  0  0  0  0  0  0
    1.1120   11.7090    1.4030 C   0  0  0  0  0  0  0  0  0  0  0  0
    2.0440   12.9150    1.1220 C   0  0  0  0  0  0  0  0  0  0  0  0
    1.2600   13.7890    0.1150 C   0  0  1  0  0  0  0  0  0  0  0  0
    0.2580   14.6060    0.9880 C   0  0  0  0  0  0  0  0  0  0  0  0
    2.1150   14.7190   -0.8060 C   0  0  2  0  0  0  0  0  0  0  0  0
    2.9330   15.7940   -0.0690 C   0  0  0  0  0  0  0  0  0  0  0  0
    2.2370   17.1000    0.1300 C   0  0  0  0  0  0  0  0  0  0  0  0
    1.1210   17.4970   -0.5100 C   0  0  0  0  0  0  0  0  0  0  0  0
    0.4990   16.6350   -1.6170 C   0  0  1  0  0  0  0  0  0  0  0  0
    0.1530   17.5290   -2.8360 C   0  0  0  0  0  0  0  0  0  0  0  0
   -0.7260   18.7180   -2.4590 C   0  0  0  0  0  0  0  0  0  0  0  0
   -0.0480   19.5830   -1.3990 C   0  0  2  0  0  0  0  0  0  0  0  0
    1.1120   20.1920   -1.9740 O   0  0  0  0  0  0  0  0  0  0  0  0
    0.3570   18.7870   -0.1260 C   0  0  0  0  0  0  0  0  0  0  0  0
   -0.9150   18.3830    0.6600 C   0  0  0  0  0  0  0  0  0  0  0  0
    1.1550   19.7430    0.8000 C   0  0  0  0  0  0  0  0  0  0  0  0
    1.3170   15.3350   -2.0250 C   0  0  1  0  0  0  0  0  0  0  0  0
    2.3740   15.6920   -3.1150 C   0  0  0  0  0  0  0  0  0  0  0  0
    0.3350   14.2960   -2.6840 C   0  0  0  0  0  0  0  0  0  0  0  0
   -0.3900   13.3250   -1.7320 C   0  0  0  0  0  0  0  0  0  0  0  0
    0.5980   12.6660   -0.7650 C   0  0  2  0  0  0  0  0  0  0  0  0
    1.6060   11.8190   -1.6140 C   0  0  0  0  0  0  0  0  0  0  0  0
    1.0111    9.1696    0.9596 H   0  0  0  0  0  0  0  0  0  0  0  0
    0.4614    8.4590   -0.5960 H   0  0  0  0  0  0  0  0  0  0  0  0
    1.5908    9.8558   -0.5960 H   0  0  0  0  0  0  0  0  0  0  0  0
   -1.2015    9.9711    0.6099 H   0  0  0  0  0  0  0  0  0  0  0  0
   -2.1057    9.9250   -1.4238 H   0  0  0  0  0  0  0  0  0  0  0  0
   -1.2111   11.4850   -1.7538 H   0  0  0  0  0  0  0  0  0  0  0  0
    0.6770    9.4791   -2.2011 H   0  0  0  0  0  0  0  0  0  0  0  0
   -0.8616    8.8505   -2.9261 H   0  0  0  0  0  0  0  0  0  0  0  0
   -1.0563   11.1967   -3.5313 H   0  0  0  0  0  0  0  0  0  0  0  0
    2.3598   10.7218   -2.5292 H   0  0  0  0  0  0  0  0  0  0  0  0
    2.7308    9.6493   -3.9216 H   0  0  0  0  0  0  0  0  0  0  0  0
    3.3036   11.3518   -3.9216 H   0  0  0  0  0  0  0  0  0  0  0  0
    1.3358   13.2291   -4.4597 H   0  0  0  0  0  0  0  0  0  0  0  0
    2.1847   12.3175   -5.7539 H   0  0  0  0  0  0  0  0  0  0  0  0
    0.3912   12.4170   -5.7539 H   0  0  0  0  0  0  0  0  0  0  0  0
   -0.9684   12.1541    0.6695 H   0  0  0  0  0  0  0  0  0  0  0  0
    0.6731   11.7954    2.4079 H   0  0  0  0  0  0  0  0  0  0  0  0
    1.6687   10.7612    1.3614 H   0  0  0  0  0  0  0  0  0  0  0  0
    2.2446   13.4745    2.0476 H   0  0  0  0  0  0  0  0  0  0  0  0
    3.0228   12.6026    0.7290 H   0  0  0  0  0  0  0  0  0  0  0  0
    0.4723   14.4313    2.0527 H   0  0  0  0  0  0  0  0  0  0  0  0
    0.3652   15.6775    0.7634 H   0  0  0  0  0  0  0  0  0  0  0  0
   -0.7700   14.2853    0.7634 H   0  0  0  0  0  0  0  0  0  0  0  0
    2.8520   14.0198   -1.2277 H   0  0  0  0  0  0  0  0  0  0  0  0
    3.2013   15.3975    0.9213 H   0  0  0  0  0  0  0  0  0  0  0  0
    3.8023   16.0067   -0.7086 H   0  0  0  0  0  0  0  0  0  0  0  0
    2.6729   17.7966    0.8613 H   0  0  0  0  0  0  0  0  0  0  0  0
   -0.4229   16.2115   -1.1917 H   0  0  0  0  0  0  0  0  0  0  0  0
    1.0890   17.9070   -3.2730 H   0  0  0  0  0  0  0  0  0  0  0  0
   -0.4088   16.9126   -3.5533 H   0  0  0  0  0  0  0  0  0  0  0  0
   -0.9118   19.3271   -3.3559 H   0  0  0  0  0  0  0  0  0  0  0  0
   -1.6735   18.3383   -2.0491 H   0  0  0  0  0  0  0  0  0  0  0  0
   -0.7767   20.3414   -1.0766 H   0  0  0  0  0  0  0  0  0  0  0  0
    1.0210   21.1540   -1.8700 H   0  0  0  0  0  0  0  0  0  0  0  0
   -0.7145   18.4467    1.7397 H   0  0  0  0  0  0  0  0  0  0  0  0
   -1.7388   19.0637    0.3993 H   0  0  0  0  0  0  0  0  0  0  0  0
   -1.1950   17.3517    0.3993 H   0  0  0  0  0  0  0  0  0  0  0  0
    0.9470   19.4938    1.8510 H   0  0  0  0  0  0  0  0  0  0  0  0
    2.2313   19.6309    0.6027 H   0  0  0  0  0  0  0  0  0  0  0  0
    0.8523   20.7820    0.6027 H   0  0  0  0  0  0  0  0  0  0  0  0
    3.3091   16.0078   -2.6294 H   0  0  0  0  0  0  0  0  0  0  0  0
    2.5666   14.8090   -3.7421 H   0  0  0  0  0  0  0  0  0  0  0  0
    1.9918   16.5109   -3.7421 H   0  0  0  0  0  0  0  0  0  0  0  0
   -0.4336   14.8638   -3.2289 H   0  0  0  0  0  0  0  0  0  0  0  0
    0.9715   13.6587   -3.3154 H   0  0  0  0  0  0  0  0  0  0  0  0
   -1.1421   13.8820   -1.1540 H   0  0  0  0  0  0  0  0  0  0  0  0
   -0.8709   12.5386   -2.3323 H   0  0  0  0  0  0  0  0  0  0  0  0
    2.2722   11.2592   -0.9411 H   0  0  0  0  0  0  0  0  0  0  0  0
    1.0490   11.1139   -2.2485 H   0  0  0  0  0  0  0  0  0  0  0  0
    2.2046   12.4892   -2.2485 H   0  0  0  0  0  0  0  0  0  0  0  0
  1  2  1  0
  2  3  1  0
  3  4  1  0
  4  5  1  0
  5  6  1  0
  6  7  1  0
  7  8  1  0
  7  9  1  0
  2 10  1  0
 10 11  1  0
 11 12  1  0
 12 13  1  0
 13 14  1  1
 13 15  1  0
 15 16  1  0
 16 17  1  0
 17 18  2  0
 18 19  1  0
 19 20  1  0
 20 21  1  0
 21 22  1  0
 22 23  1  0
 22 24  1  0
 24 25  1  0
 24 26  1  0
 19 27  1  0
 27 28  1  6
 27 29  1  0
 29 30  1  0
 30 31  1  0
 31 32  1  6
  7  5  1  0
 31 10  1  0
 31 13  1  0
 27 15  1  0
 24 18  1  0
  1 33  1  0
  1 34  1  0
  1 35  1  0
  2 36  1  1
  3 37  1  0
  3 38  1  0
  4 39  1  0
  4 40  1  0
  5 41  1  6
  8 42  1  0
  8 43  1  0
  8 44  1  0
  9 45  1  0
  9 46  1  0
  9 47  1  0
 10 48  1  1
 11 49  1  0
 11 50  1  0
 12 51  1  0
 12 52  1  0
 14 53  1  0
 14 54  1  0
 14 55  1  0
 15 56  1  6
 16 57  1  0
 16 58  1  0
 17 59  1  0
 19 60  1  1
 20 61  1  0
 20 62  1  0
 21 63  1  0
 21 64  1  0
 22 65  1  1
 23 66  1  0
 25 67  1  0
 25 68  1  0
 25 69  1  0
 26 70  1  0
 26 71  1  0
 26 72  1  0
 28 73  1  0
 28 74  1  0
 28 75  1  0
 29 76  1  0
 29 77  1  0
 30 78  1  0
 30 79  1  0
 32 80  1  0
 32 81  1  0
 32 82  1  0
M  END
>  <meeko>  (17) 
{"is_sidechain": [false], "intermolecular_energy": 2.731, "internal_energy": -0.839}

$$$$
EPH_relaxed_0001_pdb2pqr_Repair_22_r2_0001_out
     RDKit          3D

 82 86  0  0  0  0  0  0  0  0999 V2000
    0.9000   14.9140   -2.6480 C   0  0  0  0  0  0  0  0  0  0  0  0
    1.1730   14.2310   -3.9910 C   0  0  2  0  0  0  0  0  0  0  0  0
    0.4710   14.9490   -5.1610 C   0  0  0  0  0  0  0  0  0  0  0  0
    1.0640   14.6160   -6.5320 C   0  0  0  0  0  0  0  0  0  0  0  0
    0.8210   15.7140   -7.5230 C   0  0  2  0  0  0  0  0  0  0  0  0
    0.3920   15.2690   -8.8160 O   0  0  0  0  0  0  0  0  0  0  0  0
    1.6700   15.9250   -8.7630 C   0  0  0  0  0  0  0  0  0  0  0  0
    2.8270   15.0310   -9.0780 C   0  0  0  0  0  0  0  0  0  0  0  0
    1.6790   17.2790   -9.4010 C   0  0  0  0  0  0  0  0  0  0  0  0
    0.7280   12.7740   -3.9320 C   0  0  1  0  0  0  0  0  0  0  0  0
    1.8640   11.7870   -4.3100 C   0  0  0  0  0  0  0  0  0  0  0  0
    1.6700   10.5230   -3.4320 C   0  0  0  0  0  0  0  0  0  0  0  0
    0.2550   10.6830   -2.8270 C   0  0  1  0  0  0  0  0  0  0  0  0
   -0.7180   10.2060   -3.9510 C   0  0  0  0  0  0  0  0  0  0  0  0
   -0.0090    9.9350   -1.4800 C   0  0  2  0  0  0  0  0  0  0  0  0
    0.1030    8.4020   -1.5520 C   0  0  0  0  0  0  0  0  0  0  0  0
   -1.1670    7.6850   -1.8740 C   0  0  0  0  0  0  0  0  0  0  0  0
   -2.4020    8.2170   -1.8170 C   0  0  0  0  0  0  0  0  0  0  0  0
   -2.6210    9.6450   -1.3010 C   0  0  1  0  0  0  0  0  0  0  0  0
   -3.8020    9.6570   -0.2950 C   0  0  0  0  0  0  0  0  0  0  0  0
   -5.0720    9.0450   -0.8770 C   0  0  0  0  0  0  0  0  0  0  0  0
   -4.8290    7.6060   -1.3250 C   0  0  2  0  0  0  0  0  0  0  0  0
   -4.5690    6.8020   -0.1710 O   0  0  0  0  0  0  0  0  0  0  0  0
   -3.6550    7.4690   -2.3340 C   0  0  0  0  0  0  0  0  0  0  0  0
   -4.0620    8.0860   -3.6940 C   0  0  0  0  0  0  0  0  0  0  0  0
   -3.4250    5.9560   -2.5950 C   0  0  0  0  0  0  0  0  0  0  0  0
   -1.3320   10.3850   -0.7370 C   0  0  1  0  0  0  0  0  0  0  0  0
   -1.1360   10.0380    0.7700 C   0  0  0  0  0  0  0  0  0  0  0  0
   -1.5590   11.9410   -0.8090 C   0  0  0  0  0  0  0  0  0  0  0  0
   -1.1680   12.6400   -2.1250 C   0  0  0  0  0  0  0  0  0  0  0  0
    0.2420   12.2330   -2.5640 C   0  0  2  0  0  0  0  0  0  0  0  0
    1.2450   12.7190   -1.4630 C   0  0  0  0  0  0  0  0  0  0  0  0
    1.1722   14.2329   -1.8282 H   0  0  0  0  0  0  0  0  0  0  0  0
    1.4998   15.8332   -2.5755 H   0  0  0  0  0  0  0  0  0  0  0  0
   -0.1682   15.1665   -2.5755 H   0  0  0  0  0  0  0  0  0  0  0  0
    2.2563   14.2824   -4.1747 H   0  0  0  0  0  0  0  0  0  0  0  0
   -0.5896   14.6573   -5.1613 H   0  0  0  0  0  0  0  0  0  0  0  0
    0.6093   16.0290   -5.0047 H   0  0  0  0  0  0  0  0  0  0  0  0
    2.1485   14.4665   -6.4245 H   0  0  0  0  0  0  0  0  0  0  0  0
    0.5751   13.7037   -6.9045 H   0  0  0  0  0  0  0  0  0  0  0  0
    0.5016   16.3977   -6.7227 H   0  0  0  0  0  0  0  0  0  0  0  0
    3.2835   14.6783   -8.1414 H   0  0  0  0  0  0  0  0  0  0  0  0
    2.4751   14.1679   -9.6621 H   0  0  0  0  0  0  0  0  0  0  0  0
    3.5734   15.5893   -9.6621 H   0  0  0  0  0  0  0  0  0  0  0  0
    1.6841   18.0527   -8.6191 H   0  0  0  0  0  0  0  0  0  0  0  0
    2.5779   17.3837  -10.0264 H   0  0  0  0  0  0  0  0  0  0  0  0
    0.7816   17.3956  -10.0264 H   0  0  0  0  0  0  0  0  0  0  0  0
   -0.1115   12.8090   -4.6419 H   0  0  0  0  0  0  0  0  0  0  0  0
    1.7965   11.5220   -5.3755 H   0  0  0  0  0  0  0  0  0  0  0  0
    2.8524   12.2385   -4.1389 H   0  0  0  0  0  0  0  0  0  0  0  0
    1.7298    9.6114   -4.0447 H   0  0  0  0  0  0  0  0  0  0  0  0
    2.4466   10.4284   -2.6587 H   0  0  0  0  0  0  0  0  0  0  0  0
   -1.6169    9.7653   -3.4952 H   0  0  0  0  0  0  0  0  0  0  0  0
   -1.0067   11.0648   -4.5749 H   0  0  0  0  0  0  0  0  0  0  0  0
   -0.2160    9.4519   -4.5749 H   0  0  0  0  0  0  0  0  0  0  0  0
    0.8346   10.2664   -0.8567 H   0  0  0  0  0  0  0  0  0  0  0  0
    0.8414    8.1510   -2.3278 H   0  0  0  0  0  0  0  0  0  0  0  0
    0.3934    8.0700   -0.5443 H   0  0  0  0  0  0  0  0  0  0  0  0
   -1.0861    6.6327   -2.1841 H   0  0  0  0  0  0  0  0  0  0  0  0
   -2.8755   10.2505   -2.1834 H   0  0  0  0  0  0  0  0  0  0  0  0
   -3.5110    9.0834    0.5973 H   0  0  0  0  0  0  0  0  0  0  0  0
   -4.0198   10.7066   -0.0482 H   0  0  0  0  0  0  0  0  0  0  0  0
   -5.8605    9.0549   -0.1100 H   0  0  0  0  0  0  0  0  0  0  0  0
   -5.3783    9.6378   -1.7515 H   0  0  0  0  0  0  0  0  0  0  0  0
   -5.7340    7.2659   -1.8497 H   0  0  0  0  0  0  0  0  0  0  0  0
   -4.7430    5.8760   -0.4120 H   0  0  0  0  0  0  0  0  0  0  0  0
   -4.6602    8.9928   -3.5209 H   0  0  0  0  0  0  0  0  0  0  0  0
   -3.1578    8.3464   -4.2638 H   0  0  0  0  0  0  0  0  0  0  0  0
   -4.6573    7.3573   -4.2638 H   0  0  0  0  0  0  0  0  0  0  0  0
   -3.3445    5.4263   -1.6343 H   0  0  0  0  0  0  0  0  0  0  0  0
   -4.2717    5.5499   -3.1678 H   0  0  0  0  0  0  0  0  0  0  0  0
   -2.4958    5.8198   -3.1678 H   0  0  0  0  0  0  0  0  0  0  0  0
   -1.5830   10.8294    1.3896 H   0  0  0  0  0  0  0  0  0  0  0  0
   -1.6254    9.0782    0.9919 H   0  0  0  0  0  0  0  0  0  0  0  0
   -0.0613    9.9616    0.9919 H   0  0  0  0  0  0  0  0  0  0  0  0
   -2.6290   12.1295   -0.6373 H   0  0  0  0  0  0  0  0  0  0  0  0
   -0.8881   12.3652   -0.0475 H   0  0  0  0  0  0  0  0  0  0  0  0
   -1.8850   12.3568   -2.9097 H   0  0  0  0  0  0  0  0  0  0  0  0
   -1.1845   13.7278   -1.9627 H   0  0  0  0  0  0  0  0  0  0  0  0
    0.8238   12.5149   -0.4675 H   0  0  0  0  0  0  0  0  0  0  0  0
    2.1993   12.1834   -1.5742 H   0  0  0  0  0  0  0  0  0  0  0  0
    1.4161   13.7999   -1.5742 H   0  0  0  0  0  0  0  0  0  0  0  0
  1  2  1  0
  2  3  1  0
  3  4  1  0
  4  5  1  0
  5  6  1  0
  6  7  1  0
  7  8  1  0
  7  9  1  0
  2 10  1  0
 10 11  1  0
 11 12  1  0
 12 13  1  0
 13 14  1  6
 13 15  1  0
 15 16  1  0
 16 17  1  0
 17 18  2  0
 18 19  1  0
 19 20  1  0
 20 21  1  0
 21 22  1  0
 22 23  1  0
 22 24  1  0
 24 25  1  0
 24 26  1  0
 19 27  1  0
 27 28  1  1
 27 29  1  0
 29 30  1  0
 30 31  1  0
 31 32  1  1
  7  5  1  0
 31 10  1  0
 31 13  1  0
 27 15  1  0
 24 18  1  0
  1 33  1  0
  1 34  1  0
  1 35  1  0
  2 36  1  6
  3 37  1  0
  3 38  1  0
  4 39  1  0
  4 40  1  0
  5 41  1  1
  8 42  1  0
  8 43  1  0
  8 44  1  0
  9 45  1  0
  9 46  1  0
  9 47  1  0
 10 48  1  6
 11 49  1  0
 11 50  1  0
 12 51  1  0
 12 52  1  0
 14 53  1  0
 14 54  1  0
 14 55  1  0
 15 56  1  1
 16 57  1  0
 16 58  1  0
 17 59  1  0
 19 60  1  6
 20 61  1  0
 20 62  1  0
 21 63  1  0
 21 64  1  0
 22 65  1  6
 23 66  1  0
 25 67  1  0
 25 68  1  0
 25 69  1  0
 26 70  1  0
 26 71  1  0
 26 72  1  0
 28 73  1  0
 28 74  1  0
 28 75  1  0
 29 76  1  0
 29 77  1  0
 30 78  1  0
 30 79  1  0
 32 80  1  0
 32 81  1  0
 32 82  1  0
M  END
>  <meeko>  (18) 
{"is_sidechain": [false], "intermolecular_energy": 2.731, "internal_energy": -0.839}

$$$$
EPH_relaxed_0001_pdb2pqr_Repair_22_r2_0001_out
     RDKit          3D

 82 86  0  0  0  0  0  0  0  0999 V2000
   -0.1510    9.2360   -2.1030 C   0  0  0  0  0  0  0  0  0  0  0  0
    0.8440   10.2630   -2.6520 C   0  0  2  0  0  0  0  0  0  0  0  0
    2.2530    9.6650   -2.8350 C   0  0  0  0  0  0  0  0  0  0  0  0
    3.3380   10.7150   -3.0920 C   0  0  0  0  0  0  0  0  0  0  0  0
    4.4080   10.1950   -4.0030 C   0  0  2  0  0  0  0  0  0  0  0  0
    5.6900   10.0240   -3.3850 O   0  0  0  0  0  0  0  0  0  0  0  0
    5.6150   11.0110   -4.4270 C   0  0  0  0  0  0  0  0  0  0  0  0
    5.8140   12.4150   -3.9500 C   0  0  0  0  0  0  0  0  0  0  0  0
    6.3380   10.6220   -5.6780 C   0  0  0  0  0  0  0  0  0  0  0  0
    0.9070   11.4710   -1.7250 C   0  0  1  0  0  0  0  0  0  0  0  0
    1.9620   11.3060   -0.5990 C   0  0  0  0  0  0  0  0  0  0  0  0
    2.5620   12.7110   -0.3380 C   0  0  0  0  0  0  0  0  0  0  0  0
    1.6120   13.6840   -1.0750 C   0  0  1  0  0  0  0  0  0  0  0  0
    0.4060   13.8800   -0.1040 C   0  0  0  0  0  0  0  0  0  0  0  0
    2.2280   15.0520   -1.5140 C   0  0  2  0  0  0  0  0  0  0  0  0
    2.7190   15.9460   -0.3620 C   0  0  0  0  0  0  0  0  0  0  0  0
    1.7050   16.8970    0.1830 C   0  0  0  0  0  0  0  0  0  0  0  0
    0.5460   17.2320   -0.4140 C   0  0  0  0  0  0  0  0  0  0  0  0
    0.2010   16.7070   -1.8140 C   0  0  1  0  0  0  0  0  0  0  0  0
   -0.3250   17.8750   -2.6890 C   0  0  0  0  0  0  0  0  0  0  0  0
   -1.4900   18.6150   -2.0400 C   0  0  0  0  0  0  0  0  0  0  0  0
   -1.0910   19.1710   -0.6750 C   0  0  2  0  0  0  0  0  0  0  0  0
   -0.1090   20.1940   -0.8640 O   0  0  0  0  0  0  0  0  0  0  0  0
   -0.5370   18.0860    0.2900 C   0  0  0  0  0  0  0  0  0  0  0  0
   -1.6860   17.1470    0.7330 C   0  0  0  0  0  0  0  0  0  0  0  0
   -0.0400   18.8010    1.5760 C   0  0  0  0  0  0  0  0  0  0  0  0
    1.3380   15.8650   -2.5390 C   0  0  1  0  0  0  0  0  0  0  0  0
    2.3020   16.8220   -3.3050 C   0  0  0  0  0  0  0  0  0  0  0  0
    0.6760   14.9370   -3.6250 C   0  0  0  0  0  0  0  0  0  0  0  0
    0.1960   13.5510   -3.1550 C   0  0  0  0  0  0  0  0  0  0  0  0
    1.2890   12.8330   -2.3570 C   0  0  2  0  0  0  0  0  0  0  0  0
    2.5070   12.6020   -3.3150 C   0  0  0  0  0  0  0  0  0  0  0  0
   -0.1305    9.2571   -1.0034 H   0  0  0  0  0  0  0  0  0  0  0  0
   -1.1636    9.4816   -2.4557 H   0  0  0  0  0  0  0  0  0  0  0  0
    0.1265    8.2317   -2.4557 H   0  0  0  0  0  0  0  0  0  0  0  0
    0.4861   10.5741   -3.6446 H   0  0  0  0  0  0  0  0  0  0  0  0
    2.5160    9.1098   -1.9225 H   0  0  0  0  0  0  0  0  0  0  0  0
    2.2149    9.0175   -3.7234 H   0  0  0  0  0  0  0  0  0  0  0  0
    2.8755   11.5998   -3.5539 H   0  0  0  0  0  0  0  0  0  0  0  0
    3.8027   10.9708   -2.1283 H   0  0  0  0  0  0  0  0  0  0  0  0
    3.6700    9.6160   -4.5776 H   0  0  0  0  0  0  0  0  0  0  0  0
    5.8164   12.4317   -2.8501 H   0  0  0  0  0  0  0  0  0  0  0  0
    6.7752   12.7967   -4.3246 H   0  0  0  0  0  0  0  0  0  0  0  0
    4.9967   13.0488   -4.3246 H   0  0  0  0  0  0  0  0  0  0  0  0
    7.2787   10.1159   -5.4155 H   0  0  0  0  0  0  0  0  0  0  0  0
    5.7078    9.9412   -6.2691 H   0  0  0  0  0  0  0  0  0  0  0  0
    6.5589   11.5230   -6.2691 H   0  0  0  0  0  0  0  0  0  0  0  0
   -0.1379   11.4945   -1.3819 H   0  0  0  0  0  0  0  0  0  0  0  0
    1.4840   10.9227    0.3146 H   0  0  0  0  0  0  0  0  0  0  0  0
    2.7446   10.5911   -0.8931 H   0  0  0  0  0  0  0  0  0  0  0  0
    2.5828   12.9303    0.7397 H   0  0  0  0  0  0  0  0  0  0  0  0
    3.6002   12.7935   -0.6919 H   0  0  0  0  0  0  0  0  0  0  0  0
    0.7596   13.8225    0.9360 H   0  0  0  0  0  0  0  0  0  0  0  0
   -0.0517   14.8643   -0.2818 H   0  0  0  0  0  0  0  0  0  0  0  0
   -0.3399   13.0913   -0.2818 H   0  0  0  0  0  0  0  0  0  0  0  0
    3.1330   14.7401   -2.0560 H   0  0  0  0  0  0  0  0  0  0  0  0
    3.0481   15.2923    0.4592 H   0  0  0  0  0  0  0  0  0  0  0  0
    3.5250   16.5668   -0.7804 H   0  0  0  0  0  0  0  0  0  0  0  0
    1.9237   17.3634    1.1549 H   0  0  0  0  0  0  0  0  0  0  0  0
   -0.5934   15.9596   -1.6716 H   0  0  0  0  0  0  0  0  0  0  0  0
    0.4961   18.5877   -2.8559 H   0  0  0  0  0  0  0  0  0  0  0  0
   -0.6880   17.4459   -3.6346 H   0  0  0  0  0  0  0  0  0  0  0  0
   -1.7962   19.4465   -2.6918 H   0  0  0  0  0  0  0  0  0  0  0  0
   -2.3215   17.9082   -1.9017 H   0  0  0  0  0  0  0  0  0  0  0  0
   -1.9995   19.5745   -0.2041 H   0  0  0  0  0  0  0  0  0  0  0  0
   -0.3640   20.7060   -1.6510 H   0  0  0  0  0  0  0  0  0  0  0  0
   -1.7283   17.1124    1.8316 H   0  0  0  0  0  0  0  0  0  0  0  0
   -2.6413   17.5263    0.3410 H   0  0  0  0  0  0  0  0  0  0  0  0
   -1.5046   16.1354    0.3410 H   0  0  0  0  0  0  0  0  0  0  0  0
   -0.4128   18.2647    2.4611 H   0  0  0  0  0  0  0  0  0  0  0  0
    1.0599   18.8097    1.5889 H   0  0  0  0  0  0  0  0  0  0  0  0
   -0.4151   19.8350    1.5889 H   0  0  0  0  0  0  0  0  0  0  0  0
    2.8902   17.4059   -2.5817 H   0  0  0  0  0  0  0  0  0  0  0  0
    2.9807   16.2302   -3.9368 H   0  0  0  0  0  0  0  0  0  0  0  0
    1.7151   17.5050   -3.9368 H   0  0  0  0  0  0  0  0  0  0  0  0
   -0.1955   15.4706   -4.0321 H   0  0  0  0  0  0  0  0  0  0  0  0
    1.4738   14.7332   -4.3544 H   0  0  0  0  0  0  0  0  0  0  0  0
   -0.6920   13.6749   -2.5178 H   0  0  0  0  0  0  0  0  0  0  0  0
   -0.0466   12.9453   -4.0406 H   0  0  0  0  0  0  0  0  0  0  0  0
    3.4151   12.4298   -2.7186 H   0  0  0  0  0  0  0  0  0  0  0  0
    2.3132   11.7246   -3.9495 H   0  0  0  0  0  0  0  0  0  0  0  0
    2.6479   13.4894   -3.9495 H   0  0  0  0  0  0  0  0  0  0  0  0
  1  2  1  0
  2  3  1  0
  3  4  1  0
  4  5  1  0
  5  6  1  0
  6  7  1  0
  7  8  1  0
  7  9  1  0
  2 10  1  0
 10 11  1  0
 11 12  1  0
 12 13  1  0
 13 14  1  1
 13 15  1  0
 15 16  1  0
 16 17  1  0
 17 18  2  0
 18 19  1  0
 19 20  1  0
 20 21  1  0
 21 22  1  0
 22 23  1  0
 22 24  1  0
 24 25  1  0
 24 26  1  0
 19 27  1  0
 27 28  1  6
 27 29  1  0
 29 30  1  0
 30 31  1  0
 31 32  1  6
  7  5  1  0
 31 10  1  0
 31 13  1  0
 27 15  1  0
 24 18  1  0
  1 33  1  0
  1 34  1  0
  1 35  1  0
  2 36  1  6
  3 37  1  0
  3 38  1  0
  4 39  1  0
  4 40  1  0
  5 41  1  6
  8 42  1  0
  8 43  1  0
  8 44  1  0
  9 45  1  0
  9 46  1  0
  9 47  1  0
 10 48  1  1
 11 49  1  0
 11 50  1  0
 12 51  1  0
 12 52  1  0
 14 53  1  0
 14 54  1  0
 14 55  1  0
 15 56  1  6
 16 57  1  0
 16 58  1  0
 17 59  1  0
 19 60  1  1
 20 61  1  0
 20 62  1  0
 21 63  1  0
 21 64  1  0
 22 65  1  1
 23 66  1  0
 25 67  1  0
 25 68  1  0
 25 69  1  0
 26 70  1  0
 26 71  1  0
 26 72  1  0
 28 73  1  0
 28 74  1  0
 28 75  1  0
 29 76  1  0
 29 77  1  0
 30 78  1  0
 30 79  1  0
 32 80  1  0
 32 81  1  0
 32 82  1  0
M  END
>  <meeko>  (19) 
{"is_sidechain": [false], "intermolecular_energy": 2.731, "internal_energy": -0.839}

$$$$
EPH_relaxed_0001_pdb2pqr_Repair_22_r2_0001_out
     RDKit          3D

 82 86  0  0  0  0  0  0  0  0999 V2000
   -0.0570    9.2740   -4.1080 C   0  0  0  0  0  0  0  0  0  0  0  0
    0.0380    9.4790   -2.5930 C   0  0  2  0  0  0  0  0  0  0  0  0
   -0.8170    8.4590   -1.8140 C   0  0  0  0  0  0  0  0  0  0  0  0
   -2.3150    8.5550   -2.1160 C   0  0  0  0  0  0  0  0  0  0  0  0
   -2.8470    7.2780   -2.6930 C   0  0  2  0  0  0  0  0  0  0  0  0
   -3.9000    7.4470   -3.6500 O   0  0  0  0  0  0  0  0  0  0  0  0
   -4.2520    6.7650   -2.4360 C   0  0  0  0  0  0  0  0  0  0  0  0
   -5.2110    7.5190   -1.5700 C   0  0  0  0  0  0  0  0  0  0  0  0
   -4.5250    5.3050   -2.6220 C   0  0  0  0  0  0  0  0  0  0  0  0
   -0.3860   10.8980   -2.2330 C   0  0  1  0  0  0  0  0  0  0  0  0
   -1.5980   10.9310   -1.2640 C   0  0  0  0  0  0  0  0  0  0  0  0
   -1.3900   12.1500   -0.3290 C   0  0  0  0  0  0  0  0  0  0  0  0
   -0.2550   12.9630   -0.9950 C   0  0  1  0  0  0  0  0  0  0  0  0
   -0.9570   13.7860   -2.1200 C   0  0  0  0  0  0  0  0  0  0  0  0
    0.5860   13.8800   -0.0480 C   0  0  2  0  0  0  0  0  0  0  0  0
   -0.2050   15.0040    0.6430 C   0  0  0  0  0  0  0  0  0  0  0  0
   -0.2580   16.2970   -0.1000 C   0  0  0  0  0  0  0  0  0  0  0  0
    0.5360   16.6390   -1.1310 C   0  0  0  0  0  0  0  0  0  0  0  0
    1.6770   15.7200   -1.5860 C   0  0  1  0  0  0  0  0  0  0  0  0
    2.9660   16.5570   -1.7910 C   0  0  0  0  0  0  0  0  0  0  0  0
    2.7550   17.7360   -2.7360 C   0  0  0  0  0  0  0  0  0  0  0  0
    1.6540   18.6580   -2.2200 C   0  0  2  0  0  0  0  0  0  0  0  0
    2.0990   19.2760   -1.0090 O   0  0  0  0  0  0  0  0  0  0  0  0
    0.3080   17.9230   -1.9670 C   0  0  0  0  0  0  0  0  0  0  0  0
   -0.3250   17.5160   -3.3210 C   0  0  0  0  0  0  0  0  0  0  0  0
   -0.6740   18.9350   -1.3160 C   0  0  0  0  0  0  0  0  0  0  0  0
    1.9230   14.4270   -0.6950 C   0  0  1  0  0  0  0  0  0  0  0  0
    2.8810   14.7710    0.4870 C   0  0  0  0  0  0  0  0  0  0  0  0
    2.6590   13.3380   -1.5610 C   0  0  0  0  0  0  0  0  0  0  0  0
    1.7690   12.3850   -2.3810 C   0  0  0  0  0  0  0  0  0  0  0  0
    0.6560   11.7900   -1.5130 C   0  0  2  0  0  0  0  0  0  0  0  0
    1.3320   10.9380   -0.3860 C   0  0  0  0  0  0  0  0  0  0  0  0
   -0.5110    8.2943   -4.3177 H   0  0  0  0  0  0  0  0  0  0  0  0
   -0.6790   10.0679   -4.5471 H   0  0  0  0  0  0  0  0  0  0  0  0
    0.9508    9.3126   -4.5471 H   0  0  0  0  0  0  0  0  0  0  0  0
    1.0869    9.3198   -2.3025 H   0  0  0  0  0  0  0  0  0  0  0  0
   -0.4741    7.4469   -2.0750 H   0  0  0  0  0  0  0  0  0  0  0  0
   -0.6893    8.6821   -0.7445 H   0  0  0  0  0  0  0  0  0  0  0  0
   -2.8534    8.7760   -1.1826 H   0  0  0  0  0  0  0  0  0  0  0  0
   -2.4651    9.3546   -2.8563 H   0  0  0  0  0  0  0  0  0  0  0  0
   -1.8599    6.8003   -2.6071 H   0  0  0  0  0  0  0  0  0  0  0  0
   -4.9741    7.3327   -0.5121 H   0  0  0  0  0  0  0  0  0  0  0  0
   -5.1269    8.5954   -1.7806 H   0  0  0  0  0  0  0  0  0  0  0  0
   -6.2371    7.1833   -1.7806 H   0  0  0  0  0  0  0  0  0  0  0  0
   -4.6156    4.8207   -1.6385 H   0  0  0  0  0  0  0  0  0  0  0  0
   -5.4629    5.1758   -3.1821 H   0  0  0  0  0  0  0  0  0  0  0  0
   -3.6972    4.8456   -3.1821 H   0  0  0  0  0  0  0  0  0  0  0  0
   -0.5867   11.2923   -3.2401 H   0  0  0  0  0  0  0  0  0  0  0  0
   -2.5336   11.0440   -1.8313 H   0  0  0  0  0  0  0  0  0  0  0  0
   -1.6674    9.9975   -0.6864 H   0  0  0  0  0  0  0  0  0  0  0  0
   -2.3097   12.7497   -0.2623 H   0  0  0  0  0  0  0  0  0  0  0  0
   -1.1400   11.8494    0.6992 H   0  0  0  0  0  0  0  0  0  0  0  0
   -1.6071   14.5481   -1.6655 H   0  0  0  0  0  0  0  0  0  0  0  0
   -0.1960   14.2778   -2.7437 H   0  0  0  0  0  0  0  0  0  0  0  0
   -1.5627   13.1121   -2.7437 H   0  0  0  0  0  0  0  0  0  0  0  0
    0.8799   13.1858    0.7531 H   0  0  0  0  0  0  0  0  0  0  0  0
   -1.2374   14.6531    0.7883 H   0  0  0  0  0  0  0  0  0  0  0  0
    0.3255   15.2153    1.5832 H   0  0  0  0  0  0  0  0  0  0  0  0
   -1.0096   17.0326    0.2224 H   0  0  0  0  0  0  0  0  0  0  0  0
    1.3561   15.2892   -2.5459 H   0  0  0  0  0  0  0  0  0  0  0  0
    3.2950   16.9424   -0.8147 H   0  0  0  0  0  0  0  0  0  0  0  0
    3.7227   15.8988   -2.2428 H   0  0  0  0  0  0  0  0  0  0  0  0
    3.6929   18.3052   -2.8166 H   0  0  0  0  0  0  0  0  0  0  0  0
    2.4551   17.3476   -3.7205 H   0  0  0  0  0  0  0  0  0  0  0  0
    1.4602   19.4083   -3.0007 H   0  0  0  0  0  0  0  0  0  0  0  0
    2.1420   20.2340   -1.1650 H   0  0  0  0  0  0  0  0  0  0  0  0
   -1.2373   16.9294   -3.1377 H   0  0  0  0  0  0  0  0  0  0  0  0
   -0.5793   18.4203   -3.8934 H   0  0  0  0  0  0  0  0  0  0  0  0
    0.3921   16.9093   -3.8934 H   0  0  0  0  0  0  0  0  0  0  0  0
   -0.6031   18.8619   -0.2207 H   0  0  0  0  0  0  0  0  0  0  0  0
   -0.4126   19.9554   -1.6331 H   0  0  0  0  0  0  0  0  0  0  0  0
   -1.7018   18.7044   -1.6331 H   0  0  0  0  0  0  0  0  0  0  0  0
    2.3666   14.5863    1.4416 H   0  0  0  0  0  0  0  0  0  0  0  0
    3.7795   14.1394    0.4265 H   0  0  0  0  0  0  0  0  0  0  0  0
    3.1725   15.8300    0.4265 H   0  0  0  0  0  0  0  0  0  0  0  0
    3.3205   13.8640   -2.2651 H   0  0  0  0  0  0  0  0  0  0  0  0
    3.1772   12.6945   -0.8348 H   0  0  0  0  0  0  0  0  0  0  0  0
    1.3162   12.9431   -3.2138 H   0  0  0  0  0  0  0  0  0  0  0  0
    2.3934   11.5634   -2.7619 H   0  0  0  0  0  0  0  0  0  0  0  0
    1.0264   11.3231    0.5980 H   0  0  0  0  0  0  0  0  0  0  0  0
    1.0186    9.8880   -0.4822 H   0  0  0  0  0  0  0  0  0  0  0  0
    2.4258   11.0045   -0.4822 H   0  0  0  0  0  0  0  0  0  0  0  0
  1  2  1  0
  2  3  1  0
  3  4  1  0
  4  5  1  0
  5  6  1  0
  6  7  1  0
  7  8  1  0
  7  9  1  0
  2 10  1  0
 10 11  1  0
 11 12  1  0
 12 13  1  0
 13 14  1  6
 13 15  1  0
 15 16  1  0
 16 17  1  0
 17 18  2  0
 18 19  1  0
 19 20  1  0
 20 21  1  0
 21 22  1  0
 22 23  1  0
 22 24  1  0
 24 25  1  0
 24 26  1  0
 19 27  1  0
 27 28  1  1
 27 29  1  0
 29 30  1  0
 30 31  1  0
 31 32  1  1
  7  5  1  0
 31 10  1  0
 31 13  1  0
 27 15  1  0
 24 18  1  0
  1 33  1  0
  1 34  1  0
  1 35  1  0
  2 36  1  1
  3 37  1  0
  3 38  1  0
  4 39  1  0
  4 40  1  0
  5 41  1  6
  8 42  1  0
  8 43  1  0
  8 44  1  0
  9 45  1  0
  9 46  1  0
  9 47  1  0
 10 48  1  6
 11 49  1  0
 11 50  1  0
 12 51  1  0
 12 52  1  0
 14 53  1  0
 14 54  1  0
 14 55  1  0
 15 56  1  1
 16 57  1  0
 16 58  1  0
 17 59  1  0
 19 60  1  6
 20 61  1  0
 20 62  1  0
 21 63  1  0
 21 64  1  0
 22 65  1  6
 23 66  1  0
 25 67  1  0
 25 68  1  0
 25 69  1  0
 26 70  1  0
 26 71  1  0
 26 72  1  0
 28 73  1  0
 28 74  1  0
 28 75  1  0
 29 76  1  0
 29 77  1  0
 30 78  1  0
 30 79  1  0
 32 80  1  0
 32 81  1  0
 32 82  1  0
M  END
>  <meeko>  (20) 
{"is_sidechain": [false], "intermolecular_energy": 2.731, "internal_energy": -0.839}

$$$$
