EPH_relaxed_0001_pdb2pqr_Repair_380_r2_0001_out
     RDKit          3D

 82 86  0  0  0  0  0  0  0  0999 V2000
    0.4230   18.4400   -0.0170 C   0  0  0  0  0  0  0  0  0  0  0  0
    1.5040   17.3790   -0.2360 C   0  0  2  0  0  0  0  0  0  0  0  0
    2.7210   17.9380   -1.0000 C   0  0  0  0  0  0  0  0  0  0  0  0
    3.9570   18.1480   -0.1210 C   0  0  0  0  0  0  0  0  0  0  0  0
    3.5860   18.6130    1.2540 C   0  0  2  0  0  0  0  0  0  0  0  0
    3.8270   20.0050    1.5010 O   0  0  0  0  0  0  0  0  0  0  0  0
    4.6010   19.0800    2.2820 C   0  0  0  0  0  0  0  0  0  0  0  0
    6.0660   19.1020    1.9770 C   0  0  0  0  0  0  0  0  0  0  0  0
    4.2200   19.0470    3.7290 C   0  0  0  0  0  0  0  0  0  0  0  0
    0.9200   16.1880   -0.9860 C   0  0  1  0  0  0  0  0  0  0  0  0
    0.7630   16.4590   -2.5070 C   0  0  0  0  0  0  0  0  0  0  0  0
    1.0430   15.1160   -3.2310 C   0  0  0  0  0  0  0  0  0  0  0  0
    1.0220   14.0550   -2.1060 C   0  0  1  0  0  0  0  0  0  0  0  0
   -0.4910   13.7550   -1.8660 C   0  0  0  0  0  0  0  0  0  0  0  0
    1.8340   12.7460   -2.3760 C   0  0  2  0  0  0  0  0  0  0  0  0
    1.3450   11.9100   -3.5710 C   0  0  0  0  0  0  0  0  0  0  0  0
    0.3210   10.8730   -3.2470 C   0  0  0  0  0  0  0  0  0  0  0  0
    0.0220   10.4280   -2.0130 C   0  0  0  0  0  0  0  0  0  0  0  0
    0.8130   10.9080   -0.7890 C   0  0  1  0  0  0  0  0  0  0  0  0
    1.1870    9.6900    0.0960 C   0  0  0  0  0  0  0  0  0  0  0  0
   -0.0280    8.8510    0.4800 C   0  0  0  0  0  0  0  0  0  0  0  0
   -0.7550    8.3440   -0.7630 C   0  0  2  0  0  0  0  0  0  0  0  0
    0.0930    7.4150   -1.4460 O   0  0  0  0  0  0  0  0  0  0  0  0
   -1.1730    9.4820   -1.7360 C   0  0  0  0  0  0  0  0  0  0  0  0
   -2.3150   10.3140   -1.1030 C   0  0  0  0  0  0  0  0  0  0  0  0
   -1.7680    8.8260   -3.0110 C   0  0  0  0  0  0  0  0  0  0  0  0
    2.0590   11.8470   -1.0940 C   0  0  1  0  0  0  0  0  0  0  0  0
    3.3230   10.9780   -1.3760 C   0  0  0  0  0  0  0  0  0  0  0  0
    2.3840   12.7020    0.1870 C   0  0  0  0  0  0  0  0  0  0  0  0
    1.6370   14.0410    0.3370 C   0  0  0  0  0  0  0  0  0  0  0  0
    1.7210   14.8630   -0.9530 C   0  0  2  0  0  0  0  0  0  0  0  0
    3.2300   15.1990   -1.2090 C   0  0  0  0  0  0  0  0  0  0  0  0
    0.2699   18.5902    1.0619 H   0  0  0  0  0  0  0  0  0  0  0  0
    0.7402   19.3872   -0.4777 H   0  0  0  0  0  0  0  0  0  0  0  0
   -0.5181   18.1052   -0.4777 H   0  0  0  0  0  0  0  0  0  0  0  0
    1.8563   17.0572    0.7551 H   0  0  0  0  0  0  0  0  0  0  0  0
    2.9815   17.2319   -1.8023 H   0  0  0  0  0  0  0  0  0  0  0  0
    2.4309   18.9258   -1.3875 H   0  0  0  0  0  0  0  0  0  0  0  0
    4.5031   17.1965   -0.0404 H   0  0  0  0  0  0  0  0  0  0  0  0
    4.5826   18.9229   -0.5881 H   0  0  0  0  0  0  0  0  0  0  0  0
    2.7663   17.8813    1.3058 H   0  0  0  0  0  0  0  0  0  0  0  0
    6.6363   19.1106    2.9176 H   0  0  0  0  0  0  0  0  0  0  0  0
    6.3328   18.2078    1.3946 H   0  0  0  0  0  0  0  0  0  0  0  0
    6.3058   20.0038    1.3946 H   0  0  0  0  0  0  0  0  0  0  0  0
    5.1256   19.1254    4.3485 H   0  0  0  0  0  0  0  0  0  0  0  0
    3.5497   19.8905    3.9510 H   0  0  0  0  0  0  0  0  0  0  0  0
    3.7047   18.1009    3.9510 H   0  0  0  0  0  0  0  0  0  0  0  0
   -0.0248   16.0692   -0.4353 H   0  0  0  0  0  0  0  0  0  0  0  0
   -0.2585   16.8025   -2.7273 H   0  0  0  0  0  0  0  0  0  0  0  0
    1.4588   17.2419   -2.8430 H   0  0  0  0  0  0  0  0  0  0  0  0
    0.2621   14.9067   -3.9769 H   0  0  0  0  0  0  0  0  0  0  0  0
    1.9982   15.1271   -3.7763 H   0  0  0  0  0  0  0  0  0  0  0  0
   -0.6900   13.7155   -0.7849 H   0  0  0  0  0  0  0  0  0  0  0  0
   -1.0993   14.5500   -2.3220 H   0  0  0  0  0  0  0  0  0  0  0  0
   -0.7499   12.7880   -2.3220 H   0  0  0  0  0  0  0  0  0  0  0  0
    2.8201   13.1359   -2.6686 H   0  0  0  0  0  0  0  0  0  0  0  0
    0.9102   12.5974   -4.3115 H   0  0  0  0  0  0  0  0  0  0  0  0
    2.2252   11.3636   -3.9408 H   0  0  0  0  0  0  0  0  0  0  0  0
   -0.2363   10.4357   -4.0885 H   0  0  0  0  0  0  0  0  0  0  0  0
    0.1397   11.5786   -0.2350 H   0  0  0  0  0  0  0  0  0  0  0  0
    1.8932    9.0547   -0.4587 H   0  0  0  0  0  0  0  0  0  0  0  0
    1.6331   10.0762    1.0244 H   0  0  0  0  0  0  0  0  0  0  0  0
    0.3036    7.9903    1.0794 H   0  0  0  0  0  0  0  0  0  0  0  0
   -0.7199    9.4795    1.0599 H   0  0  0  0  0  0  0  0  0  0  0  0
   -1.6847    7.8615   -0.4272 H   0  0  0  0  0  0  0  0  0  0  0  0
   -0.4790    6.7630   -1.8860 H   0  0  0  0  0  0  0  0  0  0  0  0
   -2.2427   10.2614   -0.0066 H   0  0  0  0  0  0  0  0  0  0  0  0
   -2.2279   11.3618   -1.4263 H   0  0  0  0  0  0  0  0  0  0  0  0
   -3.2857    9.9100   -1.4263 H   0  0  0  0  0  0  0  0  0  0  0  0
   -2.4808    8.0402   -2.7205 H   0  0  0  0  0  0  0  0  0  0  0  0
   -2.2877    9.5899   -3.6080 H   0  0  0  0  0  0  0  0  0  0  0  0
   -0.9572    8.3831   -3.6080 H   0  0  0  0  0  0  0  0  0  0  0  0
    3.7747   10.6675   -0.4223 H   0  0  0  0  0  0  0  0  0  0  0  0
    3.0341   10.0867   -1.9523 H   0  0  0  0  0  0  0  0  0  0  0  0
    4.0517   11.5669   -1.9523 H   0  0  0  0  0  0  0  0  0  0  0  0
    2.1444   12.0870    1.0670 H   0  0  0  0  0  0  0  0  0  0  0  0
    3.4453   12.9741    0.0895 H   0  0  0  0  0  0  0  0  0  0  0  0
    0.5804   13.8398    0.5674 H   0  0  0  0  0  0  0  0  0  0  0  0
    2.1057   14.6150    1.1499 H   0  0  0  0  0  0  0  0  0  0  0  0
    3.7485   15.3144   -0.2457 H   0  0  0  0  0  0  0  0  0  0  0  0
    3.6956   14.3825   -1.7805 H   0  0  0  0  0  0  0  0  0  0  0  0
    3.3052   16.1359   -1.7805 H   0  0  0  0  0  0  0  0  0  0  0  0
  1  2  1  0
  2  3  1  0
  3  4  1  0
  4  5  1  0
  5  6  1  0
  6  7  1  0
  7  8  1  0
  7  9  1  0
  2 10  1  0
 10 11  1  0
 11 12  1  0
 12 13  1  0
 13 14  1  1
 13 15  1  0
 15 16  1  0
 16 17  1  0
 17 18  2  0
 18 19  1  0
 19 20  1  0
 20 21  1  0
 21 22  1  0
 22 23  1  0
 22 24  1  0
 24 25  1  0
 24 26  1  0
 19 27  1  0
 27 28  1  6
 27 29  1  0
 29 30  1  0
 30 31  1  0
 31 32  1  6
  7  5  1  0
 31 10  1  0
 31 13  1  0
 27 15  1  0
 24 18  1  0
  1 33  1  0
  1 34  1  0
  1 35  1  0
  2 36  1  1
  3 37  1  0
  3 38  1  0
  4 39  1  0
  4 40  1  0
  5 41  1  1
  8 42  1  0
  8 43  1  0
  8 44  1  0
  9 45  1  0
  9 46  1  0
  9 47  1  0
 10 48  1  1
 11 49  1  0
 11 50  1  0
 12 51  1  0
 12 52  1  0
 14 53  1  0
 14 54  1  0
 14 55  1  0
 15 56  1  6
 16 57  1  0
 16 58  1  0
 17 59  1  0
 19 60  1  1
 20 61  1  0
 20 62  1  0
 21 63  1  0
 21 64  1  0
 22 65  1  1
 23 66  1  0
 25 67  1  0
 25 68  1  0
 25 69  1  0
 26 70  1  0
 26 71  1  0
 26 72  1  0
 28 73  1  0
 28 74  1  0
 28 75  1  0
 29 76  1  0
 29 77  1  0
 30 78  1  0
 30 79  1  0
 32 80  1  0
 32 81  1  0
 32 82  1  0
M  END
>  <meeko>  (1) 
{"is_sidechain": [false], "intermolecular_energy": 2.731, "internal_energy": -0.839}

$$$$
EPH_relaxed_0001_pdb2pqr_Repair_380_r2_0001_out
     RDKit          3D

 82 86  0  0  0  0  0  0  0  0999 V2000
    2.3460   18.0400   -2.6840 C   0  0  0  0  0  0  0  0  0  0  0  0
    1.0500   17.6560   -1.9660 C   0  0  2  0  0  0  0  0  0  0  0  0
    1.1970   17.7130   -0.4320 C   0  0  0  0  0  0  0  0  0  0  0  0
    0.8610   19.0820    0.1680 C   0  0  0  0  0  0  0  0  0  0  0  0
   -0.5840   19.1780    0.5530 C   0  0  2  0  0  0  0  0  0  0  0  0
   -1.4510   18.2720   -0.1410 O   0  0  0  0  0  0  0  0  0  0  0  0
   -1.6690   19.6700   -0.3860 C   0  0  0  0  0  0  0  0  0  0  0  0
   -1.3550   20.0990   -1.7850 C   0  0  0  0  0  0  0  0  0  0  0  0
   -2.9420   20.1940    0.2030 C   0  0  0  0  0  0  0  0  0  0  0  0
    0.6110   16.2610   -2.3950 C   0  0  1  0  0  0  0  0  0  0  0  0
    0.6900   16.0560   -3.9320 C   0  0  0  0  0  0  0  0  0  0  0  0
    1.1040   14.5800   -4.1660 C   0  0  0  0  0  0  0  0  0  0  0  0
    0.9270   13.9020   -2.7870 C   0  0  1  0  0  0  0  0  0  0  0  0
   -0.5990   13.5900   -2.6870 C   0  0  0  0  0  0  0  0  0  0  0  0
    1.7950   12.6280   -2.5270 C   0  0  2  0  0  0  0  0  0  0  0  0
    1.5140   11.4440   -3.4690 C   0  0  0  0  0  0  0  0  0  0  0  0
    0.4710   10.4870   -2.9960 C   0  0  0  0  0  0  0  0  0  0  0  0
   -0.0100   10.4110   -1.7410 C   0  0  0  0  0  0  0  0  0  0  0  0
    0.5720   11.2830   -0.6210 C   0  0  1  0  0  0  0  0  0  0  0  0
    0.8250   10.4100    0.6370 C   0  0  0  0  0  0  0  0  0  0  0  0
   -0.4200    9.6460    1.0790 C   0  0  0  0  0  0  0  0  0  0  0  0
   -0.9340    8.7470   -0.0420 C   0  0  2  0  0  0  0  0  0  0  0  0
    0.0270    7.7130   -0.2810 O   0  0  0  0  0  0  0  0  0  0  0  0
   -1.2150    9.5150   -1.3640 C   0  0  0  0  0  0  0  0  0  0  0  0
   -2.4580   10.4210   -1.1850 C   0  0  0  0  0  0  0  0  0  0  0  0
   -1.5920    8.4720   -2.4510 C   0  0  0  0  0  0  0  0  0  0  0  0
    1.8330   12.1670   -1.0140 C   0  0  1  0  0  0  0  0  0  0  0  0
    3.1410   11.3380   -0.8340 C   0  0  0  0  0  0  0  0  0  0  0  0
    1.9380   13.3840   -0.0200 C   0  0  0  0  0  0  0  0  0  0  0  0
    1.1520   14.6550   -0.3930 C   0  0  0  0  0  0  0  0  0  0  0  0
    1.4220   15.0600   -1.8460 C   0  0  2  0  0  0  0  0  0  0  0  0
    2.9460   15.4020   -1.9720 C   0  0  0  0  0  0  0  0  0  0  0  0
    3.1229   18.2702   -1.9401 H   0  0  0  0  0  0  0  0  0  0  0  0
    2.6784   17.2017   -3.3140 H   0  0  0  0  0  0  0  0  0  0  0  0
    2.1681   18.9240   -3.3140 H   0  0  0  0  0  0  0  0  0  0  0  0
    0.2835   18.3913   -2.2521 H   0  0  0  0  0  0  0  0  0  0  0  0
    0.5221   16.9651    0.0097 H   0  0  0  0  0  0  0  0  0  0  0  0
    2.2538   17.5118   -0.2025 H   0  0  0  0  0  0  0  0  0  0  0  0
    1.4799   19.2406    1.0634 H   0  0  0  0  0  0  0  0  0  0  0  0
    1.0652   19.8497   -0.5929 H   0  0  0  0  0  0  0  0  0  0  0  0
   -0.3148   19.4593    1.5818 H   0  0  0  0  0  0  0  0  0  0  0  0
   -0.7055   20.9864   -1.7593 H   0  0  0  0  0  0  0  0  0  0  0  0
   -0.8396   19.2825   -2.3120 H   0  0  0  0  0  0  0  0  0  0  0  0
   -2.2891   20.3434   -2.3120 H   0  0  0  0  0  0  0  0  0  0  0  0
   -2.8765   20.1670    1.3007 H   0  0  0  0  0  0  0  0  0  0  0  0
   -3.1005   21.2305   -0.1295 H   0  0  0  0  0  0  0  0  0  0  0  0
   -3.7842   19.5694   -0.1295 H   0  0  0  0  0  0  0  0  0  0  0  0
   -0.4065   16.2512   -1.9771 H   0  0  0  0  0  0  0  0  0  0  0  0
   -0.2903   16.2518   -4.3911 H   0  0  0  0  0  0  0  0  0  0  0  0
    1.4162   16.7465   -4.3857 H   0  0  0  0  0  0  0  0  0  0  0  0
    0.4531   14.1085   -4.9170 H   0  0  0  0  0  0  0  0  0  0  0  0
    2.1323   14.4903   -4.5461 H   0  0  0  0  0  0  0  0  0  0  0  0
   -0.8924   13.5300   -1.6285 H   0  0  0  0  0  0  0  0  0  0  0  0
   -1.1700   14.3900   -3.1810 H   0  0  0  0  0  0  0  0  0  0  0  0
   -0.8101   12.6301   -3.1810 H   0  0  0  0  0  0  0  0  0  0  0  0
    2.8073   12.9767   -2.7793 H   0  0  0  0  0  0  0  0  0  0  0  0
    1.1882   11.8503   -4.4379 H   0  0  0  0  0  0  0  0  0  0  0  0
    2.4509   10.8702   -3.5246 H   0  0  0  0  0  0  0  0  0  0  0  0
    0.0604    9.7840   -3.7358 H   0  0  0  0  0  0  0  0  0  0  0  0
   -0.1916   12.0435   -0.4003 H   0  0  0  0  0  0  0  0  0  0  0  0
    1.6209    9.6857    0.4093 H   0  0  0  0  0  0  0  0  0  0  0  0
    1.1129   11.0830    1.4581 H   0  0  0  0  0  0  0  0  0  0  0  0
   -0.1706    9.0256    1.9525 H   0  0  0  0  0  0  0  0  0  0  0  0
   -1.2055   10.3722    1.3351 H   0  0  0  0  0  0  0  0  0  0  0  0
   -1.8961    8.3273    0.2869 H   0  0  0  0  0  0  0  0  0  0  0  0
    0.8070    8.1260   -0.6880 H   0  0  0  0  0  0  0  0  0  0  0  0
   -2.6554   10.5649   -0.1125 H   0  0  0  0  0  0  0  0  0  0  0  0
   -2.2717   11.3966   -1.6577 H   0  0  0  0  0  0  0  0  0  0  0  0
   -3.3298    9.9450   -1.6577 H   0  0  0  0  0  0  0  0  0  0  0  0
   -1.9278    7.5430   -1.9670 H   0  0  0  0  0  0  0  0  0  0  0  0
   -2.4023    8.8724   -3.0780 H   0  0  0  0  0  0  0  0  0  0  0  0
   -0.7130    8.2618   -3.0780 H   0  0  0  0  0  0  0  0  0  0  0  0
    3.3475   11.2071    0.2385 H   0  0  0  0  0  0  0  0  0  0  0  0
    3.0184   10.3524   -1.3067 H   0  0  0  0  0  0  0  0  0  0  0  0
    3.9800   11.8696   -1.3067 H   0  0  0  0  0  0  0  0  0  0  0  0
    1.5753   13.0444    0.9614 H   0  0  0  0  0  0  0  0  0  0  0  0
    2.9963   13.6832   -0.0420 H   0  0  0  0  0  0  0  0  0  0  0  0
    0.0763   14.4629   -0.2669 H   0  0  0  0  0  0  0  0  0  0  0  0
    1.4765   15.4741    0.2656 H   0  0  0  0  0  0  0  0  0  0  0  0
    3.3840   15.5003   -0.9678 H   0  0  0  0  0  0  0  0  0  0  0  0
    3.4586   14.5965   -2.5184 H   0  0  0  0  0  0  0  0  0  0  0  0
    3.0653   16.3492   -2.5184 H   0  0  0  0  0  0  0  0  0  0  0  0
  1  2  1  0
  2  3  1  0
  3  4  1  0
  4  5  1  0
  5  6  1  0
  6  7  1  0
  7  8  1  0
  7  9  1  0
  2 10  1  0
 10 11  1  0
 11 12  1  0
 12 13  1  0
 13 14  1  1
 13 15  1  0
 15 16  1  0
 16 17  1  0
 17 18  2  0
 18 19  1  0
 19 20  1  0
 20 21  1  0
 21 22  1  0
 22 23  1  0
 22 24  1  0
 24 25  1  0
 24 26  1  0
 19 27  1  0
 27 28  1  6
 27 29  1  0
 29 30  1  0
 30 31  1  0
 31 32  1  1
  7  5  1  0
 31 10  1  0
 31 13  1  0
 27 15  1  0
 24 18  1  0
  1 33  1  0
  1 34  1  0
  1 35  1  0
  2 36  1  6
  3 37  1  0
  3 38  1  0
  4 39  1  0
  4 40  1  0
  5 41  1  1
  8 42  1  0
  8 43  1  0
  8 44  1  0
  9 45  1  0
  9 46  1  0
  9 47  1  0
 10 48  1  1
 11 49  1  0
 11 50  1  0
 12 51  1  0
 12 52  1  0
 14 53  1  0
 14 54  1  0
 14 55  1  0
 15 56  1  6
 16 57  1  0
 16 58  1  0
 17 59  1  0
 19 60  1  1
 20 61  1  0
 20 62  1  0
 21 63  1  0
 21 64  1  0
 22 65  1  1
 23 66  1  0
 25 67  1  0
 25 68  1  0
 25 69  1  0
 26 70  1  0
 26 71  1  0
 26 72  1  0
 28 73  1  0
 28 74  1  0
 28 75  1  0
 29 76  1  0
 29 77  1  0
 30 78  1  0
 30 79  1  0
 32 80  1  0
 32 81  1  0
 32 82  1  0
M  END
>  <meeko>  (2) 
{"is_sidechain": [false], "intermolecular_energy": 2.731, "internal_energy": -0.839}

$$$$
EPH_relaxed_0001_pdb2pqr_Repair_380_r2_0001_out
     RDKit          3D

 82 86  0  0  0  0  0  0  0  0999 V2000
    1.9850   19.6320   -0.5830 C   0  0  0  0  0  0  0  0  0  0  0  0
    2.3820   18.4070    0.2450 C   0  0  2  0  0  0  0  0  0  0  0  0
    3.8320   17.9610   -0.0350 C   0  0  0  0  0  0  0  0  0  0  0  0
    4.8030   18.2740    1.1070 C   0  0  0  0  0  0  0  0  0  0  0  0
    4.1400   19.0560    2.2000 C   0  0  2  0  0  0  0  0  0  0  0  0
    4.8820   20.1950    2.6560 O   0  0  0  0  0  0  0  0  0  0  0  0
    4.6840   19.1420    3.6140 C   0  0  0  0  0  0  0  0  0  0  0  0
    5.9420   18.4360    4.0110 C   0  0  0  0  0  0  0  0  0  0  0  0
    3.7440   19.5050    4.7210 C   0  0  0  0  0  0  0  0  0  0  0  0
    1.4210   17.2570   -0.0330 C   0  0  1  0  0  0  0  0  0  0  0  0
    0.1400   17.7170   -0.7790 C   0  0  0  0  0  0  0  0  0  0  0  0
   -0.2610   16.5630   -1.7330 C   0  0  0  0  0  0  0  0  0  0  0  0
    0.5940   15.3600   -1.2720 C   0  0  1  0  0  0  0  0  0  0  0  0
   -0.1670   14.7750   -0.0410 C   0  0  0  0  0  0  0  0  0  0  0  0
    0.8810   14.2630   -2.3480 C   0  0  2  0  0  0  0  0  0  0  0  0
   -0.3640   13.5390   -2.8900 C   0  0  0  0  0  0  0  0  0  0  0  0
   -0.7600   12.3080   -2.1460 C   0  0  0  0  0  0  0  0  0  0  0  0
    0.0110   11.6420   -1.2670 C   0  0  0  0  0  0  0  0  0  0  0  0
    1.4650   12.0650   -1.0170 C   0  0  1  0  0  0  0  0  0  0  0  0
    2.3790   10.8120   -1.0360 C   0  0  0  0  0  0  0  0  0  0  0  0
    1.9110    9.7310   -0.0670 C   0  0  0  0  0  0  0  0  0  0  0  0
    0.4830    9.2960   -0.3830 C   0  0  2  0  0  0  0  0  0  0  0  0
    0.4730    8.6350   -1.6520 O   0  0  0  0  0  0  0  0  0  0  0  0
   -0.5280   10.4770   -0.4010 C   0  0  0  0  0  0  0  0  0  0  0  0
   -0.7430   11.0000    1.0400 C   0  0  0  0  0  0  0  0  0  0  0  0
   -1.9000    9.9230   -0.8710 C   0  0  0  0  0  0  0  0  0  0  0  0
    2.0150   13.2360   -1.9400 C   0  0  1  0  0  0  0  0  0  0  0  0
    2.5790   12.6460   -3.2690 C   0  0  0  0  0  0  0  0  0  0  0  0
    3.2250   13.9370   -1.2160 C   0  0  0  0  0  0  0  0  0  0  0  0
    2.8850   15.0930   -0.2560 C   0  0  0  0  0  0  0  0  0  0  0  0
    1.9380   16.0970   -0.9210 C   0  0  2  0  0  0  0  0  0  0  0  0
    2.6850   16.7180   -2.1490 C   0  0  0  0  0  0  0  0  0  0  0  0
    1.7170   20.4590    0.0910 H   0  0  0  0  0  0  0  0  0  0  0  0
    2.8308   19.9355   -1.2175 H   0  0  0  0  0  0  0  0  0  0  0  0
    1.1220   19.3817   -1.2175 H   0  0  0  0  0  0  0  0  0  0  0  0
    2.3232   18.6924    1.3057 H   0  0  0  0  0  0  0  0  0  0  0  0
    3.8345   16.8742   -0.2051 H   0  0  0  0  0  0  0  0  0  0  0  0
    4.1776   18.5239   -0.9146 H   0  0  0  0  0  0  0  0  0  0  0  0
    5.1800   17.3283    1.5236 H   0  0  0  0  0  0  0  0  0  0  0  0
    5.6252   18.8816    0.7010 H   0  0  0  0  0  0  0  0  0  0  0  0
    3.1434   18.8071    1.8065 H   0  0  0  0  0  0  0  0  0  0  0  0
    6.0103   18.3977    5.1082 H   0  0  0  0  0  0  0  0  0  0  0  0
    5.9307   17.4124    3.6083 H   0  0  0  0  0  0  0  0  0  0  0  0
    6.8098   18.9789    3.6083 H   0  0  0  0  0  0  0  0  0  0  0  0
    4.2292   19.3176    5.6903 H   0  0  0  0  0  0  0  0  0  0  0  0
    3.4796   20.5699    4.6431 H   0  0  0  0  0  0  0  0  0  0  0  0
    2.8325   18.8942    4.6431 H   0  0  0  0  0  0  0  0  0  0  0  0
    1.2573   16.9005    0.9947 H   0  0  0  0  0  0  0  0  0  0  0  0
   -0.6685   17.9114   -0.0589 H   0  0  0  0  0  0  0  0  0  0  0  0
    0.3211   18.6467   -1.3383 H   0  0  0  0  0  0  0  0  0  0  0  0
   -1.3332   16.3361   -1.6386 H   0  0  0  0  0  0  0  0  0  0  0  0
   -0.0886   16.8165   -2.7894 H   0  0  0  0  0  0  0  0  0  0  0  0
    0.3027   15.1360    0.8859 H   0  0  0  0  0  0  0  0  0  0  0  0
   -1.2173   15.1004   -0.0707 H   0  0  0  0  0  0  0  0  0  0  0  0
   -0.1226   13.6763   -0.0707 H   0  0  0  0  0  0  0  0  0  0  0  0
    1.2726   14.8541   -3.1890 H   0  0  0  0  0  0  0  0  0  0  0  0
   -1.2084   14.2431   -2.8558 H   0  0  0  0  0  0  0  0  0  0  0  0
   -0.1056   13.2097   -3.9073 H   0  0  0  0  0  0  0  0  0  0  0  0
   -1.7688   11.9107   -2.3319 H   0  0  0  0  0  0  0  0  0  0  0  0
    1.4809   12.5234   -0.0172 H   0  0  0  0  0  0  0  0  0  0  0  0
    2.3841   10.3948   -2.0538 H   0  0  0  0  0  0  0  0  0  0  0  0
    3.3849   11.1281   -0.7226 H   0  0  0  0  0  0  0  0  0  0  0  0
    2.5788    8.8607   -0.1488 H   0  0  0  0  0  0  0  0  0  0  0  0
    1.9354   10.1402    0.9538 H   0  0  0  0  0  0  0  0  0  0  0  0
    0.1591    8.6185    0.4208 H   0  0  0  0  0  0  0  0  0  0  0  0
    0.9750    9.1860   -2.2750 H   0  0  0  0  0  0  0  0  0  0  0  0
   -0.4269   10.2310    1.7602 H   0  0  0  0  0  0  0  0  0  0  0  0
   -0.1468   11.9118    1.1919 H   0  0  0  0  0  0  0  0  0  0  0  0
   -1.8082   11.2289    1.1919 H   0  0  0  0  0  0  0  0  0  0  0  0
   -2.5152    9.6746    0.0064 H   0  0  0  0  0  0  0  0  0  0  0  0
   -2.4148   10.6837   -1.4762 H   0  0  0  0  0  0  0  0  0  0  0  0
   -1.7422    9.0181   -1.4762 H   0  0  0  0  0  0  0  0  0  0  0  0
    3.3223   11.8685   -3.0387 H   0  0  0  0  0  0  0  0  0  0  0  0
    1.7570   12.2061   -3.8528 H   0  0  0  0  0  0  0  0  0  0  0  0
    3.0555   13.4473   -3.8528 H   0  0  0  0  0  0  0  0  0  0  0  0
    3.7564   13.1681   -0.6360 H   0  0  0  0  0  0  0  0  0  0  0  0
    3.8156   14.3966   -2.0222 H   0  0  0  0  0  0  0  0  0  0  0  0
    2.4017   14.6836    0.6434 H   0  0  0  0  0  0  0  0  0  0  0  0
    3.8168   15.6132    0.0108 H   0  0  0  0  0  0  0  0  0  0  0  0
    3.4854   17.3834   -1.7931 H   0  0  0  0  0  0  0  0  0  0  0  0
    3.1214   15.9128   -2.7583 H   0  0  0  0  0  0  0  0  0  0  0  0
    1.9730   17.2941   -2.7583 H   0  0  0  0  0  0  0  0  0  0  0  0
  1  2  1  0
  2  3  1  0
  3  4  1  0
  4  5  1  0
  5  6  1  0
  6  7  1  0
  7  8  1  0
  7  9  1  0
  2 10  1  0
 10 11  1  0
 11 12  1  0
 12 13  1  0
 13 14  1  1
 13 15  1  0
 15 16  1  0
 16 17  1  0
 17 18  2  0
 18 19  1  0
 19 20  1  0
 20 21  1  0
 21 22  1  0
 22 23  1  0
 22 24  1  0
 24 25  1  0
 24 26  1  0
 19 27  1  0
 27 28  1  6
 27 29  1  0
 29 30  1  0
 30 31  1  0
 31 32  1  6
  7  5  1  0
 31 10  1  0
 31 13  1  0
 27 15  1  0
 24 18  1  0
  1 33  1  0
  1 34  1  0
  1 35  1  0
  2 36  1  1
  3 37  1  0
  3 38  1  0
  4 39  1  0
  4 40  1  0
  5 41  1  1
  8 42  1  0
  8 43  1  0
  8 44  1  0
  9 45  1  0
  9 46  1  0
  9 47  1  0
 10 48  1  1
 11 49  1  0
 11 50  1  0
 12 51  1  0
 12 52  1  0
 14 53  1  0
 14 54  1  0
 14 55  1  0
 15 56  1  6
 16 57  1  0
 16 58  1  0
 17 59  1  0
 19 60  1  1
 20 61  1  0
 20 62  1  0
 21 63  1  0
 21 64  1  0
 22 65  1  1
 23 66  1  0
 25 67  1  0
 25 68  1  0
 25 69  1  0
 26 70  1  0
 26 71  1  0
 26 72  1  0
 28 73  1  0
 28 74  1  0
 28 75  1  0
 29 76  1  0
 29 77  1  0
 30 78  1  0
 30 79  1  0
 32 80  1  0
 32 81  1  0
 32 82  1  0
M  END
>  <meeko>  (3) 
{"is_sidechain": [false], "intermolecular_energy": 2.731, "internal_energy": -0.839}

$$$$
EPH_relaxed_0001_pdb2pqr_Repair_380_r2_0001_out
     RDKit          3D

 82 86  0  0  0  0  0  0  0  0999 V2000
    3.8290   17.5790    0.4460 C   0  0  0  0  0  0  0  0  0  0  0  0
    2.8220   17.8960   -0.6630 C   0  0  2  0  0  0  0  0  0  0  0  0
    2.1680   19.2800   -0.4760 C   0  0  0  0  0  0  0  0  0  0  0  0
    1.2310   19.3600    0.7320 C   0  0  0  0  0  0  0  0  0  0  0  0
   -0.0490   20.0630    0.3950 C   0  0  2  0  0  0  0  0  0  0  0  0
   -0.9660   20.1930    1.4890 O   0  0  0  0  0  0  0  0  0  0  0  0
   -1.4030   19.3780    0.3890 C   0  0  0  0  0  0  0  0  0  0  0  0
   -1.5450   17.9270    0.7270 C   0  0  0  0  0  0  0  0  0  0  0  0
   -2.5110   19.9880   -0.4110 C   0  0  0  0  0  0  0  0  0  0  0  0
    1.7480   16.8150   -0.7150 C   0  0  1  0  0  0  0  0  0  0  0  0
    0.4230   17.3190   -1.3460 C   0  0  0  0  0  0  0  0  0  0  0  0
   -0.1810   16.1260   -2.1300 C   0  0  0  0  0  0  0  0  0  0  0  0
    0.6310   14.8970   -1.6570 C   0  0  1  0  0  0  0  0  0  0  0  0
   -0.0140   14.4920   -0.2950 C   0  0  0  0  0  0  0  0  0  0  0  0
    0.6960   13.6890   -2.6470 C   0  0  2  0  0  0  0  0  0  0  0  0
   -0.6580   13.0340   -2.9680 C   0  0  0  0  0  0  0  0  0  0  0  0
   -1.0520   11.9110   -2.0660 C   0  0  0  0  0  0  0  0  0  0  0  0
   -0.2300   11.2600   -1.2220 C   0  0  0  0  0  0  0  0  0  0  0  0
    1.2710   11.5740   -1.1860 C   0  0  1  0  0  0  0  0  0  0  0  0
    2.0770   10.2480   -1.1900 C   0  0  0  0  0  0  0  0  0  0  0  0
    1.6520    9.3020   -0.0720 C   0  0  0  0  0  0  0  0  0  0  0  0
    0.1660    8.9680   -0.1750 C   0  0  2  0  0  0  0  0  0  0  0  0
   -0.0520    8.2010   -1.3640 O   0  0  0  0  0  0  0  0  0  0  0  0
   -0.7450   10.2260   -0.1900 C   0  0  0  0  0  0  0  0  0  0  0  0
   -0.7380   10.8910    1.2090 C   0  0  0  0  0  0  0  0  0  0  0  0
   -2.2040    9.7570   -0.4400 C   0  0  0  0  0  0  0  0  0  0  0  0
    1.7900   12.6070   -2.2770 C   0  0  1  0  0  0  0  0  0  0  0  0
    2.1370   11.8550   -3.5990 C   0  0  0  0  0  0  0  0  0  0  0  0
    3.1300   13.2590   -1.7710 C   0  0  0  0  0  0  0  0  0  0  0  0
    3.0020   14.5200   -0.8950 C   0  0  0  0  0  0  0  0  0  0  0  0
    2.0600   15.5410   -1.5390 C   0  0  2  0  0  0  0  0  0  0  0  0
    2.6940   15.9850   -2.9010 C   0  0  0  0  0  0  0  0  0  0  0  0
    3.3537   17.7286    1.4266 H   0  0  0  0  0  0  0  0  0  0  0  0
    4.1587   16.5336    0.3540 H   0  0  0  0  0  0  0  0  0  0  0  0
    4.6981   18.2470    0.3540 H   0  0  0  0  0  0  0  0  0  0  0  0
    3.3739   17.9178   -1.6143 H   0  0  0  0  0  0  0  0  0  0  0  0
    2.9656   20.0264   -0.3468 H   0  0  0  0  0  0  0  0  0  0  0  0
    1.5563   19.4698   -1.3703 H   0  0  0  0  0  0  0  0  0  0  0  0
    0.9987   18.3397    1.0712 H   0  0  0  0  0  0  0  0  0  0  0  0
    1.7387   19.9322    1.5225 H   0  0  0  0  0  0  0  0  0  0  0  0
    0.4636   20.6904   -0.3491 H   0  0  0  0  0  0  0  0  0  0  0  0
   -1.5570   17.8046    1.8201 H   0  0  0  0  0  0  0  0  0  0  0  0
   -2.4851   17.5424    0.3047 H   0  0  0  0  0  0  0  0  0  0  0  0
   -0.6973   17.3675    0.3047 H   0  0  0  0  0  0  0  0  0  0  0  0
   -3.2681   20.4048    0.2695 H   0  0  0  0  0  0  0  0  0  0  0  0
   -2.1065   20.7906   -1.0452 H   0  0  0  0  0  0  0  0  0  0  0  0
   -2.9728   19.2170   -1.0452 H   0  0  0  0  0  0  0  0  0  0  0  0
    1.6866   16.5651    0.3545 H   0  0  0  0  0  0  0  0  0  0  0  0
   -0.2718   17.6452   -0.5581 H   0  0  0  0  0  0  0  0  0  0  0  0
    0.6031   18.1774   -2.0099 H   0  0  0  0  0  0  0  0  0  0  0  0
   -1.2473   16.0030   -1.8892 H   0  0  0  0  0  0  0  0  0  0  0  0
   -0.1231   16.2703   -3.2190 H   0  0  0  0  0  0  0  0  0  0  0  0
    0.6010   14.8782    0.5312 H   0  0  0  0  0  0  0  0  0  0  0  0
   -1.0265   14.9168   -0.2281 H   0  0  0  0  0  0  0  0  0  0  0  0
   -0.0712   13.3955   -0.2281 H   0  0  0  0  0  0  0  0  0  0  0  0
    1.0235   14.1673   -3.5819 H   0  0  0  0  0  0  0  0  0  0  0  0
   -1.4349   13.8101   -2.9041 H   0  0  0  0  0  0  0  0  0  0  0  0
   -0.5545   12.5966   -3.9720 H   0  0  0  0  0  0  0  0  0  0  0  0
   -2.1033   11.5884   -2.0936 H   0  0  0  0  0  0  0  0  0  0  0  0
    1.4463   12.1150   -0.2444 H   0  0  0  0  0  0  0  0  0  0  0  0
    1.9227    9.7444   -2.1557 H   0  0  0  0  0  0  0  0  0  0  0  0
    3.1356   10.5002   -1.0296 H   0  0  0  0  0  0  0  0  0  0  0  0
    2.2358    8.3726   -0.1455 H   0  0  0  0  0  0  0  0  0  0  0  0
    1.8347    9.7957    0.8939 H   0  0  0  0  0  0  0  0  0  0  0  0
   -0.1068    8.3949    0.7234 H   0  0  0  0  0  0  0  0  0  0  0  0
   -0.2750    7.2940   -1.0930 H   0  0  0  0  0  0  0  0  0  0  0  0
   -0.7462   10.1118    1.9854 H   0  0  0  0  0  0  0  0  0  0  0  0
    0.1667   11.5073    1.3175 H   0  0  0  0  0  0  0  0  0  0  0  0
   -1.6295   11.5262    1.3175 H   0  0  0  0  0  0  0  0  0  0  0  0
   -2.7075    9.5952    0.5245 H   0  0  0  0  0  0  0  0  0  0  0  0
   -2.7439   10.5269   -1.0108 H   0  0  0  0  0  0  0  0  0  0  0  0
   -2.1942    8.8167   -1.0108 H   0  0  0  0  0  0  0  0  0  0  0  0
    2.5868   10.8802   -3.3591 H   0  0  0  0  0  0  0  0  0  0  0  0
    1.2189   11.7009   -4.1850 H   0  0  0  0  0  0  0  0  0  0  0  0
    2.8500   12.4536   -4.1850 H   0  0  0  0  0  0  0  0  0  0  0  0
    3.6687   12.4999   -1.1848 H   0  0  0  0  0  0  0  0  0  0  0  0
    3.6492   13.5928   -2.6815 H   0  0  0  0  0  0  0  0  0  0  0  0
    2.6045   14.2349    0.0903 H   0  0  0  0  0  0  0  0  0  0  0  0
    3.9970   14.9774   -0.7909 H   0  0  0  0  0  0  0  0  0  0  0  0
    3.5810   16.6061   -2.7074 H   0  0  0  0  0  0  0  0  0  0  0  0
    2.9883   15.0946   -3.4760 H   0  0  0  0  0  0  0  0  0  0  0  0
    1.9579   16.5660   -3.4760 H   0  0  0  0  0  0  0  0  0  0  0  0
  1  2  1  0
  2  3  1  0
  3  4  1  0
  4  5  1  0
  5  6  1  0
  6  7  1  0
  7  8  1  0
  7  9  1  0
  2 10  1  0
 10 11  1  0
 11 12  1  0
 12 13  1  0
 13 14  1  1
 13 15  1  0
 15 16  1  0
 16 17  1  0
 17 18  2  0
 18 19  1  0
 19 20  1  0
 20 21  1  0
 21 22  1  0
 22 23  1  0
 22 24  1  0
 24 25  1  0
 24 26  1  0
 19 27  1  0
 27 28  1  6
 27 29  1  0
 29 30  1  0
 30 31  1  0
 31 32  1  6
  7  5  1  0
 31 10  1  0
 31 13  1  0
 27 15  1  0
 24 18  1  0
  1 33  1  0
  1 34  1  0
  1 35  1  0
  2 36  1  6
  3 37  1  0
  3 38  1  0
  4 39  1  0
  4 40  1  0
  5 41  1  6
  8 42  1  0
  8 43  1  0
  8 44  1  0
  9 45  1  0
  9 46  1  0
  9 47  1  0
 10 48  1  1
 11 49  1  0
 11 50  1  0
 12 51  1  0
 12 52  1  0
 14 53  1  0
 14 54  1  0
 14 55  1  0
 15 56  1  6
 16 57  1  0
 16 58  1  0
 17 59  1  0
 19 60  1  1
 20 61  1  0
 20 62  1  0
 21 63  1  0
 21 64  1  0
 22 65  1  1
 23 66  1  0
 25 67  1  0
 25 68  1  0
 25 69  1  0
 26 70  1  0
 26 71  1  0
 26 72  1  0
 28 73  1  0
 28 74  1  0
 28 75  1  0
 29 76  1  0
 29 77  1  0
 30 78  1  0
 30 79  1  0
 32 80  1  0
 32 81  1  0
 32 82  1  0
M  END
>  <meeko>  (4) 
{"is_sidechain": [false], "intermolecular_energy": 2.731, "internal_energy": -0.839}

$$$$
EPH_relaxed_0001_pdb2pqr_Repair_380_r2_0001_out
     RDKit          3D

 82 86  0  0  0  0  0  0  0  0999 V2000
    0.4230    8.8110   -2.4430 C   0  0  0  0  0  0  0  0  0  0  0  0
    1.1730    9.9600   -3.1220 C   0  0  2  0  0  0  0  0  0  0  0  0
    2.6710    9.9720   -2.7580 C   0  0  0  0  0  0  0  0  0  0  0  0
    3.5630   10.5920   -3.8370 C   0  0  0  0  0  0  0  0  0  0  0  0
    4.9570   10.8250   -3.3390 C   0  0  2  0  0  0  0  0  0  0  0  0
    5.5630   12.0380   -3.8020 O   0  0  0  0  0  0  0  0  0  0  0  0
    6.1790   10.8160   -4.2370 C   0  0  0  0  0  0  0  0  0  0  0  0
    6.0640   10.5670   -5.7090 C   0  0  0  0  0  0  0  0  0  0  0  0
    7.5190   10.5620   -3.6200 C   0  0  0  0  0  0  0  0  0  0  0  0
    0.5350   11.2920   -2.7450 C   0  0  1  0  0  0  0  0  0  0  0  0
   -0.8480   11.1190   -2.0620 C   0  0  0  0  0  0  0  0  0  0  0  0
   -0.9690   12.2470   -1.0050 C   0  0  0  0  0  0  0  0  0  0  0  0
    0.1860   13.2200   -1.3390 C   0  0  1  0  0  0  0  0  0  0  0  0
   -0.3520   14.0920   -2.5170 C   0  0  0  0  0  0  0  0  0  0  0  0
    0.7100   14.1020   -0.1600 C   0  0  2  0  0  0  0  0  0  0  0  0
   -0.3230   15.0750    0.4360 C   0  0  0  0  0  0  0  0  0  0  0  0
   -0.3580   16.4290   -0.1910 C   0  0  0  0  0  0  0  0  0  0  0  0
    0.5920   16.9450   -0.9930 C   0  0  0  0  0  0  0  0  0  0  0  0
    1.8930   16.1800   -1.2660 C   0  0  1  0  0  0  0  0  0  0  0  0
    3.1010   17.1420   -1.1150 C   0  0  0  0  0  0  0  0  0  0  0  0
    2.9660   18.3900   -1.9820 C   0  0  0  0  0  0  0  0  0  0  0  0
    1.6890   19.1550   -1.6410 C   0  0  2  0  0  0  0  0  0  0  0  0
    1.8060   19.6790   -0.3150 O   0  0  0  0  0  0  0  0  0  0  0  0
    0.4060   18.2840   -1.7480 C   0  0  0  0  0  0  0  0  0  0  0  0
    0.1150   17.9670   -3.2360 C   0  0  0  0  0  0  0  0  0  0  0  0
   -0.7910   19.1340   -1.2430 C   0  0  0  0  0  0  0  0  0  0  0  0
    2.0850   14.8270   -0.4530 C   0  0  1  0  0  0  0  0  0  0  0  0
    2.7360   15.1270    0.9320 C   0  0  0  0  0  0  0  0  0  0  0  0
    3.0970   13.9020   -1.2280 C   0  0  0  0  0  0  0  0  0  0  0  0
    2.5030   12.9670   -2.2980 C   0  0  0  0  0  0  0  0  0  0  0  0
    1.3040   12.1910   -1.7450 C   0  0  2  0  0  0  0  0  0  0  0  0
    1.8190   11.2870   -0.5730 C   0  0  0  0  0  0  0  0  0  0  0  0
    0.4948    8.9210   -1.3509 H   0  0  0  0  0  0  0  0  0  0  0  0
   -0.6344    8.8341   -2.7451 H   0  0  0  0  0  0  0  0  0  0  0  0
    0.8698    7.8523   -2.7451 H   0  0  0  0  0  0  0  0  0  0  0  0
    1.0989    9.8063   -4.2087 H   0  0  0  0  0  0  0  0  0  0  0  0
    2.7979   10.5481   -1.8296 H   0  0  0  0  0  0  0  0  0  0  0  0
    2.9828    8.9229   -2.6477 H   0  0  0  0  0  0  0  0  0  0  0  0
    3.6023    9.9120   -4.7008 H   0  0  0  0  0  0  0  0  0  0  0  0
    3.1333   11.5645   -4.1192 H   0  0  0  0  0  0  0  0  0  0  0  0
    4.7312   10.3068   -2.3954 H   0  0  0  0  0  0  0  0  0  0  0  0
    5.6084    9.5804   -5.8795 H   0  0  0  0  0  0  0  0  0  0  0  0
    5.4342   11.3454   -6.1644 H   0  0  0  0  0  0  0  0  0  0  0  0
    7.0650   10.5922   -6.1644 H   0  0  0  0  0  0  0  0  0  0  0  0
    7.4272   10.5794   -2.5240 H   0  0  0  0  0  0  0  0  0  0  0  0
    7.8900    9.5775   -3.9413 H   0  0  0  0  0  0  0  0  0  0  0  0
    8.2245   11.3424   -3.9413 H   0  0  0  0  0  0  0  0  0  0  0  0
    0.5067   11.7703   -3.7351 H   0  0  0  0  0  0  0  0  0  0  0  0
   -1.6523   11.2099   -2.8068 H   0  0  0  0  0  0  0  0  0  0  0  0
   -0.9360   10.1276   -1.5936 H   0  0  0  0  0  0  0  0  0  0  0  0
   -1.9411   12.7549   -1.0886 H   0  0  0  0  0  0  0  0  0  0  0  0
   -0.9067   11.8630    0.0239 H   0  0  0  0  0  0  0  0  0  0  0  0
   -0.8892   14.9627   -2.1130 H   0  0  0  0  0  0  0  0  0  0  0  0
    0.4915   14.4354   -3.1340 H   0  0  0  0  0  0  0  0  0  0  0  0
   -1.0373   13.4922   -3.1340 H   0  0  0  0  0  0  0  0  0  0  0  0
    0.9047   13.3553    0.6239 H   0  0  0  0  0  0  0  0  0  0  0  0
   -1.3196   14.6229    0.3249 H   0  0  0  0  0  0  0  0  0  0  0  0
   -0.0252   15.2318    1.4832 H   0  0  0  0  0  0  0  0  0  0  0  0
   -1.2347   17.0588    0.0203 H   0  0  0  0  0  0  0  0  0  0  0  0
    1.8256   15.8260   -2.3053 H   0  0  0  0  0  0  0  0  0  0  0  0
    3.1767   17.4506   -0.0619 H   0  0  0  0  0  0  0  0  0  0  0  0
    4.0012   16.6023   -1.4440 H   0  0  0  0  0  0  0  0  0  0  0  0
    3.8340   19.0435   -1.8102 H   0  0  0  0  0  0  0  0  0  0  0  0
    2.9199   18.0817   -3.0369 H   0  0  0  0  0  0  0  0  0  0  0  0
    1.5813   19.9633   -2.3793 H   0  0  0  0  0  0  0  0  0  0  0  0
    1.4650   20.5890   -0.3270 H   0  0  0  0  0  0  0  0  0  0  0  0
   -0.6276   17.1580   -3.3001 H   0  0  0  0  0  0  0  0  0  0  0  0
   -0.2787   18.8663   -3.7323 H   0  0  0  0  0  0  0  0  0  0  0  0
    1.0446   17.6516   -3.7323 H   0  0  0  0  0  0  0  0  0  0  0  0
   -0.7986   19.1394   -0.1430 H   0  0  0  0  0  0  0  0  0  0  0  0
   -0.6912   20.1647   -1.6141 H   0  0  0  0  0  0  0  0  0  0  0  0
   -1.7312   18.7001   -1.6141 H   0  0  0  0  0  0  0  0  0  0  0  0
    2.0526   14.8121    1.7343 H   0  0  0  0  0  0  0  0  0  0  0  0
    3.6832   14.5746    1.0193 H   0  0  0  0  0  0  0  0  0  0  0  0
    2.9314   16.2060    1.0193 H   0  0  0  0  0  0  0  0  0  0  0  0
    3.8300   14.5541   -1.7256 H   0  0  0  0  0  0  0  0  0  0  0  0
    3.5194   13.2333   -0.4636 H   0  0  0  0  0  0  0  0  0  0  0  0
    2.1761   13.5680   -3.1594 H   0  0  0  0  0  0  0  0  0  0  0  0
    3.2766   12.2464   -2.6019 H   0  0  0  0  0  0  0  0  0  0  0  0
    1.5556   11.7494    0.3897 H   0  0  0  0  0  0  0  0  0  0  0  0
    1.3511   10.2940   -0.6430 H   0  0  0  0  0  0  0  0  0  0  0  0
    2.9118   11.1831   -0.6430 H   0  0  0  0  0  0  0  0  0  0  0  0
  1  2  1  0
  2  3  1  0
  3  4  1  0
  4  5  1  0
  5  6  1  0
  6  7  1  0
  7  8  1  0
  7  9  1  0
  2 10  1  0
 10 11  1  0
 11 12  1  0
 12 13  1  0
 13 14  1  6
 13 15  1  0
 15 16  1  0
 16 17  1  0
 17 18  2  0
 18 19  1  0
 19 20  1  0
 20 21  1  0
 21 22  1  0
 22 23  1  0
 22 24  1  0
 24 25  1  0
 24 26  1  0
 19 27  1  0
 27 28  1  1
 27 29  1  0
 29 30  1  0
 30 31  1  0
 31 32  1  1
  7  5  1  0
 31 10  1  0
 31 13  1  0
 27 15  1  0
 24 18  1  0
  1 33  1  0
  1 34  1  0
  1 35  1  0
  2 36  1  6
  3 37  1  0
  3 38  1  0
  4 39  1  0
  4 40  1  0
  5 41  1  1
  8 42  1  0
  8 43  1  0
  8 44  1  0
  9 45  1  0
  9 46  1  0
  9 47  1  0
 10 48  1  6
 11 49  1  0
 11 50  1  0
 12 51  1  0
 12 52  1  0
 14 53  1  0
 14 54  1  0
 14 55  1  0
 15 56  1  1
 16 57  1  0
 16 58  1  0
 17 59  1  0
 19 60  1  6
 20 61  1  0
 20 62  1  0
 21 63  1  0
 21 64  1  0
 22 65  1  6
 23 66  1  0
 25 67  1  0
 25 68  1  0
 25 69  1  0
 26 70  1  0
 26 71  1  0
 26 72  1  0
 28 73  1  0
 28 74  1  0
 28 75  1  0
 29 76  1  0
 29 77  1  0
 30 78  1  0
 30 79  1  0
 32 80  1  0
 32 81  1  0
 32 82  1  0
M  END
>  <meeko>  (5) 
{"is_sidechain": [false], "intermolecular_energy": 2.731, "internal_energy": -0.839}

$$$$
EPH_relaxed_0001_pdb2pqr_Repair_380_r2_0001_out
     RDKit          3D

 82 86  0  0  0  0  0  0  0  0999 V2000
   -0.2730   10.5190   -4.0160 C   0  0  0  0  0  0  0  0  0  0  0  0
    0.9550   10.3660   -3.1140 C   0  0  2  0  0  0  0  0  0  0  0  0
    0.9540    9.0250   -2.3530 C   0  0  0  0  0  0  0  0  0  0  0  0
   -0.4330    8.5940   -1.8680 C   0  0  0  0  0  0  0  0  0  0  0  0
   -0.6610    8.9740   -0.4360 C   0  0  2  0  0  0  0  0  0  0  0  0
   -2.0360    8.9800   -0.0310 O   0  0  0  0  0  0  0  0  0  0  0  0
   -1.3640   10.2490   -0.0110 C   0  0  0  0  0  0  0  0  0  0  0  0
   -1.8820   11.2280   -1.0180 C   0  0  0  0  0  0  0  0  0  0  0  0
   -1.1150   10.7780    1.3670 C   0  0  0  0  0  0  0  0  0  0  0  0
    1.0220   11.5250   -2.1270 C   0  0  1  0  0  0  0  0  0  0  0  0
    2.0790   11.3010   -1.0130 C   0  0  0  0  0  0  0  0  0  0  0  0
    2.6820   12.6910   -0.6810 C   0  0  0  0  0  0  0  0  0  0  0  0
    1.7310   13.7010   -1.3660 C   0  0  1  0  0  0  0  0  0  0  0  0
    0.5280   13.8480   -0.3820 C   0  0  0  0  0  0  0  0  0  0  0  0
    2.3480   15.0890   -1.7350 C   0  0  2  0  0  0  0  0  0  0  0  0
    2.8420   15.9220   -0.5390 C   0  0  0  0  0  0  0  0  0  0  0  0
    1.8310   16.8450    0.0560 C   0  0  0  0  0  0  0  0  0  0  0  0
    0.6710   17.2110   -0.5200 C   0  0  0  0  0  0  0  0  0  0  0  0
    0.3230   16.7600   -1.9450 C   0  0  1  0  0  0  0  0  0  0  0  0
   -0.2030   17.9720   -2.7570 C   0  0  0  0  0  0  0  0  0  0  0  0
   -1.3670   18.6790   -2.0680 C   0  0  0  0  0  0  0  0  0  0  0  0
   -0.9630   19.1640   -0.6780 C   0  0  2  0  0  0  0  0  0  0  0  0
    0.0200   20.1940   -0.8160 O   0  0  0  0  0  0  0  0  0  0  0  0
   -0.4080   18.0300    0.2290 C   0  0  0  0  0  0  0  0  0  0  0  0
   -1.5580   17.0710    0.6260 C   0  0  0  0  0  0  0  0  0  0  0  0
    0.0920   18.6770    1.5490 C   0  0  0  0  0  0  0  0  0  0  0  0
    1.4570   15.9550   -2.7140 C   0  0  1  0  0  0  0  0  0  0  0  0
    2.4200   16.9490   -3.4330 C   0  0  0  0  0  0  0  0  0  0  0  0
    0.7920   15.0850   -3.8450 C   0  0  0  0  0  0  0  0  0  0  0  0
    0.3100   13.6770   -3.4460 C   0  0  0  0  0  0  0  0  0  0  0  0
    1.4040   12.9180   -2.6890 C   0  0  2  0  0  0  0  0  0  0  0  0
    2.6190   12.7350   -3.6600 C   0  0  0  0  0  0  0  0  0  0  0  0
   -1.1732   10.6312   -3.3939 H   0  0  0  0  0  0  0  0  0  0  0  0
   -0.1529   11.4091   -4.6510 H   0  0  0  0  0  0  0  0  0  0  0  0
   -0.3750    9.6266   -4.6510 H   0  0  0  0  0  0  0  0  0  0  0  0
    1.8443   10.3768   -3.7614 H   0  0  0  0  0  0  0  0  0  0  0  0
    1.3456    8.2452   -3.0228 H   0  0  0  0  0  0  0  0  0  0  0  0
    1.5792    9.1623   -1.4584 H   0  0  0  0  0  0  0  0  0  0  0  0
   -1.1965    9.0812   -2.4923 H   0  0  0  0  0  0  0  0  0  0  0  0
   -0.4997    7.4989   -1.9476 H   0  0  0  0  0  0  0  0  0  0  0  0
    0.2993    8.5271   -0.1393 H   0  0  0  0  0  0  0  0  0  0  0  0
   -2.3352   12.0845   -0.4973 H   0  0  0  0  0  0  0  0  0  0  0  0
   -1.0519   11.5795   -1.6483 H   0  0  0  0  0  0  0  0  0  0  0  0
   -2.6396   10.7394   -1.6483 H   0  0  0  0  0  0  0  0  0  0  0  0
   -1.4606   10.0438    2.1096 H   0  0  0  0  0  0  0  0  0  0  0  0
   -0.0381   10.9570    1.5020 H   0  0  0  0  0  0  0  0  0  0  0  0
   -1.6633   11.7220    1.5020 H   0  0  0  0  0  0  0  0  0  0  0  0
   -0.0222   11.5323   -1.7813 H   0  0  0  0  0  0  0  0  0  0  0  0
    1.6022   10.8719   -0.1194 H   0  0  0  0  0  0  0  0  0  0  0  0
    2.8600   10.6012   -1.3451 H   0  0  0  0  0  0  0  0  0  0  0  0
    2.7050   12.8549    0.4065 H   0  0  0  0  0  0  0  0  0  0  0  0
    3.7199   12.7906   -1.0315 H   0  0  0  0  0  0  0  0  0  0  0  0
    0.8943   13.8032    0.6542 H   0  0  0  0  0  0  0  0  0  0  0  0
    0.0299   14.8137   -0.5534 H   0  0  0  0  0  0  0  0  0  0  0  0
   -0.1879   13.0307   -0.5534 H   0  0  0  0  0  0  0  0  0  0  0  0
    3.2514   14.8042   -2.2943 H   0  0  0  0  0  0  0  0  0  0  0  0
    3.1713   15.2263    0.2469 H   0  0  0  0  0  0  0  0  0  0  0  0
    3.6481   16.5624   -0.9264 H   0  0  0  0  0  0  0  0  0  0  0  0
    2.0529   17.2614    1.0497 H   0  0  0  0  0  0  0  0  0  0  0  0
   -0.4724   16.0074   -1.8405 H   0  0  0  0  0  0  0  0  0  0  0  0
    0.6186   18.6916   -2.8880 H   0  0  0  0  0  0  0  0  0  0  0  0
   -0.5680   17.5929   -3.7230 H   0  0  0  0  0  0  0  0  0  0  0  0
   -1.6745   19.5428   -2.6757 H   0  0  0  0  0  0  0  0  0  0  0  0
   -2.1991   17.9671   -1.9641 H   0  0  0  0  0  0  0  0  0  0  0  0
   -1.8699   19.5445   -0.1853 H   0  0  0  0  0  0  0  0  0  0  0  0
    0.8000   19.9270   -0.3020 H   0  0  0  0  0  0  0  0  0  0  0  0
   -1.6261   17.0142    1.7224 H   0  0  0  0  0  0  0  0  0  0  0  0
   -2.5075   17.4487    0.2187 H   0  0  0  0  0  0  0  0  0  0  0  0
   -1.3570   16.0691    0.2187 H   0  0  0  0  0  0  0  0  0  0  0  0
   -0.3290   18.1322    2.4068 H   0  0  0  0  0  0  0  0  0  0  0  0
    1.1903   18.6294    1.5876 H   0  0  0  0  0  0  0  0  0  0  0  0
   -0.2310   19.7278    1.5876 H   0  0  0  0  0  0  0  0  0  0  0  0
    2.9791   17.5261   -2.6817 H   0  0  0  0  0  0  0  0  0  0  0  0
    3.1251   16.3861   -4.0622 H   0  0  0  0  0  0  0  0  0  0  0  0
    1.8350   17.6359   -4.0622 H   0  0  0  0  0  0  0  0  0  0  0  0
   -0.0792   15.6402   -4.2230 H   0  0  0  0  0  0  0  0  0  0  0  0
    1.5886   14.9174   -4.5849 H   0  0  0  0  0  0  0  0  0  0  0  0
   -0.5763   13.7692   -2.8010 H   0  0  0  0  0  0  0  0  0  0  0  0
    0.0635   13.1180   -4.3607 H   0  0  0  0  0  0  0  0  0  0  0  0
    3.5393   12.5964   -3.0737 H   0  0  0  0  0  0  0  0  0  0  0  0
    2.4518   11.8519   -4.2942 H   0  0  0  0  0  0  0  0  0  0  0  0
    2.7193   13.6282   -4.2942 H   0  0  0  0  0  0  0  0  0  0  0  0
  1  2  1  0
  2  3  1  0
  3  4  1  0
  4  5  1  0
  5  6  1  0
  6  7  1  0
  7  8  1  0
  7  9  1  0
  2 10  1  0
 10 11  1  0
 11 12  1  0
 12 13  1  0
 13 14  1  1
 13 15  1  0
 15 16  1  0
 16 17  1  0
 17 18  2  0
 18 19  1  0
 19 20  1  0
 20 21  1  0
 21 22  1  0
 22 23  1  0
 22 24  1  0
 24 25  1  0
 24 26  1  0
 19 27  1  0
 27 28  1  6
 27 29  1  0
 29 30  1  0
 30 31  1  0
 31 32  1  6
  7  5  1  0
 31 10  1  0
 31 13  1  0
 27 15  1  0
 24 18  1  0
  1 33  1  0
  1 34  1  0
  1 35  1  0
  2 36  1  6
  3 37  1  0
  3 38  1  0
  4 39  1  0
  4 40  1  0
  5 41  1  1
  8 42  1  0
  8 43  1  0
  8 44  1  0
  9 45  1  0
  9 46  1  0
  9 47  1  0
 10 48  1  1
 11 49  1  0
 11 50  1  0
 12 51  1  0
 12 52  1  0
 14 53  1  0
 14 54  1  0
 14 55  1  0
 15 56  1  6
 16 57  1  0
 16 58  1  0
 17 59  1  0
 19 60  1  1
 20 61  1  0
 20 62  1  0
 21 63  1  0
 21 64  1  0
 22 65  1  1
 23 66  1  0
 25 67  1  0
 25 68  1  0
 25 69  1  0
 26 70  1  0
 26 71  1  0
 26 72  1  0
 28 73  1  0
 28 74  1  0
 28 75  1  0
 29 76  1  0
 29 77  1  0
 30 78  1  0
 30 79  1  0
 32 80  1  0
 32 81  1  0
 32 82  1  0
M  END
>  <meeko>  (6) 
{"is_sidechain": [false], "intermolecular_energy": 2.731, "internal_energy": -0.839}

$$$$
EPH_relaxed_0001_pdb2pqr_Repair_380_r2_0001_out
     RDKit          3D

 82 86  0  0  0  0  0  0  0  0999 V2000
    2.5080   19.4700   -0.8420 C   0  0  0  0  0  0  0  0  0  0  0  0
    2.4080   18.5110   -2.0310 C   0  0  2  0  0  0  0  0  0  0  0  0
    1.0180   18.5550   -2.6970 C   0  0  0  0  0  0  0  0  0  0  0  0
    0.1290   19.6950   -2.1930 C   0  0  0  0  0  0  0  0  0  0  0  0
   -1.0910   19.1780   -1.4920 C   0  0  2  0  0  0  0  0  0  0  0  0
   -2.0010   20.1930   -1.0490 O   0  0  0  0  0  0  0  0  0  0  0  0
   -1.3720   19.4130   -0.0190 C   0  0  0  0  0  0  0  0  0  0  0  0
   -0.4260   20.1910    0.8410 C   0  0  0  0  0  0  0  0  0  0  0  0
   -2.3060   18.4810    0.6880 C   0  0  0  0  0  0  0  0  0  0  0  0
    2.7260   17.0900   -1.5820 C   0  0  1  0  0  0  0  0  0  0  0  0
    3.5520   17.0500   -0.2690 C   0  0  0  0  0  0  0  0  0  0  0  0
    3.0790   15.8020    0.5200 C   0  0  0  0  0  0  0  0  0  0  0  0
    2.2460   14.9890   -0.4990 C   0  0  1  0  0  0  0  0  0  0  0  0
    3.3000   14.2090   -1.3470 C   0  0  0  0  0  0  0  0  0  0  0  0
    1.1640   14.0320    0.0990 C   0  0  2  0  0  0  0  0  0  0  0  0
    1.7130   12.9030    0.9890 C   0  0  0  0  0  0  0  0  0  0  0  0
    2.0390   11.6320    0.2770 C   0  0  0  0  0  0  0  0  0  0  0  0
    1.6370   11.3050   -0.9650 C   0  0  0  0  0  0  0  0  0  0  0  0
    0.6860   12.2180   -1.7500 C   0  0  1  0  0  0  0  0  0  0  0  0
   -0.4440   11.3650   -2.3850 C   0  0  0  0  0  0  0  0  0  0  0  0
    0.0960   10.2170   -3.2330 C   0  0  0  0  0  0  0  0  0  0  0  0
    0.9890    9.2990   -2.4020 C   0  0  2  0  0  0  0  0  0  0  0  0
    0.1860    8.6410   -1.4180 O   0  0  0  0  0  0  0  0  0  0  0  0
    2.1590   10.0490   -1.7060 C   0  0  0  0  0  0  0  0  0  0  0  0
    3.1910   10.5050   -2.7670 C   0  0  0  0  0  0  0  0  0  0  0  0
    2.8970    9.0360   -0.7890 C   0  0  0  0  0  0  0  0  0  0  0  0
    0.1290   13.4800   -0.9620 C   0  0  1  0  0  0  0  0  0  0  0  0
   -1.1550   13.0880   -0.1690 C   0  0  0  0  0  0  0  0  0  0  0  0
   -0.3090   14.5810   -1.9990 C   0  0  0  0  0  0  0  0  0  0  0  0
    0.7770   15.5710   -2.4610 C   0  0  0  0  0  0  0  0  0  0  0  0
    1.5280   16.1600   -1.2630 C   0  0  2  0  0  0  0  0  0  0  0  0
    0.4980   16.9690   -0.4030 C   0  0  0  0  0  0  0  0  0  0  0  0
    2.4484   18.8985    0.0960 H   0  0  0  0  0  0  0  0  0  0  0  0
    3.4670   20.0071   -0.8838 H   0  0  0  0  0  0  0  0  0  0  0  0
    1.6804   20.1934   -0.8838 H   0  0  0  0  0  0  0  0  0  0  0  0
    3.1439   18.8365   -2.7810 H   0  0  0  0  0  0  0  0  0  0  0  0
    1.1564   18.6762   -3.7815 H   0  0  0  0  0  0  0  0  0  0  0  0
    0.5093   17.6139   -2.4410 H   0  0  0  0  0  0  0  0  0  0  0  0
    0.7072   20.3148   -1.4919 H   0  0  0  0  0  0  0  0  0  0  0  0
   -0.1987   20.2843   -3.0621 H   0  0  0  0  0  0  0  0  0  0  0  0
   -1.0864   18.2651   -2.1056 H   0  0  0  0  0  0  0  0  0  0  0  0
   -0.6545   20.0031    1.9005 H   0  0  0  0  0  0  0  0  0  0  0  0
    0.6064   19.8772    0.6273 H   0  0  0  0  0  0  0  0  0  0  0  0
   -0.5346   21.2646    0.6273 H   0  0  0  0  0  0  0  0  0  0  0  0
   -2.1881   18.5987    1.7753 H   0  0  0  0  0  0  0  0  0  0  0  0
   -3.3425   18.7155    0.4041 H   0  0  0  0  0  0  0  0  0  0  0  0
   -2.0737   17.4440    0.4041 H   0  0  0  0  0  0  0  0  0  0  0  0
    3.2561   16.7282   -2.4754 H   0  0  0  0  0  0  0  0  0  0  0  0
    4.6247   16.9686   -0.4988 H   0  0  0  0  0  0  0  0  0  0  0  0
    3.4038   17.9680    0.3186 H   0  0  0  0  0  0  0  0  0  0  0  0
    3.9405   15.2161    0.8728 H   0  0  0  0  0  0  0  0  0  0  0  0
    2.4980   16.0696    1.4149 H   0  0  0  0  0  0  0  0  0  0  0  0
    4.0002   13.6908   -0.6753 H   0  0  0  0  0  0  0  0  0  0  0  0
    2.7869   13.4714   -1.9815 H   0  0  0  0  0  0  0  0  0  0  0  0
    3.8554   14.9153   -1.9815 H   0  0  0  0  0  0  0  0  0  0  0  0
    0.6050   14.6987    0.7721 H   0  0  0  0  0  0  0  0  0  0  0  0
    2.6315   13.2672    1.4723 H   0  0  0  0  0  0  0  0  0  0  0  0
    0.9097   12.6570    1.6991 H   0  0  0  0  0  0  0  0  0  0  0  0
    2.6609   10.9002    0.8134 H   0  0  0  0  0  0  0  0  0  0  0  0
    1.2932   12.6815   -2.5415 H   0  0  0  0  0  0  0  0  0  0  0  0
   -1.0651   10.9465   -1.5793 H   0  0  0  0  0  0  0  0  0  0  0  0
   -1.0277   12.0226   -3.0459 H   0  0  0  0  0  0  0  0  0  0  0  0
   -0.7484    9.6347   -3.6305 H   0  0  0  0  0  0  0  0  0  0  0  0
    0.6932   10.6381   -4.0552 H   0  0  0  0  0  0  0  0  0  0  0  0
    1.4469    8.5732   -3.0901 H   0  0  0  0  0  0  0  0  0  0  0  0
   -0.1000    9.3110   -0.7750 H   0  0  0  0  0  0  0  0  0  0  0  0
    4.0852   10.9001   -2.2627 H   0  0  0  0  0  0  0  0  0  0  0  0
    3.4734    9.6479   -3.3959 H   0  0  0  0  0  0  0  0  0  0  0  0
    2.7474   11.2909   -3.3959 H   0  0  0  0  0  0  0  0  0  0  0  0
    2.7107    9.2918    0.2645 H   0  0  0  0  0  0  0  0  0  0  0  0
    2.5256    8.0205   -0.9910 H   0  0  0  0  0  0  0  0  0  0  0  0
    3.9775    9.0782   -0.9910 H   0  0  0  0  0  0  0  0  0  0  0  0
   -0.9525   13.1498    0.9104 H   0  0  0  0  0  0  0  0  0  0  0  0
   -1.9714   13.7778   -0.4290 H   0  0  0  0  0  0  0  0  0  0  0  0
   -1.4469   12.0598   -0.4290 H   0  0  0  0  0  0  0  0  0  0  0  0
   -0.6899   14.0642   -2.8922 H   0  0  0  0  0  0  0  0  0  0  0  0
   -1.0523   15.1954   -1.4699 H   0  0  0  0  0  0  0  0  0  0  0  0
    1.4918   15.0438   -3.1099 H   0  0  0  0  0  0  0  0  0  0  0  0
    0.2923   16.3923   -3.0092 H   0  0  0  0  0  0  0  0  0  0  0  0
    0.7046   16.8067    0.6652 H   0  0  0  0  0  0  0  0  0  0  0  0
    0.5879   18.0404   -0.6352 H   0  0  0  0  0  0  0  0  0  0  0  0
   -0.5216   16.6278   -0.6352 H   0  0  0  0  0  0  0  0  0  0  0  0
  1  2  1  0
  2  3  1  0
  3  4  1  0
  4  5  1  0
  5  6  1  0
  6  7  1  0
  7  8  1  0
  7  9  1  0
  2 10  1  0
 10 11  1  0
 11 12  1  0
 12 13  1  0
 13 14  1  6
 13 15  1  0
 15 16  1  0
 16 17  1  0
 17 18  2  0
 18 19  1  0
 19 20  1  0
 20 21  1  0
 21 22  1  0
 22 23  1  0
 22 24  1  0
 24 25  1  0
 24 26  1  0
 19 27  1  0
 27 28  1  1
 27 29  1  0
 29 30  1  0
 30 31  1  0
 31 32  1  1
  7  5  1  0
 31 10  1  0
 31 13  1  0
 27 15  1  0
 24 18  1  0
  1 33  1  0
  1 34  1  0
  1 35  1  0
  2 36  1  6
  3 37  1  0
  3 38  1  0
  4 39  1  0
  4 40  1  0
  5 41  1  6
  8 42  1  0
  8 43  1  0
  8 44  1  0
  9 45  1  0
  9 46  1  0
  9 47  1  0
 10 48  1  6
 11 49  1  0
 11 50  1  0
 12 51  1  0
 12 52  1  0
 14 53  1  0
 14 54  1  0
 14 55  1  0
 15 56  1  1
 16 57  1  0
 16 58  1  0
 17 59  1  0
 19 60  1  6
 20 61  1  0
 20 62  1  0
 21 63  1  0
 21 64  1  0
 22 65  1  6
 23 66  1  0
 25 67  1  0
 25 68  1  0
 25 69  1  0
 26 70  1  0
 26 71  1  0
 26 72  1  0
 28 73  1  0
 28 74  1  0
 28 75  1  0
 29 76  1  0
 29 77  1  0
 30 78  1  0
 30 79  1  0
 32 80  1  0
 32 81  1  0
 32 82  1  0
M  END
>  <meeko>  (7) 
{"is_sidechain": [false], "intermolecular_energy": 2.731, "internal_energy": -0.839}

$$$$
EPH_relaxed_0001_pdb2pqr_Repair_380_r2_0001_out
     RDKit          3D

 82 86  0  0  0  0  0  0  0  0999 V2000
    0.1650   17.8040   -2.5400 C   0  0  0  0  0  0  0  0  0  0  0  0
   -0.0870   16.9040   -1.3280 C   0  0  2  0  0  0  0  0  0  0  0  0
   -0.1460   17.7040   -0.0120 C   0  0  0  0  0  0  0  0  0  0  0  0
    0.4690   19.1030   -0.1140 C   0  0  0  0  0  0  0  0  0  0  0  0
    1.6270   19.2700    0.8220 C   0  0  2  0  0  0  0  0  0  0  0  0
    2.6300   20.1920    0.3760 O   0  0  0  0  0  0  0  0  0  0  0  0
    3.0390   18.8200    0.4950 C   0  0  0  0  0  0  0  0  0  0  0  0
    3.3670   18.1670   -0.8110 C   0  0  0  0  0  0  0  0  0  0  0  0
    3.9900   18.5700    1.6240 C   0  0  0  0  0  0  0  0  0  0  0  0
    0.9970   15.8360   -1.2400 C   0  0  1  0  0  0  0  0  0  0  0  0
    1.2110   15.3190    0.2070 C   0  0  0  0  0  0  0  0  0  0  0  0
    1.5610   13.8130    0.0980 C   0  0  0  0  0  0  0  0  0  0  0  0
    1.8610   13.5900   -1.4030 C   0  0  1  0  0  0  0  0  0  0  0  0
    3.3330   14.0750   -1.5930 C   0  0  0  0  0  0  0  0  0  0  0  0
    1.6580   12.1360   -1.9400 C   0  0  2  0  0  0  0  0  0  0  0  0
    2.5690   11.0720   -1.3030 C   0  0  0  0  0  0  0  0  0  0  0  0
    3.8700   10.8470   -1.9990 C   0  0  0  0  0  0  0  0  0  0  0  0
    4.1740   11.2610   -3.2440 C   0  0  0  0  0  0  0  0  0  0  0  0
    3.1220   11.9500   -4.1230 C   0  0  1  0  0  0  0  0  0  0  0  0
    3.1510   11.3310   -5.5450 C   0  0  0  0  0  0  0  0  0  0  0  0
    4.5430   11.3610   -6.1690 C   0  0  0  0  0  0  0  0  0  0  0  0
    5.5480   10.6170   -5.2940 C   0  0  2  0  0  0  0  0  0  0  0  0
    5.2140    9.2260   -5.2890 O   0  0  0  0  0  0  0  0  0  0  0  0
    5.6010   11.1470   -3.8340 C   0  0  0  0  0  0  0  0  0  0  0  0
    6.2490   12.5530   -3.8140 C   0  0  0  0  0  0  0  0  0  0  0  0
    6.5480   10.2210   -3.0240 C   0  0  0  0  0  0  0  0  0  0  0  0
    1.6540   12.0230   -3.5190 C   0  0  1  0  0  0  0  0  0  0  0  0
    0.8680   10.7230   -3.8700 C   0  0  0  0  0  0  0  0  0  0  0  0
    0.8760   13.2100   -4.2010 C   0  0  0  0  0  0  0  0  0  0  0  0
    1.0210   14.6000   -3.5530 C   0  0  0  0  0  0  0  0  0  0  0  0
    0.7750   14.5290   -2.0430 C   0  0  2  0  0  0  0  0  0  0  0  0
   -0.7050   14.0660   -1.8210 C   0  0  0  0  0  0  0  0  0  0  0  0
    0.4468   18.8105   -2.1971 H   0  0  0  0  0  0  0  0  0  0  0  0
    0.9795   17.3820   -3.1470 H   0  0  0  0  0  0  0  0  0  0  0  0
   -0.7502   17.8664   -3.1470 H   0  0  0  0  0  0  0  0  0  0  0  0
   -1.0685   16.4277   -1.4683 H   0  0  0  0  0  0  0  0  0  0  0  0
   -1.2003   17.8088    0.2838 H   0  0  0  0  0  0  0  0  0  0  0  0
    0.4445   17.1465    0.7299 H   0  0  0  0  0  0  0  0  0  0  0  0
    0.8178   19.2646   -1.1447 H   0  0  0  0  0  0  0  0  0  0  0  0
   -0.3025   19.8371    0.1613 H   0  0  0  0  0  0  0  0  0  0  0  0
    0.9787   19.0921    1.6927 H   0  0  0  0  0  0  0  0  0  0  0  0
    3.8536   17.1983   -0.6246 H   0  0  0  0  0  0  0  0  0  0  0  0
    2.4417   18.0082   -1.3842 H   0  0  0  0  0  0  0  0  0  0  0  0
    4.0468   18.8145   -1.3842 H   0  0  0  0  0  0  0  0  0  0  0  0
    3.4665   18.7076    2.5816 H   0  0  0  0  0  0  0  0  0  0  0  0
    4.3727   17.5407    1.5599 H   0  0  0  0  0  0  0  0  0  0  0  0
    4.8294   19.2780    1.5599 H   0  0  0  0  0  0  0  0  0  0  0  0
    1.8433   16.3981   -1.6616 H   0  0  0  0  0  0  0  0  0  0  0  0
    2.0365   15.8658    0.6862 H   0  0  0  0  0  0  0  0  0  0  0  0
    0.3088   15.4711    0.8177 H   0  0  0  0  0  0  0  0  0  0  0  0
    2.4432   13.5740    0.7101 H   0  0  0  0  0  0  0  0  0  0  0  0
    0.7472   13.1682    0.4611 H   0  0  0  0  0  0  0  0  0  0  0  0
    3.7985   14.2284   -0.6082 H   0  0  0  0  0  0  0  0  0  0  0  0
    3.8998   13.3161   -2.1523 H   0  0  0  0  0  0  0  0  0  0  0  0
    3.3377   15.0222   -2.1523 H   0  0  0  0  0  0  0  0  0  0  0  0
    0.6390   11.8991   -1.6001 H   0  0  0  0  0  0  0  0  0  0  0  0
    2.7854   11.3839   -0.2706 H   0  0  0  0  0  0  0  0  0  0  0  0
    2.0196   10.1214   -1.3702 H   0  0  0  0  0  0  0  0  0  0  0  0
    4.6467   10.2961   -1.4482 H   0  0  0  0  0  0  0  0  0  0  0  0
    3.4120   13.0100   -4.1709 H   0  0  0  0  0  0  0  0  0  0  0  0
    2.8159   10.2852   -5.4810 H   0  0  0  0  0  0  0  0  0  0  0  0
    2.4863   11.9313   -6.1836 H   0  0  0  0  0  0  0  0  0  0  0  0
    4.5043   10.8832   -7.1590 H   0  0  0  0  0  0  0  0  0  0  0  0
    4.8647   12.4089   -6.2606 H   0  0  0  0  0  0  0  0  0  0  0  0
    6.5465   10.7844   -5.7242 H   0  0  0  0  0  0  0  0  0  0  0  0
    5.2590    8.9150   -4.3690 H   0  0  0  0  0  0  0  0  0  0  0  0
    6.3969   12.8738   -2.7723 H   0  0  0  0  0  0  0  0  0  0  0  0
    7.2209   12.5161   -4.3278 H   0  0  0  0  0  0  0  0  0  0  0  0
    5.5896   13.2680   -4.3278 H   0  0  0  0  0  0  0  0  0  0  0  0
    6.3848   10.3806   -1.9479 H   0  0  0  0  0  0  0  0  0  0  0  0
    6.3372    9.1710   -3.2751 H   0  0  0  0  0  0  0  0  0  0  0  0
    7.5930   10.4553   -3.2751 H   0  0  0  0  0  0  0  0  0  0  0  0
    0.5624   10.2175   -2.9421 H   0  0  0  0  0  0  0  0  0  0  0  0
   -0.0250   10.9819   -4.4578 H   0  0  0  0  0  0  0  0  0  0  0  0
    1.5121   10.0525   -4.4578 H   0  0  0  0  0  0  0  0  0  0  0  0
    1.2319   13.2881   -5.2389 H   0  0  0  0  0  0  0  0  0  0  0  0
   -0.1886   12.9537   -4.0962 H   0  0  0  0  0  0  0  0  0  0  0  0
    2.0382   14.9774   -3.7346 H   0  0  0  0  0  0  0  0  0  0  0  0
    0.2750   15.2744   -3.9987 H   0  0  0  0  0  0  0  0  0  0  0  0
   -0.9111   14.0015   -0.7424 H   0  0  0  0  0  0  0  0  0  0  0  0
   -1.3897   14.7929   -2.2824 H   0  0  0  0  0  0  0  0  0  0  0  0
   -0.8534   13.0785   -2.2824 H   0  0  0  0  0  0  0  0  0  0  0  0
  1  2  1  0
  2  3  1  0
  3  4  1  0
  4  5  1  0
  5  6  1  0
  6  7  1  0
  7  8  1  0
  7  9  1  0
  2 10  1  0
 10 11  1  0
 11 12  1  0
 12 13  1  0
 13 14  1  1
 13 15  1  0
 15 16  1  0
 16 17  1  0
 17 18  2  0
 18 19  1  0
 19 20  1  0
 20 21  1  0
 21 22  1  0
 22 23  1  0
 22 24  1  0
 24 25  1  0
 24 26  1  0
 19 27  1  0
 27 28  1  1
 27 29  1  0
 29 30  1  0
 30 31  1  0
 31 32  1  6
  7  5  1  0
 31 10  1  0
 31 13  1  0
 27 15  1  0
 24 18  1  0
  1 33  1  0
  1 34  1  0
  1 35  1  0
  2 36  1  6
  3 37  1  0
  3 38  1  0
  4 39  1  0
  4 40  1  0
  5 41  1  1
  8 42  1  0
  8 43  1  0
  8 44  1  0
  9 45  1  0
  9 46  1  0
  9 47  1  0
 10 48  1  6
 11 49  1  0
 11 50  1  0
 12 51  1  0
 12 52  1  0
 14 53  1  0
 14 54  1  0
 14 55  1  0
 15 56  1  1
 16 57  1  0
 16 58  1  0
 17 59  1  0
 19 60  1  6
 20 61  1  0
 20 62  1  0
 21 63  1  0
 21 64  1  0
 22 65  1  6
 23 66  1  0
 25 67  1  0
 25 68  1  0
 25 69  1  0
 26 70  1  0
 26 71  1  0
 26 72  1  0
 28 73  1  0
 28 74  1  0
 28 75  1  0
 29 76  1  0
 29 77  1  0
 30 78  1  0
 30 79  1  0
 32 80  1  0
 32 81  1  0
 32 82  1  0
M  END
>  <meeko>  (8) 
{"is_sidechain": [false], "intermolecular_energy": 2.731, "internal_energy": -0.839}

$$$$
EPH_relaxed_0001_pdb2pqr_Repair_380_r2_0001_out
     RDKit          3D

 82 86  0  0  0  0  0  0  0  0999 V2000
   -0.9090   16.3950   -5.8690 C   0  0  0  0  0  0  0  0  0  0  0  0
    0.1840   15.6940   -6.6810 C   0  0  2  0  0  0  0  0  0  0  0  0
   -0.2220   15.5010   -8.1560 C   0  0  0  0  0  0  0  0  0  0  0  0
    0.4290   16.5060   -9.1100 C   0  0  0  0  0  0  0  0  0  0  0  0
    1.8350   16.1170   -9.4510 C   0  0  2  0  0  0  0  0  0  0  0  0
    2.3310   16.6770  -10.6740 O   0  0  0  0  0  0  0  0  0  0  0  0
    2.1980   15.2470  -10.6400 C   0  0  0  0  0  0  0  0  0  0  0  0
    1.1490   14.7120  -11.5640 C   0  0  0  0  0  0  0  0  0  0  0  0
    3.5060   14.5190  -10.6220 C   0  0  0  0  0  0  0  0  0  0  0  0
    0.5160   14.3470   -6.0500 C   0  0  1  0  0  0  0  0  0  0  0  0
    1.7470   13.6670   -6.7070 C   0  0  0  0  0  0  0  0  0  0  0  0
    2.4950   12.9110   -5.5790 C   0  0  0  0  0  0  0  0  0  0  0  0
    1.5030   12.9010   -4.3920 C   0  0  1  0  0  0  0  0  0  0  0  0
    0.5200   11.7280   -4.6990 C   0  0  0  0  0  0  0  0  0  0  0  0
    2.1330   12.7690   -2.9670 C   0  0  2  0  0  0  0  0  0  0  0  0
    2.9000   11.4590   -2.7120 C   0  0  0  0  0  0  0  0  0  0  0  0
    2.0850   10.3420   -2.1490 C   0  0  0  0  0  0  0  0  0  0  0  0
    0.8650   10.4660   -1.5950 C   0  0  0  0  0  0  0  0  0  0  0  0
    0.2230   11.8460   -1.4040 C   0  0  1  0  0  0  0  0  0  0  0  0
   -0.3640   11.9510    0.0280 C   0  0  0  0  0  0  0  0  0  0  0  0
   -1.3240   10.8110    0.3520 C   0  0  0  0  0  0  0  0  0  0  0  0
   -0.6330    9.4580    0.2080 C   0  0  2  0  0  0  0  0  0  0  0  0
    0.3740    9.3440    1.2180 O   0  0  0  0  0  0  0  0  0  0  0  0
    0.0050    9.2420   -1.1930 C   0  0  0  0  0  0  0  0  0  0  0  0
   -1.1120    9.0640   -2.2520 C   0  0  0  0  0  0  0  0  0  0  0  0
    0.7890    7.9030   -1.1600 C   0  0  0  0  0  0  0  0  0  0  0  0
    1.1330   13.0930   -1.7840 C   0  0  1  0  0  0  0  0  0  0  0  0
    2.0080   13.5040   -0.5610 C   0  0  0  0  0  0  0  0  0  0  0  0
    0.2080   14.3260   -2.1030 C   0  0  0  0  0  0  0  0  0  0  0  0
   -0.2840   14.4680   -3.5560 C   0  0  0  0  0  0  0  0  0  0  0  0
    0.8780   14.3360   -4.5440 C   0  0  2  0  0  0  0  0  0  0  0  0
    1.8730   15.5160   -4.2740 C   0  0  0  0  0  0  0  0  0  0  0  0
   -0.7078   16.2660   -4.7953 H   0  0  0  0  0  0  0  0  0  0  0  0
   -0.9172   17.4673   -6.1142 H   0  0  0  0  0  0  0  0  0  0  0  0
   -1.8870   15.9552   -6.1142 H   0  0  0  0  0  0  0  0  0  0  0  0
    1.0740   16.3403   -6.6665 H   0  0  0  0  0  0  0  0  0  0  0  0
    0.0706   14.4872   -8.4670 H   0  0  0  0  0  0  0  0  0  0  0  0
   -1.3089   15.6604   -8.2138 H   0  0  0  0  0  0  0  0  0  0  0  0
   -0.1624   16.5526  -10.0363 H   0  0  0  0  0  0  0  0  0  0  0  0
    0.4563   17.4852   -8.6095 H   0  0  0  0  0  0  0  0  0  0  0  0
    2.1021   16.0588   -8.3855 H   0  0  0  0  0  0  0  0  0  0  0  0
    0.3217   14.2901  -10.9745 H   0  0  0  0  0  0  0  0  0  0  0  0
    0.7691   15.5265  -12.1983 H   0  0  0  0  0  0  0  0  0  0  0  0
    1.5852   13.9263  -12.1983 H   0  0  0  0  0  0  0  0  0  0  0  0
    3.8155   14.3468   -9.5806 H   0  0  0  0  0  0  0  0  0  0  0  0
    3.3950   13.5529  -11.1361 H   0  0  0  0  0  0  0  0  0  0  0  0
    4.2686   15.1224  -11.1361 H   0  0  0  0  0  0  0  0  0  0  0  0
   -0.4407   13.8282   -6.2097 H   0  0  0  0  0  0  0  0  0  0  0  0
    1.4197   12.9606   -7.4841 H   0  0  0  0  0  0  0  0  0  0  0  0
    2.4011   14.4111   -7.1850 H   0  0  0  0  0  0  0  0  0  0  0  0
    2.7356   11.8845   -5.8927 H   0  0  0  0  0  0  0  0  0  0  0  0
    3.4513   13.3886   -5.3196 H   0  0  0  0  0  0  0  0  0  0  0  0
    0.1581   11.2961   -3.7543 H   0  0  0  0  0  0  0  0  0  0  0  0
   -0.3338   12.1075   -5.2795 H   0  0  0  0  0  0  0  0  0  0  0  0
    1.0430   10.9537   -5.2795 H   0  0  0  0  0  0  0  0  0  0  0  0
    2.8926   13.5646   -2.9696 H   0  0  0  0  0  0  0  0  0  0  0  0
    3.3239   11.1215   -3.6693 H   0  0  0  0  0  0  0  0  0  0  0  0
    3.6598   11.6943   -1.9522 H   0  0  0  0  0  0  0  0  0  0  0  0
    2.5186    9.3319   -2.1906 H   0  0  0  0  0  0  0  0  0  0  0  0
   -0.5878   11.9090   -2.1448 H   0  0  0  0  0  0  0  0  0  0  0  0
    0.4647   11.9303    0.7511 H   0  0  0  0  0  0  0  0  0  0  0  0
   -0.9307   12.8918    0.0882 H   0  0  0  0  0  0  0  0  0  0  0  0
   -1.6814   10.9244    1.3861 H   0  0  0  0  0  0  0  0  0  0  0  0
   -2.1673   10.8512   -0.3532 H   0  0  0  0  0  0  0  0  0  0  0  0
   -1.4025    8.6808    0.3255 H   0  0  0  0  0  0  0  0  0  0  0  0
    1.1940    9.7250    0.8600 H   0  0  0  0  0  0  0  0  0  0  0  0
   -2.0763    8.9103   -1.7455 H   0  0  0  0  0  0  0  0  0  0  0  0
   -1.1677    9.9646   -2.8811 H   0  0  0  0  0  0  0  0  0  0  0  0
   -0.8850    8.1907   -2.8811 H   0  0  0  0  0  0  0  0  0  0  0  0
    0.9631    7.6057   -0.1153 H   0  0  0  0  0  0  0  0  0  0  0  0
    0.2047    7.1233   -1.6706 H   0  0  0  0  0  0  0  0  0  0  0  0
    1.7549    8.0309   -1.6706 H   0  0  0  0  0  0  0  0  0  0  0  0
    1.4774   13.2548    0.3698 H   0  0  0  0  0  0  0  0  0  0  0  0
    2.9639   12.9607   -0.5949 H   0  0  0  0  0  0  0  0  0  0  0  0
    2.2002   14.5866   -0.5949 H   0  0  0  0  0  0  0  0  0  0  0  0
   -0.6793   14.2523   -1.4570 H   0  0  0  0  0  0  0  0  0  0  0  0
    0.8364   15.2110   -1.9242 H   0  0  0  0  0  0  0  0  0  0  0  0
   -1.0240   13.6811   -3.7638 H   0  0  0  0  0  0  0  0  0  0  0  0
   -0.7358   15.4636   -3.6773 H   0  0  0  0  0  0  0  0  0  0  0  0
    1.9906   15.6555   -3.1892 H   0  0  0  0  0  0  0  0  0  0  0  0
    2.8501   15.2815   -4.7216 H   0  0  0  0  0  0  0  0  0  0  0  0
    1.4768   16.4394   -4.7216 H   0  0  0  0  0  0  0  0  0  0  0  0
  1  2  1  0
  2  3  1  0
  3  4  1  0
  4  5  1  0
  5  6  1  0
  6  7  1  0
  7  8  1  0
  7  9  1  0
  2 10  1  0
 10 11  1  0
 11 12  1  0
 12 13  1  0
 13 14  1  6
 13 15  1  0
 15 16  1  0
 16 17  1  0
 17 18  2  0
 18 19  1  0
 19 20  1  0
 20 21  1  0
 21 22  1  0
 22 23  1  0
 22 24  1  0
 24 25  1  0
 24 26  1  0
 19 27  1  0
 27 28  1  1
 27 29  1  0
 29 30  1  0
 30 31  1  0
 31 32  1  6
  7  5  1  0
 31 10  1  0
 31 13  1  0
 27 15  1  0
 24 18  1  0
  1 33  1  0
  1 34  1  0
  1 35  1  0
  2 36  1  6
  3 37  1  0
  3 38  1  0
  4 39  1  0
  4 40  1  0
  5 41  1  1
  8 42  1  0
  8 43  1  0
  8 44  1  0
  9 45  1  0
  9 46  1  0
  9 47  1  0
 10 48  1  1
 11 49  1  0
 11 50  1  0
 12 51  1  0
 12 52  1  0
 14 53  1  0
 14 54  1  0
 14 55  1  0
 15 56  1  6
 16 57  1  0
 16 58  1  0
 17 59  1  0
 19 60  1  6
 20 61  1  0
 20 62  1  0
 21 63  1  0
 21 64  1  0
 22 65  1  1
 23 66  1  0
 25 67  1  0
 25 68  1  0
 25 69  1  0
 26 70  1  0
 26 71  1  0
 26 72  1  0
 28 73  1  0
 28 74  1  0
 28 75  1  0
 29 76  1  0
 29 77  1  0
 30 78  1  0
 30 79  1  0
 32 80  1  0
 32 81  1  0
 32 82  1  0
M  END
>  <meeko>  (9) 
{"is_sidechain": [false], "intermolecular_energy": 2.731, "internal_energy": -0.839}

$$$$
EPH_relaxed_0001_pdb2pqr_Repair_380_r2_0001_out
     RDKit          3D

 82 86  0  0  0  0  0  0  0  0999 V2000
   -0.0750    9.3650   -2.4070 C   0  0  0  0  0  0  0  0  0  0  0  0
    1.0410   10.3310   -2.8150 C   0  0  2  0  0  0  0  0  0  0  0  0
    2.4210    9.6440   -2.8440 C   0  0  0  0  0  0  0  0  0  0  0  0
    3.3860   10.2450   -3.8690 C   0  0  0  0  0  0  0  0  0  0  0  0
    4.7570   10.4360   -3.2950 C   0  0  2  0  0  0  0  0  0  0  0  0
    5.2640   11.7740   -3.3860 O   0  0  0  0  0  0  0  0  0  0  0  0
    5.9750   10.7740   -4.1340 C   0  0  0  0  0  0  0  0  0  0  0  0
    5.8800   10.9410   -5.6180 C   0  0  0  0  0  0  0  0  0  0  0  0
    7.3320   10.4620   -3.5830 C   0  0  0  0  0  0  0  0  0  0  0  0
    1.0710   11.5210   -1.8640 C   0  0  1  0  0  0  0  0  0  0  0  0
    2.1290   11.3620   -0.7400 C   0  0  0  0  0  0  0  0  0  0  0  0
    2.6910   12.7780   -0.4510 C   0  0  0  0  0  0  0  0  0  0  0  0
    1.7150   13.7390   -1.1690 C   0  0  1  0  0  0  0  0  0  0  0  0
    0.5040   13.8820   -0.1940 C   0  0  0  0  0  0  0  0  0  0  0  0
    2.2940   15.1320   -1.5790 C   0  0  2  0  0  0  0  0  0  0  0  0
    2.7600   16.0160   -0.4090 C   0  0  0  0  0  0  0  0  0  0  0  0
    1.7200   16.9270    0.1540 C   0  0  0  0  0  0  0  0  0  0  0  0
    0.5530   17.2420   -0.4370 C   0  0  0  0  0  0  0  0  0  0  0  0
    0.2230   16.7370   -1.8470 C   0  0  1  0  0  0  0  0  0  0  0  0
   -0.3340   17.9080   -2.6990 C   0  0  0  0  0  0  0  0  0  0  0  0
   -1.5200   18.6020   -2.0360 C   0  0  0  0  0  0  0  0  0  0  0  0
   -1.1360   19.1410   -0.6600 C   0  0  2  0  0  0  0  0  0  0  0  0
   -0.1820   20.1940   -0.8280 O   0  0  0  0  0  0  0  0  0  0  0  0
   -0.5530   18.0530    0.2840 C   0  0  0  0  0  0  0  0  0  0  0  0
   -1.6760   17.0740    0.7060 C   0  0  0  0  0  0  0  0  0  0  0  0
   -0.0760   18.7540    1.5840 C   0  0  0  0  0  0  0  0  0  0  0  0
    1.3820   15.9410   -2.5880 C   0  0  1  0  0  0  0  0  0  0  0  0
    2.3200   16.9390   -3.3340 C   0  0  0  0  0  0  0  0  0  0  0  0
    0.7470   15.0180   -3.6930 C   0  0  0  0  0  0  0  0  0  0  0  0
    0.3040   13.6100   -3.2520 C   0  0  0  0  0  0  0  0  0  0  0  0
    1.4150   12.9060   -2.4680 C   0  0  2  0  0  0  0  0  0  0  0  0
    2.6390   12.7270   -3.4290 C   0  0  0  0  0  0  0  0  0  0  0  0
   -0.1333    9.3145   -1.3097 H   0  0  0  0  0  0  0  0  0  0  0  0
   -1.0345    9.7224   -2.8091 H   0  0  0  0  0  0  0  0  0  0  0  0
    0.1411    8.3642   -2.8091 H   0  0  0  0  0  0  0  0  0  0  0  0
    0.8232   10.6770   -3.8362 H   0  0  0  0  0  0  0  0  0  0  0  0
    2.8746    9.7335   -1.8459 H   0  0  0  0  0  0  0  0  0  0  0  0
    2.2528    8.5969   -3.1361 H   0  0  0  0  0  0  0  0  0  0  0  0
    3.4530    9.5692   -4.7344 H   0  0  0  0  0  0  0  0  0  0  0  0
    2.9990   11.2306   -4.1671 H   0  0  0  0  0  0  0  0  0  0  0  0
    4.5743    9.6581   -2.5390 H   0  0  0  0  0  0  0  0  0  0  0  0
    5.3482   11.8759   -5.8485 H   0  0  0  0  0  0  0  0  0  0  0  0
    6.8917   10.9790   -6.0482 H   0  0  0  0  0  0  0  0  0  0  0  0
    5.3303   10.0908   -6.0482 H   0  0  0  0  0  0  0  0  0  0  0  0
    7.2924   10.4711   -2.4838 H   0  0  0  0  0  0  0  0  0  0  0  0
    7.6490    9.4675   -3.9302 H   0  0  0  0  0  0  0  0  0  0  0  0
    8.0515   11.2182   -3.9302 H   0  0  0  0  0  0  0  0  0  0  0  0
    0.0257   11.5089   -1.5216 H   0  0  0  0  0  0  0  0  0  0  0  0
    1.6607   10.9483    0.1653 H   0  0  0  0  0  0  0  0  0  0  0  0
    2.9306   10.6740   -1.0466 H   0  0  0  0  0  0  0  0  0  0  0  0
    2.7060   12.9765    0.6308 H   0  0  0  0  0  0  0  0  0  0  0  0
    3.7266   12.8956   -0.8027 H   0  0  0  0  0  0  0  0  0  0  0  0
    0.8628   13.8396    0.8450 H   0  0  0  0  0  0  0  0  0  0  0  0
    0.0033   14.8455   -0.3700 H   0  0  0  0  0  0  0  0  0  0  0  0
   -0.2073   13.0616   -0.3700 H   0  0  0  0  0  0  0  0  0  0  0  0
    3.2078   14.8557   -2.1255 H   0  0  0  0  0  0  0  0  0  0  0  0
    3.1070   15.3554    0.3992 H   0  0  0  0  0  0  0  0  0  0  0  0
    3.5486   16.6671   -0.8142 H   0  0  0  0  0  0  0  0  0  0  0  0
    1.9252   17.3792    1.1355 H   0  0  0  0  0  0  0  0  0  0  0  0
   -0.5511   15.9659   -1.7201 H   0  0  0  0  0  0  0  0  0  0  0  0
    0.4672   18.6464   -2.8499 H   0  0  0  0  0  0  0  0  0  0  0  0
   -0.6838   17.4889   -3.6540 H   0  0  0  0  0  0  0  0  0  0  0  0
   -1.8494   19.4376   -2.6711 H   0  0  0  0  0  0  0  0  0  0  0  0
   -2.3317   17.8699   -1.9128 H   0  0  0  0  0  0  0  0  0  0  0  0
   -2.0554   19.5099   -0.1818 H   0  0  0  0  0  0  0  0  0  0  0  0
   -0.1860   20.4490   -1.7660 H   0  0  0  0  0  0  0  0  0  0  0  0
   -1.7289   17.0279    1.8038 H   0  0  0  0  0  0  0  0  0  0  0  0
   -2.6386   17.4263    0.3070 H   0  0  0  0  0  0  0  0  0  0  0  0
   -1.4583   16.0723    0.3070 H   0  0  0  0  0  0  0  0  0  0  0  0
   -0.4520   18.2014    2.4577 H   0  0  0  0  0  0  0  0  0  0  0  0
    1.0236   18.7734    1.6078 H   0  0  0  0  0  0  0  0  0  0  0  0
   -0.4615   19.7840    1.6078 H   0  0  0  0  0  0  0  0  0  0  0  0
    2.8803   17.5351   -2.5986 H   0  0  0  0  0  0  0  0  0  0  0  0
    3.0251   16.3778   -3.9648 H   0  0  0  0  0  0  0  0  0  0  0  0
    1.7162   17.6080   -3.9648 H   0  0  0  0  0  0  0  0  0  0  0  0
   -0.1382   15.5359   -4.0907 H   0  0  0  0  0  0  0  0  0  0  0  0
    1.5510   14.8506   -4.4248 H   0  0  0  0  0  0  0  0  0  0  0  0
   -0.5875   13.6968   -2.6134 H   0  0  0  0  0  0  0  0  0  0  0  0
    0.0782   13.0162   -4.1500 H   0  0  0  0  0  0  0  0  0  0  0  0
    3.5551   12.5930   -2.8350 H   0  0  0  0  0  0  0  0  0  0  0  0
    2.4808   11.8424   -4.0634 H   0  0  0  0  0  0  0  0  0  0  0  0
    2.7407   13.6198   -4.0634 H   0  0  0  0  0  0  0  0  0  0  0  0
  1  2  1  0
  2  3  1  0
  3  4  1  0
  4  5  1  0
  5  6  1  0
  6  7  1  0
  7  8  1  0
  7  9  1  0
  2 10  1  0
 10 11  1  0
 11 12  1  0
 12 13  1  0
 13 14  1  1
 13 15  1  0
 15 16  1  0
 16 17  1  0
 17 18  2  0
 18 19  1  0
 19 20  1  0
 20 21  1  0
 21 22  1  0
 22 23  1  0
 22 24  1  0
 24 25  1  0
 24 26  1  0
 19 27  1  0
 27 28  1  6
 27 29  1  0
 29 30  1  0
 30 31  1  0
 31 32  1  6
  7  5  1  0
 31 10  1  0
 31 13  1  0
 27 15  1  0
 24 18  1  0
  1 33  1  0
  1 34  1  0
  1 35  1  0
  2 36  1  6
  3 37  1  0
  3 38  1  0
  4 39  1  0
  4 40  1  0
  5 41  1  1
  8 42  1  0
  8 43  1  0
  8 44  1  0
  9 45  1  0
  9 46  1  0
  9 47  1  0
 10 48  1  1
 11 49  1  0
 11 50  1  0
 12 51  1  0
 12 52  1  0
 14 53  1  0
 14 54  1  0
 14 55  1  0
 15 56  1  6
 16 57  1  0
 16 58  1  0
 17 59  1  0
 19 60  1  1
 20 61  1  0
 20 62  1  0
 21 63  1  0
 21 64  1  0
 22 65  1  1
 23 66  1  0
 25 67  1  0
 25 68  1  0
 25 69  1  0
 26 70  1  0
 26 71  1  0
 26 72  1  0
 28 73  1  0
 28 74  1  0
 28 75  1  0
 29 76  1  0
 29 77  1  0
 30 78  1  0
 30 79  1  0
 32 80  1  0
 32 81  1  0
 32 82  1  0
M  END
>  <meeko>  (10) 
{"is_sidechain": [false], "intermolecular_energy": 2.731, "internal_energy": -0.839}

$$$$
EPH_relaxed_0001_pdb2pqr_Repair_380_r2_0001_out
     RDKit          3D

 82 86  0  0  0  0  0  0  0  0999 V2000
    0.2770   19.0560   -2.5230 C   0  0  0  0  0  0  0  0  0  0  0  0
   -0.0440   18.0570   -1.4070 C   0  0  2  0  0  0  0  0  0  0  0  0
    0.5690   18.4800   -0.0570 C   0  0  0  0  0  0  0  0  0  0  0  0
    1.6600   19.5470   -0.1820 C   0  0  0  0  0  0  0  0  0  0  0  0
    2.5540   19.5690    1.0200 C   0  0  2  0  0  0  0  0  0  0  0  0
    3.8270   20.1940    0.8080 O   0  0  0  0  0  0  0  0  0  0  0  0
    3.8530   18.7900    1.1110 C   0  0  0  0  0  0  0  0  0  0  0  0
    4.3290   17.9320   -0.0180 C   0  0  0  0  0  0  0  0  0  0  0  0
    4.4050   18.4760    2.4670 C   0  0  0  0  0  0  0  0  0  0  0  0
    0.4540   16.6690   -1.7930 C   0  0  1  0  0  0  0  0  0  0  0  0
    1.8870   16.6920   -2.3890 C   0  0  0  0  0  0  0  0  0  0  0  0
    2.5850   15.3880   -1.9240 C   0  0  0  0  0  0  0  0  0  0  0  0
    1.4410   14.5110   -1.3640 C   0  0  1  0  0  0  0  0  0  0  0  0
    0.7830   13.8600   -2.6200 C   0  0  0  0  0  0  0  0  0  0  0  0
    1.8500   13.4370   -0.3040 C   0  0  2  0  0  0  0  0  0  0  0  0
    2.8200   12.3560   -0.8110 C   0  0  0  0  0  0  0  0  0  0  0  0
    2.1730   11.1380   -1.3840 C   0  0  0  0  0  0  0  0  0  0  0  0
    0.8810   10.7930   -1.2310 C   0  0  0  0  0  0  0  0  0  0  0  0
   -0.0530   11.6150   -0.3340 C   0  0  1  0  0  0  0  0  0  0  0  0
   -0.8680   10.6610    0.5770 C   0  0  0  0  0  0  0  0  0  0  0  0
   -1.6130    9.5900   -0.2140 C   0  0  0  0  0  0  0  0  0  0  0  0
   -0.6440    8.7560   -1.0480 C   0  0  2  0  0  0  0  0  0  0  0  0
    0.1920    8.0000   -0.1650 O   0  0  0  0  0  0  0  0  0  0  0  0
    0.2390    9.6110   -1.9990 C   0  0  0  0  0  0  0  0  0  0  0  0
   -0.6340   10.1900   -3.1400 C   0  0  0  0  0  0  0  0  0  0  0  0
    1.2670    8.6640   -2.6760 C   0  0  0  0  0  0  0  0  0  0  0  0
    0.6300   12.7990    0.4770 C   0  0  1  0  0  0  0  0  0  0  0  0
    1.1960   12.2620    1.8260 C   0  0  0  0  0  0  0  0  0  0  0  0
   -0.4660   13.8670    0.8480 C   0  0  0  0  0  0  0  0  0  0  0  0
   -0.7400   14.9720   -0.1890 C   0  0  0  0  0  0  0  0  0  0  0  0
    0.5670   15.6150   -0.6640 C   0  0  2  0  0  0  0  0  0  0  0  0
    1.2410   16.2970    0.5750 C   0  0  0  0  0  0  0  0  0  0  0  0
    0.5850   20.0145   -2.0797 H   0  0  0  0  0  0  0  0  0  0  0  0
    1.0934   18.6607   -3.1453 H   0  0  0  0  0  0  0  0  0  0  0  0
   -0.6168   19.2102   -3.1453 H   0  0  0  0  0  0  0  0  0  0  0  0
   -1.1368   18.0383   -1.2827 H   0  0  0  0  0  0  0  0  0  0  0  0
   -0.2348   18.8786    0.5794 H   0  0  0  0  0  0  0  0  0  0  0  0
    1.0427   17.5859    0.3744 H   0  0  0  0  0  0  0  0  0  0  0  0
    2.2672   19.3332   -1.0740 H   0  0  0  0  0  0  0  0  0  0  0  0
    1.1713   20.5291   -0.2639 H   0  0  0  0  0  0  0  0  0  0  0  0
    1.6867   19.6387    1.6930 H   0  0  0  0  0  0  0  0  0  0  0  0
    4.8254   17.0372    0.3856 H   0  0  0  0  0  0  0  0  0  0  0  0
    3.4704   17.6282   -0.6349 H   0  0  0  0  0  0  0  0  0  0  0  0
    5.0412   18.4996   -0.6349 H   0  0  0  0  0  0  0  0  0  0  0  0
    3.7238   18.8635    3.2389 H   0  0  0  0  0  0  0  0  0  0  0  0
    4.5043   17.3862    2.5791 H   0  0  0  0  0  0  0  0  0  0  0  0
    5.3924   18.9476    2.5791 H   0  0  0  0  0  0  0  0  0  0  0  0
   -0.3373   16.3797   -2.5002 H   0  0  0  0  0  0  0  0  0  0  0  0
    1.8400   16.7257   -3.4875 H   0  0  0  0  0  0  0  0  0  0  0  0
    2.4417   17.5796   -2.0505 H   0  0  0  0  0  0  0  0  0  0  0  0
    3.0783   14.8884   -2.7708 H   0  0  0  0  0  0  0  0  0  0  0  0
    3.3688   15.5785   -1.1761 H   0  0  0  0  0  0  0  0  0  0  0  0
    0.0349   13.1198   -2.2999 H   0  0  0  0  0  0  0  0  0  0  0  0
    0.2934   14.6391   -3.2228 H   0  0  0  0  0  0  0  0  0  0  0  0
    1.5568   13.3621   -3.2228 H   0  0  0  0  0  0  0  0  0  0  0  0
    2.4200   14.0312    0.4254 H   0  0  0  0  0  0  0  0  0  0  0  0
    3.4516   12.8049   -1.5918 H   0  0  0  0  0  0  0  0  0  0  0  0
    3.3845   12.0156    0.0697 H   0  0  0  0  0  0  0  0  0  0  0  0
    2.8061   10.4658   -1.9818 H   0  0  0  0  0  0  0  0  0  0  0  0
   -0.7317   12.1524   -1.0126 H   0  0  0  0  0  0  0  0  0  0  0  0
   -0.1779   10.1665    1.2765 H   0  0  0  0  0  0  0  0  0  0  0  0
   -1.6180   11.2661    1.1075 H   0  0  0  0  0  0  0  0  0  0  0  0
   -2.1455    8.9299    0.4866 H   0  0  0  0  0  0  0  0  0  0  0  0
   -2.3243   10.0847   -0.8918 H   0  0  0  0  0  0  0  0  0  0  0  0
   -1.2456    8.0948   -1.6890 H   0  0  0  0  0  0  0  0  0  0  0  0
    0.5420    7.2450   -0.6660 H   0  0  0  0  0  0  0  0  0  0  0  0
   -1.4773   10.7493   -2.7087 H   0  0  0  0  0  0  0  0  0  0  0  0
   -0.0259   10.8644   -3.7608 H   0  0  0  0  0  0  0  0  0  0  0  0
   -1.0187    9.3675   -3.7608 H   0  0  0  0  0  0  0  0  0  0  0  0
    1.8422    8.1341   -1.9025 H   0  0  0  0  0  0  0  0  0  0  0  0
    0.7349    7.9330   -3.3025 H   0  0  0  0  0  0  0  0  0  0  0  0
    1.9520    9.2541   -3.3025 H   0  0  0  0  0  0  0  0  0  0  0  0
    0.6779   12.7536    2.6626 H   0  0  0  0  0  0  0  0  0  0  0  0
    1.0366   11.1751    1.8838 H   0  0  0  0  0  0  0  0  0  0  0  0
    2.2730   12.4783    1.8838 H   0  0  0  0  0  0  0  0  0  0  0  0
   -1.4103   13.3291    1.0180 H   0  0  0  0  0  0  0  0  0  0  0  0
   -0.0685   14.3922    1.7290 H   0  0  0  0  0  0  0  0  0  0  0  0
   -1.2600   14.5333   -1.0533 H   0  0  0  0  0  0  0  0  0  0  0  0
   -1.3617   15.7479    0.2815 H   0  0  0  0  0  0  0  0  0  0  0  0
    0.8222   15.8733    1.4997 H   0  0  0  0  0  0  0  0  0  0  0  0
    2.3258   16.1170    0.5476 H   0  0  0  0  0  0  0  0  0  0  0  0
    1.0482   17.3796    0.5476 H   0  0  0  0  0  0  0  0  0  0  0  0
  1  2  1  0
  2  3  1  0
  3  4  1  0
  4  5  1  0
  5  6  1  0
  6  7  1  0
  7  8  1  0
  7  9  1  0
  2 10  1  0
 10 11  1  0
 11 12  1  0
 12 13  1  0
 13 14  1  6
 13 15  1  0
 15 16  1  0
 16 17  1  0
 17 18  2  0
 18 19  1  0
 19 20  1  0
 20 21  1  0
 21 22  1  0
 22 23  1  0
 22 24  1  0
 24 25  1  0
 24 26  1  0
 19 27  1  0
 27 28  1  1
 27 29  1  0
 29 30  1  0
 30 31  1  0
 31 32  1  1
  7  5  1  0
 31 10  1  0
 31 13  1  0
 27 15  1  0
 24 18  1  0
  1 33  1  0
  1 34  1  0
  1 35  1  0
  2 36  1  1
  3 37  1  0
  3 38  1  0
  4 39  1  0
  4 40  1  0
  5 41  1  1
  8 42  1  0
  8 43  1  0
  8 44  1  0
  9 45  1  0
  9 46  1  0
  9 47  1  0
 10 48  1  6
 11 49  1  0
 11 50  1  0
 12 51  1  0
 12 52  1  0
 14 53  1  0
 14 54  1  0
 14 55  1  0
 15 56  1  1
 16 57  1  0
 16 58  1  0
 17 59  1  0
 19 60  1  6
 20 61  1  0
 20 62  1  0
 21 63  1  0
 21 64  1  0
 22 65  1  6
 23 66  1  0
 25 67  1  0
 25 68  1  0
 25 69  1  0
 26 70  1  0
 26 71  1  0
 26 72  1  0
 28 73  1  0
 28 74  1  0
 28 75  1  0
 29 76  1  0
 29 77  1  0
 30 78  1  0
 30 79  1  0
 32 80  1  0
 32 81  1  0
 32 82  1  0
M  END
>  <meeko>  (11) 
{"is_sidechain": [false], "intermolecular_energy": 2.731, "internal_energy": -0.839}

$$$$
EPH_relaxed_0001_pdb2pqr_Repair_380_r2_0001_out
     RDKit          3D

 82 86  0  0  0  0  0  0  0  0999 V2000
   -0.3760    7.9320   -1.0100 C   0  0  0  0  0  0  0  0  0  0  0  0
   -1.3510    8.9310   -0.3800 C   0  0  2  0  0  0  0  0  0  0  0  0
   -2.5640    9.2110   -1.2890 C   0  0  0  0  0  0  0  0  0  0  0  0
   -2.5730    8.3810   -2.5760 C   0  0  0  0  0  0  0  0  0  0  0  0
   -2.9450    6.9530   -2.3120 C   0  0  2  0  0  0  0  0  0  0  0  0
   -2.5590    6.0340   -3.3420 O   0  0  0  0  0  0  0  0  0  0  0  0
   -3.9720    6.1910   -3.1290 C   0  0  0  0  0  0  0  0  0  0  0  0
   -4.6920    6.8340   -4.2730 C   0  0  0  0  0  0  0  0  0  0  0  0
   -4.6260    4.9920   -2.5170 C   0  0  0  0  0  0  0  0  0  0  0  0
   -0.6270   10.2340   -0.0620 C   0  0  1  0  0  0  0  0  0  0  0  0
    0.4620   10.0610    1.0300 C   0  0  0  0  0  0  0  0  0  0  0  0
    1.6200   11.0250    0.6640 C   0  0  0  0  0  0  0  0  0  0  0  0
    1.0270   11.9510   -0.4230 C   0  0  1  0  0  0  0  0  0  0  0  0
    0.2130   13.0260    0.3640 C   0  0  0  0  0  0  0  0  0  0  0  0
    2.0510   12.6080   -1.4050 C   0  0  2  0  0  0  0  0  0  0  0  0
    3.0720   13.5530   -0.7470 C   0  0  0  0  0  0  0  0  0  0  0  0
    2.6560   14.9850   -0.6680 C   0  0  0  0  0  0  0  0  0  0  0  0
    1.6440   15.5450   -1.3550 C   0  0  0  0  0  0  0  0  0  0  0  0
    0.8570   14.7370   -2.3960 C   0  0  1  0  0  0  0  0  0  0  0  0
    0.6970   15.5770   -3.6900 C   0  0  0  0  0  0  0  0  0  0  0  0
    0.0790   16.9470   -3.4260 C   0  0  0  0  0  0  0  0  0  0  0  0
    0.9210   17.7420   -2.4310 C   0  0  2  0  0  0  0  0  0  0  0  0
    2.1790   18.0530   -3.0380 O   0  0  0  0  0  0  0  0  0  0  0  0
    1.1580   16.9910   -1.0910 C   0  0  0  0  0  0  0  0  0  0  0  0
   -0.1670   16.9210   -0.2930 C   0  0  0  0  0  0  0  0  0  0  0  0
    2.1360   17.8400   -0.2350 C   0  0  0  0  0  0  0  0  0  0  0  0
    1.3920   13.2690   -2.6830 C   0  0  1  0  0  0  0  0  0  0  0  0
    2.4980   13.3110   -3.7820 C   0  0  0  0  0  0  0  0  0  0  0  0
    0.2180   12.3980   -3.2680 C   0  0  0  0  0  0  0  0  0  0  0  0
   -0.6870   11.6780   -2.2500 C   0  0  0  0  0  0  0  0  0  0  0  0
    0.1480   10.9170   -1.2170 C   0  0  2  0  0  0  0  0  0  0  0  0
    0.9610    9.8140   -1.9770 C   0  0  0  0  0  0  0  0  0  0  0  0
    0.1554    7.3875   -0.2155 H   0  0  0  0  0  0  0  0  0  0  0  0
   -0.9343    7.2182   -1.6335 H   0  0  0  0  0  0  0  0  0  0  0  0
    0.3512    8.4728   -1.6335 H   0  0  0  0  0  0  0  0  0  0  0  0
   -1.7315    8.4807    0.5487 H   0  0  0  0  0  0  0  0  0  0  0  0
   -3.4807    8.9859   -0.7241 H   0  0  0  0  0  0  0  0  0  0  0  0
   -2.5045   10.2678   -1.5883 H   0  0  0  0  0  0  0  0  0  0  0  0
   -3.3020    8.8158   -3.2756 H   0  0  0  0  0  0  0  0  0  0  0  0
   -1.5591    8.3981   -3.0023 H   0  0  0  0  0  0  0  0  0  0  0  0
   -2.8245    7.0972   -1.2282 H   0  0  0  0  0  0  0  0  0  0  0  0
   -5.4596    7.5195   -3.8844 H   0  0  0  0  0  0  0  0  0  0  0  0
   -3.9745    7.3974   -4.8876 H   0  0  0  0  0  0  0  0  0  0  0  0
   -5.1710    6.0576   -4.8876 H   0  0  0  0  0  0  0  0  0  0  0  0
   -4.5831    5.0706   -1.4206 H   0  0  0  0  0  0  0  0  0  0  0  0
   -5.6762    4.9422   -2.8403 H   0  0  0  0  0  0  0  0  0  0  0  0
   -4.0993    4.0820   -2.8403 H   0  0  0  0  0  0  0  0  0  0  0  0
   -1.4856   10.8548    0.2337 H   0  0  0  0  0  0  0  0  0  0  0  0
    0.0523   10.3190    2.0177 H   0  0  0  0  0  0  0  0  0  0  0  0
    0.8142    9.0199    1.0750 H   0  0  0  0  0  0  0  0  0  0  0  0
    1.9324   11.6081    1.5428 H   0  0  0  0  0  0  0  0  0  0  0  0
    2.5142   10.4890    0.3132 H   0  0  0  0  0  0  0  0  0  0  0  0
    0.3374   12.8617    1.4445 H   0  0  0  0  0  0  0  0  0  0  0  0
    0.5801   14.0290    0.1010 H   0  0  0  0  0  0  0  0  0  0  0  0
   -0.8520   12.9447    0.1010 H   0  0  0  0  0  0  0  0  0  0  0  0
    2.6294   11.7410   -1.7567 H   0  0  0  0  0  0  0  0  0  0  0  0
    3.2558   13.1953    0.2769 H   0  0  0  0  0  0  0  0  0  0  0  0
    3.9655   13.5302   -1.3882 H   0  0  0  0  0  0  0  0  0  0  0  0
    3.2257   15.6377    0.0098 H   0  0  0  0  0  0  0  0  0  0  0  0
   -0.1305   14.5466   -1.9504 H   0  0  0  0  0  0  0  0  0  0  0  0
    1.6893   15.7192   -4.1430 H   0  0  0  0  0  0  0  0  0  0  0  0
    0.0198   15.0293   -4.3619 H   0  0  0  0  0  0  0  0  0  0  0  0
    0.0193   17.5037   -4.3729 H   0  0  0  0  0  0  0  0  0  0  0  0
   -0.9252   16.8035   -3.0007 H   0  0  0  0  0  0  0  0  0  0  0  0
    0.3627   18.6566   -2.1824 H   0  0  0  0  0  0  0  0  0  0  0  0
    2.3470   19.0000   -2.8980 H   0  0  0  0  0  0  0  0  0  0  0  0
    0.0530   16.9326    0.7847 H   0  0  0  0  0  0  0  0  0  0  0  0
   -0.7950   17.7872   -0.5484 H   0  0  0  0  0  0  0  0  0  0  0  0
   -0.7003   15.9934   -0.5484 H   0  0  0  0  0  0  0  0  0  0  0  0
    1.9352   17.6656    0.8324 H   0  0  0  0  0  0  0  0  0  0  0  0
    3.1717   17.5497   -0.4654 H   0  0  0  0  0  0  0  0  0  0  0  0
    1.9941   18.9062   -0.4654 H   0  0  0  0  0  0  0  0  0  0  0  0
    3.4882   13.3486   -3.3044 H   0  0  0  0  0  0  0  0  0  0  0  0
    2.4270   12.4095   -4.4083 H   0  0  0  0  0  0  0  0  0  0  0  0
    2.3588   14.2045   -4.4083 H   0  0  0  0  0  0  0  0  0  0  0  0
   -0.4204   13.0613   -3.8700 H   0  0  0  0  0  0  0  0  0  0  0  0
    0.7108   11.5939   -3.8342 H   0  0  0  0  0  0  0  0  0  0  0  0
   -1.3092   12.4226   -1.7319 H   0  0  0  0  0  0  0  0  0  0  0  0
   -1.3186   10.9574   -2.7902 H   0  0  0  0  0  0  0  0  0  0  0  0
    1.4497    9.1510   -1.2479 H   0  0  0  0  0  0  0  0  0  0  0  0
    0.2790    9.2255   -2.6083 H   0  0  0  0  0  0  0  0  0  0  0  0
    1.7250   10.2912   -2.6083 H   0  0  0  0  0  0  0  0  0  0  0  0
  1  2  1  0
  2  3  1  0
  3  4  1  0
  4  5  1  0
  5  6  1  0
  6  7  1  0
  7  8  1  0
  7  9  1  0
  2 10  1  0
 10 11  1  0
 11 12  1  0
 12 13  1  0
 13 14  1  1
 13 15  1  0
 15 16  1  0
 16 17  1  0
 17 18  2  0
 18 19  1  0
 19 20  1  0
 20 21  1  0
 21 22  1  0
 22 23  1  0
 22 24  1  0
 24 25  1  0
 24 26  1  0
 19 27  1  0
 27 28  1  6
 27 29  1  0
 29 30  1  0
 30 31  1  0
 31 32  1  6
  7  5  1  0
 31 10  1  0
 31 13  1  0
 27 15  1  0
 24 18  1  0
  1 33  1  0
  1 34  1  0
  1 35  1  0
  2 36  1  1
  3 37  1  0
  3 38  1  0
  4 39  1  0
  4 40  1  0
  5 41  1  1
  8 42  1  0
  8 43  1  0
  8 44  1  0
  9 45  1  0
  9 46  1  0
  9 47  1  0
 10 48  1  1
 11 49  1  0
 11 50  1  0
 12 51  1  0
 12 52  1  0
 14 53  1  0
 14 54  1  0
 14 55  1  0
 15 56  1  6
 16 57  1  0
 16 58  1  0
 17 59  1  0
 19 60  1  1
 20 61  1  0
 20 62  1  0
 21 63  1  0
 21 64  1  0
 22 65  1  1
 23 66  1  0
 25 67  1  0
 25 68  1  0
 25 69  1  0
 26 70  1  0
 26 71  1  0
 26 72  1  0
 28 73  1  0
 28 74  1  0
 28 75  1  0
 29 76  1  0
 29 77  1  0
 30 78  1  0
 30 79  1  0
 32 80  1  0
 32 81  1  0
 32 82  1  0
M  END
>  <meeko>  (12) 
{"is_sidechain": [false], "intermolecular_energy": 2.731, "internal_energy": -0.839}

$$$$
EPH_relaxed_0001_pdb2pqr_Repair_380_r2_0001_out
     RDKit          3D

 82 86  0  0  0  0  0  0  0  0999 V2000
    2.8290   11.3460   -5.3320 C   0  0  0  0  0  0  0  0  0  0  0  0
    1.8080   11.0430   -4.2320 C   0  0  2  0  0  0  0  0  0  0  0  0
    0.6870   10.1040   -4.7220 C   0  0  0  0  0  0  0  0  0  0  0  0
   -0.3780    9.8110   -3.6630 C   0  0  0  0  0  0  0  0  0  0  0  0
    0.1810    9.0230   -2.5170 C   0  0  2  0  0  0  0  0  0  0  0  0
   -0.6380    7.9280   -2.0880 O   0  0  0  0  0  0  0  0  0  0  0  0
   -0.4510    8.9890   -1.1380 C   0  0  0  0  0  0  0  0  0  0  0  0
   -1.6980    9.7580   -0.8310 C   0  0  0  0  0  0  0  0  0  0  0  0
    0.4030    8.6090    0.0310 C   0  0  0  0  0  0  0  0  0  0  0  0
    1.2070   12.3420   -3.7080 C   0  0  1  0  0  0  0  0  0  0  0  0
   -0.3320   12.2560   -3.5230 C   0  0  0  0  0  0  0  0  0  0  0  0
   -0.6810   13.1160   -2.2810 C   0  0  0  0  0  0  0  0  0  0  0  0
    0.6040   13.9280   -1.9950 C   0  0  1  0  0  0  0  0  0  0  0  0
    0.5540   15.1250   -2.9950 C   0  0  0  0  0  0  0  0  0  0  0  0
    0.8000   14.4140   -0.5220 C   0  0  2  0  0  0  0  0  0  0  0  0
   -0.2760   15.3860   -0.0070 C   0  0  0  0  0  0  0  0  0  0  0  0
    0.0160   16.8340   -0.2270 C   0  0  0  0  0  0  0  0  0  0  0  0
    1.2160   17.3490   -0.5530 C   0  0  0  0  0  0  0  0  0  0  0  0
    2.4600   16.4560   -0.6380 C   0  0  1  0  0  0  0  0  0  0  0  0
    3.6380   17.1380    0.1060 C   0  0  0  0  0  0  0  0  0  0  0  0
    3.9030   18.5550   -0.3910 C   0  0  0  0  0  0  0  0  0  0  0  0
    2.6600   19.4280   -0.2370 C   0  0  2  0  0  0  0  0  0  0  0  0
    2.3930   19.6070    1.1570 O   0  0  0  0  0  0  0  0  0  0  0  0
    1.4050   18.8370   -0.9380 C   0  0  0  0  0  0  0  0  0  0  0  0
    1.5790   18.9240   -2.4750 C   0  0  0  0  0  0  0  0  0  0  0  0
    0.1920   19.7410   -0.5870 C   0  0  0  0  0  0  0  0  0  0  0  0
    2.2570   14.9410   -0.2020 C   0  0  1  0  0  0  0  0  0  0  0  0
    2.4530   14.8000    1.3390 C   0  0  0  0  0  0  0  0  0  0  0  0
    3.3740   14.0590   -0.8740 C   0  0  0  0  0  0  0  0  0  0  0  0
    3.0720   13.5090   -2.2810 C   0  0  0  0  0  0  0  0  0  0  0  0
    1.6930   12.8430   -2.3250 C   0  0  2  0  0  0  0  0  0  0  0  0
    1.7200   11.6210   -1.3450 C   0  0  0  0  0  0  0  0  0  0  0  0
    3.7878   11.6305   -4.8740 H   0  0  0  0  0  0  0  0  0  0  0  0
    2.9719   10.4515   -5.9561 H   0  0  0  0  0  0  0  0  0  0  0  0
    2.4608   12.1736   -5.9561 H   0  0  0  0  0  0  0  0  0  0  0  0
    2.3406   10.5257   -3.4204 H   0  0  0  0  0  0  0  0  0  0  0  0
    0.1959   10.5720   -5.5879 H   0  0  0  0  0  0  0  0  0  0  0  0
    1.1603    9.1440   -4.9755 H   0  0  0  0  0  0  0  0  0  0  0  0
   -0.7727   10.7641   -3.2812 H   0  0  0  0  0  0  0  0  0  0  0  0
   -1.1738    9.2146   -4.1331 H   0  0  0  0  0  0  0  0  0  0  0  0
    1.2099    9.2201   -2.8524 H   0  0  0  0  0  0  0  0  0  0  0  0
   -1.8224    9.8347    0.2592 H   0  0  0  0  0  0  0  0  0  0  0  0
   -1.6225   10.7667   -1.2633 H   0  0  0  0  0  0  0  0  0  0  0  0
   -2.5654    9.2377   -1.2633 H   0  0  0  0  0  0  0  0  0  0  0  0
   -0.1278    8.8452    0.9650 H   0  0  0  0  0  0  0  0  0  0  0  0
    0.6171    7.5307   -0.0065 H   0  0  0  0  0  0  0  0  0  0  0  0
    1.3474    9.1718   -0.0065 H   0  0  0  0  0  0  0  0  0  0  0  0
    1.5415   13.0318   -4.4968 H   0  0  0  0  0  0  0  0  0  0  0  0
   -0.8434   12.6509   -4.4132 H   0  0  0  0  0  0  0  0  0  0  0  0
   -0.6561   11.2138   -3.3860 H   0  0  0  0  0  0  0  0  0  0  0  0
   -1.5245   13.7877   -2.4984 H   0  0  0  0  0  0  0  0  0  0  0  0
   -0.9865   12.5020   -1.4210 H   0  0  0  0  0  0  0  0  0  0  0  0
    0.5145   16.0702   -2.4338 H   0  0  0  0  0  0  0  0  0  0  0  0
    1.4535   15.1117   -3.6281 H   0  0  0  0  0  0  0  0  0  0  0  0
   -0.3412   15.0368   -3.6281 H   0  0  0  0  0  0  0  0  0  0  0  0
    0.6634   13.4862    0.0529 H   0  0  0  0  0  0  0  0  0  0  0  0
   -1.2212   15.1483   -0.5170 H   0  0  0  0  0  0  0  0  0  0  0  0
   -0.3170   15.2455    1.0832 H   0  0  0  0  0  0  0  0  0  0  0  0
   -0.8204   17.5393   -0.1130 H   0  0  0  0  0  0  0  0  0  0  0  0
    2.6973   16.3650   -1.7082 H   0  0  0  0  0  0  0  0  0  0  0  0
    3.4001   17.1797    1.1792 H   0  0  0  0  0  0  0  0  0  0  0  0
    4.5429   16.5427   -0.0859 H   0  0  0  0  0  0  0  0  0  0  0  0
    4.7256   18.9935    0.1930 H   0  0  0  0  0  0  0  0  0  0  0  0
    4.1703   18.5092   -1.4570 H   0  0  0  0  0  0  0  0  0  0  0  0
    2.8693   20.3896   -0.7284 H   0  0  0  0  0  0  0  0  0  0  0  0
    3.1210   19.1940    1.6520 H   0  0  0  0  0  0  0  0  0  0  0  0
    2.5404   19.4047   -2.7085 H   0  0  0  0  0  0  0  0  0  0  0  0
    1.5617   17.9112   -2.9039 H   0  0  0  0  0  0  0  0  0  0  0  0
    0.7584   19.5179   -2.9039 H   0  0  0  0  0  0  0  0  0  0  0  0
    0.0936   19.8144    0.5061 H   0  0  0  0  0  0  0  0  0  0  0  0
    0.3483   20.7446   -1.0093 H   0  0  0  0  0  0  0  0  0  0  0  0
   -0.7251   19.3043   -1.0093 H   0  0  0  0  0  0  0  0  0  0  0  0
    1.6673   15.3652    1.8618 H   0  0  0  0  0  0  0  0  0  0  0  0
    2.3904   13.7386    1.6210 H   0  0  0  0  0  0  0  0  0  0  0  0
    3.4394   15.1968    1.6210 H   0  0  0  0  0  0  0  0  0  0  0  0
    4.2845   14.6722   -0.9448 H   0  0  0  0  0  0  0  0  0  0  0  0
    3.4650   13.1710   -0.2313 H   0  0  0  0  0  0  0  0  0  0  0  0
    3.0946   14.3378   -3.0039 H   0  0  0  0  0  0  0  0  0  0  0  0
    3.8332   12.7564   -2.5343 H   0  0  0  0  0  0  0  0  0  0  0  0
    1.7120   11.9836   -0.3065 H   0  0  0  0  0  0  0  0  0  0  0  0
    0.8356   10.9909   -1.5202 H   0  0  0  0  0  0  0  0  0  0  0  0
    2.6314   11.0305   -1.5202 H   0  0  0  0  0  0  0  0  0  0  0  0
  1  2  1  0
  2  3  1  0
  3  4  1  0
  4  5  1  0
  5  6  1  0
  6  7  1  0
  7  8  1  0
  7  9  1  0
  2 10  1  0
 10 11  1  0
 11 12  1  0
 12 13  1  0
 13 14  1  6
 13 15  1  0
 15 16  1  0
 16 17  1  0
 17 18  2  0
 18 19  1  0
 19 20  1  0
 20 21  1  0
 21 22  1  0
 22 23  1  0
 22 24  1  0
 24 25  1  0
 24 26  1  0
 19 27  1  0
 27 28  1  1
 27 29  1  0
 29 30  1  0
 30 31  1  0
 31 32  1  1
  7  5  1  0
 31 10  1  0
 31 13  1  0
 27 15  1  0
 24 18  1  0
  1 33  1  0
  1 34  1  0
  1 35  1  0
  2 36  1  1
  3 37  1  0
  3 38  1  0
  4 39  1  0
  4 40  1  0
  5 41  1  1
  8 42  1  0
  8 43  1  0
  8 44  1  0
  9 45  1  0
  9 46  1  0
  9 47  1  0
 10 48  1  6
 11 49  1  0
 11 50  1  0
 12 51  1  0
 12 52  1  0
 14 53  1  0
 14 54  1  0
 14 55  1  0
 15 56  1  1
 16 57  1  0
 16 58  1  0
 17 59  1  0
 19 60  1  6
 20 61  1  0
 20 62  1  0
 21 63  1  0
 21 64  1  0
 22 65  1  6
 23 66  1  0
 25 67  1  0
 25 68  1  0
 25 69  1  0
 26 70  1  0
 26 71  1  0
 26 72  1  0
 28 73  1  0
 28 74  1  0
 28 75  1  0
 29 76  1  0
 29 77  1  0
 30 78  1  0
 30 79  1  0
 32 80  1  0
 32 81  1  0
 32 82  1  0
M  END
>  <meeko>  (13) 
{"is_sidechain": [false], "intermolecular_energy": 2.731, "internal_energy": -0.839}

$$$$
EPH_relaxed_0001_pdb2pqr_Repair_380_r2_0001_out
     RDKit          3D

 82 86  0  0  0  0  0  0  0  0999 V2000
   -1.9920    9.6340   -0.4130 C   0  0  0  0  0  0  0  0  0  0  0  0
   -0.9490   10.2710   -1.3360 C   0  0  2  0  0  0  0  0  0  0  0  0
    0.2140    9.3080   -1.6490 C   0  0  0  0  0  0  0  0  0  0  0  0
    0.9170    9.6020   -2.9770 C   0  0  0  0  0  0  0  0  0  0  0  0
    2.4090    9.5780   -2.8320 C   0  0  2  0  0  0  0  0  0  0  0  0
    2.9670   10.7320   -2.1910 O   0  0  0  0  0  0  0  0  0  0  0  0
    3.3360   10.5290   -3.5650 C   0  0  0  0  0  0  0  0  0  0  0  0
    2.8050   11.5720   -4.4980 C   0  0  0  0  0  0  0  0  0  0  0  0
    4.7670   10.1310   -3.7520 C   0  0  0  0  0  0  0  0  0  0  0  0
   -0.4110   11.5510   -0.7080 C   0  0  1  0  0  0  0  0  0  0  0  0
    0.7360   11.2840    0.3030 C   0  0  0  0  0  0  0  0  0  0  0  0
    1.7230   12.4730    0.1830 C   0  0  0  0  0  0  0  0  0  0  0  0
    0.9560   13.5360   -0.6380 C   0  0  1  0  0  0  0  0  0  0  0  0
    0.0270   14.2480    0.3950 C   0  0  0  0  0  0  0  0  0  0  0  0
    1.8310   14.5620   -1.4300 C   0  0  2  0  0  0  0  0  0  0  0  0
    2.7280   15.4610   -0.5620 C   0  0  0  0  0  0  0  0  0  0  0  0
    2.1110   16.7490   -0.1280 C   0  0  0  0  0  0  0  0  0  0  0  0
    0.9990   17.2990   -0.6510 C   0  0  0  0  0  0  0  0  0  0  0  0
    0.2960   16.6600   -1.8560 C   0  0  1  0  0  0  0  0  0  0  0  0
   -0.0390   17.7570   -2.9010 C   0  0  0  0  0  0  0  0  0  0  0  0
   -0.8390   18.9100   -2.3030 C   0  0  0  0  0  0  0  0  0  0  0  0
   -0.0830   19.5560   -1.1450 C   0  0  2  0  0  0  0  0  0  0  0  0
    1.0900   20.1940   -1.6610 O   0  0  0  0  0  0  0  0  0  0  0  0
    0.3180   18.5450   -0.0340 C   0  0  0  0  0  0  0  0  0  0  0  0
   -0.9480   18.0800    0.7270 C   0  0  0  0  0  0  0  0  0  0  0  0
    1.1960   19.2980    1.0020 C   0  0  0  0  0  0  0  0  0  0  0  0
    1.0290   15.4060   -2.5020 C   0  0  1  0  0  0  0  0  0  0  0  0
    2.0690   15.8850   -3.5600 C   0  0  0  0  0  0  0  0  0  0  0  0
   -0.0280   14.5370   -3.2790 C   0  0  0  0  0  0  0  0  0  0  0  0
   -0.7740   13.4600   -2.4680 C   0  0  0  0  0  0  0  0  0  0  0  0
    0.2070   12.6050   -1.6600 C   0  0  2  0  0  0  0  0  0  0  0  0
    1.1400   11.8600   -2.6740 C   0  0  0  0  0  0  0  0  0  0  0  0
   -1.7083    9.8073    0.6356 H   0  0  0  0  0  0  0  0  0  0  0  0
   -2.9765   10.0851   -0.6058 H   0  0  0  0  0  0  0  0  0  0  0  0
   -2.0403    8.5521   -0.6058 H   0  0  0  0  0  0  0  0  0  0  0  0
   -1.4485   10.5060   -2.2875 H   0  0  0  0  0  0  0  0  0  0  0  0
    0.9551    9.3840   -0.8396 H   0  0  0  0  0  0  0  0  0  0  0  0
   -0.2173    8.2993   -1.7303 H   0  0  0  0  0  0  0  0  0  0  0  0
    0.6183    8.8423   -3.7143 H   0  0  0  0  0  0  0  0  0  0  0  0
    0.6207   10.6089   -3.3062 H   0  0  0  0  0  0  0  0  0  0  0  0
    2.4050    8.4826   -2.7316 H   0  0  0  0  0  0  0  0  0  0  0  0
    2.3816   12.4036   -3.9156 H   0  0  0  0  0  0  0  0  0  0  0  0
    3.6220   11.9469   -5.1320 H   0  0  0  0  0  0  0  0  0  0  0  0
    2.0212   11.1320   -5.1320 H   0  0  0  0  0  0  0  0  0  0  0  0
    5.2423    9.9988   -2.7688 H   0  0  0  0  0  0  0  0  0  0  0  0
    4.8144    9.1856   -4.3123 H   0  0  0  0  0  0  0  0  0  0  0  0
    5.2958   10.9162   -4.3123 H   0  0  0  0  0  0  0  0  0  0  0  0
   -1.3383   11.9426   -0.2646 H   0  0  0  0  0  0  0  0  0  0  0  0
    0.3342   11.2268    1.3254 H   0  0  0  0  0  0  0  0  0  0  0  0
    1.2388   10.3297    0.0872 H   0  0  0  0  0  0  0  0  0  0  0  0
    1.9828   12.8639    1.1779 H   0  0  0  0  0  0  0  0  0  0  0  0
    2.6706   12.1818   -0.2937 H   0  0  0  0  0  0  0  0  0  0  0  0
    0.3535   13.9978    1.4152 H   0  0  0  0  0  0  0  0  0  0  0  0
    0.0828   15.3368    0.2488 H   0  0  0  0  0  0  0  0  0  0  0  0
   -1.0099   13.9111    0.2488 H   0  0  0  0  0  0  0  0  0  0  0  0
    2.5164   13.9071   -1.9880 H   0  0  0  0  0  0  0  0  0  0  0  0
    3.0044   14.8956    0.3402 H   0  0  0  0  0  0  0  0  0  0  0  0
    3.5875   15.7327   -1.1925 H   0  0  0  0  0  0  0  0  0  0  0  0
    2.6068   17.2950    0.6882 H   0  0  0  0  0  0  0  0  0  0  0  0
   -0.6331   16.2180   -1.4669 H   0  0  0  0  0  0  0  0  0  0  0  0
    0.9021   18.1549   -3.3086 H   0  0  0  0  0  0  0  0  0  0  0  0
   -0.6561   17.2938   -3.6850 H   0  0  0  0  0  0  0  0  0  0  0  0
   -1.0184   19.6657   -3.0819 H   0  0  0  0  0  0  0  0  0  0  0  0
   -1.7928   18.5154   -1.9228 H   0  0  0  0  0  0  0  0  0  0  0  0
   -0.7592   20.2853   -0.6750 H   0  0  0  0  0  0  0  0  0  0  0  0
    1.0160   21.1440   -1.4700 H   0  0  0  0  0  0  0  0  0  0  0  0
   -0.7694   18.1456    1.8104 H   0  0  0  0  0  0  0  0  0  0  0  0
   -1.7966   18.7251    0.4556 H   0  0  0  0  0  0  0  0  0  0  0  0
   -1.1773   17.0390    0.4556 H   0  0  0  0  0  0  0  0  0  0  0  0
    0.8781   19.0254    2.0192 H   0  0  0  0  0  0  0  0  0  0  0  0
    2.2506   19.0193    0.8604 H   0  0  0  0  0  0  0  0  0  0  0  0
    1.0812   20.3828    0.8604 H   0  0  0  0  0  0  0  0  0  0  0  0
    2.9529   16.2921   -3.0471 H   0  0  0  0  0  0  0  0  0  0  0  0
    2.3697   15.0347   -4.1897 H   0  0  0  0  0  0  0  0  0  0  0  0
    1.6182   16.6662   -4.1897 H   0  0  0  0  0  0  0  0  0  0  0  0
   -0.7816   15.2224   -3.6940 H   0  0  0  0  0  0  0  0  0  0  0  0
    0.5529   13.9808   -4.0295 H   0  0  0  0  0  0  0  0  0  0  0  0
   -1.4762   13.9510   -1.7782 H   0  0  0  0  0  0  0  0  0  0  0  0
   -1.3154   12.8062   -3.1676 H   0  0  0  0  0  0  0  0  0  0  0  0
    1.8830   11.2667   -2.1209 H   0  0  0  0  0  0  0  0  0  0  0  0
    0.5357   11.1932   -3.3066 H   0  0  0  0  0  0  0  0  0  0  0  0
    1.6565   12.5969   -3.3066 H   0  0  0  0  0  0  0  0  0  0  0  0
  1  2  1  0
  2  3  1  0
  3  4  1  0
  4  5  1  0
  5  6  1  0
  6  7  1  0
  7  8  1  0
  7  9  1  0
  2 10  1  0
 10 11  1  0
 11 12  1  0
 12 13  1  0
 13 14  1  1
 13 15  1  0
 15 16  1  0
 16 17  1  0
 17 18  2  0
 18 19  1  0
 19 20  1  0
 20 21  1  0
 21 22  1  0
 22 23  1  0
 22 24  1  0
 24 25  1  0
 24 26  1  0
 19 27  1  0
 27 28  1  6
 27 29  1  0
 29 30  1  0
 30 31  1  0
 31 32  1  6
  7  5  1  0
 31 10  1  0
 31 13  1  0
 27 15  1  0
 24 18  1  0
  1 33  1  0
  1 34  1  0
  1 35  1  0
  2 36  1  6
  3 37  1  0
  3 38  1  0
  4 39  1  0
  4 40  1  0
  5 41  1  1
  8 42  1  0
  8 43  1  0
  8 44  1  0
  9 45  1  0
  9 46  1  0
  9 47  1  0
 10 48  1  1
 11 49  1  0
 11 50  1  0
 12 51  1  0
 12 52  1  0
 14 53  1  0
 14 54  1  0
 14 55  1  0
 15 56  1  6
 16 57  1  0
 16 58  1  0
 17 59  1  0
 19 60  1  1
 20 61  1  0
 20 62  1  0
 21 63  1  0
 21 64  1  0
 22 65  1  1
 23 66  1  0
 25 67  1  0
 25 68  1  0
 25 69  1  0
 26 70  1  0
 26 71  1  0
 26 72  1  0
 28 73  1  0
 28 74  1  0
 28 75  1  0
 29 76  1  0
 29 77  1  0
 30 78  1  0
 30 79  1  0
 32 80  1  0
 32 81  1  0
 32 82  1  0
M  END
>  <meeko>  (14) 
{"is_sidechain": [false], "intermolecular_energy": 2.731, "internal_energy": -0.839}

$$$$
EPH_relaxed_0001_pdb2pqr_Repair_380_r2_0001_out
     RDKit          3D

 82 86  0  0  0  0  0  0  0  0999 V2000
   -2.0660   10.2510    0.2860 C   0  0  0  0  0  0  0  0  0  0  0  0
   -0.6310   10.4050   -0.2250 C   0  0  2  0  0  0  0  0  0  0  0  0
    0.2940    9.2870    0.2970 C   0  0  0  0  0  0  0  0  0  0  0  0
    0.6200    8.2190   -0.7500 C   0  0  0  0  0  0  0  0  0  0  0  0
   -0.6230    7.6030   -1.3190 C   0  0  2  0  0  0  0  0  0  0  0  0
   -0.4750    7.0690   -2.6410 O   0  0  0  0  0  0  0  0  0  0  0  0
   -1.3760    8.1790   -2.5030 C   0  0  0  0  0  0  0  0  0  0  0  0
   -0.9150    9.4260   -3.1890 C   0  0  0  0  0  0  0  0  0  0  0  0
   -2.8170    7.8130   -2.6810 C   0  0  0  0  0  0  0  0  0  0  0  0
   -0.0800   11.7680    0.1780 C   0  0  1  0  0  0  0  0  0  0  0  0
    1.1300   11.6610    1.1440 C   0  0  0  0  0  0  0  0  0  0  0  0
    2.0870   12.8290    0.7930 C   0  0  0  0  0  0  0  0  0  0  0  0
    1.2530   13.7550   -0.1240 C   0  0  1  0  0  0  0  0  0  0  0  0
    0.3750   14.6000    0.8510 C   0  0  0  0  0  0  0  0  0  0  0  0
    2.0610   14.6620   -1.1080 C   0  0  2  0  0  0  0  0  0  0  0  0
    2.9920   15.6860   -0.4360 C   0  0  0  0  0  0  0  0  0  0  0  0
    2.3780   17.0180   -0.1560 C   0  0  0  0  0  0  0  0  0  0  0  0
    1.2280   17.4760   -0.6830 C   0  0  0  0  0  0  0  0  0  0  0  0
    0.4660   16.6630   -1.7370 C   0  0  1  0  0  0  0  0  0  0  0  0
    0.0490   17.5930   -2.9070 C   0  0  0  0  0  0  0  0  0  0  0  0
   -0.7350   18.8130   -2.4330 C   0  0  0  0  0  0  0  0  0  0  0  0
    0.0780   19.6270   -1.4300 C   0  0  2  0  0  0  0  0  0  0  0  0
    1.2060   20.1940   -2.1030 O   0  0  0  0  0  0  0  0  0  0  0  0
    0.5620   18.7920   -0.2110 C   0  0  0  0  0  0  0  0  0  0  0  0
   -0.6480   18.4310    0.6860 C   0  0  0  0  0  0  0  0  0  0  0  0
    1.4870   19.6950    0.6490 C   0  0  0  0  0  0  0  0  0  0  0  0
    1.1810   15.3350   -2.2390 C   0  0  1  0  0  0  0  0  0  0  0  0
    2.1480   15.6640   -3.4170 C   0  0  0  0  0  0  0  0  0  0  0  0
    0.0950   14.3520   -2.8160 C   0  0  0  0  0  0  0  0  0  0  0  0
   -0.5820   13.3980   -1.8140 C   0  0  0  0  0  0  0  0  0  0  0  0
    0.4610   12.6790   -0.9520 C   0  0  2  0  0  0  0  0  0  0  0  0
    1.3450   11.8020   -1.9040 C   0  0  0  0  0  0  0  0  0  0  0  0
   -2.0655   10.2511    1.3860 H   0  0  0  0  0  0  0  0  0  0  0  0
   -2.6776   11.0887   -0.0804 H   0  0  0  0  0  0  0  0  0  0  0  0
   -2.4859    9.3026   -0.0804 H   0  0  0  0  0  0  0  0  0  0  0  0
   -0.6591   10.3247   -1.3217 H   0  0  0  0  0  0  0  0  0  0  0  0
    1.2368    9.7443    0.6317 H   0  0  0  0  0  0  0  0  0  0  0  0
   -0.2414    8.7825    1.1148 H   0  0  0  0  0  0  0  0  0  0  0  0
    1.1937    8.6829   -1.5659 H   0  0  0  0  0  0  0  0  0  0  0  0
    1.2030    7.4251   -0.2602 H   0  0  0  0  0  0  0  0  0  0  0  0
   -0.9525    7.2869   -0.3183 H   0  0  0  0  0  0  0  0  0  0  0  0
   -0.6371   10.1777   -2.4355 H   0  0  0  0  0  0  0  0  0  0  0  0
   -0.0420    9.1972   -3.8180 H   0  0  0  0  0  0  0  0  0  0  0  0
   -1.7269    9.8200   -3.8180 H   0  0  0  0  0  0  0  0  0  0  0  0
   -3.2893    7.6930   -1.6948 H   0  0  0  0  0  0  0  0  0  0  0  0
   -3.3312    8.6091   -3.2395 H   0  0  0  0  0  0  0  0  0  0  0  0
   -2.8890    6.8680   -3.2395 H   0  0  0  0  0  0  0  0  0  0  0  0
   -0.9864   12.2108    0.6167 H   0  0  0  0  0  0  0  0  0  0  0  0
    0.7912   11.7492    2.1868 H   0  0  0  0  0  0  0  0  0  0  0  0
    1.6360   10.6901    1.0373 H   0  0  0  0  0  0  0  0  0  0  0  0
    2.3989   13.3623    1.7031 H   0  0  0  0  0  0  0  0  0  0  0  0
    3.0095   12.4803    0.3057 H   0  0  0  0  0  0  0  0  0  0  0  0
    0.6356   14.3492    1.8899 H   0  0  0  0  0  0  0  0  0  0  0  0
    0.5581   15.6703    0.6752 H   0  0  0  0  0  0  0  0  0  0  0  0
   -0.6875   14.3761    0.6752 H   0  0  0  0  0  0  0  0  0  0  0  0
    2.7233   13.9389   -1.6064 H   0  0  0  0  0  0  0  0  0  0  0  0
    3.3318   15.2606    0.5198 H   0  0  0  0  0  0  0  0  0  0  0  0
    3.8077   15.8708   -1.1505 H   0  0  0  0  0  0  0  0  0  0  0  0
    2.9115   17.6814    0.5406 H   0  0  0  0  0  0  0  0  0  0  0  0
   -0.4301   16.2744   -1.2311 H   0  0  0  0  0  0  0  0  0  0  0  0
    0.9565   17.9364   -3.4252 H   0  0  0  0  0  0  0  0  0  0  0  0
   -0.6050   17.0150   -3.5765 H   0  0  0  0  0  0  0  0  0  0  0  0
   -0.9751   19.4459   -3.3000 H   0  0  0  0  0  0  0  0  0  0  0  0
   -1.6569   18.4690   -1.9413 H   0  0  0  0  0  0  0  0  0  0  0  0
   -0.5818   20.4112   -1.0303 H   0  0  0  0  0  0  0  0  0  0  0  0
    1.0000   20.2200   -3.0530 H   0  0  0  0  0  0  0  0  0  0  0  0
   -0.3589   18.5173    1.7438 H   0  0  0  0  0  0  0  0  0  0  0  0
   -1.4790   19.1203    0.4756 H   0  0  0  0  0  0  0  0  0  0  0  0
   -0.9654   17.3990    0.4756 H   0  0  0  0  0  0  0  0  0  0  0  0
    1.2944   19.5070    1.7156 H   0  0  0  0  0  0  0  0  0  0  0  0
    2.5384   19.4662    0.4204 H   0  0  0  0  0  0  0  0  0  0  0  0
    1.2836   20.7516    0.4204 H   0  0  0  0  0  0  0  0  0  0  0  0
    3.1172   15.9937   -3.0146 H   0  0  0  0  0  0  0  0  0  0  0  0
    2.2938   14.7649   -4.0337 H   0  0  0  0  0  0  0  0  0  0  0  0
    1.7152   16.4655   -4.0337 H   0  0  0  0  0  0  0  0  0  0  0  0
   -0.6941   14.9628   -3.2789 H   0  0  0  0  0  0  0  0  0  0  0  0
    0.6404   13.6978   -3.5122 H   0  0  0  0  0  0  0  0  0  0  0  0
   -1.2511   13.9775   -1.1609 H   0  0  0  0  0  0  0  0  0  0  0  0
   -1.1520   12.6443   -2.3770 H   0  0  0  0  0  0  0  0  0  0  0  0
    1.9990   11.1532   -1.3028 H   0  0  0  0  0  0  0  0  0  0  0  0
    0.6957   11.1811   -2.5386 H   0  0  0  0  0  0  0  0  0  0  0  0
    1.9608   12.4563   -2.5386 H   0  0  0  0  0  0  0  0  0  0  0  0
  1  2  1  0
  2  3  1  0
  3  4  1  0
  4  5  1  0
  5  6  1  0
  6  7  1  0
  7  8  1  0
  7  9  1  0
  2 10  1  0
 10 11  1  0
 11 12  1  0
 12 13  1  0
 13 14  1  1
 13 15  1  0
 15 16  1  0
 16 17  1  0
 17 18  2  0
 18 19  1  0
 19 20  1  0
 20 21  1  0
 21 22  1  0
 22 23  1  0
 22 24  1  0
 24 25  1  0
 24 26  1  0
 19 27  1  0
 27 28  1  6
 27 29  1  0
 29 30  1  0
 30 31  1  0
 31 32  1  6
  7  5  1  0
 31 10  1  0
 31 13  1  0
 27 15  1  0
 24 18  1  0
  1 33  1  0
  1 34  1  0
  1 35  1  0
  2 36  1  6
  3 37  1  0
  3 38  1  0
  4 39  1  0
  4 40  1  0
  5 41  1  1
  8 42  1  0
  8 43  1  0
  8 44  1  0
  9 45  1  0
  9 46  1  0
  9 47  1  0
 10 48  1  1
 11 49  1  0
 11 50  1  0
 12 51  1  0
 12 52  1  0
 14 53  1  0
 14 54  1  0
 14 55  1  0
 15 56  1  6
 16 57  1  0
 16 58  1  0
 17 59  1  0
 19 60  1  1
 20 61  1  0
 20 62  1  0
 21 63  1  0
 21 64  1  0
 22 65  1  1
 23 66  1  0
 25 67  1  0
 25 68  1  0
 25 69  1  0
 26 70  1  0
 26 71  1  0
 26 72  1  0
 28 73  1  0
 28 74  1  0
 28 75  1  0
 29 76  1  0
 29 77  1  0
 30 78  1  0
 30 79  1  0
 32 80  1  0
 32 81  1  0
 32 82  1  0
M  END
>  <meeko>  (15) 
{"is_sidechain": [false], "intermolecular_energy": 2.731, "internal_energy": -0.839}

$$$$
EPH_relaxed_0001_pdb2pqr_Repair_380_r2_0001_out
     RDKit          3D

 82 86  0  0  0  0  0  0  0  0999 V2000
    2.4980   16.4920   -7.3370 C   0  0  0  0  0  0  0  0  0  0  0  0
    1.5030   15.3370   -7.1960 C   0  0  2  0  0  0  0  0  0  0  0  0
    0.2410   15.5500   -8.0570 C   0  0  0  0  0  0  0  0  0  0  0  0
    0.5290   16.1630   -9.4300 C   0  0  0  0  0  0  0  0  0  0  0  0
    1.9360   15.8980   -9.8720 C   0  0  2  0  0  0  0  0  0  0  0  0
    2.2970   16.5100  -11.1170 O   0  0  0  0  0  0  0  0  0  0  0  0
    2.2870   15.0730  -11.0960 C   0  0  0  0  0  0  0  0  0  0  0  0
    1.2250   14.4590  -11.9540 C   0  0  0  0  0  0  0  0  0  0  0  0
    3.6500   14.4590  -11.1780 C   0  0  0  0  0  0  0  0  0  0  0  0
    1.1130   15.1630   -5.7330 C   0  0  1  0  0  0  0  0  0  0  0  0
   -0.1950   15.9150   -5.3700 C   0  0  0  0  0  0  0  0  0  0  0  0
   -0.9330   15.0470   -4.3180 C   0  0  0  0  0  0  0  0  0  0  0  0
    0.1160   14.0040   -3.8680 C   0  0  1  0  0  0  0  0  0  0  0  0
    0.9980   14.7510   -2.8180 C   0  0  0  0  0  0  0  0  0  0  0  0
   -0.4450   12.6600   -3.2990 C   0  0  2  0  0  0  0  0  0  0  0  0
   -1.2860   12.7950   -2.0180 C   0  0  0  0  0  0  0  0  0  0  0  0
   -0.5220   12.6910   -0.7390 C   0  0  0  0  0  0  0  0  0  0  0  0
    0.7320   12.2170   -0.6140 C   0  0  0  0  0  0  0  0  0  0  0  0
    1.4770   11.6310   -1.8200 C   0  0  1  0  0  0  0  0  0  0  0  0
    2.1430   10.2900   -1.4140 C   0  0  0  0  0  0  0  0  0  0  0  0
    3.0390   10.4290   -0.1870 C   0  0  0  0  0  0  0  0  0  0  0  0
    2.2490   10.9600    1.0070 C   0  0  2  0  0  0  0  0  0  0  0  0
    1.2910    9.9730    1.4020 O   0  0  0  0  0  0  0  0  0  0  0  0
    1.5250   12.3040    0.7140 C   0  0  0  0  0  0  0  0  0  0  0  0
    2.5690   13.4400    0.5830 C   0  0  0  0  0  0  0  0  0  0  0  0
    0.6530   12.6560    1.9490 C   0  0  0  0  0  0  0  0  0  0  0  0
    0.6360   11.5120   -3.1630 C   0  0  1  0  0  0  0  0  0  0  0  0
   -0.1430   10.1620   -3.1860 C   0  0  0  0  0  0  0  0  0  0  0  0
    1.6260   11.4750   -4.3870 C   0  0  0  0  0  0  0  0  0  0  0  0
    2.0490   12.8320   -4.9800 C   0  0  0  0  0  0  0  0  0  0  0  0
    0.8300   13.7220   -5.2400 C   0  0  2  0  0  0  0  0  0  0  0  0
   -0.0650   13.0070   -6.3090 C   0  0  0  0  0  0  0  0  0  0  0  0
    2.7986   16.8410   -6.3381 H   0  0  0  0  0  0  0  0  0  0  0  0
    3.3856   16.1462   -7.8871 H   0  0  0  0  0  0  0  0  0  0  0  0
    2.0247   17.3186   -7.8871 H   0  0  0  0  0  0  0  0  0  0  0  0
    1.9999   14.4251   -7.5588 H   0  0  0  0  0  0  0  0  0  0  0  0
   -0.2456   14.5750   -8.2072 H   0  0  0  0  0  0  0  0  0  0  0  0
   -0.4011   16.2606   -7.5160 H   0  0  0  0  0  0  0  0  0  0  0  0
   -0.1635   15.7291  -10.1663 H   0  0  0  0  0  0  0  0  0  0  0  0
    0.3930   17.2519   -9.3543 H   0  0  0  0  0  0  0  0  0  0  0  0
    2.2806   15.8526   -8.8284 H   0  0  0  0  0  0  0  0  0  0  0  0
    0.4503   14.0111  -11.3143 H   0  0  0  0  0  0  0  0  0  0  0  0
    0.7726   15.2349  -12.5891 H   0  0  0  0  0  0  0  0  0  0  0  0
    1.6717   13.6798  -12.5891 H   0  0  0  0  0  0  0  0  0  0  0  0
    4.0356   14.2853  -10.1625 H   0  0  0  0  0  0  0  0  0  0  0  0
    3.5890   13.5014  -11.7159 H   0  0  0  0  0  0  0  0  0  0  0  0
    4.3268   15.1392  -11.7159 H   0  0  0  0  0  0  0  0  0  0  0  0
    2.0215   15.5542   -5.2517 H   0  0  0  0  0  0  0  0  0  0  0  0
    0.0408   16.9030   -4.9477 H   0  0  0  0  0  0  0  0  0  0  0  0
   -0.8204   16.0723   -6.2611 H   0  0  0  0  0  0  0  0  0  0  0  0
   -1.2589   15.6623   -3.4664 H   0  0  0  0  0  0  0  0  0  0  0  0
   -1.8398   14.5772   -4.7267 H   0  0  0  0  0  0  0  0  0  0  0  0
    0.6730   14.4757   -1.8038 H   0  0  0  0  0  0  0  0  0  0  0  0
    2.0516   14.4664   -2.9553 H   0  0  0  0  0  0  0  0  0  0  0  0
    0.8907   15.8371   -2.9553 H   0  0  0  0  0  0  0  0  0  0  0  0
   -1.1468   12.3453   -4.0854 H   0  0  0  0  0  0  0  0  0  0  0  0
   -1.7818   13.7767   -2.0388 H   0  0  0  0  0  0  0  0  0  0  0  0
   -1.9868   11.9471   -2.0235 H   0  0  0  0  0  0  0  0  0  0  0  0
   -1.0261   13.0301    0.1780 H   0  0  0  0  0  0  0  0  0  0  0  0
    2.2499   12.3665   -2.0876 H   0  0  0  0  0  0  0  0  0  0  0  0
    1.3532    9.5570   -1.1926 H   0  0  0  0  0  0  0  0  0  0  0  0
    2.7748    9.9637   -2.2533 H   0  0  0  0  0  0  0  0  0  0  0  0
    3.4571    9.4438    0.0671 H   0  0  0  0  0  0  0  0  0  0  0  0
    3.8454   11.1402   -0.4193 H   0  0  0  0  0  0  0  0  0  0  0  0
    2.9679   11.1611    1.8150 H   0  0  0  0  0  0  0  0  0  0  0  0
    1.7620    9.1280    1.4970 H   0  0  0  0  0  0  0  0  0  0  0  0
    2.8756   13.7736    1.5854 H   0  0  0  0  0  0  0  0  0  0  0  0
    3.4478   13.0690    0.0353 H   0  0  0  0  0  0  0  0  0  0  0  0
    2.1252   14.2844    0.0353 H   0  0  0  0  0  0  0  0  0  0  0  0
    1.2122   12.4303    2.8690 H   0  0  0  0  0  0  0  0  0  0  0  0
    0.4006   13.7264    1.9266 H   0  0  0  0  0  0  0  0  0  0  0  0
   -0.2717   12.0607    1.9266 H   0  0  0  0  0  0  0  0  0  0  0  0
   -0.3339    9.8312   -2.1544 H   0  0  0  0  0  0  0  0  0  0  0  0
   -1.1003   10.3000   -3.7099 H   0  0  0  0  0  0  0  0  0  0  0  0
    0.4555    9.4022   -3.7099 H   0  0  0  0  0  0  0  0  0  0  0  0
    2.5390   10.9554   -4.0608 H   0  0  0  0  0  0  0  0  0  0  0  0
    1.0703   10.9704   -5.1911 H   0  0  0  0  0  0  0  0  0  0  0  0
    2.7207   13.3400   -4.2724 H   0  0  0  0  0  0  0  0  0  0  0  0
    2.5614   12.6517   -5.9365 H   0  0  0  0  0  0  0  0  0  0  0  0
   -0.8273   12.3980   -5.8009 H   0  0  0  0  0  0  0  0  0  0  0  0
   -0.5586   13.7622   -6.9383 H   0  0  0  0  0  0  0  0  0  0  0  0
    0.5626   12.3588   -6.9383 H   0  0  0  0  0  0  0  0  0  0  0  0
  1  2  1  0
  2  3  1  0
  3  4  1  0
  4  5  1  0
  5  6  1  0
  6  7  1  0
  7  8  1  0
  7  9  1  0
  2 10  1  0
 10 11  1  0
 11 12  1  0
 12 13  1  0
 13 14  1  1
 13 15  1  0
 15 16  1  0
 16 17  1  0
 17 18  2  0
 18 19  1  0
 19 20  1  0
 20 21  1  0
 21 22  1  0
 22 23  1  0
 22 24  1  0
 24 25  1  0
 24 26  1  0
 19 27  1  0
 27 28  1  1
 27 29  1  0
 29 30  1  0
 30 31  1  0
 31 32  1  6
  7  5  1  0
 31 10  1  0
 31 13  1  0
 27 15  1  0
 24 18  1  0
  1 33  1  0
  1 34  1  0
  1 35  1  0
  2 36  1  6
  3 37  1  0
  3 38  1  0
  4 39  1  0
  4 40  1  0
  5 41  1  1
  8 42  1  0
  8 43  1  0
  8 44  1  0
  9 45  1  0
  9 46  1  0
  9 47  1  0
 10 48  1  1
 11 49  1  0
 11 50  1  0
 12 51  1  0
 12 52  1  0
 14 53  1  0
 14 54  1  0
 14 55  1  0
 15 56  1  6
 16 57  1  0
 16 58  1  0
 17 59  1  0
 19 60  1  6
 20 61  1  0
 20 62  1  0
 21 63  1  0
 21 64  1  0
 22 65  1  1
 23 66  1  0
 25 67  1  0
 25 68  1  0
 25 69  1  0
 26 70  1  0
 26 71  1  0
 26 72  1  0
 28 73  1  0
 28 74  1  0
 28 75  1  0
 29 76  1  0
 29 77  1  0
 30 78  1  0
 30 79  1  0
 32 80  1  0
 32 81  1  0
 32 82  1  0
M  END
>  <meeko>  (16) 
{"is_sidechain": [false], "intermolecular_energy": 2.731, "internal_energy": -0.839}

$$$$
EPH_relaxed_0001_pdb2pqr_Repair_380_r2_0001_out
     RDKit          3D

 82 86  0  0  0  0  0  0  0  0999 V2000
    1.7550   18.5510   -2.1050 C   0  0  0  0  0  0  0  0  0  0  0  0
    2.2090   17.4080   -3.0170 C   0  0  2  0  0  0  0  0  0  0  0  0
    1.2400   17.1850   -4.1950 C   0  0  0  0  0  0  0  0  0  0  0  0
    1.6110   15.9920   -5.0800 C   0  0  0  0  0  0  0  0  0  0  0  0
    0.6000   15.7700   -6.1640 C   0  0  2  0  0  0  0  0  0  0  0  0
    0.6090   14.4530   -6.7300 O   0  0  0  0  0  0  0  0  0  0  0  0
    0.9690   15.5260   -7.6150 C   0  0  0  0  0  0  0  0  0  0  0  0
    2.3970   15.4920   -8.0620 C   0  0  0  0  0  0  0  0  0  0  0  0
   -0.0550   15.8060   -8.6710 C   0  0  0  0  0  0  0  0  0  0  0  0
    2.3510   16.1230   -2.2090 C   0  0  1  0  0  0  0  0  0  0  0  0
    2.9600   16.3660   -0.8020 C   0  0  0  0  0  0  0  0  0  0  0  0
    2.2820   15.3570    0.1600 C   0  0  0  0  0  0  0  0  0  0  0  0
    1.5600   14.3550   -0.7720 C   0  0  1  0  0  0  0  0  0  0  0  0
    2.6730   13.3620   -1.2320 C   0  0  0  0  0  0  0  0  0  0  0  0
    0.3330   13.6040   -0.1600 C   0  0  2  0  0  0  0  0  0  0  0  0
    0.6550   12.6990    1.0420 C   0  0  0  0  0  0  0  0  0  0  0  0
    0.9950   11.2850    0.7030 C   0  0  0  0  0  0  0  0  0  0  0  0
    0.7660   10.6880   -0.4810 C   0  0  0  0  0  0  0  0  0  0  0  0
    0.0170   11.4210   -1.6010 C   0  0  1  0  0  0  0  0  0  0  0  0
   -1.0600   10.4810   -2.2050 C   0  0  0  0  0  0  0  0  0  0  0  0
   -0.4800    9.1480   -2.6660 C   0  0  0  0  0  0  0  0  0  0  0  0
    0.2060    8.4230   -1.5120 C   0  0  2  0  0  0  0  0  0  0  0  0
   -0.7850    8.0430   -0.5520 O   0  0  0  0  0  0  0  0  0  0  0  0
    1.3050    9.2760   -0.8190 C   0  0  0  0  0  0  0  0  0  0  0  0
    2.5180    9.4330   -1.7690 C   0  0  0  0  0  0  0  0  0  0  0  0
    1.8180    8.4840    0.4140 C   0  0  0  0  0  0  0  0  0  0  0  0
   -0.5640   12.8520   -1.2260 C   0  0  1  0  0  0  0  0  0  0  0  0
   -1.9790   12.7020   -0.5900 C   0  0  0  0  0  0  0  0  0  0  0  0
   -0.7560   13.6910   -2.5440 C   0  0  0  0  0  0  0  0  0  0  0  0
    0.4570   14.5070   -3.0320 C   0  0  0  0  0  0  0  0  0  0  0  0
    1.0550   15.3360   -1.8910 C   0  0  2  0  0  0  0  0  0  0  0  0
   -0.0350   16.3600   -1.4230 C   0  0  0  0  0  0  0  0  0  0  0  0
    1.8743   18.2506   -1.0536 H   0  0  0  0  0  0  0  0  0  0  0  0
    2.3670   19.4433   -2.3031 H   0  0  0  0  0  0  0  0  0  0  0  0
    0.6975   18.7802   -2.3031 H   0  0  0  0  0  0  0  0  0  0  0  0
    3.1841   17.6905   -3.4406 H   0  0  0  0  0  0  0  0  0  0  0  0
    0.2321   17.0155   -3.7882 H   0  0  0  0  0  0  0  0  0  0  0  0
    1.2916   18.0831   -4.8280 H   0  0  0  0  0  0  0  0  0  0  0  0
    2.5918   16.1813   -5.5407 H   0  0  0  0  0  0  0  0  0  0  0  0
    1.6393   15.0921   -4.4481 H   0  0  0  0  0  0  0  0  0  0  0  0
   -0.0988   16.4744   -5.6890 H   0  0  0  0  0  0  0  0  0  0  0  0
    3.0565   15.4763   -7.1817 H   0  0  0  0  0  0  0  0  0  0  0  0
    2.5706   14.5895   -8.6664 H   0  0  0  0  0  0  0  0  0  0  0  0
    2.6134   16.3852   -8.6664 H   0  0  0  0  0  0  0  0  0  0  0  0
   -1.0112   16.0675   -8.1943 H   0  0  0  0  0  0  0  0  0  0  0  0
    0.2839   16.6445   -9.2972 H   0  0  0  0  0  0  0  0  0  0  0  0
   -0.1899   14.9118   -9.2972 H   0  0  0  0  0  0  0  0  0  0  0  0
    2.9852   15.5430   -2.8955 H   0  0  0  0  0  0  0  0  0  0  0  0
    4.0465   16.1957   -0.8251 H   0  0  0  0  0  0  0  0  0  0  0  0
    2.7899   17.4014   -0.4718 H   0  0  0  0  0  0  0  0  0  0  0  0
    3.0340   14.8421    0.7759 H   0  0  0  0  0  0  0  0  0  0  0  0
    1.5906   15.8482    0.8605 H   0  0  0  0  0  0  0  0  0  0  0  0
    3.1625   12.9253   -0.3490 H   0  0  0  0  0  0  0  0  0  0  0  0
    2.2225   12.5603   -1.8356 H   0  0  0  0  0  0  0  0  0  0  0  0
    3.4184   13.9007   -1.8356 H   0  0  0  0  0  0  0  0  0  0  0  0
   -0.2727   14.4296    0.2418 H   0  0  0  0  0  0  0  0  0  0  0  0
    1.5115   13.1357    1.5764 H   0  0  0  0  0  0  0  0  0  0  0  0
   -0.2643   12.6548    1.6445 H   0  0  0  0  0  0  0  0  0  0  0  0
    1.4731   10.6802    1.4876 H   0  0  0  0  0  0  0  0  0  0  0  0
    0.7720   11.6631   -2.3635 H   0  0  0  0  0  0  0  0  0  0  0  0
   -1.8270   10.2865   -1.4409 H   0  0  0  0  0  0  0  0  0  0  0  0
   -1.4852   10.9831   -3.0865 H   0  0  0  0  0  0  0  0  0  0  0  0
   -1.2928    8.5171   -3.0550 H   0  0  0  0  0  0  0  0  0  0  0  0
    0.2656    9.3425   -3.4510 H   0  0  0  0  0  0  0  0  0  0  0  0
    0.7120    7.5408   -1.9311 H   0  0  0  0  0  0  0  0  0  0  0  0
   -0.3360    7.9190    0.3010 H   0  0  0  0  0  0  0  0  0  0  0  0
    3.4361    9.5518   -1.1749 H   0  0  0  0  0  0  0  0  0  0  0  0
    2.6050    8.5386   -2.4034 H   0  0  0  0  0  0  0  0  0  0  0  0
    2.3744   10.3201   -2.4034 H   0  0  0  0  0  0  0  0  0  0  0  0
    1.4914    8.9882    1.3355 H   0  0  0  0  0  0  0  0  0  0  0  0
    1.4092    7.4631    0.3900 H   0  0  0  0  0  0  0  0  0  0  0  0
    2.9168    8.4396    0.3900 H   0  0  0  0  0  0  0  0  0  0  0  0
   -1.8910   12.7113    0.5064 H   0  0  0  0  0  0  0  0  0  0  0  0
   -2.6170   13.5375   -0.9138 H   0  0  0  0  0  0  0  0  0  0  0  0
   -2.4276   11.7513   -0.9138 H   0  0  0  0  0  0  0  0  0  0  0  0
   -1.0308   12.9910   -3.3468 H   0  0  0  0  0  0  0  0  0  0  0  0
   -1.5256   14.4380   -2.2998 H   0  0  0  0  0  0  0  0  0  0  0  0
    1.2234   13.8177   -3.4160 H   0  0  0  0  0  0  0  0  0  0  0  0
    0.1228   15.1918   -3.8253 H   0  0  0  0  0  0  0  0  0  0  0  0
   -0.0643   16.3875   -0.3237 H   0  0  0  0  0  0  0  0  0  0  0  0
    0.2120   17.3602   -1.8084 H   0  0  0  0  0  0  0  0  0  0  0  0
   -1.0179   16.0510   -1.8084 H   0  0  0  0  0  0  0  0  0  0  0  0
  1  2  1  0
  2  3  1  0
  3  4  1  0
  4  5  1  0
  5  6  1  0
  6  7  1  0
  7  8  1  0
  7  9  1  0
  2 10  1  0
 10 11  1  0
 11 12  1  0
 12 13  1  0
 13 14  1  6
 13 15  1  0
 15 16  1  0
 16 17  1  0
 17 18  2  0
 18 19  1  0
 19 20  1  0
 20 21  1  0
 21 22  1  0
 22 23  1  0
 22 24  1  0
 24 25  1  0
 24 26  1  0
 19 27  1  0
 27 28  1  1
 27 29  1  0
 29 30  1  0
 30 31  1  0
 31 32  1  1
  7  5  1  0
 31 10  1  0
 31 13  1  0
 27 15  1  0
 24 18  1  0
  1 33  1  0
  1 34  1  0
  1 35  1  0
  2 36  1  6
  3 37  1  0
  3 38  1  0
  4 39  1  0
  4 40  1  0
  5 41  1  6
  8 42  1  0
  8 43  1  0
  8 44  1  0
  9 45  1  0
  9 46  1  0
  9 47  1  0
 10 48  1  6
 11 49  1  0
 11 50  1  0
 12 51  1  0
 12 52  1  0
 14 53  1  0
 14 54  1  0
 14 55  1  0
 15 56  1  1
 16 57  1  0
 16 58  1  0
 17 59  1  0
 19 60  1  6
 20 61  1  0
 20 62  1  0
 21 63  1  0
 21 64  1  0
 22 65  1  6
 23 66  1  0
 25 67  1  0
 25 68  1  0
 25 69  1  0
 26 70  1  0
 26 71  1  0
 26 72  1  0
 28 73  1  0
 28 74  1  0
 28 75  1  0
 29 76  1  0
 29 77  1  0
 30 78  1  0
 30 79  1  0
 32 80  1  0
 32 81  1  0
 32 82  1  0
M  END
>  <meeko>  (17) 
{"is_sidechain": [false], "intermolecular_energy": 2.731, "internal_energy": -0.839}

$$$$
EPH_relaxed_0001_pdb2pqr_Repair_380_r2_0001_out
     RDKit          3D

 82 86  0  0  0  0  0  0  0  0999 V2000
    3.2270   11.3120   -4.1760 C   0  0  0  0  0  0  0  0  0  0  0  0
    2.0470   11.7990   -5.0200 C   0  0  2  0  0  0  0  0  0  0  0  0
    2.5070   12.4840   -6.3220 C   0  0  0  0  0  0  0  0  0  0  0  0
    1.8020   13.8150   -6.6000 C   0  0  0  0  0  0  0  0  0  0  0  0
    2.3380   14.4790   -7.8330 C   0  0  2  0  0  0  0  0  0  0  0  0
    2.4350   15.9070   -7.7490 O   0  0  0  0  0  0  0  0  0  0  0  0
    1.5100   15.3900   -8.7190 C   0  0  0  0  0  0  0  0  0  0  0  0
    0.0760   15.6860   -8.4100 C   0  0  0  0  0  0  0  0  0  0  0  0
    1.9440   15.5970  -10.1360 C   0  0  0  0  0  0  0  0  0  0  0  0
    1.1850   12.7560   -4.2050 C   0  0  1  0  0  0  0  0  0  0  0  0
   -0.1820   12.1370   -3.8070 C   0  0  0  0  0  0  0  0  0  0  0  0
   -0.5320   12.6920   -2.4020 C   0  0  0  0  0  0  0  0  0  0  0  0
    0.4640   13.8540   -2.1820 C   0  0  1  0  0  0  0  0  0  0  0  0
   -0.1530   15.0640   -2.9520 C   0  0  0  0  0  0  0  0  0  0  0  0
    0.7830   14.2190   -0.6960 C   0  0  2  0  0  0  0  0  0  0  0  0
   -0.4190   14.7110    0.1280 C   0  0  0  0  0  0  0  0  0  0  0  0
   -0.6440   16.1870    0.1080 C   0  0  0  0  0  0  0  0  0  0  0  0
    0.2460   17.1080   -0.3050 C   0  0  0  0  0  0  0  0  0  0  0  0
    1.6650   16.7020   -0.7220 C   0  0  1  0  0  0  0  0  0  0  0  0
    2.6930   17.6570   -0.0620 C   0  0  0  0  0  0  0  0  0  0  0  0
    2.3970   19.1260   -0.3530 C   0  0  0  0  0  0  0  0  0  0  0  0
    1.0000   19.5070    0.1280 C   0  0  2  0  0  0  0  0  0  0  0  0
    0.9690   19.4360    1.5570 O   0  0  0  0  0  0  0  0  0  0  0  0
   -0.1190   18.6050   -0.4640 C   0  0  0  0  0  0  0  0  0  0  0  0
   -0.2870   18.9070   -1.9730 C   0  0  0  0  0  0  0  0  0  0  0  0
   -1.4600   19.0040    0.2100 C   0  0  0  0  0  0  0  0  0  0  0  0
    2.0350   15.1700   -0.5160 C   0  0  1  0  0  0  0  0  0  0  0  0
    2.5640   14.9410    0.9330 C   0  0  0  0  0  0  0  0  0  0  0  0
    3.2180   14.7920   -1.4850 C   0  0  0  0  0  0  0  0  0  0  0  0
    2.8330   14.3250   -2.9020 C   0  0  0  0  0  0  0  0  0  0  0  0
    1.7510   13.2420   -2.8470 C   0  0  2  0  0  0  0  0  0  0  0  0
    2.3510   12.0040   -2.0970 C   0  0  0  0  0  0  0  0  0  0  0  0
    2.9810   11.4135   -3.1087 H   0  0  0  0  0  0  0  0  0  0  0  0
    3.4314   10.2560   -4.4063 H   0  0  0  0  0  0  0  0  0  0  0  0
    4.1167   11.9164   -4.4063 H   0  0  0  0  0  0  0  0  0  0  0  0
    1.4564   10.9153   -5.3031 H   0  0  0  0  0  0  0  0  0  0  0  0
    3.5886   12.6719   -6.2521 H   0  0  0  0  0  0  0  0  0  0  0  0
    2.2513   11.8059   -7.1495 H   0  0  0  0  0  0  0  0  0  0  0  0
    0.7265   13.6275   -6.7349 H   0  0  0  0  0  0  0  0  0  0  0  0
    1.9812   14.4834   -5.7449 H   0  0  0  0  0  0  0  0  0  0  0  0
    2.9697   13.6069   -8.0573 H   0  0  0  0  0  0  0  0  0  0  0  0
   -0.0656   15.7152   -7.3195 H   0  0  0  0  0  0  0  0  0  0  0  0
   -0.1987   16.6598   -8.8417 H   0  0  0  0  0  0  0  0  0  0  0  0
   -0.5618   14.9006   -8.8417 H   0  0  0  0  0  0  0  0  0  0  0  0
    2.9368   16.0705  -10.1500 H   0  0  0  0  0  0  0  0  0  0  0  0
    1.9938   14.6257  -10.6499 H   0  0  0  0  0  0  0  0  0  0  0  0
    1.2205   16.2470  -10.6499 H   0  0  0  0  0  0  0  0  0  0  0  0
    1.1256   13.5975   -4.9110 H   0  0  0  0  0  0  0  0  0  0  0  0
   -0.9555   12.4283   -4.5329 H   0  0  0  0  0  0  0  0  0  0  0  0
   -0.1300   11.0383   -3.7961 H   0  0  0  0  0  0  0  0  0  0  0  0
   -1.5686   13.0591   -2.3767 H   0  0  0  0  0  0  0  0  0  0  0  0
   -0.4554   11.9232   -1.6190 H   0  0  0  0  0  0  0  0  0  0  0  0
   -0.5302   15.8038   -2.2306 H   0  0  0  0  0  0  0  0  0  0  0  0
    0.6184   15.5283   -3.5839 H   0  0  0  0  0  0  0  0  0  0  0  0
   -0.9819   14.7123   -3.5839 H   0  0  0  0  0  0  0  0  0  0  0  0
    1.0589   13.2437   -0.2685 H   0  0  0  0  0  0  0  0  0  0  0  0
   -1.3233   14.2239   -0.2656 H   0  0  0  0  0  0  0  0  0  0  0  0
   -0.1984   14.4507    1.1737 H   0  0  0  0  0  0  0  0  0  0  0  0
   -1.6198   16.5524    0.4607 H   0  0  0  0  0  0  0  0  0  0  0  0
    1.7040   16.8121   -1.8158 H   0  0  0  0  0  0  0  0  0  0  0  0
    2.6705   17.5016    1.0267 H   0  0  0  0  0  0  0  0  0  0  0  0
    3.6825   17.4256   -0.4832 H   0  0  0  0  0  0  0  0  0  0  0  0
    3.1389   19.7520    0.1644 H   0  0  0  0  0  0  0  0  0  0  0  0
    2.4495   19.2858   -1.4401 H   0  0  0  0  0  0  0  0  0  0  0  0
    0.7977   20.5295   -0.2236 H   0  0  0  0  0  0  0  0  0  0  0  0
    0.5240   20.2370    1.8820 H   0  0  0  0  0  0  0  0  0  0  0  0
   -0.8182   19.8620   -2.0989 H   0  0  0  0  0  0  0  0  0  0  0  0
    0.7038   18.9734   -2.4462 H   0  0  0  0  0  0  0  0  0  0  0  0
   -0.8659   18.1002   -2.4462 H   0  0  0  0  0  0  0  0  0  0  0  0
   -1.3452   18.9698    1.3035 H   0  0  0  0  0  0  0  0  0  0  0  0
   -1.7362   20.0232   -0.0980 H   0  0  0  0  0  0  0  0  0  0  0  0
   -2.2485   18.3015   -0.0980 H   0  0  0  0  0  0  0  0  0  0  0  0
    1.8040   15.2700    1.6570 H   0  0  0  0  0  0  0  0  0  0  0  0
    2.7737   13.8715    1.0820 H   0  0  0  0  0  0  0  0  0  0  0  0
    3.4874   15.5200    1.0820 H   0  0  0  0  0  0  0  0  0  0  0  0
    3.8589   15.6798   -1.5898 H   0  0  0  0  0  0  0  0  0  0  0  0
    3.7061   13.9237   -1.0184 H   0  0  0  0  0  0  0  0  0  0  0  0
    2.4530   15.1847   -3.4734 H   0  0  0  0  0  0  0  0  0  0  0  0
    3.7260   13.9045   -3.3876 H   0  0  0  0  0  0  0  0  0  0  0  0
    2.2749   12.1610   -1.0109 H   0  0  0  0  0  0  0  0  0  0  0  0
    1.7914   11.0992   -2.3768 H   0  0  0  0  0  0  0  0  0  0  0  0
    3.4079   11.8826   -2.3768 H   0  0  0  0  0  0  0  0  0  0  0  0
  1  2  1  0
  2  3  1  0
  3  4  1  0
  4  5  1  0
  5  6  1  0
  6  7  1  0
  7  8  1  0
  7  9  1  0
  2 10  1  0
 10 11  1  0
 11 12  1  0
 12 13  1  0
 13 14  1  6
 13 15  1  0
 15 16  1  0
 16 17  1  0
 17 18  2  0
 18 19  1  0
 19 20  1  0
 20 21  1  0
 21 22  1  0
 22 23  1  0
 22 24  1  0
 24 25  1  0
 24 26  1  0
 19 27  1  0
 27 28  1  1
 27 29  1  0
 29 30  1  0
 30 31  1  0
 31 32  1  1
  7  5  1  0
 31 10  1  0
 31 13  1  0
 27 15  1  0
 24 18  1  0
  1 33  1  0
  1 34  1  0
  1 35  1  0
  2 36  1  6
  3 37  1  0
  3 38  1  0
  4 39  1  0
  4 40  1  0
  5 41  1  6
  8 42  1  0
  8 43  1  0
  8 44  1  0
  9 45  1  0
  9 46  1  0
  9 47  1  0
 10 48  1  6
 11 49  1  0
 11 50  1  0
 12 51  1  0
 12 52  1  0
 14 53  1  0
 14 54  1  0
 14 55  1  0
 15 56  1  1
 16 57  1  0
 16 58  1  0
 17 59  1  0
 19 60  1  6
 20 61  1  0
 20 62  1  0
 21 63  1  0
 21 64  1  0
 22 65  1  1
 23 66  1  0
 25 67  1  0
 25 68  1  0
 25 69  1  0
 26 70  1  0
 26 71  1  0
 26 72  1  0
 28 73  1  0
 28 74  1  0
 28 75  1  0
 29 76  1  0
 29 77  1  0
 30 78  1  0
 30 79  1  0
 32 80  1  0
 32 81  1  0
 32 82  1  0
M  END
>  <meeko>  (18) 
{"is_sidechain": [false], "intermolecular_energy": 2.731, "internal_energy": -0.839}

$$$$
EPH_relaxed_0001_pdb2pqr_Repair_380_r2_0001_out
     RDKit          3D

 82 86  0  0  0  0  0  0  0  0999 V2000
    3.2750   17.6940   -0.5590 C   0  0  0  0  0  0  0  0  0  0  0  0
    2.3960   17.2780   -1.7430 C   0  0  2  0  0  0  0  0  0  0  0  0
    0.9440   17.7730   -1.5890 C   0  0  0  0  0  0  0  0  0  0  0  0
    0.7320   18.6960   -0.3860 C   0  0  0  0  0  0  0  0  0  0  0  0
   -0.4410   19.6080   -0.5870 C   0  0  2  0  0  0  0  0  0  0  0  0
   -0.9620   20.1860    0.6170 O   0  0  0  0  0  0  0  0  0  0  0  0
   -1.8390   19.2930   -0.0880 C   0  0  0  0  0  0  0  0  0  0  0  0
   -2.1380   18.0260    0.6490 C   0  0  0  0  0  0  0  0  0  0  0  0
   -3.0010   19.9780   -0.7380 C   0  0  0  0  0  0  0  0  0  0  0  0
    2.4160   15.7620   -1.8980 C   0  0  1  0  0  0  0  0  0  0  0  0
    3.8550   15.1910   -1.9970 C   0  0  0  0  0  0  0  0  0  0  0  0
    3.8400   13.8130   -1.2860 C   0  0  0  0  0  0  0  0  0  0  0  0
    2.3400   13.4890   -1.0960 C   0  0  1  0  0  0  0  0  0  0  0  0
    1.8740   12.9240   -2.4750 C   0  0  0  0  0  0  0  0  0  0  0  0
    1.9860   12.5160    0.0750 C   0  0  2  0  0  0  0  0  0  0  0  0
    2.5730   11.1000   -0.0530 C   0  0  0  0  0  0  0  0  0  0  0  0
    1.7060   10.1120   -0.7610 C   0  0  0  0  0  0  0  0  0  0  0  0
    0.3950   10.2680   -1.0230 C   0  0  0  0  0  0  0  0  0  0  0  0
   -0.3710   11.4930   -0.5060 C   0  0  1  0  0  0  0  0  0  0  0  0
   -1.7130   11.0370    0.1250 C   0  0  0  0  0  0  0  0  0  0  0  0
   -2.5480   10.1860   -0.8270 C   0  0  0  0  0  0  0  0  0  0  0  0
   -1.7740    8.9480   -1.2720 C   0  0  2  0  0  0  0  0  0  0  0  0
   -1.5800    8.0930   -0.1410 O   0  0  0  0  0  0  0  0  0  0  0  0
   -0.3990    9.2830   -1.9150 C   0  0  0  0  0  0  0  0  0  0  0  0
   -0.6190    9.9470   -3.2970 C   0  0  0  0  0  0  0  0  0  0  0  0
    0.3390    7.9440   -2.1900 C   0  0  0  0  0  0  0  0  0  0  0  0
    0.4470   12.4740    0.4400 C   0  0  1  0  0  0  0  0  0  0  0  0
    0.3530   11.9870    1.9190 C   0  0  0  0  0  0  0  0  0  0  0  0
   -0.2180   13.9010    0.3990 C   0  0  0  0  0  0  0  0  0  0  0  0
    0.2600   14.8580   -0.7090 C   0  0  0  0  0  0  0  0  0  0  0  0
    1.7900   14.9220   -0.7560 C   0  0  2  0  0  0  0  0  0  0  0  0
    2.2870   15.5080    0.6090 C   0  0  0  0  0  0  0  0  0  0  0  0
    2.7610   17.4507    0.3826 H   0  0  0  0  0  0  0  0  0  0  0  0
    4.2318   17.1532   -0.6048 H   0  0  0  0  0  0  0  0  0  0  0  0
    3.4633   18.7768   -0.6048 H   0  0  0  0  0  0  0  0  0  0  0  0
    2.8117   17.7490   -2.6459 H   0  0  0  0  0  0  0  0  0  0  0  0
    0.6658   18.3217   -2.5009 H   0  0  0  0  0  0  0  0  0  0  0  0
    0.3172   16.8839   -1.4260 H   0  0  0  0  0  0  0  0  0  0  0  0
    0.5561   18.0808    0.5088 H   0  0  0  0  0  0  0  0  0  0  0  0
    1.6324   19.3165   -0.2668 H   0  0  0  0  0  0  0  0  0  0  0  0
   -0.0614   19.9198   -1.5712 H   0  0  0  0  0  0  0  0  0  0  0  0
   -2.0939   18.2127    1.7321 H   0  0  0  0  0  0  0  0  0  0  0  0
   -3.1441   17.6731    0.3784 H   0  0  0  0  0  0  0  0  0  0  0  0
   -1.3958   17.2605    0.3784 H   0  0  0  0  0  0  0  0  0  0  0  0
   -3.6734   20.3744    0.0371 H   0  0  0  0  0  0  0  0  0  0  0  0
   -2.6355   20.8051   -1.3643 H   0  0  0  0  0  0  0  0  0  0  0  0
   -3.5477   19.2577   -1.3643 H   0  0  0  0  0  0  0  0  0  0  0  0
    1.8133   15.6621   -2.8127 H   0  0  0  0  0  0  0  0  0  0  0  0
    4.1426   15.0698   -3.0518 H   0  0  0  0  0  0  0  0  0  0  0  0
    4.5822   15.8697   -1.5273 H   0  0  0  0  0  0  0  0  0  0  0  0
    4.3265   13.0487   -1.9099 H   0  0  0  0  0  0  0  0  0  0  0  0
    4.3875   13.8296   -0.3321 H   0  0  0  0  0  0  0  0  0  0  0  0
    1.1818   12.0847   -2.3124 H   0  0  0  0  0  0  0  0  0  0  0  0
    1.3631   13.7161   -3.0421 H   0  0  0  0  0  0  0  0  0  0  0  0
    2.7488   12.5731   -3.0421 H   0  0  0  0  0  0  0  0  0  0  0  0
    2.5036   12.9769    0.9292 H   0  0  0  0  0  0  0  0  0  0  0  0
    3.5228   11.1742   -0.6028 H   0  0  0  0  0  0  0  0  0  0  0  0
    2.6870   10.7237    0.9743 H   0  0  0  0  0  0  0  0  0  0  0  0
    2.1787    9.1773   -1.0970 H   0  0  0  0  0  0  0  0  0  0  0  0
   -0.5681   12.1221   -1.3866 H   0  0  0  0  0  0  0  0  0  0  0  0
   -1.4957   10.4465    1.0273 H   0  0  0  0  0  0  0  0  0  0  0  0
   -2.2942   11.9402    0.3624 H   0  0  0  0  0  0  0  0  0  0  0  0
   -3.4686    9.8702   -0.3144 H   0  0  0  0  0  0  0  0  0  0  0  0
   -2.7900   10.7874   -1.7156 H   0  0  0  0  0  0  0  0  0  0  0  0
   -2.3709    8.4487   -2.0495 H   0  0  0  0  0  0  0  0  0  0  0  0
   -0.6980    7.6930   -0.2210 H   0  0  0  0  0  0  0  0  0  0  0  0
   -0.9621   10.9825   -3.1558 H   0  0  0  0  0  0  0  0  0  0  0  0
    0.3270    9.9475   -3.8583 H   0  0  0  0  0  0  0  0  0  0  0  0
   -1.3781    9.3825   -3.8583 H   0  0  0  0  0  0  0  0  0  0  0  0
    0.6018    7.4672   -1.2342 H   0  0  0  0  0  0  0  0  0  0  0  0
   -0.3177    7.2748   -2.7653 H   0  0  0  0  0  0  0  0  0  0  0  0
    1.2555    8.1419   -2.7653 H   0  0  0  0  0  0  0  0  0  0  0  0
    0.5173   12.8380    2.5964 H   0  0  0  0  0  0  0  0  0  0  0  0
   -0.6441   11.5600    2.1018 H   0  0  0  0  0  0  0  0  0  0  0  0
    1.1196   11.2196    2.1018 H   0  0  0  0  0  0  0  0  0  0  0  0
   -1.3015   13.7598    0.2722 H   0  0  0  0  0  0  0  0  0  0  0  0
    0.0766   14.3832    1.3428 H   0  0  0  0  0  0  0  0  0  0  0  0
   -0.1152   14.5009   -1.6794 H   0  0  0  0  0  0  0  0  0  0  0  0
   -0.1267   15.8650   -0.4935 H   0  0  0  0  0  0  0  0  0  0  0  0
    1.8188   14.9559    1.4372 H   0  0  0  0  0  0  0  0  0  0  0  0
    3.3806   15.4089    0.6742 H   0  0  0  0  0  0  0  0  0  0  0  0
    2.0107   16.5707    0.6742 H   0  0  0  0  0  0  0  0  0  0  0  0
  1  2  1  0
  2  3  1  0
  3  4  1  0
  4  5  1  0
  5  6  1  0
  6  7  1  0
  7  8  1  0
  7  9  1  0
  2 10  1  0
 10 11  1  0
 11 12  1  0
 12 13  1  0
 13 14  1  6
 13 15  1  0
 15 16  1  0
 16 17  1  0
 17 18  2  0
 18 19  1  0
 19 20  1  0
 20 21  1  0
 21 22  1  0
 22 23  1  0
 22 24  1  0
 24 25  1  0
 24 26  1  0
 19 27  1  0
 27 28  1  1
 27 29  1  0
 29 30  1  0
 30 31  1  0
 31 32  1  1
  7  5  1  0
 31 10  1  0
 31 13  1  0
 27 15  1  0
 24 18  1  0
  1 33  1  0
  1 34  1  0
  1 35  1  0
  2 36  1  6
  3 37  1  0
  3 38  1  0
  4 39  1  0
  4 40  1  0
  5 41  1  6
  8 42  1  0
  8 43  1  0
  8 44  1  0
  9 45  1  0
  9 46  1  0
  9 47  1  0
 10 48  1  6
 11 49  1  0
 11 50  1  0
 12 51  1  0
 12 52  1  0
 14 53  1  0
 14 54  1  0
 14 55  1  0
 15 56  1  1
 16 57  1  0
 16 58  1  0
 17 59  1  0
 19 60  1  6
 20 61  1  0
 20 62  1  0
 21 63  1  0
 21 64  1  0
 22 65  1  6
 23 66  1  0
 25 67  1  0
 25 68  1  0
 25 69  1  0
 26 70  1  0
 26 71  1  0
 26 72  1  0
 28 73  1  0
 28 74  1  0
 28 75  1  0
 29 76  1  0
 29 77  1  0
 30 78  1  0
 30 79  1  0
 32 80  1  0
 32 81  1  0
 32 82  1  0
M  END
>  <meeko>  (19) 
{"is_sidechain": [false], "intermolecular_energy": 2.731, "internal_energy": -0.839}

$$$$
EPH_relaxed_0001_pdb2pqr_Repair_380_r2_0001_out
     RDKit          3D

 82 86  0  0  0  0  0  0  0  0999 V2000
    0.2630   10.2420   -4.0620 C   0  0  0  0  0  0  0  0  0  0  0  0
    1.6810   10.8150   -3.9890 C   0  0  2  0  0  0  0  0  0  0  0  0
    2.4330   10.3460   -2.7280 C   0  0  0  0  0  0  0  0  0  0  0  0
    1.6300    9.3760   -1.8570 C   0  0  0  0  0  0  0  0  0  0  0  0
    1.5120    9.8650   -0.4450 C   0  0  2  0  0  0  0  0  0  0  0  0
    1.0200    8.8930    0.4860 O   0  0  0  0  0  0  0  0  0  0  0  0
    0.1860   10.0430    0.2700 C   0  0  0  0  0  0  0  0  0  0  0  0
   -1.1130    9.7360   -0.4060 C   0  0  0  0  0  0  0  0  0  0  0  0
    0.1250   10.9720    1.4430 C   0  0  0  0  0  0  0  0  0  0  0  0
    1.6280   12.3380   -4.0290 C   0  0  1  0  0  0  0  0  0  0  0  0
    0.7730   12.8760   -5.2060 C   0  0  0  0  0  0  0  0  0  0  0  0
    0.0740   14.1640   -4.7000 C   0  0  0  0  0  0  0  0  0  0  0  0
    0.7990   14.5070   -3.3770 C   0  0  1  0  0  0  0  0  0  0  0  0
    2.1070   15.2380   -3.8150 C   0  0  0  0  0  0  0  0  0  0  0  0
   -0.0140   15.3500   -2.3420 C   0  0  2  0  0  0  0  0  0  0  0  0
   -0.4210   16.7550   -2.8200 C   0  0  0  0  0  0  0  0  0  0  0  0
    0.5570   17.8400   -2.5130 C   0  0  0  0  0  0  0  0  0  0  0  0
    1.5750   17.7520   -1.6370 C   0  0  0  0  0  0  0  0  0  0  0  0
    1.7630   16.4980   -0.7730 C   0  0  1  0  0  0  0  0  0  0  0  0
    2.0300   16.9180    0.6960 C   0  0  0  0  0  0  0  0  0  0  0  0
    3.1950   17.8950    0.8240 C   0  0  0  0  0  0  0  0  0  0  0  0
    2.9440   19.1530   -0.0030 C   0  0  2  0  0  0  0  0  0  0  0  0
    1.8430   19.8680    0.5670 O   0  0  0  0  0  0  0  0  0  0  0  0
    2.6530   18.8550   -1.5010 C   0  0  0  0  0  0  0  0  0  0  0  0
    3.9470   18.3580   -2.1930 C   0  0  0  0  0  0  0  0  0  0  0  0
    2.2790   20.1940   -2.1910 C   0  0  0  0  0  0  0  0  0  0  0  0
    0.6270   15.3940   -0.8960 C   0  0  1  0  0  0  0  0  0  0  0  0
   -0.5330   15.7120    0.0960 C   0  0  0  0  0  0  0  0  0  0  0  0
    1.2150   14.0010   -0.4590 C   0  0  0  0  0  0  0  0  0  0  0  0
    1.9010   13.1620   -1.5540 C   0  0  0  0  0  0  0  0  0  0  0  0
    1.0180   13.0610   -2.8010 C   0  0  2  0  0  0  0  0  0  0  0  0
   -0.2960   12.3100   -2.3970 C   0  0  0  0  0  0  0  0  0  0  0  0
   -0.1224   10.0863   -3.0436 H   0  0  0  0  0  0  0  0  0  0  0  0
   -0.3902   10.9468   -4.5974 H   0  0  0  0  0  0  0  0  0  0  0  0
    0.2828    9.2813   -4.5974 H   0  0  0  0  0  0  0  0  0  0  0  0
    2.2355   10.4392   -4.8615 H   0  0  0  0  0  0  0  0  0  0  0  0
    3.3597    9.8440   -3.0430 H   0  0  0  0  0  0  0  0  0  0  0  0
    2.6265   11.2407   -2.1180 H   0  0  0  0  0  0  0  0  0  0  0  0
    0.6212    9.2672   -2.2819 H   0  0  0  0  0  0  0  0  0  0  0  0
    2.1583    8.4113   -1.8423 H   0  0  0  0  0  0  0  0  0  0  0  0
    2.3731   10.5359   -0.5804 H   0  0  0  0  0  0  0  0  0  0  0  0
   -1.8873    9.5530    0.3535 H   0  0  0  0  0  0  0  0  0  0  0  0
   -1.4099   10.5887   -1.0343 H   0  0  0  0  0  0  0  0  0  0  0  0
   -0.9968    8.8406   -1.0343 H   0  0  0  0  0  0  0  0  0  0  0  0
    0.1633   10.3889    2.3749 H   0  0  0  0  0  0  0  0  0  0  0  0
    0.9797   11.6636    1.4078 H   0  0  0  0  0  0  0  0  0  0  0  0
   -0.8128   11.5459    1.4078 H   0  0  0  0  0  0  0  0  0  0  0  0
    2.7036   12.5576   -4.0995 H   0  0  0  0  0  0  0  0  0  0  0  0
    1.4172   13.1080   -6.0669 H   0  0  0  0  0  0  0  0  0  0  0  0
    0.0348   12.1283   -5.5316 H   0  0  0  0  0  0  0  0  0  0  0  0
    0.1888   14.9800   -5.4286 H   0  0  0  0  0  0  0  0  0  0  0  0
   -1.0078   14.0237   -4.5588 H   0  0  0  0  0  0  0  0  0  0  0  0
    2.6682   15.5516   -2.9224 H   0  0  0  0  0  0  0  0  0  0  0  0
    2.7254   14.5547   -4.4156 H   0  0  0  0  0  0  0  0  0  0  0  0
    1.8491   16.1227   -4.4156 H   0  0  0  0  0  0  0  0  0  0  0  0
   -0.9514   14.7805   -2.2583 H   0  0  0  0  0  0  0  0  0  0  0  0
   -0.5557   16.7173   -3.9111 H   0  0  0  0  0  0  0  0  0  0  0  0
   -1.3401   17.0091   -2.2717 H   0  0  0  0  0  0  0  0  0  0  0  0
    0.4353   18.7931   -3.0485 H   0  0  0  0  0  0  0  0  0  0  0  0
    2.6433   15.9778   -1.1786 H   0  0  0  0  0  0  0  0  0  0  0  0
    1.1237   17.3960    1.0961 H   0  0  0  0  0  0  0  0  0  0  0  0
    2.2925   16.0106    1.2597 H   0  0  0  0  0  0  0  0  0  0  0  0
    3.3146   18.1765    1.8806 H   0  0  0  0  0  0  0  0  0  0  0  0
    4.1069   17.4055    0.4513 H   0  0  0  0  0  0  0  0  0  0  0  0
    3.8652   19.7535    0.0241 H   0  0  0  0  0  0  0  0  0  0  0  0
    1.0640   19.2890    0.5260 H   0  0  0  0  0  0  0  0  0  0  0  0
    4.6857   18.0743   -1.4289 H   0  0  0  0  0  0  0  0  0  0  0  0
    3.7150   17.4850   -2.8207 H   0  0  0  0  0  0  0  0  0  0  0  0
    4.3591   19.1618   -2.8207 H   0  0  0  0  0  0  0  0  0  0  0  0
    2.0666   20.9544   -1.4250 H   0  0  0  0  0  0  0  0  0  0  0  0
    3.1177   20.5299   -2.8185 H   0  0  0  0  0  0  0  0  0  0  0  0
    1.3876   20.0467   -2.8185 H   0  0  0  0  0  0  0  0  0  0  0  0
   -0.1694   15.6123    1.1294 H   0  0  0  0  0  0  0  0  0  0  0  0
   -0.8865   16.7402   -0.0707 H   0  0  0  0  0  0  0  0  0  0  0  0
   -1.3615   15.0078   -0.0707 H   0  0  0  0  0  0  0  0  0  0  0  0
    1.9567   14.1863    0.3319 H   0  0  0  0  0  0  0  0  0  0  0  0
    0.3442   13.4070   -0.1445 H   0  0  0  0  0  0  0  0  0  0  0  0
    2.8552   13.6368   -1.8262 H   0  0  0  0  0  0  0  0  0  0  0  0
    2.0730   12.1483   -1.1630 H   0  0  0  0  0  0  0  0  0  0  0  0
   -0.3713   12.2669   -1.3004 H   0  0  0  0  0  0  0  0  0  0  0  0
   -1.1654   12.8476   -2.8034 H   0  0  0  0  0  0  0  0  0  0  0  0
   -0.2740   11.2881   -2.8034 H   0  0  0  0  0  0  0  0  0  0  0  0
  1  2  1  0
  2  3  1  0
  3  4  1  0
  4  5  1  0
  5  6  1  0
  6  7  1  0
  7  8  1  0
  7  9  1  0
  2 10  1  0
 10 11  1  0
 11 12  1  0
 12 13  1  0
 13 14  1  6
 13 15  1  0
 15 16  1  0
 16 17  1  0
 17 18  2  0
 18 19  1  0
 19 20  1  0
 20 21  1  0
 21 22  1  0
 22 23  1  0
 22 24  1  0
 24 25  1  0
 24 26  1  0
 19 27  1  0
 27 28  1  1
 27 29  1  0
 29 30  1  0
 30 31  1  0
 31 32  1  1
  7  5  1  0
 31 10  1  0
 31 13  1  0
 27 15  1  0
 24 18  1  0
  1 33  1  0
  1 34  1  0
  1 35  1  0
  2 36  1  6
  3 37  1  0
  3 38  1  0
  4 39  1  0
  4 40  1  0
  5 41  1  1
  8 42  1  0
  8 43  1  0
  8 44  1  0
  9 45  1  0
  9 46  1  0
  9 47  1  0
 10 48  1  6
 11 49  1  0
 11 50  1  0
 12 51  1  0
 12 52  1  0
 14 53  1  0
 14 54  1  0
 14 55  1  0
 15 56  1  1
 16 57  1  0
 16 58  1  0
 17 59  1  0
 19 60  1  6
 20 61  1  0
 20 62  1  0
 21 63  1  0
 21 64  1  0
 22 65  1  6
 23 66  1  0
 25 67  1  0
 25 68  1  0
 25 69  1  0
 26 70  1  0
 26 71  1  0
 26 72  1  0
 28 73  1  0
 28 74  1  0
 28 75  1  0
 29 76  1  0
 29 77  1  0
 30 78  1  0
 30 79  1  0
 32 80  1  0
 32 81  1  0
 32 82  1  0
M  END
>  <meeko>  (20) 
{"is_sidechain": [false], "intermolecular_energy": 2.731, "internal_energy": -0.839}

$$$$
