EPH_relaxed_0001_pdb2pqr_Repair_324_r2_0001_out
     RDKit          3D

 82 86  0  0  0  0  0  0  0  0999 V2000
    4.5660   18.0950   -0.7630 C   0  0  0  0  0  0  0  0  0  0  0  0
    3.1860   18.6030   -0.3350 C   0  0  2  0  0  0  0  0  0  0  0  0
    3.1760   19.0940    1.1260 C   0  0  0  0  0  0  0  0  0  0  0  0
    4.3870   18.6320    1.9400 C   0  0  0  0  0  0  0  0  0  0  0  0
    4.4200   19.2690    3.2960 C   0  0  2  0  0  0  0  0  0  0  0  0
    5.5010   20.1890    3.4990 O   0  0  0  0  0  0  0  0  0  0  0  0
    5.5120   19.0080    4.3160 C   0  0  0  0  0  0  0  0  0  0  0  0
    6.6470   18.0770    4.0240 C   0  0  0  0  0  0  0  0  0  0  0  0
    5.2200   19.2710    5.7610 C   0  0  0  0  0  0  0  0  0  0  0  0
    2.1470   17.5040   -0.5230 C   0  0  1  0  0  0  0  0  0  0  0  0
    0.8330   18.0270   -1.1620 C   0  0  0  0  0  0  0  0  0  0  0  0
    0.2940   16.8920   -2.0700 C   0  0  0  0  0  0  0  0  0  0  0  0
    1.1230   15.6480   -1.6720 C   0  0  1  0  0  0  0  0  0  0  0  0
    0.4390   15.1080   -0.3770 C   0  0  0  0  0  0  0  0  0  0  0  0
    1.2610   14.5330   -2.7600 C   0  0  2  0  0  0  0  0  0  0  0  0
   -0.0610   13.8730   -3.1900 C   0  0  0  0  0  0  0  0  0  0  0  0
   -0.4560   12.6660   -2.4050 C   0  0  0  0  0  0  0  0  0  0  0  0
    0.3520   11.9650   -1.5880 C   0  0  0  0  0  0  0  0  0  0  0  0
    1.8410   12.3130   -1.4650 C   0  0  1  0  0  0  0  0  0  0  0  0
    2.6850   11.0140   -1.5510 C   0  0  0  0  0  0  0  0  0  0  0  0
    2.2450    9.9630   -0.5370 C   0  0  0  0  0  0  0  0  0  0  0  0
    0.7750    9.6010   -0.7290 C   0  0  2  0  0  0  0  0  0  0  0  0
    0.6240    8.9360   -1.9870 O   0  0  0  0  0  0  0  0  0  0  0  0
   -0.1720   10.8320   -0.6710 C   0  0  0  0  0  0  0  0  0  0  0  0
   -0.2370   11.3720    0.7790 C   0  0  0  0  0  0  0  0  0  0  0  0
   -1.6050   10.3490   -1.0200 C   0  0  0  0  0  0  0  0  0  0  0  0
    2.3700   13.4500   -2.4410 C   0  0  1  0  0  0  0  0  0  0  0  0
    2.7890   12.8270   -3.8070 C   0  0  0  0  0  0  0  0  0  0  0  0
    3.6710   14.0900   -1.8270 C   0  0  0  0  0  0  0  0  0  0  0  0
    3.4740   15.2650   -0.8510 C   0  0  0  0  0  0  0  0  0  0  0  0
    2.5270   16.3150   -1.4410 C   0  0  2  0  0  0  0  0  0  0  0  0
    3.1990   16.8920   -2.7340 C   0  0  0  0  0  0  0  0  0  0  0  0
    5.1684   17.8733    0.1303 H   0  0  0  0  0  0  0  0  0  0  0  0
    4.4501   17.1806   -1.3634 H   0  0  0  0  0  0  0  0  0  0  0  0
    5.0707   18.8663   -1.3634 H   0  0  0  0  0  0  0  0  0  0  0  0
    2.9367   19.4632   -0.9736 H   0  0  0  0  0  0  0  0  0  0  0  0
    3.1594   20.1939    1.1224 H   0  0  0  0  0  0  0  0  0  0  0  0
    2.2844   18.6617    1.6037 H   0  0  0  0  0  0  0  0  0  0  0  0
    4.3396   17.5396    2.0605 H   0  0  0  0  0  0  0  0  0  0  0  0
    5.2973   18.9302    1.3992 H   0  0  0  0  0  0  0  0  0  0  0  0
    3.3227   19.2354    3.3647 H   0  0  0  0  0  0  0  0  0  0  0  0
    7.0815   17.7206    4.9696 H   0  0  0  0  0  0  0  0  0  0  0  0
    6.2772   17.2187    3.4439 H   0  0  0  0  0  0  0  0  0  0  0  0
    7.4164   18.6075    3.4439 H   0  0  0  0  0  0  0  0  0  0  0  0
    5.8921   18.6657    6.3870 H   0  0  0  0  0  0  0  0  0  0  0  0
    5.3778   20.3376    5.9787 H   0  0  0  0  0  0  0  0  0  0  0  0
    4.1756   19.0029    5.9787 H   0  0  0  0  0  0  0  0  0  0  0  0
    2.0521   17.1605    0.5177 H   0  0  0  0  0  0  0  0  0  0  0  0
    0.0993   18.2654   -0.3779 H   0  0  0  0  0  0  0  0  0  0  0  0
    1.0138   18.9442   -1.7418 H   0  0  0  0  0  0  0  0  0  0  0  0
   -0.7766   16.7211   -1.8841 H   0  0  0  0  0  0  0  0  0  0  0  0
    0.3888   17.1322   -3.1393 H   0  0  0  0  0  0  0  0  0  0  0  0
    0.9536   15.5143    0.5062 H   0  0  0  0  0  0  0  0  0  0  0  0
   -0.6159   15.4195   -0.3623 H   0  0  0  0  0  0  0  0  0  0  0  0
    0.4972   14.0096   -0.3623 H   0  0  0  0  0  0  0  0  0  0  0  0
    1.6103   15.1002   -3.6354 H   0  0  0  0  0  0  0  0  0  0  0  0
   -0.8621   14.6203   -3.0906 H   0  0  0  0  0  0  0  0  0  0  0  0
    0.0933   13.5273   -4.2228 H   0  0  0  0  0  0  0  0  0  0  0  0
   -1.4957   12.3202   -2.5026 H   0  0  0  0  0  0  0  0  0  0  0  0
    1.9649   12.7738   -0.4739 H   0  0  0  0  0  0  0  0  0  0  0  0
    2.5826   10.5932   -2.5621 H   0  0  0  0  0  0  0  0  0  0  0  0
    3.7289   11.2784   -1.3266 H   0  0  0  0  0  0  0  0  0  0  0  0
    2.8582    9.0590   -0.6666 H   0  0  0  0  0  0  0  0  0  0  0  0
    2.3757   10.3750    0.4745 H   0  0  0  0  0  0  0  0  0  0  0  0
    0.4858    8.9439    0.1044 H   0  0  0  0  0  0  0  0  0  0  0  0
    1.5080    8.6560   -2.2800 H   0  0  0  0  0  0  0  0  0  0  0  0
   -0.1363   10.5358    1.4865 H   0  0  0  0  0  0  0  0  0  0  0  0
    0.5813   12.0892    0.9402 H   0  0  0  0  0  0  0  0  0  0  0  0
   -1.2021   11.8746    0.9402 H   0  0  0  0  0  0  0  0  0  0  0  0
   -2.1646   10.1604   -0.0919 H   0  0  0  0  0  0  0  0  0  0  0  0
   -2.1199   11.1232   -1.6077 H   0  0  0  0  0  0  0  0  0  0  0  0
   -1.5462    9.4210   -1.6077 H   0  0  0  0  0  0  0  0  0  0  0  0
    3.3948   11.9263   -3.6288 H   0  0  0  0  0  0  0  0  0  0  0  0
    1.8887   12.5563   -4.3781 H   0  0  0  0  0  0  0  0  0  0  0  0
    3.3792   13.5588   -4.3781 H   0  0  0  0  0  0  0  0  0  0  0  0
    4.2094   13.2966   -1.2879 H   0  0  0  0  0  0  0  0  0  0  0  0
    4.2136   14.5160   -2.6838 H   0  0  0  0  0  0  0  0  0  0  0  0
    3.0484   14.8844    0.0892 H   0  0  0  0  0  0  0  0  0  0  0  0
    4.4508   15.7368   -0.6683 H   0  0  0  0  0  0  0  0  0  0  0  0
    4.0054   17.5844   -2.4504 H   0  0  0  0  0  0  0  0  0  0  0  0
    3.6167   16.0669   -3.3295 H   0  0  0  0  0  0  0  0  0  0  0  0
    2.4466   17.4297   -3.3295 H   0  0  0  0  0  0  0  0  0  0  0  0
  1  2  1  0
  2  3  1  0
  3  4  1  0
  4  5  1  0
  5  6  1  0
  6  7  1  0
  7  8  1  0
  7  9  1  0
  2 10  1  0
 10 11  1  0
 11 12  1  0
 12 13  1  0
 13 14  1  1
 13 15  1  0
 15 16  1  0
 16 17  1  0
 17 18  2  0
 18 19  1  0
 19 20  1  0
 20 21  1  0
 21 22  1  0
 22 23  1  0
 22 24  1  0
 24 25  1  0
 24 26  1  0
 19 27  1  0
 27 28  1  6
 27 29  1  0
 29 30  1  0
 30 31  1  0
 31 32  1  6
  7  5  1  0
 31 10  1  0
 31 13  1  0
 27 15  1  0
 24 18  1  0
  1 33  1  0
  1 34  1  0
  1 35  1  0
  2 36  1  6
  3 37  1  0
  3 38  1  0
  4 39  1  0
  4 40  1  0
  5 41  1  1
  8 42  1  0
  8 43  1  0
  8 44  1  0
  9 45  1  0
  9 46  1  0
  9 47  1  0
 10 48  1  1
 11 49  1  0
 11 50  1  0
 12 51  1  0
 12 52  1  0
 14 53  1  0
 14 54  1  0
 14 55  1  0
 15 56  1  6
 16 57  1  0
 16 58  1  0
 17 59  1  0
 19 60  1  1
 20 61  1  0
 20 62  1  0
 21 63  1  0
 21 64  1  0
 22 65  1  1
 23 66  1  0
 25 67  1  0
 25 68  1  0
 25 69  1  0
 26 70  1  0
 26 71  1  0
 26 72  1  0
 28 73  1  0
 28 74  1  0
 28 75  1  0
 29 76  1  0
 29 77  1  0
 30 78  1  0
 30 79  1  0
 32 80  1  0
 32 81  1  0
 32 82  1  0
M  END
>  <meeko>  (1) 
{"is_sidechain": [false], "intermolecular_energy": 2.731, "internal_energy": -0.839}

$$$$
EPH_relaxed_0001_pdb2pqr_Repair_324_r2_0001_out
     RDKit          3D

 82 86  0  0  0  0  0  0  0  0999 V2000
    4.2150   18.3540   -0.0150 C   0  0  0  0  0  0  0  0  0  0  0  0
    3.0260   18.8260   -0.8560 C   0  0  2  0  0  0  0  0  0  0  0  0
    2.2990   20.0240   -0.2130 C   0  0  0  0  0  0  0  0  0  0  0  0
    1.2020   19.6190    0.7760 C   0  0  0  0  0  0  0  0  0  0  0  0
   -0.1310   20.1850    0.3890 C   0  0  2  0  0  0  0  0  0  0  0  0
   -1.1070   20.1910    1.4380 O   0  0  0  0  0  0  0  0  0  0  0  0
   -1.3990   19.3560    0.3060 C   0  0  0  0  0  0  0  0  0  0  0  0
   -1.3960   17.8920    0.6130 C   0  0  0  0  0  0  0  0  0  0  0  0
   -2.5290   19.8590   -0.5380 C   0  0  0  0  0  0  0  0  0  0  0  0
    2.0490   17.6750   -1.0660 C   0  0  1  0  0  0  0  0  0  0  0  0
    0.8380   18.0740   -1.9500 C   0  0  0  0  0  0  0  0  0  0  0  0
    0.4660   16.8240   -2.7890 C   0  0  0  0  0  0  0  0  0  0  0  0
    1.2480   15.6640   -2.1290 C   0  0  1  0  0  0  0  0  0  0  0  0
    0.3850   15.2490   -0.8960 C   0  0  0  0  0  0  0  0  0  0  0  0
    1.5720   14.4400   -3.0450 C   0  0  2  0  0  0  0  0  0  0  0  0
    0.3440   13.6870   -3.5870 C   0  0  0  0  0  0  0  0  0  0  0  0
   -0.1420   12.5630   -2.7340 C   0  0  0  0  0  0  0  0  0  0  0  0
    0.5450   11.9890   -1.7290 C   0  0  0  0  0  0  0  0  0  0  0  0
    1.9910   12.4030   -1.4270 C   0  0  1  0  0  0  0  0  0  0  0  0
    2.8630   11.1350   -1.2330 C   0  0  0  0  0  0  0  0  0  0  0  0
    2.2950   10.1900   -0.1800 C   0  0  0  0  0  0  0  0  0  0  0  0
    0.8780    9.7540   -0.5450 C   0  0  2  0  0  0  0  0  0  0  0  0
    0.9340    8.9460   -1.7250 O   0  0  0  0  0  0  0  0  0  0  0  0
   -0.0900   10.9480   -0.7740 C   0  0  0  0  0  0  0  0  0  0  0  0
   -0.3860   11.6460    0.5770 C   0  0  0  0  0  0  0  0  0  0  0  0
   -1.4440   10.3760   -1.2730 C   0  0  0  0  0  0  0  0  0  0  0  0
    2.6410   13.4420   -2.4400 C   0  0  1  0  0  0  0  0  0  0  0  0
    3.2750   12.6840   -3.6460 C   0  0  0  0  0  0  0  0  0  0  0  0
    3.8200   14.1940   -1.7180 C   0  0  0  0  0  0  0  0  0  0  0  0
    3.4530   15.4650   -0.9270 C   0  0  0  0  0  0  0  0  0  0  0  0
    2.5880   16.4050   -1.7710 C   0  0  2  0  0  0  0  0  0  0  0  0
    3.4370   16.8570   -3.0080 C   0  0  0  0  0  0  0  0  0  0  0  0
    3.9703   18.4512    1.0530 H   0  0  0  0  0  0  0  0  0  0  0  0
    4.4331   17.3011   -0.2469 H   0  0  0  0  0  0  0  0  0  0  0  0
    5.0959   18.9706   -0.2469 H   0  0  0  0  0  0  0  0  0  0  0  0
    3.4195   19.1616   -1.8269 H   0  0  0  0  0  0  0  0  0  0  0  0
    3.0413   20.6342    0.3223 H   0  0  0  0  0  0  0  0  0  0  0  0
    1.8094   20.5781   -1.0274 H   0  0  0  0  0  0  0  0  0  0  0  0
    1.1301   18.5216    0.7987 H   0  0  0  0  0  0  0  0  0  0  0  0
    1.4690   20.0175    1.7659 H   0  0  0  0  0  0  0  0  0  0  0  0
    0.3437   20.8807   -0.3186 H   0  0  0  0  0  0  0  0  0  0  0  0
   -1.3957   17.7460    1.7033 H   0  0  0  0  0  0  0  0  0  0  0  0
   -2.2932   17.4249    0.1807 H   0  0  0  0  0  0  0  0  0  0  0  0
   -0.4969   17.4286    0.1807 H   0  0  0  0  0  0  0  0  0  0  0  0
   -3.3397   20.2199    0.1120 H   0  0  0  0  0  0  0  0  0  0  0  0
   -2.1734   20.6838   -1.1730 H   0  0  0  0  0  0  0  0  0  0  0  0
   -2.9039   19.0428   -1.1730 H   0  0  0  0  0  0  0  0  0  0  0  0
    1.8029   17.4475   -0.0183 H   0  0  0  0  0  0  0  0  0  0  0  0
   -0.0110   18.3721   -1.3173 H   0  0  0  0  0  0  0  0  0  0  0  0
    1.0867   18.9262   -2.5996 H   0  0  0  0  0  0  0  0  0  0  0  0
   -0.6170   16.6360   -2.7464 H   0  0  0  0  0  0  0  0  0  0  0  0
    0.7187   16.9453   -3.8527 H   0  0  0  0  0  0  0  0  0  0  0  0
    0.9205   15.5065    0.0297 H   0  0  0  0  0  0  0  0  0  0  0  0
   -0.5760   15.7835   -0.9245 H   0  0  0  0  0  0  0  0  0  0  0  0
    0.2025   14.1646   -0.9245 H   0  0  0  0  0  0  0  0  0  0  0  0
    2.0396   14.9173   -3.9188 H   0  0  0  0  0  0  0  0  0  0  0  0
   -0.4774   14.4105   -3.6964 H   0  0  0  0  0  0  0  0  0  0  0  0
    0.6605   13.2329   -4.5376 H   0  0  0  0  0  0  0  0  0  0  0  0
   -1.1476   12.1701   -2.9446 H   0  0  0  0  0  0  0  0  0  0  0  0
    1.9534   12.9769   -0.4894 H   0  0  0  0  0  0  0  0  0  0  0  0
    2.9240   10.5990   -2.1916 H   0  0  0  0  0  0  0  0  0  0  0  0
    3.8550   11.4617   -0.8879 H   0  0  0  0  0  0  0  0  0  0  0  0
    2.9385    9.3006   -0.1100 H   0  0  0  0  0  0  0  0  0  0  0  0
    2.2622   10.7181    0.7844 H   0  0  0  0  0  0  0  0  0  0  0  0
    0.4776    9.1850    0.3070 H   0  0  0  0  0  0  0  0  0  0  0  0
    0.7460    9.5230   -2.4850 H   0  0  0  0  0  0  0  0  0  0  0  0
   -0.1030   10.9786    1.4043 H   0  0  0  0  0  0  0  0  0  0  0  0
    0.1943   12.5782    0.6430 H   0  0  0  0  0  0  0  0  0  0  0  0
   -1.4595   11.8769    0.6430 H   0  0  0  0  0  0  0  0  0  0  0  0
   -2.0709   10.1111   -0.4088 H   0  0  0  0  0  0  0  0  0  0  0  0
   -1.9598   11.1331   -1.8819 H   0  0  0  0  0  0  0  0  0  0  0  0
   -1.2608    9.4784   -1.8819 H   0  0  0  0  0  0  0  0  0  0  0  0
    3.9388   11.8904   -3.2723 H   0  0  0  0  0  0  0  0  0  0  0  0
    2.4778   12.2372   -4.2583 H   0  0  0  0  0  0  0  0  0  0  0  0
    3.8557   13.3896   -4.2583 H   0  0  0  0  0  0  0  0  0  0  0  0
    4.2845   13.4870   -1.0148 H   0  0  0  0  0  0  0  0  0  0  0  0
    4.4795   14.5395   -2.5277 H   0  0  0  0  0  0  0  0  0  0  0  0
    2.8959   15.1779   -0.0230 H   0  0  0  0  0  0  0  0  0  0  0  0
    4.3810   15.9902   -0.6568 H   0  0  0  0  0  0  0  0  0  0  0  0
    4.3584   17.3475   -2.6609 H   0  0  0  0  0  0  0  0  0  0  0  0
    3.6964   15.9776   -3.6158 H   0  0  0  0  0  0  0  0  0  0  0  0
    2.8523   17.5632   -3.6158 H   0  0  0  0  0  0  0  0  0  0  0  0
  1  2  1  0
  2  3  1  0
  3  4  1  0
  4  5  1  0
  5  6  1  0
  6  7  1  0
  7  8  1  0
  7  9  1  0
  2 10  1  0
 10 11  1  0
 11 12  1  0
 12 13  1  0
 13 14  1  1
 13 15  1  0
 15 16  1  0
 16 17  1  0
 17 18  2  0
 18 19  1  0
 19 20  1  0
 20 21  1  0
 21 22  1  0
 22 23  1  0
 22 24  1  0
 24 25  1  0
 24 26  1  0
 19 27  1  0
 27 28  1  6
 27 29  1  0
 29 30  1  0
 30 31  1  0
 31 32  1  6
  7  5  1  0
 31 10  1  0
 31 13  1  0
 27 15  1  0
 24 18  1  0
  1 33  1  0
  1 34  1  0
  1 35  1  0
  2 36  1  6
  3 37  1  0
  3 38  1  0
  4 39  1  0
  4 40  1  0
  5 41  1  6
  8 42  1  0
  8 43  1  0
  8 44  1  0
  9 45  1  0
  9 46  1  0
  9 47  1  0
 10 48  1  1
 11 49  1  0
 11 50  1  0
 12 51  1  0
 12 52  1  0
 14 53  1  0
 14 54  1  0
 14 55  1  0
 15 56  1  6
 16 57  1  0
 16 58  1  0
 17 59  1  0
 19 60  1  1
 20 61  1  0
 20 62  1  0
 21 63  1  0
 21 64  1  0
 22 65  1  1
 23 66  1  0
 25 67  1  0
 25 68  1  0
 25 69  1  0
 26 70  1  0
 26 71  1  0
 26 72  1  0
 28 73  1  0
 28 74  1  0
 28 75  1  0
 29 76  1  0
 29 77  1  0
 30 78  1  0
 30 79  1  0
 32 80  1  0
 32 81  1  0
 32 82  1  0
M  END
>  <meeko>  (2) 
{"is_sidechain": [false], "intermolecular_energy": 2.731, "internal_energy": -0.839}

$$$$
EPH_relaxed_0001_pdb2pqr_Repair_324_r2_0001_out
     RDKit          3D

 82 86  0  0  0  0  0  0  0  0999 V2000
   -0.9610    9.0490   -2.1040 C   0  0  0  0  0  0  0  0  0  0  0  0
   -1.3100    9.3100   -0.6360 C   0  0  2  0  0  0  0  0  0  0  0  0
   -2.8330    9.3200   -0.3940 C   0  0  0  0  0  0  0  0  0  0  0  0
   -3.5870    8.2360   -1.1700 C   0  0  0  0  0  0  0  0  0  0  0  0
   -5.0300    8.1720   -0.7720 C   0  0  2  0  0  0  0  0  0  0  0  0
   -5.4950    6.8650   -0.4120 O   0  0  0  0  0  0  0  0  0  0  0  0
   -6.0900    7.4490   -1.5820 C   0  0  0  0  0  0  0  0  0  0  0  0
   -5.7500    6.7400   -2.8550 C   0  0  0  0  0  0  0  0  0  0  0  0
   -7.5230    7.8410   -1.3970 C   0  0  0  0  0  0  0  0  0  0  0  0
   -0.7020   10.6330   -0.1850 C   0  0  1  0  0  0  0  0  0  0  0  0
    0.1850   10.4820    1.0800 C   0  0  0  0  0  0  0  0  0  0  0  0
    1.3510   11.4920    0.9310 C   0  0  0  0  0  0  0  0  0  0  0  0
    0.9230   12.4130   -0.2350 C   0  0  1  0  0  0  0  0  0  0  0  0
   -0.0550   13.4460    0.4080 C   0  0  0  0  0  0  0  0  0  0  0  0
    2.0780   13.1210   -1.0160 C   0  0  2  0  0  0  0  0  0  0  0  0
    2.9320   14.0910   -0.1810 C   0  0  0  0  0  0  0  0  0  0  0  0
    2.4550   15.5060   -0.1630 C   0  0  0  0  0  0  0  0  0  0  0  0
    1.5580   16.0400   -1.0120 C   0  0  0  0  0  0  0  0  0  0  0  0
    0.9960   15.2210   -2.1820 C   0  0  1  0  0  0  0  0  0  0  0  0
    1.0330   16.0750   -3.4760 C   0  0  0  0  0  0  0  0  0  0  0  0
    0.3280   17.4180   -3.3120 C   0  0  0  0  0  0  0  0  0  0  0  0
    0.9520   18.2270   -2.1790 C   0  0  2  0  0  0  0  0  0  0  0  0
    2.2850   18.5910   -2.5520 O   0  0  0  0  0  0  0  0  0  0  0  0
    0.9790   17.4640   -0.8240 C   0  0  0  0  0  0  0  0  0  0  0  0
   -0.4610   17.3350   -0.2710 C   0  0  0  0  0  0  0  0  0  0  0  0
    1.7600   18.3340    0.1980 C   0  0  0  0  0  0  0  0  0  0  0  0
    1.6280   13.7770   -2.3840 C   0  0  1  0  0  0  0  0  0  0  0  0
    2.9060   13.8760   -3.2720 C   0  0  0  0  0  0  0  0  0  0  0  0
    0.6070   12.8750   -3.1730 C   0  0  0  0  0  0  0  0  0  0  0  0
   -0.4330   12.1080   -2.3360 C   0  0  0  0  0  0  0  0  0  0  0  0
    0.2370   11.3600   -1.1790 C   0  0  2  0  0  0  0  0  0  0  0  0
    1.2110   10.2990   -1.7960 C   0  0  0  0  0  0  0  0  0  0  0  0
   -0.0812    8.3911   -2.1604 H   0  0  0  0  0  0  0  0  0  0  0  0
   -1.8134    8.5650   -2.6031 H   0  0  0  0  0  0  0  0  0  0  0  0
   -0.7376   10.0035   -2.6031 H   0  0  0  0  0  0  0  0  0  0  0  0
   -0.8873    8.4853   -0.0434 H   0  0  0  0  0  0  0  0  0  0  0  0
   -3.0149    9.1682    0.6802 H   0  0  0  0  0  0  0  0  0  0  0  0
   -3.2087   10.2905   -0.7504 H   0  0  0  0  0  0  0  0  0  0  0  0
   -3.5233    8.4579   -2.2455 H   0  0  0  0  0  0  0  0  0  0  0  0
   -3.1244    7.2649   -0.9399 H   0  0  0  0  0  0  0  0  0  0  0  0
   -4.9847    9.1898   -0.3573 H   0  0  0  0  0  0  0  0  0  0  0  0
   -5.2852    5.7707   -2.6219 H   0  0  0  0  0  0  0  0  0  0  0  0
   -6.6673    6.5757   -3.4395 H   0  0  0  0  0  0  0  0  0  0  0  0
   -5.0476    7.3524   -3.4395 H   0  0  0  0  0  0  0  0  0  0  0  0
   -7.7503    7.9032   -0.3225 H   0  0  0  0  0  0  0  0  0  0  0  0
   -7.6988    8.8202   -1.8663 H   0  0  0  0  0  0  0  0  0  0  0  0
   -8.1728    7.0876   -1.8663 H   0  0  0  0  0  0  0  0  0  0  0  0
   -1.6218   11.2185   -0.0399 H   0  0  0  0  0  0  0  0  0  0  0  0
   -0.4007   10.7099    1.9828 H   0  0  0  0  0  0  0  0  0  0  0  0
    0.5630    9.4536    1.1771 H   0  0  0  0  0  0  0  0  0  0  0  0
    1.4825   12.0724    1.8561 H   0  0  0  0  0  0  0  0  0  0  0  0
    2.3123   10.9936    0.7375 H   0  0  0  0  0  0  0  0  0  0  0  0
    0.0090   13.3784    1.5041 H   0  0  0  0  0  0  0  0  0  0  0  0
    0.2207   14.4612    0.0865 H   0  0  0  0  0  0  0  0  0  0  0  0
   -1.0838   13.2262    0.0865 H   0  0  0  0  0  0  0  0  0  0  0  0
    2.7418   12.2809   -1.2680 H   0  0  0  0  0  0  0  0  0  0  0  0
    2.9475   13.7242    0.8559 H   0  0  0  0  0  0  0  0  0  0  0  0
    3.9240   14.1099   -0.6560 H   0  0  0  0  0  0  0  0  0  0  0  0
    2.8724   16.1680    0.6100 H   0  0  0  0  0  0  0  0  0  0  0  0
   -0.0464   14.9886   -1.9185 H   0  0  0  0  0  0  0  0  0  0  0  0
    2.0831   16.2590   -3.7470 H   0  0  0  0  0  0  0  0  0  0  0  0
    0.5041   15.5144   -4.2608 H   0  0  0  0  0  0  0  0  0  0  0  0
    0.4138   17.9864   -4.2498 H   0  0  0  0  0  0  0  0  0  0  0  0
   -0.7288   17.2323   -3.0699 H   0  0  0  0  0  0  0  0  0  0  0  0
    0.3249   19.1176   -2.0256 H   0  0  0  0  0  0  0  0  0  0  0  0
    2.4220   18.3040   -3.4710 H   0  0  0  0  0  0  0  0  0  0  0  0
   -0.4331   17.3375    0.8286 H   0  0  0  0  0  0  0  0  0  0  0  0
   -1.0668   18.1825   -0.6243 H   0  0  0  0  0  0  0  0  0  0  0  0
   -0.9065   16.3933   -0.6243 H   0  0  0  0  0  0  0  0  0  0  0  0
    1.4885   18.0315    1.2201 H   0  0  0  0  0  0  0  0  0  0  0  0
    2.8407   18.1934    0.0489 H   0  0  0  0  0  0  0  0  0  0  0  0
    1.5040   19.3934    0.0489 H   0  0  0  0  0  0  0  0  0  0  0  0
    3.7953   13.9449   -2.6283 H   0  0  0  0  0  0  0  0  0  0  0  0
    2.9815   12.9810   -3.9071 H   0  0  0  0  0  0  0  0  0  0  0  0
    2.8427   14.7719   -3.9071 H   0  0  0  0  0  0  0  0  0  0  0  0
    0.0587   13.5251   -3.8706 H   0  0  0  0  0  0  0  0  0  0  0  0
    1.2204   12.0978   -3.6523 H   0  0  0  0  0  0  0  0  0  0  0  0
   -1.1635   12.8219   -1.9277 H   0  0  0  0  0  0  0  0  0  0  0  0
   -0.9329   11.3740   -2.9851 H   0  0  0  0  0  0  0  0  0  0  0  0
    1.7151    9.7499   -0.9871 H   0  0  0  0  0  0  0  0  0  0  0  0
    0.6392    9.5938   -2.4170 H   0  0  0  0  0  0  0  0  0  0  0  0
    1.9625   10.8085   -2.4170 H   0  0  0  0  0  0  0  0  0  0  0  0
  1  2  1  0
  2  3  1  0
  3  4  1  0
  4  5  1  0
  5  6  1  0
  6  7  1  0
  7  8  1  0
  7  9  1  0
  2 10  1  0
 10 11  1  0
 11 12  1  0
 12 13  1  0
 13 14  1  1
 13 15  1  0
 15 16  1  0
 16 17  1  0
 17 18  2  0
 18 19  1  0
 19 20  1  0
 20 21  1  0
 21 22  1  0
 22 23  1  0
 22 24  1  0
 24 25  1  0
 24 26  1  0
 19 27  1  0
 27 28  1  6
 27 29  1  0
 29 30  1  0
 30 31  1  0
 31 32  1  6
  7  5  1  0
 31 10  1  0
 31 13  1  0
 27 15  1  0
 24 18  1  0
  1 33  1  0
  1 34  1  0
  1 35  1  0
  2 36  1  1
  3 37  1  0
  3 38  1  0
  4 39  1  0
  4 40  1  0
  5 41  1  1
  8 42  1  0
  8 43  1  0
  8 44  1  0
  9 45  1  0
  9 46  1  0
  9 47  1  0
 10 48  1  1
 11 49  1  0
 11 50  1  0
 12 51  1  0
 12 52  1  0
 14 53  1  0
 14 54  1  0
 14 55  1  0
 15 56  1  6
 16 57  1  0
 16 58  1  0
 17 59  1  0
 19 60  1  1
 20 61  1  0
 20 62  1  0
 21 63  1  0
 21 64  1  0
 22 65  1  1
 23 66  1  0
 25 67  1  0
 25 68  1  0
 25 69  1  0
 26 70  1  0
 26 71  1  0
 26 72  1  0
 28 73  1  0
 28 74  1  0
 28 75  1  0
 29 76  1  0
 29 77  1  0
 30 78  1  0
 30 79  1  0
 32 80  1  0
 32 81  1  0
 32 82  1  0
M  END
>  <meeko>  (3) 
{"is_sidechain": [false], "intermolecular_energy": 2.731, "internal_energy": -0.839}

$$$$
EPH_relaxed_0001_pdb2pqr_Repair_324_r2_0001_out
     RDKit          3D

 82 86  0  0  0  0  0  0  0  0999 V2000
    0.6140   18.2620   -0.1430 C   0  0  0  0  0  0  0  0  0  0  0  0
    1.6460   17.2250   -0.5950 C   0  0  2  0  0  0  0  0  0  0  0  0
    2.6640   17.8150   -1.5910 C   0  0  0  0  0  0  0  0  0  0  0  0
    3.9690   18.2770   -0.9370 C   0  0  0  0  0  0  0  0  0  0  0  0
    3.8280   18.4060    0.5500 C   0  0  2  0  0  0  0  0  0  0  0  0
    3.6570   19.7500    1.0200 O   0  0  0  0  0  0  0  0  0  0  0  0
    4.8600   19.0820    1.4320 C   0  0  0  0  0  0  0  0  0  0  0  0
    6.1110   19.6720    0.8590 C   0  0  0  0  0  0  0  0  0  0  0  0
    4.8900   18.7400    2.8890 C   0  0  0  0  0  0  0  0  0  0  0  0
    0.9400   16.0280   -1.2210 C   0  0  1  0  0  0  0  0  0  0  0  0
    0.5260   16.2810   -2.6950 C   0  0  0  0  0  0  0  0  0  0  0  0
    0.6760   14.9290   -3.4400 C   0  0  0  0  0  0  0  0  0  0  0  0
    0.8460   13.8810   -2.3150 C   0  0  1  0  0  0  0  0  0  0  0  0
   -0.6040   13.5890   -1.8160 C   0  0  0  0  0  0  0  0  0  0  0  0
    1.5980   12.5670   -2.7040 C   0  0  2  0  0  0  0  0  0  0  0  0
    0.9110   11.7180   -3.7880 C   0  0  0  0  0  0  0  0  0  0  0  0
   -0.0440   10.6880   -3.2810 C   0  0  0  0  0  0  0  0  0  0  0  0
   -0.1290   10.2600   -2.0080 C   0  0  0  0  0  0  0  0  0  0  0  0
    0.8610   10.7510   -0.9430 C   0  0  1  0  0  0  0  0  0  0  0  0
    1.3790    9.5420   -0.1210 C   0  0  0  0  0  0  0  0  0  0  0  0
    0.2470    8.7120    0.4750 C   0  0  0  0  0  0  0  0  0  0  0  0
   -0.6830    8.1930   -0.6190 C   0  0  2  0  0  0  0  0  0  0  0  0
    0.0340    7.2530   -1.4250 O   0  0  0  0  0  0  0  0  0  0  0  0
   -1.2590    9.3210   -1.5190 C   0  0  0  0  0  0  0  0  0  0  0  0
   -2.2760   10.1640   -0.7100 C   0  0  0  0  0  0  0  0  0  0  0  0
   -2.0650    8.6520   -2.6650 C   0  0  0  0  0  0  0  0  0  0  0  0
    2.0380   11.6820   -1.4680 C   0  0  1  0  0  0  0  0  0  0  0  0
    3.2340   10.8050   -1.9510 C   0  0  0  0  0  0  0  0  0  0  0  0
    2.5790   12.5510   -0.2720 C   0  0  0  0  0  0  0  0  0  0  0  0
    1.8700   13.8940   -0.0130 C   0  0  0  0  0  0  0  0  0  0  0  0
    1.7330   14.7000   -1.3080 C   0  0  2  0  0  0  0  0  0  0  0  0
    3.1760   15.0280   -1.8230 C   0  0  0  0  0  0  0  0  0  0  0  0
    0.5828   18.2933    0.9561 H   0  0  0  0  0  0  0  0  0  0  0  0
    0.8955   19.2524   -0.5302 H   0  0  0  0  0  0  0  0  0  0  0  0
   -0.3777   17.9853   -0.5302 H   0  0  0  0  0  0  0  0  0  0  0  0
    2.2042   16.9035    0.2967 H   0  0  0  0  0  0  0  0  0  0  0  0
    2.9041   17.0450   -2.3390 H   0  0  0  0  0  0  0  0  0  0  0  0
    2.1967   18.7044   -2.0389 H   0  0  0  0  0  0  0  0  0  0  0  0
    4.7580   17.5431   -1.1580 H   0  0  0  0  0  0  0  0  0  0  0  0
    4.2257   19.2660   -1.3444 H   0  0  0  0  0  0  0  0  0  0  0  0
    3.3327   17.4258    0.6124 H   0  0  0  0  0  0  0  0  0  0  0  0
    6.7764   19.9858    1.6768 H   0  0  0  0  0  0  0  0  0  0  0  0
    6.6210   18.9195    0.2396 H   0  0  0  0  0  0  0  0  0  0  0  0
    5.8548   20.5442    0.2396 H   0  0  0  0  0  0  0  0  0  0  0  0
    4.8091   19.6618    3.4837 H   0  0  0  0  0  0  0  0  0  0  0  0
    4.0467   18.0750    3.1270 H   0  0  0  0  0  0  0  0  0  0  0  0
    5.8362   18.2319    3.1270 H   0  0  0  0  0  0  0  0  0  0  0  0
    0.1020   15.9201   -0.5167 H   0  0  0  0  0  0  0  0  0  0  0  0
   -0.5176   16.6255   -2.7416 H   0  0  0  0  0  0  0  0  0  0  0  0
    1.1556   17.0572   -3.1545 H   0  0  0  0  0  0  0  0  0  0  0  0
   -0.2212   14.7139   -4.0389 H   0  0  0  0  0  0  0  0  0  0  0  0
    1.5239   14.9304   -4.1407 H   0  0  0  0  0  0  0  0  0  0  0  0
   -0.6196   13.5859   -0.7161 H   0  0  0  0  0  0  0  0  0  0  0  0
   -1.2844   14.3682   -2.1901 H   0  0  0  0  0  0  0  0  0  0  0  0
   -0.9298   12.6072   -2.1901 H   0  0  0  0  0  0  0  0  0  0  0  0
    2.5197   12.9506   -3.1658 H   0  0  0  0  0  0  0  0  0  0  0  0
    0.3569   12.3979   -4.4519 H   0  0  0  0  0  0  0  0  0  0  0  0
    1.7145   11.1644   -4.2959 H   0  0  0  0  0  0  0  0  0  0  0  0
   -0.7365   10.2414   -4.0097 H   0  0  0  0  0  0  0  0  0  0  0  0
    0.2936   11.4302   -0.2898 H   0  0  0  0  0  0  0  0  0  0  0  0
    1.9788    8.8980   -0.7809 H   0  0  0  0  0  0  0  0  0  0  0  0
    1.9780    9.9371    0.7127 H   0  0  0  0  0  0  0  0  0  0  0  0
    0.6751    7.8572    1.0191 H   0  0  0  0  0  0  0  0  0  0  0  0
   -0.3345    9.3496    1.1571 H   0  0  0  0  0  0  0  0  0  0  0  0
   -1.5426    7.7176   -0.1238 H   0  0  0  0  0  0  0  0  0  0  0  0
    0.7210    7.7420   -1.9070 H   0  0  0  0  0  0  0  0  0  0  0  0
   -2.0997   10.0179    0.3659 H   0  0  0  0  0  0  0  0  0  0  0  0
   -2.1521   11.2279   -0.9607 H   0  0  0  0  0  0  0  0  0  0  0  0
   -3.2984    9.8449   -0.9607 H   0  0  0  0  0  0  0  0  0  0  0  0
   -2.8444    8.0051   -2.2360 H   0  0  0  0  0  0  0  0  0  0  0  0
   -2.5345    9.4296   -3.2855 H   0  0  0  0  0  0  0  0  0  0  0  0
   -1.3872    8.0474   -3.2855 H   0  0  0  0  0  0  0  0  0  0  0  0
    3.7741   10.4089   -1.0784 H   0  0  0  0  0  0  0  0  0  0  0  0
    2.8546    9.9695   -2.5576 H   0  0  0  0  0  0  0  0  0  0  0  0
    3.9168   11.4181   -2.5576 H   0  0  0  0  0  0  0  0  0  0  0  0
    2.4931   11.9473    0.6435 H   0  0  0  0  0  0  0  0  0  0  0  0
    3.6084   12.8183   -0.5529 H   0  0  0  0  0  0  0  0  0  0  0  0
    0.8681   13.6988    0.3971 H   0  0  0  0  0  0  0  0  0  0  0  0
    2.4714   14.4763    0.7007 H   0  0  0  0  0  0  0  0  0  0  0  0
    3.8461   15.1803   -0.9640 H   0  0  0  0  0  0  0  0  0  0  0  0
    3.5466   14.1912   -2.4333 H   0  0  0  0  0  0  0  0  0  0  0  0
    3.1484   15.9428   -2.4333 H   0  0  0  0  0  0  0  0  0  0  0  0
  1  2  1  0
  2  3  1  0
  3  4  1  0
  4  5  1  0
  5  6  1  0
  6  7  1  0
  7  8  1  0
  7  9  1  0
  2 10  1  0
 10 11  1  0
 11 12  1  0
 12 13  1  0
 13 14  1  1
 13 15  1  0
 15 16  1  0
 16 17  1  0
 17 18  2  0
 18 19  1  0
 19 20  1  0
 20 21  1  0
 21 22  1  0
 22 23  1  0
 22 24  1  0
 24 25  1  0
 24 26  1  0
 19 27  1  0
 27 28  1  6
 27 29  1  0
 29 30  1  0
 30 31  1  0
 31 32  1  6
  7  5  1  0
 31 10  1  0
 31 13  1  0
 27 15  1  0
 24 18  1  0
  1 33  1  0
  1 34  1  0
  1 35  1  0
  2 36  1  1
  3 37  1  0
  3 38  1  0
  4 39  1  0
  4 40  1  0
  5 41  1  1
  8 42  1  0
  8 43  1  0
  8 44  1  0
  9 45  1  0
  9 46  1  0
  9 47  1  0
 10 48  1  1
 11 49  1  0
 11 50  1  0
 12 51  1  0
 12 52  1  0
 14 53  1  0
 14 54  1  0
 14 55  1  0
 15 56  1  6
 16 57  1  0
 16 58  1  0
 17 59  1  0
 19 60  1  1
 20 61  1  0
 20 62  1  0
 21 63  1  0
 21 64  1  0
 22 65  1  1
 23 66  1  0
 25 67  1  0
 25 68  1  0
 25 69  1  0
 26 70  1  0
 26 71  1  0
 26 72  1  0
 28 73  1  0
 28 74  1  0
 28 75  1  0
 29 76  1  0
 29 77  1  0
 30 78  1  0
 30 79  1  0
 32 80  1  0
 32 81  1  0
 32 82  1  0
M  END
>  <meeko>  (4) 
{"is_sidechain": [false], "intermolecular_energy": 2.731, "internal_energy": -0.839}

$$$$
EPH_relaxed_0001_pdb2pqr_Repair_324_r2_0001_out
     RDKit          3D

 82 86  0  0  0  0  0  0  0  0999 V2000
    2.8550   17.1610    0.2510 C   0  0  0  0  0  0  0  0  0  0  0  0
    2.3840   17.3400   -1.1950 C   0  0  2  0  0  0  0  0  0  0  0  0
    1.6440   18.6760   -1.4030 C   0  0  0  0  0  0  0  0  0  0  0  0
    1.3310   19.4170   -0.1000 C   0  0  0  0  0  0  0  0  0  0  0  0
    0.0050   20.1110   -0.1610 C   0  0  2  0  0  0  0  0  0  0  0  0
   -0.6870   20.1930    1.0920 O   0  0  0  0  0  0  0  0  0  0  0  0
   -1.3190   19.4070    0.0690 C   0  0  0  0  0  0  0  0  0  0  0  0
   -1.3820   17.9440    0.3780 C   0  0  0  0  0  0  0  0  0  0  0  0
   -2.5650   20.0260   -0.4830 C   0  0  0  0  0  0  0  0  0  0  0  0
    1.4830   16.1780   -1.5960 C   0  0  1  0  0  0  0  0  0  0  0  0
    0.7750   16.4120   -2.9570 C   0  0  0  0  0  0  0  0  0  0  0  0
    0.6720   15.0300   -3.6520 C   0  0  0  0  0  0  0  0  0  0  0  0
    1.0150   14.0090   -2.5420 C   0  0  1  0  0  0  0  0  0  0  0  0
   -0.3060   13.8400   -1.7290 C   0  0  0  0  0  0  0  0  0  0  0  0
    1.5790   12.6320   -3.0210 C   0  0  2  0  0  0  0  0  0  0  0  0
    0.6190   11.8000   -3.8890 C   0  0  0  0  0  0  0  0  0  0  0  0
   -0.2670   10.8600   -3.1410 C   0  0  0  0  0  0  0  0  0  0  0  0
   -0.0990   10.4800   -1.8600 C   0  0  0  0  0  0  0  0  0  0  0  0
    1.1280   10.9330   -1.0590 C   0  0  1  0  0  0  0  0  0  0  0  0
    1.7340    9.7160   -0.3100 C   0  0  0  0  0  0  0  0  0  0  0  0
    0.7080    8.9900    0.5540 C   0  0  0  0  0  0  0  0  0  0  0  0
   -0.4690    8.5050   -0.2880 C   0  0  2  0  0  0  0  0  0  0  0  0
   -0.0070    7.4900   -1.1840 O   0  0  0  0  0  0  0  0  0  0  0  0
   -1.1540    9.6430   -1.0960 C   0  0  0  0  0  0  0  0  0  0  0  0
   -1.9140   10.5840   -0.1280 C   0  0  0  0  0  0  0  0  0  0  0  0
   -2.2320    8.9980   -2.0090 C   0  0  0  0  0  0  0  0  0  0  0  0
    2.2190   11.7570   -1.8680 C   0  0  1  0  0  0  0  0  0  0  0  0
    3.2230   10.7810   -2.5550 C   0  0  0  0  0  0  0  0  0  0  0  0
    3.0620   12.6230   -0.8580 C   0  0  0  0  0  0  0  0  0  0  0  0
    2.5150   14.0220   -0.5170 C   0  0  0  0  0  0  0  0  0  0  0  0
    2.1510   14.7930   -1.7890 C   0  0  2  0  0  0  0  0  0  0  0  0
    3.4660   14.9980   -2.6170 C   0  0  0  0  0  0  0  0  0  0  0  0
    2.0523   17.4661    0.9385 H   0  0  0  0  0  0  0  0  0  0  0  0
    3.1064   16.1046    0.4266 H   0  0  0  0  0  0  0  0  0  0  0  0
    3.7446   17.7837    0.4266 H   0  0  0  0  0  0  0  0  0  0  0  0
    3.2786   17.3547   -1.8349 H   0  0  0  0  0  0  0  0  0  0  0  0
    2.2716   19.3264   -2.0300 H   0  0  0  0  0  0  0  0  0  0  0  0
    0.6800   18.4386   -1.8767 H   0  0  0  0  0  0  0  0  0  0  0  0
    1.3161   18.6922    0.7273 H   0  0  0  0  0  0  0  0  0  0  0  0
    2.1092   20.1785    0.0564 H   0  0  0  0  0  0  0  0  0  0  0  0
    0.3606   20.7692   -0.9675 H   0  0  0  0  0  0  0  0  0  0  0  0
   -1.3882   17.7995    1.4684 H   0  0  0  0  0  0  0  0  0  0  0  0
   -2.2994   17.5172   -0.0537 H   0  0  0  0  0  0  0  0  0  0  0  0
   -0.5047   17.4400   -0.0537 H   0  0  0  0  0  0  0  0  0  0  0  0
   -3.2128   20.3478    0.3458 H   0  0  0  0  0  0  0  0  0  0  0  0
   -2.2994   20.8969   -1.1002 H   0  0  0  0  0  0  0  0  0  0  0  0
   -3.0986   19.2882   -1.1002 H   0  0  0  0  0  0  0  0  0  0  0  0
    0.8140   16.1549   -0.7231 H   0  0  0  0  0  0  0  0  0  0  0  0
   -0.2295   16.8299   -2.7944 H   0  0  0  0  0  0  0  0  0  0  0  0
    1.3382   17.1247   -3.5774 H   0  0  0  0  0  0  0  0  0  0  0  0
   -0.3460   14.8619   -4.0332 H   0  0  0  0  0  0  0  0  0  0  0  0
    1.3454   14.9471   -4.5178 H   0  0  0  0  0  0  0  0  0  0  0  0
   -0.0804   13.8689   -0.6528 H   0  0  0  0  0  0  0  0  0  0  0  0
   -0.9984   14.6569   -1.9805 H   0  0  0  0  0  0  0  0  0  0  0  0
   -0.7705   12.8751   -1.9805 H   0  0  0  0  0  0  0  0  0  0  0  0
    2.4006   12.9332   -3.6875 H   0  0  0  0  0  0  0  0  0  0  0  0
   -0.0215   12.4964   -4.4501 H   0  0  0  0  0  0  0  0  0  0  0  0
    1.2558   11.1722   -4.5296 H   0  0  0  0  0  0  0  0  0  0  0  0
   -1.1294   10.4427   -3.6814 H   0  0  0  0  0  0  0  0  0  0  0  0
    0.7617   11.6741   -0.3334 H   0  0  0  0  0  0  0  0  0  0  0  0
    2.1336    9.0089   -1.0518 H   0  0  0  0  0  0  0  0  0  0  0  0
    2.5236   10.0937    0.3562 H   0  0  0  0  0  0  0  0  0  0  0  0
    1.1888    8.1243    1.0330 H   0  0  0  0  0  0  0  0  0  0  0  0
    0.3309    9.6900    1.3141 H   0  0  0  0  0  0  0  0  0  0  0  0
   -1.2284    8.1097    0.4027 H   0  0  0  0  0  0  0  0  0  0  0  0
   -0.0080    7.8660   -2.0810 H   0  0  0  0  0  0  0  0  0  0  0  0
   -1.6867   10.3026    0.9108 H   0  0  0  0  0  0  0  0  0  0  0  0
   -1.5987   11.6231   -0.3038 H   0  0  0  0  0  0  0  0  0  0  0  0
   -2.9962   10.4945   -0.3038 H   0  0  0  0  0  0  0  0  0  0  0  0
   -3.0097    8.5327   -1.3856 H   0  0  0  0  0  0  0  0  0  0  0  0
   -2.6861    9.7730   -2.6440 H   0  0  0  0  0  0  0  0  0  0  0  0
   -1.7638    8.2315   -2.6440 H   0  0  0  0  0  0  0  0  0  0  0  0
    3.7866   10.2331   -1.7854 H   0  0  0  0  0  0  0  0  0  0  0  0
    2.6692   10.0668   -3.1820 H   0  0  0  0  0  0  0  0  0  0  0  0
    3.9213   11.3548   -3.1820 H   0  0  0  0  0  0  0  0  0  0  0  0
    3.1381   12.0573    0.0823 H   0  0  0  0  0  0  0  0  0  0  0  0
    4.0207   12.8050   -1.3658 H   0  0  0  0  0  0  0  0  0  0  0  0
    1.6164   13.9145    0.1082 H   0  0  0  0  0  0  0  0  0  0  0  0
    3.2940   14.5816    0.0216 H   0  0  0  0  0  0  0  0  0  0  0  0
    4.3149   15.1303   -1.9301 H   0  0  0  0  0  0  0  0  0  0  0  0
    3.6413   14.1163   -3.2510 H   0  0  0  0  0  0  0  0  0  0  0  0
    3.3646   15.8912   -3.2510 H   0  0  0  0  0  0  0  0  0  0  0  0
  1  2  1  0
  2  3  1  0
  3  4  1  0
  4  5  1  0
  5  6  1  0
  6  7  1  0
  7  8  1  0
  7  9  1  0
  2 10  1  0
 10 11  1  0
 11 12  1  0
 12 13  1  0
 13 14  1  1
 13 15  1  0
 15 16  1  0
 16 17  1  0
 17 18  2  0
 18 19  1  0
 19 20  1  0
 20 21  1  0
 21 22  1  0
 22 23  1  0
 22 24  1  0
 24 25  1  0
 24 26  1  0
 19 27  1  0
 27 28  1  6
 27 29  1  0
 29 30  1  0
 30 31  1  0
 31 32  1  6
  7  5  1  0
 31 10  1  0
 31 13  1  0
 27 15  1  0
 24 18  1  0
  1 33  1  0
  1 34  1  0
  1 35  1  0
  2 36  1  6
  3 37  1  0
  3 38  1  0
  4 39  1  0
  4 40  1  0
  5 41  1  6
  8 42  1  0
  8 43  1  0
  8 44  1  0
  9 45  1  0
  9 46  1  0
  9 47  1  0
 10 48  1  1
 11 49  1  0
 11 50  1  0
 12 51  1  0
 12 52  1  0
 14 53  1  0
 14 54  1  0
 14 55  1  0
 15 56  1  6
 16 57  1  0
 16 58  1  0
 17 59  1  0
 19 60  1  1
 20 61  1  0
 20 62  1  0
 21 63  1  0
 21 64  1  0
 22 65  1  1
 23 66  1  0
 25 67  1  0
 25 68  1  0
 25 69  1  0
 26 70  1  0
 26 71  1  0
 26 72  1  0
 28 73  1  0
 28 74  1  0
 28 75  1  0
 29 76  1  0
 29 77  1  0
 30 78  1  0
 30 79  1  0
 32 80  1  0
 32 81  1  0
 32 82  1  0
M  END
>  <meeko>  (5) 
{"is_sidechain": [false], "intermolecular_energy": 2.731, "internal_energy": -0.839}

$$$$
EPH_relaxed_0001_pdb2pqr_Repair_324_r2_0001_out
     RDKit          3D

 82 86  0  0  0  0  0  0  0  0999 V2000
    0.2590   17.9390   -0.2540 C   0  0  0  0  0  0  0  0  0  0  0  0
    1.1720   17.3230   -1.3180 C   0  0  2  0  0  0  0  0  0  0  0  0
    1.4250   18.2860   -2.4950 C   0  0  0  0  0  0  0  0  0  0  0  0
    2.4360   19.3910   -2.1790 C   0  0  0  0  0  0  0  0  0  0  0  0
    2.7220   19.4790   -0.7110 C   0  0  2  0  0  0  0  0  0  0  0  0
    3.9180   20.1940   -0.3750 O   0  0  0  0  0  0  0  0  0  0  0  0
    3.9020   18.7960   -0.0460 C   0  0  0  0  0  0  0  0  0  0  0  0
    4.8740   17.9750   -0.8340 C   0  0  0  0  0  0  0  0  0  0  0  0
    3.8360   18.5230    1.4250 C   0  0  0  0  0  0  0  0  0  0  0  0
    0.5670   16.0210   -1.8310 C   0  0  1  0  0  0  0  0  0  0  0  0
    0.2110   16.0820   -3.3400 C   0  0  0  0  0  0  0  0  0  0  0  0
    0.4750   14.6680   -3.9190 C   0  0  0  0  0  0  0  0  0  0  0  0
    0.6520   13.7640   -2.6760 C   0  0  1  0  0  0  0  0  0  0  0  0
   -0.8010   13.4390   -2.2060 C   0  0  0  0  0  0  0  0  0  0  0  0
    1.4970   12.4650   -2.8810 C   0  0  2  0  0  0  0  0  0  0  0  0
    0.9120   11.4580   -3.8880 C   0  0  0  0  0  0  0  0  0  0  0  0
   -0.0050   10.4340   -3.3060 C   0  0  0  0  0  0  0  0  0  0  0  0
   -0.1250   10.1450   -1.9970 C   0  0  0  0  0  0  0  0  0  0  0  0
    0.7820   10.8140   -0.9560 C   0  0  1  0  0  0  0  0  0  0  0  0
    1.3290    9.7400    0.0200 C   0  0  0  0  0  0  0  0  0  0  0  0
    0.2200    8.9110    0.6600 C   0  0  0  0  0  0  0  0  0  0  0  0
   -0.6240    8.2150   -0.4050 C   0  0  2  0  0  0  0  0  0  0  0  0
    0.1840    7.2380   -1.0680 O   0  0  0  0  0  0  0  0  0  0  0  0
   -1.2210    9.1970   -1.4510 C   0  0  0  0  0  0  0  0  0  0  0  0
   -2.3230   10.0600   -0.7870 C   0  0  0  0  0  0  0  0  0  0  0  0
   -1.9310    8.3550   -2.5460 C   0  0  0  0  0  0  0  0  0  0  0  0
    1.9270   11.7520   -1.5350 C   0  0  1  0  0  0  0  0  0  0  0  0
    3.1940   10.9050   -1.8650 C   0  0  0  0  0  0  0  0  0  0  0  0
    2.3580   12.7820   -0.4240 C   0  0  0  0  0  0  0  0  0  0  0  0
    1.5610   14.0980   -0.3500 C   0  0  0  0  0  0  0  0  0  0  0  0
    1.4400   14.7450   -1.7330 C   0  0  2  0  0  0  0  0  0  0  0  0
    2.8850   15.1030   -2.2220 C   0  0  0  0  0  0  0  0  0  0  0  0
    0.6377   17.6835    0.7466 H   0  0  0  0  0  0  0  0  0  0  0  0
    0.2441   19.0325   -0.3722 H   0  0  0  0  0  0  0  0  0  0  0  0
   -0.7606   17.5435   -0.3722 H   0  0  0  0  0  0  0  0  0  0  0  0
    2.1434   17.1204   -0.8432 H   0  0  0  0  0  0  0  0  0  0  0  0
    1.8038   17.7018   -3.3466 H   0  0  0  0  0  0  0  0  0  0  0  0
    0.4678   18.7800   -2.7179 H   0  0  0  0  0  0  0  0  0  0  0  0
    3.3742   19.1787   -2.7126 H   0  0  0  0  0  0  0  0  0  0  0  0
    2.0064   20.3507   -2.5022 H   0  0  0  0  0  0  0  0  0  0  0  0
    1.6468   19.4867   -0.4787 H   0  0  0  0  0  0  0  0  0  0  0  0
    5.5293   17.4215   -0.1454 H   0  0  0  0  0  0  0  0  0  0  0  0
    4.3240   17.2639   -1.4679 H   0  0  0  0  0  0  0  0  0  0  0  0
    5.4831   18.6362   -1.4679 H   0  0  0  0  0  0  0  0  0  0  0  0
    4.0592   19.4463    1.9797 H   0  0  0  0  0  0  0  0  0  0  0  0
    2.8272   18.1721    1.6879 H   0  0  0  0  0  0  0  0  0  0  0  0
    4.5731   17.7500    1.6879 H   0  0  0  0  0  0  0  0  0  0  0  0
   -0.2964   15.9387   -1.1544 H   0  0  0  0  0  0  0  0  0  0  0  0
   -0.8474   16.3527   -3.4689 H   0  0  0  0  0  0  0  0  0  0  0  0
    0.8160   16.8405   -3.8583 H   0  0  0  0  0  0  0  0  0  0  0  0
   -0.3785   14.3312   -4.5257 H   0  0  0  0  0  0  0  0  0  0  0  0
    1.3541   14.6453   -4.5798 H   0  0  0  0  0  0  0  0  0  0  0  0
   -0.8376   13.4308   -1.1066 H   0  0  0  0  0  0  0  0  0  0  0  0
   -1.4906   14.2051   -2.5901 H   0  0  0  0  0  0  0  0  0  0  0  0
   -1.0985   12.4521   -2.5901 H   0  0  0  0  0  0  0  0  0  0  0  0
    2.4161   12.8525   -3.3449 H   0  0  0  0  0  0  0  0  0  0  0  0
    0.3520   12.0232   -4.6476 H   0  0  0  0  0  0  0  0  0  0  0  0
    1.7693   10.9022   -4.2956 H   0  0  0  0  0  0  0  0  0  0  0  0
   -0.6363    9.8675   -4.0064 H   0  0  0  0  0  0  0  0  0  0  0  0
    0.1452   11.5254   -0.4097 H   0  0  0  0  0  0  0  0  0  0  0  0
    1.9968    9.0657   -0.5362 H   0  0  0  0  0  0  0  0  0  0  0  0
    1.8623   10.2635    0.8272 H   0  0  0  0  0  0  0  0  0  0  0  0
    0.6708    8.1513    1.3154 H   0  0  0  0  0  0  0  0  0  0  0  0
   -0.4302    9.5823    1.2403 H   0  0  0  0  0  0  0  0  0  0  0  0
   -1.4770    7.7440    0.1055 H   0  0  0  0  0  0  0  0  0  0  0  0
   -0.4030    6.5180   -1.3560 H   0  0  0  0  0  0  0  0  0  0  0  0
   -2.2339    9.9902    0.3072 H   0  0  0  0  0  0  0  0  0  0  0  0
   -2.2050   11.1084   -1.0983 H   0  0  0  0  0  0  0  0  0  0  0  0
   -3.3126    9.6942   -1.0983 H   0  0  0  0  0  0  0  0  0  0  0  0
   -2.5700    7.5972   -2.0690 H   0  0  0  0  0  0  0  0  0  0  0  0
   -2.5496    9.0147   -3.1723 H   0  0  0  0  0  0  0  0  0  0  0  0
   -1.1763    7.8567   -3.1723 H   0  0  0  0  0  0  0  0  0  0  0  0
    3.6744   10.5839   -0.9290 H   0  0  0  0  0  0  0  0  0  0  0  0
    2.9015   10.0202   -2.4494 H   0  0  0  0  0  0  0  0  0  0  0  0
    3.8998   11.5135   -2.4494 H   0  0  0  0  0  0  0  0  0  0  0  0
    2.2626   12.2800    0.5501 H   0  0  0  0  0  0  0  0  0  0  0  0
    3.3826   13.0807   -0.6904 H   0  0  0  0  0  0  0  0  0  0  0  0
    0.5535   13.8870    0.0378 H   0  0  0  0  0  0  0  0  0  0  0  0
    2.0929   14.7928    0.3166 H   0  0  0  0  0  0  0  0  0  0  0  0
    3.5373   15.2646   -1.3511 H   0  0  0  0  0  0  0  0  0  0  0  0
    3.2820   14.2761   -2.8291 H   0  0  0  0  0  0  0  0  0  0  0  0
    2.8501   16.0196   -2.8291 H   0  0  0  0  0  0  0  0  0  0  0  0
  1  2  1  0
  2  3  1  0
  3  4  1  0
  4  5  1  0
  5  6  1  0
  6  7  1  0
  7  8  1  0
  7  9  1  0
  2 10  1  0
 10 11  1  0
 11 12  1  0
 12 13  1  0
 13 14  1  1
 13 15  1  0
 15 16  1  0
 16 17  1  0
 17 18  2  0
 18 19  1  0
 19 20  1  0
 20 21  1  0
 21 22  1  0
 22 23  1  0
 22 24  1  0
 24 25  1  0
 24 26  1  0
 19 27  1  0
 27 28  1  6
 27 29  1  0
 29 30  1  0
 30 31  1  0
 31 32  1  6
  7  5  1  0
 31 10  1  0
 31 13  1  0
 27 15  1  0
 24 18  1  0
  1 33  1  0
  1 34  1  0
  1 35  1  0
  2 36  1  1
  3 37  1  0
  3 38  1  0
  4 39  1  0
  4 40  1  0
  5 41  1  1
  8 42  1  0
  8 43  1  0
  8 44  1  0
  9 45  1  0
  9 46  1  0
  9 47  1  0
 10 48  1  1
 11 49  1  0
 11 50  1  0
 12 51  1  0
 12 52  1  0
 14 53  1  0
 14 54  1  0
 14 55  1  0
 15 56  1  6
 16 57  1  0
 16 58  1  0
 17 59  1  0
 19 60  1  1
 20 61  1  0
 20 62  1  0
 21 63  1  0
 21 64  1  0
 22 65  1  1
 23 66  1  0
 25 67  1  0
 25 68  1  0
 25 69  1  0
 26 70  1  0
 26 71  1  0
 26 72  1  0
 28 73  1  0
 28 74  1  0
 28 75  1  0
 29 76  1  0
 29 77  1  0
 30 78  1  0
 30 79  1  0
 32 80  1  0
 32 81  1  0
 32 82  1  0
M  END
>  <meeko>  (6) 
{"is_sidechain": [false], "intermolecular_energy": 2.731, "internal_energy": -0.839}

$$$$
EPH_relaxed_0001_pdb2pqr_Repair_324_r2_0001_out
     RDKit          3D

 82 86  0  0  0  0  0  0  0  0999 V2000
   -0.6380    7.8680   -0.5570 C   0  0  0  0  0  0  0  0  0  0  0  0
   -1.0610    9.2340   -0.0080 C   0  0  2  0  0  0  0  0  0  0  0  0
   -2.3240    9.7750   -0.7090 C   0  0  0  0  0  0  0  0  0  0  0  0
   -3.6330    9.3110   -0.0640 C   0  0  0  0  0  0  0  0  0  0  0  0
   -4.0260    7.9420   -0.5310 C   0  0  2  0  0  0  0  0  0  0  0  0
   -4.1290    7.8020   -1.9540 O   0  0  0  0  0  0  0  0  0  0  0  0
   -5.3480    7.6380   -1.2110 C   0  0  0  0  0  0  0  0  0  0  0  0
   -6.3620    8.7100   -1.4600 C   0  0  0  0  0  0  0  0  0  0  0  0
   -5.8560    6.2300   -1.1890 C   0  0  0  0  0  0  0  0  0  0  0  0
    0.0830   10.2300   -0.1540 C   0  0  1  0  0  0  0  0  0  0  0  0
    1.4760    9.5450   -0.1470 C   0  0  0  0  0  0  0  0  0  0  0  0
    2.3770   10.3530   -1.1160 C   0  0  0  0  0  0  0  0  0  0  0  0
    1.5870   11.6550   -1.3880 C   0  0  1  0  0  0  0  0  0  0  0  0
    1.8780   12.5670   -0.1550 C   0  0  0  0  0  0  0  0  0  0  0  0
    1.9020   12.3860   -2.7340 C   0  0  2  0  0  0  0  0  0  0  0  0
    3.3490   12.8910   -2.8780 C   0  0  0  0  0  0  0  0  0  0  0  0
    3.5900   14.2820   -2.3910 C   0  0  0  0  0  0  0  0  0  0  0  0
    2.6360   15.1930   -2.1230 C   0  0  0  0  0  0  0  0  0  0  0  0
    1.1580   14.8910   -2.4000 C   0  0  1  0  0  0  0  0  0  0  0  0
    0.5100   16.0970   -3.1290 C   0  0  0  0  0  0  0  0  0  0  0  0
    0.7070   17.4100   -2.3760 C   0  0  0  0  0  0  0  0  0  0  0  0
    2.1900   17.7040   -2.1710 C   0  0  2  0  0  0  0  0  0  0  0  0
    2.7900   17.9560   -3.4460 O   0  0  0  0  0  0  0  0  0  0  0  0
    2.9500   16.5540   -1.4540 C   0  0  0  0  0  0  0  0  0  0  0  0
    2.5060   16.4810    0.0280 C   0  0  0  0  0  0  0  0  0  0  0  0
    4.4600   16.9160   -1.4380 C   0  0  0  0  0  0  0  0  0  0  0  0
    0.8560   13.5080   -3.1230 C   0  0  1  0  0  0  0  0  0  0  0  0
    0.9480   13.6850   -4.6690 C   0  0  0  0  0  0  0  0  0  0  0  0
   -0.6260   13.0780   -2.8120 C   0  0  0  0  0  0  0  0  0  0  0  0
   -0.8560   12.2550   -1.5300 C   0  0  0  0  0  0  0  0  0  0  0  0
    0.1240   11.0810   -1.4480 C   0  0  2  0  0  0  0  0  0  0  0  0
   -0.1600   10.1350   -2.6640 C   0  0  0  0  0  0  0  0  0  0  0  0
   -0.4268    7.1859    0.2798 H   0  0  0  0  0  0  0  0  0  0  0  0
   -1.4497    7.4529   -1.1725 H   0  0  0  0  0  0  0  0  0  0  0  0
    0.2662    7.9842   -1.1725 H   0  0  0  0  0  0  0  0  0  0  0  0
   -1.3048    9.1021    1.0565 H   0  0  0  0  0  0  0  0  0  0  0  0
   -2.2932   10.8742   -0.6801 H   0  0  0  0  0  0  0  0  0  0  0  0
   -2.3148    9.3815   -1.7362 H   0  0  0  0  0  0  0  0  0  0  0  0
   -3.5051    9.2920    1.0284 H   0  0  0  0  0  0  0  0  0  0  0  0
   -4.4272   10.0140   -0.3556 H   0  0  0  0  0  0  0  0  0  0  0  0
   -3.5113    7.4768    0.3226 H   0  0  0  0  0  0  0  0  0  0  0  0
   -6.7290    9.0980   -0.4984 H   0  0  0  0  0  0  0  0  0  0  0  0
   -5.8987    9.5272   -2.0323 H   0  0  0  0  0  0  0  0  0  0  0  0
   -7.2037    8.2928   -2.0323 H   0  0  0  0  0  0  0  0  0  0  0  0
   -5.9753    5.8995   -0.1466 H   0  0  0  0  0  0  0  0  0  0  0  0
   -6.8279    6.1828   -1.7021 H   0  0  0  0  0  0  0  0  0  0  0  0
   -5.1382    5.5731   -1.7021 H   0  0  0  0  0  0  0  0  0  0  0  0
   -0.1214   10.8743    0.7138 H   0  0  0  0  0  0  0  0  0  0  0  0
    1.9009    9.5611    0.8675 H   0  0  0  0  0  0  0  0  0  0  0  0
    1.4006    8.4938   -0.4620 H   0  0  0  0  0  0  0  0  0  0  0  0
    3.3469   10.5777   -0.6483 H   0  0  0  0  0  0  0  0  0  0  0  0
    2.5989    9.7986   -2.0398 H   0  0  0  0  0  0  0  0  0  0  0  0
    1.6973   12.0008    0.7706 H   0  0  0  0  0  0  0  0  0  0  0  0
    2.9265   12.8984   -0.1834 H   0  0  0  0  0  0  0  0  0  0  0  0
    1.2152   13.4444   -0.1834 H   0  0  0  0  0  0  0  0  0  0  0  0
    1.7920   11.5787   -3.4730 H   0  0  0  0  0  0  0  0  0  0  0  0
    4.0036   12.2137   -2.3099 H   0  0  0  0  0  0  0  0  0  0  0  0
    3.5606   12.9053   -3.9574 H   0  0  0  0  0  0  0  0  0  0  0  0
    4.6355   14.5880   -2.2384 H   0  0  0  0  0  0  0  0  0  0  0  0
    0.6872   14.7529   -1.4155 H   0  0  0  0  0  0  0  0  0  0  0  0
    0.9634   16.1911   -4.1268 H   0  0  0  0  0  0  0  0  0  0  0  0
   -0.5716   15.9072   -3.1925 H   0  0  0  0  0  0  0  0  0  0  0  0
    0.2545   18.2285   -2.9551 H   0  0  0  0  0  0  0  0  0  0  0  0
    0.2265   17.3248   -1.3902 H   0  0  0  0  0  0  0  0  0  0  0  0
    2.2641   18.5842   -1.5155 H   0  0  0  0  0  0  0  0  0  0  0  0
    3.1560   18.8570   -3.4260 H   0  0  0  0  0  0  0  0  0  0  0  0
    3.3801   16.6247    0.6801 H   0  0  0  0  0  0  0  0  0  0  0  0
    1.7656   17.2695    0.2282 H   0  0  0  0  0  0  0  0  0  0  0  0
    2.0570   15.4970    0.2282 H   0  0  0  0  0  0  0  0  0  0  0  0
    4.8061   16.9990   -0.3972 H   0  0  0  0  0  0  0  0  0  0  0  0
    5.0311   16.1293   -1.9527 H   0  0  0  0  0  0  0  0  0  0  0  0
    4.6124   17.8761   -1.9527 H   0  0  0  0  0  0  0  0  0  0  0  0
    1.4440   14.6393   -4.8999 H   0  0  0  0  0  0  0  0  0  0  0  0
    1.5294   12.8561   -5.0990 H   0  0  0  0  0  0  0  0  0  0  0  0
   -0.0645   13.6845   -5.0990 H   0  0  0  0  0  0  0  0  0  0  0  0
   -1.2286   13.9947   -2.7315 H   0  0  0  0  0  0  0  0  0  0  0  0
   -0.9112   12.4099   -3.6380 H   0  0  0  0  0  0  0  0  0  0  0  0
   -0.7123   12.9053   -0.6545 H   0  0  0  0  0  0  0  0  0  0  0  0
   -1.8807   11.8554   -1.5493 H   0  0  0  0  0  0  0  0  0  0  0  0
   -0.4579    9.1426   -2.2947 H   0  0  0  0  0  0  0  0  0  0  0  0
   -0.9710   10.5573   -3.2755 H   0  0  0  0  0  0  0  0  0  0  0  0
    0.7495   10.0408   -3.2755 H   0  0  0  0  0  0  0  0  0  0  0  0
  1  2  1  0
  2  3  1  0
  3  4  1  0
  4  5  1  0
  5  6  1  0
  6  7  1  0
  7  8  1  0
  7  9  1  0
  2 10  1  0
 10 11  1  0
 11 12  1  0
 12 13  1  0
 13 14  1  1
 13 15  1  0
 15 16  1  0
 16 17  1  0
 17 18  2  0
 18 19  1  0
 19 20  1  0
 20 21  1  0
 21 22  1  0
 22 23  1  0
 22 24  1  0
 24 25  1  0
 24 26  1  0
 19 27  1  0
 27 28  1  6
 27 29  1  0
 29 30  1  0
 30 31  1  0
 31 32  1  6
  7  5  1  0
 31 10  1  0
 31 13  1  0
 27 15  1  0
 24 18  1  0
  1 33  1  0
  1 34  1  0
  1 35  1  0
  2 36  1  1
  3 37  1  0
  3 38  1  0
  4 39  1  0
  4 40  1  0
  5 41  1  1
  8 42  1  0
  8 43  1  0
  8 44  1  0
  9 45  1  0
  9 46  1  0
  9 47  1  0
 10 48  1  1
 11 49  1  0
 11 50  1  0
 12 51  1  0
 12 52  1  0
 14 53  1  0
 14 54  1  0
 14 55  1  0
 15 56  1  6
 16 57  1  0
 16 58  1  0
 17 59  1  0
 19 60  1  1
 20 61  1  0
 20 62  1  0
 21 63  1  0
 21 64  1  0
 22 65  1  1
 23 66  1  0
 25 67  1  0
 25 68  1  0
 25 69  1  0
 26 70  1  0
 26 71  1  0
 26 72  1  0
 28 73  1  0
 28 74  1  0
 28 75  1  0
 29 76  1  0
 29 77  1  0
 30 78  1  0
 30 79  1  0
 32 80  1  0
 32 81  1  0
 32 82  1  0
M  END
>  <meeko>  (7) 
{"is_sidechain": [false], "intermolecular_energy": 2.731, "internal_energy": -0.839}

$$$$
EPH_relaxed_0001_pdb2pqr_Repair_324_r2_0001_out
     RDKit          3D

 82 86  0  0  0  0  0  0  0  0999 V2000
    2.4400    9.6230   -0.8110 C   0  0  0  0  0  0  0  0  0  0  0  0
    1.1690   10.2260   -1.4170 C   0  0  2  0  0  0  0  0  0  0  0  0
    0.4890    9.2660   -2.4130 C   0  0  0  0  0  0  0  0  0  0  0  0
   -0.3240    8.1560   -1.7420 C   0  0  0  0  0  0  0  0  0  0  0  0
   -1.7640    8.5410   -1.5840 C   0  0  2  0  0  0  0  0  0  0  0  0
   -2.0280    9.9420   -1.7310 O   0  0  0  0  0  0  0  0  0  0  0  0
   -2.2830    9.3820   -0.4330 C   0  0  0  0  0  0  0  0  0  0  0  0
   -1.3690    9.8880    0.6390 C   0  0  0  0  0  0  0  0  0  0  0  0
   -3.7380    9.3010   -0.0870 C   0  0  0  0  0  0  0  0  0  0  0  0
    1.4970   11.5450   -2.1060 C   0  0  1  0  0  0  0  0  0  0  0  0
    0.9520   11.6130   -3.5570 C   0  0  0  0  0  0  0  0  0  0  0  0
    0.5340   13.0850   -3.8090 C   0  0  0  0  0  0  0  0  0  0  0  0
    1.1530   13.8730   -2.6310 C   0  0  1  0  0  0  0  0  0  0  0  0
    2.6440   14.0950   -3.0360 C   0  0  0  0  0  0  0  0  0  0  0  0
    0.4510   15.2190   -2.2560 C   0  0  2  0  0  0  0  0  0  0  0  0
    0.4640   16.2910   -3.3580 C   0  0  0  0  0  0  0  0  0  0  0  0
    1.6330   17.2190   -3.3320 C   0  0  0  0  0  0  0  0  0  0  0  0
    2.4820   17.3780   -2.3000 C   0  0  0  0  0  0  0  0  0  0  0  0
    2.2500   16.6510   -0.9690 C   0  0  1  0  0  0  0  0  0  0  0  0
    2.4290   17.6490    0.2040 C   0  0  0  0  0  0  0  0  0  0  0  0
    3.7730   18.3690    0.1600 C   0  0  0  0  0  0  0  0  0  0  0  0
    3.9420   19.1280   -1.1530 C   0  0  2  0  0  0  0  0  0  0  0  0
    2.9900   20.1940   -1.1960 O   0  0  0  0  0  0  0  0  0  0  0  0
    3.7740   18.2260   -2.4080 C   0  0  0  0  0  0  0  0  0  0  0  0
    4.9800   17.2620   -2.5220 C   0  0  0  0  0  0  0  0  0  0  0  0
    3.8270   19.1390   -3.6630 C   0  0  0  0  0  0  0  0  0  0  0  0
    0.9010   15.8170   -0.8620 C   0  0  1  0  0  0  0  0  0  0  0  0
   -0.2590   16.7420   -0.3790 C   0  0  0  0  0  0  0  0  0  0  0  0
    1.0700   14.7060    0.2400 C   0  0  0  0  0  0  0  0  0  0  0  0
    1.6590   13.3570   -0.2170 C   0  0  0  0  0  0  0  0  0  0  0  0
    0.9380   12.8400   -1.4660 C   0  0  2  0  0  0  0  0  0  0  0  0
   -0.5600   12.5870   -1.0830 C   0  0  0  0  0  0  0  0  0  0  0  0
    2.3735    9.6545    0.2865 H   0  0  0  0  0  0  0  0  0  0  0  0
    2.5446    8.5793   -1.1422 H   0  0  0  0  0  0  0  0  0  0  0  0
    3.3146   10.2022   -1.1422 H   0  0  0  0  0  0  0  0  0  0  0  0
    0.4614   10.4028   -0.5936 H   0  0  0  0  0  0  0  0  0  0  0  0
   -0.1863    9.8519   -3.0538 H   0  0  0  0  0  0  0  0  0  0  0  0
    1.2908    8.7758   -2.9847 H   0  0  0  0  0  0  0  0  0  0  0  0
   -0.2637    7.2473   -2.3590 H   0  0  0  0  0  0  0  0  0  0  0  0
    0.0959    7.9813   -0.7404 H   0  0  0  0  0  0  0  0  0  0  0  0
   -2.0923    7.5772   -2.0003 H   0  0  0  0  0  0  0  0  0  0  0  0
   -1.7949    9.6522    1.6254 H   0  0  0  0  0  0  0  0  0  0  0  0
   -0.3852    9.4060    0.5397 H   0  0  0  0  0  0  0  0  0  0  0  0
   -1.2552   10.9776    0.5397 H   0  0  0  0  0  0  0  0  0  0  0  0
   -3.8550    9.2945    1.0067 H   0  0  0  0  0  0  0  0  0  0  0  0
   -4.2637   10.1713   -0.5068 H   0  0  0  0  0  0  0  0  0  0  0  0
   -4.1639    8.3778   -0.5068 H   0  0  0  0  0  0  0  0  0  0  0  0
    2.5938   11.5281   -2.0233 H   0  0  0  0  0  0  0  0  0  0  0  0
    1.7344   11.3140   -4.2700 H   0  0  0  0  0  0  0  0  0  0  0  0
    0.0990   10.9316   -3.6910 H   0  0  0  0  0  0  0  0  0  0  0  0
    0.9341   13.4435   -4.7689 H   0  0  0  0  0  0  0  0  0  0  0  0
   -0.5581   13.2052   -3.8635 H   0  0  0  0  0  0  0  0  0  0  0  0
    3.2604   14.1868   -2.1296 H   0  0  0  0  0  0  0  0  0  0  0  0
    2.9934   13.2390   -3.6319 H   0  0  0  0  0  0  0  0  0  0  0  0
    2.7289   15.0157   -3.6319 H   0  0  0  0  0  0  0  0  0  0  0  0
   -0.6007   14.9150   -2.1489 H   0  0  0  0  0  0  0  0  0  0  0  0
    0.4590   15.7780   -4.3311 H   0  0  0  0  0  0  0  0  0  0  0  0
   -0.4243   16.9161   -3.1845 H   0  0  0  0  0  0  0  0  0  0  0  0
    1.8159   17.8239   -4.2324 H   0  0  0  0  0  0  0  0  0  0  0  0
    3.0195   15.8671   -0.9113 H   0  0  0  0  0  0  0  0  0  0  0  0
    1.6256   18.3988    0.1547 H   0  0  0  0  0  0  0  0  0  0  0  0
    2.3891   17.0737    1.1407 H   0  0  0  0  0  0  0  0  0  0  0  0
    3.8277   19.0807    0.9969 H   0  0  0  0  0  0  0  0  0  0  0  0
    4.5752   17.6205    0.2388 H   0  0  0  0  0  0  0  0  0  0  0  0
    4.9715   19.5145   -1.1799 H   0  0  0  0  0  0  0  0  0  0  0  0
    2.6340   20.2360   -2.1000 H   0  0  0  0  0  0  0  0  0  0  0  0
    5.3253   16.9860   -1.5147 H   0  0  0  0  0  0  0  0  0  0  0  0
    4.6750   16.3560   -3.0661 H   0  0  0  0  0  0  0  0  0  0  0  0
    5.7966   17.7591   -3.0661 H   0  0  0  0  0  0  0  0  0  0  0  0
    3.8881   20.1913   -3.3486 H   0  0  0  0  0  0  0  0  0  0  0  0
    4.7119   18.8842   -4.2647 H   0  0  0  0  0  0  0  0  0  0  0  0
    2.9186   18.9883   -4.2647 H   0  0  0  0  0  0  0  0  0  0  0  0
   -0.2806   16.7592    0.7207 H   0  0  0  0  0  0  0  0  0  0  0  0
   -0.0971   17.7617   -0.7586 H   0  0  0  0  0  0  0  0  0  0  0  0
   -1.2171   16.3572   -0.7586 H   0  0  0  0  0  0  0  0  0  0  0  0
    1.7308   15.1100    1.0211 H   0  0  0  0  0  0  0  0  0  0  0  0
    0.0479   14.4750    0.5746 H   0  0  0  0  0  0  0  0  0  0  0  0
    2.7266   13.4895   -0.4465 H   0  0  0  0  0  0  0  0  0  0  0  0
    1.5279   12.6242    0.5928 H   0  0  0  0  0  0  0  0  0  0  0  0
   -0.6606   12.5700    0.0123 H   0  0  0  0  0  0  0  0  0  0  0  0
   -1.1851   13.3923   -1.4962 H   0  0  0  0  0  0  0  0  0  0  0  0
   -0.8860   11.6211   -1.4962 H   0  0  0  0  0  0  0  0  0  0  0  0
  1  2  1  0
  2  3  1  0
  3  4  1  0
  4  5  1  0
  5  6  1  0
  6  7  1  0
  7  8  1  0
  7  9  1  0
  2 10  1  0
 10 11  1  0
 11 12  1  0
 12 13  1  0
 13 14  1  6
 13 15  1  0
 15 16  1  0
 16 17  1  0
 17 18  2  0
 18 19  1  0
 19 20  1  0
 20 21  1  0
 21 22  1  0
 22 23  1  0
 22 24  1  0
 24 25  1  0
 24 26  1  0
 19 27  1  0
 27 28  1  1
 27 29  1  0
 29 30  1  0
 30 31  1  0
 31 32  1  1
  7  5  1  0
 31 10  1  0
 31 13  1  0
 27 15  1  0
 24 18  1  0
  1 33  1  0
  1 34  1  0
  1 35  1  0
  2 36  1  1
  3 37  1  0
  3 38  1  0
  4 39  1  0
  4 40  1  0
  5 41  1  6
  8 42  1  0
  8 43  1  0
  8 44  1  0
  9 45  1  0
  9 46  1  0
  9 47  1  0
 10 48  1  6
 11 49  1  0
 11 50  1  0
 12 51  1  0
 12 52  1  0
 14 53  1  0
 14 54  1  0
 14 55  1  0
 15 56  1  1
 16 57  1  0
 16 58  1  0
 17 59  1  0
 19 60  1  1
 20 61  1  0
 20 62  1  0
 21 63  1  0
 21 64  1  0
 22 65  1  1
 23 66  1  0
 25 67  1  0
 25 68  1  0
 25 69  1  0
 26 70  1  0
 26 71  1  0
 26 72  1  0
 28 73  1  0
 28 74  1  0
 28 75  1  0
 29 76  1  0
 29 77  1  0
 30 78  1  0
 30 79  1  0
 32 80  1  0
 32 81  1  0
 32 82  1  0
M  END
>  <meeko>  (8) 
{"is_sidechain": [false], "intermolecular_energy": 2.731, "internal_energy": -0.839}

$$$$
EPH_relaxed_0001_pdb2pqr_Repair_324_r2_0001_out
     RDKit          3D

 82 86  0  0  0  0  0  0  0  0999 V2000
    1.7940   17.7450   -2.9580 C   0  0  0  0  0  0  0  0  0  0  0  0
    2.9170   17.0640   -2.1700 C   0  0  2  0  0  0  0  0  0  0  0  0
    4.3130   17.5450   -2.6140 C   0  0  0  0  0  0  0  0  0  0  0  0
    5.0710   18.3180   -1.5310 C   0  0  0  0  0  0  0  0  0  0  0  0
    4.2950   18.3810   -0.2500 C   0  0  2  0  0  0  0  0  0  0  0  0
    3.8460   19.6930    0.1140 O   0  0  0  0  0  0  0  0  0  0  0  0
    4.7980   19.0820    0.9980 C   0  0  0  0  0  0  0  0  0  0  0  0
    6.1290   19.7660    1.0270 C   0  0  0  0  0  0  0  0  0  0  0  0
    4.2230   18.6850    2.3220 C   0  0  0  0  0  0  0  0  0  0  0  0
    2.8150   15.5510   -2.3220 C   0  0  1  0  0  0  0  0  0  0  0  0
    4.1930   14.8810   -2.5660 C   0  0  0  0  0  0  0  0  0  0  0  0
    4.1530   13.5040   -1.8530 C   0  0  0  0  0  0  0  0  0  0  0  0
    2.6610   13.2850   -1.5110 C   0  0  1  0  0  0  0  0  0  0  0  0
    2.0190   12.7600   -2.8340 C   0  0  0  0  0  0  0  0  0  0  0  0
    2.3600   12.3340   -0.3070 C   0  0  2  0  0  0  0  0  0  0  0  0
    2.8300   10.8810   -0.4900 C   0  0  0  0  0  0  0  0  0  0  0  0
    1.8290    9.9590   -1.1040 C   0  0  0  0  0  0  0  0  0  0  0  0
    0.5120   10.2080   -1.2330 C   0  0  0  0  0  0  0  0  0  0  0  0
   -0.1100   11.4820   -0.6450 C   0  0  1  0  0  0  0  0  0  0  0  0
   -1.4090   11.1180    0.1200 C   0  0  0  0  0  0  0  0  0  0  0  0
   -2.3940   10.3310   -0.7400 C   0  0  0  0  0  0  0  0  0  0  0  0
   -1.7570    9.0440   -1.2580 C   0  0  2  0  0  0  0  0  0  0  0  0
   -1.5110    8.1730   -0.1500 O   0  0  0  0  0  0  0  0  0  0  0  0
   -0.4350    9.2850   -2.0380 C   0  0  0  0  0  0  0  0  0  0  0  0
   -0.7460    9.9690   -3.3920 C   0  0  0  0  0  0  0  0  0  0  0  0
    0.1760    7.8990   -2.3820 C   0  0  0  0  0  0  0  0  0  0  0  0
    0.8660   12.3980    0.2110 C   0  0  1  0  0  0  0  0  0  0  0  0
    0.8880   11.9130    1.6930 C   0  0  0  0  0  0  0  0  0  0  0  0
    0.3030   13.8680    0.2340 C   0  0  0  0  0  0  0  0  0  0  0  0
    0.7320   14.7950   -0.9190 C   0  0  0  0  0  0  0  0  0  0  0  0
    2.2500   14.7520   -1.1210 C   0  0  2  0  0  0  0  0  0  0  0  0
    2.9220   15.2950    0.1850 C   0  0  0  0  0  0  0  0  0  0  0  0
    1.0689   18.1847   -2.2573 H   0  0  0  0  0  0  0  0  0  0  0  0
    2.2190   18.5377   -3.5913 H   0  0  0  0  0  0  0  0  0  0  0  0
    1.2876   17.0017   -3.5913 H   0  0  0  0  0  0  0  0  0  0  0  0
    2.7936   17.3408   -1.1126 H   0  0  0  0  0  0  0  0  0  0  0  0
    4.9103   16.6651   -2.8951 H   0  0  0  0  0  0  0  0  0  0  0  0
    4.1620   18.2363   -3.4562 H   0  0  0  0  0  0  0  0  0  0  0  0
    6.0318   17.8170   -1.3417 H   0  0  0  0  0  0  0  0  0  0  0  0
    5.2269   19.3464   -1.8888 H   0  0  0  0  0  0  0  0  0  0  0  0
    3.8900   17.3721   -0.4177 H   0  0  0  0  0  0  0  0  0  0  0  0
    6.4372   19.9244    2.0710 H   0  0  0  0  0  0  0  0  0  0  0  0
    6.8745   19.1393    0.5157 H   0  0  0  0  0  0  0  0  0  0  0  0
    6.0535   20.7370    0.5157 H   0  0  0  0  0  0  0  0  0  0  0  0
    4.8369   19.1089    3.1303 H   0  0  0  0  0  0  0  0  0  0  0  0
    3.1945   19.0663    2.4043 H   0  0  0  0  0  0  0  0  0  0  0  0
    4.2151   17.5881    2.4043 H   0  0  0  0  0  0  0  0  0  0  0  0
    2.1170   15.4976   -3.1705 H   0  0  0  0  0  0  0  0  0  0  0  0
    4.3623   14.7446   -3.6443 H   0  0  0  0  0  0  0  0  0  0  0  0
    5.0104   15.5048   -2.1752 H   0  0  0  0  0  0  0  0  0  0  0  0
    4.5189   12.7102   -2.5208 H   0  0  0  0  0  0  0  0  0  0  0  0
    4.7939   13.4782   -0.9594 H   0  0  0  0  0  0  0  0  0  0  0  0
    1.1880   12.0805   -2.5938 H   0  0  0  0  0  0  0  0  0  0  0  0
    1.6398   13.6101   -3.4201 H   0  0  0  0  0  0  0  0  0  0  0  0
    2.7769   12.2196   -3.4201 H   0  0  0  0  0  0  0  0  0  0  0  0
    2.9922   12.7537    0.4893 H   0  0  0  0  0  0  0  0  0  0  0  0
    3.7222   10.8909   -1.1333 H   0  0  0  0  0  0  0  0  0  0  0  0
    3.0202   10.4932    0.5217 H   0  0  0  0  0  0  0  0  0  0  0  0
    2.1986    8.9948   -1.4830 H   0  0  0  0  0  0  0  0  0  0  0  0
   -0.3505   12.1273   -1.5027 H   0  0  0  0  0  0  0  0  0  0  0  0
   -1.1429   10.5100    0.9973 H   0  0  0  0  0  0  0  0  0  0  0  0
   -1.8987   12.0585    0.4125 H   0  0  0  0  0  0  0  0  0  0  0  0
   -3.2775   10.0777   -0.1356 H   0  0  0  0  0  0  0  0  0  0  0  0
   -2.6828   10.9516   -1.6010 H   0  0  0  0  0  0  0  0  0  0  0  0
   -2.4620    8.5906   -1.9703 H   0  0  0  0  0  0  0  0  0  0  0  0
   -0.8800    7.4940   -0.4440 H   0  0  0  0  0  0  0  0  0  0  0  0
   -1.1950   10.9565   -3.2094 H   0  0  0  0  0  0  0  0  0  0  0  0
    0.1856   10.0900   -3.9642 H   0  0  0  0  0  0  0  0  0  0  0  0
   -1.4496    9.3465   -3.9642 H   0  0  0  0  0  0  0  0  0  0  0  0
    0.4129    7.3617   -1.4519 H   0  0  0  0  0  0  0  0  0  0  0  0
   -0.5479    7.3146   -2.9689 H   0  0  0  0  0  0  0  0  0  0  0  0
    1.0957    8.0392   -2.9689 H   0  0  0  0  0  0  0  0  0  0  0  0
    0.8485   12.7835    2.3643 H   0  0  0  0  0  0  0  0  0  0  0  0
    0.0183   11.2660    1.8800 H   0  0  0  0  0  0  0  0  0  0  0  0
    1.8127   11.3474    1.8800 H   0  0  0  0  0  0  0  0  0  0  0  0
   -0.7950   13.8039    0.2183 H   0  0  0  0  0  0  0  0  0  0  0  0
    0.7257   14.3236    1.1416 H   0  0  0  0  0  0  0  0  0  0  0  0
    0.2363   14.4699   -1.8456 H   0  0  0  0  0  0  0  0  0  0  0  0
    0.4406   15.8255   -0.6677 H   0  0  0  0  0  0  0  0  0  0  0  0
    2.4066   14.8785    1.0630 H   0  0  0  0  0  0  0  0  0  0  0  0
    3.9802   14.9954    0.2047 H   0  0  0  0  0  0  0  0  0  0  0  0
    2.8513   16.3925    0.2047 H   0  0  0  0  0  0  0  0  0  0  0  0
  1  2  1  0
  2  3  1  0
  3  4  1  0
  4  5  1  0
  5  6  1  0
  6  7  1  0
  7  8  1  0
  7  9  1  0
  2 10  1  0
 10 11  1  0
 11 12  1  0
 12 13  1  0
 13 14  1  6
 13 15  1  0
 15 16  1  0
 16 17  1  0
 17 18  2  0
 18 19  1  0
 19 20  1  0
 20 21  1  0
 21 22  1  0
 22 23  1  0
 22 24  1  0
 24 25  1  0
 24 26  1  0
 19 27  1  0
 27 28  1  1
 27 29  1  0
 29 30  1  0
 30 31  1  0
 31 32  1  1
  7  5  1  0
 31 10  1  0
 31 13  1  0
 27 15  1  0
 24 18  1  0
  1 33  1  0
  1 34  1  0
  1 35  1  0
  2 36  1  1
  3 37  1  0
  3 38  1  0
  4 39  1  0
  4 40  1  0
  5 41  1  1
  8 42  1  0
  8 43  1  0
  8 44  1  0
  9 45  1  0
  9 46  1  0
  9 47  1  0
 10 48  1  6
 11 49  1  0
 11 50  1  0
 12 51  1  0
 12 52  1  0
 14 53  1  0
 14 54  1  0
 14 55  1  0
 15 56  1  1
 16 57  1  0
 16 58  1  0
 17 59  1  0
 19 60  1  6
 20 61  1  0
 20 62  1  0
 21 63  1  0
 21 64  1  0
 22 65  1  6
 23 66  1  0
 25 67  1  0
 25 68  1  0
 25 69  1  0
 26 70  1  0
 26 71  1  0
 26 72  1  0
 28 73  1  0
 28 74  1  0
 28 75  1  0
 29 76  1  0
 29 77  1  0
 30 78  1  0
 30 79  1  0
 32 80  1  0
 32 81  1  0
 32 82  1  0
M  END
>  <meeko>  (9) 
{"is_sidechain": [false], "intermolecular_energy": 2.731, "internal_energy": -0.839}

$$$$
EPH_relaxed_0001_pdb2pqr_Repair_324_r2_0001_out
     RDKit          3D

 82 86  0  0  0  0  0  0  0  0999 V2000
    3.7030   17.9720   -1.4060 C   0  0  0  0  0  0  0  0  0  0  0  0
    2.6760   17.5010   -2.4400 C   0  0  2  0  0  0  0  0  0  0  0  0
    1.2540   18.0010   -2.1140 C   0  0  0  0  0  0  0  0  0  0  0  0
    1.1730   18.8350   -0.8330 C   0  0  0  0  0  0  0  0  0  0  0  0
   -0.0630   19.6820   -0.8000 C   0  0  2  0  0  0  0  0  0  0  0  0
   -0.4030   20.1940    0.4950 O   0  0  0  0  0  0  0  0  0  0  0  0
   -1.3390   19.2730   -0.0880 C   0  0  0  0  0  0  0  0  0  0  0  0
   -1.4420   17.9690    0.6400 C   0  0  0  0  0  0  0  0  0  0  0  0
   -2.6280   19.9070   -0.5080 C   0  0  0  0  0  0  0  0  0  0  0  0
    2.6860   15.9800   -2.5270 C   0  0  1  0  0  0  0  0  0  0  0  0
    4.1160   15.4010   -2.6960 C   0  0  0  0  0  0  0  0  0  0  0  0
    4.1480   14.0560   -1.9240 C   0  0  0  0  0  0  0  0  0  0  0  0
    2.6640   13.7450   -1.6200 C   0  0  1  0  0  0  0  0  0  0  0  0
    2.1070   13.1200   -2.9380 C   0  0  0  0  0  0  0  0  0  0  0  0
    2.3890   12.8280   -0.3850 C   0  0  2  0  0  0  0  0  0  0  0  0
    2.9670   11.4050   -0.4870 C   0  0  0  0  0  0  0  0  0  0  0  0
    2.0550   10.3890   -1.0910 C   0  0  0  0  0  0  0  0  0  0  0  0
    0.7290   10.5370   -1.2720 C   0  0  0  0  0  0  0  0  0  0  0  0
   -0.0010   11.7860   -0.7620 C   0  0  1  0  0  0  0  0  0  0  0  0
   -1.2970   11.3620   -0.0220 C   0  0  0  0  0  0  0  0  0  0  0  0
   -2.1930   10.4710   -0.8770 C   0  0  0  0  0  0  0  0  0  0  0  0
   -1.4500    9.2120   -1.3160 C   0  0  2  0  0  0  0  0  0  0  0  0
   -1.1820    8.4090   -0.1630 O   0  0  0  0  0  0  0  0  0  0  0  0
   -0.1220    9.5140   -2.0640 C   0  0  0  0  0  0  0  0  0  0  0  0
   -0.4330   10.1160   -3.4570 C   0  0  0  0  0  0  0  0  0  0  0  0
    0.5960    8.1620   -2.3260 C   0  0  0  0  0  0  0  0  0  0  0  0
    0.8780   12.8060    0.0830 C   0  0  1  0  0  0  0  0  0  0  0  0
    0.8830   12.3870    1.5850 C   0  0  0  0  0  0  0  0  0  0  0  0
    0.2120   14.2310    0.0220 C   0  0  0  0  0  0  0  0  0  0  0  0
    0.6150   15.1360   -1.1580 C   0  0  0  0  0  0  0  0  0  0  0  0
    2.1380   15.1940   -1.3100 C   0  0  2  0  0  0  0  0  0  0  0  0
    2.7240   15.8390   -0.0080 C   0  0  0  0  0  0  0  0  0  0  0  0
    3.3124   17.7929   -0.3934 H   0  0  0  0  0  0  0  0  0  0  0  0
    4.6415   17.4143   -1.5410 H   0  0  0  0  0  0  0  0  0  0  0  0
    3.8927   19.0471   -1.5410 H   0  0  0  0  0  0  0  0  0  0  0  0
    2.9629   17.9303   -3.4113 H   0  0  0  0  0  0  0  0  0  0  0  0
    0.9023   18.6189   -2.9534 H   0  0  0  0  0  0  0  0  0  0  0  0
    0.6283   17.1100   -1.9573 H   0  0  0  0  0  0  0  0  0  0  0  0
    1.1640   18.1574    0.0335 H   0  0  0  0  0  0  0  0  0  0  0  0
    2.0469   19.5024   -0.8026 H   0  0  0  0  0  0  0  0  0  0  0  0
    0.1286   20.0431   -1.8212 H   0  0  0  0  0  0  0  0  0  0  0  0
   -1.4275   18.1524    1.7245 H   0  0  0  0  0  0  0  0  0  0  0  0
   -2.3824   17.4689    0.3652 H   0  0  0  0  0  0  0  0  0  0  0  0
   -0.5917   17.3275    0.3652 H   0  0  0  0  0  0  0  0  0  0  0  0
   -3.2050   20.1908    0.3845 H   0  0  0  0  0  0  0  0  0  0  0  0
   -2.4168   20.8040   -1.1086 H   0  0  0  0  0  0  0  0  0  0  0  0
   -3.2096   19.1922   -1.1086 H   0  0  0  0  0  0  0  0  0  0  0  0
    2.0233   15.8408   -3.3939 H   0  0  0  0  0  0  0  0  0  0  0  0
    4.3328   15.2317   -3.7611 H   0  0  0  0  0  0  0  0  0  0  0  0
    4.8729   16.0979   -2.3070 H   0  0  0  0  0  0  0  0  0  0  0  0
    4.5918   13.2630   -2.5438 H   0  0  0  0  0  0  0  0  0  0  0  0
    4.7576   14.1140   -1.0102 H   0  0  0  0  0  0  0  0  0  0  0  0
    1.3938   12.3197   -2.6914 H   0  0  0  0  0  0  0  0  0  0  0  0
    1.5969   13.8976   -3.5255 H   0  0  0  0  0  0  0  0  0  0  0  0
    2.9379   12.7024   -3.5255 H   0  0  0  0  0  0  0  0  0  0  0  0
    2.9618   13.3268    0.4107 H   0  0  0  0  0  0  0  0  0  0  0  0
    3.8786   11.4514   -1.1009 H   0  0  0  0  0  0  0  0  0  0  0  0
    3.1488   11.0751    0.5465 H   0  0  0  0  0  0  0  0  0  0  0  0
    2.5044    9.4389   -1.4157 H   0  0  0  0  0  0  0  0  0  0  0  0
   -0.2566   12.3751   -1.6551 H   0  0  0  0  0  0  0  0  0  0  0  0
   -1.0191   10.8121    0.8893 H   0  0  0  0  0  0  0  0  0  0  0  0
   -1.8617   12.2761    0.2136 H   0  0  0  0  0  0  0  0  0  0  0  0
   -3.0774   10.1812   -0.2907 H   0  0  0  0  0  0  0  0  0  0  0  0
   -2.4936   11.0324   -1.7740 H   0  0  0  0  0  0  0  0  0  0  0  0
   -2.0964    8.6790   -2.0288 H   0  0  0  0  0  0  0  0  0  0  0  0
   -1.1330    7.4820   -0.4540 H   0  0  0  0  0  0  0  0  0  0  0  0
   -0.9347   11.0871   -3.3331 H   0  0  0  0  0  0  0  0  0  0  0  0
    0.5054   10.2564   -4.0136 H   0  0  0  0  0  0  0  0  0  0  0  0
   -1.0905    9.4320   -4.0136 H   0  0  0  0  0  0  0  0  0  0  0  0
    0.8476    7.6883   -1.3656 H   0  0  0  0  0  0  0  0  0  0  0  0
   -0.0687    7.4988   -2.8990 H   0  0  0  0  0  0  0  0  0  0  0  0
    1.5177    8.3413   -2.8990 H   0  0  0  0  0  0  0  0  0  0  0  0
    0.8723   13.2874    2.2169 H   0  0  0  0  0  0  0  0  0  0  0  0
   -0.0079   11.7783    1.7988 H   0  0  0  0  0  0  0  0  0  0  0  0
    1.7882   11.7998    1.7988 H   0  0  0  0  0  0  0  0  0  0  0  0
   -0.8775   14.0874   -0.0257 H   0  0  0  0  0  0  0  0  0  0  0  0
    0.5690   14.7544    0.9213 H   0  0  0  0  0  0  0  0  0  0  0  0
    0.1760   14.7364   -2.0841 H   0  0  0  0  0  0  0  0  0  0  0  0
    0.2433   16.1527   -0.9628 H   0  0  0  0  0  0  0  0  0  0  0  0
    2.2816   15.3520    0.8736 H   0  0  0  0  0  0  0  0  0  0  0  0
    3.8157   15.7050    0.0083 H   0  0  0  0  0  0  0  0  0  0  0  0
    2.4862   16.9129    0.0083 H   0  0  0  0  0  0  0  0  0  0  0  0
  1  2  1  0
  2  3  1  0
  3  4  1  0
  4  5  1  0
  5  6  1  0
  6  7  1  0
  7  8  1  0
  7  9  1  0
  2 10  1  0
 10 11  1  0
 11 12  1  0
 12 13  1  0
 13 14  1  6
 13 15  1  0
 15 16  1  0
 16 17  1  0
 17 18  2  0
 18 19  1  0
 19 20  1  0
 20 21  1  0
 21 22  1  0
 22 23  1  0
 22 24  1  0
 24 25  1  0
 24 26  1  0
 19 27  1  0
 27 28  1  1
 27 29  1  0
 29 30  1  0
 30 31  1  0
 31 32  1  1
  7  5  1  0
 31 10  1  0
 31 13  1  0
 27 15  1  0
 24 18  1  0
  1 33  1  0
  1 34  1  0
  1 35  1  0
  2 36  1  6
  3 37  1  0
  3 38  1  0
  4 39  1  0
  4 40  1  0
  5 41  1  6
  8 42  1  0
  8 43  1  0
  8 44  1  0
  9 45  1  0
  9 46  1  0
  9 47  1  0
 10 48  1  6
 11 49  1  0
 11 50  1  0
 12 51  1  0
 12 52  1  0
 14 53  1  0
 14 54  1  0
 14 55  1  0
 15 56  1  1
 16 57  1  0
 16 58  1  0
 17 59  1  0
 19 60  1  6
 20 61  1  0
 20 62  1  0
 21 63  1  0
 21 64  1  0
 22 65  1  6
 23 66  1  0
 25 67  1  0
 25 68  1  0
 25 69  1  0
 26 70  1  0
 26 71  1  0
 26 72  1  0
 28 73  1  0
 28 74  1  0
 28 75  1  0
 29 76  1  0
 29 77  1  0
 30 78  1  0
 30 79  1  0
 32 80  1  0
 32 81  1  0
 32 82  1  0
M  END
>  <meeko>  (10) 
{"is_sidechain": [false], "intermolecular_energy": 2.731, "internal_energy": -0.839}

$$$$
EPH_relaxed_0001_pdb2pqr_Repair_324_r2_0001_out
     RDKit          3D

 82 86  0  0  0  0  0  0  0  0999 V2000
    0.3070    9.1530   -2.3900 C   0  0  0  0  0  0  0  0  0  0  0  0
    1.1260   10.2530   -3.0730 C   0  0  2  0  0  0  0  0  0  0  0  0
    2.6160   10.1960   -2.6790 C   0  0  0  0  0  0  0  0  0  0  0  0
    3.5700   10.5160   -3.8330 C   0  0  0  0  0  0  0  0  0  0  0  0
    4.9460   10.8460   -3.3390 C   0  0  2  0  0  0  0  0  0  0  0  0
    5.5000   12.0550   -3.8740 O   0  0  0  0  0  0  0  0  0  0  0  0
    6.1770   10.8370   -4.2250 C   0  0  0  0  0  0  0  0  0  0  0  0
    6.0900   10.4910   -5.6790 C   0  0  0  0  0  0  0  0  0  0  0  0
    7.5210   10.6880   -3.5830 C   0  0  0  0  0  0  0  0  0  0  0  0
    0.5480   11.6200   -2.7290 C   0  0  1  0  0  0  0  0  0  0  0  0
   -0.7020   11.5280   -1.8150 C   0  0  0  0  0  0  0  0  0  0  0  0
   -0.6570   12.7550   -0.8690 C   0  0  0  0  0  0  0  0  0  0  0  0
    0.4200   13.6800   -1.4820 C   0  0  1  0  0  0  0  0  0  0  0  0
   -0.3100   14.4380   -2.6350 C   0  0  0  0  0  0  0  0  0  0  0  0
    1.1240   14.6700   -0.4960 C   0  0  2  0  0  0  0  0  0  0  0  0
    0.1950   15.7050    0.1620 C   0  0  0  0  0  0  0  0  0  0  0  0
    0.0480   16.9920   -0.5810 C   0  0  0  0  0  0  0  0  0  0  0  0
    0.8490   17.4180   -1.5750 C   0  0  0  0  0  0  0  0  0  0  0  0
    2.0940   16.6180   -1.9800 C   0  0  1  0  0  0  0  0  0  0  0  0
    3.3030   17.5800   -2.1250 C   0  0  0  0  0  0  0  0  0  0  0  0
    3.0180   18.7380   -3.0760 C   0  0  0  0  0  0  0  0  0  0  0  0
    1.8090   19.5440   -2.6080 C   0  0  2  0  0  0  0  0  0  0  0  0
    2.1380   20.1940   -1.3770 O   0  0  0  0  0  0  0  0  0  0  0  0
    0.5320   18.6780   -2.4170 C   0  0  0  0  0  0  0  0  0  0  0  0
    0.0030   18.2190   -3.7980 C   0  0  0  0  0  0  0  0  0  0  0  0
   -0.5720   19.5840   -1.8090 C   0  0  0  0  0  0  0  0  0  0  0  0
    2.4270   15.3510   -1.0810 C   0  0  1  0  0  0  0  0  0  0  0  0
    3.2930   15.7790    0.1430 C   0  0  0  0  0  0  0  0  0  0  0  0
    3.3040   14.3440   -1.9160 C   0  0  0  0  0  0  0  0  0  0  0  0
    2.5500   13.3140   -2.7770 C   0  0  0  0  0  0  0  0  0  0  0  0
    1.4640   12.6070   -1.9610 C   0  0  2  0  0  0  0  0  0  0  0  0
    2.1710   11.8180   -0.8060 C   0  0  0  0  0  0  0  0  0  0  0  0
    0.3871    9.2606   -1.2982 H   0  0  0  0  0  0  0  0  0  0  0  0
   -0.7475    9.2407   -2.6907 H   0  0  0  0  0  0  0  0  0  0  0  0
    0.6933    8.1680   -2.6907 H   0  0  0  0  0  0  0  0  0  0  0  0
    1.0649   10.0863   -4.1586 H   0  0  0  0  0  0  0  0  0  0  0  0
    2.7901   10.9235   -1.8725 H   0  0  0  0  0  0  0  0  0  0  0  0
    2.8263    9.1630   -2.3648 H   0  0  0  0  0  0  0  0  0  0  0  0
    3.6301    9.6423   -4.4986 H   0  0  0  0  0  0  0  0  0  0  0  0
    3.1783   11.3932   -4.3687 H   0  0  0  0  0  0  0  0  0  0  0  0
    4.7342   10.3792   -2.3657 H   0  0  0  0  0  0  0  0  0  0  0  0
    5.8231    9.4295   -5.7880 H   0  0  0  0  0  0  0  0  0  0  0  0
    5.3205   11.1137   -6.1587 H   0  0  0  0  0  0  0  0  0  0  0  0
    7.0625   10.6756   -6.1587 H   0  0  0  0  0  0  0  0  0  0  0  0
    7.4081   10.7005   -2.4889 H   0  0  0  0  0  0  0  0  0  0  0  0
    7.9723    9.7343   -3.8942 H   0  0  0  0  0  0  0  0  0  0  0  0
    8.1702   11.5197   -3.8942 H   0  0  0  0  0  0  0  0  0  0  0  0
    0.3537   11.9979   -3.7436 H   0  0  0  0  0  0  0  0  0  0  0  0
   -1.6183   11.5522   -2.4231 H   0  0  0  0  0  0  0  0  0  0  0  0
   -0.7040   10.5886   -1.2428 H   0  0  0  0  0  0  0  0  0  0  0  0
   -1.6335   13.2606   -0.8419 H   0  0  0  0  0  0  0  0  0  0  0  0
   -0.4242   12.4738    0.1686 H   0  0  0  0  0  0  0  0  0  0  0  0
   -1.0128   15.1678   -2.2067 H   0  0  0  0  0  0  0  0  0  0  0  0
    0.4311   14.9632   -3.2554 H   0  0  0  0  0  0  0  0  0  0  0  0
   -0.8627   13.7171   -3.2554 H   0  0  0  0  0  0  0  0  0  0  0  0
    1.4506   14.0030    0.3155 H   0  0  0  0  0  0  0  0  0  0  0  0
   -0.8030   15.2528    0.2597 H   0  0  0  0  0  0  0  0  0  0  0  0
    0.6583   15.9609    1.1263 H   0  0  0  0  0  0  0  0  0  0  0  0
   -0.7862   17.6478   -0.2911 H   0  0  0  0  0  0  0  0  0  0  0  0
    1.8596   16.1632   -2.9538 H   0  0  0  0  0  0  0  0  0  0  0  0
    3.5485   17.9897   -1.1341 H   0  0  0  0  0  0  0  0  0  0  0  0
    4.1408   17.0028   -2.5432 H   0  0  0  0  0  0  0  0  0  0  0  0
    3.8975   19.3975   -3.1137 H   0  0  0  0  0  0  0  0  0  0  0  0
    2.8015   18.3278   -4.0734 H   0  0  0  0  0  0  0  0  0  0  0  0
    1.5759   20.2768   -3.3946 H   0  0  0  0  0  0  0  0  0  0  0  0
    1.9150   19.5850   -0.6530 H   0  0  0  0  0  0  0  0  0  0  0  0
   -0.8209   17.5041   -3.6559 H   0  0  0  0  0  0  0  0  0  0  0  0
   -0.3616   19.0918   -4.3596 H   0  0  0  0  0  0  0  0  0  0  0  0
    0.8157   17.7350   -4.3596 H   0  0  0  0  0  0  0  0  0  0  0  0
   -0.5188   19.5403   -0.7112 H   0  0  0  0  0  0  0  0  0  0  0  0
   -0.4200   20.6212   -2.1425 H   0  0  0  0  0  0  0  0  0  0  0  0
   -1.5596   19.2326   -2.1425 H   0  0  0  0  0  0  0  0  0  0  0  0
    2.7668   15.5189    1.0733 H   0  0  0  0  0  0  0  0  0  0  0  0
    4.2595   15.2548    0.1096 H   0  0  0  0  0  0  0  0  0  0  0  0
    3.4636   16.8652    0.1096 H   0  0  0  0  0  0  0  0  0  0  0  0
    3.9415   14.9367   -2.5885 H   0  0  0  0  0  0  0  0  0  0  0  0
    3.8493   13.7494   -1.1683 H   0  0  0  0  0  0  0  0  0  0  0  0
    2.0818   13.8303   -3.6280 H   0  0  0  0  0  0  0  0  0  0  0  0
    3.2685   12.5604   -3.1316 H   0  0  0  0  0  0  0  0  0  0  0  0
    1.8264   12.2026    0.1652 H   0  0  0  0  0  0  0  0  0  0  0  0
    1.9225   10.7494   -0.8863 H   0  0  0  0  0  0  0  0  0  0  0  0
    3.2603   11.9482   -0.8863 H   0  0  0  0  0  0  0  0  0  0  0  0
  1  2  1  0
  2  3  1  0
  3  4  1  0
  4  5  1  0
  5  6  1  0
  6  7  1  0
  7  8  1  0
  7  9  1  0
  2 10  1  0
 10 11  1  0
 11 12  1  0
 12 13  1  0
 13 14  1  6
 13 15  1  0
 15 16  1  0
 16 17  1  0
 17 18  2  0
 18 19  1  0
 19 20  1  0
 20 21  1  0
 21 22  1  0
 22 23  1  0
 22 24  1  0
 24 25  1  0
 24 26  1  0
 19 27  1  0
 27 28  1  1
 27 29  1  0
 29 30  1  0
 30 31  1  0
 31 32  1  1
  7  5  1  0
 31 10  1  0
 31 13  1  0
 27 15  1  0
 24 18  1  0
  1 33  1  0
  1 34  1  0
  1 35  1  0
  2 36  1  6
  3 37  1  0
  3 38  1  0
  4 39  1  0
  4 40  1  0
  5 41  1  1
  8 42  1  0
  8 43  1  0
  8 44  1  0
  9 45  1  0
  9 46  1  0
  9 47  1  0
 10 48  1  6
 11 49  1  0
 11 50  1  0
 12 51  1  0
 12 52  1  0
 14 53  1  0
 14 54  1  0
 14 55  1  0
 15 56  1  1
 16 57  1  0
 16 58  1  0
 17 59  1  0
 19 60  1  6
 20 61  1  0
 20 62  1  0
 21 63  1  0
 21 64  1  0
 22 65  1  6
 23 66  1  0
 25 67  1  0
 25 68  1  0
 25 69  1  0
 26 70  1  0
 26 71  1  0
 26 72  1  0
 28 73  1  0
 28 74  1  0
 28 75  1  0
 29 76  1  0
 29 77  1  0
 30 78  1  0
 30 79  1  0
 32 80  1  0
 32 81  1  0
 32 82  1  0
M  END
>  <meeko>  (11) 
{"is_sidechain": [false], "intermolecular_energy": 2.731, "internal_energy": -0.839}

$$$$
EPH_relaxed_0001_pdb2pqr_Repair_324_r2_0001_out
     RDKit          3D

 82 86  0  0  0  0  0  0  0  0999 V2000
   -2.6230    7.6190   -3.0520 C   0  0  0  0  0  0  0  0  0  0  0  0
   -2.8930    7.8730   -1.5660 C   0  0  2  0  0  0  0  0  0  0  0  0
   -4.3980    7.8350   -1.2350 C   0  0  0  0  0  0  0  0  0  0  0  0
   -5.1370    6.6490   -1.8620 C   0  0  0  0  0  0  0  0  0  0  0  0
   -6.3410    7.0930   -2.6350 C   0  0  2  0  0  0  0  0  0  0  0  0
   -6.8900    8.3500   -2.2200 O   0  0  0  0  0  0  0  0  0  0  0  0
   -7.7300    7.1990   -2.0330 C   0  0  0  0  0  0  0  0  0  0  0  0
   -7.9860    6.8590   -0.5980 C   0  0  0  0  0  0  0  0  0  0  0  0
   -8.9120    7.1600   -2.9500 C   0  0  0  0  0  0  0  0  0  0  0  0
   -2.3030    9.2160   -1.1530 C   0  0  1  0  0  0  0  0  0  0  0  0
   -2.8020    9.6850    0.2400 C   0  0  0  0  0  0  0  0  0  0  0  0
   -1.6210   10.4320    0.9100 C   0  0  0  0  0  0  0  0  0  0  0  0
   -0.6030   10.6580   -0.2320 C   0  0  1  0  0  0  0  0  0  0  0  0
   -1.1290   11.9140   -0.9950 C   0  0  0  0  0  0  0  0  0  0  0  0
    0.8910   10.8270    0.1960 C   0  0  2  0  0  0  0  0  0  0  0  0
    1.1810   12.0480    1.0850 C   0  0  0  0  0  0  0  0  0  0  0  0
    1.5420   13.2990    0.3540 C   0  0  0  0  0  0  0  0  0  0  0  0
    1.9090   13.3700   -0.9400 C   0  0  0  0  0  0  0  0  0  0  0  0
    2.0820   12.0980   -1.7800 C   0  0  1  0  0  0  0  0  0  0  0  0
    3.4110   12.1810   -2.5760 C   0  0  0  0  0  0  0  0  0  0  0  0
    3.5130   13.4530   -3.4130 C   0  0  0  0  0  0  0  0  0  0  0  0
    3.3940   14.6950   -2.5350 C   0  0  2  0  0  0  0  0  0  0  0  0
    4.5380   14.7650   -1.6780 O   0  0  0  0  0  0  0  0  0  0  0  0
    2.0980   14.7180   -1.6780 C   0  0  0  0  0  0  0  0  0  0  0  0
    0.8710   14.9460   -2.5950 C   0  0  0  0  0  0  0  0  0  0  0  0
    2.1700   15.9500   -0.7360 C   0  0  0  0  0  0  0  0  0  0  0  0
    1.9240   10.7240   -0.9990 C   0  0  1  0  0  0  0  0  0  0  0  0
    3.2890   10.3070   -0.3720 C   0  0  0  0  0  0  0  0  0  0  0  0
    1.5420    9.5910   -2.0230 C   0  0  0  0  0  0  0  0  0  0  0  0
    0.0420    9.3940   -2.3150 C   0  0  0  0  0  0  0  0  0  0  0  0
   -0.7620    9.3030   -1.0140 C   0  0  2  0  0  0  0  0  0  0  0  0
   -0.2700    8.0360   -0.2350 C   0  0  0  0  0  0  0  0  0  0  0  0
   -1.8254    6.8687   -3.1567 H   0  0  0  0  0  0  0  0  0  0  0  0
   -3.5402    7.2488   -3.5333 H   0  0  0  0  0  0  0  0  0  0  0  0
   -2.3094    8.5571   -3.5333 H   0  0  0  0  0  0  0  0  0  0  0  0
   -2.4095    7.0641   -0.9986 H   0  0  0  0  0  0  0  0  0  0  0  0
   -4.5118    7.7767   -0.1425 H   0  0  0  0  0  0  0  0  0  0  0  0
   -4.8426    8.7491   -1.6554 H   0  0  0  0  0  0  0  0  0  0  0  0
   -4.4519    6.1208   -2.5414 H   0  0  0  0  0  0  0  0  0  0  0  0
   -5.4749    5.9875   -1.0507 H   0  0  0  0  0  0  0  0  0  0  0  0
   -5.9667    6.6007   -3.5447 H   0  0  0  0  0  0  0  0  0  0  0  0
   -7.4506    7.5700    0.0484 H   0  0  0  0  0  0  0  0  0  0  0  0
   -9.0652    6.9188   -0.3939 H   0  0  0  0  0  0  0  0  0  0  0  0
   -7.6302    5.8383   -0.3939 H   0  0  0  0  0  0  0  0  0  0  0  0
   -9.8367    7.1295   -2.3551 H   0  0  0  0  0  0  0  0  0  0  0  0
   -8.9137    8.0586   -3.5845 H   0  0  0  0  0  0  0  0  0  0  0  0
   -8.8544    6.2633   -3.5845 H   0  0  0  0  0  0  0  0  0  0  0  0
   -2.6404    9.8335   -1.9985 H   0  0  0  0  0  0  0  0  0  0  0  0
   -3.6622   10.3611    0.1263 H   0  0  0  0  0  0  0  0  0  0  0  0
   -3.1264    8.8302    0.8516 H   0  0  0  0  0  0  0  0  0  0  0  0
   -1.9562   11.3931    1.3271 H   0  0  0  0  0  0  0  0  0  0  0  0
   -1.1892    9.8634    1.7468 H   0  0  0  0  0  0  0  0  0  0  0  0
   -1.4484   12.6766   -0.2695 H   0  0  0  0  0  0  0  0  0  0  0  0
   -0.3262   12.3222   -1.6266 H   0  0  0  0  0  0  0  0  0  0  0  0
   -1.9831   11.6283   -1.6266 H   0  0  0  0  0  0  0  0  0  0  0  0
    1.0535    9.9466    0.8352 H   0  0  0  0  0  0  0  0  0  0  0  0
    0.2820   12.2525    1.6850 H   0  0  0  0  0  0  0  0  0  0  0  0
    2.0624   11.7829    1.6873 H   0  0  0  0  0  0  0  0  0  0  0  0
    1.5051   14.2416    0.9197 H   0  0  0  0  0  0  0  0  0  0  0  0
    1.2301   12.0748   -2.4755 H   0  0  0  0  0  0  0  0  0  0  0  0
    4.2500   12.1585   -1.8649 H   0  0  0  0  0  0  0  0  0  0  0  0
    3.4416   11.3243   -3.2653 H   0  0  0  0  0  0  0  0  0  0  0  0
    4.4849   13.4680   -3.9279 H   0  0  0  0  0  0  0  0  0  0  0  0
    2.6904   13.4594   -4.1433 H   0  0  0  0  0  0  0  0  0  0  0  0
    3.3436   15.5673   -3.2033 H   0  0  0  0  0  0  0  0  0  0  0  0
    4.4920   15.6070   -1.1940 H   0  0  0  0  0  0  0  0  0  0  0  0
   -0.0232   15.1122   -1.9764 H   0  0  0  0  0  0  0  0  0  0  0  0
    1.0464   15.8269   -3.2300 H   0  0  0  0  0  0  0  0  0  0  0  0
    0.7183   14.0609   -3.2300 H   0  0  0  0  0  0  0  0  0  0  0  0
    2.1503   15.6128    0.3108 H   0  0  0  0  0  0  0  0  0  0  0  0
    3.1020   16.5027   -0.9257 H   0  0  0  0  0  0  0  0  0  0  0  0
    1.3087   16.6075   -0.9257 H   0  0  0  0  0  0  0  0  0  0  0  0
    3.2111   10.3308    0.7250 H   0  0  0  0  0  0  0  0  0  0  0  0
    3.5471    9.2890   -0.6993 H   0  0  0  0  0  0  0  0  0  0  0  0
    4.0719   11.0069   -0.6993 H   0  0  0  0  0  0  0  0  0  0  0  0
    2.0388    9.8232   -2.9766 H   0  0  0  0  0  0  0  0  0  0  0  0
    1.8681    8.6534   -1.5491 H   0  0  0  0  0  0  0  0  0  0  0  0
   -0.3247   10.2463   -2.9059 H   0  0  0  0  0  0  0  0  0  0  0  0
   -0.0865    8.4550   -2.8734 H   0  0  0  0  0  0  0  0  0  0  0  0
   -0.3415    8.2202    0.8471 H   0  0  0  0  0  0  0  0  0  0  0  0
   -0.8987    7.1740   -0.5026 H   0  0  0  0  0  0  0  0  0  0  0  0
    0.7757    7.8242   -0.5026 H   0  0  0  0  0  0  0  0  0  0  0  0
  1  2  1  0
  2  3  1  0
  3  4  1  0
  4  5  1  0
  5  6  1  0
  6  7  1  0
  7  8  1  0
  7  9  1  0
  2 10  1  0
 10 11  1  0
 11 12  1  0
 12 13  1  0
 13 14  1  6
 13 15  1  0
 15 16  1  0
 16 17  1  0
 17 18  2  0
 18 19  1  0
 19 20  1  0
 20 21  1  0
 21 22  1  0
 22 23  1  0
 22 24  1  0
 24 25  1  0
 24 26  1  0
 19 27  1  0
 27 28  1  1
 27 29  1  0
 29 30  1  0
 30 31  1  0
 31 32  1  1
  7  5  1  0
 31 10  1  0
 31 13  1  0
 27 15  1  0
 24 18  1  0
  1 33  1  0
  1 34  1  0
  1 35  1  0
  2 36  1  1
  3 37  1  0
  3 38  1  0
  4 39  1  0
  4 40  1  0
  5 41  1  6
  8 42  1  0
  8 43  1  0
  8 44  1  0
  9 45  1  0
  9 46  1  0
  9 47  1  0
 10 48  1  6
 11 49  1  0
 11 50  1  0
 12 51  1  0
 12 52  1  0
 14 53  1  0
 14 54  1  0
 14 55  1  0
 15 56  1  1
 16 57  1  0
 16 58  1  0
 17 59  1  0
 19 60  1  6
 20 61  1  0
 20 62  1  0
 21 63  1  0
 21 64  1  0
 22 65  1  6
 23 66  1  0
 25 67  1  0
 25 68  1  0
 25 69  1  0
 26 70  1  0
 26 71  1  0
 26 72  1  0
 28 73  1  0
 28 74  1  0
 28 75  1  0
 29 76  1  0
 29 77  1  0
 30 78  1  0
 30 79  1  0
 32 80  1  0
 32 81  1  0
 32 82  1  0
M  END
>  <meeko>  (12) 
{"is_sidechain": [false], "intermolecular_energy": 2.731, "internal_energy": -0.839}

$$$$
EPH_relaxed_0001_pdb2pqr_Repair_324_r2_0001_out
     RDKit          3D

 82 86  0  0  0  0  0  0  0  0999 V2000
    0.4790   17.7720   -0.1070 C   0  0  0  0  0  0  0  0  0  0  0  0
    1.2140   17.2750   -1.3550 C   0  0  2  0  0  0  0  0  0  0  0  0
    1.2190   18.3260   -2.4830 C   0  0  0  0  0  0  0  0  0  0  0  0
    2.4420   19.2470   -2.4610 C   0  0  0  0  0  0  0  0  0  0  0  0
    3.5890   18.6650   -3.2310 C   0  0  2  0  0  0  0  0  0  0  0  0
    3.6570   17.2330   -3.2110 O   0  0  0  0  0  0  0  0  0  0  0  0
    4.7440   17.9280   -2.5800 C   0  0  0  0  0  0  0  0  0  0  0  0
    4.8110   17.7340   -1.0970 C   0  0  0  0  0  0  0  0  0  0  0  0
    6.0380   17.8260   -3.3260 C   0  0  0  0  0  0  0  0  0  0  0  0
    0.5800   15.9820   -1.8510 C   0  0  1  0  0  0  0  0  0  0  0  0
    0.1870   16.0460   -3.3520 C   0  0  0  0  0  0  0  0  0  0  0  0
    0.4170   14.6280   -3.9350 C   0  0  0  0  0  0  0  0  0  0  0  0
    0.6120   13.7230   -2.6960 C   0  0  1  0  0  0  0  0  0  0  0  0
   -0.8330   13.4180   -2.1910 C   0  0  0  0  0  0  0  0  0  0  0  0
    1.4340   12.4120   -2.9200 C   0  0  2  0  0  0  0  0  0  0  0  0
    0.8120   11.4130   -3.9110 C   0  0  0  0  0  0  0  0  0  0  0  0
   -0.1040   10.4020   -3.3070 C   0  0  0  0  0  0  0  0  0  0  0  0
   -0.1970   10.1160   -1.9940 C   0  0  0  0  0  0  0  0  0  0  0  0
    0.7450   10.7730   -0.9770 C   0  0  1  0  0  0  0  0  0  0  0  0
    1.3010    9.6920   -0.0130 C   0  0  0  0  0  0  0  0  0  0  0  0
    0.1960    8.8790    0.6540 C   0  0  0  0  0  0  0  0  0  0  0  0
   -0.6830    8.1940   -0.3890 C   0  0  2  0  0  0  0  0  0  0  0  0
    0.0950    7.2050   -1.0700 O   0  0  0  0  0  0  0  0  0  0  0  0
   -1.2920    9.1830   -1.4210 C   0  0  0  0  0  0  0  0  0  0  0  0
   -2.3650   10.0610   -0.7310 C   0  0  0  0  0  0  0  0  0  0  0  0
   -2.0400    8.3500   -2.4970 C   0  0  0  0  0  0  0  0  0  0  0  0
    1.8880   11.6950   -1.5850 C   0  0  1  0  0  0  0  0  0  0  0  0
    3.1340   10.8300   -1.9440 C   0  0  0  0  0  0  0  0  0  0  0  0
    2.3600   12.7190   -0.4860 C   0  0  0  0  0  0  0  0  0  0  0  0
    1.5830   14.0460   -0.3940 C   0  0  0  0  0  0  0  0  0  0  0  0
    1.4370   14.6930   -1.7740 C   0  0  2  0  0  0  0  0  0  0  0  0
    2.8740   15.0320   -2.2980 C   0  0  0  0  0  0  0  0  0  0  0  0
    1.0032   17.4175    0.7928 H   0  0  0  0  0  0  0  0  0  0  0  0
    0.4560   18.8718   -0.1086 H   0  0  0  0  0  0  0  0  0  0  0  0
   -0.5502   17.3837   -0.1086 H   0  0  0  0  0  0  0  0  0  0  0  0
    2.2606   17.0906   -1.0711 H   0  0  0  0  0  0  0  0  0  0  0  0
    1.1983   17.7993   -3.4485 H   0  0  0  0  0  0  0  0  0  0  0  0
    0.3346   18.9626   -2.3330 H   0  0  0  0  0  0  0  0  0  0  0  0
    2.1677   20.2144   -2.9070 H   0  0  0  0  0  0  0  0  0  0  0  0
    2.7591   19.3706   -1.4150 H   0  0  0  0  0  0  0  0  0  0  0  0
    3.5560   19.4934   -3.9539 H   0  0  0  0  0  0  0  0  0  0  0  0
    4.4921   18.6575   -0.5916 H   0  0  0  0  0  0  0  0  0  0  0  0
    4.1461   16.9078   -0.8049 H   0  0  0  0  0  0  0  0  0  0  0  0
    5.8440   17.4942   -0.8049 H   0  0  0  0  0  0  0  0  0  0  0  0
    6.8701   17.7604   -2.6095 H   0  0  0  0  0  0  0  0  0  0  0  0
    6.0268   16.9260   -3.9583 H   0  0  0  0  0  0  0  0  0  0  0  0
    6.1679   18.7167   -3.9583 H   0  0  0  0  0  0  0  0  0  0  0  0
   -0.2666   15.9129   -1.1521 H   0  0  0  0  0  0  0  0  0  0  0  0
   -0.8704   16.3310   -3.4550 H   0  0  0  0  0  0  0  0  0  0  0  0
    0.7892   16.7954   -3.8865 H   0  0  0  0  0  0  0  0  0  0  0  0
   -0.4558   14.3025   -4.5200 H   0  0  0  0  0  0  0  0  0  0  0  0
    1.2793   14.5925   -4.6171 H   0  0  0  0  0  0  0  0  0  0  0  0
   -0.8441   13.4156   -1.0911 H   0  0  0  0  0  0  0  0  0  0  0  0
   -1.5221   14.1905   -2.5630 H   0  0  0  0  0  0  0  0  0  0  0  0
   -1.1511   12.4329   -2.5630 H   0  0  0  0  0  0  0  0  0  0  0  0
    2.3465   12.7867   -3.4068 H   0  0  0  0  0  0  0  0  0  0  0  0
    0.2416   11.9853   -4.6574 H   0  0  0  0  0  0  0  0  0  0  0  0
    1.6519   10.8455   -4.3382 H   0  0  0  0  0  0  0  0  0  0  0  0
   -0.7587    9.8430   -3.9917 H   0  0  0  0  0  0  0  0  0  0  0  0
    0.1320   11.4938   -0.4160 H   0  0  0  0  0  0  0  0  0  0  0  0
    1.9460    9.0082   -0.5843 H   0  0  0  0  0  0  0  0  0  0  0  0
    1.8610   10.2085    0.7805 H   0  0  0  0  0  0  0  0  0  0  0  0
    0.6518    8.1136    1.2993 H   0  0  0  0  0  0  0  0  0  0  0  0
   -0.4307    9.5600    1.2485 H   0  0  0  0  0  0  0  0  0  0  0  0
   -1.5298    7.7354    0.1426 H   0  0  0  0  0  0  0  0  0  0  0  0
   -0.2780    7.1010   -1.9620 H   0  0  0  0  0  0  0  0  0  0  0  0
   -2.2614    9.9763    0.3608 H   0  0  0  0  0  0  0  0  0  0  0  0
   -2.2291   11.1103   -1.0319 H   0  0  0  0  0  0  0  0  0  0  0  0
   -3.3666    9.7201   -1.0319 H   0  0  0  0  0  0  0  0  0  0  0  0
   -2.6968    7.6186   -2.0033 H   0  0  0  0  0  0  0  0  0  0  0  0
   -2.6448    9.0207   -3.1249 H   0  0  0  0  0  0  0  0  0  0  0  0
   -1.3083    7.8206   -3.1249 H   0  0  0  0  0  0  0  0  0  0  0  0
    3.6233   10.4903   -1.0192 H   0  0  0  0  0  0  0  0  0  0  0  0
    2.8168    9.9568   -2.5331 H   0  0  0  0  0  0  0  0  0  0  0  0
    3.8412   11.4324   -2.5331 H   0  0  0  0  0  0  0  0  0  0  0  0
    2.2814   12.2189    0.4906 H   0  0  0  0  0  0  0  0  0  0  0  0
    3.3819   13.0033   -0.7772 H   0  0  0  0  0  0  0  0  0  0  0  0
    0.5825   13.8492    0.0187 H   0  0  0  0  0  0  0  0  0  0  0  0
    2.1405   14.7341    0.2585 H   0  0  0  0  0  0  0  0  0  0  0  0
    3.5479   15.1910   -1.4433 H   0  0  0  0  0  0  0  0  0  0  0  0
    3.2477   14.1974   -2.9093 H   0  0  0  0  0  0  0  0  0  0  0  0
    2.8353   15.9457   -2.9093 H   0  0  0  0  0  0  0  0  0  0  0  0
  1  2  1  0
  2  3  1  0
  3  4  1  0
  4  5  1  0
  5  6  1  0
  6  7  1  0
  7  8  1  0
  7  9  1  0
  2 10  1  0
 10 11  1  0
 11 12  1  0
 12 13  1  0
 13 14  1  1
 13 15  1  0
 15 16  1  0
 16 17  1  0
 17 18  2  0
 18 19  1  0
 19 20  1  0
 20 21  1  0
 21 22  1  0
 22 23  1  0
 22 24  1  0
 24 25  1  0
 24 26  1  0
 19 27  1  0
 27 28  1  6
 27 29  1  0
 29 30  1  0
 30 31  1  0
 31 32  1  6
  7  5  1  0
 31 10  1  0
 31 13  1  0
 27 15  1  0
 24 18  1  0
  1 33  1  0
  1 34  1  0
  1 35  1  0
  2 36  1  1
  3 37  1  0
  3 38  1  0
  4 39  1  0
  4 40  1  0
  5 41  1  6
  8 42  1  0
  8 43  1  0
  8 44  1  0
  9 45  1  0
  9 46  1  0
  9 47  1  0
 10 48  1  1
 11 49  1  0
 11 50  1  0
 12 51  1  0
 12 52  1  0
 14 53  1  0
 14 54  1  0
 14 55  1  0
 15 56  1  6
 16 57  1  0
 16 58  1  0
 17 59  1  0
 19 60  1  1
 20 61  1  0
 20 62  1  0
 21 63  1  0
 21 64  1  0
 22 65  1  1
 23 66  1  0
 25 67  1  0
 25 68  1  0
 25 69  1  0
 26 70  1  0
 26 71  1  0
 26 72  1  0
 28 73  1  0
 28 74  1  0
 28 75  1  0
 29 76  1  0
 29 77  1  0
 30 78  1  0
 30 79  1  0
 32 80  1  0
 32 81  1  0
 32 82  1  0
M  END
>  <meeko>  (13) 
{"is_sidechain": [false], "intermolecular_energy": 2.731, "internal_energy": -0.839}

$$$$
EPH_relaxed_0001_pdb2pqr_Repair_324_r2_0001_out
     RDKit          3D

 82 86  0  0  0  0  0  0  0  0999 V2000
    0.3270   10.0910    1.4240 C   0  0  0  0  0  0  0  0  0  0  0  0
    0.5640   10.4010   -0.0560 C   0  0  2  0  0  0  0  0  0  0  0  0
    1.0510    9.1640   -0.8380 C   0  0  0  0  0  0  0  0  0  0  0  0
    0.0660    8.6850   -1.9070 C   0  0  0  0  0  0  0  0  0  0  0  0
   -1.2520    8.2920   -1.3110 C   0  0  2  0  0  0  0  0  0  0  0  0
   -2.3780    8.4700   -2.1790 O   0  0  0  0  0  0  0  0  0  0  0  0
   -2.3560    9.2840   -0.9960 C   0  0  0  0  0  0  0  0  0  0  0  0
   -2.1920   10.7470   -1.2660 C   0  0  0  0  0  0  0  0  0  0  0  0
   -3.3910    8.9040    0.0170 C   0  0  0  0  0  0  0  0  0  0  0  0
    1.5740   11.5350   -0.1940 C   0  0  1  0  0  0  0  0  0  0  0  0
    2.9050   11.0740   -0.8450 C   0  0  0  0  0  0  0  0  0  0  0  0
    3.4160   12.2590   -1.7050 C   0  0  0  0  0  0  0  0  0  0  0  0
    2.5520   13.4630   -1.2630 C   0  0  1  0  0  0  0  0  0  0  0  0
    3.2140   13.9700    0.0570 C   0  0  0  0  0  0  0  0  0  0  0  0
    2.3880   14.6160   -2.3060 C   0  0  2  0  0  0  0  0  0  0  0  0
    3.6930   15.3280   -2.7020 C   0  0  0  0  0  0  0  0  0  0  0  0
    4.0510   16.5130   -1.8670 C   0  0  0  0  0  0  0  0  0  0  0  0
    3.2200   17.1590   -1.0280 C   0  0  0  0  0  0  0  0  0  0  0  0
    1.7400   16.7660   -0.9280 C   0  0  1  0  0  0  0  0  0  0  0  0
    0.8610   18.0430   -0.9670 C   0  0  0  0  0  0  0  0  0  0  0  0
    1.2660   19.0650    0.0900 C   0  0  0  0  0  0  0  0  0  0  0  0
    2.7270   19.4750   -0.0780 C   0  0  2  0  0  0  0  0  0  0  0  0
    2.8660   20.1930   -1.3080 O   0  0  0  0  0  0  0  0  0  0  0  0
    3.7070   18.2680   -0.0640 C   0  0  0  0  0  0  0  0  0  0  0  0
    3.7800   17.6740    1.3640 C   0  0  0  0  0  0  0  0  0  0  0  0
    5.1290   18.8040   -0.3850 C   0  0  0  0  0  0  0  0  0  0  0  0
    1.2470   15.6540   -1.9510 C   0  0  1  0  0  0  0  0  0  0  0  0
    0.8180   16.3200   -3.2940 C   0  0  0  0  0  0  0  0  0  0  0  0
   -0.0380   14.9550   -1.3700 C   0  0  0  0  0  0  0  0  0  0  0  0
    0.1870   13.7470   -0.4410 C   0  0  0  0  0  0  0  0  0  0  0  0
    1.1650   12.7480   -1.0670 C   0  0  2  0  0  0  0  0  0  0  0  0
    0.5160   12.2050   -2.3850 C   0  0  0  0  0  0  0  0  0  0  0  0
    0.8793   10.8134    2.0430 H   0  0  0  0  0  0  0  0  0  0  0  0
   -0.7478   10.1639    1.6464 H   0  0  0  0  0  0  0  0  0  0  0  0
    0.6792    9.0729    1.6464 H   0  0  0  0  0  0  0  0  0  0  0  0
   -0.4001   10.7065   -0.4886 H   0  0  0  0  0  0  0  0  0  0  0  0
    2.0019    9.4164   -1.3300 H   0  0  0  0  0  0  0  0  0  0  0  0
    1.1590    8.3459   -0.1107 H   0  0  0  0  0  0  0  0  0  0  0  0
   -0.0980    9.4975   -2.6302 H   0  0  0  0  0  0  0  0  0  0  0  0
    0.4972    7.8004   -2.3985 H   0  0  0  0  0  0  0  0  0  0  0  0
   -0.7726    7.5057   -0.7094 H   0  0  0  0  0  0  0  0  0  0  0  0
   -2.1310   11.2913   -0.3121 H   0  0  0  0  0  0  0  0  0  0  0  0
   -1.2697   10.9124   -1.8422 H   0  0  0  0  0  0  0  0  0  0  0  0
   -3.0548   11.1125   -1.8422 H   0  0  0  0  0  0  0  0  0  0  0  0
   -2.9858    9.0528    1.0288 H   0  0  0  0  0  0  0  0  0  0  0  0
   -4.2833    9.5331   -0.1168 H   0  0  0  0  0  0  0  0  0  0  0  0
   -3.6643    7.8469   -0.1168 H   0  0  0  0  0  0  0  0  0  0  0  0
    1.6550   11.8396    0.8599 H   0  0  0  0  0  0  0  0  0  0  0  0
    3.6414   10.8256   -0.0665 H   0  0  0  0  0  0  0  0  0  0  0  0
    2.7531   10.1754   -1.4610 H   0  0  0  0  0  0  0  0  0  0  0  0
    4.4808   12.4517   -1.5071 H   0  0  0  0  0  0  0  0  0  0  0  0
    3.3317   12.0586   -2.7833 H   0  0  0  0  0  0  0  0  0  0  0  0
    2.6734   13.5559    0.9209 H   0  0  0  0  0  0  0  0  0  0  0  0
    4.2636   13.6426    0.0901 H   0  0  0  0  0  0  0  0  0  0  0  0
    3.1714   15.0687    0.0901 H   0  0  0  0  0  0  0  0  0  0  0  0
    2.0584   14.0753   -3.2055 H   0  0  0  0  0  0  0  0  0  0  0  0
    4.5138   14.5994   -2.6280 H   0  0  0  0  0  0  0  0  0  0  0  0
    3.5343   15.7103   -3.7212 H   0  0  0  0  0  0  0  0  0  0  0  0
    5.0815   16.8901   -1.9441 H   0  0  0  0  0  0  0  0  0  0  0  0
    1.6243   16.2631    0.0435 H   0  0  0  0  0  0  0  0  0  0  0  0
    0.9563   18.5063   -1.9601 H   0  0  0  0  0  0  0  0  0  0  0  0
   -0.1759   17.7407   -0.7587 H   0  0  0  0  0  0  0  0  0  0  0  0
    0.6286   19.9561   -0.0082 H   0  0  0  0  0  0  0  0  0  0  0  0
    1.1414   18.6101    1.0837 H   0  0  0  0  0  0  0  0  0  0  0  0
    2.9937   20.1061    0.7825 H   0  0  0  0  0  0  0  0  0  0  0  0
    3.7300   19.9610   -1.6890 H   0  0  0  0  0  0  0  0  0  0  0  0
    3.6806   18.4827    2.1030 H   0  0  0  0  0  0  0  0  0  0  0  0
    2.9642   16.9491    1.5017 H   0  0  0  0  0  0  0  0  0  0  0  0
    4.7471   17.1682    1.5017 H   0  0  0  0  0  0  0  0  0  0  0  0
    5.6653   19.0061    0.5539 H   0  0  0  0  0  0  0  0  0  0  0  0
    5.6812   18.0523   -0.9681 H   0  0  0  0  0  0  0  0  0  0  0  0
    5.0476   19.7332   -0.9681 H   0  0  0  0  0  0  0  0  0  0  0  0
    0.2334   17.2276   -3.0829 H   0  0  0  0  0  0  0  0  0  0  0  0
    1.7140   16.5875   -3.8733 H   0  0  0  0  0  0  0  0  0  0  0  0
    0.2039   15.6148   -3.8733 H   0  0  0  0  0  0  0  0  0  0  0  0
   -0.5999   15.7112   -0.8021 H   0  0  0  0  0  0  0  0  0  0  0  0
   -0.5654   14.5495   -2.2460 H   0  0  0  0  0  0  0  0  0  0  0  0
    0.5976   14.1008    0.5162 H   0  0  0  0  0  0  0  0  0  0  0  0
   -0.7773   13.2417   -0.2833 H   0  0  0  0  0  0  0  0  0  0  0  0
   -0.3053   11.5179   -2.1332 H   0  0  0  0  0  0  0  0  0  0  0  0
    0.1224   13.0467   -2.9737 H   0  0  0  0  0  0  0  0  0  0  0  0
    1.2751   11.6690   -2.9737 H   0  0  0  0  0  0  0  0  0  0  0  0
  1  2  1  0
  2  3  1  0
  3  4  1  0
  4  5  1  0
  5  6  1  0
  6  7  1  0
  7  8  1  0
  7  9  1  0
  2 10  1  0
 10 11  1  0
 11 12  1  0
 12 13  1  0
 13 14  1  1
 13 15  1  0
 15 16  1  0
 16 17  1  0
 17 18  2  0
 18 19  1  0
 19 20  1  0
 20 21  1  0
 21 22  1  0
 22 23  1  0
 22 24  1  0
 24 25  1  0
 24 26  1  0
 19 27  1  0
 27 28  1  6
 27 29  1  0
 29 30  1  0
 30 31  1  0
 31 32  1  6
  7  5  1  0
 31 10  1  0
 31 13  1  0
 27 15  1  0
 24 18  1  0
  1 33  1  0
  1 34  1  0
  1 35  1  0
  2 36  1  6
  3 37  1  0
  3 38  1  0
  4 39  1  0
  4 40  1  0
  5 41  1  1
  8 42  1  0
  8 43  1  0
  8 44  1  0
  9 45  1  0
  9 46  1  0
  9 47  1  0
 10 48  1  1
 11 49  1  0
 11 50  1  0
 12 51  1  0
 12 52  1  0
 14 53  1  0
 14 54  1  0
 14 55  1  0
 15 56  1  6
 16 57  1  0
 16 58  1  0
 17 59  1  0
 19 60  1  1
 20 61  1  0
 20 62  1  0
 21 63  1  0
 21 64  1  0
 22 65  1  1
 23 66  1  0
 25 67  1  0
 25 68  1  0
 25 69  1  0
 26 70  1  0
 26 71  1  0
 26 72  1  0
 28 73  1  0
 28 74  1  0
 28 75  1  0
 29 76  1  0
 29 77  1  0
 30 78  1  0
 30 79  1  0
 32 80  1  0
 32 81  1  0
 32 82  1  0
M  END
>  <meeko>  (14) 
{"is_sidechain": [false], "intermolecular_energy": 2.731, "internal_energy": -0.839}

$$$$
EPH_relaxed_0001_pdb2pqr_Repair_324_r2_0001_out
     RDKit          3D

 82 86  0  0  0  0  0  0  0  0999 V2000
    4.2760   17.5170    1.2130 C   0  0  0  0  0  0  0  0  0  0  0  0
    3.2640   17.8620    0.1170 C   0  0  2  0  0  0  0  0  0  0  0  0
    2.6250   19.2490    0.3330 C   0  0  0  0  0  0  0  0  0  0  0  0
    2.6090   20.1220   -0.9250 C   0  0  0  0  0  0  0  0  0  0  0  0
    2.1010   19.3670   -2.1170 C   0  0  2  0  0  0  0  0  0  0  0  0
    1.6660   20.1920   -3.2060 O   0  0  0  0  0  0  0  0  0  0  0  0
    0.6530   19.3950   -2.5690 C   0  0  0  0  0  0  0  0  0  0  0  0
   -0.3780   20.1940   -1.8370 C   0  0  0  0  0  0  0  0  0  0  0  0
    0.1480   18.2710   -3.4190 C   0  0  0  0  0  0  0  0  0  0  0  0
    2.1790   16.7930    0.0570 C   0  0  1  0  0  0  0  0  0  0  0  0
    0.7680   17.3870   -0.1950 C   0  0  0  0  0  0  0  0  0  0  0  0
    0.0010   16.3640   -1.0720 C   0  0  0  0  0  0  0  0  0  0  0  0
    0.8650   15.0820   -1.0200 C   0  0  1  0  0  0  0  0  0  0  0  0
    0.4850   14.3980    0.3310 C   0  0  0  0  0  0  0  0  0  0  0  0
    0.7160   14.0990   -2.2260 C   0  0  2  0  0  0  0  0  0  0  0  0
   -0.6880   13.4940   -2.4060 C   0  0  0  0  0  0  0  0  0  0  0  0
   -0.9230   12.2060   -1.6900 C   0  0  0  0  0  0  0  0  0  0  0  0
    0.0330   11.4150   -1.1670 C   0  0  0  0  0  0  0  0  0  0  0  0
    1.5190   11.7450   -1.3580 C   0  0  1  0  0  0  0  0  0  0  0  0
    2.2830   10.4630   -1.7830 C   0  0  0  0  0  0  0  0  0  0  0  0
    2.0620    9.3030   -0.8170 C   0  0  0  0  0  0  0  0  0  0  0  0
    0.5780    8.9670   -0.6990 C   0  0  2  0  0  0  0  0  0  0  0  0
    0.1200    8.4510   -1.9530 O   0  0  0  0  0  0  0  0  0  0  0  0
   -0.2950   10.1850   -0.2850 C   0  0  0  0  0  0  0  0  0  0  0  0
   -0.0070   10.5550    1.1910 C   0  0  0  0  0  0  0  0  0  0  0  0
   -1.7830    9.7460   -0.3400 C   0  0  0  0  0  0  0  0  0  0  0  0
    1.8380   12.9860   -2.2980 C   0  0  1  0  0  0  0  0  0  0  0  0
    1.9110   12.5220   -3.7850 C   0  0  0  0  0  0  0  0  0  0  0  0
    3.2640   13.5500   -1.9380 C   0  0  0  0  0  0  0  0  0  0  0  0
    3.3310   14.6060   -0.8190 C   0  0  0  0  0  0  0  0  0  0  0  0
    2.3020   15.7170   -1.0510 C   0  0  2  0  0  0  0  0  0  0  0  0
    2.6720   16.4380   -2.3920 C   0  0  0  0  0  0  0  0  0  0  0  0
    3.8157   17.6739    2.1997 H   0  0  0  0  0  0  0  0  0  0  0  0
    4.5799   16.4645    1.1134 H   0  0  0  0  0  0  0  0  0  0  0  0
    5.1595   18.1647    1.1134 H   0  0  0  0  0  0  0  0  0  0  0  0
    3.8083   17.8940   -0.8384 H   0  0  0  0  0  0  0  0  0  0  0  0
    1.5875   19.1049    0.6689 H   0  0  0  0  0  0  0  0  0  0  0  0
    3.2391   19.7730    1.0802 H   0  0  0  0  0  0  0  0  0  0  0  0
    1.9569   20.9901   -0.7483 H   0  0  0  0  0  0  0  0  0  0  0  0
    3.6408   20.4405   -1.1348 H   0  0  0  0  0  0  0  0  0  0  0  0
    2.7957   18.5376   -1.9185 H   0  0  0  0  0  0  0  0  0  0  0  0
   -0.2296   20.0790   -0.7531 H   0  0  0  0  0  0  0  0  0  0  0  0
   -0.2812   21.2552   -2.1098 H   0  0  0  0  0  0  0  0  0  0  0  0
   -1.3815   19.8354   -2.1098 H   0  0  0  0  0  0  0  0  0  0  0  0
   -0.2170   17.4585   -2.7735 H   0  0  0  0  0  0  0  0  0  0  0  0
   -0.6743   18.6323   -4.0540 H   0  0  0  0  0  0  0  0  0  0  0  0
    0.9642   17.8962   -4.0540 H   0  0  0  0  0  0  0  0  0  0  0  0
    2.3186   16.3330    1.0464 H   0  0  0  0  0  0  0  0  0  0  0  0
    0.2434   17.5351    0.7604 H   0  0  0  0  0  0  0  0  0  0  0  0
    0.8349   18.3641   -0.6958 H   0  0  0  0  0  0  0  0  0  0  0  0
   -1.0013   16.1740   -0.6606 H   0  0  0  0  0  0  0  0  0  0  0  0
   -0.1491   16.7250   -2.1002 H   0  0  0  0  0  0  0  0  0  0  0  0
    0.8316   15.0219    1.1681 H   0  0  0  0  0  0  0  0  0  0  0  0
   -0.6073   14.2813    0.3884 H   0  0  0  0  0  0  0  0  0  0  0  0
    0.9630   13.4089    0.3884 H   0  0  0  0  0  0  0  0  0  0  0  0
    0.8685   14.7623   -3.0901 H   0  0  0  0  0  0  0  0  0  0  0  0
   -1.4231   14.2257   -2.0396 H   0  0  0  0  0  0  0  0  0  0  0  0
   -0.7876   13.2690   -3.4781 H   0  0  0  0  0  0  0  0  0  0  0  0
   -1.9661   11.8745   -1.5801 H   0  0  0  0  0  0  0  0  0  0  0  0
    1.8832   12.0891   -0.3787 H   0  0  0  0  0  0  0  0  0  0  0  0
    1.9362   10.1608   -2.7822 H   0  0  0  0  0  0  0  0  0  0  0  0
    3.3575   10.6987   -1.7815 H   0  0  0  0  0  0  0  0  0  0  0  0
    2.6030    8.4192   -1.1859 H   0  0  0  0  0  0  0  0  0  0  0  0
    2.4357    9.5961    0.1752 H   0  0  0  0  0  0  0  0  0  0  0  0
    0.4723    8.2189    0.1004 H   0  0  0  0  0  0  0  0  0  0  0  0
    0.8660    7.9870   -2.3700 H   0  0  0  0  0  0  0  0  0  0  0  0
   -0.5459    9.8626    1.8544 H   0  0  0  0  0  0  0  0  0  0  0  0
    1.0735   10.4809    1.3835 H   0  0  0  0  0  0  0  0  0  0  0  0
   -0.3440   11.5843    1.3835 H   0  0  0  0  0  0  0  0  0  0  0  0
   -2.1697    9.6319    0.6834 H   0  0  0  0  0  0  0  0  0  0  0  0
   -2.3710   10.5089   -0.8712 H   0  0  0  0  0  0  0  0  0  0  0  0
   -1.8627    8.7861   -0.8712 H   0  0  0  0  0  0  0  0  0  0  0  0
    2.0819   11.4360   -3.8223 H   0  0  0  0  0  0  0  0  0  0  0  0
    0.9641   12.7618   -4.2908 H   0  0  0  0  0  0  0  0  0  0  0  0
    2.7385   13.0409   -4.2908 H   0  0  0  0  0  0  0  0  0  0  0  0
    3.8904   12.6995   -1.6309 H   0  0  0  0  0  0  0  0  0  0  0  0
    3.6052   14.0700   -2.8453 H   0  0  0  0  0  0  0  0  0  0  0  0
    3.1251   14.1207    0.1465 H   0  0  0  0  0  0  0  0  0  0  0  0
    4.3360   15.0533   -0.8186 H   0  0  0  0  0  0  0  0  0  0  0  0
    3.1638   17.3964   -2.1694 H   0  0  0  0  0  0  0  0  0  0  0  0
    3.3550   15.8018   -2.9740 H   0  0  0  0  0  0  0  0  0  0  0  0
    1.7569   16.6219   -2.9740 H   0  0  0  0  0  0  0  0  0  0  0  0
  1  2  1  0
  2  3  1  0
  3  4  1  0
  4  5  1  0
  5  6  1  0
  6  7  1  0
  7  8  1  0
  7  9  1  0
  2 10  1  0
 10 11  1  0
 11 12  1  0
 12 13  1  0
 13 14  1  1
 13 15  1  0
 15 16  1  0
 16 17  1  0
 17 18  2  0
 18 19  1  0
 19 20  1  0
 20 21  1  0
 21 22  1  0
 22 23  1  0
 22 24  1  0
 24 25  1  0
 24 26  1  0
 19 27  1  0
 27 28  1  6
 27 29  1  0
 29 30  1  0
 30 31  1  0
 31 32  1  6
  7  5  1  0
 31 10  1  0
 31 13  1  0
 27 15  1  0
 24 18  1  0
  1 33  1  0
  1 34  1  0
  1 35  1  0
  2 36  1  6
  3 37  1  0
  3 38  1  0
  4 39  1  0
  4 40  1  0
  5 41  1  6
  8 42  1  0
  8 43  1  0
  8 44  1  0
  9 45  1  0
  9 46  1  0
  9 47  1  0
 10 48  1  1
 11 49  1  0
 11 50  1  0
 12 51  1  0
 12 52  1  0
 14 53  1  0
 14 54  1  0
 14 55  1  0
 15 56  1  6
 16 57  1  0
 16 58  1  0
 17 59  1  0
 19 60  1  1
 20 61  1  0
 20 62  1  0
 21 63  1  0
 21 64  1  0
 22 65  1  1
 23 66  1  0
 25 67  1  0
 25 68  1  0
 25 69  1  0
 26 70  1  0
 26 71  1  0
 26 72  1  0
 28 73  1  0
 28 74  1  0
 28 75  1  0
 29 76  1  0
 29 77  1  0
 30 78  1  0
 30 79  1  0
 32 80  1  0
 32 81  1  0
 32 82  1  0
M  END
>  <meeko>  (15) 
{"is_sidechain": [false], "intermolecular_energy": 2.731, "internal_energy": -0.839}

$$$$
EPH_relaxed_0001_pdb2pqr_Repair_324_r2_0001_out
     RDKit          3D

 82 86  0  0  0  0  0  0  0  0999 V2000
   -0.7830   10.7960   -1.8700 C   0  0  0  0  0  0  0  0  0  0  0  0
    0.4030   10.3800   -0.9950 C   0  0  2  0  0  0  0  0  0  0  0  0
   -0.0330   10.0160    0.4390 C   0  0  0  0  0  0  0  0  0  0  0  0
    0.7760   10.7290    1.5270 C   0  0  0  0  0  0  0  0  0  0  0  0
   -0.0410   11.7700    2.2320 C   0  0  2  0  0  0  0  0  0  0  0  0
    0.5210   13.0880    2.2080 O   0  0  0  0  0  0  0  0  0  0  0  0
    0.4110   12.4690    3.5000 C   0  0  0  0  0  0  0  0  0  0  0  0
    1.7280   12.1550    4.1380 C   0  0  0  0  0  0  0  0  0  0  0  0
   -0.6260   13.0930    4.3810 C   0  0  0  0  0  0  0  0  0  0  0  0
    1.4380   11.4980   -0.9570 C   0  0  1  0  0  0  0  0  0  0  0  0
    2.7730   11.1000   -1.6420 C   0  0  0  0  0  0  0  0  0  0  0  0
    3.3260   12.3800   -2.3210 C   0  0  0  0  0  0  0  0  0  0  0  0
    2.4780   13.5310   -1.7320 C   0  0  1  0  0  0  0  0  0  0  0  0
    3.1240   13.8360   -0.3440 C   0  0  0  0  0  0  0  0  0  0  0  0
    2.3590   14.8200   -2.6090 C   0  0  2  0  0  0  0  0  0  0  0  0
    3.6870   15.5500   -2.8790 C   0  0  0  0  0  0  0  0  0  0  0  0
    4.0520   16.6000   -1.8830 C   0  0  0  0  0  0  0  0  0  0  0  0
    3.2170   17.1430   -0.9770 C   0  0  0  0  0  0  0  0  0  0  0  0
    1.7280   16.7750   -0.9580 C   0  0  1  0  0  0  0  0  0  0  0  0
    0.8770   18.0660   -0.8360 C   0  0  0  0  0  0  0  0  0  0  0  0
    1.2810   18.9230    0.3590 C   0  0  0  0  0  0  0  0  0  0  0  0
    2.7540   19.3170    0.2750 C   0  0  2  0  0  0  0  0  0  0  0  0
    2.9320   20.1940   -0.8420 O   0  0  0  0  0  0  0  0  0  0  0  0
    3.7080   18.0980    0.1390 C   0  0  0  0  0  0  0  0  0  0  0  0
    3.7390   17.3110    1.4720 C   0  0  0  0  0  0  0  0  0  0  0  0
    5.1470   18.6390   -0.0790 C   0  0  0  0  0  0  0  0  0  0  0  0
    1.2340   15.8260   -2.1340 C   0  0  1  0  0  0  0  0  0  0  0  0
    0.8460   16.6800   -3.3790 C   0  0  0  0  0  0  0  0  0  0  0  0
   -0.0780   15.0840   -1.6780 C   0  0  0  0  0  0  0  0  0  0  0  0
    0.1030   13.7550   -0.9200 C   0  0  0  0  0  0  0  0  0  0  0  0
    1.0730   12.8290   -1.6610 C   0  0  2  0  0  0  0  0  0  0  0  0
    0.4400   12.4880   -3.0530 C   0  0  0  0  0  0  0  0  0  0  0  0
   -1.6261   11.0917   -1.2284 H   0  0  0  0  0  0  0  0  0  0  0  0
   -0.4901   11.6451   -2.5051 H   0  0  0  0  0  0  0  0  0  0  0  0
   -1.0847    9.9500   -2.5051 H   0  0  0  0  0  0  0  0  0  0  0  0
    0.8458    9.4788   -1.4441 H   0  0  0  0  0  0  0  0  0  0  0  0
   -1.0922   10.2872    0.5596 H   0  0  0  0  0  0  0  0  0  0  0  0
    0.1401    8.9369    0.5641 H   0  0  0  0  0  0  0  0  0  0  0  0
    1.1177    9.9856    2.2622 H   0  0  0  0  0  0  0  0  0  0  0  0
    1.6299   11.2297    1.0472 H   0  0  0  0  0  0  0  0  0  0  0  0
   -0.9745   11.2513    1.9682 H   0  0  0  0  0  0  0  0  0  0  0  0
    1.6206   12.1806    5.2324 H   0  0  0  0  0  0  0  0  0  0  0  0
    2.0574   11.1532    3.8252 H   0  0  0  0  0  0  0  0  0  0  0  0
    2.4740   12.9005    3.8252 H   0  0  0  0  0  0  0  0  0  0  0  0
   -0.3570   12.9311    5.4353 H   0  0  0  0  0  0  0  0  0  0  0  0
   -0.6784   14.1728    4.1776 H   0  0  0  0  0  0  0  0  0  0  0  0
   -1.6046   12.6336    4.1776 H   0  0  0  0  0  0  0  0  0  0  0  0
    1.5026   11.6526    0.1302 H   0  0  0  0  0  0  0  0  0  0  0  0
    3.4878   10.7298   -0.8924 H   0  0  0  0  0  0  0  0  0  0  0  0
    2.6155   10.2985   -2.3787 H   0  0  0  0  0  0  0  0  0  0  0  0
    4.3902   12.5188   -2.0797 H   0  0  0  0  0  0  0  0  0  0  0  0
    3.2600   12.3322   -3.4180 H   0  0  0  0  0  0  0  0  0  0  0  0
    2.4419   13.5139    0.4566 H   0  0  0  0  0  0  0  0  0  0  0  0
    4.0761   13.2923   -0.2553 H   0  0  0  0  0  0  0  0  0  0  0  0
    3.3092   14.9167   -0.2553 H   0  0  0  0  0  0  0  0  0  0  0  0
    2.0365   14.4155   -3.5798 H   0  0  0  0  0  0  0  0  0  0  0  0
    4.4909   14.7993   -2.8914 H   0  0  0  0  0  0  0  0  0  0  0  0
    3.5570   16.0728   -3.8381 H   0  0  0  0  0  0  0  0  0  0  0  0
    5.0911   16.9608   -1.8897 H   0  0  0  0  0  0  0  0  0  0  0  0
    1.5808   16.1464   -0.0674 H   0  0  0  0  0  0  0  0  0  0  0  0
    1.0029   18.6592   -1.7538 H   0  0  0  0  0  0  0  0  0  0  0  0
   -0.1702   17.7626   -0.6900 H   0  0  0  0  0  0  0  0  0  0  0  0
    0.6649   19.8342    0.3733 H   0  0  0  0  0  0  0  0  0  0  0  0
    1.1256   18.3392    1.2782 H   0  0  0  0  0  0  0  0  0  0  0  0
    3.0168   19.8162    1.2193 H   0  0  0  0  0  0  0  0  0  0  0  0
    2.2280   20.0010   -1.4830 H   0  0  0  0  0  0  0  0  0  0  0  0
    3.7112   18.0168    2.3152 H   0  0  0  0  0  0  0  0  0  0  0  0
    2.8665   16.6432    1.5239 H   0  0  0  0  0  0  0  0  0  0  0  0
    4.6614   16.7139    1.5239 H   0  0  0  0  0  0  0  0  0  0  0  0
    5.6231   18.8180    0.8963 H   0  0  0  0  0  0  0  0  0  0  0  0
    5.7347   17.9004   -0.6439 H   0  0  0  0  0  0  0  0  0  0  0  0
    5.1026   19.5818   -0.6439 H   0  0  0  0  0  0  0  0  0  0  0  0
    0.4121   17.6350   -3.0478 H   0  0  0  0  0  0  0  0  0  0  0  0
    1.7438   16.8753   -3.9839 H   0  0  0  0  0  0  0  0  0  0  0  0
    0.1083   16.1323   -3.9839 H   0  0  0  0  0  0  0  0  0  0  0  0
   -0.6361   15.7680   -1.0217 H   0  0  0  0  0  0  0  0  0  0  0  0
   -0.5954   14.8151   -2.6107 H   0  0  0  0  0  0  0  0  0  0  0  0
    0.5013   13.9645    0.0837 H   0  0  0  0  0  0  0  0  0  0  0  0
   -0.8744   13.2553   -0.8496 H   0  0  0  0  0  0  0  0  0  0  0  0
   -0.5194   11.9712   -2.9028 H   0  0  0  0  0  0  0  0  0  0  0  0
    0.2715   13.4174   -3.6167 H   0  0  0  0  0  0  0  0  0  0  0  0
    1.1234   11.8360   -3.6167 H   0  0  0  0  0  0  0  0  0  0  0  0
  1  2  1  0
  2  3  1  0
  3  4  1  0
  4  5  1  0
  5  6  1  0
  6  7  1  0
  7  8  1  0
  7  9  1  0
  2 10  1  0
 10 11  1  0
 11 12  1  0
 12 13  1  0
 13 14  1  1
 13 15  1  0
 15 16  1  0
 16 17  1  0
 17 18  2  0
 18 19  1  0
 19 20  1  0
 20 21  1  0
 21 22  1  0
 22 23  1  0
 22 24  1  0
 24 25  1  0
 24 26  1  0
 19 27  1  0
 27 28  1  6
 27 29  1  0
 29 30  1  0
 30 31  1  0
 31 32  1  6
  7  5  1  0
 31 10  1  0
 31 13  1  0
 27 15  1  0
 24 18  1  0
  1 33  1  0
  1 34  1  0
  1 35  1  0
  2 36  1  6
  3 37  1  0
  3 38  1  0
  4 39  1  0
  4 40  1  0
  5 41  1  1
  8 42  1  0
  8 43  1  0
  8 44  1  0
  9 45  1  0
  9 46  1  0
  9 47  1  0
 10 48  1  1
 11 49  1  0
 11 50  1  0
 12 51  1  0
 12 52  1  0
 14 53  1  0
 14 54  1  0
 14 55  1  0
 15 56  1  6
 16 57  1  0
 16 58  1  0
 17 59  1  0
 19 60  1  1
 20 61  1  0
 20 62  1  0
 21 63  1  0
 21 64  1  0
 22 65  1  1
 23 66  1  0
 25 67  1  0
 25 68  1  0
 25 69  1  0
 26 70  1  0
 26 71  1  0
 26 72  1  0
 28 73  1  0
 28 74  1  0
 28 75  1  0
 29 76  1  0
 29 77  1  0
 30 78  1  0
 30 79  1  0
 32 80  1  0
 32 81  1  0
 32 82  1  0
M  END
>  <meeko>  (16) 
{"is_sidechain": [false], "intermolecular_energy": 2.731, "internal_energy": -0.839}

$$$$
EPH_relaxed_0001_pdb2pqr_Repair_324_r2_0001_out
     RDKit          3D

 82 86  0  0  0  0  0  0  0  0999 V2000
   -0.3510   10.6580   -0.6120 C   0  0  0  0  0  0  0  0  0  0  0  0
    0.5800   10.4330   -1.8070 C   0  0  2  0  0  0  0  0  0  0  0  0
    1.8390    9.6330   -1.4200 C   0  0  0  0  0  0  0  0  0  0  0  0
    3.1500   10.3640   -1.7210 C   0  0  0  0  0  0  0  0  0  0  0  0
    3.4490   10.3830   -3.1890 C   0  0  2  0  0  0  0  0  0  0  0  0
    4.8450   10.3540   -3.5160 O   0  0  0  0  0  0  0  0  0  0  0  0
    4.1310   11.5440   -3.8890 C   0  0  0  0  0  0  0  0  0  0  0  0
    4.5540   12.7680   -3.1380 C   0  0  0  0  0  0  0  0  0  0  0  0
    3.9460   11.6980   -5.3660 C   0  0  0  0  0  0  0  0  0  0  0  0
    0.9800   11.7730   -2.4130 C   0  0  1  0  0  0  0  0  0  0  0  0
    0.3820   11.9920   -3.8280 C   0  0  0  0  0  0  0  0  0  0  0  0
    0.0690   13.5050   -3.9520 C   0  0  0  0  0  0  0  0  0  0  0  0
    0.7950   14.1540   -2.7510 C   0  0  1  0  0  0  0  0  0  0  0  0
    2.2810   14.2950   -3.2090 C   0  0  0  0  0  0  0  0  0  0  0  0
    0.2150   15.5150   -2.2460 C   0  0  2  0  0  0  0  0  0  0  0  0
    0.2650   16.6650   -3.2670 C   0  0  0  0  0  0  0  0  0  0  0  0
    1.5020   17.4990   -3.2280 C   0  0  0  0  0  0  0  0  0  0  0  0
    2.4040   17.5150   -2.2290 C   0  0  0  0  0  0  0  0  0  0  0  0
    2.1710   16.7080   -0.9450 C   0  0  1  0  0  0  0  0  0  0  0  0
    2.4750   17.5980    0.2890 C   0  0  0  0  0  0  0  0  0  0  0  0
    3.8680   18.2180    0.2340 C   0  0  0  0  0  0  0  0  0  0  0  0
    4.0410   19.0600   -1.0280 C   0  0  2  0  0  0  0  0  0  0  0  0
    3.1720   20.1940   -0.9480 O   0  0  0  0  0  0  0  0  0  0  0  0
    3.7510   18.2710   -2.3350 C   0  0  0  0  0  0  0  0  0  0  0  0
    4.8740   17.2320   -2.5760 C   0  0  0  0  0  0  0  0  0  0  0  0
    3.8230   19.2700   -3.5220 C   0  0  0  0  0  0  0  0  0  0  0  0
    0.7670   15.9710   -0.8350 C   0  0  1  0  0  0  0  0  0  0  0  0
   -0.2960   16.9390   -0.2320 C   0  0  0  0  0  0  0  0  0  0  0  0
    0.8960   14.7690    0.1750 C   0  0  0  0  0  0  0  0  0  0  0  0
    1.3590   13.4200   -0.4070 C   0  0  0  0  0  0  0  0  0  0  0  0
    0.5490   13.0540   -1.6550 C   0  0  2  0  0  0  0  0  0  0  0  0
   -0.9470   12.8840   -1.2210 C   0  0  0  0  0  0  0  0  0  0  0  0
    0.2127   10.5218    0.3227 H   0  0  0  0  0  0  0  0  0  0  0  0
   -0.7562   11.6799   -0.6502 H   0  0  0  0  0  0  0  0  0  0  0  0
   -1.1782    9.9339   -0.6502 H   0  0  0  0  0  0  0  0  0  0  0  0
    0.0274    9.8388   -2.5497 H   0  0  0  0  0  0  0  0  0  0  0  0
    1.7986    9.4226   -0.3411 H   0  0  0  0  0  0  0  0  0  0  0  0
    1.8360    8.7158   -2.0272 H   0  0  0  0  0  0  0  0  0  0  0  0
    3.0717   11.4000   -1.3596 H   0  0  0  0  0  0  0  0  0  0  0  0
    3.9655    9.8297   -1.2117 H   0  0  0  0  0  0  0  0  0  0  0  0
    2.5241    9.8295   -3.4086 H   0  0  0  0  0  0  0  0  0  0  0  0
    4.4877   12.5761   -2.0569 H   0  0  0  0  0  0  0  0  0  0  0  0
    5.5915   13.0203   -3.4026 H   0  0  0  0  0  0  0  0  0  0  0  0
    3.8937   13.6070   -3.4026 H   0  0  0  0  0  0  0  0  0  0  0  0
    3.1140   12.3906   -5.5611 H   0  0  0  0  0  0  0  0  0  0  0  0
    4.8686   12.0986   -5.8113 H   0  0  0  0  0  0  0  0  0  0  0  0
    3.7194   10.7180   -5.8113 H   0  0  0  0  0  0  0  0  0  0  0  0
    2.0746   11.6683   -2.3833 H   0  0  0  0  0  0  0  0  0  0  0  0
    1.1087   11.6913   -4.5970 H   0  0  0  0  0  0  0  0  0  0  0  0
   -0.5261   11.3878   -3.9708 H   0  0  0  0  0  0  0  0  0  0  0  0
    0.4552   13.9048   -4.9012 H   0  0  0  0  0  0  0  0  0  0  0  0
   -1.0119   13.7090   -3.9455 H   0  0  0  0  0  0  0  0  0  0  0  0
    2.9328   14.3568   -2.3251 H   0  0  0  0  0  0  0  0  0  0  0  0
    2.5634   13.4196   -3.8123 H   0  0  0  0  0  0  0  0  0  0  0  0
    2.3937   15.2079   -3.8123 H   0  0  0  0  0  0  0  0  0  0  0  0
   -0.8514   15.2812   -2.1116 H   0  0  0  0  0  0  0  0  0  0  0  0
    0.1802   16.2297   -4.2736 H   0  0  0  0  0  0  0  0  0  0  0  0
   -0.5646   17.3389   -3.0070 H   0  0  0  0  0  0  0  0  0  0  0  0
    1.6929   18.1566   -4.0889 H   0  0  0  0  0  0  0  0  0  0  0  0
    2.8792   15.8671   -0.9816 H   0  0  0  0  0  0  0  0  0  0  0  0
    1.7306   18.4066    0.3326 H   0  0  0  0  0  0  0  0  0  0  0  0
    2.4295   16.9575    1.1821 H   0  0  0  0  0  0  0  0  0  0  0  0
    4.0121   18.8584    1.1166 H   0  0  0  0  0  0  0  0  0  0  0  0
    4.6125   17.4083    0.2207 H   0  0  0  0  0  0  0  0  0  0  0  0
    5.0953   19.3699   -1.0760 H   0  0  0  0  0  0  0  0  0  0  0  0
    2.3160   19.8860   -0.6050 H   0  0  0  0  0  0  0  0  0  0  0  0
    5.2583   16.8764   -1.6086 H   0  0  0  0  0  0  0  0  0  0  0  0
    4.4707   16.3816   -3.1453 H   0  0  0  0  0  0  0  0  0  0  0  0
    5.6906   17.7001   -3.1453 H   0  0  0  0  0  0  0  0  0  0  0  0
    3.8970   20.2964   -3.1334 H   0  0  0  0  0  0  0  0  0  0  0  0
    4.7073   19.0460   -4.1366 H   0  0  0  0  0  0  0  0  0  0  0  0
    2.9157   19.1751   -4.1366 H   0  0  0  0  0  0  0  0  0  0  0  0
   -0.2494   16.8966    0.8662 H   0  0  0  0  0  0  0  0  0  0  0  0
   -0.0896   17.9658   -0.5684 H   0  0  0  0  0  0  0  0  0  0  0  0
   -1.2990   16.6376   -0.5684 H   0  0  0  0  0  0  0  0  0  0  0  0
    1.6184   15.0623    0.9509 H   0  0  0  0  0  0  0  0  0  0  0  0
   -0.1257   14.5894    0.5410 H   0  0  0  0  0  0  0  0  0  0  0  0
    2.4231   13.4907   -0.6766 H   0  0  0  0  0  0  0  0  0  0  0  0
    1.2052   12.6392    0.3524 H   0  0  0  0  0  0  0  0  0  0  0  0
   -1.0117   12.8767   -0.1229 H   0  0  0  0  0  0  0  0  0  0  0  0
   -1.5412   13.7204   -1.6177 H   0  0  0  0  0  0  0  0  0  0  0  0
   -1.3384   11.9356   -1.6177 H   0  0  0  0  0  0  0  0  0  0  0  0
  1  2  1  0
  2  3  1  0
  3  4  1  0
  4  5  1  0
  5  6  1  0
  6  7  1  0
  7  8  1  0
  7  9  1  0
  2 10  1  0
 10 11  1  0
 11 12  1  0
 12 13  1  0
 13 14  1  6
 13 15  1  0
 15 16  1  0
 16 17  1  0
 17 18  2  0
 18 19  1  0
 19 20  1  0
 20 21  1  0
 21 22  1  0
 22 23  1  0
 22 24  1  0
 24 25  1  0
 24 26  1  0
 19 27  1  0
 27 28  1  1
 27 29  1  0
 29 30  1  0
 30 31  1  0
 31 32  1  1
  7  5  1  0
 31 10  1  0
 31 13  1  0
 27 15  1  0
 24 18  1  0
  1 33  1  0
  1 34  1  0
  1 35  1  0
  2 36  1  6
  3 37  1  0
  3 38  1  0
  4 39  1  0
  4 40  1  0
  5 41  1  6
  8 42  1  0
  8 43  1  0
  8 44  1  0
  9 45  1  0
  9 46  1  0
  9 47  1  0
 10 48  1  6
 11 49  1  0
 11 50  1  0
 12 51  1  0
 12 52  1  0
 14 53  1  0
 14 54  1  0
 14 55  1  0
 15 56  1  1
 16 57  1  0
 16 58  1  0
 17 59  1  0
 19 60  1  6
 20 61  1  0
 20 62  1  0
 21 63  1  0
 21 64  1  0
 22 65  1  6
 23 66  1  0
 25 67  1  0
 25 68  1  0
 25 69  1  0
 26 70  1  0
 26 71  1  0
 26 72  1  0
 28 73  1  0
 28 74  1  0
 28 75  1  0
 29 76  1  0
 29 77  1  0
 30 78  1  0
 30 79  1  0
 32 80  1  0
 32 81  1  0
 32 82  1  0
M  END
>  <meeko>  (17) 
{"is_sidechain": [false], "intermolecular_energy": 2.731, "internal_energy": -0.839}

$$$$
EPH_relaxed_0001_pdb2pqr_Repair_324_r2_0001_out
     RDKit          3D

 82 86  0  0  0  0  0  0  0  0999 V2000
    2.2300   19.4380   -1.2360 C   0  0  0  0  0  0  0  0  0  0  0  0
    2.3570   18.5590    0.0120 C   0  0  2  0  0  0  0  0  0  0  0  0
    3.8090   18.1010    0.2540 C   0  0  0  0  0  0  0  0  0  0  0  0
    4.8210   18.7290   -0.7080 C   0  0  0  0  0  0  0  0  0  0  0  0
    5.5610   17.6880   -1.4920 C   0  0  2  0  0  0  0  0  0  0  0  0
    6.5040   18.2090   -2.4380 O   0  0  0  0  0  0  0  0  0  0  0  0
    5.3890   17.4860   -2.9860 C   0  0  0  0  0  0  0  0  0  0  0  0
    4.4490   18.3340   -3.7850 C   0  0  0  0  0  0  0  0  0  0  0  0
    5.7610   16.1620   -3.5770 C   0  0  0  0  0  0  0  0  0  0  0  0
    1.4420   17.3470   -0.1110 C   0  0  1  0  0  0  0  0  0  0  0  0
    0.0120   17.7230   -0.5840 C   0  0  0  0  0  0  0  0  0  0  0  0
   -0.4850   16.5570   -1.4770 C   0  0  0  0  0  0  0  0  0  0  0  0
    0.5250   15.4130   -1.2230 C   0  0  1  0  0  0  0  0  0  0  0  0
    0.0580   14.7550    0.1140 C   0  0  0  0  0  0  0  0  0  0  0  0
    0.6740   14.3560   -2.3650 C   0  0  2  0  0  0  0  0  0  0  0  0
   -0.5990   13.5520   -2.6800 C   0  0  0  0  0  0  0  0  0  0  0  0
   -0.7590   12.2830   -1.9100 C   0  0  0  0  0  0  0  0  0  0  0  0
    0.2120   11.6630   -1.2140 C   0  0  0  0  0  0  0  0  0  0  0  0
    1.6540   12.1880   -1.2350 C   0  0  1  0  0  0  0  0  0  0  0  0
    2.6320   11.0050   -1.4650 C   0  0  0  0  0  0  0  0  0  0  0  0
    2.4360    9.8790   -0.4560 C   0  0  0  0  0  0  0  0  0  0  0  0
    1.0060    9.3440   -0.5060 C   0  0  2  0  0  0  0  0  0  0  0  0
    0.7980    8.7030   -1.7680 O   0  0  0  0  0  0  0  0  0  0  0  0
   -0.0680   10.4480   -0.2960 C   0  0  0  0  0  0  0  0  0  0  0  0
   -0.0360   10.9320    1.1750 C   0  0  0  0  0  0  0  0  0  0  0  0
   -1.4630    9.8020   -0.5100 C   0  0  0  0  0  0  0  0  0  0  0  0
    1.9330   13.4100   -2.2120 C   0  0  1  0  0  0  0  0  0  0  0  0
    2.2700   12.8830   -3.6410 C   0  0  0  0  0  0  0  0  0  0  0  0
    3.2080   14.1860   -1.7130 C   0  0  0  0  0  0  0  0  0  0  0  0
    2.9810   15.2990   -0.6730 C   0  0  0  0  0  0  0  0  0  0  0  0
    1.8570   16.2410   -1.1140 C   0  0  2  0  0  0  0  0  0  0  0  0
    2.3080   16.9350   -2.4450 C   0  0  0  0  0  0  0  0  0  0  0  0
    2.0788   20.4847   -0.9334 H   0  0  0  0  0  0  0  0  0  0  0  0
    3.1489   19.3587   -1.8354 H   0  0  0  0  0  0  0  0  0  0  0  0
    1.3711   19.1018   -1.8354 H   0  0  0  0  0  0  0  0  0  0  0  0
    2.0542   19.1668    0.8774 H   0  0  0  0  0  0  0  0  0  0  0  0
    4.0921   18.3726    1.2817 H   0  0  0  0  0  0  0  0  0  0  0  0
    3.8358   17.0145    0.0844 H   0  0  0  0  0  0  0  0  0  0  0  0
    4.2862   19.3885   -1.4073 H   0  0  0  0  0  0  0  0  0  0  0  0
    5.5532   19.2952   -0.1136 H   0  0  0  0  0  0  0  0  0  0  0  0
    5.5227   16.9885   -0.6439 H   0  0  0  0  0  0  0  0  0  0  0  0
    3.8078   18.9125   -3.1037 H   0  0  0  0  0  0  0  0  0  0  0  0
    5.0259   19.0232   -4.4192 H   0  0  0  0  0  0  0  0  0  0  0  0
    3.8227   17.6894   -4.4192 H   0  0  0  0  0  0  0  0  0  0  0  0
    5.9629   15.4435   -2.7689 H   0  0  0  0  0  0  0  0  0  0  0  0
    4.9321   15.7918   -4.1982 H   0  0  0  0  0  0  0  0  0  0  0  0
    6.6614   16.2777   -4.1982 H   0  0  0  0  0  0  0  0  0  0  0  0
    1.5044   16.9642    0.9184 H   0  0  0  0  0  0  0  0  0  0  0  0
   -0.6536   17.8463    0.2831 H   0  0  0  0  0  0  0  0  0  0  0  0
    0.0168   18.6720   -1.1402 H   0  0  0  0  0  0  0  0  0  0  0  0
   -1.5004   16.2503   -1.1857 H   0  0  0  0  0  0  0  0  0  0  0  0
   -0.5381   16.8384   -2.5391 H   0  0  0  0  0  0  0  0  0  0  0  0
    0.4623   15.3246    0.9638 H   0  0  0  0  0  0  0  0  0  0  0  0
   -1.0410   14.7583    0.1600 H   0  0  0  0  0  0  0  0  0  0  0  0
    0.4238   13.7186    0.1600 H   0  0  0  0  0  0  0  0  0  0  0  0
    0.8544   14.9865   -3.2481 H   0  0  0  0  0  0  0  0  0  0  0  0
   -1.4672   14.1921   -2.4644 H   0  0  0  0  0  0  0  0  0  0  0  0
   -0.5195   13.2584   -3.7371 H   0  0  0  0  0  0  0  0  0  0  0  0
   -1.7546   11.8152   -1.9116 H   0  0  0  0  0  0  0  0  0  0  0  0
    1.8311   12.6315   -0.2441 H   0  0  0  0  0  0  0  0  0  0  0  0
    2.4689   10.6044   -2.4764 H   0  0  0  0  0  0  0  0  0  0  0  0
    3.6553   11.3892   -1.3415 H   0  0  0  0  0  0  0  0  0  0  0  0
    3.1345    9.0617   -0.6885 H   0  0  0  0  0  0  0  0  0  0  0  0
    2.6281   10.2739    0.5525 H   0  0  0  0  0  0  0  0  0  0  0  0
    0.8900    8.6320    0.3244 H   0  0  0  0  0  0  0  0  0  0  0  0
    1.3950    7.9380   -1.8110 H   0  0  0  0  0  0  0  0  0  0  0  0
   -0.0934   10.0638    1.8480 H   0  0  0  0  0  0  0  0  0  0  0  0
    0.9003   11.4787    1.3608 H   0  0  0  0  0  0  0  0  0  0  0  0
   -0.8921   11.5972    1.3608 H   0  0  0  0  0  0  0  0  0  0  0  0
   -1.9223    9.5893    0.4666 H   0  0  0  0  0  0  0  0  0  0  0  0
   -2.1051   10.4944   -1.0741 H   0  0  0  0  0  0  0  0  0  0  0  0
   -1.3503    8.8644   -1.0741 H   0  0  0  0  0  0  0  0  0  0  0  0
    2.8610   11.9587   -3.5610 H   0  0  0  0  0  0  0  0  0  0  0  0
    1.3366   12.6755   -4.1848 H   0  0  0  0  0  0  0  0  0  0  0  0
    2.8500   13.6432   -4.1848 H   0  0  0  0  0  0  0  0  0  0  0  0
    3.8929   13.4493   -1.2678 H   0  0  0  0  0  0  0  0  0  0  0  0
    3.5990   14.6998   -2.6036 H   0  0  0  0  0  0  0  0  0  0  0  0
    2.7100   14.8417    0.2900 H   0  0  0  0  0  0  0  0  0  0  0  0
    3.9087   15.8819   -0.5752 H   0  0  0  0  0  0  0  0  0  0  0  0
    2.8934   17.8358   -2.2087 H   0  0  0  0  0  0  0  0  0  0  0  0
    2.9267   16.2387   -3.0302 H   0  0  0  0  0  0  0  0  0  0  0  0
    1.4205   17.2175   -3.0302 H   0  0  0  0  0  0  0  0  0  0  0  0
  1  2  1  0
  2  3  1  0
  3  4  1  0
  4  5  1  0
  5  6  1  0
  6  7  1  0
  7  8  1  0
  7  9  1  0
  2 10  1  0
 10 11  1  0
 11 12  1  0
 12 13  1  0
 13 14  1  1
 13 15  1  0
 15 16  1  0
 16 17  1  0
 17 18  2  0
 18 19  1  0
 19 20  1  0
 20 21  1  0
 21 22  1  0
 22 23  1  0
 22 24  1  0
 24 25  1  0
 24 26  1  0
 19 27  1  0
 27 28  1  6
 27 29  1  0
 29 30  1  0
 30 31  1  0
 31 32  1  6
  7  5  1  0
 31 10  1  0
 31 13  1  0
 27 15  1  0
 24 18  1  0
  1 33  1  0
  1 34  1  0
  1 35  1  0
  2 36  1  1
  3 37  1  0
  3 38  1  0
  4 39  1  0
  4 40  1  0
  5 41  1  1
  8 42  1  0
  8 43  1  0
  8 44  1  0
  9 45  1  0
  9 46  1  0
  9 47  1  0
 10 48  1  1
 11 49  1  0
 11 50  1  0
 12 51  1  0
 12 52  1  0
 14 53  1  0
 14 54  1  0
 14 55  1  0
 15 56  1  6
 16 57  1  0
 16 58  1  0
 17 59  1  0
 19 60  1  1
 20 61  1  0
 20 62  1  0
 21 63  1  0
 21 64  1  0
 22 65  1  1
 23 66  1  0
 25 67  1  0
 25 68  1  0
 25 69  1  0
 26 70  1  0
 26 71  1  0
 26 72  1  0
 28 73  1  0
 28 74  1  0
 28 75  1  0
 29 76  1  0
 29 77  1  0
 30 78  1  0
 30 79  1  0
 32 80  1  0
 32 81  1  0
 32 82  1  0
M  END
>  <meeko>  (18) 
{"is_sidechain": [false], "intermolecular_energy": 2.731, "internal_energy": -0.839}

$$$$
EPH_relaxed_0001_pdb2pqr_Repair_324_r2_0001_out
     RDKit          3D

 82 86  0  0  0  0  0  0  0  0999 V2000
    4.4830   17.8980   -2.8620 C   0  0  0  0  0  0  0  0  0  0  0  0
    3.0800   17.2890   -2.9480 C   0  0  2  0  0  0  0  0  0  0  0  0
    1.9940   18.2610   -2.4460 C   0  0  0  0  0  0  0  0  0  0  0  0
    2.5540   19.5270   -1.7930 C   0  0  0  0  0  0  0  0  0  0  0  0
    2.3390   19.5270   -0.3100 C   0  0  2  0  0  0  0  0  0  0  0  0
    1.5720   18.4210    0.1840 O   0  0  0  0  0  0  0  0  0  0  0  0
    0.9820   19.7220    0.3390 C   0  0  0  0  0  0  0  0  0  0  0  0
   -0.2520   19.9320   -0.4810 C   0  0  0  0  0  0  0  0  0  0  0  0
    0.9280   20.1940    1.7590 C   0  0  0  0  0  0  0  0  0  0  0  0
    3.0270   15.9920   -2.1500 C   0  0  1  0  0  0  0  0  0  0  0  0
    3.5850   16.1520   -0.7100 C   0  0  0  0  0  0  0  0  0  0  0  0
    2.7430   15.2230    0.2020 C   0  0  0  0  0  0  0  0  0  0  0  0
    1.9600   14.3190   -0.7790 C   0  0  1  0  0  0  0  0  0  0  0  0
    2.9720   13.2050   -1.1930 C   0  0  0  0  0  0  0  0  0  0  0  0
    0.6220   13.7140   -0.2420 C   0  0  2  0  0  0  0  0  0  0  0  0
    0.7710   12.7690    0.9640 C   0  0  0  0  0  0  0  0  0  0  0  0
    0.9610   11.3280    0.6250 C   0  0  0  0  0  0  0  0  0  0  0  0
    0.7280   10.7700   -0.5770 C   0  0  0  0  0  0  0  0  0  0  0  0
    0.1300   11.5930   -1.7250 C   0  0  1  0  0  0  0  0  0  0  0  0
   -1.0160   10.7900   -2.3960 C   0  0  0  0  0  0  0  0  0  0  0  0
   -0.5730    9.4010   -2.8440 C   0  0  0  0  0  0  0  0  0  0  0  0
   -0.0380    8.5920   -1.6640 C   0  0  2  0  0  0  0  0  0  0  0  0
   -1.1170    8.3250   -0.7620 O   0  0  0  0  0  0  0  0  0  0  0  0
    1.1140    9.3060   -0.9040 C   0  0  0  0  0  0  0  0  0  0  0  0
    2.3870    9.3250   -1.7870 C   0  0  0  0  0  0  0  0  0  0  0  0
    1.4650    8.4510    0.3430 C   0  0  0  0  0  0  0  0  0  0  0  0
   -0.2980   13.0800   -1.3620 C   0  0  1  0  0  0  0  0  0  0  0  0
   -1.7540   13.0930   -0.8030 C   0  0  0  0  0  0  0  0  0  0  0  0
   -0.3200   13.9440   -2.6780 C   0  0  0  0  0  0  0  0  0  0  0  0
    1.0040   14.6140   -3.0910 C   0  0  0  0  0  0  0  0  0  0  0  0
    1.6330   15.3600   -1.9110 C   0  0  2  0  0  0  0  0  0  0  0  0
    0.6470   16.5020   -1.4860 C   0  0  0  0  0  0  0  0  0  0  0  0
    4.7654   18.0206   -1.8060 H   0  0  0  0  0  0  0  0  0  0  0  0
    5.2031   17.2315   -3.3591 H   0  0  0  0  0  0  0  0  0  0  0  0
    4.4879   18.8792   -3.3591 H   0  0  0  0  0  0  0  0  0  0  0  0
    2.8732   17.0818   -4.0083 H   0  0  0  0  0  0  0  0  0  0  0  0
    1.3717   18.5586   -3.3028 H   0  0  0  0  0  0  0  0  0  0  0  0
    1.4192   17.7289   -1.6737 H   0  0  0  0  0  0  0  0  0  0  0  0
    3.6334   19.5857   -1.9968 H   0  0  0  0  0  0  0  0  0  0  0  0
    2.0253   20.3938   -2.2162 H   0  0  0  0  0  0  0  0  0  0  0  0
    3.3119   20.0133   -0.1457 H   0  0  0  0  0  0  0  0  0  0  0  0
   -1.1146   20.0788    0.1856 H   0  0  0  0  0  0  0  0  0  0  0  0
   -0.1236   20.8212   -1.1157 H   0  0  0  0  0  0  0  0  0  0  0  0
   -0.4249   19.0504   -1.1157 H   0  0  0  0  0  0  0  0  0  0  0  0
    1.0266   19.3324    2.4358 H   0  0  0  0  0  0  0  0  0  0  0  0
    1.7512   20.9002    1.9422 H   0  0  0  0  0  0  0  0  0  0  0  0
   -0.0334   20.6961    1.9422 H   0  0  0  0  0  0  0  0  0  0  0  0
    3.6249   15.3461   -2.8098 H   0  0  0  0  0  0  0  0  0  0  0  0
    4.6437   15.8551   -0.6789 H   0  0  0  0  0  0  0  0  0  0  0  0
    3.5205   17.1979   -0.3755 H   0  0  0  0  0  0  0  0  0  0  0  0
    3.3956   14.6193    0.8498 H   0  0  0  0  0  0  0  0  0  0  0  0
    2.0771   15.7873    0.8714 H   0  0  0  0  0  0  0  0  0  0  0  0
    3.3947   12.7397   -0.2903 H   0  0  0  0  0  0  0  0  0  0  0  0
    2.4525   12.4412   -1.7902 H   0  0  0  0  0  0  0  0  0  0  0  0
    3.7820   13.6490   -1.7902 H   0  0  0  0  0  0  0  0  0  0  0  0
    0.0966   14.6028    0.1375 H   0  0  0  0  0  0  0  0  0  0  0  0
    1.6427   13.0985    1.5484 H   0  0  0  0  0  0  0  0  0  0  0  0
   -0.1781   12.8290    1.5168 H   0  0  0  0  0  0  0  0  0  0  0  0
    1.3222   10.6659    1.4258 H   0  0  0  0  0  0  0  0  0  0  0  0
    0.9469   11.7495   -2.4448 H   0  0  0  0  0  0  0  0  0  0  0  0
   -1.8397   10.6819   -1.6751 H   0  0  0  0  0  0  0  0  0  0  0  0
   -1.3320   11.3446   -3.2919 H   0  0  0  0  0  0  0  0  0  0  0  0
   -1.4326    8.8729   -3.2824 H   0  0  0  0  0  0  0  0  0  0  0  0
    0.2303    9.5113   -3.5873 H   0  0  0  0  0  0  0  0  0  0  0  0
    0.3834    7.6592   -2.0669 H   0  0  0  0  0  0  0  0  0  0  0  0
   -0.7340    8.1830    0.1200 H   0  0  0  0  0  0  0  0  0  0  0  0
    3.2792    9.3383   -1.1438 H   0  0  0  0  0  0  0  0  0  0  0  0
    2.4062    8.4270   -2.4221 H   0  0  0  0  0  0  0  0  0  0  0  0
    2.3794   10.2231   -2.4221 H   0  0  0  0  0  0  0  0  0  0  0  0
    1.2315    9.0198    1.2551 H   0  0  0  0  0  0  0  0  0  0  0  0
    0.8753    7.5226    0.3288 H   0  0  0  0  0  0  0  0  0  0  0  0
    2.5370    8.2047    0.3288 H   0  0  0  0  0  0  0  0  0  0  0  0
   -1.7246   13.0927    0.2966 H   0  0  0  0  0  0  0  0  0  0  0  0
   -2.2741   13.9958   -1.1557 H   0  0  0  0  0  0  0  0  0  0  0  0
   -2.2902   12.1996   -1.1557 H   0  0  0  0  0  0  0  0  0  0  0  0
   -0.6316   13.2862   -3.5028 H   0  0  0  0  0  0  0  0  0  0  0  0
   -1.0090   14.7747   -2.4655 H   0  0  0  0  0  0  0  0  0  0  0  0
    1.7038   13.8415   -3.4424 H   0  0  0  0  0  0  0  0  0  0  0  0
    0.7953   15.3382   -3.8923 H   0  0  0  0  0  0  0  0  0  0  0  0
    0.6001   16.5563   -0.3883 H   0  0  0  0  0  0  0  0  0  0  0  0
    1.0043   17.4625   -1.8857 H   0  0  0  0  0  0  0  0  0  0  0  0
   -0.3553   16.2886   -1.8857 H   0  0  0  0  0  0  0  0  0  0  0  0
  1  2  1  0
  2  3  1  0
  3  4  1  0
  4  5  1  0
  5  6  1  0
  6  7  1  0
  7  8  1  0
  7  9  1  0
  2 10  1  0
 10 11  1  0
 11 12  1  0
 12 13  1  0
 13 14  1  6
 13 15  1  0
 15 16  1  0
 16 17  1  0
 17 18  2  0
 18 19  1  0
 19 20  1  0
 20 21  1  0
 21 22  1  0
 22 23  1  0
 22 24  1  0
 24 25  1  0
 24 26  1  0
 19 27  1  0
 27 28  1  1
 27 29  1  0
 29 30  1  0
 30 31  1  0
 31 32  1  1
  7  5  1  0
 31 10  1  0
 31 13  1  0
 27 15  1  0
 24 18  1  0
  1 33  1  0
  1 34  1  0
  1 35  1  0
  2 36  1  6
  3 37  1  0
  3 38  1  0
  4 39  1  0
  4 40  1  0
  5 41  1  1
  8 42  1  0
  8 43  1  0
  8 44  1  0
  9 45  1  0
  9 46  1  0
  9 47  1  0
 10 48  1  6
 11 49  1  0
 11 50  1  0
 12 51  1  0
 12 52  1  0
 14 53  1  0
 14 54  1  0
 14 55  1  0
 15 56  1  1
 16 57  1  0
 16 58  1  0
 17 59  1  0
 19 60  1  6
 20 61  1  0
 20 62  1  0
 21 63  1  0
 21 64  1  0
 22 65  1  6
 23 66  1  0
 25 67  1  0
 25 68  1  0
 25 69  1  0
 26 70  1  0
 26 71  1  0
 26 72  1  0
 28 73  1  0
 28 74  1  0
 28 75  1  0
 29 76  1  0
 29 77  1  0
 30 78  1  0
 30 79  1  0
 32 80  1  0
 32 81  1  0
 32 82  1  0
M  END
>  <meeko>  (19) 
{"is_sidechain": [false], "intermolecular_energy": 2.731, "internal_energy": -0.839}

$$$$
EPH_relaxed_0001_pdb2pqr_Repair_324_r2_0001_out
     RDKit          3D

 82 86  0  0  0  0  0  0  0  0999 V2000
    1.3340   10.5360   -4.7770 C   0  0  0  0  0  0  0  0  0  0  0  0
    0.6700   10.4830   -3.3980 C   0  0  2  0  0  0  0  0  0  0  0  0
   -0.5340    9.5200   -3.3700 C   0  0  0  0  0  0  0  0  0  0  0  0
   -0.4000    8.3970   -2.3380 C   0  0  0  0  0  0  0  0  0  0  0  0
    0.1560    8.9000   -1.0400 C   0  0  2  0  0  0  0  0  0  0  0  0
   -0.2030    8.1190    0.1070 O   0  0  0  0  0  0  0  0  0  0  0  0
   -0.7040    9.4660    0.0750 C   0  0  0  0  0  0  0  0  0  0  0  0
   -2.1910    9.5580   -0.0570 C   0  0  0  0  0  0  0  0  0  0  0  0
   -0.0650   10.3710    1.0820 C   0  0  0  0  0  0  0  0  0  0  0  0
    0.2300   11.8810   -2.9790 C   0  0  1  0  0  0  0  0  0  0  0  0
   -1.0070   11.8610   -2.0420 C   0  0  0  0  0  0  0  0  0  0  0  0
   -0.8290   13.0320   -1.0420 C   0  0  0  0  0  0  0  0  0  0  0  0
    0.3190   13.8810   -1.6360 C   0  0  1  0  0  0  0  0  0  0  0  0
   -0.3570   14.7580   -2.7360 C   0  0  0  0  0  0  0  0  0  0  0  0
    1.1300   14.7520   -0.6220 C   0  0  2  0  0  0  0  0  0  0  0  0
    0.3160   15.8370    0.1040 C   0  0  0  0  0  0  0  0  0  0  0  0
    0.2760   17.1660   -0.5750 C   0  0  0  0  0  0  0  0  0  0  0  0
    1.0960   17.5630   -1.5660 C   0  0  0  0  0  0  0  0  0  0  0  0
    2.2530   16.6710   -2.0360 C   0  0  1  0  0  0  0  0  0  0  0  0
    3.5440   17.5210   -2.1640 C   0  0  0  0  0  0  0  0  0  0  0  0
    3.3520   18.7460   -3.0540 C   0  0  0  0  0  0  0  0  0  0  0  0
    2.2330   19.6370   -2.5220 C   0  0  2  0  0  0  0  0  0  0  0  0
    2.6440   20.1950   -1.2700 O   0  0  0  0  0  0  0  0  0  0  0  0
    0.8840   18.8860   -2.3430 C   0  0  0  0  0  0  0  0  0  0  0  0
    0.2890   18.5450   -3.7310 C   0  0  0  0  0  0  0  0  0  0  0  0
   -0.1190   19.8600   -1.6680 C   0  0  0  0  0  0  0  0  0  0  0  0
    2.4810   15.3360   -1.2040 C   0  0  1  0  0  0  0  0  0  0  0  0
    3.4060   15.6230    0.0180 C   0  0  0  0  0  0  0  0  0  0  0  0
    3.2450   14.2940   -2.1040 C   0  0  0  0  0  0  0  0  0  0  0  0
    2.3810   13.3810   -2.9950 C   0  0  0  0  0  0  0  0  0  0  0  0
    1.2480   12.7390   -2.1880 C   0  0  2  0  0  0  0  0  0  0  0  0
    1.8980   11.8340   -1.0870 C   0  0  0  0  0  0  0  0  0  0  0  0
    2.4239   10.6230   -4.6561 H   0  0  0  0  0  0  0  0  0  0  0  0
    1.0990    9.6162   -5.3327 H   0  0  0  0  0  0  0  0  0  0  0  0
    0.9561   11.4068   -5.3327 H   0  0  0  0  0  0  0  0  0  0  0  0
    1.4155   10.0994   -2.6859 H   0  0  0  0  0  0  0  0  0  0  0  0
   -1.4381   10.1011   -3.1355 H   0  0  0  0  0  0  0  0  0  0  0  0
   -0.5869    9.0426   -4.3596 H   0  0  0  0  0  0  0  0  0  0  0  0
   -1.3930    7.9606   -2.1551 H   0  0  0  0  0  0  0  0  0  0  0  0
    0.2940    7.6437   -2.7392 H   0  0  0  0  0  0  0  0  0  0  0  0
    1.0543    9.2837   -1.5458 H   0  0  0  0  0  0  0  0  0  0  0  0
   -2.6469    9.5862    0.9437 H   0  0  0  0  0  0  0  0  0  0  0  0
   -2.4544   10.4742   -0.6059 H   0  0  0  0  0  0  0  0  0  0  0  0
   -2.5653    8.6813   -0.6059 H   0  0  0  0  0  0  0  0  0  0  0  0
   -0.3109   10.0228    2.0961 H   0  0  0  0  0  0  0  0  0  0  0  0
    1.0264   10.3595    0.9449 H   0  0  0  0  0  0  0  0  0  0  0  0
   -0.4410   11.3956    0.9449 H   0  0  0  0  0  0  0  0  0  0  0  0
    0.0542   12.3247   -3.9700 H   0  0  0  0  0  0  0  0  0  0  0  0
   -1.9280   11.9994   -2.6274 H   0  0  0  0  0  0  0  0  0  0  0  0
   -1.0873   10.8993   -1.5141 H   0  0  0  0  0  0  0  0  0  0  0  0
   -1.7529   13.6246   -0.9695 H   0  0  0  0  0  0  0  0  0  0  0  0
   -0.6046   12.6808   -0.0240 H   0  0  0  0  0  0  0  0  0  0  0  0
   -0.9620   15.5429   -2.2587 H   0  0  0  0  0  0  0  0  0  0  0  0
    0.4186   15.2229   -3.3623 H   0  0  0  0  0  0  0  0  0  0  0  0
   -1.0040   14.1263   -3.3623 H   0  0  0  0  0  0  0  0  0  0  0  0
    1.4054   14.0185    0.1501 H   0  0  0  0  0  0  0  0  0  0  0  0
   -0.7180   15.4756    0.2048 H   0  0  0  0  0  0  0  0  0  0  0  0
    0.8209   16.0026    1.0672 H   0  0  0  0  0  0  0  0  0  0  0  0
   -0.4882   17.8813   -0.2369 H   0  0  0  0  0  0  0  0  0  0  0  0
    1.9594   16.2881   -3.0245 H   0  0  0  0  0  0  0  0  0  0  0  0
    3.8456   17.8575   -1.1611 H   0  0  0  0  0  0  0  0  0  0  0  0
    4.3155   16.8888   -2.6278 H   0  0  0  0  0  0  0  0  0  0  0  0
    4.2888   19.3219   -3.0807 H   0  0  0  0  0  0  0  0  0  0  0  0
    3.0801   18.4066   -4.0644 H   0  0  0  0  0  0  0  0  0  0  0  0
    2.0555   20.4251   -3.2686 H   0  0  0  0  0  0  0  0  0  0  0  0
    2.3900   21.1330   -1.2680 H   0  0  0  0  0  0  0  0  0  0  0  0
   -0.6586   18.0019   -3.6003 H   0  0  0  0  0  0  0  0  0  0  0  0
    0.1048   19.4746   -4.2894 H   0  0  0  0  0  0  0  0  0  0  0  0
    0.9980   17.9162   -4.2894 H   0  0  0  0  0  0  0  0  0  0  0  0
   -0.0324   19.7759   -0.5746 H   0  0  0  0  0  0  0  0  0  0  0  0
    0.1081   20.8914   -1.9756 H   0  0  0  0  0  0  0  0  0  0  0  0
   -1.1433   19.6028   -1.9756 H   0  0  0  0  0  0  0  0  0  0  0  0
    2.8472   15.4496    0.9495 H   0  0  0  0  0  0  0  0  0  0  0  0
    4.2778   14.9531   -0.0167 H   0  0  0  0  0  0  0  0  0  0  0  0
    3.7455   16.6687   -0.0167 H   0  0  0  0  0  0  0  0  0  0  0  0
    3.9229   14.8568   -2.7625 H   0  0  0  0  0  0  0  0  0  0  0  0
    3.7464   13.6161   -1.3975 H   0  0  0  0  0  0  0  0  0  0  0  0
    1.9478   13.9793   -3.8101 H   0  0  0  0  0  0  0  0  0  0  0  0
    3.0188   12.5818   -3.4005 H   0  0  0  0  0  0  0  0  0  0  0  0
    1.6249   12.2142   -0.0916 H   0  0  0  0  0  0  0  0  0  0  0  0
    1.5333   10.8022   -1.1981 H   0  0  0  0  0  0  0  0  0  0  0  0
    2.9923   11.8501   -1.1981 H   0  0  0  0  0  0  0  0  0  0  0  0
  1  2  1  0
  2  3  1  0
  3  4  1  0
  4  5  1  0
  5  6  1  0
  6  7  1  0
  7  8  1  0
  7  9  1  0
  2 10  1  0
 10 11  1  0
 11 12  1  0
 12 13  1  0
 13 14  1  6
 13 15  1  0
 15 16  1  0
 16 17  1  0
 17 18  2  0
 18 19  1  0
 19 20  1  0
 20 21  1  0
 21 22  1  0
 22 23  1  0
 22 24  1  0
 24 25  1  0
 24 26  1  0
 19 27  1  0
 27 28  1  1
 27 29  1  0
 29 30  1  0
 30 31  1  0
 31 32  1  1
  7  5  1  0
 31 10  1  0
 31 13  1  0
 27 15  1  0
 24 18  1  0
  1 33  1  0
  1 34  1  0
  1 35  1  0
  2 36  1  1
  3 37  1  0
  3 38  1  0
  4 39  1  0
  4 40  1  0
  5 41  1  6
  8 42  1  0
  8 43  1  0
  8 44  1  0
  9 45  1  0
  9 46  1  0
  9 47  1  0
 10 48  1  6
 11 49  1  0
 11 50  1  0
 12 51  1  0
 12 52  1  0
 14 53  1  0
 14 54  1  0
 14 55  1  0
 15 56  1  1
 16 57  1  0
 16 58  1  0
 17 59  1  0
 19 60  1  6
 20 61  1  0
 20 62  1  0
 21 63  1  0
 21 64  1  0
 22 65  1  6
 23 66  1  0
 25 67  1  0
 25 68  1  0
 25 69  1  0
 26 70  1  0
 26 71  1  0
 26 72  1  0
 28 73  1  0
 28 74  1  0
 28 75  1  0
 29 76  1  0
 29 77  1  0
 30 78  1  0
 30 79  1  0
 32 80  1  0
 32 81  1  0
 32 82  1  0
M  END
>  <meeko>  (20) 
{"is_sidechain": [false], "intermolecular_energy": 2.731, "internal_energy": -0.839}

$$$$
