EPH_relaxed_0001_pdb2pqr_Repair_242_r2_0001_out
     RDKit          3D

 82 86  0  0  0  0  0  0  0  0999 V2000
   -1.7120    8.5880   -1.8710 C   0  0  0  0  0  0  0  0  0  0  0  0
   -2.0960    9.1100   -0.4840 C   0  0  2  0  0  0  0  0  0  0  0  0
   -3.5910    9.4770   -0.3950 C   0  0  0  0  0  0  0  0  0  0  0  0
   -4.5130    8.2660   -0.2350 C   0  0  0  0  0  0  0  0  0  0  0  0
   -5.2060    7.9240   -1.5190 C   0  0  2  0  0  0  0  0  0  0  0  0
   -6.3480    8.7360   -1.8180 O   0  0  0  0  0  0  0  0  0  0  0  0
   -6.6060    7.3420   -1.5850 C   0  0  0  0  0  0  0  0  0  0  0  0
   -7.3970    7.0690   -0.3440 C   0  0  0  0  0  0  0  0  0  0  0  0
   -7.0110    6.5900   -2.8140 C   0  0  0  0  0  0  0  0  0  0  0  0
   -1.2400   10.3210   -0.1290 C   0  0  1  0  0  0  0  0  0  0  0  0
   -0.2180   10.0200    0.9990 C   0  0  0  0  0  0  0  0  0  0  0  0
    1.0540   10.8480    0.6830 C   0  0  0  0  0  0  0  0  0  0  0  0
    0.6100   11.8400   -0.4170 C   0  0  1  0  0  0  0  0  0  0  0  0
   -0.1040   12.9970    0.3510 C   0  0  0  0  0  0  0  0  0  0  0  0
    1.7380   12.3810   -1.3560 C   0  0  2  0  0  0  0  0  0  0  0  0
    2.8340   13.2000   -0.6540 C   0  0  0  0  0  0  0  0  0  0  0  0
    2.5820   14.6700   -0.5770 C   0  0  0  0  0  0  0  0  0  0  0  0
    1.6650   15.3440   -1.2950 C   0  0  0  0  0  0  0  0  0  0  0  0
    0.8290   14.6360   -2.3700 C   0  0  1  0  0  0  0  0  0  0  0  0
    0.8130   15.4950   -3.6620 C   0  0  0  0  0  0  0  0  0  0  0  0
    0.3460   16.9250   -3.4080 C   0  0  0  0  0  0  0  0  0  0  0  0
    1.2360   17.6150   -2.3770 C   0  0  2  0  0  0  0  0  0  0  0  0
    2.5430   17.7830   -2.9360 O   0  0  0  0  0  0  0  0  0  0  0  0
    1.3380   16.8360   -1.0360 C   0  0  0  0  0  0  0  0  0  0  0  0
   -0.0150   16.9130   -0.2850 C   0  0  0  0  0  0  0  0  0  0  0  0
    2.3750   17.5630   -0.1380 C   0  0  0  0  0  0  0  0  0  0  0  0
    1.2050   13.1180   -2.6510 C   0  0  1  0  0  0  0  0  0  0  0  0
    2.3460   13.0390   -3.7100 C   0  0  0  0  0  0  0  0  0  0  0  0
   -0.0390   12.3900   -3.2840 C   0  0  0  0  0  0  0  0  0  0  0  0
   -1.0560   11.7730   -2.3050 C   0  0  0  0  0  0  0  0  0  0  0  0
   -0.3510   10.9160   -1.2500 C   0  0  2  0  0  0  0  0  0  0  0  0
    0.3580    9.7320   -1.9910 C   0  0  0  0  0  0  0  0  0  0  0  0
   -1.0633    7.7061   -1.7642 H   0  0  0  0  0  0  0  0  0  0  0  0
   -2.6219    8.3092   -2.4227 H   0  0  0  0  0  0  0  0  0  0  0  0
   -1.1749    9.3736   -2.4227 H   0  0  0  0  0  0  0  0  0  0  0  0
   -1.9116    8.3001    0.2372 H   0  0  0  0  0  0  0  0  0  0  0  0
   -3.7349   10.1399    0.4709 H   0  0  0  0  0  0  0  0  0  0  0  0
   -3.8600    9.9627   -1.3446 H   0  0  0  0  0  0  0  0  0  0  0  0
   -3.9138    7.4019    0.0879 H   0  0  0  0  0  0  0  0  0  0  0  0
   -5.2800    8.5152    0.5130 H   0  0  0  0  0  0  0  0  0  0  0  0
   -4.2552    7.6128   -1.9763 H   0  0  0  0  0  0  0  0  0  0  0  0
   -6.7779    7.2827    0.5398 H   0  0  0  0  0  0  0  0  0  0  0  0
   -8.2902    7.7109   -0.3299 H   0  0  0  0  0  0  0  0  0  0  0  0
   -7.7042    6.0129   -0.3299 H   0  0  0  0  0  0  0  0  0  0  0  0
   -7.5140    5.6560   -2.5232 H   0  0  0  0  0  0  0  0  0  0  0  0
   -7.6991    7.2065   -3.4110 H   0  0  0  0  0  0  0  0  0  0  0  0
   -6.1176    6.3548   -3.4110 H   0  0  0  0  0  0  0  0  0  0  0  0
   -2.0324   11.0344    0.1417 H   0  0  0  0  0  0  0  0  0  0  0  0
   -0.6313   10.3178    1.9739 H   0  0  0  0  0  0  0  0  0  0  0  0
    0.0121    8.9454    1.0469 H   0  0  0  0  0  0  0  0  0  0  0  0
    1.3979   11.3882    1.5774 H   0  0  0  0  0  0  0  0  0  0  0  0
    1.8941   10.2155    0.3601 H   0  0  0  0  0  0  0  0  0  0  0  0
   -0.0038   12.8346    1.4343 H   0  0  0  0  0  0  0  0  0  0  0  0
    0.3587   13.9574    0.0798 H   0  0  0  0  0  0  0  0  0  0  0  0
   -1.1699   13.0141    0.0798 H   0  0  0  0  0  0  0  0  0  0  0  0
    2.2275   11.4558   -1.6942 H   0  0  0  0  0  0  0  0  0  0  0  0
    2.9380   12.8189    0.3726 H   0  0  0  0  0  0  0  0  0  0  0  0
    3.7417   13.0786   -1.2634 H   0  0  0  0  0  0  0  0  0  0  0  0
    3.1978   15.2506    0.1257 H   0  0  0  0  0  0  0  0  0  0  0  0
   -0.1894   14.5574   -1.9617 H   0  0  0  0  0  0  0  0  0  0  0  0
    1.8308   15.5251   -4.0780 H   0  0  0  0  0  0  0  0  0  0  0  0
    0.1029   15.0313   -4.3625 H   0  0  0  0  0  0  0  0  0  0  0  0
    0.3843   17.4891   -4.3516 H   0  0  0  0  0  0  0  0  0  0  0  0
   -0.6826   16.8945   -3.0194 H   0  0  0  0  0  0  0  0  0  0  0  0
    0.7761   18.5860   -2.1412 H   0  0  0  0  0  0  0  0  0  0  0  0
    2.4930   18.5000   -3.5900 H   0  0  0  0  0  0  0  0  0  0  0  0
    0.1667   16.9027    0.7998 H   0  0  0  0  0  0  0  0  0  0  0  0
   -0.5351   17.8422   -0.5608 H   0  0  0  0  0  0  0  0  0  0  0  0
   -0.6372   16.0488   -0.5608 H   0  0  0  0  0  0  0  0  0  0  0  0
    2.1287   17.3903    0.9201 H   0  0  0  0  0  0  0  0  0  0  0  0
    3.3811   17.1715   -0.3489 H   0  0  0  0  0  0  0  0  0  0  0  0
    2.3499   18.6423   -0.3489 H   0  0  0  0  0  0  0  0  0  0  0  0
    3.3173   12.9717   -3.1981 H   0  0  0  0  0  0  0  0  0  0  0  0
    2.2009   12.1488   -4.3396 H   0  0  0  0  0  0  0  0  0  0  0  0
    2.3250   13.9408   -4.3396 H   0  0  0  0  0  0  0  0  0  0  0  0
   -0.5757   13.1250   -3.9018 H   0  0  0  0  0  0  0  0  0  0  0  0
    0.3788   11.5375   -3.8397 H   0  0  0  0  0  0  0  0  0  0  0  0
   -1.6074   12.5812   -1.8022 H   0  0  0  0  0  0  0  0  0  0  0  0
   -1.7457   11.1320   -2.8737 H   0  0  0  0  0  0  0  0  0  0  0  0
    0.7760    9.0339   -1.2507 H   0  0  0  0  0  0  0  0  0  0  0  0
   -0.3726    9.2039   -2.6213 H   0  0  0  0  0  0  0  0  0  0  0  0
    1.1685   10.1267   -2.6213 H   0  0  0  0  0  0  0  0  0  0  0  0
  1  2  1  0
  2  3  1  0
  3  4  1  0
  4  5  1  0
  5  6  1  0
  6  7  1  0
  7  8  1  0
  7  9  1  0
  2 10  1  0
 10 11  1  0
 11 12  1  0
 12 13  1  0
 13 14  1  1
 13 15  1  0
 15 16  1  0
 16 17  1  0
 17 18  2  0
 18 19  1  0
 19 20  1  0
 20 21  1  0
 21 22  1  0
 22 23  1  0
 22 24  1  0
 24 25  1  0
 24 26  1  0
 19 27  1  0
 27 28  1  6
 27 29  1  0
 29 30  1  0
 30 31  1  0
 31 32  1  6
  7  5  1  0
 31 10  1  0
 31 13  1  0
 27 15  1  0
 24 18  1  0
  1 33  1  0
  1 34  1  0
  1 35  1  0
  2 36  1  1
  3 37  1  0
  3 38  1  0
  4 39  1  0
  4 40  1  0
  5 41  1  6
  8 42  1  0
  8 43  1  0
  8 44  1  0
  9 45  1  0
  9 46  1  0
  9 47  1  0
 10 48  1  1
 11 49  1  0
 11 50  1  0
 12 51  1  0
 12 52  1  0
 14 53  1  0
 14 54  1  0
 14 55  1  0
 15 56  1  6
 16 57  1  0
 16 58  1  0
 17 59  1  0
 19 60  1  1
 20 61  1  0
 20 62  1  0
 21 63  1  0
 21 64  1  0
 22 65  1  1
 23 66  1  0
 25 67  1  0
 25 68  1  0
 25 69  1  0
 26 70  1  0
 26 71  1  0
 26 72  1  0
 28 73  1  0
 28 74  1  0
 28 75  1  0
 29 76  1  0
 29 77  1  0
 30 78  1  0
 30 79  1  0
 32 80  1  0
 32 81  1  0
 32 82  1  0
M  END
>  <meeko>  (1) 
{"is_sidechain": [false], "intermolecular_energy": 2.731, "internal_energy": -0.839}

$$$$
EPH_relaxed_0001_pdb2pqr_Repair_242_r2_0001_out
     RDKit          3D

 82 86  0  0  0  0  0  0  0  0999 V2000
    4.2110   17.5270   -0.6470 C   0  0  0  0  0  0  0  0  0  0  0  0
    2.8460   18.1040   -0.2610 C   0  0  2  0  0  0  0  0  0  0  0  0
    2.8850   18.8280    1.1000 C   0  0  0  0  0  0  0  0  0  0  0  0
    4.2070   18.6540    1.8520 C   0  0  0  0  0  0  0  0  0  0  0  0
    4.1290   19.2030    3.2440 C   0  0  2  0  0  0  0  0  0  0  0  0
    5.1220   20.1890    3.5550 O   0  0  0  0  0  0  0  0  0  0  0  0
    5.1930   18.9620    4.3000 C   0  0  0  0  0  0  0  0  0  0  0  0
    6.4100   18.1420    4.0080 C   0  0  0  0  0  0  0  0  0  0  0  0
    4.8160   19.1090    5.7410 C   0  0  0  0  0  0  0  0  0  0  0  0
    1.8030   16.9930   -0.2300 C   0  0  1  0  0  0  0  0  0  0  0  0
    0.3700   17.5100   -0.5270 C   0  0  0  0  0  0  0  0  0  0  0  0
   -0.3560   16.3900   -1.3150 C   0  0  0  0  0  0  0  0  0  0  0  0
    0.5550   15.1500   -1.1580 C   0  0  1  0  0  0  0  0  0  0  0  0
    0.2010   14.5660    0.2460 C   0  0  0  0  0  0  0  0  0  0  0  0
    0.4450   14.0650   -2.2790 C   0  0  2  0  0  0  0  0  0  0  0  0
   -0.9350   13.3950   -2.4040 C   0  0  0  0  0  0  0  0  0  0  0  0
   -1.1220   12.1620   -1.5830 C   0  0  0  0  0  0  0  0  0  0  0  0
   -0.1370   11.4540   -0.9990 C   0  0  0  0  0  0  0  0  0  0  0  0
    1.3350   11.8230   -1.2200 C   0  0  1  0  0  0  0  0  0  0  0  0
    2.1480   10.5410   -1.5390 C   0  0  0  0  0  0  0  0  0  0  0  0
    1.9700    9.4570   -0.4800 C   0  0  0  0  0  0  0  0  0  0  0  0
    0.5000    9.0760   -0.3310 C   0  0  2  0  0  0  0  0  0  0  0  0
    0.0630    8.4410   -1.5360 O   0  0  0  0  0  0  0  0  0  0  0  0
   -0.4190   10.2900   -0.0180 C   0  0  0  0  0  0  0  0  0  0  0  0
   -0.1460   10.7920    1.4220 C   0  0  0  0  0  0  0  0  0  0  0  0
   -1.8900    9.7930   -0.0330 C   0  0  0  0  0  0  0  0  0  0  0  0
    1.6090   12.9930   -2.2600 C   0  0  1  0  0  0  0  0  0  0  0  0
    1.7010   12.4110   -3.7040 C   0  0  0  0  0  0  0  0  0  0  0  0
    3.0110   13.6380   -1.9520 C   0  0  0  0  0  0  0  0  0  0  0  0
    3.0370   14.7860   -0.9240 C   0  0  0  0  0  0  0  0  0  0  0  0
    1.9680   15.8340   -1.2450 C   0  0  2  0  0  0  0  0  0  0  0  0
    2.3110   16.4550   -2.6420 C   0  0  0  0  0  0  0  0  0  0  0  0
    4.7786   17.2871    0.2642 H   0  0  0  0  0  0  0  0  0  0  0  0
    4.0677   16.6125   -1.2412 H   0  0  0  0  0  0  0  0  0  0  0  0
    4.7671   18.2670   -1.2412 H   0  0  0  0  0  0  0  0  0  0  0  0
    2.5739   18.8490   -1.0232 H   0  0  0  0  0  0  0  0  0  0  0  0
    2.7228   19.9021    0.9267 H   0  0  0  0  0  0  0  0  0  0  0  0
    2.0983   18.3802    1.7250 H   0  0  0  0  0  0  0  0  0  0  0  0
    4.4489   17.5822    1.9045 H   0  0  0  0  0  0  0  0  0  0  0  0
    4.9864   19.2078    1.3081 H   0  0  0  0  0  0  0  0  0  0  0  0
    3.0360   19.0800    3.2565 H   0  0  0  0  0  0  0  0  0  0  0  0
    6.8761   17.8280    4.9536 H   0  0  0  0  0  0  0  0  0  0  0  0
    6.1224   17.2528    3.4279 H   0  0  0  0  0  0  0  0  0  0  0  0
    7.1262   18.7424    3.4279 H   0  0  0  0  0  0  0  0  0  0  0  0
    5.6539   18.7823    6.3744 H   0  0  0  0  0  0  0  0  0  0  0  0
    4.5848   20.1632    5.9538 H   0  0  0  0  0  0  0  0  0  0  0  0
    3.9322   18.4896    5.9538 H   0  0  0  0  0  0  0  0  0  0  0  0
    1.9595   16.6221    0.7937 H   0  0  0  0  0  0  0  0  0  0  0  0
   -0.1609   17.7160    0.4141 H   0  0  0  0  0  0  0  0  0  0  0  0
    0.3998   18.4445   -1.1065 H   0  0  0  0  0  0  0  0  0  0  0  0
   -1.3513   16.1973   -0.8882 H   0  0  0  0  0  0  0  0  0  0  0  0
   -0.5172   16.6587   -2.3694 H   0  0  0  0  0  0  0  0  0  0  0  0
    0.6013   15.2264    1.0294 H   0  0  0  0  0  0  0  0  0  0  0  0
   -0.8919   14.4956    0.3489 H   0  0  0  0  0  0  0  0  0  0  0  0
    0.6442   13.5645    0.3489 H   0  0  0  0  0  0  0  0  0  0  0  0
    0.5735   14.6584   -3.1962 H   0  0  0  0  0  0  0  0  0  0  0  0
   -1.6970   14.1265   -2.0971 H   0  0  0  0  0  0  0  0  0  0  0  0
   -1.0256   13.0784   -3.4536 H   0  0  0  0  0  0  0  0  0  0  0  0
   -2.1519   11.8015   -1.4435 H   0  0  0  0  0  0  0  0  0  0  0  0
    1.6834   12.2607   -0.2729 H   0  0  0  0  0  0  0  0  0  0  0  0
    1.8146   10.1443   -2.5093 H   0  0  0  0  0  0  0  0  0  0  0  0
    3.2126   10.8169   -1.5589 H   0  0  0  0  0  0  0  0  0  0  0  0
    2.5443    8.5668   -0.7761 H   0  0  0  0  0  0  0  0  0  0  0  0
    2.3314    9.8451    0.4837 H   0  0  0  0  0  0  0  0  0  0  0  0
    0.4224    8.3935    0.5282 H   0  0  0  0  0  0  0  0  0  0  0  0
    0.5630    7.6120   -1.6300 H   0  0  0  0  0  0  0  0  0  0  0  0
   -0.5419   10.0640    2.1453 H   0  0  0  0  0  0  0  0  0  0  0  0
    0.9379   10.9051    1.5716 H   0  0  0  0  0  0  0  0  0  0  0  0
   -0.6401   11.7633    1.5716 H   0  0  0  0  0  0  0  0  0  0  0  0
   -2.2468    9.6724    1.0005 H   0  0  0  0  0  0  0  0  0  0  0  0
   -2.5201   10.5281   -0.5551 H   0  0  0  0  0  0  0  0  0  0  0  0
   -1.9451    8.8264   -0.5551 H   0  0  0  0  0  0  0  0  0  0  0  0
    1.8726   11.3257   -3.6517 H   0  0  0  0  0  0  0  0  0  0  0  0
    0.7605   12.6082   -4.2394 H   0  0  0  0  0  0  0  0  0  0  0  0
    2.5348   12.8886   -4.2394 H   0  0  0  0  0  0  0  0  0  0  0  0
    3.6691   12.8404   -1.5768 H   0  0  0  0  0  0  0  0  0  0  0  0
    3.3329   14.0933   -2.9002 H   0  0  0  0  0  0  0  0  0  0  0  0
    2.8484   14.3752    0.0788 H   0  0  0  0  0  0  0  0  0  0  0  0
    4.0244   15.2692   -0.9630 H   0  0  0  0  0  0  0  0  0  0  0  0
    2.8383   17.4098   -2.4993 H   0  0  0  0  0  0  0  0  0  0  0  0
    2.9539   15.7614   -3.2037 H   0  0  0  0  0  0  0  0  0  0  0  0
    1.3815   16.6299   -3.2037 H   0  0  0  0  0  0  0  0  0  0  0  0
  1  2  1  0
  2  3  1  0
  3  4  1  0
  4  5  1  0
  5  6  1  0
  6  7  1  0
  7  8  1  0
  7  9  1  0
  2 10  1  0
 10 11  1  0
 11 12  1  0
 12 13  1  0
 13 14  1  1
 13 15  1  0
 15 16  1  0
 16 17  1  0
 17 18  2  0
 18 19  1  0
 19 20  1  0
 20 21  1  0
 21 22  1  0
 22 23  1  0
 22 24  1  0
 24 25  1  0
 24 26  1  0
 19 27  1  0
 27 28  1  6
 27 29  1  0
 29 30  1  0
 30 31  1  0
 31 32  1  6
  7  5  1  0
 31 10  1  0
 31 13  1  0
 27 15  1  0
 24 18  1  0
  1 33  1  0
  1 34  1  0
  1 35  1  0
  2 36  1  6
  3 37  1  0
  3 38  1  0
  4 39  1  0
  4 40  1  0
  5 41  1  1
  8 42  1  0
  8 43  1  0
  8 44  1  0
  9 45  1  0
  9 46  1  0
  9 47  1  0
 10 48  1  1
 11 49  1  0
 11 50  1  0
 12 51  1  0
 12 52  1  0
 14 53  1  0
 14 54  1  0
 14 55  1  0
 15 56  1  6
 16 57  1  0
 16 58  1  0
 17 59  1  0
 19 60  1  1
 20 61  1  0
 20 62  1  0
 21 63  1  0
 21 64  1  0
 22 65  1  1
 23 66  1  0
 25 67  1  0
 25 68  1  0
 25 69  1  0
 26 70  1  0
 26 71  1  0
 26 72  1  0
 28 73  1  0
 28 74  1  0
 28 75  1  0
 29 76  1  0
 29 77  1  0
 30 78  1  0
 30 79  1  0
 32 80  1  0
 32 81  1  0
 32 82  1  0
M  END
>  <meeko>  (2) 
{"is_sidechain": [false], "intermolecular_energy": 2.731, "internal_energy": -0.839}

$$$$
EPH_relaxed_0001_pdb2pqr_Repair_242_r2_0001_out
     RDKit          3D

 82 86  0  0  0  0  0  0  0  0999 V2000
    2.2920   18.0670   -2.6600 C   0  0  0  0  0  0  0  0  0  0  0  0
    1.0210   17.6540   -1.9140 C   0  0  2  0  0  0  0  0  0  0  0  0
    1.2060   17.6930   -0.3840 C   0  0  0  0  0  0  0  0  0  0  0  0
    0.8610   19.0460    0.2440 C   0  0  0  0  0  0  0  0  0  0  0  0
   -0.5920   19.1380    0.5990 C   0  0  2  0  0  0  0  0  0  0  0  0
   -1.4500   18.2760   -0.1610 O   0  0  0  0  0  0  0  0  0  0  0  0
   -1.6490   19.6880   -0.3400 C   0  0  0  0  0  0  0  0  0  0  0  0
   -1.2970   20.1830   -1.7080 C   0  0  0  0  0  0  0  0  0  0  0  0
   -2.9310   20.1940    0.2440 C   0  0  0  0  0  0  0  0  0  0  0  0
    0.5920   16.2580   -2.3520 C   0  0  1  0  0  0  0  0  0  0  0  0
    0.7160   16.0480   -3.8840 C   0  0  0  0  0  0  0  0  0  0  0  0
    1.1330   14.5710   -4.1010 C   0  0  0  0  0  0  0  0  0  0  0  0
    0.9130   13.8980   -2.7260 C   0  0  1  0  0  0  0  0  0  0  0  0
   -0.6160   13.5900   -2.6700 C   0  0  0  0  0  0  0  0  0  0  0  0
    1.7690   12.6220   -2.4350 C   0  0  2  0  0  0  0  0  0  0  0  0
    1.5140   11.4360   -3.3810 C   0  0  0  0  0  0  0  0  0  0  0  0
    0.4550   10.4820   -2.9360 C   0  0  0  0  0  0  0  0  0  0  0  0
   -0.0640   10.4130   -1.6960 C   0  0  0  0  0  0  0  0  0  0  0  0
    0.4850   11.2870   -0.5620 C   0  0  1  0  0  0  0  0  0  0  0  0
    0.6980   10.4180    0.7060 C   0  0  0  0  0  0  0  0  0  0  0  0
   -0.5610    9.6590    1.1120 C   0  0  0  0  0  0  0  0  0  0  0  0
   -1.0440    8.7570   -0.0210 C   0  0  2  0  0  0  0  0  0  0  0  0
   -0.0790    7.7200   -0.2270 O   0  0  0  0  0  0  0  0  0  0  0  0
   -1.2830    9.5210   -1.3530 C   0  0  0  0  0  0  0  0  0  0  0  0
   -2.5280   10.4310   -1.2150 C   0  0  0  0  0  0  0  0  0  0  0  0
   -1.6290    8.4750   -2.4470 C   0  0  0  0  0  0  0  0  0  0  0  0
    1.7600   12.1670   -0.9200 C   0  0  1  0  0  0  0  0  0  0  0  0
    3.0600   11.3350   -0.6970 C   0  0  0  0  0  0  0  0  0  0  0  0
    1.8380   13.3870    0.0720 C   0  0  0  0  0  0  0  0  0  0  0  0
    1.0680   14.6590   -0.3290 C   0  0  0  0  0  0  0  0  0  0  0  0
    1.3820   15.0580   -1.7740 C   0  0  2  0  0  0  0  0  0  0  0  0
    2.9100   15.3950   -1.8550 C   0  0  0  0  0  0  0  0  0  0  0  0
    3.0772   18.3222   -1.9332 H   0  0  0  0  0  0  0  0  0  0  0  0
    2.6337   17.2337   -3.2915 H   0  0  0  0  0  0  0  0  0  0  0  0
    2.0786   18.9420   -3.2915 H   0  0  0  0  0  0  0  0  0  0  0  0
    0.2365   18.3815   -2.1694 H   0  0  0  0  0  0  0  0  0  0  0  0
    0.5563   16.9266    0.0639 H   0  0  0  0  0  0  0  0  0  0  0  0
    2.2720   17.5088   -0.1846 H   0  0  0  0  0  0  0  0  0  0  0  0
    1.4601   19.1784    1.1570 H   0  0  0  0  0  0  0  0  0  0  0  0
    1.0847   19.8325   -0.4918 H   0  0  0  0  0  0  0  0  0  0  0  0
   -0.3459   19.3648    1.6469 H   0  0  0  0  0  0  0  0  0  0  0  0
   -0.6615   21.0767   -1.6223 H   0  0  0  0  0  0  0  0  0  0  0  0
   -0.7535   19.3975   -2.2535 H   0  0  0  0  0  0  0  0  0  0  0  0
   -2.2174   20.4385   -2.2535 H   0  0  0  0  0  0  0  0  0  0  0  0
   -2.8687   20.1694    1.3420 H   0  0  0  0  0  0  0  0  0  0  0  0
   -3.1035   21.2276   -0.0904 H   0  0  0  0  0  0  0  0  0  0  0  0
   -3.7630   19.5568   -0.0904 H   0  0  0  0  0  0  0  0  0  0  0  0
   -0.4378   16.2517   -1.9655 H   0  0  0  0  0  0  0  0  0  0  0  0
   -0.2497   16.2446   -4.3726 H   0  0  0  0  0  0  0  0  0  0  0  0
    1.4571   16.7353   -4.3180 H   0  0  0  0  0  0  0  0  0  0  0  0
    0.5038   14.0987   -4.8697 H   0  0  0  0  0  0  0  0  0  0  0  0
    2.1720   14.4776   -4.4499 H   0  0  0  0  0  0  0  0  0  0  0  0
   -0.9387   13.5250   -1.6204 H   0  0  0  0  0  0  0  0  0  0  0  0
   -1.1708   14.3944   -3.1751 H   0  0  0  0  0  0  0  0  0  0  0  0
   -0.8161   12.6335   -3.1751 H   0  0  0  0  0  0  0  0  0  0  0  0
    2.7897   12.9665   -2.6575 H   0  0  0  0  0  0  0  0  0  0  0  0
    1.2180   11.8399   -4.3604 H   0  0  0  0  0  0  0  0  0  0  0  0
    2.4510   10.8603   -3.4070 H   0  0  0  0  0  0  0  0  0  0  0  0
    0.0662    9.7761   -3.6847 H   0  0  0  0  0  0  0  0  0  0  0  0
   -0.2835   12.0494   -0.3668 H   0  0  0  0  0  0  0  0  0  0  0  0
    1.4988    9.6911    0.5051 H   0  0  0  0  0  0  0  0  0  0  0  0
    0.9628   11.0930    1.5332 H   0  0  0  0  0  0  0  0  0  0  0  0
   -0.3398    9.0410    1.9947 H   0  0  0  0  0  0  0  0  0  0  0  0
   -1.3518   10.3884    1.3413 H   0  0  0  0  0  0  0  0  0  0  0  0
   -2.0167    8.3408    0.2799 H   0  0  0  0  0  0  0  0  0  0  0  0
   -0.2690    7.3080   -1.0860 H   0  0  0  0  0  0  0  0  0  0  0  0
   -2.7482   10.5920   -0.1494 H   0  0  0  0  0  0  0  0  0  0  0  0
   -2.3302   11.3989   -1.6988 H   0  0  0  0  0  0  0  0  0  0  0  0
   -3.3902    9.9487   -1.6988 H   0  0  0  0  0  0  0  0  0  0  0  0
   -1.9402    7.5342   -1.9694 H   0  0  0  0  0  0  0  0  0  0  0  0
   -2.4487    8.8569   -3.0733 H   0  0  0  0  0  0  0  0  0  0  0  0
   -0.7433    8.2928   -3.0733 H   0  0  0  0  0  0  0  0  0  0  0  0
    3.2407   11.2193    0.3819 H   0  0  0  0  0  0  0  0  0  0  0  0
    2.9440   10.3429   -1.1578 H   0  0  0  0  0  0  0  0  0  0  0  0
    3.9123   11.8559   -1.1578 H   0  0  0  0  0  0  0  0  0  0  0  0
    1.4443   13.0520    1.0429 H   0  0  0  0  0  0  0  0  0  0  0  0
    2.8974   13.6830    0.0811 H   0  0  0  0  0  0  0  0  0  0  0  0
   -0.0116   14.4708   -0.2343 H   0  0  0  0  0  0  0  0  0  0  0  0
    1.3760   15.4794    0.3359 H   0  0  0  0  0  0  0  0  0  0  0  0
    3.3199   15.4854   -0.8383 H   0  0  0  0  0  0  0  0  0  0  0  0
    3.4348   14.5910   -2.3918 H   0  0  0  0  0  0  0  0  0  0  0  0
    3.0480   16.3452   -2.3918 H   0  0  0  0  0  0  0  0  0  0  0  0
  1  2  1  0
  2  3  1  0
  3  4  1  0
  4  5  1  0
  5  6  1  0
  6  7  1  0
  7  8  1  0
  7  9  1  0
  2 10  1  0
 10 11  1  0
 11 12  1  0
 12 13  1  0
 13 14  1  1
 13 15  1  0
 15 16  1  0
 16 17  1  0
 17 18  2  0
 18 19  1  0
 19 20  1  0
 20 21  1  0
 21 22  1  0
 22 23  1  0
 22 24  1  0
 24 25  1  0
 24 26  1  0
 19 27  1  0
 27 28  1  6
 27 29  1  0
 29 30  1  0
 30 31  1  0
 31 32  1  1
  7  5  1  0
 31 10  1  0
 31 13  1  0
 27 15  1  0
 24 18  1  0
  1 33  1  0
  1 34  1  0
  1 35  1  0
  2 36  1  1
  3 37  1  0
  3 38  1  0
  4 39  1  0
  4 40  1  0
  5 41  1  1
  8 42  1  0
  8 43  1  0
  8 44  1  0
  9 45  1  0
  9 46  1  0
  9 47  1  0
 10 48  1  1
 11 49  1  0
 11 50  1  0
 12 51  1  0
 12 52  1  0
 14 53  1  0
 14 54  1  0
 14 55  1  0
 15 56  1  6
 16 57  1  0
 16 58  1  0
 17 59  1  0
 19 60  1  1
 20 61  1  0
 20 62  1  0
 21 63  1  0
 21 64  1  0
 22 65  1  1
 23 66  1  0
 25 67  1  0
 25 68  1  0
 25 69  1  0
 26 70  1  0
 26 71  1  0
 26 72  1  0
 28 73  1  0
 28 74  1  0
 28 75  1  0
 29 76  1  0
 29 77  1  0
 30 78  1  0
 30 79  1  0
 32 80  1  0
 32 81  1  0
 32 82  1  0
M  END
>  <meeko>  (3) 
{"is_sidechain": [false], "intermolecular_energy": 2.731, "internal_energy": -0.839}

$$$$
EPH_relaxed_0001_pdb2pqr_Repair_242_r2_0001_out
     RDKit          3D

 82 86  0  0  0  0  0  0  0  0999 V2000
    0.4020   18.4210   -0.0600 C   0  0  0  0  0  0  0  0  0  0  0  0
    1.4880   17.3600   -0.2620 C   0  0  2  0  0  0  0  0  0  0  0  0
    2.7070   17.9150   -1.0240 C   0  0  0  0  0  0  0  0  0  0  0  0
    3.9400   18.1270   -0.1420 C   0  0  0  0  0  0  0  0  0  0  0  0
    3.5660   18.6040    1.2290 C   0  0  2  0  0  0  0  0  0  0  0  0
    3.8020   19.9990    1.4630 O   0  0  0  0  0  0  0  0  0  0  0  0
    4.5770   19.0830    2.2530 C   0  0  0  0  0  0  0  0  0  0  0  0
    6.0430   19.1070    1.9510 C   0  0  0  0  0  0  0  0  0  0  0  0
    4.1950   19.0630    3.7000 C   0  0  0  0  0  0  0  0  0  0  0  0
    0.9100   16.1610   -1.0050 C   0  0  1  0  0  0  0  0  0  0  0  0
    0.7790   16.4100   -2.5310 C   0  0  0  0  0  0  0  0  0  0  0  0
    1.0650   15.0570   -3.2320 C   0  0  0  0  0  0  0  0  0  0  0  0
    1.0230   14.0120   -2.0930 C   0  0  1  0  0  0  0  0  0  0  0  0
   -0.4940   13.7200   -1.8720 C   0  0  0  0  0  0  0  0  0  0  0  0
    1.8350   12.6970   -2.3320 C   0  0  2  0  0  0  0  0  0  0  0  0
    1.3620   11.8450   -3.5220 C   0  0  0  0  0  0  0  0  0  0  0  0
    0.3290   10.8160   -3.2000 C   0  0  0  0  0  0  0  0  0  0  0  0
    0.0090   10.3900   -1.9640 C   0  0  0  0  0  0  0  0  0  0  0  0
    0.7830   10.8850   -0.7350 C   0  0  1  0  0  0  0  0  0  0  0  0
    1.1380    9.6780    0.1730 C   0  0  0  0  0  0  0  0  0  0  0  0
   -0.0850    8.8480    0.5490 C   0  0  0  0  0  0  0  0  0  0  0  0
   -0.7950    8.3260   -0.6980 C   0  0  2  0  0  0  0  0  0  0  0  0
    0.0600    7.3850   -1.3540 O   0  0  0  0  0  0  0  0  0  0  0  0
   -1.1930    9.4520   -1.6930 C   0  0  0  0  0  0  0  0  0  0  0  0
   -2.3430   10.2960   -1.0900 C   0  0  0  0  0  0  0  0  0  0  0  0
   -1.7710    8.7800   -2.9670 C   0  0  0  0  0  0  0  0  0  0  0  0
    2.0360   11.8150   -1.0340 C   0  0  1  0  0  0  0  0  0  0  0  0
    3.3020   10.9380   -1.2830 C   0  0  0  0  0  0  0  0  0  0  0  0
    2.3440   12.6870    0.2410 C   0  0  0  0  0  0  0  0  0  0  0  0
    1.6000   14.0300    0.3600 C   0  0  0  0  0  0  0  0  0  0  0  0
    1.7070   14.8340   -0.9400 C   0  0  2  0  0  0  0  0  0  0  0  0
    3.2200   15.1610   -1.1770 C   0  0  0  0  0  0  0  0  0  0  0  0
    0.2399   18.5794    1.0164 H   0  0  0  0  0  0  0  0  0  0  0  0
    0.7207   19.3652   -0.5257 H   0  0  0  0  0  0  0  0  0  0  0  0
   -0.5345   18.0804   -0.5257 H   0  0  0  0  0  0  0  0  0  0  0  0
    1.8361   17.0480    0.7337 H   0  0  0  0  0  0  0  0  0  0  0  0
    2.9694   17.2059   -1.8230 H   0  0  0  0  0  0  0  0  0  0  0  0
    2.4189   18.9015   -1.4161 H   0  0  0  0  0  0  0  0  0  0  0  0
    4.4821   17.1741   -0.0523 H   0  0  0  0  0  0  0  0  0  0  0  0
    4.5699   18.8963   -0.6126 H   0  0  0  0  0  0  0  0  0  0  0  0
    2.7487   17.8701    1.2867 H   0  0  0  0  0  0  0  0  0  0  0  0
    6.6113   19.1163    2.8928 H   0  0  0  0  0  0  0  0  0  0  0  0
    6.3122   18.2131    1.3691 H   0  0  0  0  0  0  0  0  0  0  0  0
    6.2828   20.0092    1.3691 H   0  0  0  0  0  0  0  0  0  0  0  0
    5.1027   19.1105    4.3195 H   0  0  0  0  0  0  0  0  0  0  0  0
    3.5538   19.9288    3.9220 H   0  0  0  0  0  0  0  0  0  0  0  0
    3.6477   18.1350    3.9220 H   0  0  0  0  0  0  0  0  0  0  0  0
   -0.0448   16.0542   -0.4692 H   0  0  0  0  0  0  0  0  0  0  0  0
   -0.2374   16.7542   -2.7726 H   0  0  0  0  0  0  0  0  0  0  0  0
    1.4840   17.1850   -2.8663 H   0  0  0  0  0  0  0  0  0  0  0  0
    0.2948   14.8401   -3.9868 H   0  0  0  0  0  0  0  0  0  0  0  0
    2.0284   15.0573   -3.7630 H   0  0  0  0  0  0  0  0  0  0  0  0
   -0.7062   13.6792   -0.7934 H   0  0  0  0  0  0  0  0  0  0  0  0
   -1.0923   14.5195   -2.3334 H   0  0  0  0  0  0  0  0  0  0  0  0
   -0.7528   12.7556   -2.3334 H   0  0  0  0  0  0  0  0  0  0  0  0
    2.8265   13.0804   -2.6148 H   0  0  0  0  0  0  0  0  0  0  0  0
    0.9417   12.5229   -4.2794 H   0  0  0  0  0  0  0  0  0  0  0  0
    2.2461   11.2900   -3.8689 H   0  0  0  0  0  0  0  0  0  0  0  0
   -0.2164   10.3684   -4.0440 H   0  0  0  0  0  0  0  0  0  0  0  0
    0.1045   11.5664   -0.2008 H   0  0  0  0  0  0  0  0  0  0  0  0
    1.8511    9.0329   -0.3612 H   0  0  0  0  0  0  0  0  0  0  0  0
    1.5696   10.0761    1.1032 H   0  0  0  0  0  0  0  0  0  0  0  0
    0.2347    7.9946    1.1650 H   0  0  0  0  0  0  0  0  0  0  0  0
   -0.7838    9.4866    1.1093 H   0  0  0  0  0  0  0  0  0  0  0  0
   -1.7318    7.8515   -0.3705 H   0  0  0  0  0  0  0  0  0  0  0  0
    0.8220    7.8750   -1.7060 H   0  0  0  0  0  0  0  0  0  0  0  0
   -2.2897   10.2569    0.0080 H   0  0  0  0  0  0  0  0  0  0  0  0
   -2.2466   11.3394   -1.4249 H   0  0  0  0  0  0  0  0  0  0  0  0
   -3.3094    9.8912   -1.4249 H   0  0  0  0  0  0  0  0  0  0  0  0
   -2.4627    7.9758   -2.6757 H   0  0  0  0  0  0  0  0  0  0  0  0
   -2.3109    9.5296   -3.5641 H   0  0  0  0  0  0  0  0  0  0  0  0
   -0.9491    8.3583   -3.5641 H   0  0  0  0  0  0  0  0  0  0  0  0
    3.7356   10.6376   -0.3177 H   0  0  0  0  0  0  0  0  0  0  0  0
    3.0201   10.0407   -1.8534 H   0  0  0  0  0  0  0  0  0  0  0  0
    4.0430   11.5173   -1.8534 H   0  0  0  0  0  0  0  0  0  0  0  0
    2.0880   12.0852    1.1255 H   0  0  0  0  0  0  0  0  0  0  0  0
    3.4079   12.9538    0.1571 H   0  0  0  0  0  0  0  0  0  0  0  0
    0.5392   13.8356    0.5765 H   0  0  0  0  0  0  0  0  0  0  0  0
    2.0583   14.6138    1.1719 H   0  0  0  0  0  0  0  0  0  0  0  0
    3.7277   15.2707   -0.2073 H   0  0  0  0  0  0  0  0  0  0  0  0
    3.6873   14.3431   -1.7451 H   0  0  0  0  0  0  0  0  0  0  0  0
    3.3078   16.0989   -1.7451 H   0  0  0  0  0  0  0  0  0  0  0  0
  1  2  1  0
  2  3  1  0
  3  4  1  0
  4  5  1  0
  5  6  1  0
  6  7  1  0
  7  8  1  0
  7  9  1  0
  2 10  1  0
 10 11  1  0
 11 12  1  0
 12 13  1  0
 13 14  1  1
 13 15  1  0
 15 16  1  0
 16 17  1  0
 17 18  2  0
 18 19  1  0
 19 20  1  0
 20 21  1  0
 21 22  1  0
 22 23  1  0
 22 24  1  0
 24 25  1  0
 24 26  1  0
 19 27  1  0
 27 28  1  6
 27 29  1  0
 29 30  1  0
 30 31  1  0
 31 32  1  6
  7  5  1  0
 31 10  1  0
 31 13  1  0
 27 15  1  0
 24 18  1  0
  1 33  1  0
  1 34  1  0
  1 35  1  0
  2 36  1  1
  3 37  1  0
  3 38  1  0
  4 39  1  0
  4 40  1  0
  5 41  1  1
  8 42  1  0
  8 43  1  0
  8 44  1  0
  9 45  1  0
  9 46  1  0
  9 47  1  0
 10 48  1  1
 11 49  1  0
 11 50  1  0
 12 51  1  0
 12 52  1  0
 14 53  1  0
 14 54  1  0
 14 55  1  0
 15 56  1  6
 16 57  1  0
 16 58  1  0
 17 59  1  0
 19 60  1  1
 20 61  1  0
 20 62  1  0
 21 63  1  0
 21 64  1  0
 22 65  1  1
 23 66  1  0
 25 67  1  0
 25 68  1  0
 25 69  1  0
 26 70  1  0
 26 71  1  0
 26 72  1  0
 28 73  1  0
 28 74  1  0
 28 75  1  0
 29 76  1  0
 29 77  1  0
 30 78  1  0
 30 79  1  0
 32 80  1  0
 32 81  1  0
 32 82  1  0
M  END
>  <meeko>  (4) 
{"is_sidechain": [false], "intermolecular_energy": 2.731, "internal_energy": -0.839}

$$$$
EPH_relaxed_0001_pdb2pqr_Repair_242_r2_0001_out
     RDKit          3D

 82 86  0  0  0  0  0  0  0  0999 V2000
    3.8170   17.6040    0.5780 C   0  0  0  0  0  0  0  0  0  0  0  0
    2.8620   17.9600   -0.5650 C   0  0  2  0  0  0  0  0  0  0  0  0
    2.2020   19.3390   -0.3620 C   0  0  0  0  0  0  0  0  0  0  0  0
    1.2150   19.3820    0.8080 C   0  0  0  0  0  0  0  0  0  0  0  0
   -0.0670   20.0580    0.4270 C   0  0  2  0  0  0  0  0  0  0  0  0
   -1.0120   20.1940    1.4960 O   0  0  0  0  0  0  0  0  0  0  0  0
   -1.4100   19.3510    0.4020 C   0  0  0  0  0  0  0  0  0  0  0  0
   -1.5370   17.9050    0.7640 C   0  0  0  0  0  0  0  0  0  0  0  0
   -2.5070   19.9290   -0.4370 C   0  0  0  0  0  0  0  0  0  0  0  0
    1.7910   16.8840   -0.7010 C   0  0  1  0  0  0  0  0  0  0  0  0
    0.5500   17.3750   -1.4930 C   0  0  0  0  0  0  0  0  0  0  0  0
    0.0270   16.1590   -2.3010 C   0  0  0  0  0  0  0  0  0  0  0  0
    0.7690   14.9430   -1.7010 C   0  0  1  0  0  0  0  0  0  0  0  0
   -0.0280   14.5860   -0.4070 C   0  0  0  0  0  0  0  0  0  0  0  0
    0.9340   13.7020   -2.6380 C   0  0  2  0  0  0  0  0  0  0  0  0
   -0.3830   13.0440   -3.0870 C   0  0  0  0  0  0  0  0  0  0  0  0
   -0.8860   11.9540   -2.1990 C   0  0  0  0  0  0  0  0  0  0  0  0
   -0.1690   11.3270   -1.2480 C   0  0  0  0  0  0  0  0  0  0  0  0
    1.3220   11.6330   -1.0540 C   0  0  1  0  0  0  0  0  0  0  0  0
    2.1110   10.3030   -0.9250 C   0  0  0  0  0  0  0  0  0  0  0  0
    1.5550    9.3970    0.1680 C   0  0  0  0  0  0  0  0  0  0  0  0
    0.0870    9.0680   -0.0900 C   0  0  2  0  0  0  0  0  0  0  0  0
   -0.0040    8.2640   -1.2710 O   0  0  0  0  0  0  0  0  0  0  0  0
   -0.8060   10.3300   -0.2480 C   0  0  0  0  0  0  0  0  0  0  0  0
   -0.9490   11.0400    1.1210 C   0  0  0  0  0  0  0  0  0  0  0  0
   -2.2320    9.8610   -0.6450 C   0  0  0  0  0  0  0  0  0  0  0  0
    1.9680   12.6260   -2.1130 C   0  0  1  0  0  0  0  0  0  0  0  0
    2.4550   11.8300   -3.3620 C   0  0  0  0  0  0  0  0  0  0  0  0
    3.2500   13.2870   -1.4810 C   0  0  0  0  0  0  0  0  0  0  0  0
    3.0370   14.5770   -0.6660 C   0  0  0  0  0  0  0  0  0  0  0  0
    2.1820   15.5820   -1.4440 C   0  0  2  0  0  0  0  0  0  0  0  0
    2.9680   15.9770   -2.7400 C   0  0  0  0  0  0  0  0  0  0  0  0
    3.3204   17.7891    1.5419 H   0  0  0  0  0  0  0  0  0  0  0  0
    4.0946   16.5420    0.5066 H   0  0  0  0  0  0  0  0  0  0  0  0
    4.7220   18.2251    0.5066 H   0  0  0  0  0  0  0  0  0  0  0  0
    3.4561   18.0118   -1.4893 H   0  0  0  0  0  0  0  0  0  0  0  0
    2.9941   20.0792   -0.1757 H   0  0  0  0  0  0  0  0  0  0  0  0
    1.6288   19.5589   -1.2748 H   0  0  0  0  0  0  0  0  0  0  0  0
    0.9943   18.3524    1.1262 H   0  0  0  0  0  0  0  0  0  0  0  0
    1.6762   19.9567    1.6247 H   0  0  0  0  0  0  0  0  0  0  0  0
    0.4535   20.6794   -0.3166 H   0  0  0  0  0  0  0  0  0  0  0  0
   -1.5462   17.8006    1.8590 H   0  0  0  0  0  0  0  0  0  0  0  0
   -2.4738   17.5042    0.3496 H   0  0  0  0  0  0  0  0  0  0  0  0
   -0.6844   17.3470    0.3496 H   0  0  0  0  0  0  0  0  0  0  0  0
   -3.2898   20.3415    0.2165 H   0  0  0  0  0  0  0  0  0  0  0  0
   -2.0999   20.7297   -1.0720 H   0  0  0  0  0  0  0  0  0  0  0  0
   -2.9372   19.1405   -1.0720 H   0  0  0  0  0  0  0  0  0  0  0  0
    1.6076   16.6693    0.3621 H   0  0  0  0  0  0  0  0  0  0  0  0
   -0.2258   17.7312   -0.7993 H   0  0  0  0  0  0  0  0  0  0  0  0
    0.8112   18.2101   -2.1596 H   0  0  0  0  0  0  0  0  0  0  0  0
   -1.0606   16.0497   -2.1776 H   0  0  0  0  0  0  0  0  0  0  0  0
    0.2082   16.2668   -3.3806 H   0  0  0  0  0  0  0  0  0  0  0  0
    0.5693   14.8536    0.4771 H   0  0  0  0  0  0  0  0  0  0  0  0
   -0.9746   15.1461   -0.3931 H   0  0  0  0  0  0  0  0  0  0  0  0
   -0.2403   13.5068   -0.3931 H   0  0  0  0  0  0  0  0  0  0  0  0
    1.3700   14.1473   -3.5444 H   0  0  0  0  0  0  0  0  0  0  0  0
   -1.1547   13.8264   -3.1355 H   0  0  0  0  0  0  0  0  0  0  0  0
   -0.1723   12.5726   -4.0583 H   0  0  0  0  0  0  0  0  0  0  0  0
   -1.9306   11.6367   -2.3334 H   0  0  0  0  0  0  0  0  0  0  0  0
    1.3969   12.2032   -0.1163 H   0  0  0  0  0  0  0  0  0  0  0  0
    2.0609    9.7687   -1.8852 H   0  0  0  0  0  0  0  0  0  0  0  0
    3.1473   10.5544   -0.6552 H   0  0  0  0  0  0  0  0  0  0  0  0
    2.1348    8.4625    0.1903 H   0  0  0  0  0  0  0  0  0  0  0  0
    1.6330    9.9213    1.1318 H   0  0  0  0  0  0  0  0  0  0  0  0
   -0.2890    8.5264    0.7905 H   0  0  0  0  0  0  0  0  0  0  0  0
    0.1780    8.8380   -2.0330 H   0  0  0  0  0  0  0  0  0  0  0  0
   -0.8019   10.3094    1.9301 H   0  0  0  0  0  0  0  0  0  0  0  0
   -0.1929   11.8348    1.2026 H   0  0  0  0  0  0  0  0  0  0  0  0
   -1.9538   11.4801    1.2026 H   0  0  0  0  0  0  0  0  0  0  0  0
   -2.8206    9.6674    0.2639 H   0  0  0  0  0  0  0  0  0  0  0  0
   -2.7234   10.6449   -1.2401 H   0  0  0  0  0  0  0  0  0  0  0  0
   -2.1622    8.9385   -1.2401 H   0  0  0  0  0  0  0  0  0  0  0  0
    3.0031   10.9341   -3.0350 H   0  0  0  0  0  0  0  0  0  0  0  0
    1.5866   11.5284   -3.9661 H   0  0  0  0  0  0  0  0  0  0  0  0
    3.1189   12.4659   -3.9661 H   0  0  0  0  0  0  0  0  0  0  0  0
    3.7126   12.5446   -0.8140 H   0  0  0  0  0  0  0  0  0  0  0  0
    3.8708   13.5874   -2.3379 H   0  0  0  0  0  0  0  0  0  0  0  0
    2.5295   14.3270    0.2773 H   0  0  0  0  0  0  0  0  0  0  0  0
    4.0184   15.0319   -0.4663 H   0  0  0  0  0  0  0  0  0  0  0  0
    3.9187   16.4548   -2.4609 H   0  0  0  0  0  0  0  0  0  0  0  0
    3.1719   15.0743   -3.3346 H   0  0  0  0  0  0  0  0  0  0  0  0
    2.3653   16.6793   -3.3346 H   0  0  0  0  0  0  0  0  0  0  0  0
  1  2  1  0
  2  3  1  0
  3  4  1  0
  4  5  1  0
  5  6  1  0
  6  7  1  0
  7  8  1  0
  7  9  1  0
  2 10  1  0
 10 11  1  0
 11 12  1  0
 12 13  1  0
 13 14  1  1
 13 15  1  0
 15 16  1  0
 16 17  1  0
 17 18  2  0
 18 19  1  0
 19 20  1  0
 20 21  1  0
 21 22  1  0
 22 23  1  0
 22 24  1  0
 24 25  1  0
 24 26  1  0
 19 27  1  0
 27 28  1  6
 27 29  1  0
 29 30  1  0
 30 31  1  0
 31 32  1  6
  7  5  1  0
 31 10  1  0
 31 13  1  0
 27 15  1  0
 24 18  1  0
  1 33  1  0
  1 34  1  0
  1 35  1  0
  2 36  1  6
  3 37  1  0
  3 38  1  0
  4 39  1  0
  4 40  1  0
  5 41  1  6
  8 42  1  0
  8 43  1  0
  8 44  1  0
  9 45  1  0
  9 46  1  0
  9 47  1  0
 10 48  1  1
 11 49  1  0
 11 50  1  0
 12 51  1  0
 12 52  1  0
 14 53  1  0
 14 54  1  0
 14 55  1  0
 15 56  1  6
 16 57  1  0
 16 58  1  0
 17 59  1  0
 19 60  1  1
 20 61  1  0
 20 62  1  0
 21 63  1  0
 21 64  1  0
 22 65  1  1
 23 66  1  0
 25 67  1  0
 25 68  1  0
 25 69  1  0
 26 70  1  0
 26 71  1  0
 26 72  1  0
 28 73  1  0
 28 74  1  0
 28 75  1  0
 29 76  1  0
 29 77  1  0
 30 78  1  0
 30 79  1  0
 32 80  1  0
 32 81  1  0
 32 82  1  0
M  END
>  <meeko>  (5) 
{"is_sidechain": [false], "intermolecular_energy": 2.731, "internal_energy": -0.839}

$$$$
EPH_relaxed_0001_pdb2pqr_Repair_242_r2_0001_out
     RDKit          3D

 82 86  0  0  0  0  0  0  0  0999 V2000
   -5.1690    5.8000   -1.7380 C   0  0  0  0  0  0  0  0  0  0  0  0
   -5.4610    7.3020   -1.7910 C   0  0  2  0  0  0  0  0  0  0  0  0
   -5.2340    7.9860   -0.4270 C   0  0  0  0  0  0  0  0  0  0  0  0
   -4.2040    9.1170   -0.4700 C   0  0  0  0  0  0  0  0  0  0  0  0
   -2.8290    8.6040   -0.7730 C   0  0  2  0  0  0  0  0  0  0  0  0
   -1.8350    8.9420    0.2020 O   0  0  0  0  0  0  0  0  0  0  0  0
   -1.6540    9.5040   -1.1080 C   0  0  0  0  0  0  0  0  0  0  0  0
   -1.8020   10.9930   -1.1570 C   0  0  0  0  0  0  0  0  0  0  0  0
   -0.4980    8.9230   -1.8590 C   0  0  0  0  0  0  0  0  0  0  0  0
   -6.8910    7.5370   -2.2600 C   0  0  1  0  0  0  0  0  0  0  0  0
   -7.1980    6.8410   -3.6130 C   0  0  0  0  0  0  0  0  0  0  0  0
   -8.6770    6.3780   -3.5530 C   0  0  0  0  0  0  0  0  0  0  0  0
   -9.2630    7.1060   -2.3200 C   0  0  1  0  0  0  0  0  0  0  0  0
   -9.6030    8.5430   -2.8270 C   0  0  0  0  0  0  0  0  0  0  0  0
  -10.4970    6.4280   -1.6400 C   0  0  2  0  0  0  0  0  0  0  0  0
  -11.7480    6.3090   -2.5270 C   0  0  0  0  0  0  0  0  0  0  0  0
  -12.6950    7.4610   -2.4520 C   0  0  0  0  0  0  0  0  0  0  0  0
  -12.6960    8.4120   -1.4990 C   0  0  0  0  0  0  0  0  0  0  0  0
  -11.7360    8.3300   -0.3040 C   0  0  1  0  0  0  0  0  0  0  0  0
  -12.5150    8.6170    1.0060 C   0  0  0  0  0  0  0  0  0  0  0  0
  -13.2760    9.9390    0.9570 C   0  0  0  0  0  0  0  0  0  0  0  0
  -14.2610    9.9590   -0.2090 C   0  0  2  0  0  0  0  0  0  0  0  0
  -15.2860    8.9910    0.0380 O   0  0  0  0  0  0  0  0  0  0  0  0
  -13.5910    9.6720   -1.5820 C   0  0  0  0  0  0  0  0  0  0  0  0
  -12.7030   10.8740   -1.9880 C   0  0  0  0  0  0  0  0  0  0  0  0
  -14.7140    9.5810   -2.6500 C   0  0  0  0  0  0  0  0  0  0  0  0
  -10.8530    7.0120   -0.2130 C   0  0  1  0  0  0  0  0  0  0  0  0
  -11.6380    5.8970    0.5420 C   0  0  0  0  0  0  0  0  0  0  0  0
   -9.5690    7.3130    0.6480 C   0  0  0  0  0  0  0  0  0  0  0  0
   -8.3440    7.8690   -0.1020 C   0  0  0  0  0  0  0  0  0  0  0  0
   -8.0330    7.0290   -1.3450 C   0  0  2  0  0  0  0  0  0  0  0  0
   -7.6660    5.5830   -0.8650 C   0  0  0  0  0  0  0  0  0  0  0  0
   -5.1059    5.4755   -0.6888 H   0  0  0  0  0  0  0  0  0  0  0  0
   -5.9773    5.2513   -2.2435 H   0  0  0  0  0  0  0  0  0  0  0  0
   -4.2140    5.5941   -2.2435 H   0  0  0  0  0  0  0  0  0  0  0  0
   -4.7568    7.7512   -2.5068 H   0  0  0  0  0  0  0  0  0  0  0  0
   -6.1925    8.4021   -0.0833 H   0  0  0  0  0  0  0  0  0  0  0  0
   -4.8406    7.2187    0.2560 H   0  0  0  0  0  0  0  0  0  0  0  0
   -4.4961    9.8356   -1.2499 H   0  0  0  0  0  0  0  0  0  0  0  0
   -4.1804    9.5967    0.5196 H   0  0  0  0  0  0  0  0  0  0  0  0
   -3.2455    7.7177   -1.2739 H   0  0  0  0  0  0  0  0  0  0  0  0
   -1.8416   11.3914   -0.1325 H   0  0  0  0  0  0  0  0  0  0  0  0
   -0.9428   11.4296   -1.6873 H   0  0  0  0  0  0  0  0  0  0  0  0
   -2.7303   11.2520   -1.6873 H   0  0  0  0  0  0  0  0  0  0  0  0
    0.2505    8.5468   -1.1461 H   0  0  0  0  0  0  0  0  0  0  0  0
   -0.8506    8.0950   -2.4915 H   0  0  0  0  0  0  0  0  0  0  0  0
   -0.0439    9.7000   -2.4915 H   0  0  0  0  0  0  0  0  0  0  0  0
   -6.8955    8.6365   -2.2918 H   0  0  0  0  0  0  0  0  0  0  0  0
   -7.0559    7.5482   -4.4435 H   0  0  0  0  0  0  0  0  0  0  0  0
   -6.5238    5.9881   -3.7802 H   0  0  0  0  0  0  0  0  0  0  0  0
   -9.2131    6.6704   -4.4679 H   0  0  0  0  0  0  0  0  0  0  0  0
   -8.7695    5.2846   -3.4754 H   0  0  0  0  0  0  0  0  0  0  0  0
   -9.7604    9.2082   -1.9652 H   0  0  0  0  0  0  0  0  0  0  0  0
   -8.7701    8.9234   -3.4365 H   0  0  0  0  0  0  0  0  0  0  0  0
  -10.5181    8.5098   -3.4365 H   0  0  0  0  0  0  0  0  0  0  0  0
  -10.1433    5.3981   -1.4841 H   0  0  0  0  0  0  0  0  0  0  0  0
  -11.4162    6.2092   -3.5710 H   0  0  0  0  0  0  0  0  0  0  0  0
  -12.3024    5.4346   -2.1554 H   0  0  0  0  0  0  0  0  0  0  0  0
  -13.4562    7.5393   -3.2422 H   0  0  0  0  0  0  0  0  0  0  0  0
  -10.9794    9.1116   -0.4673 H   0  0  0  0  0  0  0  0  0  0  0  0
  -13.2345    7.8021    1.1741 H   0  0  0  0  0  0  0  0  0  0  0  0
  -11.7812    8.6843    1.8227 H   0  0  0  0  0  0  0  0  0  0  0  0
  -13.8298   10.0706    1.8983 H   0  0  0  0  0  0  0  0  0  0  0  0
  -12.5522   10.7557    0.8190 H   0  0  0  0  0  0  0  0  0  0  0  0
  -14.6794   10.9744   -0.2708 H   0  0  0  0  0  0  0  0  0  0  0  0
  -16.0640    9.2470   -0.4860 H   0  0  0  0  0  0  0  0  0  0  0  0
  -12.3312   11.3773   -1.0833 H   0  0  0  0  0  0  0  0  0  0  0  0
  -11.8511   10.5156   -2.5845 H   0  0  0  0  0  0  0  0  0  0  0  0
  -13.2959   11.5829   -2.5845 H   0  0  0  0  0  0  0  0  0  0  0  0
  -15.6904    9.5019   -2.1496 H   0  0  0  0  0  0  0  0  0  0  0  0
  -14.6962   10.4835   -3.2786 H   0  0  0  0  0  0  0  0  0  0  0  0
  -14.5511    8.6931   -3.2786 H   0  0  0  0  0  0  0  0  0  0  0  0
  -11.5335    6.0455    1.6269 H   0  0  0  0  0  0  0  0  0  0  0  0
  -12.7017    5.9464    0.2660 H   0  0  0  0  0  0  0  0  0  0  0  0
  -11.2329    4.9123    0.2660 H   0  0  0  0  0  0  0  0  0  0  0  0
   -9.8492    8.0471    1.4178 H   0  0  0  0  0  0  0  0  0  0  0  0
   -9.2484    6.3356    1.0377 H   0  0  0  0  0  0  0  0  0  0  0  0
   -8.5505    8.9046   -0.4102 H   0  0  0  0  0  0  0  0  0  0  0  0
   -7.4750    7.8332    0.5714 H   0  0  0  0  0  0  0  0  0  0  0  0
   -7.6583    5.5526    0.2346 H   0  0  0  0  0  0  0  0  0  0  0  0
   -8.4116    4.8698   -1.2463 H   0  0  0  0  0  0  0  0  0  0  0  0
   -6.6705    5.3117   -1.2463 H   0  0  0  0  0  0  0  0  0  0  0  0
  1  2  1  0
  2  3  1  0
  3  4  1  0
  4  5  1  0
  5  6  1  0
  6  7  1  0
  7  8  1  0
  7  9  1  0
  2 10  1  0
 10 11  1  0
 11 12  1  0
 12 13  1  0
 13 14  1  6
 13 15  1  0
 15 16  1  0
 16 17  1  0
 17 18  2  0
 18 19  1  0
 19 20  1  0
 20 21  1  0
 21 22  1  0
 22 23  1  0
 22 24  1  0
 24 25  1  0
 24 26  1  0
 19 27  1  0
 27 28  1  1
 27 29  1  0
 29 30  1  0
 30 31  1  0
 31 32  1  1
  7  5  1  0
 31 10  1  0
 31 13  1  0
 27 15  1  0
 24 18  1  0
  1 33  1  0
  1 34  1  0
  1 35  1  0
  2 36  1  6
  3 37  1  0
  3 38  1  0
  4 39  1  0
  4 40  1  0
  5 41  1  6
  8 42  1  0
  8 43  1  0
  8 44  1  0
  9 45  1  0
  9 46  1  0
  9 47  1  0
 10 48  1  6
 11 49  1  0
 11 50  1  0
 12 51  1  0
 12 52  1  0
 14 53  1  0
 14 54  1  0
 14 55  1  0
 15 56  1  1
 16 57  1  0
 16 58  1  0
 17 59  1  0
 19 60  1  6
 20 61  1  0
 20 62  1  0
 21 63  1  0
 21 64  1  0
 22 65  1  6
 23 66  1  0
 25 67  1  0
 25 68  1  0
 25 69  1  0
 26 70  1  0
 26 71  1  0
 26 72  1  0
 28 73  1  0
 28 74  1  0
 28 75  1  0
 29 76  1  0
 29 77  1  0
 30 78  1  0
 30 79  1  0
 32 80  1  0
 32 81  1  0
 32 82  1  0
M  END
>  <meeko>  (6) 
{"is_sidechain": [false], "intermolecular_energy": 2.731, "internal_energy": -0.839}

$$$$
EPH_relaxed_0001_pdb2pqr_Repair_242_r2_0001_out
     RDKit          3D

 82 86  0  0  0  0  0  0  0  0999 V2000
    0.4410    8.8500   -2.4800 C   0  0  0  0  0  0  0  0  0  0  0  0
    1.1970   10.0050   -3.1430 C   0  0  2  0  0  0  0  0  0  0  0  0
    2.6910   10.0140   -2.7650 C   0  0  0  0  0  0  0  0  0  0  0  0
    3.5990   10.5860   -3.8570 C   0  0  0  0  0  0  0  0  0  0  0  0
    4.9890   10.8300   -3.3510 C   0  0  2  0  0  0  0  0  0  0  0  0
    5.5880   12.0480   -3.8110 O   0  0  0  0  0  0  0  0  0  0  0  0
    6.2160   10.8310   -4.2440 C   0  0  0  0  0  0  0  0  0  0  0  0
    6.1100   10.5820   -5.7160 C   0  0  0  0  0  0  0  0  0  0  0  0
    7.5550   10.5880   -3.6200 C   0  0  0  0  0  0  0  0  0  0  0  0
    0.5540   11.3330   -2.7610 C   0  0  1  0  0  0  0  0  0  0  0  0
   -0.8260   11.1540   -2.0750 C   0  0  0  0  0  0  0  0  0  0  0  0
   -0.9490   12.2790   -1.0160 C   0  0  0  0  0  0  0  0  0  0  0  0
    0.2020   13.2570   -1.3500 C   0  0  1  0  0  0  0  0  0  0  0  0
   -0.3420   14.1300   -2.5240 C   0  0  0  0  0  0  0  0  0  0  0  0
    0.7250   14.1380   -0.1690 C   0  0  2  0  0  0  0  0  0  0  0  0
   -0.3100   15.1060    0.4310 C   0  0  0  0  0  0  0  0  0  0  0  0
   -0.3510   16.4620   -0.1920 C   0  0  0  0  0  0  0  0  0  0  0  0
    0.5950   16.9830   -0.9960 C   0  0  0  0  0  0  0  0  0  0  0  0
    1.8980   16.2230   -1.2730 C   0  0  1  0  0  0  0  0  0  0  0  0
    3.1030   17.1890   -1.1230 C   0  0  0  0  0  0  0  0  0  0  0  0
    2.9610   18.4390   -1.9860 C   0  0  0  0  0  0  0  0  0  0  0  0
    1.6830   19.1980   -1.6410 C   0  0  2  0  0  0  0  0  0  0  0  0
    1.8010   19.7190   -0.3130 O   0  0  0  0  0  0  0  0  0  0  0  0
    0.4030   18.3230   -1.7470 C   0  0  0  0  0  0  0  0  0  0  0  0
    0.1090   18.0090   -3.2350 C   0  0  0  0  0  0  0  0  0  0  0  0
   -0.7960   19.1670   -1.2370 C   0  0  0  0  0  0  0  0  0  0  0  0
    2.0970   14.8690   -0.4640 C   0  0  1  0  0  0  0  0  0  0  0  0
    2.7500   15.1670    0.9200 C   0  0  0  0  0  0  0  0  0  0  0  0
    3.1100   13.9490   -1.2430 C   0  0  0  0  0  0  0  0  0  0  0  0
    2.5170   13.0140   -2.3150 C   0  0  0  0  0  0  0  0  0  0  0  0
    1.3220   12.2330   -1.7600 C   0  0  2  0  0  0  0  0  0  0  0  0
    1.8430   11.3280   -0.5920 C   0  0  0  0  0  0  0  0  0  0  0  0
    0.5059    8.9491   -1.3864 H   0  0  0  0  0  0  0  0  0  0  0  0
   -0.6144    8.8775   -2.7887 H   0  0  0  0  0  0  0  0  0  0  0  0
    0.8885    7.8937   -2.7887 H   0  0  0  0  0  0  0  0  0  0  0  0
    1.1338    9.8609   -4.2317 H   0  0  0  0  0  0  0  0  0  0  0  0
    2.8156   10.6214   -1.8564 H   0  0  0  0  0  0  0  0  0  0  0  0
    2.9906    8.9664   -2.6141 H   0  0  0  0  0  0  0  0  0  0  0  0
    3.6441    9.8725   -4.6930 H   0  0  0  0  0  0  0  0  0  0  0  0
    3.1787   11.5490   -4.1827 H   0  0  0  0  0  0  0  0  0  0  0  0
    4.7627   10.3101   -2.4084 H   0  0  0  0  0  0  0  0  0  0  0  0
    5.6845    9.5825   -5.8891 H   0  0  0  0  0  0  0  0  0  0  0  0
    5.4574   11.3420   -6.1704 H   0  0  0  0  0  0  0  0  0  0  0  0
    7.1102   10.6385   -6.1704 H   0  0  0  0  0  0  0  0  0  0  0  0
    7.4576   10.6057   -2.5245 H   0  0  0  0  0  0  0  0  0  0  0  0
    7.9352    9.6062   -3.9385 H   0  0  0  0  0  0  0  0  0  0  0  0
    8.2560   11.3736   -3.9385 H   0  0  0  0  0  0  0  0  0  0  0  0
    0.5210   11.8126   -3.7504 H   0  0  0  0  0  0  0  0  0  0  0  0
   -1.6325   11.2432   -2.8177 H   0  0  0  0  0  0  0  0  0  0  0  0
   -0.9088   10.1615   -1.6079 H   0  0  0  0  0  0  0  0  0  0  0  0
   -1.9231   12.7836   -1.0969 H   0  0  0  0  0  0  0  0  0  0  0  0
   -0.8834   11.8931    0.0120 H   0  0  0  0  0  0  0  0  0  0  0  0
   -0.8823   14.9971   -2.1163 H   0  0  0  0  0  0  0  0  0  0  0  0
    0.4987   14.4791   -3.1415 H   0  0  0  0  0  0  0  0  0  0  0  0
   -1.0258   13.5291   -3.1415 H   0  0  0  0  0  0  0  0  0  0  0  0
    0.9234   13.3904    0.6132 H   0  0  0  0  0  0  0  0  0  0  0  0
   -1.3053   14.6508    0.3203 H   0  0  0  0  0  0  0  0  0  0  0  0
   -0.0105   15.2611    1.4780 H   0  0  0  0  0  0  0  0  0  0  0  0
   -1.2287   17.0888    0.0242 H   0  0  0  0  0  0  0  0  0  0  0  0
    1.8290   15.8707   -2.3128 H   0  0  0  0  0  0  0  0  0  0  0  0
    3.1808   17.4949   -0.0693 H   0  0  0  0  0  0  0  0  0  0  0  0
    4.0041   16.6534   -1.4564 H   0  0  0  0  0  0  0  0  0  0  0  0
    3.8269   19.0953   -1.8142 H   0  0  0  0  0  0  0  0  0  0  0  0
    2.9134   18.1332   -3.0416 H   0  0  0  0  0  0  0  0  0  0  0  0
    1.5710   20.0075   -2.3773 H   0  0  0  0  0  0  0  0  0  0  0  0
    2.5710   19.2950    0.1020 H   0  0  0  0  0  0  0  0  0  0  0  0
   -0.6415   17.2074   -3.2992 H   0  0  0  0  0  0  0  0  0  0  0  0
   -0.2757   18.9122   -3.7313 H   0  0  0  0  0  0  0  0  0  0  0  0
    1.0355   17.6844   -3.7313 H   0  0  0  0  0  0  0  0  0  0  0  0
   -0.8006   19.1702   -0.1370 H   0  0  0  0  0  0  0  0  0  0  0  0
   -0.7015   20.1988   -1.6063 H   0  0  0  0  0  0  0  0  0  0  0  0
   -1.7355   18.7300   -1.6063 H   0  0  0  0  0  0  0  0  0  0  0  0
    2.0660   14.8549    1.7230 H   0  0  0  0  0  0  0  0  0  0  0  0
    3.6952   14.6111    1.0068 H   0  0  0  0  0  0  0  0  0  0  0  0
    2.9495   16.2453    1.0068 H   0  0  0  0  0  0  0  0  0  0  0  0
    3.8401   14.6045   -1.7403 H   0  0  0  0  0  0  0  0  0  0  0  0
    3.5354   13.2796   -0.4808 H   0  0  0  0  0  0  0  0  0  0  0  0
    2.1860   13.6158   -3.1743 H   0  0  0  0  0  0  0  0  0  0  0  0
    3.2923   12.2971   -2.6232 H   0  0  0  0  0  0  0  0  0  0  0  0
    1.5792   11.7862    0.3726 H   0  0  0  0  0  0  0  0  0  0  0  0
    1.3794   10.3331   -0.6643 H   0  0  0  0  0  0  0  0  0  0  0  0
    2.9362   11.2293   -0.6643 H   0  0  0  0  0  0  0  0  0  0  0  0
  1  2  1  0
  2  3  1  0
  3  4  1  0
  4  5  1  0
  5  6  1  0
  6  7  1  0
  7  8  1  0
  7  9  1  0
  2 10  1  0
 10 11  1  0
 11 12  1  0
 12 13  1  0
 13 14  1  6
 13 15  1  0
 15 16  1  0
 16 17  1  0
 17 18  2  0
 18 19  1  0
 19 20  1  0
 20 21  1  0
 21 22  1  0
 22 23  1  0
 22 24  1  0
 24 25  1  0
 24 26  1  0
 19 27  1  0
 27 28  1  1
 27 29  1  0
 29 30  1  0
 30 31  1  0
 31 32  1  1
  7  5  1  0
 31 10  1  0
 31 13  1  0
 27 15  1  0
 24 18  1  0
  1 33  1  0
  1 34  1  0
  1 35  1  0
  2 36  1  6
  3 37  1  0
  3 38  1  0
  4 39  1  0
  4 40  1  0
  5 41  1  1
  8 42  1  0
  8 43  1  0
  8 44  1  0
  9 45  1  0
  9 46  1  0
  9 47  1  0
 10 48  1  6
 11 49  1  0
 11 50  1  0
 12 51  1  0
 12 52  1  0
 14 53  1  0
 14 54  1  0
 14 55  1  0
 15 56  1  1
 16 57  1  0
 16 58  1  0
 17 59  1  0
 19 60  1  6
 20 61  1  0
 20 62  1  0
 21 63  1  0
 21 64  1  0
 22 65  1  6
 23 66  1  0
 25 67  1  0
 25 68  1  0
 25 69  1  0
 26 70  1  0
 26 71  1  0
 26 72  1  0
 28 73  1  0
 28 74  1  0
 28 75  1  0
 29 76  1  0
 29 77  1  0
 30 78  1  0
 30 79  1  0
 32 80  1  0
 32 81  1  0
 32 82  1  0
M  END
>  <meeko>  (7) 
{"is_sidechain": [false], "intermolecular_energy": 2.731, "internal_energy": -0.839}

$$$$
EPH_relaxed_0001_pdb2pqr_Repair_242_r2_0001_out
     RDKit          3D

 82 86  0  0  0  0  0  0  0  0999 V2000
    1.2410   19.6360   -1.8920 C   0  0  0  0  0  0  0  0  0  0  0  0
    1.3950   19.2960   -0.4070 C   0  0  2  0  0  0  0  0  0  0  0  0
    2.8260   19.5580    0.1030 C   0  0  0  0  0  0  0  0  0  0  0  0
    2.8800   20.1020    1.5330 C   0  0  0  0  0  0  0  0  0  0  0  0
    4.2300   19.9000    2.1520 C   0  0  2  0  0  0  0  0  0  0  0  0
    4.3710   18.6840    2.8990 O   0  0  0  0  0  0  0  0  0  0  0  0
    4.4730   19.9050    3.6500 C   0  0  0  0  0  0  0  0  0  0  0  0
    3.3540   20.1170    4.6210 C   0  0  0  0  0  0  0  0  0  0  0  0
    5.8540   20.1910    4.1500 C   0  0  0  0  0  0  0  0  0  0  0  0
    1.0140   17.8410   -0.1640 C   0  0  1  0  0  0  0  0  0  0  0  0
   -0.3690   17.6920    0.5260 C   0  0  0  0  0  0  0  0  0  0  0  0
   -1.0200   16.4080   -0.0490 C   0  0  0  0  0  0  0  0  0  0  0  0
    0.1290   15.6870   -0.7910 C   0  0  1  0  0  0  0  0  0  0  0  0
    0.9200   14.9370    0.3260 C   0  0  0  0  0  0  0  0  0  0  0  0
   -0.2930   14.7210   -1.9460 C   0  0  2  0  0  0  0  0  0  0  0  0
   -1.1540   13.5220   -1.5130 C   0  0  0  0  0  0  0  0  0  0  0  0
   -0.3930   12.2920   -1.1420 C   0  0  0  0  0  0  0  0  0  0  0  0
    0.9020   12.0590   -1.4240 C   0  0  0  0  0  0  0  0  0  0  0  0
    1.7140   13.0460   -2.2730 C   0  0  1  0  0  0  0  0  0  0  0  0
    2.5140   12.2670   -3.3490 C   0  0  0  0  0  0  0  0  0  0  0  0
    3.3800   11.1630   -2.7500 C   0  0  0  0  0  0  0  0  0  0  0  0
    2.5300   10.1690   -1.9630 C   0  0  2  0  0  0  0  0  0  0  0  0
    1.6770    9.4690   -2.8740 O   0  0  0  0  0  0  0  0  0  0  0  0
    1.6710   10.8410   -0.8550 C   0  0  0  0  0  0  0  0  0  0  0  0
    2.5920   11.3380    0.2870 C   0  0  0  0  0  0  0  0  0  0  0  0
    0.7580    9.7510   -0.2330 C   0  0  0  0  0  0  0  0  0  0  0  0
    0.9010   14.2680   -2.8810 C   0  0  1  0  0  0  0  0  0  0  0  0
    0.2670   13.8590   -4.2460 C   0  0  0  0  0  0  0  0  0  0  0  0
    1.8990   15.4460   -3.1910 C   0  0  0  0  0  0  0  0  0  0  0  0
    2.1830   16.4350   -2.0440 C   0  0  0  0  0  0  0  0  0  0  0  0
    0.8790   16.9240   -1.4060 C   0  0  2  0  0  0  0  0  0  0  0  0
    0.0720   17.7020   -2.5010 C   0  0  0  0  0  0  0  0  0  0  0  0
    0.7891   20.6336   -1.9948 H   0  0  0  0  0  0  0  0  0  0  0  0
    2.2298   19.6299   -2.3740 H   0  0  0  0  0  0  0  0  0  0  0  0
    0.5935   18.8887   -2.3740 H   0  0  0  0  0  0  0  0  0  0  0  0
    0.7179   19.9560    0.1551 H   0  0  0  0  0  0  0  0  0  0  0  0
    3.3851   18.6112    0.0703 H   0  0  0  0  0  0  0  0  0  0  0  0
    3.2642   20.3270   -0.5501 H   0  0  0  0  0  0  0  0  0  0  0  0
    2.6540   21.1784    1.5138 H   0  0  0  0  0  0  0  0  0  0  0  0
    2.1406   19.5549    2.1363 H   0  0  0  0  0  0  0  0  0  0  0  0
    4.7157   20.4369    1.3239 H   0  0  0  0  0  0  0  0  0  0  0  0
    3.7409   20.0437    5.6481 H   0  0  0  0  0  0  0  0  0  0  0  0
    2.9165   21.1140    4.4643 H   0  0  0  0  0  0  0  0  0  0  0  0
    2.5821   19.3491    4.4643 H   0  0  0  0  0  0  0  0  0  0  0  0
    5.8531   20.1908    5.2500 H   0  0  0  0  0  0  0  0  0  0  0  0
    6.5442   19.4167    3.7838 H   0  0  0  0  0  0  0  0  0  0  0  0
    6.1799   21.1757    3.7838 H   0  0  0  0  0  0  0  0  0  0  0  0
    1.8733   17.5253    0.4459 H   0  0  0  0  0  0  0  0  0  0  0  0
   -0.2410   17.5970    1.6144 H   0  0  0  0  0  0  0  0  0  0  0  0
   -1.0007   18.5728    0.3386 H   0  0  0  0  0  0  0  0  0  0  0  0
   -1.4156   15.7771    0.7606 H   0  0  0  0  0  0  0  0  0  0  0  0
   -1.8691   16.6315   -0.7117 H   0  0  0  0  0  0  0  0  0  0  0  0
    0.5672   15.2715    1.3127 H   0  0  0  0  0  0  0  0  0  0  0  0
    0.7572   13.8537    0.2263 H   0  0  0  0  0  0  0  0  0  0  0  0
    1.9931   15.1572    0.2263 H   0  0  0  0  0  0  0  0  0  0  0  0
   -0.9523   15.3566   -2.5553 H   0  0  0  0  0  0  0  0  0  0  0  0
   -1.7503   13.8288   -0.6411 H   0  0  0  0  0  0  0  0  0  0  0  0
   -1.7619   13.2514   -2.3889 H   0  0  0  0  0  0  0  0  0  0  0  0
   -0.9370   11.5102   -0.5916 H   0  0  0  0  0  0  0  0  0  0  0  0
    2.4087   13.5441   -1.5807 H   0  0  0  0  0  0  0  0  0  0  0  0
    1.8041   11.8135   -4.0564 H   0  0  0  0  0  0  0  0  0  0  0  0
    3.1838   12.9819   -3.8493 H   0  0  0  0  0  0  0  0  0  0  0  0
    3.8971   10.6307   -3.5619 H   0  0  0  0  0  0  0  0  0  0  0  0
    4.1086   11.6212   -2.0651 H   0  0  0  0  0  0  0  0  0  0  0  0
    3.2175    9.4786   -1.4523 H   0  0  0  0  0  0  0  0  0  0  0  0
    2.2410    9.0710   -3.5580 H   0  0  0  0  0  0  0  0  0  0  0  0
    2.1371   11.0925    1.2580 H   0  0  0  0  0  0  0  0  0  0  0  0
    3.5730   10.8468    0.2070 H   0  0  0  0  0  0  0  0  0  0  0  0
    2.7199   12.4276    0.2070 H   0  0  0  0  0  0  0  0  0  0  0  0
    0.8092    9.8121    0.8641 H   0  0  0  0  0  0  0  0  0  0  0  0
   -0.2797    9.9109   -0.5611 H   0  0  0  0  0  0  0  0  0  0  0  0
    1.0974    8.7574   -0.5611 H   0  0  0  0  0  0  0  0  0  0  0  0
   -0.6448   13.2708   -4.0652 H   0  0  0  0  0  0  0  0  0  0  0  0
    0.0124   14.7636   -4.8178 H   0  0  0  0  0  0  0  0  0  0  0  0
    0.9862   13.2541   -4.8178 H   0  0  0  0  0  0  0  0  0  0  0  0
    2.8585   14.9993   -3.4907 H   0  0  0  0  0  0  0  0  0  0  0  0
    1.4056   16.0439   -3.9715 H   0  0  0  0  0  0  0  0  0  0  0  0
    2.7920   15.9325   -1.2781 H   0  0  0  0  0  0  0  0  0  0  0  0
    2.7198   17.3031   -2.4543 H   0  0  0  0  0  0  0  0  0  0  0  0
   -0.6386   18.3870   -2.0153 H   0  0  0  0  0  0  0  0  0  0  0  0
    0.7674   18.2792   -3.1282 H   0  0  0  0  0  0  0  0  0  0  0  0
   -0.4793   16.9860   -3.1282 H   0  0  0  0  0  0  0  0  0  0  0  0
  1  2  1  0
  2  3  1  0
  3  4  1  0
  4  5  1  0
  5  6  1  0
  6  7  1  0
  7  8  1  0
  7  9  1  0
  2 10  1  0
 10 11  1  0
 11 12  1  0
 12 13  1  0
 13 14  1  1
 13 15  1  0
 15 16  1  0
 16 17  1  0
 17 18  2  0
 18 19  1  0
 19 20  1  0
 20 21  1  0
 21 22  1  0
 22 23  1  0
 22 24  1  0
 24 25  1  0
 24 26  1  0
 19 27  1  0
 27 28  1  6
 27 29  1  0
 29 30  1  0
 30 31  1  0
 31 32  1  6
  7  5  1  0
 31 10  1  0
 31 13  1  0
 27 15  1  0
 24 18  1  0
  1 33  1  0
  1 34  1  0
  1 35  1  0
  2 36  1  1
  3 37  1  0
  3 38  1  0
  4 39  1  0
  4 40  1  0
  5 41  1  6
  8 42  1  0
  8 43  1  0
  8 44  1  0
  9 45  1  0
  9 46  1  0
  9 47  1  0
 10 48  1  1
 11 49  1  0
 11 50  1  0
 12 51  1  0
 12 52  1  0
 14 53  1  0
 14 54  1  0
 14 55  1  0
 15 56  1  6
 16 57  1  0
 16 58  1  0
 17 59  1  0
 19 60  1  1
 20 61  1  0
 20 62  1  0
 21 63  1  0
 21 64  1  0
 22 65  1  1
 23 66  1  0
 25 67  1  0
 25 68  1  0
 25 69  1  0
 26 70  1  0
 26 71  1  0
 26 72  1  0
 28 73  1  0
 28 74  1  0
 28 75  1  0
 29 76  1  0
 29 77  1  0
 30 78  1  0
 30 79  1  0
 32 80  1  0
 32 81  1  0
 32 82  1  0
M  END
>  <meeko>  (8) 
{"is_sidechain": [false], "intermolecular_energy": 2.731, "internal_energy": -0.839}

$$$$
EPH_relaxed_0001_pdb2pqr_Repair_242_r2_0001_out
     RDKit          3D

 82 86  0  0  0  0  0  0  0  0999 V2000
    0.1720   17.8250   -2.4840 C   0  0  0  0  0  0  0  0  0  0  0  0
   -0.0780   16.9200   -1.2740 C   0  0  2  0  0  0  0  0  0  0  0  0
   -0.1290   17.7160    0.0460 C   0  0  0  0  0  0  0  0  0  0  0  0
    0.4920   19.1120   -0.0530 C   0  0  0  0  0  0  0  0  0  0  0  0
    1.6660   19.2630    0.8650 C   0  0  2  0  0  0  0  0  0  0  0  0
    2.6600   20.1940    0.4180 O   0  0  0  0  0  0  0  0  0  0  0  0
    3.0720   18.8200    0.5060 C   0  0  0  0  0  0  0  0  0  0  0  0
    3.3770   18.1900   -0.8170 C   0  0  0  0  0  0  0  0  0  0  0  0
    4.0430   18.5510    1.6130 C   0  0  0  0  0  0  0  0  0  0  0  0
    1.0030   15.8480   -1.1950 C   0  0  1  0  0  0  0  0  0  0  0  0
    1.2170   15.3220    0.2500 C   0  0  0  0  0  0  0  0  0  0  0  0
    1.5610   13.8150    0.1300 C   0  0  0  0  0  0  0  0  0  0  0  0
    1.8590   13.6010   -1.3730 C   0  0  1  0  0  0  0  0  0  0  0  0
    3.3320   14.0820   -1.5620 C   0  0  0  0  0  0  0  0  0  0  0  0
    1.6510   12.1510   -1.9190 C   0  0  2  0  0  0  0  0  0  0  0  0
    2.5590   11.0800   -1.2900 C   0  0  0  0  0  0  0  0  0  0  0  0
    3.8590   10.8550   -1.9890 C   0  0  0  0  0  0  0  0  0  0  0  0
    4.1620   11.2760   -3.2310 C   0  0  0  0  0  0  0  0  0  0  0  0
    3.1110   11.9740   -4.1050 C   0  0  1  0  0  0  0  0  0  0  0  0
    3.1360   11.3640   -5.5310 C   0  0  0  0  0  0  0  0  0  0  0  0
    4.5270   11.3940   -6.1560 C   0  0  0  0  0  0  0  0  0  0  0  0
    5.5310   10.6400   -5.2880 C   0  0  2  0  0  0  0  0  0  0  0  0
    5.1920    9.2500   -5.2910 O   0  0  0  0  0  0  0  0  0  0  0  0
    5.5880   11.1610   -3.8240 C   0  0  0  0  0  0  0  0  0  0  0  0
    6.2410   12.5650   -3.7960 C   0  0  0  0  0  0  0  0  0  0  0  0
    6.5320   10.2270   -3.0210 C   0  0  0  0  0  0  0  0  0  0  0  0
    1.6440   12.0480   -3.4980 C   0  0  1  0  0  0  0  0  0  0  0  0
    0.8540   10.7520   -3.8560 C   0  0  0  0  0  0  0  0  0  0  0  0
    0.8690   13.2420   -4.1720 C   0  0  0  0  0  0  0  0  0  0  0  0
    1.0200   14.6270   -3.5150 C   0  0  0  0  0  0  0  0  0  0  0  0
    0.7750   14.5480   -2.0050 C   0  0  2  0  0  0  0  0  0  0  0  0
   -0.7060   14.0880   -1.7840 C   0  0  0  0  0  0  0  0  0  0  0  0
    0.4500   18.8314   -2.1379 H   0  0  0  0  0  0  0  0  0  0  0  0
    0.9885   17.4076   -3.0916 H   0  0  0  0  0  0  0  0  0  0  0  0
   -0.7430   17.8859   -3.0916 H   0  0  0  0  0  0  0  0  0  0  0  0
   -1.0614   16.4468   -1.4119 H   0  0  0  0  0  0  0  0  0  0  0  0
   -1.1818   17.8247    0.3456 H   0  0  0  0  0  0  0  0  0  0  0  0
    0.4613   17.1531    0.7840 H   0  0  0  0  0  0  0  0  0  0  0  0
    0.8246   19.2816   -1.0877 H   0  0  0  0  0  0  0  0  0  0  0  0
   -0.2705   19.8480    0.2419 H   0  0  0  0  0  0  0  0  0  0  0  0
    1.0332   19.0688    1.7436 H   0  0  0  0  0  0  0  0  0  0  0  0
    3.8512   17.2106   -0.6561 H   0  0  0  0  0  0  0  0  0  0  0  0
    2.4436   18.0568   -1.3836 H   0  0  0  0  0  0  0  0  0  0  0  0
    4.0604   18.8396   -1.3836 H   0  0  0  0  0  0  0  0  0  0  0  0
    3.5417   18.6899    2.5822 H   0  0  0  0  0  0  0  0  0  0  0  0
    4.4106   17.5172    1.5351 H   0  0  0  0  0  0  0  0  0  0  0  0
    4.8902   19.2483    1.5351 H   0  0  0  0  0  0  0  0  0  0  0  0
    1.8511   16.4087   -1.6150 H   0  0  0  0  0  0  0  0  0  0  0  0
    2.0453   15.8626    0.7313 H   0  0  0  0  0  0  0  0  0  0  0  0
    0.3168   15.4744    0.8636 H   0  0  0  0  0  0  0  0  0  0  0  0
    2.4427   13.5682    0.7396 H   0  0  0  0  0  0  0  0  0  0  0  0
    0.7448   13.1710    0.4892 H   0  0  0  0  0  0  0  0  0  0  0  0
    3.7973   14.2340   -0.5769 H   0  0  0  0  0  0  0  0  0  0  0  0
    3.8971   13.3217   -2.1211 H   0  0  0  0  0  0  0  0  0  0  0  0
    3.3395   15.0293   -2.1211 H   0  0  0  0  0  0  0  0  0  0  0  0
    0.6318   11.9152   -1.5790 H   0  0  0  0  0  0  0  0  0  0  0  0
    2.7775   11.3844   -0.2558 H   0  0  0  0  0  0  0  0  0  0  0  0
    2.0063   10.1317   -1.3629 H   0  0  0  0  0  0  0  0  0  0  0  0
    4.6346   10.2981   -1.4428 H   0  0  0  0  0  0  0  0  0  0  0  0
    3.4046   13.0332   -4.1474 H   0  0  0  0  0  0  0  0  0  0  0  0
    2.7979   10.3189   -5.4734 H   0  0  0  0  0  0  0  0  0  0  0  0
    2.4721   11.9701   -6.1650 H   0  0  0  0  0  0  0  0  0  0  0  0
    4.4855   10.9239   -7.1496 H   0  0  0  0  0  0  0  0  0  0  0  0
    4.8520   12.4416   -6.2396 H   0  0  0  0  0  0  0  0  0  0  0  0
    6.5292   10.8058   -5.7193 H   0  0  0  0  0  0  0  0  0  0  0  0
    6.0110    8.7480   -5.4420 H   0  0  0  0  0  0  0  0  0  0  0  0
    6.3877   12.8804   -2.7524 H   0  0  0  0  0  0  0  0  0  0  0  0
    7.2139   12.5271   -4.3078 H   0  0  0  0  0  0  0  0  0  0  0  0
    5.5852   13.2847   -4.3078 H   0  0  0  0  0  0  0  0  0  0  0  0
    6.3736   10.3838   -1.9438 H   0  0  0  0  0  0  0  0  0  0  0  0
    6.3141    9.1791   -3.2750 H   0  0  0  0  0  0  0  0  0  0  0  0
    7.5775   10.4561   -3.2750 H   0  0  0  0  0  0  0  0  0  0  0  0
    0.5443   10.2440   -2.9308 H   0  0  0  0  0  0  0  0  0  0  0  0
   -0.0367   11.0164   -4.4449 H   0  0  0  0  0  0  0  0  0  0  0  0
    1.4971   10.0814   -4.4449 H   0  0  0  0  0  0  0  0  0  0  0  0
    1.2239   13.3255   -5.2098 H   0  0  0  0  0  0  0  0  0  0  0  0
   -0.1964   12.9888   -4.0681 H   0  0  0  0  0  0  0  0  0  0  0  0
    2.0385   15.0014   -3.6950 H   0  0  0  0  0  0  0  0  0  0  0  0
    0.2759   15.3069   -3.9556 H   0  0  0  0  0  0  0  0  0  0  0  0
   -0.9129   14.0237   -0.7056 H   0  0  0  0  0  0  0  0  0  0  0  0
   -1.3889   14.8163   -2.2456 H   0  0  0  0  0  0  0  0  0  0  0  0
   -0.8561   13.1009   -2.2456 H   0  0  0  0  0  0  0  0  0  0  0  0
  1  2  1  0
  2  3  1  0
  3  4  1  0
  4  5  1  0
  5  6  1  0
  6  7  1  0
  7  8  1  0
  7  9  1  0
  2 10  1  0
 10 11  1  0
 11 12  1  0
 12 13  1  0
 13 14  1  1
 13 15  1  0
 15 16  1  0
 16 17  1  0
 17 18  2  0
 18 19  1  0
 19 20  1  0
 20 21  1  0
 21 22  1  0
 22 23  1  0
 22 24  1  0
 24 25  1  0
 24 26  1  0
 19 27  1  0
 27 28  1  1
 27 29  1  0
 29 30  1  0
 30 31  1  0
 31 32  1  6
  7  5  1  0
 31 10  1  0
 31 13  1  0
 27 15  1  0
 24 18  1  0
  1 33  1  0
  1 34  1  0
  1 35  1  0
  2 36  1  6
  3 37  1  0
  3 38  1  0
  4 39  1  0
  4 40  1  0
  5 41  1  1
  8 42  1  0
  8 43  1  0
  8 44  1  0
  9 45  1  0
  9 46  1  0
  9 47  1  0
 10 48  1  6
 11 49  1  0
 11 50  1  0
 12 51  1  0
 12 52  1  0
 14 53  1  0
 14 54  1  0
 14 55  1  0
 15 56  1  1
 16 57  1  0
 16 58  1  0
 17 59  1  0
 19 60  1  6
 20 61  1  0
 20 62  1  0
 21 63  1  0
 21 64  1  0
 22 65  1  6
 23 66  1  0
 25 67  1  0
 25 68  1  0
 25 69  1  0
 26 70  1  0
 26 71  1  0
 26 72  1  0
 28 73  1  0
 28 74  1  0
 28 75  1  0
 29 76  1  0
 29 77  1  0
 30 78  1  0
 30 79  1  0
 32 80  1  0
 32 81  1  0
 32 82  1  0
M  END
>  <meeko>  (9) 
{"is_sidechain": [false], "intermolecular_energy": 2.731, "internal_energy": -0.839}

$$$$
EPH_relaxed_0001_pdb2pqr_Repair_242_r2_0001_out
     RDKit          3D

 82 86  0  0  0  0  0  0  0  0999 V2000
    2.8190   18.0420   -3.9460 C   0  0  0  0  0  0  0  0  0  0  0  0
    1.9020   17.9550   -2.7230 C   0  0  2  0  0  0  0  0  0  0  0  0
    2.1320   19.1210   -1.7400 C   0  0  0  0  0  0  0  0  0  0  0  0
    0.9310   20.0610   -1.6090 C   0  0  0  0  0  0  0  0  0  0  0  0
   -0.2670   19.3560   -1.0490 C   0  0  2  0  0  0  0  0  0  0  0  0
   -1.1630   20.1940   -0.3070 O   0  0  0  0  0  0  0  0  0  0  0  0
   -0.5020   19.1570    0.4370 C   0  0  0  0  0  0  0  0  0  0  0  0
    0.4700   19.6640    1.4550 C   0  0  0  0  0  0  0  0  0  0  0  0
   -1.4150   18.0550    0.8760 C   0  0  0  0  0  0  0  0  0  0  0  0
    2.1110   16.6240   -2.0100 C   0  0  1  0  0  0  0  0  0  0  0  0
    2.5280   16.8000   -0.5250 C   0  0  0  0  0  0  0  0  0  0  0  0
    1.8790   15.6350    0.2640 C   0  0  0  0  0  0  0  0  0  0  0  0
    1.3920   14.6500   -0.8250 C   0  0  1  0  0  0  0  0  0  0  0  0
    2.6620   13.8370   -1.2280 C   0  0  0  0  0  0  0  0  0  0  0  0
    0.2070   13.7110   -0.4280 C   0  0  2  0  0  0  0  0  0  0  0  0
    0.5040   12.7390    0.7270 C   0  0  0  0  0  0  0  0  0  0  0  0
    1.0500   11.4110    0.3180 C   0  0  0  0  0  0  0  0  0  0  0  0
    1.0270   10.9060   -0.9290 C   0  0  0  0  0  0  0  0  0  0  0  0
    0.3200   11.6530   -2.0680 C   0  0  1  0  0  0  0  0  0  0  0  0
   -0.5610   10.6590   -2.8700 C   0  0  0  0  0  0  0  0  0  0  0  0
    0.2250    9.4490   -3.3650 C   0  0  0  0  0  0  0  0  0  0  0  0
    0.8650    8.7000   -2.1990 C   0  0  2  0  0  0  0  0  0  0  0  0
   -0.1700    8.1220   -1.3980 O   0  0  0  0  0  0  0  0  0  0  0  0
    1.7690    9.6020   -1.3130 C   0  0  0  0  0  0  0  0  0  0  0  0
    3.0500    9.9840   -2.0950 C   0  0  0  0  0  0  0  0  0  0  0  0
    2.2380    8.7600   -0.0960 C   0  0  0  0  0  0  0  0  0  0  0  0
   -0.4690   12.9670   -1.6500 C   0  0  1  0  0  0  0  0  0  0  0  0
   -1.9170   12.5990   -1.2020 C   0  0  0  0  0  0  0  0  0  0  0  0
   -0.6180   13.9000   -2.9100 C   0  0  0  0  0  0  0  0  0  0  0  0
    0.5310   14.8890   -3.1810 C   0  0  0  0  0  0  0  0  0  0  0  0
    0.8940   15.6690   -1.9140 C   0  0  2  0  0  0  0  0  0  0  0  0
   -0.3570   16.5150   -1.4980 C   0  0  0  0  0  0  0  0  0  0  0  0
    3.8633   18.1411   -3.6150 H   0  0  0  0  0  0  0  0  0  0  0  0
    2.7111   17.1296   -4.5509 H   0  0  0  0  0  0  0  0  0  0  0  0
    2.5414   18.9178   -4.5509 H   0  0  0  0  0  0  0  0  0  0  0  0
    0.8646   18.0257   -3.0820 H   0  0  0  0  0  0  0  0  0  0  0  0
    2.3537   18.7004   -0.7481 H   0  0  0  0  0  0  0  0  0  0  0  0
    2.9656   19.7179   -2.1385 H   0  0  0  0  0  0  0  0  0  0  0  0
    1.2002   20.8921   -0.9405 H   0  0  0  0  0  0  0  0  0  0  0  0
    0.6734   20.4297   -2.6128 H   0  0  0  0  0  0  0  0  0  0  0  0
   -0.2818   18.6573   -1.8984 H   0  0  0  0  0  0  0  0  0  0  0  0
    0.0825   19.4619    2.4645 H   0  0  0  0  0  0  0  0  0  0  0  0
    1.4364   19.1551    1.3245 H   0  0  0  0  0  0  0  0  0  0  0  0
    0.6057   20.7478    1.3245 H   0  0  0  0  0  0  0  0  0  0  0  0
   -1.4446   18.0193    1.9750 H   0  0  0  0  0  0  0  0  0  0  0  0
   -2.4273   18.2410    0.4878 H   0  0  0  0  0  0  0  0  0  0  0  0
   -1.0440   17.0950    0.4878 H   0  0  0  0  0  0  0  0  0  0  0  0
    2.8829   16.1867   -2.6603 H   0  0  0  0  0  0  0  0  0  0  0  0
    3.6232   16.7567   -0.4316 H   0  0  0  0  0  0  0  0  0  0  0  0
    2.1964   17.7736   -0.1349 H   0  0  0  0  0  0  0  0  0  0  0  0
    2.6171   15.1528    0.9218 H   0  0  0  0  0  0  0  0  0  0  0  0
    1.0600   15.9766    0.9140 H   0  0  0  0  0  0  0  0  0  0  0  0
    3.1859   13.5017   -0.3207 H   0  0  0  0  0  0  0  0  0  0  0  0
    2.3634   12.9618   -1.8236 H   0  0  0  0  0  0  0  0  0  0  0  0
    3.3318   14.4746   -1.8236 H   0  0  0  0  0  0  0  0  0  0  0  0
   -0.5360   14.4219   -0.0373 H   0  0  0  0  0  0  0  0  0  0  0  0
    1.2367   13.2171    1.3938 H   0  0  0  0  0  0  0  0  0  0  0  0
   -0.4632   12.5350    1.2096 H   0  0  0  0  0  0  0  0  0  0  0  0
    1.5102   10.7928    1.1029 H   0  0  0  0  0  0  0  0  0  0  0  0
    1.1177   12.0497   -2.7133 H   0  0  0  0  0  0  0  0  0  0  0  0
   -1.3769   10.3081   -2.2210 H   0  0  0  0  0  0  0  0  0  0  0  0
   -0.9460   11.1910   -3.7525 H   0  0  0  0  0  0  0  0  0  0  0  0
   -0.4570    8.7702   -3.8980 H   0  0  0  0  0  0  0  0  0  0  0  0
    1.0222    9.7992   -4.0372 H   0  0  0  0  0  0  0  0  0  0  0  0
    1.5179    7.9239   -2.6249 H   0  0  0  0  0  0  0  0  0  0  0  0
   -0.5470    7.3770   -1.8970 H   0  0  0  0  0  0  0  0  0  0  0  0
    3.8551   10.2241   -1.3850 H   0  0  0  0  0  0  0  0  0  0  0  0
    3.3590    9.1389   -2.7277 H   0  0  0  0  0  0  0  0  0  0  0  0
    2.8457   10.8603   -2.7277 H   0  0  0  0  0  0  0  0  0  0  0  0
    1.9532    9.2714    0.8353 H   0  0  0  0  0  0  0  0  0  0  0  0
    1.7619    7.7689   -0.1305 H   0  0  0  0  0  0  0  0  0  0  0  0
    3.3312    8.6430   -0.1305 H   0  0  0  0  0  0  0  0  0  0  0  0
   -1.9687   12.5859   -0.1033 H   0  0  0  0  0  0  0  0  0  0  0  0
   -2.6230   13.3463   -1.5934 H   0  0  0  0  0  0  0  0  0  0  0  0
   -2.1805   11.6053   -1.5934 H   0  0  0  0  0  0  0  0  0  0  0  0
   -0.7153   13.2526   -3.7939 H   0  0  0  0  0  0  0  0  0  0  0  0
   -1.4959   14.5288   -2.7005 H   0  0  0  0  0  0  0  0  0  0  0  0
    1.4137   14.3296   -3.5243 H   0  0  0  0  0  0  0  0  0  0  0  0
    0.2042   15.6035   -3.9509 H   0  0  0  0  0  0  0  0  0  0  0  0
   -0.4217   16.5587   -0.4008 H   0  0  0  0  0  0  0  0  0  0  0  0
   -0.2608   17.5342   -1.9006 H   0  0  0  0  0  0  0  0  0  0  0  0
   -1.2670   16.0462   -1.9006 H   0  0  0  0  0  0  0  0  0  0  0  0
  1  2  1  0
  2  3  1  0
  3  4  1  0
  4  5  1  0
  5  6  1  0
  6  7  1  0
  7  8  1  0
  7  9  1  0
  2 10  1  0
 10 11  1  0
 11 12  1  0
 12 13  1  0
 13 14  1  6
 13 15  1  0
 15 16  1  0
 16 17  1  0
 17 18  2  0
 18 19  1  0
 19 20  1  0
 20 21  1  0
 21 22  1  0
 22 23  1  0
 22 24  1  0
 24 25  1  0
 24 26  1  0
 19 27  1  0
 27 28  1  1
 27 29  1  0
 29 30  1  0
 30 31  1  0
 31 32  1  1
  7  5  1  0
 31 10  1  0
 31 13  1  0
 27 15  1  0
 24 18  1  0
  1 33  1  0
  1 34  1  0
  1 35  1  0
  2 36  1  6
  3 37  1  0
  3 38  1  0
  4 39  1  0
  4 40  1  0
  5 41  1  6
  8 42  1  0
  8 43  1  0
  8 44  1  0
  9 45  1  0
  9 46  1  0
  9 47  1  0
 10 48  1  6
 11 49  1  0
 11 50  1  0
 12 51  1  0
 12 52  1  0
 14 53  1  0
 14 54  1  0
 14 55  1  0
 15 56  1  1
 16 57  1  0
 16 58  1  0
 17 59  1  0
 19 60  1  6
 20 61  1  0
 20 62  1  0
 21 63  1  0
 21 64  1  0
 22 65  1  6
 23 66  1  0
 25 67  1  0
 25 68  1  0
 25 69  1  0
 26 70  1  0
 26 71  1  0
 26 72  1  0
 28 73  1  0
 28 74  1  0
 28 75  1  0
 29 76  1  0
 29 77  1  0
 30 78  1  0
 30 79  1  0
 32 80  1  0
 32 81  1  0
 32 82  1  0
M  END
>  <meeko>  (10) 
{"is_sidechain": [false], "intermolecular_energy": 2.731, "internal_energy": -0.839}

$$$$
EPH_relaxed_0001_pdb2pqr_Repair_242_r2_0001_out
     RDKit          3D

 82 86  0  0  0  0  0  0  0  0999 V2000
    0.1030   10.4890   -3.7870 C   0  0  0  0  0  0  0  0  0  0  0  0
    1.1390   10.2750   -2.6800 C   0  0  2  0  0  0  0  0  0  0  0  0
    0.8530    9.0030   -1.8560 C   0  0  0  0  0  0  0  0  0  0  0  0
    0.2450    9.2850   -0.4790 C   0  0  0  0  0  0  0  0  0  0  0  0
   -1.1790    8.8250   -0.3970 C   0  0  2  0  0  0  0  0  0  0  0  0
   -1.8900    8.8560   -1.6410 O   0  0  0  0  0  0  0  0  0  0  0  0
   -2.3680    9.7410   -0.6150 C   0  0  0  0  0  0  0  0  0  0  0  0
   -2.1870   11.1930   -0.9320 C   0  0  0  0  0  0  0  0  0  0  0  0
   -3.6930    9.3430   -0.0440 C   0  0  0  0  0  0  0  0  0  0  0  0
    1.1780   11.4910   -1.7630 C   0  0  1  0  0  0  0  0  0  0  0  0
    2.2430   11.3600   -0.6420 C   0  0  0  0  0  0  0  0  0  0  0  0
    2.8110   12.7820   -0.3950 C   0  0  0  0  0  0  0  0  0  0  0  0
    1.8330   13.7260   -1.1350 C   0  0  1  0  0  0  0  0  0  0  0  0
    0.6290   13.9010   -0.1580 C   0  0  0  0  0  0  0  0  0  0  0  0
    2.4140   15.1050   -1.5880 C   0  0  2  0  0  0  0  0  0  0  0  0
    2.8890   16.0200   -0.4460 C   0  0  0  0  0  0  0  0  0  0  0  0
    1.8560   16.9500    0.0970 C   0  0  0  0  0  0  0  0  0  0  0  0
    0.6860   17.2520   -0.4950 C   0  0  0  0  0  0  0  0  0  0  0  0
    0.3460   16.7090   -1.8890 C   0  0  1  0  0  0  0  0  0  0  0  0
   -0.2120   17.8570   -2.7710 C   0  0  0  0  0  0  0  0  0  0  0  0
   -1.3920   18.5730   -2.1200 C   0  0  0  0  0  0  0  0  0  0  0  0
   -0.9980   19.1500   -0.7630 C   0  0  2  0  0  0  0  0  0  0  0  0
   -0.0420   20.1950   -0.9650 O   0  0  0  0  0  0  0  0  0  0  0  0
   -0.4130   18.0860    0.2080 C   0  0  0  0  0  0  0  0  0  0  0  0
   -1.5360   17.1230    0.6650 C   0  0  0  0  0  0  0  0  0  0  0  0
    0.0740   18.8230    1.4860 C   0  0  0  0  0  0  0  0  0  0  0  0
    1.4990   15.8880   -2.6130 C   0  0  1  0  0  0  0  0  0  0  0  0
    2.4350   16.8610   -3.3930 C   0  0  0  0  0  0  0  0  0  0  0  0
    0.8540   14.9360   -3.6890 C   0  0  0  0  0  0  0  0  0  0  0  0
    0.4090   13.5420   -3.2050 C   0  0  0  0  0  0  0  0  0  0  0  0
    1.5230   12.8570   -2.4080 C   0  0  2  0  0  0  0  0  0  0  0  0
    2.7410   12.6480   -3.3710 C   0  0  0  0  0  0  0  0  0  0  0  0
   -0.8794   10.6919   -3.3356 H   0  0  0  0  0  0  0  0  0  0  0  0
    0.4037   11.3440   -4.4103 H   0  0  0  0  0  0  0  0  0  0  0  0
    0.0404    9.5848   -4.4103 H   0  0  0  0  0  0  0  0  0  0  0  0
    2.1180   10.1425   -3.1636 H   0  0  0  0  0  0  0  0  0  0  0  0
    0.1519    8.3726   -2.4226 H   0  0  0  0  0  0  0  0  0  0  0  0
    1.8197    8.5068   -1.6849 H   0  0  0  0  0  0  0  0  0  0  0  0
    0.8345    8.7579    0.2857 H   0  0  0  0  0  0  0  0  0  0  0  0
    0.2643   10.3720   -0.3117 H   0  0  0  0  0  0  0  0  0  0  0  0
   -0.9295    8.1198    0.4095 H   0  0  0  0  0  0  0  0  0  0  0  0
   -2.1155   11.7665    0.0039 H   0  0  0  0  0  0  0  0  0  0  0  0
   -1.2650   11.3286   -1.5164 H   0  0  0  0  0  0  0  0  0  0  0  0
   -3.0475   11.5508   -1.5164 H   0  0  0  0  0  0  0  0  0  0  0  0
   -3.6387    9.3593    1.0545 H   0  0  0  0  0  0  0  0  0  0  0  0
   -4.4655   10.0488   -0.3834 H   0  0  0  0  0  0  0  0  0  0  0  0
   -3.9487    8.3284   -0.3834 H   0  0  0  0  0  0  0  0  0  0  0  0
    0.1349   11.4922   -1.4138 H   0  0  0  0  0  0  0  0  0  0  0  0
    1.7795   10.9724    0.2772 H   0  0  0  0  0  0  0  0  0  0  0  0
    3.0408   10.6618   -0.9352 H   0  0  0  0  0  0  0  0  0  0  0  0
    2.8322   13.0104    0.6808 H   0  0  0  0  0  0  0  0  0  0  0  0
    3.8452   12.8868   -0.7549 H   0  0  0  0  0  0  0  0  0  0  0  0
    0.9887   13.8487    0.8802 H   0  0  0  0  0  0  0  0  0  0  0  0
    0.1540   14.8776   -0.3327 H   0  0  0  0  0  0  0  0  0  0  0  0
   -0.1044   13.1000   -0.3327 H   0  0  0  0  0  0  0  0  0  0  0  0
    3.3234   14.8104   -2.1322 H   0  0  0  0  0  0  0  0  0  0  0  0
    3.2383   15.3811    0.3785 H   0  0  0  0  0  0  0  0  0  0  0  0
    3.6771   16.6569   -0.8740 H   0  0  0  0  0  0  0  0  0  0  0  0
    2.0692   17.4296    1.0637 H   0  0  0  0  0  0  0  0  0  0  0  0
   -0.4307   15.9452   -1.7366 H   0  0  0  0  0  0  0  0  0  0  0  0
    0.5906   18.5882   -2.9476 H   0  0  0  0  0  0  0  0  0  0  0  0
   -0.5684   17.4127   -3.7121 H   0  0  0  0  0  0  0  0  0  0  0  0
   -1.7236   19.3909   -2.7765 H   0  0  0  0  0  0  0  0  0  0  0  0
   -2.2045   17.8467   -1.9704 H   0  0  0  0  0  0  0  0  0  0  0  0
   -1.9133   19.5364   -0.2908 H   0  0  0  0  0  0  0  0  0  0  0  0
    0.5190   19.9390   -1.7170 H   0  0  0  0  0  0  0  0  0  0  0  0
   -1.5696   17.0942    1.7641 H   0  0  0  0  0  0  0  0  0  0  0  0
   -2.5028   17.4771    0.2778 H   0  0  0  0  0  0  0  0  0  0  0  0
   -1.3335   16.1135    0.2778 H   0  0  0  0  0  0  0  0  0  0  0  0
   -0.2814   18.2852    2.3773 H   0  0  0  0  0  0  0  0  0  0  0  0
    1.1734   18.8577    1.4928 H   0  0  0  0  0  0  0  0  0  0  0  0
   -0.3252   19.8480    1.4928 H   0  0  0  0  0  0  0  0  0  0  0  0
    3.0148   17.4637   -2.6784 H   0  0  0  0  0  0  0  0  0  0  0  0
    3.1225   16.2802   -4.0254 H   0  0  0  0  0  0  0  0  0  0  0  0
    1.8280   17.5255   -4.0254 H   0  0  0  0  0  0  0  0  0  0  0  0
   -0.0318   15.4455   -4.0961 H   0  0  0  0  0  0  0  0  0  0  0  0
    1.6527   14.7455   -4.4209 H   0  0  0  0  0  0  0  0  0  0  0  0
   -0.4781   13.6500   -2.5636 H   0  0  0  0  0  0  0  0  0  0  0  0
    0.1755   12.9235   -4.0842 H   0  0  0  0  0  0  0  0  0  0  0  0
    3.6543   12.4913   -2.7783 H   0  0  0  0  0  0  0  0  0  0  0  0
    2.5600   11.7678   -4.0054 H   0  0  0  0  0  0  0  0  0  0  0  0
    2.8638   13.5382   -4.0054 H   0  0  0  0  0  0  0  0  0  0  0  0
  1  2  1  0
  2  3  1  0
  3  4  1  0
  4  5  1  0
  5  6  1  0
  6  7  1  0
  7  8  1  0
  7  9  1  0
  2 10  1  0
 10 11  1  0
 11 12  1  0
 12 13  1  0
 13 14  1  1
 13 15  1  0
 15 16  1  0
 16 17  1  0
 17 18  2  0
 18 19  1  0
 19 20  1  0
 20 21  1  0
 21 22  1  0
 22 23  1  0
 22 24  1  0
 24 25  1  0
 24 26  1  0
 19 27  1  0
 27 28  1  6
 27 29  1  0
 29 30  1  0
 30 31  1  0
 31 32  1  6
  7  5  1  0
 31 10  1  0
 31 13  1  0
 27 15  1  0
 24 18  1  0
  1 33  1  0
  1 34  1  0
  1 35  1  0
  2 36  1  6
  3 37  1  0
  3 38  1  0
  4 39  1  0
  4 40  1  0
  5 41  1  1
  8 42  1  0
  8 43  1  0
  8 44  1  0
  9 45  1  0
  9 46  1  0
  9 47  1  0
 10 48  1  1
 11 49  1  0
 11 50  1  0
 12 51  1  0
 12 52  1  0
 14 53  1  0
 14 54  1  0
 14 55  1  0
 15 56  1  6
 16 57  1  0
 16 58  1  0
 17 59  1  0
 19 60  1  1
 20 61  1  0
 20 62  1  0
 21 63  1  0
 21 64  1  0
 22 65  1  1
 23 66  1  0
 25 67  1  0
 25 68  1  0
 25 69  1  0
 26 70  1  0
 26 71  1  0
 26 72  1  0
 28 73  1  0
 28 74  1  0
 28 75  1  0
 29 76  1  0
 29 77  1  0
 30 78  1  0
 30 79  1  0
 32 80  1  0
 32 81  1  0
 32 82  1  0
M  END
>  <meeko>  (11) 
{"is_sidechain": [false], "intermolecular_energy": 2.731, "internal_energy": -0.839}

$$$$
EPH_relaxed_0001_pdb2pqr_Repair_242_r2_0001_out
     RDKit          3D

 82 86  0  0  0  0  0  0  0  0999 V2000
   -3.7430    7.2230   -3.4130 C   0  0  0  0  0  0  0  0  0  0  0  0
   -3.7580    7.2940   -1.8840 C   0  0  2  0  0  0  0  0  0  0  0  0
   -5.1700    7.0710   -1.3060 C   0  0  0  0  0  0  0  0  0  0  0  0
   -6.2920    7.2570   -2.3320 C   0  0  0  0  0  0  0  0  0  0  0  0
   -7.6190    7.4740   -1.6700 C   0  0  2  0  0  0  0  0  0  0  0  0
   -8.2110    6.2920   -1.1150 O   0  0  0  0  0  0  0  0  0  0  0  0
   -8.9220    6.9070   -2.2020 C   0  0  0  0  0  0  0  0  0  0  0  0
   -8.9610    6.0790   -3.4480 C   0  0  0  0  0  0  0  0  0  0  0  0
  -10.2060    7.5570   -1.7910 C   0  0  0  0  0  0  0  0  0  0  0  0
   -3.2140    8.6410   -1.4210 C   0  0  1  0  0  0  0  0  0  0  0  0
   -3.8280    9.1020   -0.0720 C   0  0  0  0  0  0  0  0  0  0  0  0
   -2.7100    9.8560    0.6930 C   0  0  0  0  0  0  0  0  0  0  0  0
   -1.6050   10.0930   -0.3630 C   0  0  1  0  0  0  0  0  0  0  0  0
   -2.0770   11.3470   -1.1630 C   0  0  0  0  0  0  0  0  0  0  0  0
   -0.1520   10.2710    0.1860 C   0  0  2  0  0  0  0  0  0  0  0  0
    0.0550   11.4920    1.0980 C   0  0  0  0  0  0  0  0  0  0  0  0
    0.4650   12.7470    0.4010 C   0  0  0  0  0  0  0  0  0  0  0  0
    0.9350   12.8250   -0.8580 C   0  0  0  0  0  0  0  0  0  0  0  0
    1.1850   11.5570   -1.6850 C   0  0  1  0  0  0  0  0  0  0  0  0
    2.5740   11.6520   -2.3700 C   0  0  0  0  0  0  0  0  0  0  0  0
    2.7330   12.9260   -3.1940 C   0  0  0  0  0  0  0  0  0  0  0  0
    2.5340   14.1660   -2.3250 C   0  0  2  0  0  0  0  0  0  0  0  0
    3.6050   14.2420   -1.3780 O   0  0  0  0  0  0  0  0  0  0  0  0
    1.1730   14.1760   -1.5760 C   0  0  0  0  0  0  0  0  0  0  0  0
    0.0230   14.3980   -2.5890 C   0  0  0  0  0  0  0  0  0  0  0  0
    1.1590   15.4060   -0.6280 C   0  0  0  0  0  0  0  0  0  0  0  0
    0.9750   10.1790   -0.9220 C   0  0  1  0  0  0  0  0  0  0  0  0
    2.2880    9.7710   -0.1870 C   0  0  0  0  0  0  0  0  0  0  0  0
    0.6860    9.0460   -1.9760 C   0  0  0  0  0  0  0  0  0  0  0  0
   -0.7840    8.8390   -2.3880 C   0  0  0  0  0  0  0  0  0  0  0  0
   -1.6900    8.7390   -1.1570 C   0  0  2  0  0  0  0  0  0  0  0  0
   -1.2530    7.4730   -0.3440 C   0  0  0  0  0  0  0  0  0  0  0  0
   -3.5253    6.1924   -3.7301 H   0  0  0  0  0  0  0  0  0  0  0  0
   -4.7252    7.5271   -3.8038 H   0  0  0  0  0  0  0  0  0  0  0  0
   -2.9677    7.8984   -3.8038 H   0  0  0  0  0  0  0  0  0  0  0  0
   -3.1154    6.4837   -1.5091 H   0  0  0  0  0  0  0  0  0  0  0  0
   -5.2260    6.0454   -0.9123 H   0  0  0  0  0  0  0  0  0  0  0  0
   -5.3206    7.8298   -0.5240 H   0  0  0  0  0  0  0  0  0  0  0  0
   -6.0598    8.1300   -2.9596 H   0  0  0  0  0  0  0  0  0  0  0  0
   -6.3572    6.3414   -2.9382 H   0  0  0  0  0  0  0  0  0  0  0  0
   -7.3270    8.4893   -1.3636 H   0  0  0  0  0  0  0  0  0  0  0  0
   -9.0112    5.0136   -3.1788 H   0  0  0  0  0  0  0  0  0  0  0  0
   -9.8474    6.3496   -4.0405 H   0  0  0  0  0  0  0  0  0  0  0  0
   -8.0531    6.2651   -4.0405 H   0  0  0  0  0  0  0  0  0  0  0  0
  -10.2665    7.5876   -0.6931 H   0  0  0  0  0  0  0  0  0  0  0  0
  -10.2420    8.5819   -2.1889 H   0  0  0  0  0  0  0  0  0  0  0  0
  -11.0533    6.9792   -2.1889 H   0  0  0  0  0  0  0  0  0  0  0  0
   -3.4867    9.2586   -2.2895 H   0  0  0  0  0  0  0  0  0  0  0  0
   -4.6813    9.7721   -0.2534 H   0  0  0  0  0  0  0  0  0  0  0  0
   -4.1947    8.2432    0.5094 H   0  0  0  0  0  0  0  0  0  0  0  0
   -3.0849   10.8133    1.0841 H   0  0  0  0  0  0  0  0  0  0  0  0
   -2.3426    9.2881    1.5605 H   0  0  0  0  0  0  0  0  0  0  0  0
   -2.3752   12.1392   -0.4605 H   0  0  0  0  0  0  0  0  0  0  0  0
   -1.2537   11.7092   -1.7962 H   0  0  0  0  0  0  0  0  0  0  0  0
   -2.9348   11.0765   -1.7962 H   0  0  0  0  0  0  0  0  0  0  0  0
   -0.0346    9.3904    0.8346 H   0  0  0  0  0  0  0  0  0  0  0  0
   -0.8916   11.6885    1.6228 H   0  0  0  0  0  0  0  0  0  0  0  0
    0.8860   11.2321    1.7702 H   0  0  0  0  0  0  0  0  0  0  0  0
    0.3754   13.6877    0.9640 H   0  0  0  0  0  0  0  0  0  0  0  0
    0.3928   11.5300   -2.4476 H   0  0  0  0  0  0  0  0  0  0  0  0
    3.3524   11.6350   -1.5930 H   0  0  0  0  0  0  0  0  0  0  0  0
    2.6679   10.7967   -3.0553 H   0  0  0  0  0  0  0  0  0  0  0  0
    3.7430   12.9496   -3.6292 H   0  0  0  0  0  0  0  0  0  0  0  0
    1.9720   12.9279   -3.9883 H   0  0  0  0  0  0  0  0  0  0  0  0
    2.5313   15.0402   -2.9926 H   0  0  0  0  0  0  0  0  0  0  0  0
    3.2220   14.4900   -0.5200 H   0  0  0  0  0  0  0  0  0  0  0  0
   -0.9154   14.5792   -2.0445 H   0  0  0  0  0  0  0  0  0  0  0  0
    0.2540   15.2681   -3.2211 H   0  0  0  0  0  0  0  0  0  0  0  0
   -0.0865   13.5044   -3.2211 H   0  0  0  0  0  0  0  0  0  0  0  0
    1.1629   15.0634    0.4173 H   0  0  0  0  0  0  0  0  0  0  0  0
    2.0502   16.0231   -0.8149 H   0  0  0  0  0  0  0  0  0  0  0  0
    0.2540   16.0027   -0.8149 H   0  0  0  0  0  0  0  0  0  0  0  0
    2.1299    9.8201    0.9005 H   0  0  0  0  0  0  0  0  0  0  0  0
    2.5637    8.7448   -0.4714 H   0  0  0  0  0  0  0  0  0  0  0  0
    3.0968   10.4602   -0.4714 H   0  0  0  0  0  0  0  0  0  0  0  0
    1.2562    9.2847   -2.8859 H   0  0  0  0  0  0  0  0  0  0  0  0
    0.9804    8.1095   -1.4798 H   0  0  0  0  0  0  0  0  0  0  0  0
   -1.1080    9.6901   -3.0049 H   0  0  0  0  0  0  0  0  0  0  0  0
   -0.8599    7.9002   -2.9563 H   0  0  0  0  0  0  0  0  0  0  0  0
   -1.3263    7.6854    0.7328 H   0  0  0  0  0  0  0  0  0  0  0  0
   -1.9119    6.6293   -0.5970 H   0  0  0  0  0  0  0  0  0  0  0  0
   -0.2139    7.2154   -0.5970 H   0  0  0  0  0  0  0  0  0  0  0  0
  1  2  1  0
  2  3  1  0
  3  4  1  0
  4  5  1  0
  5  6  1  0
  6  7  1  0
  7  8  1  0
  7  9  1  0
  2 10  1  0
 10 11  1  0
 11 12  1  0
 12 13  1  0
 13 14  1  6
 13 15  1  0
 15 16  1  0
 16 17  1  0
 17 18  2  0
 18 19  1  0
 19 20  1  0
 20 21  1  0
 21 22  1  0
 22 23  1  0
 22 24  1  0
 24 25  1  0
 24 26  1  0
 19 27  1  0
 27 28  1  1
 27 29  1  0
 29 30  1  0
 30 31  1  0
 31 32  1  1
  7  5  1  0
 31 10  1  0
 31 13  1  0
 27 15  1  0
 24 18  1  0
  1 33  1  0
  1 34  1  0
  1 35  1  0
  2 36  1  1
  3 37  1  0
  3 38  1  0
  4 39  1  0
  4 40  1  0
  5 41  1  1
  8 42  1  0
  8 43  1  0
  8 44  1  0
  9 45  1  0
  9 46  1  0
  9 47  1  0
 10 48  1  6
 11 49  1  0
 11 50  1  0
 12 51  1  0
 12 52  1  0
 14 53  1  0
 14 54  1  0
 14 55  1  0
 15 56  1  1
 16 57  1  0
 16 58  1  0
 17 59  1  0
 19 60  1  6
 20 61  1  0
 20 62  1  0
 21 63  1  0
 21 64  1  0
 22 65  1  6
 23 66  1  0
 25 67  1  0
 25 68  1  0
 25 69  1  0
 26 70  1  0
 26 71  1  0
 26 72  1  0
 28 73  1  0
 28 74  1  0
 28 75  1  0
 29 76  1  0
 29 77  1  0
 30 78  1  0
 30 79  1  0
 32 80  1  0
 32 81  1  0
 32 82  1  0
M  END
>  <meeko>  (12) 
{"is_sidechain": [false], "intermolecular_energy": 2.731, "internal_energy": -0.839}

$$$$
EPH_relaxed_0001_pdb2pqr_Repair_242_r2_0001_out
     RDKit          3D

 82 86  0  0  0  0  0  0  0  0999 V2000
   -0.9020   16.3610   -5.8310 C   0  0  0  0  0  0  0  0  0  0  0  0
    0.1840   15.6630   -6.6540 C   0  0  2  0  0  0  0  0  0  0  0  0
   -0.2270   15.4880   -8.1290 C   0  0  0  0  0  0  0  0  0  0  0  0
    0.4260   16.5000   -9.0740 C   0  0  0  0  0  0  0  0  0  0  0  0
    1.8360   16.1170   -9.4080 C   0  0  2  0  0  0  0  0  0  0  0  0
    2.3400   16.6880  -10.6230 O   0  0  0  0  0  0  0  0  0  0  0  0
    2.2090   15.2580  -10.6020 C   0  0  0  0  0  0  0  0  0  0  0  0
    1.1680   14.7280  -11.5380 C   0  0  0  0  0  0  0  0  0  0  0  0
    3.5190   14.5330  -10.5800 C   0  0  0  0  0  0  0  0  0  0  0  0
    0.5110   14.3070   -6.0390 C   0  0  1  0  0  0  0  0  0  0  0  0
    1.7600   13.6460   -6.6800 C   0  0  0  0  0  0  0  0  0  0  0  0
    2.4880   12.8750   -5.5490 C   0  0  0  0  0  0  0  0  0  0  0  0
    1.4710   12.8390   -4.3850 C   0  0  1  0  0  0  0  0  0  0  0  0
    0.5030   11.6660   -4.7330 C   0  0  0  0  0  0  0  0  0  0  0  0
    2.0700   12.6860   -2.9490 C   0  0  2  0  0  0  0  0  0  0  0  0
    2.8400   11.3770   -2.6990 C   0  0  0  0  0  0  0  0  0  0  0  0
    2.0210   10.2460   -2.1730 C   0  0  0  0  0  0  0  0  0  0  0  0
    0.7880   10.3520   -1.6440 C   0  0  0  0  0  0  0  0  0  0  0  0
    0.1330   11.7250   -1.4440 C   0  0  1  0  0  0  0  0  0  0  0  0
   -0.4850   11.8020   -0.0230 C   0  0  0  0  0  0  0  0  0  0  0  0
   -1.4450   10.6500    0.2600 C   0  0  0  0  0  0  0  0  0  0  0  0
   -0.7420    9.3040    0.1070 C   0  0  2  0  0  0  0  0  0  0  0  0
    0.2430    9.1790    1.1370 O   0  0  0  0  0  0  0  0  0  0  0  0
   -0.0730    9.1170   -1.2830 C   0  0  0  0  0  0  0  0  0  0  0  0
   -1.1650    8.9500   -2.3680 C   0  0  0  0  0  0  0  0  0  0  0  0
    0.7190    7.7810   -1.2550 C   0  0  0  0  0  0  0  0  0  0  0  0
    1.0430   12.9830   -1.7820 C   0  0  1  0  0  0  0  0  0  0  0  0
    1.8890   13.3790   -0.5340 C   0  0  0  0  0  0  0  0  0  0  0  0
    0.1170   14.2170   -2.1010 C   0  0  0  0  0  0  0  0  0  0  0  0
   -0.3440   14.3800   -3.5610 C   0  0  0  0  0  0  0  0  0  0  0  0
    0.8410   14.2720   -4.5260 C   0  0  2  0  0  0  0  0  0  0  0  0
    1.8210   15.4540   -4.2140 C   0  0  0  0  0  0  0  0  0  0  0  0
   -0.6931   16.2267   -4.7594 H   0  0  0  0  0  0  0  0  0  0  0  0
   -0.9110   17.4344   -6.0711 H   0  0  0  0  0  0  0  0  0  0  0  0
   -1.8822   15.9233   -6.0711 H   0  0  0  0  0  0  0  0  0  0  0  0
    1.0772   16.3048   -6.6351 H   0  0  0  0  0  0  0  0  0  0  0  0
    0.0598   14.4763   -8.4517 H   0  0  0  0  0  0  0  0  0  0  0  0
   -1.3132   15.6533   -8.1818 H   0  0  0  0  0  0  0  0  0  0  0  0
   -0.1598   16.5491  -10.0037 H   0  0  0  0  0  0  0  0  0  0  0  0
    0.4466   17.4770   -8.5690 H   0  0  0  0  0  0  0  0  0  0  0  0
    2.0957   16.0507   -8.3411 H   0  0  0  0  0  0  0  0  0  0  0  0
    0.3351   14.3040  -10.9579 H   0  0  0  0  0  0  0  0  0  0  0  0
    0.7945   15.5457  -12.1719 H   0  0  0  0  0  0  0  0  0  0  0  0
    1.6094   13.9449  -12.1719 H   0  0  0  0  0  0  0  0  0  0  0  0
    3.8264   14.3629   -9.5376 H   0  0  0  0  0  0  0  0  0  0  0  0
    3.4115   13.5660  -11.0931 H   0  0  0  0  0  0  0  0  0  0  0  0
    4.2813   15.1376  -11.0931 H   0  0  0  0  0  0  0  0  0  0  0  0
   -0.4389   13.7857   -6.2285 H   0  0  0  0  0  0  0  0  0  0  0  0
    1.4543   12.9512   -7.4761 H   0  0  0  0  0  0  0  0  0  0  0  0
    2.4197   14.4022   -7.1306 H   0  0  0  0  0  0  0  0  0  0  0  0
    2.7416   11.8554   -5.8749 H   0  0  0  0  0  0  0  0  0  0  0  0
    3.4356   13.3535   -5.2607 H   0  0  0  0  0  0  0  0  0  0  0  0
    0.1283   11.2119   -3.8038 H   0  0  0  0  0  0  0  0  0  0  0  0
   -0.3436   12.0512   -5.3203 H   0  0  0  0  0  0  0  0  0  0  0  0
    1.0418   10.9079   -5.3203 H   0  0  0  0  0  0  0  0  0  0  0  0
    2.8237   13.4868   -2.9225 H   0  0  0  0  0  0  0  0  0  0  0  0
    3.2871   11.0583   -3.6522 H   0  0  0  0  0  0  0  0  0  0  0  0
    3.5813   11.6044   -1.9188 H   0  0  0  0  0  0  0  0  0  0  0  0
    2.4627    9.2398   -2.2218 H   0  0  0  0  0  0  0  0  0  0  0  0
   -0.6618   11.7958   -2.2012 H   0  0  0  0  0  0  0  0  0  0  0  0
    0.3281   11.7736    0.7173 H   0  0  0  0  0  0  0  0  0  0  0  0
   -1.0584   12.7385    0.0418 H   0  0  0  0  0  0  0  0  0  0  0  0
   -1.8254   10.7427    1.2880 H   0  0  0  0  0  0  0  0  0  0  0  0
   -2.2732   10.6976   -0.4624 H   0  0  0  0  0  0  0  0  0  0  0  0
   -1.5082    8.5195    0.1935 H   0  0  0  0  0  0  0  0  0  0  0  0
   -0.1490    8.6570    1.8580 H   0  0  0  0  0  0  0  0  0  0  0  0
   -2.1419    8.8006   -1.8850 H   0  0  0  0  0  0  0  0  0  0  0  0
   -1.2002    9.8532   -2.9949 H   0  0  0  0  0  0  0  0  0  0  0  0
   -0.9286    8.0776   -2.9949 H   0  0  0  0  0  0  0  0  0  0  0  0
    0.8964    7.4817   -0.2115 H   0  0  0  0  0  0  0  0  0  0  0  0
    0.1381    6.9996   -1.7669 H   0  0  0  0  0  0  0  0  0  0  0  0
    1.6833    7.9156   -1.7669 H   0  0  0  0  0  0  0  0  0  0  0  0
    1.3360   13.1202    0.3810 H   0  0  0  0  0  0  0  0  0  0  0  0
    2.8447   12.8347   -0.5512 H   0  0  0  0  0  0  0  0  0  0  0  0
    2.0832   14.4616   -0.5512 H   0  0  0  0  0  0  0  0  0  0  0  0
   -0.7836   14.1277   -1.4757 H   0  0  0  0  0  0  0  0  0  0  0  0
    0.7360   15.1024   -1.8941 H   0  0  0  0  0  0  0  0  0  0  0  0
   -1.0739   13.5919   -3.7979 H   0  0  0  0  0  0  0  0  0  0  0  0
   -0.8000   15.3745   -3.6757 H   0  0  0  0  0  0  0  0  0  0  0  0
    1.9185   15.5716   -3.1247 H   0  0  0  0  0  0  0  0  0  0  0  0
    2.8077   15.2369   -4.6491 H   0  0  0  0  0  0  0  0  0  0  0  0
    1.4248   16.3834   -4.6491 H   0  0  0  0  0  0  0  0  0  0  0  0
  1  2  1  0
  2  3  1  0
  3  4  1  0
  4  5  1  0
  5  6  1  0
  6  7  1  0
  7  8  1  0
  7  9  1  0
  2 10  1  0
 10 11  1  0
 11 12  1  0
 12 13  1  0
 13 14  1  6
 13 15  1  0
 15 16  1  0
 16 17  1  0
 17 18  2  0
 18 19  1  0
 19 20  1  0
 20 21  1  0
 21 22  1  0
 22 23  1  0
 22 24  1  0
 24 25  1  0
 24 26  1  0
 19 27  1  0
 27 28  1  1
 27 29  1  0
 29 30  1  0
 30 31  1  0
 31 32  1  1
  7  5  1  0
 31 10  1  0
 31 13  1  0
 27 15  1  0
 24 18  1  0
  1 33  1  0
  1 34  1  0
  1 35  1  0
  2 36  1  6
  3 37  1  0
  3 38  1  0
  4 39  1  0
  4 40  1  0
  5 41  1  1
  8 42  1  0
  8 43  1  0
  8 44  1  0
  9 45  1  0
  9 46  1  0
  9 47  1  0
 10 48  1  1
 11 49  1  0
 11 50  1  0
 12 51  1  0
 12 52  1  0
 14 53  1  0
 14 54  1  0
 14 55  1  0
 15 56  1  6
 16 57  1  0
 16 58  1  0
 17 59  1  0
 19 60  1  6
 20 61  1  0
 20 62  1  0
 21 63  1  0
 21 64  1  0
 22 65  1  1
 23 66  1  0
 25 67  1  0
 25 68  1  0
 25 69  1  0
 26 70  1  0
 26 71  1  0
 26 72  1  0
 28 73  1  0
 28 74  1  0
 28 75  1  0
 29 76  1  0
 29 77  1  0
 30 78  1  0
 30 79  1  0
 32 80  1  0
 32 81  1  0
 32 82  1  0
M  END
>  <meeko>  (13) 
{"is_sidechain": [false], "intermolecular_energy": 2.731, "internal_energy": -0.839}

$$$$
EPH_relaxed_0001_pdb2pqr_Repair_242_r2_0001_out
     RDKit          3D

 82 86  0  0  0  0  0  0  0  0999 V2000
    0.1430    9.3060   -2.2670 C   0  0  0  0  0  0  0  0  0  0  0  0
    1.1640   10.3380   -2.7550 C   0  0  2  0  0  0  0  0  0  0  0  0
    2.5800    9.7410   -2.8790 C   0  0  0  0  0  0  0  0  0  0  0  0
    3.4680   10.4680   -3.8920 C   0  0  0  0  0  0  0  0  0  0  0  0
    4.8480   10.6990   -3.3540 C   0  0  2  0  0  0  0  0  0  0  0  0
    5.4570   11.9270   -3.7740 O   0  0  0  0  0  0  0  0  0  0  0  0
    6.0920   10.7180   -4.2220 C   0  0  0  0  0  0  0  0  0  0  0  0
    6.0150   10.5020   -5.7010 C   0  0  0  0  0  0  0  0  0  0  0  0
    7.4180   10.4600   -3.5780 C   0  0  0  0  0  0  0  0  0  0  0  0
    1.1840   11.5360   -1.8120 C   0  0  1  0  0  0  0  0  0  0  0  0
    2.2570   11.4020   -0.6990 C   0  0  0  0  0  0  0  0  0  0  0  0
    2.7980   12.8290   -0.4250 C   0  0  0  0  0  0  0  0  0  0  0  0
    1.7980   13.7680   -1.1390 C   0  0  1  0  0  0  0  0  0  0  0  0
    0.5950   13.8980   -0.1530 C   0  0  0  0  0  0  0  0  0  0  0  0
    2.3490   15.1680   -1.5650 C   0  0  2  0  0  0  0  0  0  0  0  0
    2.8120   16.0670   -0.4060 C   0  0  0  0  0  0  0  0  0  0  0  0
    1.7640   16.9660    0.1620 C   0  0  0  0  0  0  0  0  0  0  0  0
    0.5850   17.2570   -0.4180 C   0  0  0  0  0  0  0  0  0  0  0  0
    0.2480   16.7370   -1.8220 C   0  0  1  0  0  0  0  0  0  0  0  0
   -0.3370   17.8920   -2.6750 C   0  0  0  0  0  0  0  0  0  0  0  0
   -1.5270   18.5710   -2.0040 C   0  0  0  0  0  0  0  0  0  0  0  0
   -1.1380   19.1260   -0.6360 C   0  0  2  0  0  0  0  0  0  0  0  0
   -0.2040   20.1930   -0.8210 O   0  0  0  0  0  0  0  0  0  0  0  0
   -0.5260   18.0530    0.3090 C   0  0  0  0  0  0  0  0  0  0  0  0
   -1.6280   17.0590    0.7500 C   0  0  0  0  0  0  0  0  0  0  0  0
   -0.0480   18.7720    1.6000 C   0  0  0  0  0  0  0  0  0  0  0  0
    1.4130   15.9550   -2.5690 C   0  0  1  0  0  0  0  0  0  0  0  0
    2.3260   16.9630   -3.3320 C   0  0  0  0  0  0  0  0  0  0  0  0
    0.7810   15.0130   -3.6620 C   0  0  0  0  0  0  0  0  0  0  0  0
    0.3670   13.6010   -3.2060 C   0  0  0  0  0  0  0  0  0  0  0  0
    1.4990   12.9210   -2.4290 C   0  0  2  0  0  0  0  0  0  0  0  0
    2.7150   12.7570   -3.4030 C   0  0  0  0  0  0  0  0  0  0  0  0
    0.1310    9.2938   -1.1671 H   0  0  0  0  0  0  0  0  0  0  0  0
   -0.8561    9.5731   -2.6417 H   0  0  0  0  0  0  0  0  0  0  0  0
    0.4208    8.3098   -2.6417 H   0  0  0  0  0  0  0  0  0  0  0  0
    0.8533   10.6609   -3.7596 H   0  0  0  0  0  0  0  0  0  0  0  0
    3.0654    9.7907   -1.8931 H   0  0  0  0  0  0  0  0  0  0  0  0
    2.4629    8.7077   -3.2376 H   0  0  0  0  0  0  0  0  0  0  0  0
    3.5387    9.8594   -4.8055 H   0  0  0  0  0  0  0  0  0  0  0  0
    3.0145   11.4473   -4.1050 H   0  0  0  0  0  0  0  0  0  0  0  0
    4.6027   10.1581   -2.4281 H   0  0  0  0  0  0  0  0  0  0  0  0
    5.6520    9.4837   -5.9044 H   0  0  0  0  0  0  0  0  0  0  0  0
    5.3222   11.2333   -6.1428 H   0  0  0  0  0  0  0  0  0  0  0  0
    7.0142   10.6302   -6.1428 H   0  0  0  0  0  0  0  0  0  0  0  0
    7.3048   10.4820   -2.4841 H   0  0  0  0  0  0  0  0  0  0  0  0
    7.7904    9.4726   -3.8883 H   0  0  0  0  0  0  0  0  0  0  0  0
    8.1335   11.2358   -3.8883 H   0  0  0  0  0  0  0  0  0  0  0  0
    0.1428   11.5097   -1.4582 H   0  0  0  0  0  0  0  0  0  0  0  0
    1.8059   10.9862    0.2140 H   0  0  0  0  0  0  0  0  0  0  0  0
    3.0667   10.7257   -1.0104 H   0  0  0  0  0  0  0  0  0  0  0  0
    2.8209   13.0350    0.6553 H   0  0  0  0  0  0  0  0  0  0  0  0
    3.8278   12.9620   -0.7881 H   0  0  0  0  0  0  0  0  0  0  0  0
    0.9637   13.8582    0.8826 H   0  0  0  0  0  0  0  0  0  0  0  0
    0.0832   14.8567   -0.3234 H   0  0  0  0  0  0  0  0  0  0  0  0
   -0.1098   13.0708   -0.3234 H   0  0  0  0  0  0  0  0  0  0  0  0
    3.2610   14.9034   -2.1202 H   0  0  0  0  0  0  0  0  0  0  0  0
    3.1773   15.4173    0.4030 H   0  0  0  0  0  0  0  0  0  0  0  0
    3.5857   16.7278   -0.8240 H   0  0  0  0  0  0  0  0  0  0  0  0
    1.9733   17.4298    1.1372 H   0  0  0  0  0  0  0  0  0  0  0  0
   -0.5125   15.9545   -1.6829 H   0  0  0  0  0  0  0  0  0  0  0  0
    0.4503   18.6424   -2.8395 H   0  0  0  0  0  0  0  0  0  0  0  0
   -0.6902   17.4606   -3.6233 H   0  0  0  0  0  0  0  0  0  0  0  0
   -1.8769   19.3965   -2.6413 H   0  0  0  0  0  0  0  0  0  0  0  0
   -2.3249   17.8263   -1.8670 H   0  0  0  0  0  0  0  0  0  0  0  0
   -2.0582   19.4831   -0.1505 H   0  0  0  0  0  0  0  0  0  0  0  0
   -0.4640   20.9180   -0.2270 H   0  0  0  0  0  0  0  0  0  0  0  0
   -1.6696   17.0215    1.8486 H   0  0  0  0  0  0  0  0  0  0  0  0
   -2.6002   17.3916    0.3574 H   0  0  0  0  0  0  0  0  0  0  0  0
   -1.3971   16.0577    0.3574 H   0  0  0  0  0  0  0  0  0  0  0  0
   -0.4124   18.2238    2.4813 H   0  0  0  0  0  0  0  0  0  0  0  0
    1.0514   18.8035    1.6165 H   0  0  0  0  0  0  0  0  0  0  0  0
   -0.4445   19.7979    1.6165 H   0  0  0  0  0  0  0  0  0  0  0  0
    2.8813   17.5761   -2.6069 H   0  0  0  0  0  0  0  0  0  0  0  0
    3.0360   16.4090   -3.9636 H   0  0  0  0  0  0  0  0  0  0  0  0
    1.7047   17.6149   -3.9636 H   0  0  0  0  0  0  0  0  0  0  0  0
   -0.1172   15.5131   -4.0534 H   0  0  0  0  0  0  0  0  0  0  0  0
    1.5793   14.8542   -4.4019 H   0  0  0  0  0  0  0  0  0  0  0  0
   -0.5187   13.6775   -2.5581 H   0  0  0  0  0  0  0  0  0  0  0  0
    0.1415   12.9969   -4.0972 H   0  0  0  0  0  0  0  0  0  0  0  0
    3.6386   12.6324   -2.8187 H   0  0  0  0  0  0  0  0  0  0  0  0
    2.5601   11.8716   -4.0371 H   0  0  0  0  0  0  0  0  0  0  0  0
    2.8002   13.6518   -4.0371 H   0  0  0  0  0  0  0  0  0  0  0  0
  1  2  1  0
  2  3  1  0
  3  4  1  0
  4  5  1  0
  5  6  1  0
  6  7  1  0
  7  8  1  0
  7  9  1  0
  2 10  1  0
 10 11  1  0
 11 12  1  0
 12 13  1  0
 13 14  1  1
 13 15  1  0
 15 16  1  0
 16 17  1  0
 17 18  2  0
 18 19  1  0
 19 20  1  0
 20 21  1  0
 21 22  1  0
 22 23  1  0
 22 24  1  0
 24 25  1  0
 24 26  1  0
 19 27  1  0
 27 28  1  6
 27 29  1  0
 29 30  1  0
 30 31  1  0
 31 32  1  6
  7  5  1  0
 31 10  1  0
 31 13  1  0
 27 15  1  0
 24 18  1  0
  1 33  1  0
  1 34  1  0
  1 35  1  0
  2 36  1  6
  3 37  1  0
  3 38  1  0
  4 39  1  0
  4 40  1  0
  5 41  1  1
  8 42  1  0
  8 43  1  0
  8 44  1  0
  9 45  1  0
  9 46  1  0
  9 47  1  0
 10 48  1  1
 11 49  1  0
 11 50  1  0
 12 51  1  0
 12 52  1  0
 14 53  1  0
 14 54  1  0
 14 55  1  0
 15 56  1  6
 16 57  1  0
 16 58  1  0
 17 59  1  0
 19 60  1  1
 20 61  1  0
 20 62  1  0
 21 63  1  0
 21 64  1  0
 22 65  1  1
 23 66  1  0
 25 67  1  0
 25 68  1  0
 25 69  1  0
 26 70  1  0
 26 71  1  0
 26 72  1  0
 28 73  1  0
 28 74  1  0
 28 75  1  0
 29 76  1  0
 29 77  1  0
 30 78  1  0
 30 79  1  0
 32 80  1  0
 32 81  1  0
 32 82  1  0
M  END
>  <meeko>  (14) 
{"is_sidechain": [false], "intermolecular_energy": 2.731, "internal_energy": -0.839}

$$$$
EPH_relaxed_0001_pdb2pqr_Repair_242_r2_0001_out
     RDKit          3D

 82 86  0  0  0  0  0  0  0  0999 V2000
   -2.2120    7.8360   -2.0710 C   0  0  0  0  0  0  0  0  0  0  0  0
   -2.2410    8.4820   -0.6830 C   0  0  2  0  0  0  0  0  0  0  0  0
   -3.6580    8.4890   -0.0750 C   0  0  0  0  0  0  0  0  0  0  0  0
   -4.7680    8.7100   -1.1050 C   0  0  0  0  0  0  0  0  0  0  0  0
   -5.8960    7.7400   -0.9210 C   0  0  2  0  0  0  0  0  0  0  0  0
   -5.4950    6.3680   -0.8190 O   0  0  0  0  0  0  0  0  0  0  0  0
   -6.2930    6.7110   -1.9630 C   0  0  0  0  0  0  0  0  0  0  0  0
   -5.5670    6.6010   -3.2670 C   0  0  0  0  0  0  0  0  0  0  0  0
   -7.6800    6.1490   -1.9210 C   0  0  0  0  0  0  0  0  0  0  0  0
   -1.7010    9.9060   -0.7620 C   0  0  1  0  0  0  0  0  0  0  0  0
   -1.2450   10.4490    0.6190 C   0  0  0  0  0  0  0  0  0  0  0  0
   -0.0170   11.3580    0.3580 C   0  0  0  0  0  0  0  0  0  0  0  0
   -0.0090   11.5740   -1.1730 C   0  0  1  0  0  0  0  0  0  0  0  0
   -1.0570   12.7040   -1.4240 C   0  0  0  0  0  0  0  0  0  0  0  0
    1.3740   11.9170   -1.8160 C   0  0  2  0  0  0  0  0  0  0  0  0
    2.0080   13.2350   -1.3370 C   0  0  0  0  0  0  0  0  0  0  0  0
    1.6520   14.4430   -2.1390 C   0  0  0  0  0  0  0  0  0  0  0  0
    1.0890   14.4320   -3.3610 C   0  0  0  0  0  0  0  0  0  0  0  0
    0.8440   13.1120   -4.1040 C   0  0  1  0  0  0  0  0  0  0  0  0
    1.3270   13.2460   -5.5720 C   0  0  0  0  0  0  0  0  0  0  0  0
    0.7040   14.4420   -6.2860 C   0  0  0  0  0  0  0  0  0  0  0  0
    1.0200   15.7410   -5.5500 C   0  0  2  0  0  0  0  0  0  0  0  0
    2.4250   15.9920   -5.6390 O   0  0  0  0  0  0  0  0  0  0  0  0
    0.5860   15.7210   -4.0570 C   0  0  0  0  0  0  0  0  0  0  0  0
   -0.9590   15.7520   -3.9640 C   0  0  0  0  0  0  0  0  0  0  0  0
    1.0880   17.0330   -3.3960 C   0  0  0  0  0  0  0  0  0  0  0  0
    1.4010   11.8040   -3.3950 C   0  0  1  0  0  0  0  0  0  0  0  0
    2.8890   11.5720   -3.7990 C   0  0  0  0  0  0  0  0  0  0  0  0
    0.6000   10.5540   -3.9180 C   0  0  0  0  0  0  0  0  0  0  0  0
   -0.6960   10.1950   -3.1670 C   0  0  0  0  0  0  0  0  0  0  0  0
   -0.4580   10.1460   -1.6540 C   0  0  2  0  0  0  0  0  0  0  0  0
    0.5760    9.0040   -1.3700 C   0  0  0  0  0  0  0  0  0  0  0  0
   -2.1629    6.7422   -1.9654 H   0  0  0  0  0  0  0  0  0  0  0  0
   -3.1234    8.1106   -2.6224 H   0  0  0  0  0  0  0  0  0  0  0  0
   -1.3289    8.1912   -2.6224 H   0  0  0  0  0  0  0  0  0  0  0  0
   -1.6018    7.8774   -0.0228 H   0  0  0  0  0  0  0  0  0  0  0  0
   -3.8293    7.5206    0.4178 H   0  0  0  0  0  0  0  0  0  0  0  0
   -3.7012    9.3321    0.6302 H   0  0  0  0  0  0  0  0  0  0  0  0
   -5.1565    9.7334   -0.9964 H   0  0  0  0  0  0  0  0  0  0  0  0
   -4.3419    8.5545   -2.1071 H   0  0  0  0  0  0  0  0  0  0  0  0
   -6.4787    8.4875   -0.3627 H   0  0  0  0  0  0  0  0  0  0  0  0
   -4.4957    6.4387   -3.0776 H   0  0  0  0  0  0  0  0  0  0  0  0
   -5.9704    5.7537   -3.8409 H   0  0  0  0  0  0  0  0  0  0  0  0
   -5.7013    7.5297   -3.8409 H   0  0  0  0  0  0  0  0  0  0  0  0
   -7.9927    6.0223   -0.8740 H   0  0  0  0  0  0  0  0  0  0  0  0
   -8.3705    6.8383   -2.4291 H   0  0  0  0  0  0  0  0  0  0  0  0
   -7.6959    5.1735   -2.4291 H   0  0  0  0  0  0  0  0  0  0  0  0
   -2.5771   10.4124   -1.1933 H   0  0  0  0  0  0  0  0  0  0  0  0
   -2.0549   11.0305    1.0837 H   0  0  0  0  0  0  0  0  0  0  0  0
   -0.9893    9.6259    1.3025 H   0  0  0  0  0  0  0  0  0  0  0  0
   -0.1253   12.3175    0.8849 H   0  0  0  0  0  0  0  0  0  0  0  0
    0.9191   10.9082    0.7204 H   0  0  0  0  0  0  0  0  0  0  0  0
   -1.4165   13.0916   -0.4593 H   0  0  0  0  0  0  0  0  0  0  0  0
   -0.5879   13.5190   -1.9947 H   0  0  0  0  0  0  0  0  0  0  0  0
   -1.9049   12.2975   -1.9947 H   0  0  0  0  0  0  0  0  0  0  0  0
    2.0195   11.1158   -1.4268 H   0  0  0  0  0  0  0  0  0  0  0  0
    1.6868   13.4092   -0.2995 H   0  0  0  0  0  0  0  0  0  0  0  0
    3.0950   13.1069   -1.4464 H   0  0  0  0  0  0  0  0  0  0  0  0
    1.8683   15.4250   -1.6931 H   0  0  0  0  0  0  0  0  0  0  0  0
   -0.2436   12.9488   -4.0830 H   0  0  0  0  0  0  0  0  0  0  0  0
    2.4206   13.3646   -5.5740 H   0  0  0  0  0  0  0  0  0  0  0  0
    1.0173   12.3377   -6.1097 H   0  0  0  0  0  0  0  0  0  0  0  0
    1.1058   14.5004   -7.3083 H   0  0  0  0  0  0  0  0  0  0  0  0
   -0.3875   14.3079   -6.3092 H   0  0  0  0  0  0  0  0  0  0  0  0
    0.4423   16.5424   -6.0338 H   0  0  0  0  0  0  0  0  0  0  0  0
    2.8870   15.1870   -5.3500 H   0  0  0  0  0  0  0  0  0  0  0  0
   -1.2626   15.7581   -2.9068 H   0  0  0  0  0  0  0  0  0  0  0  0
   -1.3381   16.6579   -4.4596 H   0  0  0  0  0  0  0  0  0  0  0  0
   -1.3741   14.8620   -4.4596 H   0  0  0  0  0  0  0  0  0  0  0  0
    1.0488   16.9305   -2.3015 H   0  0  0  0  0  0  0  0  0  0  0  0
    2.1243   17.2281   -3.7091 H   0  0  0  0  0  0  0  0  0  0  0  0
    0.4466   17.8700   -3.7091 H   0  0  0  0  0  0  0  0  0  0  0  0
    3.5044   11.4760   -2.8923 H   0  0  0  0  0  0  0  0  0  0  0  0
    2.9678   10.6507   -4.3948 H   0  0  0  0  0  0  0  0  0  0  0  0
    3.2445   12.4256   -4.3948 H   0  0  0  0  0  0  0  0  0  0  0  0
    0.3340   10.7450   -4.9681 H   0  0  0  0  0  0  0  0  0  0  0  0
    1.2706    9.6963   -3.7606 H   0  0  0  0  0  0  0  0  0  0  0  0
   -1.4611   10.9543   -3.3864 H   0  0  0  0  0  0  0  0  0  0  0  0
   -1.0315    9.2022   -3.5015 H   0  0  0  0  0  0  0  0  0  0  0  0
    0.6918    8.8761   -0.2836 H   0  0  0  0  0  0  0  0  0  0  0  0
    0.2153    8.0642   -1.8135 H   0  0  0  0  0  0  0  0  0  0  0  0
    1.5469    9.2698   -1.8135 H   0  0  0  0  0  0  0  0  0  0  0  0
  1  2  1  0
  2  3  1  0
  3  4  1  0
  4  5  1  0
  5  6  1  0
  6  7  1  0
  7  8  1  0
  7  9  1  0
  2 10  1  0
 10 11  1  0
 11 12  1  0
 12 13  1  0
 13 14  1  1
 13 15  1  0
 15 16  1  0
 16 17  1  0
 17 18  2  0
 18 19  1  0
 19 20  1  0
 20 21  1  0
 21 22  1  0
 22 23  1  0
 22 24  1  0
 24 25  1  0
 24 26  1  0
 19 27  1  0
 27 28  1  6
 27 29  1  0
 29 30  1  0
 30 31  1  0
 31 32  1  6
  7  5  1  0
 31 10  1  0
 31 13  1  0
 27 15  1  0
 24 18  1  0
  1 33  1  0
  1 34  1  0
  1 35  1  0
  2 36  1  1
  3 37  1  0
  3 38  1  0
  4 39  1  0
  4 40  1  0
  5 41  1  1
  8 42  1  0
  8 43  1  0
  8 44  1  0
  9 45  1  0
  9 46  1  0
  9 47  1  0
 10 48  1  6
 11 49  1  0
 11 50  1  0
 12 51  1  0
 12 52  1  0
 14 53  1  0
 14 54  1  0
 14 55  1  0
 15 56  1  1
 16 57  1  0
 16 58  1  0
 17 59  1  0
 19 60  1  6
 20 61  1  0
 20 62  1  0
 21 63  1  0
 21 64  1  0
 22 65  1  6
 23 66  1  0
 25 67  1  0
 25 68  1  0
 25 69  1  0
 26 70  1  0
 26 71  1  0
 26 72  1  0
 28 73  1  0
 28 74  1  0
 28 75  1  0
 29 76  1  0
 29 77  1  0
 30 78  1  0
 30 79  1  0
 32 80  1  0
 32 81  1  0
 32 82  1  0
M  END
>  <meeko>  (15) 
{"is_sidechain": [false], "intermolecular_energy": 2.731, "internal_energy": -0.839}

$$$$
EPH_relaxed_0001_pdb2pqr_Repair_242_r2_0001_out
     RDKit          3D

 82 86  0  0  0  0  0  0  0  0999 V2000
    0.8320   18.9750   -2.6000 C   0  0  0  0  0  0  0  0  0  0  0  0
    0.3750   18.0160   -1.4980 C   0  0  2  0  0  0  0  0  0  0  0  0
    0.9600   18.3920   -0.1210 C   0  0  0  0  0  0  0  0  0  0  0  0
    1.9630   19.5480   -0.1740 C   0  0  0  0  0  0  0  0  0  0  0  0
    2.7820   19.6290    1.0790 C   0  0  2  0  0  0  0  0  0  0  0  0
    4.0900   20.1870    0.9030 O   0  0  0  0  0  0  0  0  0  0  0  0
    4.0380   18.8100    1.3110 C   0  0  0  0  0  0  0  0  0  0  0  0
    4.5460   17.8500    0.2810 C   0  0  0  0  0  0  0  0  0  0  0  0
    4.4920   18.5810    2.7190 C   0  0  0  0  0  0  0  0  0  0  0  0
    0.7670   16.5870   -1.8570 C   0  0  1  0  0  0  0  0  0  0  0  0
    2.2170   16.4840   -2.4000 C   0  0  0  0  0  0  0  0  0  0  0  0
    2.7860   15.1300   -1.9020 C   0  0  0  0  0  0  0  0  0  0  0  0
    1.5530   14.3580   -1.3780 C   0  0  1  0  0  0  0  0  0  0  0  0
    0.8870   13.7530   -2.6530 C   0  0  0  0  0  0  0  0  0  0  0  0
    1.8320   13.2630   -0.2980 C   0  0  2  0  0  0  0  0  0  0  0  0
    2.7240   12.0990   -0.7630 C   0  0  0  0  0  0  0  0  0  0  0  0
    1.9980   10.9350   -1.3510 C   0  0  0  0  0  0  0  0  0  0  0  0
    0.6770   10.7010   -1.2430 C   0  0  0  0  0  0  0  0  0  0  0  0
   -0.2160   11.6080   -0.3860 C   0  0  1  0  0  0  0  0  0  0  0  0
   -1.1400   10.7340    0.5020 C   0  0  0  0  0  0  0  0  0  0  0  0
   -1.9440    9.7220   -0.3090 C   0  0  0  0  0  0  0  0  0  0  0  0
   -1.0200    8.8010   -1.1020 C   0  0  2  0  0  0  0  0  0  0  0  0
   -0.2830    7.9870   -0.1850 O   0  0  0  0  0  0  0  0  0  0  0  0
   -0.0350    9.5700   -2.0260 C   0  0  0  0  0  0  0  0  0  0  0  0
   -0.8150   10.2100   -3.2010 C   0  0  0  0  0  0  0  0  0  0  0  0
    0.9330    8.5340   -2.6600 C   0  0  0  0  0  0  0  0  0  0  0  0
    0.5350   12.7370    0.4420 C   0  0  1  0  0  0  0  0  0  0  0  0
    1.0060   12.1670    1.8150 C   0  0  0  0  0  0  0  0  0  0  0  0
   -0.4790   13.8970    0.7670 C   0  0  0  0  0  0  0  0  0  0  0  0
   -0.6220   15.0110   -0.2870 C   0  0  0  0  0  0  0  0  0  0  0  0
    0.7510   15.5370   -0.7170 C   0  0  2  0  0  0  0  0  0  0  0  0
    1.4360   16.1720    0.5410 C   0  0  0  0  0  0  0  0  0  0  0  0
    1.2627   19.8788   -2.1442 H   0  0  0  0  0  0  0  0  0  0  0  0
    1.5917   18.4813   -3.2239 H   0  0  0  0  0  0  0  0  0  0  0  0
   -0.0299   19.2541   -3.2239 H   0  0  0  0  0  0  0  0  0  0  0  0
   -0.7197   18.0945   -1.4245 H   0  0  0  0  0  0  0  0  0  0  0  0
    0.1309   18.6815    0.5414 H   0  0  0  0  0  0  0  0  0  0  0  0
    1.5041   17.5105    0.2490 H   0  0  0  0  0  0  0  0  0  0  0  0
    2.6361   19.3970   -1.0308 H   0  0  0  0  0  0  0  0  0  0  0  0
    1.3992   20.4869   -0.2766 H   0  0  0  0  0  0  0  0  0  0  0  0
    1.8792   19.7835    1.6881 H   0  0  0  0  0  0  0  0  0  0  0  0
    5.0042   16.9841    0.7812 H   0  0  0  0  0  0  0  0  0  0  0  0
    3.7097   17.5101   -0.3476 H   0  0  0  0  0  0  0  0  0  0  0  0
    5.2974   18.3503   -0.3476 H   0  0  0  0  0  0  0  0  0  0  0  0
    3.7323   18.9642    3.4161 H   0  0  0  0  0  0  0  0  0  0  0  0
    4.6342   17.5034    2.8877 H   0  0  0  0  0  0  0  0  0  0  0  0
    5.4431   19.1072    2.8877 H   0  0  0  0  0  0  0  0  0  0  0  0
   -0.0205   16.3586   -2.5903 H   0  0  0  0  0  0  0  0  0  0  0  0
    2.2126   16.5116   -3.4996 H   0  0  0  0  0  0  0  0  0  0  0  0
    2.8318   17.3248   -2.0465 H   0  0  0  0  0  0  0  0  0  0  0  0
    3.2648   14.5828   -2.7274 H   0  0  0  0  0  0  0  0  0  0  0  0
    3.5564   15.2607   -1.1278 H   0  0  0  0  0  0  0  0  0  0  0  0
    0.1033   13.0411   -2.3546 H   0  0  0  0  0  0  0  0  0  0  0  0
    0.4402   14.5605   -3.2516 H   0  0  0  0  0  0  0  0  0  0  0  0
    1.6480   13.2309   -3.2516 H   0  0  0  0  0  0  0  0  0  0  0  0
    2.4245   13.8136    0.4475 H   0  0  0  0  0  0  0  0  0  0  0  0
    3.4185   12.4857   -1.5233 H   0  0  0  0  0  0  0  0  0  0  0  0
    3.2255   11.7204    0.1399 H   0  0  0  0  0  0  0  0  0  0  0  0
    2.5932   10.2065   -1.9211 H   0  0  0  0  0  0  0  0  0  0  0  0
   -0.8220   12.1941   -1.0925 H   0  0  0  0  0  0  0  0  0  0  0  0
   -0.5189   10.1899    1.2288 H   0  0  0  0  0  0  0  0  0  0  0  0
   -1.8544   11.4045    1.0020 H   0  0  0  0  0  0  0  0  0  0  0  0
   -2.5552    9.1159    0.3759 H   0  0  0  0  0  0  0  0  0  0  0  0
   -2.5858   10.2686   -1.0156 H   0  0  0  0  0  0  0  0  0  0  0  0
   -1.6519    8.1861   -1.7597 H   0  0  0  0  0  0  0  0  0  0  0  0
   -0.7650    7.9840    0.6590 H   0  0  0  0  0  0  0  0  0  0  0  0
   -1.6079   10.8606   -2.8035 H   0  0  0  0  0  0  0  0  0  0  0  0
   -0.1258   10.8063   -3.8170 H   0  0  0  0  0  0  0  0  0  0  0  0
   -1.2652    9.4176   -3.8170 H   0  0  0  0  0  0  0  0  0  0  0  0
    1.4505    7.9801   -1.8629 H   0  0  0  0  0  0  0  0  0  0  0  0
    0.3608    7.8309   -3.2831 H   0  0  0  0  0  0  0  0  0  0  0  0
    1.6733    9.0573   -3.2831 H   0  0  0  0  0  0  0  0  0  0  0  0
    0.5351   12.7369    2.6296 H   0  0  0  0  0  0  0  0  0  0  0  0
    0.7152   11.1089    1.8920 H   0  0  0  0  0  0  0  0  0  0  0  0
    2.0999   12.2531    1.8920 H   0  0  0  0  0  0  0  0  0  0  0  0
   -1.4708   13.4423    0.9071 H   0  0  0  0  0  0  0  0  0  0  0  0
   -0.0698   14.3953    1.6582 H   0  0  0  0  0  0  0  0  0  0  0  0
   -1.1453   14.6090   -1.1671 H   0  0  0  0  0  0  0  0  0  0  0  0
   -1.1935   15.8408    0.1544 H   0  0  0  0  0  0  0  0  0  0  0  0
    0.9857   15.7545    1.4536 H   0  0  0  0  0  0  0  0  0  0  0  0
    2.5122   15.9450    0.5263 H   0  0  0  0  0  0  0  0  0  0  0  0
    1.2910   17.2623    0.5263 H   0  0  0  0  0  0  0  0  0  0  0  0
  1  2  1  0
  2  3  1  0
  3  4  1  0
  4  5  1  0
  5  6  1  0
  6  7  1  0
  7  8  1  0
  7  9  1  0
  2 10  1  0
 10 11  1  0
 11 12  1  0
 12 13  1  0
 13 14  1  6
 13 15  1  0
 15 16  1  0
 16 17  1  0
 17 18  2  0
 18 19  1  0
 19 20  1  0
 20 21  1  0
 21 22  1  0
 22 23  1  0
 22 24  1  0
 24 25  1  0
 24 26  1  0
 19 27  1  0
 27 28  1  1
 27 29  1  0
 29 30  1  0
 30 31  1  0
 31 32  1  1
  7  5  1  0
 31 10  1  0
 31 13  1  0
 27 15  1  0
 24 18  1  0
  1 33  1  0
  1 34  1  0
  1 35  1  0
  2 36  1  1
  3 37  1  0
  3 38  1  0
  4 39  1  0
  4 40  1  0
  5 41  1  1
  8 42  1  0
  8 43  1  0
  8 44  1  0
  9 45  1  0
  9 46  1  0
  9 47  1  0
 10 48  1  6
 11 49  1  0
 11 50  1  0
 12 51  1  0
 12 52  1  0
 14 53  1  0
 14 54  1  0
 14 55  1  0
 15 56  1  1
 16 57  1  0
 16 58  1  0
 17 59  1  0
 19 60  1  6
 20 61  1  0
 20 62  1  0
 21 63  1  0
 21 64  1  0
 22 65  1  6
 23 66  1  0
 25 67  1  0
 25 68  1  0
 25 69  1  0
 26 70  1  0
 26 71  1  0
 26 72  1  0
 28 73  1  0
 28 74  1  0
 28 75  1  0
 29 76  1  0
 29 77  1  0
 30 78  1  0
 30 79  1  0
 32 80  1  0
 32 81  1  0
 32 82  1  0
M  END
>  <meeko>  (16) 
{"is_sidechain": [false], "intermolecular_energy": 2.731, "internal_energy": -0.839}

$$$$
EPH_relaxed_0001_pdb2pqr_Repair_242_r2_0001_out
     RDKit          3D

 82 86  0  0  0  0  0  0  0  0999 V2000
    2.8850   11.3060   -5.2800 C   0  0  0  0  0  0  0  0  0  0  0  0
    1.8580   11.0180   -4.1820 C   0  0  2  0  0  0  0  0  0  0  0  0
    0.7420   10.0700   -4.6650 C   0  0  0  0  0  0  0  0  0  0  0  0
   -0.3490    9.8210   -3.6200 C   0  0  0  0  0  0  0  0  0  0  0  0
    0.1660    9.0230   -2.4600 C   0  0  2  0  0  0  0  0  0  0  0  0
   -0.6970    7.9600   -2.0350 O   0  0  0  0  0  0  0  0  0  0  0  0
   -0.4860    9.0220   -1.0900 C   0  0  0  0  0  0  0  0  0  0  0  0
   -1.7090    9.8370   -0.8070 C   0  0  0  0  0  0  0  0  0  0  0  0
    0.3380    8.6200    0.0940 C   0  0  0  0  0  0  0  0  0  0  0  0
    1.2520   12.3240   -3.6810 C   0  0  1  0  0  0  0  0  0  0  0  0
   -0.2880   12.2390   -3.5030 C   0  0  0  0  0  0  0  0  0  0  0  0
   -0.6450   13.1170   -2.2770 C   0  0  0  0  0  0  0  0  0  0  0  0
    0.6370   13.9360   -1.9960 C   0  0  1  0  0  0  0  0  0  0  0  0
    0.5900   15.1170   -3.0150 C   0  0  0  0  0  0  0  0  0  0  0  0
    0.8240   14.4450   -0.5300 C   0  0  2  0  0  0  0  0  0  0  0  0
   -0.2560   15.4240   -0.0370 C   0  0  0  0  0  0  0  0  0  0  0  0
    0.0340   16.8680   -0.2770 C   0  0  0  0  0  0  0  0  0  0  0  0
    1.2350   17.3810   -0.6060 C   0  0  0  0  0  0  0  0  0  0  0  0
    2.4810   16.4890   -0.6690 C   0  0  1  0  0  0  0  0  0  0  0  0
    3.6540   17.1840    0.0700 C   0  0  0  0  0  0  0  0  0  0  0  0
    3.9190   18.5940   -0.4480 C   0  0  0  0  0  0  0  0  0  0  0  0
    2.6740   19.4670   -0.3140 C   0  0  2  0  0  0  0  0  0  0  0  0
    2.3990   19.6670    1.0760 O   0  0  0  0  0  0  0  0  0  0  0  0
    1.4240   18.8630   -1.0130 C   0  0  0  0  0  0  0  0  0  0  0  0
    1.6050   18.9250   -2.5500 C   0  0  0  0  0  0  0  0  0  0  0  0
    0.2070   19.7690   -0.6820 C   0  0  0  0  0  0  0  0  0  0  0  0
    2.2780   14.9800   -0.2110 C   0  0  1  0  0  0  0  0  0  0  0  0
    2.4660   14.8640    1.3330 C   0  0  0  0  0  0  0  0  0  0  0  0
    3.4010   14.0890   -0.8630 C   0  0  0  0  0  0  0  0  0  0  0  0
    3.1070   13.5170   -2.2630 C   0  0  0  0  0  0  0  0  0  0  0  0
    1.7300   12.8480   -2.3040 C   0  0  2  0  0  0  0  0  0  0  0  0
    1.7530   11.6420   -1.3050 C   0  0  0  0  0  0  0  0  0  0  0  0
    3.8473   11.5758   -4.8204 H   0  0  0  0  0  0  0  0  0  0  0  0
    3.0154   10.4098   -5.9043 H   0  0  0  0  0  0  0  0  0  0  0  0
    2.5304   12.1393   -5.9043 H   0  0  0  0  0  0  0  0  0  0  0  0
    2.3860   10.5139   -3.3592 H   0  0  0  0  0  0  0  0  0  0  0  0
    0.2739   10.5109   -5.5575 H   0  0  0  0  0  0  0  0  0  0  0  0
    1.2137    9.0987   -4.8750 H   0  0  0  0  0  0  0  0  0  0  0  0
   -0.7169   10.7897   -3.2510 H   0  0  0  0  0  0  0  0  0  0  0  0
   -1.1575    9.2485   -4.0981 H   0  0  0  0  0  0  0  0  0  0  0  0
    1.2058    9.1817   -2.7819 H   0  0  0  0  0  0  0  0  0  0  0  0
   -1.8454    9.9279    0.2807 H   0  0  0  0  0  0  0  0  0  0  0  0
   -1.5922   10.8384   -1.2469 H   0  0  0  0  0  0  0  0  0  0  0  0
   -2.5883    9.3436   -1.2469 H   0  0  0  0  0  0  0  0  0  0  0  0
   -0.1972    8.8811    1.0189 H   0  0  0  0  0  0  0  0  0  0  0  0
    0.5144    7.5346    0.0664 H   0  0  0  0  0  0  0  0  0  0  0  0
    1.3021    9.1490    0.0664 H   0  0  0  0  0  0  0  0  0  0  0  0
    1.5898   13.0016   -4.4790 H   0  0  0  0  0  0  0  0  0  0  0  0
   -0.7949   12.6195   -4.4020 H   0  0  0  0  0  0  0  0  0  0  0  0
   -0.6114   11.1986   -3.3516 H   0  0  0  0  0  0  0  0  0  0  0  0
   -1.4885   13.7838   -2.5094 H   0  0  0  0  0  0  0  0  0  0  0  0
   -0.9540   12.5156   -1.4094 H   0  0  0  0  0  0  0  0  0  0  0  0
    0.5520   16.0711   -2.4689 H   0  0  0  0  0  0  0  0  0  0  0  0
    1.4899   15.0919   -3.6472 H   0  0  0  0  0  0  0  0  0  0  0  0
   -0.3050   15.0204   -3.6472 H   0  0  0  0  0  0  0  0  0  0  0  0
    0.6856   13.5263    0.0589 H   0  0  0  0  0  0  0  0  0  0  0  0
   -1.1977   15.1769   -0.5490 H   0  0  0  0  0  0  0  0  0  0  0  0
   -0.3022   15.3007    1.0551 H   0  0  0  0  0  0  0  0  0  0  0  0
   -0.8042   17.5732   -0.1767 H   0  0  0  0  0  0  0  0  0  0  0  0
    2.7244   16.3821   -1.7364 H   0  0  0  0  0  0  0  0  0  0  0  0
    3.4109   17.2419    1.1412 H   0  0  0  0  0  0  0  0  0  0  0  0
    4.5608   16.5873   -0.1080 H   0  0  0  0  0  0  0  0  0  0  0  0
    4.7379   19.0431    0.1331 H   0  0  0  0  0  0  0  0  0  0  0  0
    4.1916   18.5319   -1.5119 H   0  0  0  0  0  0  0  0  0  0  0  0
    2.8843   20.4216   -0.8186 H   0  0  0  0  0  0  0  0  0  0  0  0
    1.7380   20.3760    1.1450 H   0  0  0  0  0  0  0  0  0  0  0  0
    2.6215   19.2732   -2.7857 H   0  0  0  0  0  0  0  0  0  0  0  0
    1.4521   17.9232   -2.9779 H   0  0  0  0  0  0  0  0  0  0  0  0
    0.8700   19.6226   -2.9779 H   0  0  0  0  0  0  0  0  0  0  0  0
    0.0970   19.8509    0.4094 H   0  0  0  0  0  0  0  0  0  0  0  0
    0.3673   20.7694   -1.1105 H   0  0  0  0  0  0  0  0  0  0  0  0
   -0.7053   19.3285   -1.1105 H   0  0  0  0  0  0  0  0  0  0  0  0
    1.6365   15.3758    1.8429 H   0  0  0  0  0  0  0  0  0  0  0  0
    2.4754   13.8028    1.6225 H   0  0  0  0  0  0  0  0  0  0  0  0
    3.4187   15.3315    1.6225 H   0  0  0  0  0  0  0  0  0  0  0  0
    4.3110   14.7024   -0.9383 H   0  0  0  0  0  0  0  0  0  0  0  0
    3.4905   13.2114   -0.2059 H   0  0  0  0  0  0  0  0  0  0  0  0
    3.1317   14.3348   -2.9983 H   0  0  0  0  0  0  0  0  0  0  0  0
    3.8708   12.7620   -2.5008 H   0  0  0  0  0  0  0  0  0  0  0  0
    1.7458   12.0211   -0.2724 H   0  0  0  0  0  0  0  0  0  0  0  0
    0.8667   11.0118   -1.4705 H   0  0  0  0  0  0  0  0  0  0  0  0
    2.6627   11.0461   -1.4705 H   0  0  0  0  0  0  0  0  0  0  0  0
  1  2  1  0
  2  3  1  0
  3  4  1  0
  4  5  1  0
  5  6  1  0
  6  7  1  0
  7  8  1  0
  7  9  1  0
  2 10  1  0
 10 11  1  0
 11 12  1  0
 12 13  1  0
 13 14  1  6
 13 15  1  0
 15 16  1  0
 16 17  1  0
 17 18  2  0
 18 19  1  0
 19 20  1  0
 20 21  1  0
 21 22  1  0
 22 23  1  0
 22 24  1  0
 24 25  1  0
 24 26  1  0
 19 27  1  0
 27 28  1  1
 27 29  1  0
 29 30  1  0
 30 31  1  0
 31 32  1  1
  7  5  1  0
 31 10  1  0
 31 13  1  0
 27 15  1  0
 24 18  1  0
  1 33  1  0
  1 34  1  0
  1 35  1  0
  2 36  1  1
  3 37  1  0
  3 38  1  0
  4 39  1  0
  4 40  1  0
  5 41  1  1
  8 42  1  0
  8 43  1  0
  8 44  1  0
  9 45  1  0
  9 46  1  0
  9 47  1  0
 10 48  1  6
 11 49  1  0
 11 50  1  0
 12 51  1  0
 12 52  1  0
 14 53  1  0
 14 54  1  0
 14 55  1  0
 15 56  1  1
 16 57  1  0
 16 58  1  0
 17 59  1  0
 19 60  1  6
 20 61  1  0
 20 62  1  0
 21 63  1  0
 21 64  1  0
 22 65  1  6
 23 66  1  0
 25 67  1  0
 25 68  1  0
 25 69  1  0
 26 70  1  0
 26 71  1  0
 26 72  1  0
 28 73  1  0
 28 74  1  0
 28 75  1  0
 29 76  1  0
 29 77  1  0
 30 78  1  0
 30 79  1  0
 32 80  1  0
 32 81  1  0
 32 82  1  0
M  END
>  <meeko>  (17) 
{"is_sidechain": [false], "intermolecular_energy": 2.731, "internal_energy": -0.839}

$$$$
EPH_relaxed_0001_pdb2pqr_Repair_242_r2_0001_out
     RDKit          3D

 82 86  0  0  0  0  0  0  0  0999 V2000
    0.9820   14.8640   -2.6760 C   0  0  0  0  0  0  0  0  0  0  0  0
    1.2120   14.1810   -4.0270 C   0  0  2  0  0  0  0  0  0  0  0  0
    0.4880   14.9090   -5.1770 C   0  0  0  0  0  0  0  0  0  0  0  0
    1.0650   14.6010   -6.5610 C   0  0  0  0  0  0  0  0  0  0  0  0
    0.8510   15.7360   -7.5160 C   0  0  2  0  0  0  0  0  0  0  0  0
    0.3730   15.3470   -8.8110 O   0  0  0  0  0  0  0  0  0  0  0  0
    1.6800   15.9420   -8.7700 C   0  0  0  0  0  0  0  0  0  0  0  0
    2.7870   15.0030   -9.1370 C   0  0  0  0  0  0  0  0  0  0  0  0
    1.7380   17.3110   -9.3730 C   0  0  0  0  0  0  0  0  0  0  0  0
    0.7540   12.7290   -3.9600 C   0  0  1  0  0  0  0  0  0  0  0  0
    1.8820   11.7290   -4.3310 C   0  0  0  0  0  0  0  0  0  0  0  0
    1.6750   10.4730   -3.4460 C   0  0  0  0  0  0  0  0  0  0  0  0
    0.2620   10.6490   -2.8430 C   0  0  1  0  0  0  0  0  0  0  0  0
   -0.7150   10.1750   -3.9640 C   0  0  0  0  0  0  0  0  0  0  0  0
   -0.0090    9.9120   -1.4910 C   0  0  2  0  0  0  0  0  0  0  0  0
    0.0880    8.3770   -1.5540 C   0  0  0  0  0  0  0  0  0  0  0  0
   -1.1880    7.6700   -1.8720 C   0  0  0  0  0  0  0  0  0  0  0  0
   -2.4180    8.2140   -1.8190 C   0  0  0  0  0  0  0  0  0  0  0  0
   -2.6240    9.6470   -1.3120 C   0  0  1  0  0  0  0  0  0  0  0  0
   -3.8050    9.6760   -0.3060 C   0  0  0  0  0  0  0  0  0  0  0  0
   -5.0810    9.0720   -0.8850 C   0  0  0  0  0  0  0  0  0  0  0  0
   -4.8510    7.6280   -1.3240 C   0  0  2  0  0  0  0  0  0  0  0  0
   -4.5990    6.8290   -0.1650 O   0  0  0  0  0  0  0  0  0  0  0  0
   -3.6780    7.4740   -2.3320 C   0  0  0  0  0  0  0  0  0  0  0  0
   -4.0790    8.0870   -3.6960 C   0  0  0  0  0  0  0  0  0  0  0  0
   -3.4610    5.9570   -2.5840 C   0  0  0  0  0  0  0  0  0  0  0  0
   -1.3290   10.3780   -0.7520 C   0  0  1  0  0  0  0  0  0  0  0  0
   -1.1370   10.0380    0.7580 C   0  0  0  0  0  0  0  0  0  0  0  0
   -1.5420   11.9360   -0.8330 C   0  0  0  0  0  0  0  0  0  0  0  0
   -1.1430   12.6240   -2.1530 C   0  0  0  0  0  0  0  0  0  0  0  0
    0.2630   12.2010   -2.5890 C   0  0  2  0  0  0  0  0  0  0  0  0
    1.2700   12.6840   -1.4910 C   0  0  0  0  0  0  0  0  0  0  0  0
    1.2189   14.1604   -1.8644 H   0  0  0  0  0  0  0  0  0  0  0  0
    1.6321   15.7478   -2.5965 H   0  0  0  0  0  0  0  0  0  0  0  0
   -0.0703   15.1745   -2.5965 H   0  0  0  0  0  0  0  0  0  0  0  0
    2.2907   14.2214   -4.2383 H   0  0  0  0  0  0  0  0  0  0  0  0
   -0.5699   14.6078   -5.1670 H   0  0  0  0  0  0  0  0  0  0  0  0
    0.6192   15.9879   -5.0072 H   0  0  0  0  0  0  0  0  0  0  0  0
    2.1449   14.4157   -6.4638 H   0  0  0  0  0  0  0  0  0  0  0  0
    0.5474   13.7158   -6.9590 H   0  0  0  0  0  0  0  0  0  0  0  0
    0.5819   16.4110   -6.6902 H   0  0  0  0  0  0  0  0  0  0  0  0
    3.2519   14.6086   -8.2214 H   0  0  0  0  0  0  0  0  0  0  0  0
    2.3802   14.1703   -9.7296 H   0  0  0  0  0  0  0  0  0  0  0  0
    3.5421   15.5402   -9.7296 H   0  0  0  0  0  0  0  0  0  0  0  0
    1.7699   18.0637   -8.5714 H   0  0  0  0  0  0  0  0  0  0  0  0
    2.6407   17.3996   -9.9953 H   0  0  0  0  0  0  0  0  0  0  0  0
    0.8460   17.4756   -9.9953 H   0  0  0  0  0  0  0  0  0  0  0  0
   -0.0845   12.7671   -4.6709 H   0  0  0  0  0  0  0  0  0  0  0  0
    1.8134   11.4582   -5.3949 H   0  0  0  0  0  0  0  0  0  0  0  0
    2.8744   12.1723   -4.1617 H   0  0  0  0  0  0  0  0  0  0  0  0
    1.7267    9.5573   -4.0533 H   0  0  0  0  0  0  0  0  0  0  0  0
    2.4500   10.3763   -2.6713 H   0  0  0  0  0  0  0  0  0  0  0  0
   -1.6147    9.7385   -3.5058 H   0  0  0  0  0  0  0  0  0  0  0  0
   -1.0015   11.0343   -4.5882 H   0  0  0  0  0  0  0  0  0  0  0  0
   -0.2174    9.4181   -4.5882 H   0  0  0  0  0  0  0  0  0  0  0  0
    0.8374   10.2398   -0.8695 H   0  0  0  0  0  0  0  0  0  0  0  0
    0.8241    8.1144   -2.3280 H   0  0  0  0  0  0  0  0  0  0  0  0
    0.3745    8.0484   -0.5441 H   0  0  0  0  0  0  0  0  0  0  0  0
   -1.1168    6.6150   -2.1753 H   0  0  0  0  0  0  0  0  0  0  0  0
   -2.8728   10.2493   -2.1982 H   0  0  0  0  0  0  0  0  0  0  0  0
   -3.5194    9.1050    0.5898 H   0  0  0  0  0  0  0  0  0  0  0  0
   -4.0131   10.7290   -0.0653 H   0  0  0  0  0  0  0  0  0  0  0  0
   -5.8696    9.0939   -0.1185 H   0  0  0  0  0  0  0  0  0  0  0  0
   -5.3816    9.6622   -1.7632 H   0  0  0  0  0  0  0  0  0  0  0  0
   -5.7589    7.2928   -1.8469 H   0  0  0  0  0  0  0  0  0  0  0  0
   -5.4570    6.6260    0.2450 H   0  0  0  0  0  0  0  0  0  0  0  0
   -4.6741    8.9968   -3.5284 H   0  0  0  0  0  0  0  0  0  0  0  0
   -3.1723    8.3415   -4.2644 H   0  0  0  0  0  0  0  0  0  0  0  0
   -4.6755    7.3582   -4.2644 H   0  0  0  0  0  0  0  0  0  0  0  0
   -3.3859    5.4323   -1.6201 H   0  0  0  0  0  0  0  0  0  0  0  0
   -4.3108    5.5549   -3.1552 H   0  0  0  0  0  0  0  0  0  0  0  0
   -2.5326    5.8093   -3.1552 H   0  0  0  0  0  0  0  0  0  0  0  0
   -1.5856   10.8324    1.3726 H   0  0  0  0  0  0  0  0  0  0  0  0
   -1.6271    9.0793    0.9832 H   0  0  0  0  0  0  0  0  0  0  0  0
   -0.0629    9.9626    0.9832 H   0  0  0  0  0  0  0  0  0  0  0  0
   -2.6105   12.1351   -0.6637 H   0  0  0  0  0  0  0  0  0  0  0  0
   -0.8683   12.3586   -0.0730 H   0  0  0  0  0  0  0  0  0  0  0  0
   -1.8623   12.3436   -2.9366 H   0  0  0  0  0  0  0  0  0  0  0  0
   -1.1488   13.7128   -1.9965 H   0  0  0  0  0  0  0  0  0  0  0  0
    0.8502   12.4826   -0.4944 H   0  0  0  0  0  0  0  0  0  0  0  0
    2.2220   12.1445   -1.6037 H   0  0  0  0  0  0  0  0  0  0  0  0
    1.4451   13.7641   -1.6037 H   0  0  0  0  0  0  0  0  0  0  0  0
  1  2  1  0
  2  3  1  0
  3  4  1  0
  4  5  1  0
  5  6  1  0
  6  7  1  0
  7  8  1  0
  7  9  1  0
  2 10  1  0
 10 11  1  0
 11 12  1  0
 12 13  1  0
 13 14  1  6
 13 15  1  0
 15 16  1  0
 16 17  1  0
 17 18  2  0
 18 19  1  0
 19 20  1  0
 20 21  1  0
 21 22  1  0
 22 23  1  0
 22 24  1  0
 24 25  1  0
 24 26  1  0
 19 27  1  0
 27 28  1  1
 27 29  1  0
 29 30  1  0
 30 31  1  0
 31 32  1  1
  7  5  1  0
 31 10  1  0
 31 13  1  0
 27 15  1  0
 24 18  1  0
  1 33  1  0
  1 34  1  0
  1 35  1  0
  2 36  1  6
  3 37  1  0
  3 38  1  0
  4 39  1  0
  4 40  1  0
  5 41  1  1
  8 42  1  0
  8 43  1  0
  8 44  1  0
  9 45  1  0
  9 46  1  0
  9 47  1  0
 10 48  1  6
 11 49  1  0
 11 50  1  0
 12 51  1  0
 12 52  1  0
 14 53  1  0
 14 54  1  0
 14 55  1  0
 15 56  1  1
 16 57  1  0
 16 58  1  0
 17 59  1  0
 19 60  1  6
 20 61  1  0
 20 62  1  0
 21 63  1  0
 21 64  1  0
 22 65  1  6
 23 66  1  0
 25 67  1  0
 25 68  1  0
 25 69  1  0
 26 70  1  0
 26 71  1  0
 26 72  1  0
 28 73  1  0
 28 74  1  0
 28 75  1  0
 29 76  1  0
 29 77  1  0
 30 78  1  0
 30 79  1  0
 32 80  1  0
 32 81  1  0
 32 82  1  0
M  END
>  <meeko>  (18) 
{"is_sidechain": [false], "intermolecular_energy": 2.731, "internal_energy": -0.839}

$$$$
EPH_relaxed_0001_pdb2pqr_Repair_242_r2_0001_out
     RDKit          3D

 82 86  0  0  0  0  0  0  0  0999 V2000
   -2.4260    7.8080    0.0390 C   0  0  0  0  0  0  0  0  0  0  0  0
   -3.1200    9.1700   -0.0500 C   0  0  2  0  0  0  0  0  0  0  0  0
   -4.5840    9.0470   -0.5190 C   0  0  0  0  0  0  0  0  0  0  0  0
   -5.0710    7.6000   -0.6390 C   0  0  0  0  0  0  0  0  0  0  0  0
   -5.8780    7.3890   -1.8850 C   0  0  2  0  0  0  0  0  0  0  0  0
   -6.8030    8.4420   -2.1850 O   0  0  0  0  0  0  0  0  0  0  0  0
   -7.3770    7.1600   -1.8820 C   0  0  0  0  0  0  0  0  0  0  0  0
   -8.1600    7.1300   -0.6060 C   0  0  0  0  0  0  0  0  0  0  0  0
   -8.0010    6.4840   -3.0630 C   0  0  0  0  0  0  0  0  0  0  0  0
   -2.3470   10.0870   -0.9910 C   0  0  1  0  0  0  0  0  0  0  0  0
   -2.9870   11.4960   -1.1120 C   0  0  0  0  0  0  0  0  0  0  0  0
   -1.8200   12.5040   -1.2740 C   0  0  0  0  0  0  0  0  0  0  0  0
   -0.5830   11.6250   -1.5730 C   0  0  1  0  0  0  0  0  0  0  0  0
   -0.6810   11.3010   -3.0970 C   0  0  0  0  0  0  0  0  0  0  0  0
    0.8060   12.2370   -1.2020 C   0  0  2  0  0  0  0  0  0  0  0  0
    1.1770   13.5230   -1.9610 C   0  0  0  0  0  0  0  0  0  0  0  0
    1.9230   13.3180   -3.2380 C   0  0  0  0  0  0  0  0  0  0  0  0
    2.5300   12.1760   -3.6140 C   0  0  0  0  0  0  0  0  0  0  0  0
    2.5850   10.9660   -2.6730 C   0  0  1  0  0  0  0  0  0  0  0  0
    4.0260   10.3910   -2.6510 C   0  0  0  0  0  0  0  0  0  0  0  0
    4.5470   10.0680   -4.0480 C   0  0  0  0  0  0  0  0  0  0  0  0
    4.5320   11.3100   -4.9370 C   0  0  2  0  0  0  0  0  0  0  0  0
    5.4850   12.2500   -4.4320 O   0  0  0  0  0  0  0  0  0  0  0  0
    3.1330   11.9810   -5.0270 C   0  0  0  0  0  0  0  0  0  0  0  0
    2.1740   11.0800   -5.8440 C   0  0  0  0  0  0  0  0  0  0  0  0
    3.2870   13.2980   -5.8360 C   0  0  0  0  0  0  0  0  0  0  0  0
    1.9980   11.1950   -1.2140 C   0  0  1  0  0  0  0  0  0  0  0  0
    3.1040   11.7740   -0.2800 C   0  0  0  0  0  0  0  0  0  0  0  0
    1.5830    9.8050   -0.6020 C   0  0  0  0  0  0  0  0  0  0  0  0
    0.1560    9.3100   -0.9060 C   0  0  0  0  0  0  0  0  0  0  0  0
   -0.8760   10.4060   -0.6240 C   0  0  2  0  0  0  0  0  0  0  0  0
   -0.8160   10.7370    0.9060 C   0  0  0  0  0  0  0  0  0  0  0  0
   -2.2872    7.5356    1.0956 H   0  0  0  0  0  0  0  0  0  0  0  0
   -3.0464    7.0472   -0.4574 H   0  0  0  0  0  0  0  0  0  0  0  0
   -1.4459    7.8628   -0.4574 H   0  0  0  0  0  0  0  0  0  0  0  0
   -3.1329    9.6010    0.9619 H   0  0  0  0  0  0  0  0  0  0  0  0
   -5.2259    9.5709    0.2045 H   0  0  0  0  0  0  0  0  0  0  0  0
   -4.6383    9.4896   -1.5246 H   0  0  0  0  0  0  0  0  0  0  0  0
   -4.1983    6.9307   -0.6616 H   0  0  0  0  0  0  0  0  0  0  0  0
   -5.7129    7.3808    0.2270 H   0  0  0  0  0  0  0  0  0  0  0  0
   -5.0491    6.8410   -2.3568 H   0  0  0  0  0  0  0  0  0  0  0  0
   -7.4686    7.1565    0.2492 H   0  0  0  0  0  0  0  0  0  0  0  0
   -8.8277    8.0032   -0.5649 H   0  0  0  0  0  0  0  0  0  0  0  0
   -8.7589    6.2082   -0.5649 H   0  0  0  0  0  0  0  0  0  0  0  0
   -8.7088    5.7172   -2.7149 H   0  0  0  0  0  0  0  0  0  0  0  0
   -8.5363    7.2282   -3.6709 H   0  0  0  0  0  0  0  0  0  0  0  0
   -7.2164    6.0098   -3.6709 H   0  0  0  0  0  0  0  0  0  0  0  0
   -2.3826    9.4816   -1.9087 H   0  0  0  0  0  0  0  0  0  0  0  0
   -3.6484   11.5377   -1.9900 H   0  0  0  0  0  0  0  0  0  0  0  0
   -3.5932   11.7323   -0.2251 H   0  0  0  0  0  0  0  0  0  0  0  0
   -2.0163   13.1944   -2.1075 H   0  0  0  0  0  0  0  0  0  0  0  0
   -1.6812   13.1284   -0.3791 H   0  0  0  0  0  0  0  0  0  0  0  0
   -0.9971   10.2558   -3.2301 H   0  0  0  0  0  0  0  0  0  0  0  0
   -1.4171   11.9695   -3.5674 H   0  0  0  0  0  0  0  0  0  0  0  0
    0.3022   11.4494   -3.5674 H   0  0  0  0  0  0  0  0  0  0  0  0
    0.6571   12.5404   -0.1552 H   0  0  0  0  0  0  0  0  0  0  0  0
    0.2460   14.0606   -2.1939 H   0  0  0  0  0  0  0  0  0  0  0  0
    1.8551   14.0817   -1.2992 H   0  0  0  0  0  0  0  0  0  0  0  0
    1.9818   14.1712   -3.9298 H   0  0  0  0  0  0  0  0  0  0  0  0
    1.8927   10.2223   -3.0945 H   0  0  0  0  0  0  0  0  0  0  0  0
    4.6944   11.1316   -2.1876 H   0  0  0  0  0  0  0  0  0  0  0  0
    4.0029    9.4527   -2.0774 H   0  0  0  0  0  0  0  0  0  0  0  0
    5.5784    9.6936   -3.9699 H   0  0  0  0  0  0  0  0  0  0  0  0
    3.8942    9.3059   -4.4986 H   0  0  0  0  0  0  0  0  0  0  0  0
    4.7926   10.9896   -5.9565 H   0  0  0  0  0  0  0  0  0  0  0  0
    6.2550   12.2350   -5.0260 H   0  0  0  0  0  0  0  0  0  0  0  0
    1.5483   10.4921   -5.1563 H   0  0  0  0  0  0  0  0  0  0  0  0
    1.5313   11.7086   -6.4779 H   0  0  0  0  0  0  0  0  0  0  0  0
    2.7613   10.3994   -6.4779 H   0  0  0  0  0  0  0  0  0  0  0  0
    3.3861   14.1454   -5.1416 H   0  0  0  0  0  0  0  0  0  0  0  0
    4.1841   13.2363   -6.4696 H   0  0  0  0  0  0  0  0  0  0  0  0
    2.3999   13.4450   -6.4696 H   0  0  0  0  0  0  0  0  0  0  0  0
    2.8137   11.6220    0.7701 H   0  0  0  0  0  0  0  0  0  0  0  0
    4.0559   11.2585   -0.4755 H   0  0  0  0  0  0  0  0  0  0  0  0
    3.2228   12.8499   -0.4755 H   0  0  0  0  0  0  0  0  0  0  0  0
    2.2856    9.0500   -0.9845 H   0  0  0  0  0  0  0  0  0  0  0  0
    1.6109    9.9507    0.4880 H   0  0  0  0  0  0  0  0  0  0  0  0
    0.0935    9.0208   -1.9655 H   0  0  0  0  0  0  0  0  0  0  0  0
   -0.0618    8.4481   -0.2582 H   0  0  0  0  0  0  0  0  0  0  0  0
   -0.9826    9.8178    1.4868 H   0  0  0  0  0  0  0  0  0  0  0  0
    0.1721   11.1526    1.1528 H   0  0  0  0  0  0  0  0  0  0  0  0
   -1.5954   11.4730    1.1528 H   0  0  0  0  0  0  0  0  0  0  0  0
  1  2  1  0
  2  3  1  0
  3  4  1  0
  4  5  1  0
  5  6  1  0
  6  7  1  0
  7  8  1  0
  7  9  1  0
  2 10  1  0
 10 11  1  0
 11 12  1  0
 12 13  1  0
 13 14  1  6
 13 15  1  0
 15 16  1  0
 16 17  1  0
 17 18  2  0
 18 19  1  0
 19 20  1  0
 20 21  1  0
 21 22  1  0
 22 23  1  0
 22 24  1  0
 24 25  1  0
 24 26  1  0
 19 27  1  0
 27 28  1  1
 27 29  1  0
 29 30  1  0
 30 31  1  0
 31 32  1  1
  7  5  1  0
 31 10  1  0
 31 13  1  0
 27 15  1  0
 24 18  1  0
  1 33  1  0
  1 34  1  0
  1 35  1  0
  2 36  1  1
  3 37  1  0
  3 38  1  0
  4 39  1  0
  4 40  1  0
  5 41  1  6
  8 42  1  0
  8 43  1  0
  8 44  1  0
  9 45  1  0
  9 46  1  0
  9 47  1  0
 10 48  1  6
 11 49  1  0
 11 50  1  0
 12 51  1  0
 12 52  1  0
 14 53  1  0
 14 54  1  0
 14 55  1  0
 15 56  1  1
 16 57  1  0
 16 58  1  0
 17 59  1  0
 19 60  1  6
 20 61  1  0
 20 62  1  0
 21 63  1  0
 21 64  1  0
 22 65  1  6
 23 66  1  0
 25 67  1  0
 25 68  1  0
 25 69  1  0
 26 70  1  0
 26 71  1  0
 26 72  1  0
 28 73  1  0
 28 74  1  0
 28 75  1  0
 29 76  1  0
 29 77  1  0
 30 78  1  0
 30 79  1  0
 32 80  1  0
 32 81  1  0
 32 82  1  0
M  END
>  <meeko>  (19) 
{"is_sidechain": [false], "intermolecular_energy": 2.731, "internal_energy": -0.839}

$$$$
