EPH_relaxed_0001_pdb2pqr_Repair_346_r2_0001_out
     RDKit          3D

 82 86  0  0  0  0  0  0  0  0999 V2000
   -1.4840    8.4040   -1.8840 C   0  0  0  0  0  0  0  0  0  0  0  0
   -1.8240    8.9760   -0.5050 C   0  0  2  0  0  0  0  0  0  0  0  0
   -3.3050    9.3930   -0.3980 C   0  0  0  0  0  0  0  0  0  0  0  0
   -4.2720    8.2110   -0.3010 C   0  0  0  0  0  0  0  0  0  0  0  0
   -4.9970    7.9810   -1.5930 C   0  0  2  0  0  0  0  0  0  0  0  0
   -6.2490    8.6700   -1.7070 O   0  0  0  0  0  0  0  0  0  0  0  0
   -6.3150    7.2350   -1.6900 C   0  0  0  0  0  0  0  0  0  0  0  0
   -6.9840    6.6700   -0.4760 C   0  0  0  0  0  0  0  0  0  0  0  0
   -6.7010    6.6340   -3.0060 C   0  0  0  0  0  0  0  0  0  0  0  0
   -0.9240   10.1680   -0.2010 C   0  0  1  0  0  0  0  0  0  0  0  0
    0.2340    9.8100    0.7680 C   0  0  0  0  0  0  0  0  0  0  0  0
    1.4590   10.6560    0.3330 C   0  0  0  0  0  0  0  0  0  0  0  0
    0.8810   11.7050   -0.6450 C   0  0  1  0  0  0  0  0  0  0  0  0
    0.2780   12.8170    0.2690 C   0  0  0  0  0  0  0  0  0  0  0  0
    1.8790   12.2970   -1.6930 C   0  0  2  0  0  0  0  0  0  0  0  0
    3.0620   13.0800   -1.0960 C   0  0  0  0  0  0  0  0  0  0  0  0
    2.8280   14.5430   -0.9100 C   0  0  0  0  0  0  0  0  0  0  0  0
    1.8290   15.2530   -1.4650 C   0  0  0  0  0  0  0  0  0  0  0  0
    0.8580   14.6010   -2.4580 C   0  0  1  0  0  0  0  0  0  0  0  0
    0.6780   15.5280   -3.6900 C   0  0  0  0  0  0  0  0  0  0  0  0
    0.2550   16.9410   -3.3020 C   0  0  0  0  0  0  0  0  0  0  0  0
    1.2740   17.5770   -2.3600 C   0  0  2  0  0  0  0  0  0  0  0  0
    2.4980   17.7770   -3.0740 O   0  0  0  0  0  0  0  0  0  0  0  0
    1.5450   16.7270   -1.0870 C   0  0  0  0  0  0  0  0  0  0  0  0
    0.3020   16.7620   -0.1640 C   0  0  0  0  0  0  0  0  0  0  0  0
    2.6930   17.4090   -0.2940 C   0  0  0  0  0  0  0  0  0  0  0  0
    1.1860   13.1010   -2.8660 C   0  0  1  0  0  0  0  0  0  0  0  0
    2.1800   13.0810   -4.0670 C   0  0  0  0  0  0  0  0  0  0  0  0
   -0.1330   12.4050   -3.3710 C   0  0  0  0  0  0  0  0  0  0  0  0
   -1.0170   11.7340   -2.3020 C   0  0  0  0  0  0  0  0  0  0  0  0
   -0.1850   10.8240   -1.3940 C   0  0  2  0  0  0  0  0  0  0  0  0
    0.4160    9.6820   -2.2830 C   0  0  0  0  0  0  0  0  0  0  0  0
   -0.9253    7.4641   -1.7635 H   0  0  0  0  0  0  0  0  0  0  0  0
   -2.4133    8.2096   -2.4396 H   0  0  0  0  0  0  0  0  0  0  0  0
   -0.8692    9.1274   -2.4396 H   0  0  0  0  0  0  0  0  0  0  0  0
   -1.6509    8.1808    0.2351 H   0  0  0  0  0  0  0  0  0  0  0  0
   -3.4263   10.0155    0.5008 H   0  0  0  0  0  0  0  0  0  0  0  0
   -3.5533    9.9362   -1.3217 H   0  0  0  0  0  0  0  0  0  0  0  0
   -3.7031    7.3050   -0.0451 H   0  0  0  0  0  0  0  0  0  0  0  0
   -5.0175    8.4402    0.4747 H   0  0  0  0  0  0  0  0  0  0  0  0
   -4.0463    7.8734   -2.1357 H   0  0  0  0  0  0  0  0  0  0  0  0
   -6.5053    7.0743    0.4281 H   0  0  0  0  0  0  0  0  0  0  0  0
   -8.0487    6.9464   -0.4820 H   0  0  0  0  0  0  0  0  0  0  0  0
   -6.8897    5.5741   -0.4820 H   0  0  0  0  0  0  0  0  0  0  0  0
   -7.2881    5.7199   -2.8335 H   0  0  0  0  0  0  0  0  0  0  0  0
   -7.3049    7.3557   -3.5756 H   0  0  0  0  0  0  0  0  0  0  0  0
   -5.7935    6.3849   -3.5756 H   0  0  0  0  0  0  0  0  0  0  0  0
   -1.6717   10.8642    0.2068 H   0  0  0  0  0  0  0  0  0  0  0  0
   -0.0480   10.0557    1.8025 H   0  0  0  0  0  0  0  0  0  0  0  0
    0.4629    8.7348    0.7298 H   0  0  0  0  0  0  0  0  0  0  0  0
    1.9197   11.1479    1.2024 H   0  0  0  0  0  0  0  0  0  0  0  0
    2.2461   10.0429   -0.1302 H   0  0  0  0  0  0  0  0  0  0  0  0
    0.4259   12.5443    1.3244 H   0  0  0  0  0  0  0  0  0  0  0  0
    0.7811   13.7734    0.0634 H   0  0  0  0  0  0  0  0  0  0  0  0
   -0.7980   12.9171    0.0634 H   0  0  0  0  0  0  0  0  0  0  0  0
    2.3151   11.3923   -2.1418 H   0  0  0  0  0  0  0  0  0  0  0  0
    3.2962   12.6453   -0.1130 H   0  0  0  0  0  0  0  0  0  0  0  0
    3.8832   12.9925   -1.8226 H   0  0  0  0  0  0  0  0  0  0  0  0
    3.5328   15.0868   -0.2639 H   0  0  0  0  0  0  0  0  0  0  0  0
   -0.0985   14.4979   -1.9247 H   0  0  0  0  0  0  0  0  0  0  0  0
    1.6332   15.5824   -4.2329 H   0  0  0  0  0  0  0  0  0  0  0  0
   -0.1195   15.1007   -4.3156 H   0  0  0  0  0  0  0  0  0  0  0  0
    0.1734   17.5547   -4.2113 H   0  0  0  0  0  0  0  0  0  0  0  0
   -0.7147   16.8875   -2.7854 H   0  0  0  0  0  0  0  0  0  0  0  0
    0.8536   18.5332   -2.0151 H   0  0  0  0  0  0  0  0  0  0  0  0
    3.2060   17.8960   -2.4180 H   0  0  0  0  0  0  0  0  0  0  0  0
    0.6256   16.7529    0.8873 H   0  0  0  0  0  0  0  0  0  0  0  0
   -0.2760   17.6768   -0.3618 H   0  0  0  0  0  0  0  0  0  0  0  0
   -0.3265   15.8812   -0.3618 H   0  0  0  0  0  0  0  0  0  0  0  0
    2.5088   17.2995    0.7849 H   0  0  0  0  0  0  0  0  0  0  0  0
    3.6504   16.9331   -0.5526 H   0  0  0  0  0  0  0  0  0  0  0  0
    2.7330   18.4774   -0.5526 H   0  0  0  0  0  0  0  0  0  0  0  0
    3.2125   13.0602   -3.6881 H   0  0  0  0  0  0  0  0  0  0  0  0
    1.9963   12.1864   -4.6801 H   0  0  0  0  0  0  0  0  0  0  0  0
    2.0325   13.9823   -4.6801 H   0  0  0  0  0  0  0  0  0  0  0  0
   -0.7420   13.1708   -3.8737 H   0  0  0  0  0  0  0  0  0  0  0  0
    0.2050   11.5849   -4.0215 H   0  0  0  0  0  0  0  0  0  0  0  0
   -1.4951   12.5130   -1.6899 H   0  0  0  0  0  0  0  0  0  0  0  0
   -1.7772   11.1221   -2.8096 H   0  0  0  0  0  0  0  0  0  0  0  0
    0.8306    8.8941   -1.6370 H   0  0  0  0  0  0  0  0  0  0  0  0
   -0.3752    9.2568   -2.9180 H   0  0  0  0  0  0  0  0  0  0  0  0
    1.2144   10.0934   -2.9180 H   0  0  0  0  0  0  0  0  0  0  0  0
  1  2  1  0
  2  3  1  0
  3  4  1  0
  4  5  1  0
  5  6  1  0
  6  7  1  0
  7  8  1  0
  7  9  1  0
  2 10  1  0
 10 11  1  0
 11 12  1  0
 12 13  1  0
 13 14  1  1
 13 15  1  0
 15 16  1  0
 16 17  1  0
 17 18  2  0
 18 19  1  0
 19 20  1  0
 20 21  1  0
 21 22  1  0
 22 23  1  0
 22 24  1  0
 24 25  1  0
 24 26  1  0
 19 27  1  0
 27 28  1  6
 27 29  1  0
 29 30  1  0
 30 31  1  0
 31 32  1  6
  7  5  1  0
 31 10  1  0
 31 13  1  0
 27 15  1  0
 24 18  1  0
  1 33  1  0
  1 34  1  0
  1 35  1  0
  2 36  1  1
  3 37  1  0
  3 38  1  0
  4 39  1  0
  4 40  1  0
  5 41  1  6
  8 42  1  0
  8 43  1  0
  8 44  1  0
  9 45  1  0
  9 46  1  0
  9 47  1  0
 10 48  1  1
 11 49  1  0
 11 50  1  0
 12 51  1  0
 12 52  1  0
 14 53  1  0
 14 54  1  0
 14 55  1  0
 15 56  1  6
 16 57  1  0
 16 58  1  0
 17 59  1  0
 19 60  1  1
 20 61  1  0
 20 62  1  0
 21 63  1  0
 21 64  1  0
 22 65  1  1
 23 66  1  0
 25 67  1  0
 25 68  1  0
 25 69  1  0
 26 70  1  0
 26 71  1  0
 26 72  1  0
 28 73  1  0
 28 74  1  0
 28 75  1  0
 29 76  1  0
 29 77  1  0
 30 78  1  0
 30 79  1  0
 32 80  1  0
 32 81  1  0
 32 82  1  0
M  END
>  <meeko>  (1) 
{"is_sidechain": [false], "intermolecular_energy": 2.731, "internal_energy": -0.839}

$$$$
EPH_relaxed_0001_pdb2pqr_Repair_346_r2_0001_out
     RDKit          3D

 82 86  0  0  0  0  0  0  0  0999 V2000
    0.3510   18.2540    0.0310 C   0  0  0  0  0  0  0  0  0  0  0  0
    1.4590   17.2330   -0.2360 C   0  0  2  0  0  0  0  0  0  0  0  0
    2.6380   17.8460   -1.0190 C   0  0  0  0  0  0  0  0  0  0  0  0
    3.8710   18.1260   -0.1550 C   0  0  0  0  0  0  0  0  0  0  0  0
    3.4920   18.6020    1.2150 C   0  0  2  0  0  0  0  0  0  0  0  0
    3.7360   19.9940    1.4530 O   0  0  0  0  0  0  0  0  0  0  0  0
    4.5010   19.0720    2.2450 C   0  0  0  0  0  0  0  0  0  0  0  0
    5.9680   19.0890    1.9500 C   0  0  0  0  0  0  0  0  0  0  0  0
    4.1110   19.0500    3.6900 C   0  0  0  0  0  0  0  0  0  0  0  0
    0.8940   16.0390   -0.9970 C   0  0  1  0  0  0  0  0  0  0  0  0
    0.7680   16.3070   -2.5200 C   0  0  0  0  0  0  0  0  0  0  0  0
    1.0660   14.9650   -3.2370 C   0  0  0  0  0  0  0  0  0  0  0  0
    1.0260   13.9050   -2.1110 C   0  0  1  0  0  0  0  0  0  0  0  0
   -0.4900   13.6000   -1.9010 C   0  0  0  0  0  0  0  0  0  0  0  0
    1.8480   12.5990   -2.3630 C   0  0  2  0  0  0  0  0  0  0  0  0
    1.3860   11.7590   -3.5660 C   0  0  0  0  0  0  0  0  0  0  0  0
    0.3590   10.7190   -3.2610 C   0  0  0  0  0  0  0  0  0  0  0  0
    0.0360   10.2750   -2.0320 C   0  0  0  0  0  0  0  0  0  0  0  0
    0.8010   10.7590   -0.7940 C   0  0  1  0  0  0  0  0  0  0  0  0
    1.1610    9.5440    0.1010 C   0  0  0  0  0  0  0  0  0  0  0  0
   -0.0590    8.7010    0.4610 C   0  0  0  0  0  0  0  0  0  0  0  0
   -0.7590    8.1900   -0.7960 C   0  0  2  0  0  0  0  0  0  0  0  0
    0.1050    7.2620   -1.4600 O   0  0  0  0  0  0  0  0  0  0  0  0
   -1.1610    9.3250   -1.7780 C   0  0  0  0  0  0  0  0  0  0  0  0
   -2.3190   10.1540   -1.1700 C   0  0  0  0  0  0  0  0  0  0  0  0
   -1.7280    8.6660   -3.0640 C   0  0  0  0  0  0  0  0  0  0  0  0
    2.0500   11.7010   -1.0750 C   0  0  1  0  0  0  0  0  0  0  0  0
    3.3220   10.8370   -1.3290 C   0  0  0  0  0  0  0  0  0  0  0  0
    2.3460   12.5600    0.2120 C   0  0  0  0  0  0  0  0  0  0  0  0
    1.5920   13.8960    0.3440 C   0  0  0  0  0  0  0  0  0  0  0  0
    1.6990   14.7170   -0.9450 C   0  0  2  0  0  0  0  0  0  0  0  0
    3.2120   15.0570   -1.1710 C   0  0  0  0  0  0  0  0  0  0  0  0
    0.2186   18.3760    1.1162 H   0  0  0  0  0  0  0  0  0  0  0  0
    0.6276   19.2205   -0.4156 H   0  0  0  0  0  0  0  0  0  0  0  0
   -0.5897   17.8995   -0.4156 H   0  0  0  0  0  0  0  0  0  0  0  0
    1.8461   16.9032    0.7394 H   0  0  0  0  0  0  0  0  0  0  0  0
    2.9253   17.1467   -1.8181 H   0  0  0  0  0  0  0  0  0  0  0  0
    2.2943   18.8141   -1.4123 H   0  0  0  0  0  0  0  0  0  0  0  0
    4.4580   17.2005   -0.0610 H   0  0  0  0  0  0  0  0  0  0  0  0
    4.4585   18.9179   -0.6426 H   0  0  0  0  0  0  0  0  0  0  0  0
    2.6693   17.8736    1.2669 H   0  0  0  0  0  0  0  0  0  0  0  0
    6.5319   19.0955    2.8945 H   0  0  0  0  0  0  0  0  0  0  0  0
    6.2356   18.1939    1.3693 H   0  0  0  0  0  0  0  0  0  0  0  0
    6.2148   19.9901    1.3693 H   0  0  0  0  0  0  0  0  0  0  0  0
    5.0150   19.1010    4.3146 H   0  0  0  0  0  0  0  0  0  0  0  0
    3.4651   19.9131    3.9086 H   0  0  0  0  0  0  0  0  0  0  0  0
    3.5663   18.1197    3.9086 H   0  0  0  0  0  0  0  0  0  0  0  0
   -0.0621   15.9181   -0.4667 H   0  0  0  0  0  0  0  0  0  0  0  0
   -0.2496   16.6477   -2.7617 H   0  0  0  0  0  0  0  0  0  0  0  0
    1.4692   17.0909   -2.8422 H   0  0  0  0  0  0  0  0  0  0  0  0
    0.3005   14.7527   -3.9979 H   0  0  0  0  0  0  0  0  0  0  0  0
    2.0316   14.9784   -3.7638 H   0  0  0  0  0  0  0  0  0  0  0  0
   -0.7094   13.5559   -0.8240 H   0  0  0  0  0  0  0  0  0  0  0  0
   -1.0917   14.3951   -2.3655 H   0  0  0  0  0  0  0  0  0  0  0  0
   -0.7375   12.6341   -2.3655 H   0  0  0  0  0  0  0  0  0  0  0  0
    2.8380   12.9931   -2.6362 H   0  0  0  0  0  0  0  0  0  0  0  0
    0.9640   12.4436   -4.3165 H   0  0  0  0  0  0  0  0  0  0  0  0
    2.2753   11.2148   -3.9166 H   0  0  0  0  0  0  0  0  0  0  0  0
   -0.1794   10.2782   -4.1130 H   0  0  0  0  0  0  0  0  0  0  0  0
    0.1143   11.4286   -0.2554 H   0  0  0  0  0  0  0  0  0  0  0  0
    1.8811    8.9104   -0.4375 H   0  0  0  0  0  0  0  0  0  0  0  0
    1.5861    9.9335    1.0378 H   0  0  0  0  0  0  0  0  0  0  0  0
    0.2632    7.8421    1.0680 H   0  0  0  0  0  0  0  0  0  0  0  0
   -0.7648    9.3278    1.0258 H   0  0  0  0  0  0  0  0  0  0  0  0
   -1.6939    7.7050   -0.4787 H   0  0  0  0  0  0  0  0  0  0  0  0
    0.9830    7.3330   -1.0490 H   0  0  0  0  0  0  0  0  0  0  0  0
   -2.2621   10.1133   -0.0722 H   0  0  0  0  0  0  0  0  0  0  0  0
   -2.2359   11.1991   -1.5029 H   0  0  0  0  0  0  0  0  0  0  0  0
   -3.2816    9.7385   -1.5029 H   0  0  0  0  0  0  0  0  0  0  0  0
   -2.4223    7.8590   -2.7869 H   0  0  0  0  0  0  0  0  0  0  0  0
   -2.2626    9.4218   -3.6582 H   0  0  0  0  0  0  0  0  0  0  0  0
   -0.9009    8.2502   -3.6582 H   0  0  0  0  0  0  0  0  0  0  0  0
    3.7611   10.5388   -0.3655 H   0  0  0  0  0  0  0  0  0  0  0  0
    3.0467    9.9383   -1.9004 H   0  0  0  0  0  0  0  0  0  0  0  0
    4.0560   11.4242   -1.9004 H   0  0  0  0  0  0  0  0  0  0  0  0
    2.0904   11.9458    1.0880 H   0  0  0  0  0  0  0  0  0  0  0  0
    3.4082   12.8355    0.1359 H   0  0  0  0  0  0  0  0  0  0  0  0
    0.5316   13.6914    0.5531 H   0  0  0  0  0  0  0  0  0  0  0  0
    2.0426   14.4729    1.1651 H   0  0  0  0  0  0  0  0  0  0  0  0
    3.7119   15.1693   -0.1976 H   0  0  0  0  0  0  0  0  0  0  0  0
    3.6900   14.2439   -1.7370 H   0  0  0  0  0  0  0  0  0  0  0  0
    3.2961   15.9964   -1.7370 H   0  0  0  0  0  0  0  0  0  0  0  0
  1  2  1  0
  2  3  1  0
  3  4  1  0
  4  5  1  0
  5  6  1  0
  6  7  1  0
  7  8  1  0
  7  9  1  0
  2 10  1  0
 10 11  1  0
 11 12  1  0
 12 13  1  0
 13 14  1  1
 13 15  1  0
 15 16  1  0
 16 17  1  0
 17 18  2  0
 18 19  1  0
 19 20  1  0
 20 21  1  0
 21 22  1  0
 22 23  1  0
 22 24  1  0
 24 25  1  0
 24 26  1  0
 19 27  1  0
 27 28  1  6
 27 29  1  0
 29 30  1  0
 30 31  1  0
 31 32  1  6
  7  5  1  0
 31 10  1  0
 31 13  1  0
 27 15  1  0
 24 18  1  0
  1 33  1  0
  1 34  1  0
  1 35  1  0
  2 36  1  1
  3 37  1  0
  3 38  1  0
  4 39  1  0
  4 40  1  0
  5 41  1  1
  8 42  1  0
  8 43  1  0
  8 44  1  0
  9 45  1  0
  9 46  1  0
  9 47  1  0
 10 48  1  1
 11 49  1  0
 11 50  1  0
 12 51  1  0
 12 52  1  0
 14 53  1  0
 14 54  1  0
 14 55  1  0
 15 56  1  6
 16 57  1  0
 16 58  1  0
 17 59  1  0
 19 60  1  1
 20 61  1  0
 20 62  1  0
 21 63  1  0
 21 64  1  0
 22 65  1  1
 23 66  1  0
 25 67  1  0
 25 68  1  0
 25 69  1  0
 26 70  1  0
 26 71  1  0
 26 72  1  0
 28 73  1  0
 28 74  1  0
 28 75  1  0
 29 76  1  0
 29 77  1  0
 30 78  1  0
 30 79  1  0
 32 80  1  0
 32 81  1  0
 32 82  1  0
M  END
>  <meeko>  (2) 
{"is_sidechain": [false], "intermolecular_energy": 2.731, "internal_energy": -0.839}

$$$$
EPH_relaxed_0001_pdb2pqr_Repair_346_r2_0001_out
     RDKit          3D

 82 86  0  0  0  0  0  0  0  0999 V2000
    2.0610   18.0510   -2.7230 C   0  0  0  0  0  0  0  0  0  0  0  0
    0.8110   17.5840   -1.9720 C   0  0  2  0  0  0  0  0  0  0  0  0
    1.0060   17.6160   -0.4430 C   0  0  0  0  0  0  0  0  0  0  0  0
    2.3950   18.0930   -0.0100 C   0  0  0  0  0  0  0  0  0  0  0  0
    2.3130   19.1920    1.0050 C   0  0  2  0  0  0  0  0  0  0  0  0
    3.3310   20.1940    0.8870 O   0  0  0  0  0  0  0  0  0  0  0  0
    3.3510   19.4090    2.0900 C   0  0  0  0  0  0  0  0  0  0  0  0
    4.5470   18.5180    2.2150 C   0  0  0  0  0  0  0  0  0  0  0  0
    2.9570   20.1730    3.3150 C   0  0  0  0  0  0  0  0  0  0  0  0
    0.4310   16.1770   -2.4190 C   0  0  1  0  0  0  0  0  0  0  0  0
    0.5400   15.9890   -3.9560 C   0  0  0  0  0  0  0  0  0  0  0  0
    1.0110   14.5320   -4.1960 C   0  0  0  0  0  0  0  0  0  0  0  0
    0.8390   13.8350   -2.8250 C   0  0  1  0  0  0  0  0  0  0  0  0
   -0.6760   13.4660   -2.7510 C   0  0  0  0  0  0  0  0  0  0  0  0
    1.7500   12.5920   -2.5630 C   0  0  2  0  0  0  0  0  0  0  0  0
    1.5270   11.4060   -3.5180 C   0  0  0  0  0  0  0  0  0  0  0  0
    0.5130   10.4070   -3.0680 C   0  0  0  0  0  0  0  0  0  0  0  0
    0.0160   10.3030   -1.8220 C   0  0  0  0  0  0  0  0  0  0  0  0
    0.5490   11.1860   -0.6860 C   0  0  1  0  0  0  0  0  0  0  0  0
    0.8150   10.3130    0.5680 C   0  0  0  0  0  0  0  0  0  0  0  0
   -0.4070    9.5000    0.9850 C   0  0  0  0  0  0  0  0  0  0  0  0
   -0.8710    8.5910   -0.1510 C   0  0  2  0  0  0  0  0  0  0  0  0
    0.1310    7.5960   -0.3840 O   0  0  0  0  0  0  0  0  0  0  0  0
   -1.1600    9.3600   -1.4710 C   0  0  0  0  0  0  0  0  0  0  0  0
   -2.4380   10.2190   -1.3030 C   0  0  0  0  0  0  0  0  0  0  0  0
   -1.4820    8.3140   -2.5720 C   0  0  0  0  0  0  0  0  0  0  0  0
    1.7820   12.1190   -1.0530 C   0  0  1  0  0  0  0  0  0  0  0  0
    3.1170   11.3370   -0.8590 C   0  0  0  0  0  0  0  0  0  0  0  0
    1.8270   13.3310   -0.0480 C   0  0  0  0  0  0  0  0  0  0  0  0
    1.0010   14.5760   -0.4220 C   0  0  0  0  0  0  0  0  0  0  0  0
    1.2770   15.0020   -1.8670 C   0  0  2  0  0  0  0  0  0  0  0  0
    2.7890   15.4010   -1.9680 C   0  0  0  0  0  0  0  0  0  0  0  0
    2.8368   18.3408   -1.9990 H   0  0  0  0  0  0  0  0  0  0  0  0
    2.4364   17.2325   -3.3547 H   0  0  0  0  0  0  0  0  0  0  0  0
    1.8078   18.9152   -3.3547 H   0  0  0  0  0  0  0  0  0  0  0  0
   -0.0018   18.2839   -2.2158 H   0  0  0  0  0  0  0  0  0  0  0  0
    0.2555   18.2945   -0.0112 H   0  0  0  0  0  0  0  0  0  0  0  0
    0.8939   16.5827   -0.0827 H   0  0  0  0  0  0  0  0  0  0  0  0
    2.9429   17.2449    0.4266 H   0  0  0  0  0  0  0  0  0  0  0  0
    2.9148   18.4841   -0.8971 H   0  0  0  0  0  0  0  0  0  0  0  0
    1.2166   19.1098    1.0388 H   0  0  0  0  0  0  0  0  0  0  0  0
    4.7705   18.3515    3.2791 H   0  0  0  0  0  0  0  0  0  0  0  0
    4.3382   17.5536    1.7289 H   0  0  0  0  0  0  0  0  0  0  0  0
    5.4113   18.9941    1.7289 H   0  0  0  0  0  0  0  0  0  0  0  0
    3.2496   19.6057    4.2109 H   0  0  0  0  0  0  0  0  0  0  0  0
    3.4642   21.1491    3.3173 H   0  0  0  0  0  0  0  0  0  0  0  0
    1.8677   20.3258    3.3173 H   0  0  0  0  0  0  0  0  0  0  0  0
   -0.5914   16.1255   -2.0165 H   0  0  0  0  0  0  0  0  0  0  0  0
   -0.4399   16.1529   -4.4281 H   0  0  0  0  0  0  0  0  0  0  0  0
    1.2470   16.7096   -4.3929 H   0  0  0  0  0  0  0  0  0  0  0  0
    0.3888   14.0438   -4.9606 H   0  0  0  0  0  0  0  0  0  0  0  0
    2.0474   14.4836   -4.5614 H   0  0  0  0  0  0  0  0  0  0  0  0
   -0.9841   13.3910   -1.6977 H   0  0  0  0  0  0  0  0  0  0  0  0
   -1.2683   14.2461   -3.2516 H   0  0  0  0  0  0  0  0  0  0  0  0
   -0.8432   12.5009   -3.2516 H   0  0  0  0  0  0  0  0  0  0  0  0
    2.7519   12.9805   -2.7980 H   0  0  0  0  0  0  0  0  0  0  0  0
    1.2008   11.8078   -4.4886 H   0  0  0  0  0  0  0  0  0  0  0  0
    2.4852   10.8677   -3.5637 H   0  0  0  0  0  0  0  0  0  0  0  0
    0.1403    9.6951   -3.8193 H   0  0  0  0  0  0  0  0  0  0  0  0
   -0.2453   11.9158   -0.4705 H   0  0  0  0  0  0  0  0  0  0  0  0
    1.6405    9.6205    0.3469 H   0  0  0  0  0  0  0  0  0  0  0  0
    1.0653   10.9893    1.3986 H   0  0  0  0  0  0  0  0  0  0  0  0
   -0.1478    8.8822    1.8575 H   0  0  0  0  0  0  0  0  0  0  0  0
   -1.2226   10.1947    1.2344 H   0  0  0  0  0  0  0  0  0  0  0  0
   -1.8213    8.1326    0.1602 H   0  0  0  0  0  0  0  0  0  0  0  0
    0.8280    8.0010   -0.9270 H   0  0  0  0  0  0  0  0  0  0  0  0
   -2.6472   10.3596   -0.2323 H   0  0  0  0  0  0  0  0  0  0  0  0
   -2.2862   11.1991   -1.7787 H   0  0  0  0  0  0  0  0  0  0  0  0
   -3.2882    9.7083   -1.7787 H   0  0  0  0  0  0  0  0  0  0  0  0
   -1.7745    7.3640   -2.1009 H   0  0  0  0  0  0  0  0  0  0  0  0
   -2.3082    8.6827   -3.1976 H   0  0  0  0  0  0  0  0  0  0  0  0
   -0.5915    8.1542   -3.1976 H   0  0  0  0  0  0  0  0  0  0  0  0
    3.3196   11.2183    0.2157 H   0  0  0  0  0  0  0  0  0  0  0  0
    3.0326   10.3455   -1.3279 H   0  0  0  0  0  0  0  0  0  0  0  0
    3.9406   11.8955   -1.3279 H   0  0  0  0  0  0  0  0  0  0  0  0
    1.4623   12.9699    0.9249 H   0  0  0  0  0  0  0  0  0  0  0  0
    2.8738   13.6689   -0.0522 H   0  0  0  0  0  0  0  0  0  0  0  0
   -0.0688   14.3443   -0.3130 H   0  0  0  0  0  0  0  0  0  0  0  0
    1.2860   15.4007    0.2478 H   0  0  0  0  0  0  0  0  0  0  0  0
    3.2074   15.5114   -0.9567 H   0  0  0  0  0  0  0  0  0  0  0  0
    3.3396   14.6174   -2.5091 H   0  0  0  0  0  0  0  0  0  0  0  0
    2.8813   16.3543   -2.5091 H   0  0  0  0  0  0  0  0  0  0  0  0
  1  2  1  0
  2  3  1  0
  3  4  1  0
  4  5  1  0
  5  6  1  0
  6  7  1  0
  7  8  1  0
  7  9  1  0
  2 10  1  0
 10 11  1  0
 11 12  1  0
 12 13  1  0
 13 14  1  1
 13 15  1  0
 15 16  1  0
 16 17  1  0
 17 18  2  0
 18 19  1  0
 19 20  1  0
 20 21  1  0
 21 22  1  0
 22 23  1  0
 22 24  1  0
 24 25  1  0
 24 26  1  0
 19 27  1  0
 27 28  1  6
 27 29  1  0
 29 30  1  0
 30 31  1  0
 31 32  1  1
  7  5  1  0
 31 10  1  0
 31 13  1  0
 27 15  1  0
 24 18  1  0
  1 33  1  0
  1 34  1  0
  1 35  1  0
  2 36  1  1
  3 37  1  0
  3 38  1  0
  4 39  1  0
  4 40  1  0
  5 41  1  1
  8 42  1  0
  8 43  1  0
  8 44  1  0
  9 45  1  0
  9 46  1  0
  9 47  1  0
 10 48  1  1
 11 49  1  0
 11 50  1  0
 12 51  1  0
 12 52  1  0
 14 53  1  0
 14 54  1  0
 14 55  1  0
 15 56  1  6
 16 57  1  0
 16 58  1  0
 17 59  1  0
 19 60  1  1
 20 61  1  0
 20 62  1  0
 21 63  1  0
 21 64  1  0
 22 65  1  1
 23 66  1  0
 25 67  1  0
 25 68  1  0
 25 69  1  0
 26 70  1  0
 26 71  1  0
 26 72  1  0
 28 73  1  0
 28 74  1  0
 28 75  1  0
 29 76  1  0
 29 77  1  0
 30 78  1  0
 30 79  1  0
 32 80  1  0
 32 81  1  0
 32 82  1  0
M  END
>  <meeko>  (3) 
{"is_sidechain": [false], "intermolecular_energy": 2.731, "internal_energy": -0.839}

$$$$
EPH_relaxed_0001_pdb2pqr_Repair_346_r2_0001_out
     RDKit          3D

 82 86  0  0  0  0  0  0  0  0999 V2000
    4.0760   17.7630    0.0840 C   0  0  0  0  0  0  0  0  0  0  0  0
    2.6490   18.3020   -0.0470 C   0  0  2  0  0  0  0  0  0  0  0  0
    2.2650   19.2210    1.1300 C   0  0  0  0  0  0  0  0  0  0  0  0
    3.4490   19.9890    1.7240 C   0  0  0  0  0  0  0  0  0  0  0  0
    3.9990   19.3070    2.9400 C   0  0  2  0  0  0  0  0  0  0  0  0
    4.4290   20.1940    3.9810 O   0  0  0  0  0  0  0  0  0  0  0  0
    5.4530   19.3960    3.3640 C   0  0  0  0  0  0  0  0  0  0  0  0
    6.4490   20.1870    2.5750 C   0  0  0  0  0  0  0  0  0  0  0  0
    6.0040   18.3280    4.2570 C   0  0  0  0  0  0  0  0  0  0  0  0
    1.6630   17.1440   -0.1470 C   0  0  1  0  0  0  0  0  0  0  0  0
    0.2450   17.6030   -0.5790 C   0  0  0  0  0  0  0  0  0  0  0  0
   -0.3420   16.4710   -1.4610 C   0  0  0  0  0  0  0  0  0  0  0  0
    0.6070   15.2700   -1.2370 C   0  0  1  0  0  0  0  0  0  0  0  0
    0.1400   14.6350    0.1100 C   0  0  0  0  0  0  0  0  0  0  0  0
    0.6640   14.2110   -2.3860 C   0  0  2  0  0  0  0  0  0  0  0  0
   -0.6610   13.4820   -2.6670 C   0  0  0  0  0  0  0  0  0  0  0  0
   -0.8710   12.2210   -1.8960 C   0  0  0  0  0  0  0  0  0  0  0  0
    0.0820   11.5440   -1.2280 C   0  0  0  0  0  0  0  0  0  0  0  0
    1.5500   11.9860   -1.2880 C   0  0  1  0  0  0  0  0  0  0  0  0
    2.4520   10.7510   -1.5480 C   0  0  0  0  0  0  0  0  0  0  0  0
    2.2200    9.6330   -0.5360 C   0  0  0  0  0  0  0  0  0  0  0  0
    0.7610    9.1810   -0.5470 C   0  0  2  0  0  0  0  0  0  0  0  0
    0.4820    8.5580   -1.8050 O   0  0  0  0  0  0  0  0  0  0  0  0
   -0.2420   10.3430   -0.3050 C   0  0  0  0  0  0  0  0  0  0  0  0
   -0.1420   10.8200    1.1650 C   0  0  0  0  0  0  0  0  0  0  0  0
   -1.6780    9.7790   -0.4820 C   0  0  0  0  0  0  0  0  0  0  0  0
    1.8710   13.1940   -2.2700 C   0  0  1  0  0  0  0  0  0  0  0  0
    2.1380   12.6540   -3.7080 C   0  0  0  0  0  0  0  0  0  0  0  0
    3.2020   13.8940   -1.8050 C   0  0  0  0  0  0  0  0  0  0  0  0
    3.0670   15.0150   -0.7560 C   0  0  0  0  0  0  0  0  0  0  0  0
    1.9870   16.0210   -1.1640 C   0  0  2  0  0  0  0  0  0  0  0  0
    2.4400   16.6920   -2.5050 C   0  0  0  0  0  0  0  0  0  0  0  0
    4.3347   17.6653    1.1487 H   0  0  0  0  0  0  0  0  0  0  0  0
    4.1419   16.7780   -0.4013 H   0  0  0  0  0  0  0  0  0  0  0  0
    4.7766   18.4584   -0.4013 H   0  0  0  0  0  0  0  0  0  0  0  0
    2.6067   18.9065   -0.9650 H   0  0  0  0  0  0  0  0  0  0  0  0
    1.5223   19.9498    0.7734 H   0  0  0  0  0  0  0  0  0  0  0  0
    1.8697   18.5739    1.9269 H   0  0  0  0  0  0  0  0  0  0  0  0
    4.2431   20.0614    0.9662 H   0  0  0  0  0  0  0  0  0  0  0  0
    3.0954   20.9872    2.0215 H   0  0  0  0  0  0  0  0  0  0  0  0
    3.3248   18.4504    2.7931 H   0  0  0  0  0  0  0  0  0  0  0  0
    7.1211   20.7208    3.2630 H   0  0  0  0  0  0  0  0  0  0  0  0
    7.0375   19.5075    1.9411 H   0  0  0  0  0  0  0  0  0  0  0  0
    5.9204   20.9141    1.9411 H   0  0  0  0  0  0  0  0  0  0  0  0
    5.8553   18.6162    5.3081 H   0  0  0  0  0  0  0  0  0  0  0  0
    5.4826   17.3798    4.0595 H   0  0  0  0  0  0  0  0  0  0  0  0
    7.0789   18.2034    4.0595 H   0  0  0  0  0  0  0  0  0  0  0  0
    1.7312   16.7536    0.8791 H   0  0  0  0  0  0  0  0  0  0  0  0
   -0.3884   17.7604    0.3065 H   0  0  0  0  0  0  0  0  0  0  0  0
    0.2887   18.5526   -1.1324 H   0  0  0  0  0  0  0  0  0  0  0  0
   -1.3652   16.2220   -1.1431 H   0  0  0  0  0  0  0  0  0  0  0  0
   -0.4074   16.7591   -2.5206 H   0  0  0  0  0  0  0  0  0  0  0  0
    0.5606   15.2069    0.9503 H   0  0  0  0  0  0  0  0  0  0  0  0
   -0.9584   14.6574    0.1646 H   0  0  0  0  0  0  0  0  0  0  0  0
    0.4887   13.5932    0.1646 H   0  0  0  0  0  0  0  0  0  0  0  0
    0.8556   14.8336   -3.2724 H   0  0  0  0  0  0  0  0  0  0  0  0
   -1.4850   14.1694   -2.4253 H   0  0  0  0  0  0  0  0  0  0  0  0
   -0.6283   13.1889   -3.7267 H   0  0  0  0  0  0  0  0  0  0  0  0
   -1.8910   11.8100   -1.8716 H   0  0  0  0  0  0  0  0  0  0  0  0
    1.7793   12.4147   -0.3013 H   0  0  0  0  0  0  0  0  0  0  0  0
    2.2386   10.3644   -2.5555 H   0  0  0  0  0  0  0  0  0  0  0  0
    3.4985   11.0760   -1.4521 H   0  0  0  0  0  0  0  0  0  0  0  0
    2.8637    8.7780   -0.7902 H   0  0  0  0  0  0  0  0  0  0  0  0
    2.4626   10.0120    0.4677 H   0  0  0  0  0  0  0  0  0  0  0  0
    0.6276    8.4740    0.2851 H   0  0  0  0  0  0  0  0  0  0  0  0
   -0.1340    9.1340   -2.2880 H   0  0  0  0  0  0  0  0  0  0  0  0
   -0.3203    9.9695    1.8394 H   0  0  0  0  0  0  0  0  0  0  0  0
    0.8617   11.2304    1.3499 H   0  0  0  0  0  0  0  0  0  0  0  0
   -0.8964   11.5989    1.3499 H   0  0  0  0  0  0  0  0  0  0  0  0
   -2.1271    9.6026    0.5065 H   0  0  0  0  0  0  0  0  0  0  0  0
   -2.2904   10.5034   -1.0390 H   0  0  0  0  0  0  0  0  0  0  0  0
   -1.6337    8.8315   -1.0390 H   0  0  0  0  0  0  0  0  0  0  0  0
    2.6248   11.6695   -3.6455 H   0  0  0  0  0  0  0  0  0  0  0  0
    1.1837   12.5577   -4.2465 H   0  0  0  0  0  0  0  0  0  0  0  0
    2.7939   13.3538   -4.2465 H   0  0  0  0  0  0  0  0  0  0  0  0
    3.8556   13.1178   -1.3805 H   0  0  0  0  0  0  0  0  0  0  0  0
    3.5975   14.3876   -2.7049 H   0  0  0  0  0  0  0  0  0  0  0  0
    2.7967   14.5702    0.2131 H   0  0  0  0  0  0  0  0  0  0  0  0
    4.0287   15.5438   -0.6824 H   0  0  0  0  0  0  0  0  0  0  0  0
    3.0428   17.5849   -2.2829 H   0  0  0  0  0  0  0  0  0  0  0  0
    3.0420   15.9786   -3.0869 H   0  0  0  0  0  0  0  0  0  0  0  0
    1.5533   16.9837   -3.0869 H   0  0  0  0  0  0  0  0  0  0  0  0
  1  2  1  0
  2  3  1  0
  3  4  1  0
  4  5  1  0
  5  6  1  0
  6  7  1  0
  7  8  1  0
  7  9  1  0
  2 10  1  0
 10 11  1  0
 11 12  1  0
 12 13  1  0
 13 14  1  1
 13 15  1  0
 15 16  1  0
 16 17  1  0
 17 18  2  0
 18 19  1  0
 19 20  1  0
 20 21  1  0
 21 22  1  0
 22 23  1  0
 22 24  1  0
 24 25  1  0
 24 26  1  0
 19 27  1  0
 27 28  1  6
 27 29  1  0
 29 30  1  0
 30 31  1  0
 31 32  1  6
  7  5  1  0
 31 10  1  0
 31 13  1  0
 27 15  1  0
 24 18  1  0
  1 33  1  0
  1 34  1  0
  1 35  1  0
  2 36  1  6
  3 37  1  0
  3 38  1  0
  4 39  1  0
  4 40  1  0
  5 41  1  1
  8 42  1  0
  8 43  1  0
  8 44  1  0
  9 45  1  0
  9 46  1  0
  9 47  1  0
 10 48  1  1
 11 49  1  0
 11 50  1  0
 12 51  1  0
 12 52  1  0
 14 53  1  0
 14 54  1  0
 14 55  1  0
 15 56  1  6
 16 57  1  0
 16 58  1  0
 17 59  1  0
 19 60  1  1
 20 61  1  0
 20 62  1  0
 21 63  1  0
 21 64  1  0
 22 65  1  1
 23 66  1  0
 25 67  1  0
 25 68  1  0
 25 69  1  0
 26 70  1  0
 26 71  1  0
 26 72  1  0
 28 73  1  0
 28 74  1  0
 28 75  1  0
 29 76  1  0
 29 77  1  0
 30 78  1  0
 30 79  1  0
 32 80  1  0
 32 81  1  0
 32 82  1  0
M  END
>  <meeko>  (4) 
{"is_sidechain": [false], "intermolecular_energy": 2.731, "internal_energy": -0.839}

$$$$
EPH_relaxed_0001_pdb2pqr_Repair_346_r2_0001_out
     RDKit          3D

 82 86  0  0  0  0  0  0  0  0999 V2000
    2.3370   17.9350   -2.6790 C   0  0  0  0  0  0  0  0  0  0  0  0
    1.0380   17.5290   -1.9770 C   0  0  2  0  0  0  0  0  0  0  0  0
    1.1690   17.5770   -0.4420 C   0  0  0  0  0  0  0  0  0  0  0  0
    0.8350   18.9440    0.1620 C   0  0  0  0  0  0  0  0  0  0  0  0
   -0.6210   19.0620    0.4960 C   0  0  2  0  0  0  0  0  0  0  0  0
   -1.4860   18.2460   -0.3040 O   0  0  0  0  0  0  0  0  0  0  0  0
   -1.6480   19.6670   -0.4430 C   0  0  0  0  0  0  0  0  0  0  0  0
   -1.2590   20.1950   -1.7890 C   0  0  0  0  0  0  0  0  0  0  0  0
   -2.9270   20.1870    0.1350 C   0  0  0  0  0  0  0  0  0  0  0  0
    0.6220   16.1320   -2.4220 C   0  0  1  0  0  0  0  0  0  0  0  0
    0.7580   15.9270   -3.9540 C   0  0  0  0  0  0  0  0  0  0  0  0
    1.1860   14.4530   -4.1720 C   0  0  0  0  0  0  0  0  0  0  0  0
    0.9610   13.7750   -2.8000 C   0  0  1  0  0  0  0  0  0  0  0  0
   -0.5660   13.4570   -2.7560 C   0  0  0  0  0  0  0  0  0  0  0  0
    1.8240   12.5040   -2.5070 C   0  0  2  0  0  0  0  0  0  0  0  0
    1.5830   11.3190   -3.4580 C   0  0  0  0  0  0  0  0  0  0  0  0
    0.5270   10.3570   -3.0230 C   0  0  0  0  0  0  0  0  0  0  0  0
   -0.0000   10.2810   -1.7870 C   0  0  0  0  0  0  0  0  0  0  0  0
    0.5360   11.1560   -0.6460 C   0  0  1  0  0  0  0  0  0  0  0  0
    0.7450   10.2840    0.6200 C   0  0  0  0  0  0  0  0  0  0  0  0
   -0.5110    9.5160    1.0160 C   0  0  0  0  0  0  0  0  0  0  0  0
   -0.9800    8.6130   -0.1230 C   0  0  2  0  0  0  0  0  0  0  0  0
   -0.0070    7.5840   -0.3250 O   0  0  0  0  0  0  0  0  0  0  0  0
   -1.2150    9.3800   -1.4550 C   0  0  0  0  0  0  0  0  0  0  0  0
   -2.4670   10.2810   -1.3220 C   0  0  0  0  0  0  0  0  0  0  0  0
   -1.5470    8.3350   -2.5540 C   0  0  0  0  0  0  0  0  0  0  0  0
    1.8070   12.0440   -0.9930 C   0  0  1  0  0  0  0  0  0  0  0  0
    3.1110   11.2200   -0.7640 C   0  0  0  0  0  0  0  0  0  0  0  0
    1.8700   13.2620    0.0030 C   0  0  0  0  0  0  0  0  0  0  0  0
    1.0940   14.5300   -0.4000 C   0  0  0  0  0  0  0  0  0  0  0  0
    1.4160   14.9350   -1.8420 C   0  0  2  0  0  0  0  0  0  0  0  0
    2.9420   15.2830   -1.9120 C   0  0  0  0  0  0  0  0  0  0  0  0
    3.1018   18.1740   -1.9254 H   0  0  0  0  0  0  0  0  0  0  0  0
    2.6891   17.1040   -3.3079 H   0  0  0  0  0  0  0  0  0  0  0  0
    2.1532   18.8185   -3.3079 H   0  0  0  0  0  0  0  0  0  0  0  0
    0.2642   18.2560   -2.2647 H   0  0  0  0  0  0  0  0  0  0  0  0
    0.4850   16.8307   -0.0116 H   0  0  0  0  0  0  0  0  0  0  0  0
    2.2222   17.3685   -0.2026 H   0  0  0  0  0  0  0  0  0  0  0  0
    1.4237   19.0810    1.0810 H   0  0  0  0  0  0  0  0  0  0  0  0
    1.0797   19.7164   -0.5820 H   0  0  0  0  0  0  0  0  0  0  0  0
   -0.3876   19.2505    1.5543 H   0  0  0  0  0  0  0  0  0  0  0  0
   -0.6107   21.0749   -1.6644 H   0  0  0  0  0  0  0  0  0  0  0  0
   -0.7171   19.4163   -2.3458 H   0  0  0  0  0  0  0  0  0  0  0  0
   -2.1633   20.4817   -2.3458 H   0  0  0  0  0  0  0  0  0  0  0  0
   -2.8693   20.1635    1.2332 H   0  0  0  0  0  0  0  0  0  0  0  0
   -3.0876   21.2218   -0.2017 H   0  0  0  0  0  0  0  0  0  0  0  0
   -3.7641   19.5578   -0.2017 H   0  0  0  0  0  0  0  0  0  0  0  0
   -0.4104   16.1180   -2.0425 H   0  0  0  0  0  0  0  0  0  0  0  0
   -0.2055   16.1188   -4.4488 H   0  0  0  0  0  0  0  0  0  0  0  0
    1.4977   16.6202   -4.3810 H   0  0  0  0  0  0  0  0  0  0  0  0
    0.5650   13.9787   -4.9462 H   0  0  0  0  0  0  0  0  0  0  0  0
    2.2279   14.3671   -4.5141 H   0  0  0  0  0  0  0  0  0  0  0  0
   -0.8962   13.3882   -1.7090 H   0  0  0  0  0  0  0  0  0  0  0  0
   -1.1223   14.2586   -3.2640 H   0  0  0  0  0  0  0  0  0  0  0  0
   -0.7560   12.5000   -3.2640 H   0  0  0  0  0  0  0  0  0  0  0  0
    2.8438   12.8561   -2.7215 H   0  0  0  0  0  0  0  0  0  0  0  0
    1.2912   11.7237   -4.4383 H   0  0  0  0  0  0  0  0  0  0  0  0
    2.5238   10.7493   -3.4791 H   0  0  0  0  0  0  0  0  0  0  0  0
    0.1478    9.6509   -3.7764 H   0  0  0  0  0  0  0  0  0  0  0  0
   -0.2377   11.9138   -0.4532 H   0  0  0  0  0  0  0  0  0  0  0  0
    1.5514    9.5626    0.4218 H   0  0  0  0  0  0  0  0  0  0  0  0
    0.9994   10.9583    1.4510 H   0  0  0  0  0  0  0  0  0  0  0  0
   -0.2915    8.8975    1.8988 H   0  0  0  0  0  0  0  0  0  0  0  0
   -1.3084   10.2393    1.2419 H   0  0  0  0  0  0  0  0  0  0  0  0
   -1.9516    8.1886    0.1700 H   0  0  0  0  0  0  0  0  0  0  0  0
    0.3030    7.2960    0.5500 H   0  0  0  0  0  0  0  0  0  0  0  0
   -2.6912   10.4423   -0.2572 H   0  0  0  0  0  0  0  0  0  0  0  0
   -2.2750   11.2494   -1.8071 H   0  0  0  0  0  0  0  0  0  0  0  0
   -3.3243    9.7914   -1.8071 H   0  0  0  0  0  0  0  0  0  0  0  0
   -1.8477    7.3885   -2.0811 H   0  0  0  0  0  0  0  0  0  0  0  0
   -2.3702    8.7100   -3.1798 H   0  0  0  0  0  0  0  0  0  0  0  0
   -0.6583    8.1661   -3.1798 H   0  0  0  0  0  0  0  0  0  0  0  0
    3.2889   11.1076    0.3157 H   0  0  0  0  0  0  0  0  0  0  0  0
    3.0022   10.2263   -1.2231 H   0  0  0  0  0  0  0  0  0  0  0  0
    3.9618   11.7448   -1.2231 H   0  0  0  0  0  0  0  0  0  0  0  0
    1.4719   12.9217    0.9703 H   0  0  0  0  0  0  0  0  0  0  0  0
    2.9273   13.5651    0.0202 H   0  0  0  0  0  0  0  0  0  0  0  0
    0.0150   14.3342   -0.3137 H   0  0  0  0  0  0  0  0  0  0  0  0
    1.3912   15.3507    0.2694 H   0  0  0  0  0  0  0  0  0  0  0  0
    3.3443   15.3747   -0.8923 H   0  0  0  0  0  0  0  0  0  0  0  0
    3.4762   14.4836   -2.4464 H   0  0  0  0  0  0  0  0  0  0  0  0
    3.0769   16.2350   -2.4464 H   0  0  0  0  0  0  0  0  0  0  0  0
  1  2  1  0
  2  3  1  0
  3  4  1  0
  4  5  1  0
  5  6  1  0
  6  7  1  0
  7  8  1  0
  7  9  1  0
  2 10  1  0
 10 11  1  0
 11 12  1  0
 12 13  1  0
 13 14  1  1
 13 15  1  0
 15 16  1  0
 16 17  1  0
 17 18  2  0
 18 19  1  0
 19 20  1  0
 20 21  1  0
 21 22  1  0
 22 23  1  0
 22 24  1  0
 24 25  1  0
 24 26  1  0
 19 27  1  0
 27 28  1  6
 27 29  1  0
 29 30  1  0
 30 31  1  0
 31 32  1  1
  7  5  1  0
 31 10  1  0
 31 13  1  0
 27 15  1  0
 24 18  1  0
  1 33  1  0
  1 34  1  0
  1 35  1  0
  2 36  1  6
  3 37  1  0
  3 38  1  0
  4 39  1  0
  4 40  1  0
  5 41  1  1
  8 42  1  0
  8 43  1  0
  8 44  1  0
  9 45  1  0
  9 46  1  0
  9 47  1  0
 10 48  1  6
 11 49  1  0
 11 50  1  0
 12 51  1  0
 12 52  1  0
 14 53  1  0
 14 54  1  0
 14 55  1  0
 15 56  1  6
 16 57  1  0
 16 58  1  0
 17 59  1  0
 19 60  1  1
 20 61  1  0
 20 62  1  0
 21 63  1  0
 21 64  1  0
 22 65  1  1
 23 66  1  0
 25 67  1  0
 25 68  1  0
 25 69  1  0
 26 70  1  0
 26 71  1  0
 26 72  1  0
 28 73  1  0
 28 74  1  0
 28 75  1  0
 29 76  1  0
 29 77  1  0
 30 78  1  0
 30 79  1  0
 32 80  1  0
 32 81  1  0
 32 82  1  0
M  END
>  <meeko>  (5) 
{"is_sidechain": [false], "intermolecular_energy": 2.731, "internal_energy": -0.839}

$$$$
EPH_relaxed_0001_pdb2pqr_Repair_346_r2_0001_out
     RDKit          3D

 82 86  0  0  0  0  0  0  0  0999 V2000
   -5.0830    6.0480   -1.6500 C   0  0  0  0  0  0  0  0  0  0  0  0
   -5.4070    7.5400   -1.7680 C   0  0  2  0  0  0  0  0  0  0  0  0
   -5.1880    8.2890   -0.4380 C   0  0  0  0  0  0  0  0  0  0  0  0
   -4.0110    9.2680   -0.4700 C   0  0  0  0  0  0  0  0  0  0  0  0
   -2.7110    8.5630   -0.7130 C   0  0  2  0  0  0  0  0  0  0  0  0
   -1.6480    8.9470    0.1700 O   0  0  0  0  0  0  0  0  0  0  0  0
   -1.4630    9.2620   -1.2190 C   0  0  0  0  0  0  0  0  0  0  0  0
   -1.4550   10.7290   -1.5140 C   0  0  0  0  0  0  0  0  0  0  0  0
   -0.4040    8.4410   -1.8870 C   0  0  0  0  0  0  0  0  0  0  0  0
   -6.8460    7.7240   -2.2380 C   0  0  1  0  0  0  0  0  0  0  0  0
   -7.1270    7.0150   -3.5900 C   0  0  0  0  0  0  0  0  0  0  0  0
   -8.5880    6.5000   -3.5300 C   0  0  0  0  0  0  0  0  0  0  0  0
   -9.2010    7.2080   -2.2990 C   0  0  1  0  0  0  0  0  0  0  0  0
   -9.5900    8.6320   -2.8070 C   0  0  0  0  0  0  0  0  0  0  0  0
  -10.4090    6.4880   -1.6170 C   0  0  2  0  0  0  0  0  0  0  0  0
  -11.6560    6.3240   -2.5040 C   0  0  0  0  0  0  0  0  0  0  0  0
  -12.6420    7.4410   -2.4310 C   0  0  0  0  0  0  0  0  0  0  0  0
  -12.6770    8.3930   -1.4800 C   0  0  0  0  0  0  0  0  0  0  0  0
  -11.7160    8.3480   -0.2850 C   0  0  1  0  0  0  0  0  0  0  0  0
  -12.5050    8.6090    1.0250 C   0  0  0  0  0  0  0  0  0  0  0  0
  -13.3120    9.9020    0.9740 C   0  0  0  0  0  0  0  0  0  0  0  0
  -14.2970    9.8850   -0.1920 C   0  0  2  0  0  0  0  0  0  0  0  0
  -15.2870    8.8830    0.0560 O   0  0  0  0  0  0  0  0  0  0  0  0
  -13.6170    9.6210   -1.5650 C   0  0  0  0  0  0  0  0  0  0  0  0
  -12.7720   10.8520   -1.9730 C   0  0  0  0  0  0  0  0  0  0  0  0
  -14.7350    9.4880   -2.6330 C   0  0  0  0  0  0  0  0  0  0  0  0
  -10.7860    7.0620   -0.1910 C   0  0  1  0  0  0  0  0  0  0  0  0
  -11.5320    5.9200    0.5650 C   0  0  0  0  0  0  0  0  0  0  0  0
   -9.5140    7.4090    0.6690 C   0  0  0  0  0  0  0  0  0  0  0  0
   -8.3090    8.0070   -0.0810 C   0  0  0  0  0  0  0  0  0  0  0  0
   -7.9690    7.1770   -1.3220 C   0  0  2  0  0  0  0  0  0  0  0  0
   -7.5510    5.7460   -0.8400 C   0  0  0  0  0  0  0  0  0  0  0  0
   -5.0224    5.7688   -0.5877 H   0  0  0  0  0  0  0  0  0  0  0  0
   -5.8746    5.4611   -2.1387 H   0  0  0  0  0  0  0  0  0  0  0  0
   -4.1193    5.8423   -2.1387 H   0  0  0  0  0  0  0  0  0  0  0  0
   -4.7160    7.9709   -2.5074 H   0  0  0  0  0  0  0  0  0  0  0  0
   -6.1026    8.8529   -0.2022 H   0  0  0  0  0  0  0  0  0  0  0  0
   -4.9548    7.5305    0.3237 H   0  0  0  0  0  0  0  0  0  0  0  0
   -4.1766    9.9985   -1.2756 H   0  0  0  0  0  0  0  0  0  0  0  0
   -3.9531    9.7672    0.5085 H   0  0  0  0  0  0  0  0  0  0  0  0
   -3.2371    7.6572   -1.0487 H   0  0  0  0  0  0  0  0  0  0  0  0
   -1.4519   11.2929   -0.5695 H   0  0  0  0  0  0  0  0  0  0  0  0
   -0.5555   10.9813   -2.0947 H   0  0  0  0  0  0  0  0  0  0  0  0
   -2.3517   10.9911   -2.0947 H   0  0  0  0  0  0  0  0  0  0  0  0
    0.2210    7.9564   -1.1224 H   0  0  0  0  0  0  0  0  0  0  0  0
   -0.8778    7.6719   -2.5147 H   0  0  0  0  0  0  0  0  0  0  0  0
    0.2228    9.0915   -2.5147 H   0  0  0  0  0  0  0  0  0  0  0  0
   -6.8904    8.8226   -2.2717 H   0  0  0  0  0  0  0  0  0  0  0  0
   -7.0096    7.7252   -4.4217 H   0  0  0  0  0  0  0  0  0  0  0  0
   -6.4227    6.1864   -3.7552 H   0  0  0  0  0  0  0  0  0  0  0  0
   -9.1334    6.7717   -4.4458 H   0  0  0  0  0  0  0  0  0  0  0  0
   -8.6411    5.4042   -3.4503 H   0  0  0  0  0  0  0  0  0  0  0  0
   -9.7703    9.2920   -1.9457 H   0  0  0  0  0  0  0  0  0  0  0  0
   -8.7705    9.0404   -3.4166 H   0  0  0  0  0  0  0  0  0  0  0  0
  -10.5033    8.5670   -3.4166 H   0  0  0  0  0  0  0  0  0  0  0  0
  -10.0184    5.4719   -1.4586 H   0  0  0  0  0  0  0  0  0  0  0  0
  -11.3210    6.2342   -3.5479 H   0  0  0  0  0  0  0  0  0  0  0  0
  -12.1795    5.4315   -2.1306 H   0  0  0  0  0  0  0  0  0  0  0  0
  -13.4053    7.4910   -3.2215 H   0  0  0  0  0  0  0  0  0  0  0  0
  -10.9886    9.1565   -0.4498 H   0  0  0  0  0  0  0  0  0  0  0  0
  -13.1950    7.7692    1.1943 H   0  0  0  0  0  0  0  0  0  0  0  0
  -11.7742    8.7036    1.8417 H   0  0  0  0  0  0  0  0  0  0  0  0
  -13.8702   10.0153    1.9151 H   0  0  0  0  0  0  0  0  0  0  0  0
  -12.6177   10.7438    0.8347 H   0  0  0  0  0  0  0  0  0  0  0  0
  -14.7513   10.8848   -0.2550 H   0  0  0  0  0  0  0  0  0  0  0  0
  -15.6760    9.0630    0.9280 H   0  0  0  0  0  0  0  0  0  0  0  0
  -12.4171   11.3690   -1.0692 H   0  0  0  0  0  0  0  0  0  0  0  0
  -11.9087   10.5226   -2.5699 H   0  0  0  0  0  0  0  0  0  0  0  0
  -13.3897   11.5392   -2.5699 H   0  0  0  0  0  0  0  0  0  0  0  0
  -15.7079    9.3723   -2.1329 H   0  0  0  0  0  0  0  0  0  0  0  0
  -14.7509   10.3906   -3.2616 H   0  0  0  0  0  0  0  0  0  0  0  0
  -14.5387    8.6069   -3.2616 H   0  0  0  0  0  0  0  0  0  0  0  0
  -11.4324    6.0724    1.6498 H   0  0  0  0  0  0  0  0  0  0  0  0
  -12.5968    5.9322    0.2892 H   0  0  0  0  0  0  0  0  0  0  0  0
  -11.0929    4.9499    0.2892 H   0  0  0  0  0  0  0  0  0  0  0  0
   -9.8200    8.1336    1.4379 H   0  0  0  0  0  0  0  0  0  0  0  0
   -9.1591    6.4437    1.0593 H   0  0  0  0  0  0  0  0  0  0  0  0
   -8.5515    9.0343   -0.3905 H   0  0  0  0  0  0  0  0  0  0  0  0
   -7.4394    8.0030    0.5927 H   0  0  0  0  0  0  0  0  0  0  0  0
   -7.5426    5.7174    0.2596 H   0  0  0  0  0  0  0  0  0  0  0  0
   -8.2706    5.0062   -1.2206 H   0  0  0  0  0  0  0  0  0  0  0  0
   -6.5463    5.5098   -1.2206 H   0  0  0  0  0  0  0  0  0  0  0  0
  1  2  1  0
  2  3  1  0
  3  4  1  0
  4  5  1  0
  5  6  1  0
  6  7  1  0
  7  8  1  0
  7  9  1  0
  2 10  1  0
 10 11  1  0
 11 12  1  0
 12 13  1  0
 13 14  1  6
 13 15  1  0
 15 16  1  0
 16 17  1  0
 17 18  2  0
 18 19  1  0
 19 20  1  0
 20 21  1  0
 21 22  1  0
 22 23  1  0
 22 24  1  0
 24 25  1  0
 24 26  1  0
 19 27  1  0
 27 28  1  1
 27 29  1  0
 29 30  1  0
 30 31  1  0
 31 32  1  1
  7  5  1  0
 31 10  1  0
 31 13  1  0
 27 15  1  0
 24 18  1  0
  1 33  1  0
  1 34  1  0
  1 35  1  0
  2 36  1  6
  3 37  1  0
  3 38  1  0
  4 39  1  0
  4 40  1  0
  5 41  1  6
  8 42  1  0
  8 43  1  0
  8 44  1  0
  9 45  1  0
  9 46  1  0
  9 47  1  0
 10 48  1  6
 11 49  1  0
 11 50  1  0
 12 51  1  0
 12 52  1  0
 14 53  1  0
 14 54  1  0
 14 55  1  0
 15 56  1  1
 16 57  1  0
 16 58  1  0
 17 59  1  0
 19 60  1  6
 20 61  1  0
 20 62  1  0
 21 63  1  0
 21 64  1  0
 22 65  1  6
 23 66  1  0
 25 67  1  0
 25 68  1  0
 25 69  1  0
 26 70  1  0
 26 71  1  0
 26 72  1  0
 28 73  1  0
 28 74  1  0
 28 75  1  0
 29 76  1  0
 29 77  1  0
 30 78  1  0
 30 79  1  0
 32 80  1  0
 32 81  1  0
 32 82  1  0
M  END
>  <meeko>  (6) 
{"is_sidechain": [false], "intermolecular_energy": 2.731, "internal_energy": -0.839}

$$$$
EPH_relaxed_0001_pdb2pqr_Repair_346_r2_0001_out
     RDKit          3D

 82 86  0  0  0  0  0  0  0  0999 V2000
    4.1120   17.6830    0.3690 C   0  0  0  0  0  0  0  0  0  0  0  0
    2.7590   18.2650   -0.0510 C   0  0  2  0  0  0  0  0  0  0  0  0
    2.2090   19.2640    0.9870 C   0  0  0  0  0  0  0  0  0  0  0  0
    0.7520   19.0050    1.3790 C   0  0  0  0  0  0  0  0  0  0  0  0
   -0.1930   19.8730    0.6050 C   0  0  2  0  0  0  0  0  0  0  0  0
   -1.4110   20.1920    1.2910 O   0  0  0  0  0  0  0  0  0  0  0  0
   -1.5430   19.3990    0.1000 C   0  0  0  0  0  0  0  0  0  0  0  0
   -2.0220   18.0030    0.3490 C   0  0  0  0  0  0  0  0  0  0  0  0
   -2.1760   20.1280   -1.0440 C   0  0  0  0  0  0  0  0  0  0  0  0
    1.7550   17.1390   -0.2720 C   0  0  1  0  0  0  0  0  0  0  0  0
    0.4550   17.6260   -0.9670 C   0  0  0  0  0  0  0  0  0  0  0  0
   -0.0180   16.4720   -1.8880 C   0  0  0  0  0  0  0  0  0  0  0  0
    0.8230   15.2510   -1.4480 C   0  0  1  0  0  0  0  0  0  0  0  0
    0.1010   14.7020   -0.1780 C   0  0  0  0  0  0  0  0  0  0  0  0
    1.0330   14.1340   -2.5210 C   0  0  2  0  0  0  0  0  0  0  0  0
   -0.2540   13.4390   -3.0000 C   0  0  0  0  0  0  0  0  0  0  0  0
   -0.6510   12.2270   -2.2230 C   0  0  0  0  0  0  0  0  0  0  0  0
    0.1400   11.5510   -1.3690 C   0  0  0  0  0  0  0  0  0  0  0  0
    1.6140   11.9370   -1.1890 C   0  0  1  0  0  0  0  0  0  0  0  0
    2.4920   10.6580   -1.2320 C   0  0  0  0  0  0  0  0  0  0  0  0
    2.0380    9.6030   -0.2280 C   0  0  0  0  0  0  0  0  0  0  0  0
    0.5860    9.2030   -0.4770 C   0  0  2  0  0  0  0  0  0  0  0  0
    0.5020    8.5280   -1.7350 O   0  0  0  0  0  0  0  0  0  0  0  0
   -0.3920   10.4120   -0.4660 C   0  0  0  0  0  0  0  0  0  0  0  0
   -0.5290   10.9580    0.9770 C   0  0  0  0  0  0  0  0  0  0  0  0
   -1.7980    9.8910   -0.8680 C   0  0  0  0  0  0  0  0  0  0  0  0
    2.1540   13.0810   -2.1510 C   0  0  1  0  0  0  0  0  0  0  0  0
    2.6430   12.4590   -3.4950 C   0  0  0  0  0  0  0  0  0  0  0  0
    3.4140   13.7560   -1.4890 C   0  0  0  0  0  0  0  0  0  0  0  0
    3.1480   14.9320   -0.5310 C   0  0  0  0  0  0  0  0  0  0  0  0
    2.2010   15.9540   -1.1660 C   0  0  2  0  0  0  0  0  0  0  0  0
    2.9100   16.5400   -2.4340 C   0  0  0  0  0  0  0  0  0  0  0  0
    4.1747   17.6560    1.4669 H   0  0  0  0  0  0  0  0  0  0  0  0
    4.2116   16.6624   -0.0291 H   0  0  0  0  0  0  0  0  0  0  0  0
    4.9214   18.3125   -0.0291 H   0  0  0  0  0  0  0  0  0  0  0  0
    2.9133   18.8160   -0.9904 H   0  0  0  0  0  0  0  0  0  0  0  0
    2.8291   19.1997    1.8933 H   0  0  0  0  0  0  0  0  0  0  0  0
    2.2447   20.2610    0.5237 H   0  0  0  0  0  0  0  0  0  0  0  0
    0.5114   17.9502    1.1800 H   0  0  0  0  0  0  0  0  0  0  0  0
    0.6373   19.2408    2.4473 H   0  0  0  0  0  0  0  0  0  0  0  0
    0.6455   20.3791    0.1042 H   0  0  0  0  0  0  0  0  0  0  0  0
   -2.0833   17.8242    1.4326 H   0  0  0  0  0  0  0  0  0  0  0  0
   -3.0169   17.8709   -0.1013 H   0  0  0  0  0  0  0  0  0  0  0  0
   -1.3178   17.2879   -0.1013 H   0  0  0  0  0  0  0  0  0  0  0  0
   -2.8507   20.9050   -0.6553 H   0  0  0  0  0  0  0  0  0  0  0  0
   -1.3931   20.5962   -1.6587 H   0  0  0  0  0  0  0  0  0  0  0  0
   -2.7494   19.4185   -1.6587 H   0  0  0  0  0  0  0  0  0  0  0  0
    1.6265   16.7994    0.7663 H   0  0  0  0  0  0  0  0  0  0  0  0
   -0.3155   17.8506   -0.2148 H   0  0  0  0  0  0  0  0  0  0  0  0
    0.6359   18.5443   -1.5450 H   0  0  0  0  0  0  0  0  0  0  0  0
   -1.0910   16.2762   -1.7451 H   0  0  0  0  0  0  0  0  0  0  0  0
    0.1157   16.7079   -2.9540 H   0  0  0  0  0  0  0  0  0  0  0  0
    0.6032   15.0838    0.7231 H   0  0  0  0  0  0  0  0  0  0  0  0
   -0.9482   15.0325   -0.1810 H   0  0  0  0  0  0  0  0  0  0  0  0
    0.1391   13.6027   -0.1810 H   0  0  0  0  0  0  0  0  0  0  0  0
    1.4044   14.7049   -3.3848 H   0  0  0  0  0  0  0  0  0  0  0  0
   -1.0765   14.1668   -2.9385 H   0  0  0  0  0  0  0  0  0  0  0  0
   -0.0495   13.0912   -4.0233 H   0  0  0  0  0  0  0  0  0  0  0  0
   -1.6771   11.8551   -2.3602 H   0  0  0  0  0  0  0  0  0  0  0  0
    1.6869   12.4073   -0.1973 H   0  0  0  0  0  0  0  0  0  0  0  0
    2.4396   10.2281   -2.2432 H   0  0  0  0  0  0  0  0  0  0  0  0
    3.5195   10.9493   -0.9687 H   0  0  0  0  0  0  0  0  0  0  0  0
    2.6783    8.7139   -0.3256 H   0  0  0  0  0  0  0  0  0  0  0  0
    2.1176   10.0246    0.7849 H   0  0  0  0  0  0  0  0  0  0  0  0
    0.2796    8.5431    0.3480 H   0  0  0  0  0  0  0  0  0  0  0  0
   -0.1340    7.7990   -1.6360 H   0  0  0  0  0  0  0  0  0  0  0  0
   -0.3263   10.1501    1.6955 H   0  0  0  0  0  0  0  0  0  0  0  0
    0.1921   11.7744    1.1301 H   0  0  0  0  0  0  0  0  0  0  0  0
   -1.5501   11.3372    1.1301 H   0  0  0  0  0  0  0  0  0  0  0  0
   -2.3819    9.6746    0.0388 H   0  0  0  0  0  0  0  0  0  0  0  0
   -2.3163   10.6568   -1.4638 H   0  0  0  0  0  0  0  0  0  0  0  0
   -1.6921    8.9724   -1.4638 H   0  0  0  0  0  0  0  0  0  0  0  0
    3.3103   11.6102   -3.2848 H   0  0  0  0  0  0  0  0  0  0  0  0
    1.7757   12.1090   -4.0740 H   0  0  0  0  0  0  0  0  0  0  0  0
    3.1879   13.2192   -4.0740 H   0  0  0  0  0  0  0  0  0  0  0  0
    3.9485   12.9794   -0.9223 H   0  0  0  0  0  0  0  0  0  0  0  0
    3.9819   14.1888   -2.3257 H   0  0  0  0  0  0  0  0  0  0  0  0
    2.6937   14.5468    0.3938 H   0  0  0  0  0  0  0  0  0  0  0  0
    4.1046   15.4292   -0.3126 H   0  0  0  0  0  0  0  0  0  0  0  0
    3.7230   17.2120   -2.1218 H   0  0  0  0  0  0  0  0  0  0  0  0
    3.3246   15.7175   -3.0353 H   0  0  0  0  0  0  0  0  0  0  0  0
    2.1802   17.1020   -3.0353 H   0  0  0  0  0  0  0  0  0  0  0  0
  1  2  1  0
  2  3  1  0
  3  4  1  0
  4  5  1  0
  5  6  1  0
  6  7  1  0
  7  8  1  0
  7  9  1  0
  2 10  1  0
 10 11  1  0
 11 12  1  0
 12 13  1  0
 13 14  1  1
 13 15  1  0
 15 16  1  0
 16 17  1  0
 17 18  2  0
 18 19  1  0
 19 20  1  0
 20 21  1  0
 21 22  1  0
 22 23  1  0
 22 24  1  0
 24 25  1  0
 24 26  1  0
 19 27  1  0
 27 28  1  6
 27 29  1  0
 29 30  1  0
 30 31  1  0
 31 32  1  6
  7  5  1  0
 31 10  1  0
 31 13  1  0
 27 15  1  0
 24 18  1  0
  1 33  1  0
  1 34  1  0
  1 35  1  0
  2 36  1  6
  3 37  1  0
  3 38  1  0
  4 39  1  0
  4 40  1  0
  5 41  1  6
  8 42  1  0
  8 43  1  0
  8 44  1  0
  9 45  1  0
  9 46  1  0
  9 47  1  0
 10 48  1  1
 11 49  1  0
 11 50  1  0
 12 51  1  0
 12 52  1  0
 14 53  1  0
 14 54  1  0
 14 55  1  0
 15 56  1  6
 16 57  1  0
 16 58  1  0
 17 59  1  0
 19 60  1  1
 20 61  1  0
 20 62  1  0
 21 63  1  0
 21 64  1  0
 22 65  1  1
 23 66  1  0
 25 67  1  0
 25 68  1  0
 25 69  1  0
 26 70  1  0
 26 71  1  0
 26 72  1  0
 28 73  1  0
 28 74  1  0
 28 75  1  0
 29 76  1  0
 29 77  1  0
 30 78  1  0
 30 79  1  0
 32 80  1  0
 32 81  1  0
 32 82  1  0
M  END
>  <meeko>  (7) 
{"is_sidechain": [false], "intermolecular_energy": 2.731, "internal_energy": -0.839}

$$$$
EPH_relaxed_0001_pdb2pqr_Repair_346_r2_0001_out
     RDKit          3D

 82 86  0  0  0  0  0  0  0  0999 V2000
    0.4250    9.2230   -2.8450 C   0  0  0  0  0  0  0  0  0  0  0  0
    1.3380   10.2430   -3.5300 C   0  0  2  0  0  0  0  0  0  0  0  0
    2.8110   10.0850   -3.1020 C   0  0  0  0  0  0  0  0  0  0  0  0
    3.8070   10.7280   -4.0710 C   0  0  0  0  0  0  0  0  0  0  0  0
    5.1690   10.8570   -3.4610 C   0  0  2  0  0  0  0  0  0  0  0  0
    5.8600   12.0700   -3.7900 O   0  0  0  0  0  0  0  0  0  0  0  0
    6.4520   10.8530   -4.2700 C   0  0  0  0  0  0  0  0  0  0  0  0
    6.4340   10.7140   -5.7600 C   0  0  0  0  0  0  0  0  0  0  0  0
    7.7320   10.4920   -3.5820 C   0  0  0  0  0  0  0  0  0  0  0  0
    0.8570   11.6570   -3.2270 C   0  0  1  0  0  0  0  0  0  0  0  0
   -0.6810   11.7370   -3.0390 C   0  0  0  0  0  0  0  0  0  0  0  0
   -0.9440   12.8150   -1.9550 C   0  0  0  0  0  0  0  0  0  0  0  0
    0.4090   13.5470   -1.7980 C   0  0  1  0  0  0  0  0  0  0  0  0
    0.4550   14.5660   -2.9790 C   0  0  0  0  0  0  0  0  0  0  0  0
    0.6600   14.2470   -0.4220 C   0  0  2  0  0  0  0  0  0  0  0  0
   -0.3220   15.3800   -0.0780 C   0  0  0  0  0  0  0  0  0  0  0  0
    0.0920   16.7420   -0.5280 C   0  0  0  0  0  0  0  0  0  0  0  0
    1.3290   17.0910   -0.9280 C   0  0  0  0  0  0  0  0  0  0  0  0
    2.4900   16.0900   -0.8600 C   0  0  1  0  0  0  0  0  0  0  0  0
    3.7300   16.7780   -0.2300 C   0  0  0  0  0  0  0  0  0  0  0  0
    4.1120   18.0680   -0.9500 C   0  0  0  0  0  0  0  0  0  0  0  0
    2.9510   19.0590   -0.9460 C   0  0  2  0  0  0  0  0  0  0  0  0
    2.7130   19.4850    0.3990 O   0  0  0  0  0  0  0  0  0  0  0  0
    1.6440   18.4740   -1.5480 C   0  0  0  0  0  0  0  0  0  0  0  0
    1.8100   18.2950   -3.0780 C   0  0  0  0  0  0  0  0  0  0  0  0
    0.5170   19.5250   -1.3550 C   0  0  0  0  0  0  0  0  0  0  0  0
    2.1600   14.6900   -0.1840 C   0  0  1  0  0  0  0  0  0  0  0  0
    2.3580   14.7850    1.3600 C   0  0  0  0  0  0  0  0  0  0  0  0
    3.1900   13.6160   -0.6990 C   0  0  0  0  0  0  0  0  0  0  0  0
    2.8290   12.8740   -1.9990 C   0  0  0  0  0  0  0  0  0  0  0  0
    1.3970   12.3320   -1.9420 C   0  0  2  0  0  0  0  0  0  0  0  0
    1.3270   11.2880   -0.7760 C   0  0  0  0  0  0  0  0  0  0  0  0
    0.5158    9.3245   -1.7535 H   0  0  0  0  0  0  0  0  0  0  0  0
   -0.6177    9.4048   -3.1446 H   0  0  0  0  0  0  0  0  0  0  0  0
    0.7208    8.2068   -3.1446 H   0  0  0  0  0  0  0  0  0  0  0  0
    1.2874   10.0566   -4.6129 H   0  0  0  0  0  0  0  0  0  0  0  0
    2.9373   10.5518   -2.1140 H   0  0  0  0  0  0  0  0  0  0  0  0
    3.0273    9.0066   -3.0881 H   0  0  0  0  0  0  0  0  0  0  0  0
    3.8786   10.1045   -4.9744 H   0  0  0  0  0  0  0  0  0  0  0  0
    3.4441   11.7371   -4.3162 H   0  0  0  0  0  0  0  0  0  0  0  0
    4.8527   10.2847   -2.5765 H   0  0  0  0  0  0  0  0  0  0  0  0
    6.2970    9.6560   -6.0279 H   0  0  0  0  0  0  0  0  0  0  0  0
    5.6052   11.3073   -6.1736 H   0  0  0  0  0  0  0  0  0  0  0  0
    7.3866   11.0766   -6.1736 H   0  0  0  0  0  0  0  0  0  0  0  0
    7.5868   10.5329   -2.4924 H   0  0  0  0  0  0  0  0  0  0  0  0
    8.0310    9.4745   -3.8741 H   0  0  0  0  0  0  0  0  0  0  0  0
    8.5186   11.2033   -3.8741 H   0  0  0  0  0  0  0  0  0  0  0  0
    1.2434   12.1774   -4.1157 H   0  0  0  0  0  0  0  0  0  0  0  0
   -1.1637   12.0250   -3.9845 H   0  0  0  0  0  0  0  0  0  0  0  0
   -1.0930   10.7632   -2.7357 H   0  0  0  0  0  0  0  0  0  0  0  0
   -1.7277   13.5134   -2.2837 H   0  0  0  0  0  0  0  0  0  0  0  0
   -1.2948   12.3783   -1.0083 H   0  0  0  0  0  0  0  0  0  0  0  0
    0.5012   15.5895   -2.5786 H   0  0  0  0  0  0  0  0  0  0  0  0
    1.3453   14.3729   -3.5954 H   0  0  0  0  0  0  0  0  0  0  0  0
   -0.4491   14.4539   -3.5954 H   0  0  0  0  0  0  0  0  0  0  0  0
    0.4483   13.4402    0.2951 H   0  0  0  0  0  0  0  0  0  0  0  0
   -1.2887   15.1461   -0.5479 H   0  0  0  0  0  0  0  0  0  0  0  0
   -0.3645   15.4225    1.0204 H   0  0  0  0  0  0  0  0  0  0  0  0
   -0.6790   17.5266   -0.5331 H   0  0  0  0  0  0  0  0  0  0  0  0
    2.7082   15.8061   -1.9001 H   0  0  0  0  0  0  0  0  0  0  0  0
    3.5066   17.0136    0.8210 H   0  0  0  0  0  0  0  0  0  0  0  0
    4.5781   16.0829   -0.3175 H   0  0  0  0  0  0  0  0  0  0  0  0
    4.9749   18.5223   -0.4412 H   0  0  0  0  0  0  0  0  0  0  0  0
    4.3641   17.8266   -1.9932 H   0  0  0  0  0  0  0  0  0  0  0  0
    3.2386   19.9063   -1.5859 H   0  0  0  0  0  0  0  0  0  0  0  0
    1.7690   19.7020    0.4770 H   0  0  0  0  0  0  0  0  0  0  0  0
    2.5457   17.5017   -3.2767 H   0  0  0  0  0  0  0  0  0  0  0  0
    0.8425   18.0174   -3.5218 H   0  0  0  0  0  0  0  0  0  0  0  0
    2.1596   19.2388   -3.5218 H   0  0  0  0  0  0  0  0  0  0  0  0
    0.3452   19.6852   -0.2804 H   0  0  0  0  0  0  0  0  0  0  0  0
    0.8163   20.4739   -1.8240 H   0  0  0  0  0  0  0  0  0  0  0  0
   -0.4088   19.1602   -1.8240 H   0  0  0  0  0  0  0  0  0  0  0  0
    1.4788   14.3632    1.8691 H   0  0  0  0  0  0  0  0  0  0  0  0
    3.2559   14.2197    1.6500 H   0  0  0  0  0  0  0  0  0  0  0  0
    2.4789   15.8392    1.6500 H   0  0  0  0  0  0  0  0  0  0  0  0
    4.1497   14.1277   -0.8636 H   0  0  0  0  0  0  0  0  0  0  0  0
    3.2088   12.8392    0.0796 H   0  0  0  0  0  0  0  0  0  0  0  0
    2.9169   13.5696   -2.8466 H   0  0  0  0  0  0  0  0  0  0  0  0
    3.5198   12.0269   -2.1226 H   0  0  0  0  0  0  0  0  0  0  0  0
    1.3623   11.8138    0.1896 H   0  0  0  0  0  0  0  0  0  0  0  0
    0.3887   10.7187   -0.8494 H   0  0  0  0  0  0  0  0  0  0  0  0
    2.1809   10.5985   -0.8494 H   0  0  0  0  0  0  0  0  0  0  0  0
  1  2  1  0
  2  3  1  0
  3  4  1  0
  4  5  1  0
  5  6  1  0
  6  7  1  0
  7  8  1  0
  7  9  1  0
  2 10  1  0
 10 11  1  0
 11 12  1  0
 12 13  1  0
 13 14  1  6
 13 15  1  0
 15 16  1  0
 16 17  1  0
 17 18  2  0
 18 19  1  0
 19 20  1  0
 20 21  1  0
 21 22  1  0
 22 23  1  0
 22 24  1  0
 24 25  1  0
 24 26  1  0
 19 27  1  0
 27 28  1  1
 27 29  1  0
 29 30  1  0
 30 31  1  0
 31 32  1  1
  7  5  1  0
 31 10  1  0
 31 13  1  0
 27 15  1  0
 24 18  1  0
  1 33  1  0
  1 34  1  0
  1 35  1  0
  2 36  1  6
  3 37  1  0
  3 38  1  0
  4 39  1  0
  4 40  1  0
  5 41  1  1
  8 42  1  0
  8 43  1  0
  8 44  1  0
  9 45  1  0
  9 46  1  0
  9 47  1  0
 10 48  1  6
 11 49  1  0
 11 50  1  0
 12 51  1  0
 12 52  1  0
 14 53  1  0
 14 54  1  0
 14 55  1  0
 15 56  1  1
 16 57  1  0
 16 58  1  0
 17 59  1  0
 19 60  1  6
 20 61  1  0
 20 62  1  0
 21 63  1  0
 21 64  1  0
 22 65  1  6
 23 66  1  0
 25 67  1  0
 25 68  1  0
 25 69  1  0
 26 70  1  0
 26 71  1  0
 26 72  1  0
 28 73  1  0
 28 74  1  0
 28 75  1  0
 29 76  1  0
 29 77  1  0
 30 78  1  0
 30 79  1  0
 32 80  1  0
 32 81  1  0
 32 82  1  0
M  END
>  <meeko>  (8) 
{"is_sidechain": [false], "intermolecular_energy": 2.731, "internal_energy": -0.839}

$$$$
EPH_relaxed_0001_pdb2pqr_Repair_346_r2_0001_out
     RDKit          3D

 82 86  0  0  0  0  0  0  0  0999 V2000
    3.5520   17.3480    1.0480 C   0  0  0  0  0  0  0  0  0  0  0  0
    3.4730   16.5290   -0.2430 C   0  0  2  0  0  0  0  0  0  0  0  0
    3.4470   17.4240   -1.4980 C   0  0  0  0  0  0  0  0  0  0  0  0
    2.8270   18.8040   -1.2580 C   0  0  0  0  0  0  0  0  0  0  0  0
    1.4170   18.8730   -1.7610 C   0  0  2  0  0  0  0  0  0  0  0  0
    0.9630   20.1920   -2.0920 O   0  0  0  0  0  0  0  0  0  0  0  0
    0.2890   19.5450   -1.0010 C   0  0  0  0  0  0  0  0  0  0  0  0
    0.5220   20.1930    0.3280 C   0  0  0  0  0  0  0  0  0  0  0  0
   -1.1200   19.1490   -1.3130 C   0  0  0  0  0  0  0  0  0  0  0  0
    2.2390   15.6350   -0.2160 C   0  0  1  0  0  0  0  0  0  0  0  0
    0.9150   16.4400   -0.3050 C   0  0  0  0  0  0  0  0  0  0  0  0
   -0.0800   15.5760   -1.1220 C   0  0  0  0  0  0  0  0  0  0  0  0
    0.5810   14.1790   -1.1900 C   0  0  1  0  0  0  0  0  0  0  0  0
    0.2390   13.5060    0.1770 C   0  0  0  0  0  0  0  0  0  0  0  0
    0.1670   13.2760   -2.3970 C   0  0  2  0  0  0  0  0  0  0  0  0
   -1.3230   12.8930   -2.4440 C   0  0  0  0  0  0  0  0  0  0  0  0
   -1.6770   11.6260   -1.7380 C   0  0  0  0  0  0  0  0  0  0  0  0
   -0.8040   10.6830   -1.3370 C   0  0  0  0  0  0  0  0  0  0  0  0
    0.6880   10.7980   -1.6730 C   0  0  1  0  0  0  0  0  0  0  0  0
    1.2050    9.4350   -2.2050 C   0  0  0  0  0  0  0  0  0  0  0  0
    0.9090    8.2830   -1.2500 C   0  0  0  0  0  0  0  0  0  0  0  0
   -0.5900    8.1660   -0.9850 C   0  0  2  0  0  0  0  0  0  0  0  0
   -1.2420    7.7720   -2.1970 O   0  0  0  0  0  0  0  0  0  0  0  0
   -1.2240    9.4820   -0.4550 C   0  0  0  0  0  0  0  0  0  0  0  0
   -0.7380    9.7470    0.9920 C   0  0  0  0  0  0  0  0  0  0  0  0
   -2.7600    9.2700   -0.3650 C   0  0  0  0  0  0  0  0  0  0  0  0
    1.0960   12.0140   -2.6120 C   0  0  1  0  0  0  0  0  0  0  0  0
    0.9500   11.6030   -4.1090 C   0  0  0  0  0  0  0  0  0  0  0  0
    2.6190   12.3470   -2.3890 C   0  0  0  0  0  0  0  0  0  0  0  0
    2.9550   13.3370   -1.2580 C   0  0  0  0  0  0  0  0  0  0  0  0
    2.0880   14.5960   -1.3550 C   0  0  2  0  0  0  0  0  0  0  0  0
    2.4260   15.3060   -2.7100 C   0  0  0  0  0  0  0  0  0  0  0  0
    3.4870   16.6736    1.9146 H   0  0  0  0  0  0  0  0  0  0  0  0
    4.5069   17.8932    1.0785 H   0  0  0  0  0  0  0  0  0  0  0  0
    2.7189   18.0657    1.0785 H   0  0  0  0  0  0  0  0  0  0  0  0
    4.3804   15.9097   -0.2980 H   0  0  0  0  0  0  0  0  0  0  0  0
    4.4810   17.5637   -1.8463 H   0  0  0  0  0  0  0  0  0  0  0  0
    2.8182   16.9145   -2.2430 H   0  0  0  0  0  0  0  0  0  0  0  0
    2.8310   19.0137   -0.1782 H   0  0  0  0  0  0  0  0  0  0  0  0
    3.4235   19.5481   -1.8062 H   0  0  0  0  0  0  0  0  0  0  0  0
    1.5073   17.8770   -2.2191 H   0  0  0  0  0  0  0  0  0  0  0  0
    0.2675   19.4852    1.1307 H   0  0  0  0  0  0  0  0  0  0  0  0
    1.5800   20.4811    0.4150 H   0  0  0  0  0  0  0  0  0  0  0  0
   -0.1103   21.0889    0.4150 H   0  0  0  0  0  0  0  0  0  0  0  0
   -1.6734   18.9935   -0.3751 H   0  0  0  0  0  0  0  0  0  0  0  0
   -1.6042   19.9459   -1.8966 H   0  0  0  0  0  0  0  0  0  0  0  0
   -1.1181   18.2166   -1.8966 H   0  0  0  0  0  0  0  0  0  0  0  0
    2.4056   15.1212    0.7422 H   0  0  0  0  0  0  0  0  0  0  0  0
    0.5161   16.6257    0.7032 H   0  0  0  0  0  0  0  0  0  0  0  0
    1.0778   17.4159   -0.7858 H   0  0  0  0  0  0  0  0  0  0  0  0
   -1.0541   15.5204   -0.6139 H   0  0  0  0  0  0  0  0  0  0  0  0
   -0.2739   15.9948   -2.1205 H   0  0  0  0  0  0  0  0  0  0  0  0
    0.5700   14.1573    0.9993 H   0  0  0  0  0  0  0  0  0  0  0  0
   -0.8476   13.3502    0.2473 H   0  0  0  0  0  0  0  0  0  0  0  0
    0.7537   12.5364    0.2473 H   0  0  0  0  0  0  0  0  0  0  0  0
    0.3316   13.9419   -3.2569 H   0  0  0  0  0  0  0  0  0  0  0  0
   -1.8989   13.7103   -1.9854 H   0  0  0  0  0  0  0  0  0  0  0  0
   -1.5621   12.7279   -3.5049 H   0  0  0  0  0  0  0  0  0  0  0  0
   -2.7419   11.4479   -1.5276 H   0  0  0  0  0  0  0  0  0  0  0  0
    1.1942   11.0469   -0.7287 H   0  0  0  0  0  0  0  0  0  0  0  0
    0.7199    9.2264   -3.1700 H   0  0  0  0  0  0  0  0  0  0  0  0
    2.2975    9.5101   -2.3084 H   0  0  0  0  0  0  0  0  0  0  0  0
    1.2703    7.3443   -1.6953 H   0  0  0  0  0  0  0  0  0  0  0  0
    1.4203    8.4776   -0.2957 H   0  0  0  0  0  0  0  0  0  0  0  0
   -0.7276    7.4124   -0.1956 H   0  0  0  0  0  0  0  0  0  0  0  0
   -0.5920    7.8400   -2.9160 H   0  0  0  0  0  0  0  0  0  0  0  0
   -1.4734    9.3460    1.7050 H   0  0  0  0  0  0  0  0  0  0  0  0
    0.2322    9.2530    1.1492 H   0  0  0  0  0  0  0  0  0  0  0  0
   -0.6277   10.8301    1.1492 H   0  0  0  0  0  0  0  0  0  0  0  0
   -3.0631    9.2282    0.6916 H   0  0  0  0  0  0  0  0  0  0  0  0
   -3.2752   10.1056   -0.8614 H   0  0  0  0  0  0  0  0  0  0  0  0
   -3.0296    8.3261   -0.8614 H   0  0  0  0  0  0  0  0  0  0  0  0
    0.5824   10.5681   -4.1709 H   0  0  0  0  0  0  0  0  0  0  0  0
    0.2360   12.2761   -4.6061 H   0  0  0  0  0  0  0  0  0  0  0  0
    1.9286   11.6748   -4.6061 H   0  0  0  0  0  0  0  0  0  0  0  0
    3.1375   11.4021   -2.1691 H   0  0  0  0  0  0  0  0  0  0  0  0
    2.9430   12.8462   -3.3141 H   0  0  0  0  0  0  0  0  0  0  0  0
    2.7748   12.8500   -0.2883 H   0  0  0  0  0  0  0  0  0  0  0  0
    4.0110   13.6306   -1.3515 H   0  0  0  0  0  0  0  0  0  0  0  0
    2.8907   16.2821   -2.5066 H   0  0  0  0  0  0  0  0  0  0  0  0
    3.1233   14.6812   -3.2874 H   0  0  0  0  0  0  0  0  0  0  0  0
    1.5014   15.4533   -3.2874 H   0  0  0  0  0  0  0  0  0  0  0  0
  1  2  1  0
  2  3  1  0
  3  4  1  0
  4  5  1  0
  5  6  1  0
  6  7  1  0
  7  8  1  0
  7  9  1  0
  2 10  1  0
 10 11  1  0
 11 12  1  0
 12 13  1  0
 13 14  1  1
 13 15  1  0
 15 16  1  0
 16 17  1  0
 17 18  2  0
 18 19  1  0
 19 20  1  0
 20 21  1  0
 21 22  1  0
 22 23  1  0
 22 24  1  0
 24 25  1  0
 24 26  1  0
 19 27  1  0
 27 28  1  6
 27 29  1  0
 29 30  1  0
 30 31  1  0
 31 32  1  6
  7  5  1  0
 31 10  1  0
 31 13  1  0
 27 15  1  0
 24 18  1  0
  1 33  1  0
  1 34  1  0
  1 35  1  0
  2 36  1  6
  3 37  1  0
  3 38  1  0
  4 39  1  0
  4 40  1  0
  5 41  1  6
  8 42  1  0
  8 43  1  0
  8 44  1  0
  9 45  1  0
  9 46  1  0
  9 47  1  0
 10 48  1  1
 11 49  1  0
 11 50  1  0
 12 51  1  0
 12 52  1  0
 14 53  1  0
 14 54  1  0
 14 55  1  0
 15 56  1  6
 16 57  1  0
 16 58  1  0
 17 59  1  0
 19 60  1  1
 20 61  1  0
 20 62  1  0
 21 63  1  0
 21 64  1  0
 22 65  1  1
 23 66  1  0
 25 67  1  0
 25 68  1  0
 25 69  1  0
 26 70  1  0
 26 71  1  0
 26 72  1  0
 28 73  1  0
 28 74  1  0
 28 75  1  0
 29 76  1  0
 29 77  1  0
 30 78  1  0
 30 79  1  0
 32 80  1  0
 32 81  1  0
 32 82  1  0
M  END
>  <meeko>  (9) 
{"is_sidechain": [false], "intermolecular_energy": 2.731, "internal_energy": -0.839}

$$$$
EPH_relaxed_0001_pdb2pqr_Repair_346_r2_0001_out
     RDKit          3D

 82 86  0  0  0  0  0  0  0  0999 V2000
    0.0130    9.4810   -2.7560 C   0  0  0  0  0  0  0  0  0  0  0  0
    1.1320   10.4670   -3.1010 C   0  0  2  0  0  0  0  0  0  0  0  0
    2.5140    9.7850   -3.1470 C   0  0  0  0  0  0  0  0  0  0  0  0
    3.5100   10.4740   -4.0840 C   0  0  0  0  0  0  0  0  0  0  0  0
    4.8600   10.6170   -3.4490 C   0  0  2  0  0  0  0  0  0  0  0  0
    5.4780   11.8960   -3.6380 O   0  0  0  0  0  0  0  0  0  0  0  0
    6.1440   10.7760   -4.2420 C   0  0  0  0  0  0  0  0  0  0  0  0
    6.1400   10.7990   -5.7380 C   0  0  0  0  0  0  0  0  0  0  0  0
    7.4400   10.4190   -3.5830 C   0  0  0  0  0  0  0  0  0  0  0  0
    1.1490   11.6080   -2.0900 C   0  0  1  0  0  0  0  0  0  0  0  0
    2.2170   11.4100   -0.9820 C   0  0  0  0  0  0  0  0  0  0  0  0
    2.7570   12.8180   -0.6240 C   0  0  0  0  0  0  0  0  0  0  0  0
    1.7600   13.7980   -1.2860 C   0  0  1  0  0  0  0  0  0  0  0  0
    0.5530   13.8710   -0.2990 C   0  0  0  0  0  0  0  0  0  0  0  0
    2.3130   15.2200   -1.6280 C   0  0  2  0  0  0  0  0  0  0  0  0
    2.7710   16.0510   -0.4170 C   0  0  0  0  0  0  0  0  0  0  0  0
    1.7200   16.9150    0.1980 C   0  0  0  0  0  0  0  0  0  0  0  0
    0.5430   17.2390   -0.3700 C   0  0  0  0  0  0  0  0  0  0  0  0
    0.2130   16.8010   -1.8020 C   0  0  1  0  0  0  0  0  0  0  0  0
   -0.3700   18.0040   -2.5900 C   0  0  0  0  0  0  0  0  0  0  0  0
   -1.5620   18.6430   -1.8850 C   0  0  0  0  0  0  0  0  0  0  0  0
   -1.1790   19.1180   -0.4860 C   0  0  2  0  0  0  0  0  0  0  0  0
   -0.2440   20.1940   -0.6050 O   0  0  0  0  0  0  0  0  0  0  0  0
   -0.5710   17.9930    0.3980 C   0  0  0  0  0  0  0  0  0  0  0  0
   -1.6750   16.9740    0.7760 C   0  0  0  0  0  0  0  0  0  0  0  0
   -0.0980   18.6350    1.7300 C   0  0  0  0  0  0  0  0  0  0  0  0
    1.3800   16.0640   -2.5890 C   0  0  1  0  0  0  0  0  0  0  0  0
    2.2960   17.1150   -3.2890 C   0  0  0  0  0  0  0  0  0  0  0  0
    0.7530   15.1870   -3.7370 C   0  0  0  0  0  0  0  0  0  0  0  0
    0.3370   13.7510   -3.3650 C   0  0  0  0  0  0  0  0  0  0  0  0
    1.4660   13.0270   -2.6250 C   0  0  2  0  0  0  0  0  0  0  0  0
    2.6860   12.9190   -3.6010 C   0  0  0  0  0  0  0  0  0  0  0  0
   -0.0797    9.3994   -1.6630 H   0  0  0  0  0  0  0  0  0  0  0  0
   -0.9365    9.8414   -3.1786 H   0  0  0  0  0  0  0  0  0  0  0  0
    0.2511    8.4937   -3.1786 H   0  0  0  0  0  0  0  0  0  0  0  0
    0.9253   10.8628   -4.1063 H   0  0  0  0  0  0  0  0  0  0  0  0
    2.9355    9.7858   -2.1310 H   0  0  0  0  0  0  0  0  0  0  0  0
    2.3576    8.7680   -3.5360 H   0  0  0  0  0  0  0  0  0  0  0  0
    3.6091    9.8754   -5.0015 H   0  0  0  0  0  0  0  0  0  0  0  0
    3.1286   11.4808   -4.3097 H   0  0  0  0  0  0  0  0  0  0  0  0
    4.5753    9.9353   -2.6340 H   0  0  0  0  0  0  0  0  0  0  0  0
    5.9613   11.8263   -6.0884 H   0  0  0  0  0  0  0  0  0  0  0  0
    7.1127   10.4477   -6.1127 H   0  0  0  0  0  0  0  0  0  0  0  0
    5.3430   10.1399   -6.1127 H   0  0  0  0  0  0  0  0  0  0  0  0
    7.3173   10.4528   -2.4904 H   0  0  0  0  0  0  0  0  0  0  0  0
    7.7389    9.4051   -3.8872 H   0  0  0  0  0  0  0  0  0  0  0  0
    8.2160   11.1368   -3.8872 H   0  0  0  0  0  0  0  0  0  0  0  0
    0.1066   11.5608   -1.7420 H   0  0  0  0  0  0  0  0  0  0  0  0
    1.7618   10.9425   -0.0964 H   0  0  0  0  0  0  0  0  0  0  0  0
    3.0280   10.7525   -1.3284 H   0  0  0  0  0  0  0  0  0  0  0  0
    2.7760   12.9610    0.4665 H   0  0  0  0  0  0  0  0  0  0  0  0
    3.7881   12.9711   -0.9753 H   0  0  0  0  0  0  0  0  0  0  0  0
    0.9241   13.8486    0.7363 H   0  0  0  0  0  0  0  0  0  0  0  0
   -0.0036   14.8045   -0.4689 H   0  0  0  0  0  0  0  0  0  0  0  0
   -0.1121   13.0114   -0.4689 H   0  0  0  0  0  0  0  0  0  0  0  0
    3.2276   14.9878   -2.1933 H   0  0  0  0  0  0  0  0  0  0  0  0
    3.1339   15.3559    0.3545 H   0  0  0  0  0  0  0  0  0  0  0  0
    3.5457   16.7354   -0.7931 H   0  0  0  0  0  0  0  0  0  0  0  0
    1.9245   17.3211    1.1996 H   0  0  0  0  0  0  0  0  0  0  0  0
   -0.5467   16.0108   -1.7103 H   0  0  0  0  0  0  0  0  0  0  0  0
    0.4176   18.7627   -2.7087 H   0  0  0  0  0  0  0  0  0  0  0  0
   -0.7199   17.6278   -3.5626 H   0  0  0  0  0  0  0  0  0  0  0  0
   -1.9096   19.5040   -2.4747 H   0  0  0  0  0  0  0  0  0  0  0  0
   -2.3599   17.8913   -1.7940 H   0  0  0  0  0  0  0  0  0  0  0  0
   -2.1015   19.4465    0.0151 H   0  0  0  0  0  0  0  0  0  0  0  0
    0.5610   19.9400   -0.1220 H   0  0  0  0  0  0  0  0  0  0  0  0
   -1.7503   16.9045    1.8712 H   0  0  0  0  0  0  0  0  0  0  0  0
   -2.6384   17.3070    0.3626 H   0  0  0  0  0  0  0  0  0  0  0  0
   -1.4201   15.9870    0.3626 H   0  0  0  0  0  0  0  0  0  0  0  0
   -0.5141   18.0702    2.5773 H   0  0  0  0  0  0  0  0  0  0  0  0
    1.0007   18.6121    1.7782 H   0  0  0  0  0  0  0  0  0  0  0  0
   -0.4455   19.6776    1.7782 H   0  0  0  0  0  0  0  0  0  0  0  0
    2.8170   17.7128   -2.5267 H   0  0  0  0  0  0  0  0  0  0  0  0
    3.0355   16.5965   -3.9169 H   0  0  0  0  0  0  0  0  0  0  0  0
    1.6813   17.7767   -3.9169 H   0  0  0  0  0  0  0  0  0  0  0  0
   -0.1434   15.7091   -4.1029 H   0  0  0  0  0  0  0  0  0  0  0  0
    1.5546   15.0710   -4.4814 H   0  0  0  0  0  0  0  0  0  0  0  0
   -0.5509   13.7901   -2.7168 H   0  0  0  0  0  0  0  0  0  0  0  0
    0.1144   13.1996   -4.2904 H   0  0  0  0  0  0  0  0  0  0  0  0
    3.6154   12.8367   -3.0184 H   0  0  0  0  0  0  0  0  0  0  0  0
    2.5705   12.0276   -4.2350 H   0  0  0  0  0  0  0  0  0  0  0  0
    2.7289   13.8169   -4.2350 H   0  0  0  0  0  0  0  0  0  0  0  0
  1  2  1  0
  2  3  1  0
  3  4  1  0
  4  5  1  0
  5  6  1  0
  6  7  1  0
  7  8  1  0
  7  9  1  0
  2 10  1  0
 10 11  1  0
 11 12  1  0
 12 13  1  0
 13 14  1  1
 13 15  1  0
 15 16  1  0
 16 17  1  0
 17 18  2  0
 18 19  1  0
 19 20  1  0
 20 21  1  0
 21 22  1  0
 22 23  1  0
 22 24  1  0
 24 25  1  0
 24 26  1  0
 19 27  1  0
 27 28  1  6
 27 29  1  0
 29 30  1  0
 30 31  1  0
 31 32  1  6
  7  5  1  0
 31 10  1  0
 31 13  1  0
 27 15  1  0
 24 18  1  0
  1 33  1  0
  1 34  1  0
  1 35  1  0
  2 36  1  6
  3 37  1  0
  3 38  1  0
  4 39  1  0
  4 40  1  0
  5 41  1  1
  8 42  1  0
  8 43  1  0
  8 44  1  0
  9 45  1  0
  9 46  1  0
  9 47  1  0
 10 48  1  1
 11 49  1  0
 11 50  1  0
 12 51  1  0
 12 52  1  0
 14 53  1  0
 14 54  1  0
 14 55  1  0
 15 56  1  6
 16 57  1  0
 16 58  1  0
 17 59  1  0
 19 60  1  1
 20 61  1  0
 20 62  1  0
 21 63  1  0
 21 64  1  0
 22 65  1  1
 23 66  1  0
 25 67  1  0
 25 68  1  0
 25 69  1  0
 26 70  1  0
 26 71  1  0
 26 72  1  0
 28 73  1  0
 28 74  1  0
 28 75  1  0
 29 76  1  0
 29 77  1  0
 30 78  1  0
 30 79  1  0
 32 80  1  0
 32 81  1  0
 32 82  1  0
M  END
>  <meeko>  (10) 
{"is_sidechain": [false], "intermolecular_energy": 2.731, "internal_energy": -0.839}

$$$$
EPH_relaxed_0001_pdb2pqr_Repair_346_r2_0001_out
     RDKit          3D

 82 86  0  0  0  0  0  0  0  0999 V2000
    2.8730   11.4030   -5.3800 C   0  0  0  0  0  0  0  0  0  0  0  0
    1.8840   11.1090   -4.2490 C   0  0  2  0  0  0  0  0  0  0  0  0
    0.7640   10.1460   -4.6920 C   0  0  0  0  0  0  0  0  0  0  0  0
   -0.2920    9.8930   -3.6130 C   0  0  0  0  0  0  0  0  0  0  0  0
    0.2440    9.0470   -2.4990 C   0  0  2  0  0  0  0  0  0  0  0  0
   -0.5660    7.9120   -2.1650 O   0  0  0  0  0  0  0  0  0  0  0  0
   -0.4320    8.9170   -1.1470 C   0  0  0  0  0  0  0  0  0  0  0  0
   -1.7040    9.6430   -0.8370 C   0  0  0  0  0  0  0  0  0  0  0  0
    0.3900    8.4810    0.0250 C   0  0  0  0  0  0  0  0  0  0  0  0
    1.2800   12.4100   -3.7350 C   0  0  1  0  0  0  0  0  0  0  0  0
   -0.2620   12.3300   -3.5740 C   0  0  0  0  0  0  0  0  0  0  0  0
   -0.6270   13.1930   -2.3390 C   0  0  0  0  0  0  0  0  0  0  0  0
    0.6560   14.0010   -2.0330 C   0  0  1  0  0  0  0  0  0  0  0  0
    0.6250   15.1970   -3.0350 C   0  0  0  0  0  0  0  0  0  0  0  0
    0.8310   14.4880   -0.5580 C   0  0  2  0  0  0  0  0  0  0  0  0
   -0.2490   15.4650   -0.0610 C   0  0  0  0  0  0  0  0  0  0  0  0
    0.0510   16.9110   -0.2780 C   0  0  0  0  0  0  0  0  0  0  0  0
    1.2570   17.4220   -0.5860 C   0  0  0  0  0  0  0  0  0  0  0  0
    2.5000   16.5240   -0.6510 C   0  0  1  0  0  0  0  0  0  0  0  0
    3.6690   17.2030    0.1100 C   0  0  0  0  0  0  0  0  0  0  0  0
    3.9460   18.6190   -0.3850 C   0  0  0  0  0  0  0  0  0  0  0  0
    2.7040   19.4960   -0.2510 C   0  0  2  0  0  0  0  0  0  0  0  0
    2.4160   19.6780    1.1390 O   0  0  0  0  0  0  0  0  0  0  0  0
    1.4580   18.9090   -0.9700 C   0  0  0  0  0  0  0  0  0  0  0  0
    1.6550   18.9930   -2.5040 C   0  0  0  0  0  0  0  0  0  0  0  0
    0.2420   19.8170   -0.6380 C   0  0  0  0  0  0  0  0  0  0  0  0
    2.2850   15.0110   -0.2160 C   0  0  1  0  0  0  0  0  0  0  0  0
    2.4570   14.8710    1.3270 C   0  0  0  0  0  0  0  0  0  0  0  0
    3.4090   14.1240   -0.8700 C   0  0  0  0  0  0  0  0  0  0  0  0
    3.1270   13.5730   -2.2810 C   0  0  0  0  0  0  0  0  0  0  0  0
    1.7460   12.9120   -2.3460 C   0  0  2  0  0  0  0  0  0  0  0  0
    1.7540   11.6910   -1.3640 C   0  0  0  0  0  0  0  0  0  0  0  0
    3.8443   11.6917   -4.9519 H   0  0  0  0  0  0  0  0  0  0  0  0
    2.9986   10.5033   -6.0004 H   0  0  0  0  0  0  0  0  0  0  0  0
    2.4867   12.2252   -6.0004 H   0  0  0  0  0  0  0  0  0  0  0  0
    2.4432   10.6146   -3.4410 H   0  0  0  0  0  0  0  0  0  0  0  0
    0.2646   10.5758   -5.5728 H   0  0  0  0  0  0  0  0  0  0  0  0
    1.2394    9.1783   -4.9099 H   0  0  0  0  0  0  0  0  0  0  0  0
   -0.6190   10.8591   -3.2010 H   0  0  0  0  0  0  0  0  0  0  0  0
   -1.1331    9.3563   -4.0763 H   0  0  0  0  0  0  0  0  0  0  0  0
    1.2790    9.2834   -2.7868 H   0  0  0  0  0  0  0  0  0  0  0  0
   -1.8290    9.7144    0.2535 H   0  0  0  0  0  0  0  0  0  0  0  0
   -1.6636   10.6541   -1.2684 H   0  0  0  0  0  0  0  0  0  0  0  0
   -2.5540    9.0940   -1.2684 H   0  0  0  0  0  0  0  0  0  0  0  0
   -0.1261    8.7548    0.9570 H   0  0  0  0  0  0  0  0  0  0  0  0
    0.5293    7.3904   -0.0103 H   0  0  0  0  0  0  0  0  0  0  0  0
    1.3710    8.9773   -0.0103 H   0  0  0  0  0  0  0  0  0  0  0  0
    1.6300   13.0973   -4.5193 H   0  0  0  0  0  0  0  0  0  0  0  0
   -0.7579   12.7255   -4.4727 H   0  0  0  0  0  0  0  0  0  0  0  0
   -0.5921   11.2892   -3.4406 H   0  0  0  0  0  0  0  0  0  0  0  0
   -1.4644   13.8675   -2.5707 H   0  0  0  0  0  0  0  0  0  0  0  0
   -0.9480   12.5810   -1.4832 H   0  0  0  0  0  0  0  0  0  0  0  0
    0.6005   16.1437   -2.4753 H   0  0  0  0  0  0  0  0  0  0  0  0
    1.5242   15.1684   -3.6680 H   0  0  0  0  0  0  0  0  0  0  0  0
   -0.2715   15.1219   -3.6680 H   0  0  0  0  0  0  0  0  0  0  0  0
    0.6822   13.5612    0.0155 H   0  0  0  0  0  0  0  0  0  0  0  0
   -1.1871   15.2301   -0.5852 H   0  0  0  0  0  0  0  0  0  0  0  0
   -0.3067   15.3263    1.0287 H   0  0  0  0  0  0  0  0  0  0  0  0
   -0.7849   17.6190   -0.1776 H   0  0  0  0  0  0  0  0  0  0  0  0
    2.7533   16.4308   -1.7174 H   0  0  0  0  0  0  0  0  0  0  0  0
    3.4152   17.2468    1.1794 H   0  0  0  0  0  0  0  0  0  0  0  0
    4.5747   16.6045   -0.0673 H   0  0  0  0  0  0  0  0  0  0  0  0
    4.7611   19.0557    0.2107 H   0  0  0  0  0  0  0  0  0  0  0  0
    4.2291   18.5708   -1.4469 H   0  0  0  0  0  0  0  0  0  0  0  0
    2.9244   20.4561   -0.7405 H   0  0  0  0  0  0  0  0  0  0  0  0
    1.4980   19.9920    1.2110 H   0  0  0  0  0  0  0  0  0  0  0  0
    2.6465   19.4158   -2.7237 H   0  0  0  0  0  0  0  0  0  0  0  0
    1.5815   17.9853   -2.9388 H   0  0  0  0  0  0  0  0  0  0  0  0
    0.8769   19.6376   -2.9388 H   0  0  0  0  0  0  0  0  0  0  0  0
    0.1326   19.8987    0.4535 H   0  0  0  0  0  0  0  0  0  0  0  0
    0.4036   20.8173   -1.0662 H   0  0  0  0  0  0  0  0  0  0  0  0
   -0.6712   19.3780   -1.0662 H   0  0  0  0  0  0  0  0  0  0  0  0
    1.7013   15.4861    1.8375 H   0  0  0  0  0  0  0  0  0  0  0  0
    2.3286   13.8175    1.6162 H   0  0  0  0  0  0  0  0  0  0  0  0
    3.4625   15.2106    1.6162 H   0  0  0  0  0  0  0  0  0  0  0  0
    4.3227   14.7338   -0.9275 H   0  0  0  0  0  0  0  0  0  0  0  0
    3.4866   13.2364   -0.2249 H   0  0  0  0  0  0  0  0  0  0  0  0
    3.1641   14.4007   -3.0046 H   0  0  0  0  0  0  0  0  0  0  0  0
    3.8892   12.8171   -2.5211 H   0  0  0  0  0  0  0  0  0  0  0  0
    1.7516   12.0552   -0.3261 H   0  0  0  0  0  0  0  0  0  0  0  0
    0.8599   11.0744   -1.5383 H   0  0  0  0  0  0  0  0  0  0  0  0
    2.6561   11.0862   -1.5383 H   0  0  0  0  0  0  0  0  0  0  0  0
  1  2  1  0
  2  3  1  0
  3  4  1  0
  4  5  1  0
  5  6  1  0
  6  7  1  0
  7  8  1  0
  7  9  1  0
  2 10  1  0
 10 11  1  0
 11 12  1  0
 12 13  1  0
 13 14  1  6
 13 15  1  0
 15 16  1  0
 16 17  1  0
 17 18  2  0
 18 19  1  0
 19 20  1  0
 20 21  1  0
 21 22  1  0
 22 23  1  0
 22 24  1  0
 24 25  1  0
 24 26  1  0
 19 27  1  0
 27 28  1  1
 27 29  1  0
 29 30  1  0
 30 31  1  0
 31 32  1  1
  7  5  1  0
 31 10  1  0
 31 13  1  0
 27 15  1  0
 24 18  1  0
  1 33  1  0
  1 34  1  0
  1 35  1  0
  2 36  1  1
  3 37  1  0
  3 38  1  0
  4 39  1  0
  4 40  1  0
  5 41  1  1
  8 42  1  0
  8 43  1  0
  8 44  1  0
  9 45  1  0
  9 46  1  0
  9 47  1  0
 10 48  1  6
 11 49  1  0
 11 50  1  0
 12 51  1  0
 12 52  1  0
 14 53  1  0
 14 54  1  0
 14 55  1  0
 15 56  1  1
 16 57  1  0
 16 58  1  0
 17 59  1  0
 19 60  1  6
 20 61  1  0
 20 62  1  0
 21 63  1  0
 21 64  1  0
 22 65  1  6
 23 66  1  0
 25 67  1  0
 25 68  1  0
 25 69  1  0
 26 70  1  0
 26 71  1  0
 26 72  1  0
 28 73  1  0
 28 74  1  0
 28 75  1  0
 29 76  1  0
 29 77  1  0
 30 78  1  0
 30 79  1  0
 32 80  1  0
 32 81  1  0
 32 82  1  0
M  END
>  <meeko>  (11) 
{"is_sidechain": [false], "intermolecular_energy": 2.731, "internal_energy": -0.839}

$$$$
EPH_relaxed_0001_pdb2pqr_Repair_346_r2_0001_out
     RDKit          3D

 82 86  0  0  0  0  0  0  0  0999 V2000
   -2.0880    7.8360   -2.2230 C   0  0  0  0  0  0  0  0  0  0  0  0
   -1.9840    8.4240   -0.8130 C   0  0  2  0  0  0  0  0  0  0  0  0
   -3.3370    8.4040   -0.0730 C   0  0  0  0  0  0  0  0  0  0  0  0
   -4.5480    8.5150   -1.0030 C   0  0  0  0  0  0  0  0  0  0  0  0
   -5.4550    7.3290   -0.8750 C   0  0  2  0  0  0  0  0  0  0  0  0
   -5.5920    6.5480   -2.0690 O   0  0  0  0  0  0  0  0  0  0  0  0
   -6.7810    7.2070   -1.6030 C   0  0  0  0  0  0  0  0  0  0  0  0
   -7.2730    8.2880   -2.5130 C   0  0  0  0  0  0  0  0  0  0  0  0
   -7.8140    6.2720   -1.0570 C   0  0  0  0  0  0  0  0  0  0  0  0
   -1.4500    9.8500   -0.8830 C   0  0  1  0  0  0  0  0  0  0  0  0
   -0.9150   10.3560    0.4830 C   0  0  0  0  0  0  0  0  0  0  0  0
    0.2960   11.2750    0.1780 C   0  0  0  0  0  0  0  0  0  0  0  0
    0.2150   11.5330   -1.3450 C   0  0  1  0  0  0  0  0  0  0  0  0
   -0.8460   12.6670   -1.5040 C   0  0  0  0  0  0  0  0  0  0  0  0
    1.5590   11.8960   -2.0570 C   0  0  2  0  0  0  0  0  0  0  0  0
    2.2180   13.2010   -1.5780 C   0  0  0  0  0  0  0  0  0  0  0  0
    1.8160   14.4300   -2.3250 C   0  0  0  0  0  0  0  0  0  0  0  0
    1.1850   14.4520   -3.5130 C   0  0  0  0  0  0  0  0  0  0  0  0
    0.8970   13.1520   -4.2760 C   0  0  1  0  0  0  0  0  0  0  0  0
    1.2950   13.3280   -5.7650 C   0  0  0  0  0  0  0  0  0  0  0  0
    0.6320   14.5410   -6.4090 C   0  0  0  0  0  0  0  0  0  0  0  0
    0.9890   15.8210   -5.6570 C   0  0  2  0  0  0  0  0  0  0  0  0
    2.3870   16.0770   -5.8200 O   0  0  0  0  0  0  0  0  0  0  0  0
    0.6420   15.7580   -4.1430 C   0  0  0  0  0  0  0  0  0  0  0  0
   -0.8960   15.7840   -3.9590 C   0  0  0  0  0  0  0  0  0  0  0  0
    1.1800   17.0530   -3.4760 C   0  0  0  0  0  0  0  0  0  0  0  0
    1.4950   11.8260   -3.6370 C   0  0  1  0  0  0  0  0  0  0  0  0
    2.9570   11.6090   -4.1320 C   0  0  0  0  0  0  0  0  0  0  0  0
    0.6650   10.5890   -4.1480 C   0  0  0  0  0  0  0  0  0  0  0  0
   -0.5860   10.2070   -3.3330 C   0  0  0  0  0  0  0  0  0  0  0  0
   -0.2600   10.1180   -1.8390 C   0  0  2  0  0  0  0  0  0  0  0  0
    0.7880    8.9700   -1.6460 C   0  0  0  0  0  0  0  0  0  0  0  0
   -2.2792    6.7548   -2.1562 H   0  0  0  0  0  0  0  0  0  0  0  0
   -2.9142    8.3218   -2.7629 H   0  0  0  0  0  0  0  0  0  0  0  0
   -1.1453    8.0090   -2.7629 H   0  0  0  0  0  0  0  0  0  0  0  0
   -1.2868    7.7929   -0.2423 H   0  0  0  0  0  0  0  0  0  0  0  0
   -3.4135    7.4596    0.4857 H   0  0  0  0  0  0  0  0  0  0  0  0
   -3.3561    9.2841    0.5865 H   0  0  0  0  0  0  0  0  0  0  0  0
   -5.1118    9.4243   -0.7474 H   0  0  0  0  0  0  0  0  0  0  0  0
   -4.1820    8.5568   -2.0395 H   0  0  0  0  0  0  0  0  0  0  0  0
   -5.1796    7.2033    0.1825 H   0  0  0  0  0  0  0  0  0  0  0  0
   -7.6549    9.1270   -1.9128 H   0  0  0  0  0  0  0  0  0  0  0  0
   -6.4455    8.6379   -3.1476 H   0  0  0  0  0  0  0  0  0  0  0  0
   -8.0804    7.8938   -3.1476 H   0  0  0  0  0  0  0  0  0  0  0  0
   -7.7866    6.2968    0.0424 H   0  0  0  0  0  0  0  0  0  0  0  0
   -8.8101    6.5818   -1.4060 H   0  0  0  0  0  0  0  0  0  0  0  0
   -7.6047    5.2501   -1.4060 H   0  0  0  0  0  0  0  0  0  0  0  0
   -2.3504   10.3656   -1.2483 H   0  0  0  0  0  0  0  0  0  0  0  0
   -1.6971   10.9227    1.0095 H   0  0  0  0  0  0  0  0  0  0  0  0
   -0.6193    9.5146    1.1269 H   0  0  0  0  0  0  0  0  0  0  0  0
    0.2175   12.2193    0.7367 H   0  0  0  0  0  0  0  0  0  0  0  0
    1.2519   10.8180    0.4738 H   0  0  0  0  0  0  0  0  0  0  0  0
   -1.1674   13.0105   -0.5096 H   0  0  0  0  0  0  0  0  0  0  0  0
   -0.4033   13.5084   -2.0572 H   0  0  0  0  0  0  0  0  0  0  0  0
   -1.7150   12.2812   -2.0572 H   0  0  0  0  0  0  0  0  0  0  0  0
    2.2270   11.0859   -1.7291 H   0  0  0  0  0  0  0  0  0  0  0  0
    1.9559   13.3456   -0.5195 H   0  0  0  0  0  0  0  0  0  0  0  0
    3.2973   13.0786   -1.7518 H   0  0  0  0  0  0  0  0  0  0  0  0
    2.0562   15.3998   -1.8648 H   0  0  0  0  0  0  0  0  0  0  0  0
   -0.1874   12.9856   -4.1961 H   0  0  0  0  0  0  0  0  0  0  0  0
    2.3866   13.4491   -5.8261 H   0  0  0  0  0  0  0  0  0  0  0  0
    0.9553   12.4343   -6.3089 H   0  0  0  0  0  0  0  0  0  0  0  0
    0.9746   14.6279   -7.4507 H   0  0  0  0  0  0  0  0  0  0  0  0
   -0.4590   14.4053   -6.3732 H   0  0  0  0  0  0  0  0  0  0  0  0
    0.3843   16.6346   -6.0842 H   0  0  0  0  0  0  0  0  0  0  0  0
    2.5610   16.1610   -6.7730 H   0  0  0  0  0  0  0  0  0  0  0  0
   -1.1369   15.7881   -2.8857 H   0  0  0  0  0  0  0  0  0  0  0  0
   -1.3064   16.6892   -4.4303 H   0  0  0  0  0  0  0  0  0  0  0  0
   -1.3368   14.8932   -4.4303 H   0  0  0  0  0  0  0  0  0  0  0  0
    1.1361   16.9474   -2.3820 H   0  0  0  0  0  0  0  0  0  0  0  0
    2.2219   17.2199   -3.7868 H   0  0  0  0  0  0  0  0  0  0  0  0
    0.5631   17.9090   -3.7868 H   0  0  0  0  0  0  0  0  0  0  0  0
    3.6267   11.5096   -3.2650 H   0  0  0  0  0  0  0  0  0  0  0  0
    3.0062   10.6937   -4.7401 H   0  0  0  0  0  0  0  0  0  0  0  0
    3.2699   12.4705   -4.7401 H   0  0  0  0  0  0  0  0  0  0  0  0
    0.3386   10.8087   -5.1752 H   0  0  0  0  0  0  0  0  0  0  0  0
    1.3436    9.7284   -4.0540 H   0  0  0  0  0  0  0  0  0  0  0  0
   -1.3629   10.9703   -3.4871 H   0  0  0  0  0  0  0  0  0  0  0  0
   -0.9403    9.2231   -3.6742 H   0  0  0  0  0  0  0  0  0  0  0  0
    0.9472    8.7956   -0.5716 H   0  0  0  0  0  0  0  0  0  0  0  0
    0.4131    8.0485   -2.1154 H   0  0  0  0  0  0  0  0  0  0  0  0
    1.7397    9.2596   -2.1154 H   0  0  0  0  0  0  0  0  0  0  0  0
  1  2  1  0
  2  3  1  0
  3  4  1  0
  4  5  1  0
  5  6  1  0
  6  7  1  0
  7  8  1  0
  7  9  1  0
  2 10  1  0
 10 11  1  0
 11 12  1  0
 12 13  1  0
 13 14  1  1
 13 15  1  0
 15 16  1  0
 16 17  1  0
 17 18  2  0
 18 19  1  0
 19 20  1  0
 20 21  1  0
 21 22  1  0
 22 23  1  0
 22 24  1  0
 24 25  1  0
 24 26  1  0
 19 27  1  0
 27 28  1  6
 27 29  1  0
 29 30  1  0
 30 31  1  0
 31 32  1  6
  7  5  1  0
 31 10  1  0
 31 13  1  0
 27 15  1  0
 24 18  1  0
  1 33  1  0
  1 34  1  0
  1 35  1  0
  2 36  1  1
  3 37  1  0
  3 38  1  0
  4 39  1  0
  4 40  1  0
  5 41  1  1
  8 42  1  0
  8 43  1  0
  8 44  1  0
  9 45  1  0
  9 46  1  0
  9 47  1  0
 10 48  1  6
 11 49  1  0
 11 50  1  0
 12 51  1  0
 12 52  1  0
 14 53  1  0
 14 54  1  0
 14 55  1  0
 15 56  1  1
 16 57  1  0
 16 58  1  0
 17 59  1  0
 19 60  1  6
 20 61  1  0
 20 62  1  0
 21 63  1  0
 21 64  1  0
 22 65  1  6
 23 66  1  0
 25 67  1  0
 25 68  1  0
 25 69  1  0
 26 70  1  0
 26 71  1  0
 26 72  1  0
 28 73  1  0
 28 74  1  0
 28 75  1  0
 29 76  1  0
 29 77  1  0
 30 78  1  0
 30 79  1  0
 32 80  1  0
 32 81  1  0
 32 82  1  0
M  END
>  <meeko>  (12) 
{"is_sidechain": [false], "intermolecular_energy": 2.731, "internal_energy": -0.839}

$$$$
EPH_relaxed_0001_pdb2pqr_Repair_346_r2_0001_out
     RDKit          3D

 82 86  0  0  0  0  0  0  0  0999 V2000
   -0.8240   16.2940   -5.6430 C   0  0  0  0  0  0  0  0  0  0  0  0
    0.2320   15.6020   -6.5100 C   0  0  2  0  0  0  0  0  0  0  0  0
   -0.2120   15.4810   -7.9810 C   0  0  0  0  0  0  0  0  0  0  0  0
    0.4140   16.5310   -8.9020 C   0  0  0  0  0  0  0  0  0  0  0  0
    1.8120   16.1610   -9.2960 C   0  0  2  0  0  0  0  0  0  0  0  0
    2.2620   16.7440  -10.5260 O   0  0  0  0  0  0  0  0  0  0  0  0
    2.1420   15.3120  -10.5100 C   0  0  0  0  0  0  0  0  0  0  0  0
    1.0670   14.7810  -11.4060 C   0  0  0  0  0  0  0  0  0  0  0  0
    3.4560   14.5960  -10.5470 C   0  0  0  0  0  0  0  0  0  0  0  0
    0.5460   14.2220   -5.9450 C   0  0  1  0  0  0  0  0  0  0  0  0
    1.7520   13.5470   -6.6510 C   0  0  0  0  0  0  0  0  0  0  0  0
    2.5020   12.7270   -5.5700 C   0  0  0  0  0  0  0  0  0  0  0  0
    1.5300   12.6860   -4.3680 C   0  0  1  0  0  0  0  0  0  0  0  0
    0.5180   11.5470   -4.7090 C   0  0  0  0  0  0  0  0  0  0  0  0
    2.1800   12.4780   -2.9610 C   0  0  2  0  0  0  0  0  0  0  0  0
    2.9240   11.1440   -2.7760 C   0  0  0  0  0  0  0  0  0  0  0  0
    2.0950   10.0200   -2.2490 C   0  0  0  0  0  0  0  0  0  0  0  0
    0.8870   10.1440   -1.6690 C   0  0  0  0  0  0  0  0  0  0  0  0
    0.2770   11.5270   -1.4070 C   0  0  1  0  0  0  0  0  0  0  0  0
   -0.2830   11.5810    0.0390 C   0  0  0  0  0  0  0  0  0  0  0  0
   -1.2620   10.4470    0.3290 C   0  0  0  0  0  0  0  0  0  0  0  0
   -0.6020    9.0880    0.1140 C   0  0  2  0  0  0  0  0  0  0  0  0
    0.4190    8.9100    1.1000 O   0  0  0  0  0  0  0  0  0  0  0  0
    0.0080    8.9210   -1.3060 C   0  0  0  0  0  0  0  0  0  0  0  0
   -1.1290    8.8120   -2.3520 C   0  0  0  0  0  0  0  0  0  0  0  0
    0.7650    7.5660   -1.3440 C   0  0  0  0  0  0  0  0  0  0  0  0
    1.2070   12.7700   -1.7480 C   0  0  1  0  0  0  0  0  0  0  0  0
    2.1110   13.1100   -0.5240 C   0  0  0  0  0  0  0  0  0  0  0  0
    0.3030   14.0350   -1.9970 C   0  0  0  0  0  0  0  0  0  0  0  0
   -0.2100   14.2500   -3.4340 C   0  0  0  0  0  0  0  0  0  0  0  0
    0.9330   14.1380   -4.4470 C   0  0  2  0  0  0  0  0  0  0  0  0
    1.9560   15.2850   -4.1430 C   0  0  0  0  0  0  0  0  0  0  0  0
   -0.5858   16.1379   -4.5805 H   0  0  0  0  0  0  0  0  0  0  0  0
   -0.8301   17.3718   -5.8629 H   0  0  0  0  0  0  0  0  0  0  0  0
   -1.8146   15.8693   -5.8629 H   0  0  0  0  0  0  0  0  0  0  0  0
    1.1373   16.2265   -6.4894 H   0  0  0  0  0  0  0  0  0  0  0  0
    0.0718   14.4837   -8.3483 H   0  0  0  0  0  0  0  0  0  0  0  0
   -1.2998   15.6429   -8.0023 H   0  0  0  0  0  0  0  0  0  0  0  0
   -0.2004   16.6202   -9.8101 H   0  0  0  0  0  0  0  0  0  0  0  0
    0.4530   17.4855   -8.3567 H   0  0  0  0  0  0  0  0  0  0  0  0
    2.1155   16.0898   -8.2411 H   0  0  0  0  0  0  0  0  0  0  0  0
    0.2470   14.3760  -10.7947 H   0  0  0  0  0  0  0  0  0  0  0  0
    0.6842   15.5937  -12.0409 H   0  0  0  0  0  0  0  0  0  0  0  0
    1.4797   13.9831  -12.0409 H   0  0  0  0  0  0  0  0  0  0  0  0
    3.8004   14.4083   -9.5193 H   0  0  0  0  0  0  0  0  0  0  0  0
    3.3369   13.6381  -11.0745 H   0  0  0  0  0  0  0  0  0  0  0  0
    4.1964   15.2154  -11.0745 H   0  0  0  0  0  0  0  0  0  0  0  0
   -0.4236   13.7301   -6.1117 H   0  0  0  0  0  0  0  0  0  0  0  0
    1.3980   12.8823   -7.4527 H   0  0  0  0  0  0  0  0  0  0  0  0
    2.4139   14.2983   -7.1065 H   0  0  0  0  0  0  0  0  0  0  0  0
    2.7151   11.7104   -5.9320 H   0  0  0  0  0  0  0  0  0  0  0  0
    3.4726   13.1727   -5.3068 H   0  0  0  0  0  0  0  0  0  0  0  0
    0.1299   11.1102   -3.7770 H   0  0  0  0  0  0  0  0  0  0  0  0
   -0.3159   11.9607   -5.2951 H   0  0  0  0  0  0  0  0  0  0  0  0
    1.0270   10.7676   -5.2951 H   0  0  0  0  0  0  0  0  0  0  0  0
    2.9560   13.2574   -2.9428 H   0  0  0  0  0  0  0  0  0  0  0  0
    3.3261   10.8405   -3.7538 H   0  0  0  0  0  0  0  0  0  0  0  0
    3.7004   11.3306   -2.0194 H   0  0  0  0  0  0  0  0  0  0  0  0
    2.5064    9.0042   -2.3427 H   0  0  0  0  0  0  0  0  0  0  0  0
   -0.5449   11.6389   -2.1295 H   0  0  0  0  0  0  0  0  0  0  0  0
    0.5572   11.5111    0.7456 H   0  0  0  0  0  0  0  0  0  0  0  0
   -0.8278   12.5300    0.1513 H   0  0  0  0  0  0  0  0  0  0  0  0
   -1.6003   10.5217    1.3730 H   0  0  0  0  0  0  0  0  0  0  0  0
   -2.1155   10.5355   -0.3593 H   0  0  0  0  0  0  0  0  0  0  0  0
   -1.3854    8.3220    0.2109 H   0  0  0  0  0  0  0  0  0  0  0  0
    0.9120    9.7460    1.1680 H   0  0  0  0  0  0  0  0  0  0  0  0
   -2.0954    8.7194   -1.8348 H   0  0  0  0  0  0  0  0  0  0  0  0
   -1.1353    9.7137   -2.9821 H   0  0  0  0  0  0  0  0  0  0  0  0
   -0.9639    7.9256   -2.9821 H   0  0  0  0  0  0  0  0  0  0  0  0
    0.9562    7.2238   -0.3162 H   0  0  0  0  0  0  0  0  0  0  0  0
    0.1535    6.8190   -1.8714 H   0  0  0  0  0  0  0  0  0  0  0  0
    1.7217    7.6951   -1.8714 H   0  0  0  0  0  0  0  0  0  0  0  0
    1.5616   12.9033    0.4063 H   0  0  0  0  0  0  0  0  0  0  0  0
    3.0208   12.4926   -0.5574 H   0  0  0  0  0  0  0  0  0  0  0  0
    2.3884   14.1739   -0.5574 H   0  0  0  0  0  0  0  0  0  0  0  0
   -0.5747   13.9515   -1.3393 H   0  0  0  0  0  0  0  0  0  0  0  0
    0.9528   14.8983   -1.7910 H   0  0  0  0  0  0  0  0  0  0  0  0
   -0.9694   13.4878   -3.6627 H   0  0  0  0  0  0  0  0  0  0  0  0
   -0.6432   15.2587   -3.5043 H   0  0  0  0  0  0  0  0  0  0  0  0
    2.0615   15.4033   -3.0545 H   0  0  0  0  0  0  0  0  0  0  0  0
    2.9327   15.0307   -4.5805 H   0  0  0  0  0  0  0  0  0  0  0  0
    1.5921   16.2264   -4.5805 H   0  0  0  0  0  0  0  0  0  0  0  0
  1  2  1  0
  2  3  1  0
  3  4  1  0
  4  5  1  0
  5  6  1  0
  6  7  1  0
  7  8  1  0
  7  9  1  0
  2 10  1  0
 10 11  1  0
 11 12  1  0
 12 13  1  0
 13 14  1  6
 13 15  1  0
 15 16  1  0
 16 17  1  0
 17 18  2  0
 18 19  1  0
 19 20  1  0
 20 21  1  0
 21 22  1  0
 22 23  1  0
 22 24  1  0
 24 25  1  0
 24 26  1  0
 19 27  1  0
 27 28  1  1
 27 29  1  0
 29 30  1  0
 30 31  1  0
 31 32  1  1
  7  5  1  0
 31 10  1  0
 31 13  1  0
 27 15  1  0
 24 18  1  0
  1 33  1  0
  1 34  1  0
  1 35  1  0
  2 36  1  6
  3 37  1  0
  3 38  1  0
  4 39  1  0
  4 40  1  0
  5 41  1  1
  8 42  1  0
  8 43  1  0
  8 44  1  0
  9 45  1  0
  9 46  1  0
  9 47  1  0
 10 48  1  1
 11 49  1  0
 11 50  1  0
 12 51  1  0
 12 52  1  0
 14 53  1  0
 14 54  1  0
 14 55  1  0
 15 56  1  1
 16 57  1  0
 16 58  1  0
 17 59  1  0
 19 60  1  6
 20 61  1  0
 20 62  1  0
 21 63  1  0
 21 64  1  0
 22 65  1  1
 23 66  1  0
 25 67  1  0
 25 68  1  0
 25 69  1  0
 26 70  1  0
 26 71  1  0
 26 72  1  0
 28 73  1  0
 28 74  1  0
 28 75  1  0
 29 76  1  0
 29 77  1  0
 30 78  1  0
 30 79  1  0
 32 80  1  0
 32 81  1  0
 32 82  1  0
M  END
>  <meeko>  (13) 
{"is_sidechain": [false], "intermolecular_energy": 2.731, "internal_energy": -0.839}

$$$$
EPH_relaxed_0001_pdb2pqr_Repair_346_r2_0001_out
     RDKit          3D

 82 86  0  0  0  0  0  0  0  0999 V2000
   -3.8140    7.1790   -3.4520 C   0  0  0  0  0  0  0  0  0  0  0  0
   -3.7600    7.2440   -1.9230 C   0  0  2  0  0  0  0  0  0  0  0  0
   -5.1500    7.0530   -1.2840 C   0  0  0  0  0  0  0  0  0  0  0  0
   -6.2960    7.0280   -2.2990 C   0  0  0  0  0  0  0  0  0  0  0  0
   -7.6150    7.3240   -1.6530 C   0  0  2  0  0  0  0  0  0  0  0  0
   -8.3050    6.1740   -1.1450 O   0  0  0  0  0  0  0  0  0  0  0  0
   -8.9470    6.8730   -2.2250 C   0  0  0  0  0  0  0  0  0  0  0  0
   -9.0240    6.0880   -3.4960 C   0  0  0  0  0  0  0  0  0  0  0  0
  -10.1860    7.6060   -1.8160 C   0  0  0  0  0  0  0  0  0  0  0  0
   -3.1610    8.5740   -1.4800 C   0  0  1  0  0  0  0  0  0  0  0  0
   -3.7500    9.0760   -0.1350 C   0  0  0  0  0  0  0  0  0  0  0  0
   -2.6000    9.7960    0.6160 C   0  0  0  0  0  0  0  0  0  0  0  0
   -1.4920    9.9760   -0.4480 C   0  0  1  0  0  0  0  0  0  0  0  0
   -1.9190   11.2370   -1.2630 C   0  0  0  0  0  0  0  0  0  0  0  0
   -0.0300   10.1040    0.0920 C   0  0  2  0  0  0  0  0  0  0  0  0
    0.2290   11.3280    0.9870 C   0  0  0  0  0  0  0  0  0  0  0  0
    0.6840   12.5570    0.2720 C   0  0  0  0  0  0  0  0  0  0  0  0
    1.1500   12.6000   -0.9900 C   0  0  0  0  0  0  0  0  0  0  0  0
    1.3470   11.3130   -1.8010 C   0  0  1  0  0  0  0  0  0  0  0  0
    2.7350   11.3440   -2.4940 C   0  0  0  0  0  0  0  0  0  0  0  0
    2.9400   12.6010   -3.3350 C   0  0  0  0  0  0  0  0  0  0  0  0
    2.7940   13.8580   -2.4810 C   0  0  2  0  0  0  0  0  0  0  0  0
    3.8710   13.9050   -1.5410 O   0  0  0  0  0  0  0  0  0  0  0  0
    1.4370   13.9320   -1.7260 C   0  0  0  0  0  0  0  0  0  0  0  0
    0.2920   14.1850   -2.7380 C   0  0  0  0  0  0  0  0  0  0  0  0
    1.4760   15.1730   -0.7950 C   0  0  0  0  0  0  0  0  0  0  0  0
    1.0870    9.9540   -1.0190 C   0  0  1  0  0  0  0  0  0  0  0  0
    2.3870    9.5040   -0.2850 C   0  0  0  0  0  0  0  0  0  0  0  0
    0.7490    8.8200   -2.0580 C   0  0  0  0  0  0  0  0  0  0  0  0
   -0.7300    8.6650   -2.4610 C   0  0  0  0  0  0  0  0  0  0  0  0
   -1.6330    8.6160   -1.2240 C   0  0  2  0  0  0  0  0  0  0  0  0
   -1.2420    7.3440   -0.3970 C   0  0  0  0  0  0  0  0  0  0  0  0
   -4.4886    6.3669   -3.7609 H   0  0  0  0  0  0  0  0  0  0  0  0
   -4.1869    8.1356   -3.8467 H   0  0  0  0  0  0  0  0  0  0  0  0
   -2.8052    6.9878   -3.8467 H   0  0  0  0  0  0  0  0  0  0  0  0
   -3.1224    6.4163   -1.5791 H   0  0  0  0  0  0  0  0  0  0  0  0
   -5.1517    6.0999   -0.7348 H   0  0  0  0  0  0  0  0  0  0  0  0
   -5.3226    7.9172   -0.6257 H   0  0  0  0  0  0  0  0  0  0  0  0
   -6.1016    7.7832   -3.0748 H   0  0  0  0  0  0  0  0  0  0  0  0
   -6.3463    6.0192   -2.7346 H   0  0  0  0  0  0  0  0  0  0  0  0
   -7.2534    8.3046   -1.3099 H   0  0  0  0  0  0  0  0  0  0  0  0
   -9.1289    5.0186   -3.2607 H   0  0  0  0  0  0  0  0  0  0  0  0
   -9.8937    6.4217   -4.0810 H   0  0  0  0  0  0  0  0  0  0  0  0
   -8.1060    6.2464   -4.0810 H   0  0  0  0  0  0  0  0  0  0  0  0
  -10.2456    7.6413   -0.7182 H   0  0  0  0  0  0  0  0  0  0  0  0
  -10.1542    8.6307   -2.2146 H   0  0  0  0  0  0  0  0  0  0  0  0
  -11.0688    7.0847   -2.2146 H   0  0  0  0  0  0  0  0  0  0  0  0
   -3.4130    9.1903   -2.3556 H   0  0  0  0  0  0  0  0  0  0  0  0
   -4.5774    9.7764   -0.3217 H   0  0  0  0  0  0  0  0  0  0  0  0
   -4.1469    8.2396    0.4591 H   0  0  0  0  0  0  0  0  0  0  0  0
   -2.9357   10.7721    0.9961 H   0  0  0  0  0  0  0  0  0  0  0  0
   -2.2509    9.2259    1.4896 H   0  0  0  0  0  0  0  0  0  0  0  0
   -2.1930   12.0461   -0.5699 H   0  0  0  0  0  0  0  0  0  0  0  0
   -1.0818   11.5648   -1.8967 H   0  0  0  0  0  0  0  0  0  0  0  0
   -2.7832   10.9887   -1.8967 H   0  0  0  0  0  0  0  0  0  0  0  0
    0.0560    9.2275    0.7511 H   0  0  0  0  0  0  0  0  0  0  0  0
   -0.7066   11.5680    1.5135 H   0  0  0  0  0  0  0  0  0  0  0  0
    1.0528   11.0446    1.6586 H   0  0  0  0  0  0  0  0  0  0  0  0
    0.6342   13.5077    0.8231 H   0  0  0  0  0  0  0  0  0  0  0  0
    0.5507   11.3078   -2.5598 H   0  0  0  0  0  0  0  0  0  0  0  0
    3.5164   11.3055   -1.7207 H   0  0  0  0  0  0  0  0  0  0  0  0
    2.7912   10.4772   -3.1690 H   0  0  0  0  0  0  0  0  0  0  0  0
    3.9480   12.5796   -3.7748 H   0  0  0  0  0  0  0  0  0  0  0  0
    2.1759   12.6230   -4.1260 H   0  0  0  0  0  0  0  0  0  0  0  0
    2.8222   14.7228   -3.1602 H   0  0  0  0  0  0  0  0  0  0  0  0
    3.9890   13.0080   -1.1840 H   0  0  0  0  0  0  0  0  0  0  0  0
   -0.6407   14.3911   -2.1924 H   0  0  0  0  0  0  0  0  0  0  0  0
    0.5455   15.0488   -3.3701 H   0  0  0  0  0  0  0  0  0  0  0  0
    0.1580   13.2948   -3.3701 H   0  0  0  0  0  0  0  0  0  0  0  0
    1.4657   14.8444    0.2547 H   0  0  0  0  0  0  0  0  0  0  0  0
    2.3927   15.7489   -0.9899 H   0  0  0  0  0  0  0  0  0  0  0  0
    0.5973   15.8054   -0.9899 H   0  0  0  0  0  0  0  0  0  0  0  0
    2.2314    9.5579    0.8026 H   0  0  0  0  0  0  0  0  0  0  0  0
    2.6296    8.4696   -0.5699 H   0  0  0  0  0  0  0  0  0  0  0  0
    3.2172   10.1671   -0.5699 H   0  0  0  0  0  0  0  0  0  0  0  0
    1.3235    9.0254   -2.9733 H   0  0  0  0  0  0  0  0  0  0  0  0
    1.0093    7.8789   -1.5515 H   0  0  0  0  0  0  0  0  0  0  0  0
   -1.0238    9.5201   -3.0874 H   0  0  0  0  0  0  0  0  0  0  0  0
   -0.8453    7.7229   -3.0171 H   0  0  0  0  0  0  0  0  0  0  0  0
   -1.3113    7.5696    0.6774 H   0  0  0  0  0  0  0  0  0  0  0  0
   -1.9286    6.5208   -0.6439 H   0  0  0  0  0  0  0  0  0  0  0  0
   -0.2116    7.0486   -0.6439 H   0  0  0  0  0  0  0  0  0  0  0  0
  1  2  1  0
  2  3  1  0
  3  4  1  0
  4  5  1  0
  5  6  1  0
  6  7  1  0
  7  8  1  0
  7  9  1  0
  2 10  1  0
 10 11  1  0
 11 12  1  0
 12 13  1  0
 13 14  1  6
 13 15  1  0
 15 16  1  0
 16 17  1  0
 17 18  2  0
 18 19  1  0
 19 20  1  0
 20 21  1  0
 21 22  1  0
 22 23  1  0
 22 24  1  0
 24 25  1  0
 24 26  1  0
 19 27  1  0
 27 28  1  1
 27 29  1  0
 29 30  1  0
 30 31  1  0
 31 32  1  1
  7  5  1  0
 31 10  1  0
 31 13  1  0
 27 15  1  0
 24 18  1  0
  1 33  1  0
  1 34  1  0
  1 35  1  0
  2 36  1  1
  3 37  1  0
  3 38  1  0
  4 39  1  0
  4 40  1  0
  5 41  1  1
  8 42  1  0
  8 43  1  0
  8 44  1  0
  9 45  1  0
  9 46  1  0
  9 47  1  0
 10 48  1  6
 11 49  1  0
 11 50  1  0
 12 51  1  0
 12 52  1  0
 14 53  1  0
 14 54  1  0
 14 55  1  0
 15 56  1  1
 16 57  1  0
 16 58  1  0
 17 59  1  0
 19 60  1  6
 20 61  1  0
 20 62  1  0
 21 63  1  0
 21 64  1  0
 22 65  1  6
 23 66  1  0
 25 67  1  0
 25 68  1  0
 25 69  1  0
 26 70  1  0
 26 71  1  0
 26 72  1  0
 28 73  1  0
 28 74  1  0
 28 75  1  0
 29 76  1  0
 29 77  1  0
 30 78  1  0
 30 79  1  0
 32 80  1  0
 32 81  1  0
 32 82  1  0
M  END
>  <meeko>  (14) 
{"is_sidechain": [false], "intermolecular_energy": 2.731, "internal_energy": -0.839}

$$$$
EPH_relaxed_0001_pdb2pqr_Repair_346_r2_0001_out
     RDKit          3D

 82 86  0  0  0  0  0  0  0  0999 V2000
    3.6870   18.9510   -2.0130 C   0  0  0  0  0  0  0  0  0  0  0  0
    2.6310   18.0370   -2.6400 C   0  0  2  0  0  0  0  0  0  0  0  0
    1.2350   18.6910   -2.6600 C   0  0  0  0  0  0  0  0  0  0  0  0
    1.1510   19.9890   -1.8520 C   0  0  0  0  0  0  0  0  0  0  0  0
    0.3340   19.8150   -0.6070 C   0  0  2  0  0  0  0  0  0  0  0  0
   -0.4780   18.6330   -0.5840 O   0  0  0  0  0  0  0  0  0  0  0  0
   -1.1820   19.8860   -0.5850 C   0  0  0  0  0  0  0  0  0  0  0  0
   -1.9690   20.1410   -1.8320 C   0  0  0  0  0  0  0  0  0  0  0  0
   -1.8650   20.1940    0.7110 C   0  0  0  0  0  0  0  0  0  0  0  0
    2.5760   16.7140   -1.8870 C   0  0  1  0  0  0  0  0  0  0  0  0
    2.6090   16.9020   -0.3460 C   0  0  0  0  0  0  0  0  0  0  0  0
    1.7150   15.7890    0.2600 C   0  0  0  0  0  0  0  0  0  0  0  0
    1.4680   14.8080   -0.9100 C   0  0  1  0  0  0  0  0  0  0  0  0
    2.7500   13.9200   -0.9660 C   0  0  0  0  0  0  0  0  0  0  0  0
    0.1690   13.9410   -0.8210 C   0  0  2  0  0  0  0  0  0  0  0  0
    0.1060   12.9810    0.3790 C   0  0  0  0  0  0  0  0  0  0  0  0
    0.6630   11.6170    0.1360 C   0  0  0  0  0  0  0  0  0  0  0  0
    0.9320   11.0860   -1.0720 C   0  0  0  0  0  0  0  0  0  0  0  0
    0.5820   11.8430   -2.3600 C   0  0  1  0  0  0  0  0  0  0  0  0
   -0.1190   10.8780   -3.3530 C   0  0  0  0  0  0  0  0  0  0  0  0
    0.6980    9.6180   -3.6190 C   0  0  0  0  0  0  0  0  0  0  0  0
    0.9760    8.8630   -2.3220 C   0  0  2  0  0  0  0  0  0  0  0  0
   -0.2610    8.3580   -1.8090 O   0  0  0  0  0  0  0  0  0  0  0  0
    1.6720    9.7370   -1.2420 C   0  0  0  0  0  0  0  0  0  0  0  0
    3.1300   10.0330   -1.6720 C   0  0  0  0  0  0  0  0  0  0  0  0
    1.7660    8.8990    0.0620 C   0  0  0  0  0  0  0  0  0  0  0  0
   -0.2120   13.2060   -2.1700 C   0  0  1  0  0  0  0  0  0  0  0  0
   -1.7450   12.9240   -2.1050 C   0  0  0  0  0  0  0  0  0  0  0  0
    0.0190   14.1160   -3.4330 C   0  0  0  0  0  0  0  0  0  0  0  0
    1.2530   15.0380   -3.4100 C   0  0  0  0  0  0  0  0  0  0  0  0
    1.3230   15.8260   -2.0980 C   0  0  2  0  0  0  0  0  0  0  0  0
    0.0560   16.7450   -2.0240 C   0  0  0  0  0  0  0  0  0  0  0  0
    3.6188   18.8919   -0.9167 H   0  0  0  0  0  0  0  0  0  0  0  0
    4.6883   18.6298   -2.3359 H   0  0  0  0  0  0  0  0  0  0  0  0
    3.5127   19.9880   -2.3359 H   0  0  0  0  0  0  0  0  0  0  0  0
    2.9262   17.8580   -3.6844 H   0  0  0  0  0  0  0  0  0  0  0  0
    0.9713   18.9145   -3.7043 H   0  0  0  0  0  0  0  0  0  0  0  0
    0.5393   17.9773   -2.1945 H   0  0  0  0  0  0  0  0  0  0  0  0
    2.1678   20.3002   -1.5706 H   0  0  0  0  0  0  0  0  0  0  0  0
    0.6644   20.7517   -2.4778 H   0  0  0  0  0  0  0  0  0  0  0  0
    1.1051   20.3149   -0.0024 H   0  0  0  0  0  0  0  0  0  0  0  0
   -2.9840   20.4699   -1.5642 H   0  0  0  0  0  0  0  0  0  0  0  0
   -1.4739   20.9247   -2.4242 H   0  0  0  0  0  0  0  0  0  0  0  0
   -2.0276   19.2159   -2.4242 H   0  0  0  0  0  0  0  0  0  0  0  0
   -1.2138   19.9003    1.5475 H   0  0  0  0  0  0  0  0  0  0  0  0
   -2.0723   21.2727    0.7689 H   0  0  0  0  0  0  0  0  0  0  0  0
   -2.8107   19.6352    0.7689 H   0  0  0  0  0  0  0  0  0  0  0  0
    3.4623   16.2221   -2.3142 H   0  0  0  0  0  0  0  0  0  0  0  0
    3.6397   16.8041    0.0255 H   0  0  0  0  0  0  0  0  0  0  0  0
    2.2439   17.9001   -0.0621 H   0  0  0  0  0  0  0  0  0  0  0  0
    2.2324   15.2831    1.0885 H   0  0  0  0  0  0  0  0  0  0  0  0
    0.7777   16.1867    0.6763 H   0  0  0  0  0  0  0  0  0  0  0  0
    3.0818   13.6902    0.0573 H   0  0  0  0  0  0  0  0  0  0  0  0
    2.5245   12.9836   -1.4974 H   0  0  0  0  0  0  0  0  0  0  0  0
    3.5473   14.4603   -1.4974 H   0  0  0  0  0  0  0  0  0  0  0  0
   -0.6082   14.6977   -0.6383 H   0  0  0  0  0  0  0  0  0  0  0  0
    0.6694   13.4353    1.2074 H   0  0  0  0  0  0  0  0  0  0  0  0
   -0.9625   12.8382    0.5981 H   0  0  0  0  0  0  0  0  0  0  0  0
    0.8711   10.9934    1.0180 H   0  0  0  0  0  0  0  0  0  0  0  0
    1.5390   12.1834   -2.7823 H   0  0  0  0  0  0  0  0  0  0  0  0
   -1.0922   10.5850   -2.9324 H   0  0  0  0  0  0  0  0  0  0  0  0
   -0.2348   11.4091   -4.3093 H   0  0  0  0  0  0  0  0  0  0  0  0
    0.1378    8.9637   -4.3032 H   0  0  0  0  0  0  0  0  0  0  0  0
    1.6589    9.9112   -4.0669 H   0  0  0  0  0  0  0  0  0  0  0  0
    1.6717    8.0445   -2.5587 H   0  0  0  0  0  0  0  0  0  0  0  0
   -0.6410    7.7700   -2.4830 H   0  0  0  0  0  0  0  0  0  0  0  0
    3.7574   10.1604   -0.7775 H   0  0  0  0  0  0  0  0  0  0  0  0
    3.5128    9.1942   -2.2720 H   0  0  0  0  0  0  0  0  0  0  0  0
    3.1554   10.9546   -2.2720 H   0  0  0  0  0  0  0  0  0  0  0  0
    1.6911    9.5666    0.9331 H   0  0  0  0  0  0  0  0  0  0  0  0
    0.9442    8.1683    0.0883 H   0  0  0  0  0  0  0  0  0  0  0  0
    2.7293    8.3685    0.0883 H   0  0  0  0  0  0  0  0  0  0  0  0
   -2.0628   12.8655   -1.0535 H   0  0  0  0  0  0  0  0  0  0  0  0
   -2.2890   13.7371   -2.6078 H   0  0  0  0  0  0  0  0  0  0  0  0
   -1.9641   11.9705   -2.6078 H   0  0  0  0  0  0  0  0  0  0  0  0
    0.1145   13.4544   -4.3066 H   0  0  0  0  0  0  0  0  0  0  0  0
   -0.8462   14.7947   -3.4602 H   0  0  0  0  0  0  0  0  0  0  0  0
    2.1615   14.4262   -3.5114 H   0  0  0  0  0  0  0  0  0  0  0  0
    1.1744   15.7508   -4.2441 H   0  0  0  0  0  0  0  0  0  0  0  0
   -0.2008   16.9313   -0.9707 H   0  0  0  0  0  0  0  0  0  0  0  0
    0.2670   17.7015   -2.5247 H   0  0  0  0  0  0  0  0  0  0  0  0
   -0.7876   16.2474   -2.5247 H   0  0  0  0  0  0  0  0  0  0  0  0
  1  2  1  0
  2  3  1  0
  3  4  1  0
  4  5  1  0
  5  6  1  0
  6  7  1  0
  7  8  1  0
  7  9  1  0
  2 10  1  0
 10 11  1  0
 11 12  1  0
 12 13  1  0
 13 14  1  6
 13 15  1  0
 15 16  1  0
 16 17  1  0
 17 18  2  0
 18 19  1  0
 19 20  1  0
 20 21  1  0
 21 22  1  0
 22 23  1  0
 22 24  1  0
 24 25  1  0
 24 26  1  0
 19 27  1  0
 27 28  1  1
 27 29  1  0
 29 30  1  0
 30 31  1  0
 31 32  1  1
  7  5  1  0
 31 10  1  0
 31 13  1  0
 27 15  1  0
 24 18  1  0
  1 33  1  0
  1 34  1  0
  1 35  1  0
  2 36  1  6
  3 37  1  0
  3 38  1  0
  4 39  1  0
  4 40  1  0
  5 41  1  1
  8 42  1  0
  8 43  1  0
  8 44  1  0
  9 45  1  0
  9 46  1  0
  9 47  1  0
 10 48  1  6
 11 49  1  0
 11 50  1  0
 12 51  1  0
 12 52  1  0
 14 53  1  0
 14 54  1  0
 14 55  1  0
 15 56  1  1
 16 57  1  0
 16 58  1  0
 17 59  1  0
 19 60  1  6
 20 61  1  0
 20 62  1  0
 21 63  1  0
 21 64  1  0
 22 65  1  6
 23 66  1  0
 25 67  1  0
 25 68  1  0
 25 69  1  0
 26 70  1  0
 26 71  1  0
 26 72  1  0
 28 73  1  0
 28 74  1  0
 28 75  1  0
 29 76  1  0
 29 77  1  0
 30 78  1  0
 30 79  1  0
 32 80  1  0
 32 81  1  0
 32 82  1  0
M  END
>  <meeko>  (15) 
{"is_sidechain": [false], "intermolecular_energy": 2.731, "internal_energy": -0.839}

$$$$
EPH_relaxed_0001_pdb2pqr_Repair_346_r2_0001_out
     RDKit          3D

 82 86  0  0  0  0  0  0  0  0999 V2000
   -0.2660   17.2420   -3.2450 C   0  0  0  0  0  0  0  0  0  0  0  0
   -0.0050   17.0170   -1.7530 C   0  0  2  0  0  0  0  0  0  0  0  0
    0.4520   18.3070   -1.0420 C   0  0  0  0  0  0  0  0  0  0  0  0
    0.9240   18.0830    0.3970 C   0  0  0  0  0  0  0  0  0  0  0  0
    1.7150   19.2480    0.9090 C   0  0  2  0  0  0  0  0  0  0  0  0
    2.6780   19.7700   -0.0150 O   0  0  0  0  0  0  0  0  0  0  0  0
    3.2050   19.1900    1.1900 C   0  0  0  0  0  0  0  0  0  0  0  0
    3.9920   17.9360    0.9670 C   0  0  0  0  0  0  0  0  0  0  0  0
    3.7950   20.1910    2.1330 C   0  0  0  0  0  0  0  0  0  0  0  0
    1.0390   15.9220   -1.5670 C   0  0  1  0  0  0  0  0  0  0  0  0
    1.1320   15.4290   -0.0990 C   0  0  0  0  0  0  0  0  0  0  0  0
    1.4460   13.9120   -0.1560 C   0  0  0  0  0  0  0  0  0  0  0  0
    1.8490   13.6520   -1.6260 C   0  0  1  0  0  0  0  0  0  0  0  0
    3.3430   14.0920   -1.7170 C   0  0  0  0  0  0  0  0  0  0  0  0
    1.6440   12.1930   -2.1510 C   0  0  2  0  0  0  0  0  0  0  0  0
    2.4750   11.1180   -1.4310 C   0  0  0  0  0  0  0  0  0  0  0  0
    3.8170   10.8440   -2.0260 C   0  0  0  0  0  0  0  0  0  0  0  0
    4.2210   11.2250   -3.2510 C   0  0  0  0  0  0  0  0  0  0  0  0
    3.2560   11.9240   -4.2170 C   0  0  1  0  0  0  0  0  0  0  0  0
    3.3710   11.2770   -5.6230 C   0  0  0  0  0  0  0  0  0  0  0  0
    4.8050   11.2580   -6.1430 C   0  0  0  0  0  0  0  0  0  0  0  0
    5.7230   10.5040   -5.1840 C   0  0  2  0  0  0  0  0  0  0  0  0
    5.3490    9.1220   -5.1790 O   0  0  0  0  0  0  0  0  0  0  0  0
    5.6840   11.0610   -3.7330 C   0  0  0  0  0  0  0  0  0  0  0  0
    6.3690   12.4490   -3.6910 C   0  0  0  0  0  0  0  0  0  0  0  0
    6.5430   10.1250   -2.8400 C   0  0  0  0  0  0  0  0  0  0  0  0
    1.7510   12.0500   -3.7240 C   0  0  1  0  0  0  0  0  0  0  0  0
    0.9560   10.7640   -4.1080 C   0  0  0  0  0  0  0  0  0  0  0  0
    1.0590   13.2430   -4.4820 C   0  0  0  0  0  0  0  0  0  0  0  0
    1.1960   14.6410   -3.8500 C   0  0  0  0  0  0  0  0  0  0  0  0
    0.8390   14.6070   -2.3610 C   0  0  2  0  0  0  0  0  0  0  0  0
   -0.6660   14.1880   -2.2390 C   0  0  0  0  0  0  0  0  0  0  0  0
   -1.0939   17.9557   -3.3689 H   0  0  0  0  0  0  0  0  0  0  0  0
    0.6406   17.6462   -3.7190 H   0  0  0  0  0  0  0  0  0  0  0  0
   -0.5323   16.2857   -3.7190 H   0  0  0  0  0  0  0  0  0  0  0  0
   -0.9553   16.7063   -1.2943 H   0  0  0  0  0  0  0  0  0  0  0  0
    1.2825   18.7441   -1.6157 H   0  0  0  0  0  0  0  0  0  0  0  0
   -0.4215   18.9737   -0.9934 H   0  0  0  0  0  0  0  0  0  0  0  0
    0.0448   17.9381    1.0420 H   0  0  0  0  0  0  0  0  0  0  0  0
    1.5736   17.1954    0.4103 H   0  0  0  0  0  0  0  0  0  0  0  0
    0.8631   19.5896    1.5152 H   0  0  0  0  0  0  0  0  0  0  0  0
    4.2668   17.4981    1.9379 H   0  0  0  0  0  0  0  0  0  0  0  0
    3.3829   17.2169    0.3996 H   0  0  0  0  0  0  0  0  0  0  0  0
    4.9044   18.1717    0.3996 H   0  0  0  0  0  0  0  0  0  0  0  0
    3.6077   19.8733    3.1693 H   0  0  0  0  0  0  0  0  0  0  0  0
    4.8792   20.2617    1.9614 H   0  0  0  0  0  0  0  0  0  0  0  0
    3.3317   21.1738    1.9614 H   0  0  0  0  0  0  0  0  0  0  0  0
    1.9299   16.4517   -1.9353 H   0  0  0  0  0  0  0  0  0  0  0  0
    1.9356   15.9626    0.4296 H   0  0  0  0  0  0  0  0  0  0  0  0
    0.1928   15.6180    0.4415 H   0  0  0  0  0  0  0  0  0  0  0  0
    2.2736   13.6609    0.5237 H   0  0  0  0  0  0  0  0  0  0  0  0
    0.5895   13.2967    0.1568 H   0  0  0  0  0  0  0  0  0  0  0  0
    3.7522   14.2125   -0.7031 H   0  0  0  0  0  0  0  0  0  0  0  0
    3.9189   13.3253   -2.2561 H   0  0  0  0  0  0  0  0  0  0  0  0
    3.4114   15.0484   -2.2561 H   0  0  0  0  0  0  0  0  0  0  0  0
    0.5969   11.9898   -1.8822 H   0  0  0  0  0  0  0  0  0  0  0  0
    2.6245   11.4439   -0.3911 H   0  0  0  0  0  0  0  0  0  0  0  0
    1.9051   10.1815   -1.5218 H   0  0  0  0  0  0  0  0  0  0  0  0
    4.5358   10.2832   -1.4105 H   0  0  0  0  0  0  0  0  0  0  0  0
    3.5793   12.9745   -4.2622 H   0  0  0  0  0  0  0  0  0  0  0  0
    3.0029   10.2420   -5.5660 H   0  0  0  0  0  0  0  0  0  0  0  0
    2.7716   11.8823   -6.3190 H   0  0  0  0  0  0  0  0  0  0  0  0
    4.8253   10.7628   -7.1250 H   0  0  0  0  0  0  0  0  0  0  0  0
    5.1615   12.2951   -6.2279 H   0  0  0  0  0  0  0  0  0  0  0  0
    6.7545   10.6355   -5.5427 H   0  0  0  0  0  0  0  0  0  0  0  0
    5.8560    8.6780   -5.8800 H   0  0  0  0  0  0  0  0  0  0  0  0
    6.5188   12.7525   -2.6443 H   0  0  0  0  0  0  0  0  0  0  0  0
    7.3428   12.3928   -4.1994 H   0  0  0  0  0  0  0  0  0  0  0  0
    5.7320   13.1878   -4.1994 H   0  0  0  0  0  0  0  0  0  0  0  0
    6.3426   10.3434   -1.7807 H   0  0  0  0  0  0  0  0  0  0  0  0
    6.2857    9.0770   -3.0534 H   0  0  0  0  0  0  0  0  0  0  0  0
    7.6092   10.2916   -3.0534 H   0  0  0  0  0  0  0  0  0  0  0  0
    0.6349   10.2446   -3.1931 H   0  0  0  0  0  0  0  0  0  0  0  0
    0.0723   11.0426   -4.7009 H   0  0  0  0  0  0  0  0  0  0  0  0
    1.6002   10.0980   -4.7009 H   0  0  0  0  0  0  0  0  0  0  0  0
    1.4915   13.2908   -5.4923 H   0  0  0  0  0  0  0  0  0  0  0  0
   -0.0172   13.0177   -4.4511 H   0  0  0  0  0  0  0  0  0  0  0  0
    2.2340   14.9870   -3.9633 H   0  0  0  0  0  0  0  0  0  0  0  0
    0.5037   15.3263   -4.3610 H   0  0  0  0  0  0  0  0  0  0  0  0
   -0.9404   14.1116   -1.1765 H   0  0  0  0  0  0  0  0  0  0  0  0
   -1.2979   14.9444   -2.7274 H   0  0  0  0  0  0  0  0  0  0  0  0
   -0.8162   13.2139   -2.7274 H   0  0  0  0  0  0  0  0  0  0  0  0
  1  2  1  0
  2  3  1  0
  3  4  1  0
  4  5  1  0
  5  6  1  0
  6  7  1  0
  7  8  1  0
  7  9  1  0
  2 10  1  0
 10 11  1  0
 11 12  1  0
 12 13  1  0
 13 14  1  1
 13 15  1  0
 15 16  1  0
 16 17  1  0
 17 18  2  0
 18 19  1  0
 19 20  1  0
 20 21  1  0
 21 22  1  0
 22 23  1  0
 22 24  1  0
 24 25  1  0
 24 26  1  0
 19 27  1  0
 27 28  1  6
 27 29  1  0
 29 30  1  0
 30 31  1  0
 31 32  1  6
  7  5  1  0
 31 10  1  0
 31 13  1  0
 27 15  1  0
 24 18  1  0
  1 33  1  0
  1 34  1  0
  1 35  1  0
  2 36  1  1
  3 37  1  0
  3 38  1  0
  4 39  1  0
  4 40  1  0
  5 41  1  1
  8 42  1  0
  8 43  1  0
  8 44  1  0
  9 45  1  0
  9 46  1  0
  9 47  1  0
 10 48  1  6
 11 49  1  0
 11 50  1  0
 12 51  1  0
 12 52  1  0
 14 53  1  0
 14 54  1  0
 14 55  1  0
 15 56  1  1
 16 57  1  0
 16 58  1  0
 17 59  1  0
 19 60  1  6
 20 61  1  0
 20 62  1  0
 21 63  1  0
 21 64  1  0
 22 65  1  6
 23 66  1  0
 25 67  1  0
 25 68  1  0
 25 69  1  0
 26 70  1  0
 26 71  1  0
 26 72  1  0
 28 73  1  0
 28 74  1  0
 28 75  1  0
 29 76  1  0
 29 77  1  0
 30 78  1  0
 30 79  1  0
 32 80  1  0
 32 81  1  0
 32 82  1  0
M  END
>  <meeko>  (16) 
{"is_sidechain": [false], "intermolecular_energy": 2.731, "internal_energy": -0.839}

$$$$
EPH_relaxed_0001_pdb2pqr_Repair_346_r2_0001_out
     RDKit          3D

 82 86  0  0  0  0  0  0  0  0999 V2000
    0.2380   15.7300   -8.3870 C   0  0  0  0  0  0  0  0  0  0  0  0
    1.4680   15.9640   -7.5060 C   0  0  2  0  0  0  0  0  0  0  0  0
    2.6760   15.1200   -7.9590 C   0  0  0  0  0  0  0  0  0  0  0  0
    2.4690   14.4240   -9.3070 C   0  0  0  0  0  0  0  0  0  0  0  0
    2.9230   15.2810  -10.4500 C   0  0  2  0  0  0  0  0  0  0  0  0
    2.0340   16.3550  -10.7820 O   0  0  0  0  0  0  0  0  0  0  0  0
    2.2060   15.3420  -11.7860 C   0  0  0  0  0  0  0  0  0  0  0  0
    0.9760   14.5310  -12.0490 C   0  0  0  0  0  0  0  0  0  0  0  0
    2.9700   15.8060  -12.9870 C   0  0  0  0  0  0  0  0  0  0  0  0
    1.1320   15.6550   -6.0520 C   0  0  1  0  0  0  0  0  0  0  0  0
   -0.1980   16.3090   -5.5940 C   0  0  0  0  0  0  0  0  0  0  0  0
   -0.8600   15.3240   -4.5960 C   0  0  0  0  0  0  0  0  0  0  0  0
    0.2510   14.3030   -4.2600 C   0  0  1  0  0  0  0  0  0  0  0  0
    1.1290   15.0070   -3.1780 C   0  0  0  0  0  0  0  0  0  0  0  0
   -0.2270   12.8910   -3.7870 C   0  0  2  0  0  0  0  0  0  0  0  0
   -1.0330   12.8810   -2.4760 C   0  0  0  0  0  0  0  0  0  0  0  0
   -0.2260   12.7140   -1.2320 C   0  0  0  0  0  0  0  0  0  0  0  0
    1.0520   12.2960   -1.1790 C   0  0  0  0  0  0  0  0  0  0  0  0
    1.7860   11.8450   -2.4490 C   0  0  1  0  0  0  0  0  0  0  0  0
    2.5290   10.5110   -2.1720 C   0  0  0  0  0  0  0  0  0  0  0  0
    3.4540   10.5970   -0.9620 C   0  0  0  0  0  0  0  0  0  0  0  0
    2.6780   10.9910    0.2920 C   0  0  2  0  0  0  0  0  0  0  0  0
    1.7810    9.9290    0.6310 O   0  0  0  0  0  0  0  0  0  0  0  0
    1.8810   12.3160    0.1280 C   0  0  0  0  0  0  0  0  0  0  0  0
    2.8660   13.5100    0.0620 C   0  0  0  0  0  0  0  0  0  0  0  0
    1.0330   12.5240    1.4120 C   0  0  0  0  0  0  0  0  0  0  0  0
    0.9110   11.7920   -3.7740 C   0  0  1  0  0  0  0  0  0  0  0  0
    0.1960   10.4100   -3.8850 C   0  0  0  0  0  0  0  0  0  0  0  0
    1.8630   11.9010   -5.0240 C   0  0  0  0  0  0  0  0  0  0  0  0
    2.2020   13.3210   -5.5160 C   0  0  0  0  0  0  0  0  0  0  0  0
    0.9340   14.1660   -5.6690 C   0  0  2  0  0  0  0  0  0  0  0  0
    0.0420   13.4950   -6.7680 C   0  0  0  0  0  0  0  0  0  0  0  0
   -0.6429   15.5624   -7.7498 H   0  0  0  0  0  0  0  0  0  0  0  0
    0.0687   16.6120   -9.0221 H   0  0  0  0  0  0  0  0  0  0  0  0
    0.4044   14.8474   -9.0221 H   0  0  0  0  0  0  0  0  0  0  0  0
    1.7498   17.0226   -7.6054 H   0  0  0  0  0  0  0  0  0  0  0  0
    3.5510   15.7816   -8.0404 H   0  0  0  0  0  0  0  0  0  0  0  0
    2.8163   14.3296   -7.2070 H   0  0  0  0  0  0  0  0  0  0  0  0
    3.0429   13.4856   -9.3153 H   0  0  0  0  0  0  0  0  0  0  0  0
    1.3933   14.2299   -9.4306 H   0  0  0  0  0  0  0  0  0  0  0  0
    3.9780   15.1163  -10.1858 H   0  0  0  0  0  0  0  0  0  0  0  0
    0.5225   14.2320  -11.0925 H   0  0  0  0  0  0  0  0  0  0  0  0
    0.2563   15.1323  -12.6239 H   0  0  0  0  0  0  0  0  0  0  0  0
    1.2451   13.6326  -12.6239 H   0  0  0  0  0  0  0  0  0  0  0  0
    3.8682   16.3515  -12.6619 H   0  0  0  0  0  0  0  0  0  0  0  0
    3.2678   14.9360  -13.5907 H   0  0  0  0  0  0  0  0  0  0  0  0
    2.3353   16.4714  -13.5907 H   0  0  0  0  0  0  0  0  0  0  0  0
    2.0352   16.0521   -5.5656 H   0  0  0  0  0  0  0  0  0  0  0  0
    0.0033   17.2709   -5.0998 H   0  0  0  0  0  0  0  0  0  0  0  0
   -0.8578   16.5052   -6.4520 H   0  0  0  0  0  0  0  0  0  0  0  0
   -1.1887   15.8526   -3.6891 H   0  0  0  0  0  0  0  0  0  0  0  0
   -1.7551   14.8427   -5.0169 H   0  0  0  0  0  0  0  0  0  0  0  0
    0.7744   14.7227   -2.1763 H   0  0  0  0  0  0  0  0  0  0  0  0
    2.1774   14.6965   -3.2977 H   0  0  0  0  0  0  0  0  0  0  0  0
    1.0538   16.0979   -3.2977 H   0  0  0  0  0  0  0  0  0  0  0  0
   -0.9371   12.6053   -4.5770 H   0  0  0  0  0  0  0  0  0  0  0  0
   -1.5756   13.8351   -2.4035 H   0  0  0  0  0  0  0  0  0  0  0  0
   -1.6920   12.0020   -2.5311 H   0  0  0  0  0  0  0  0  0  0  0  0
   -0.7175   12.9528   -0.2773 H   0  0  0  0  0  0  0  0  0  0  0  0
    2.5140   12.6376   -2.6766 H   0  0  0  0  0  0  0  0  0  0  0  0
    1.7832    9.7231   -1.9904 H   0  0  0  0  0  0  0  0  0  0  0  0
    3.1499   10.2857   -3.0516 H   0  0  0  0  0  0  0  0  0  0  0  0
    3.9264    9.6169   -0.7998 H   0  0  0  0  0  0  0  0  0  0  0  0
    4.2172   11.3646   -1.1578 H   0  0  0  0  0  0  0  0  0  0  0  0
    3.4112   11.1632    1.0937 H   0  0  0  0  0  0  0  0  0  0  0  0
    2.2690    9.0930    0.5460 H   0  0  0  0  0  0  0  0  0  0  0  0
    3.1272   13.8267    1.0825 H   0  0  0  0  0  0  0  0  0  0  0  0
    3.7779   13.2040   -0.4717 H   0  0  0  0  0  0  0  0  0  0  0  0
    2.3922   14.3471   -0.4717 H   0  0  0  0  0  0  0  0  0  0  0  0
    1.6657   12.3688    2.2984 H   0  0  0  0  0  0  0  0  0  0  0  0
    0.6303   13.5476    1.4236 H   0  0  0  0  0  0  0  0  0  0  0  0
    0.2023   11.8030    1.4236 H   0  0  0  0  0  0  0  0  0  0  0  0
   -0.0060   10.0196   -2.8766 H   0  0  0  0  0  0  0  0  0  0  0  0
   -0.7528   10.5306   -4.4283 H   0  0  0  0  0  0  0  0  0  0  0  0
    0.8426    9.7052   -4.4283 H   0  0  0  0  0  0  0  0  0  0  0  0
    2.8094   11.4032   -4.7662 H   0  0  0  0  0  0  0  0  0  0  0  0
    1.3076   11.4343   -5.8509 H   0  0  0  0  0  0  0  0  0  0  0  0
    2.8705   13.8039   -4.7880 H   0  0  0  0  0  0  0  0  0  0  0  0
    2.6925   13.2441   -6.4976 H   0  0  0  0  0  0  0  0  0  0  0  0
   -0.7483   12.9005   -6.2862 H   0  0  0  0  0  0  0  0  0  0  0  0
   -0.4160   14.2744   -7.3948 H   0  0  0  0  0  0  0  0  0  0  0  0
    0.6639   12.8389   -7.3948 H   0  0  0  0  0  0  0  0  0  0  0  0
  1  2  1  0
  2  3  1  0
  3  4  1  0
  4  5  1  0
  5  6  1  0
  6  7  1  0
  7  8  1  0
  7  9  1  0
  2 10  1  0
 10 11  1  0
 11 12  1  0
 12 13  1  0
 13 14  1  1
 13 15  1  0
 15 16  1  0
 16 17  1  0
 17 18  2  0
 18 19  1  0
 19 20  1  0
 20 21  1  0
 21 22  1  0
 22 23  1  0
 22 24  1  0
 24 25  1  0
 24 26  1  0
 19 27  1  0
 27 28  1  6
 27 29  1  0
 29 30  1  0
 30 31  1  0
 31 32  1  6
  7  5  1  0
 31 10  1  0
 31 13  1  0
 27 15  1  0
 24 18  1  0
  1 33  1  0
  1 34  1  0
  1 35  1  0
  2 36  1  1
  3 37  1  0
  3 38  1  0
  4 39  1  0
  4 40  1  0
  5 41  1  6
  8 42  1  0
  8 43  1  0
  8 44  1  0
  9 45  1  0
  9 46  1  0
  9 47  1  0
 10 48  1  1
 11 49  1  0
 11 50  1  0
 12 51  1  0
 12 52  1  0
 14 53  1  0
 14 54  1  0
 14 55  1  0
 15 56  1  6
 16 57  1  0
 16 58  1  0
 17 59  1  0
 19 60  1  6
 20 61  1  0
 20 62  1  0
 21 63  1  0
 21 64  1  0
 22 65  1  1
 23 66  1  0
 25 67  1  0
 25 68  1  0
 25 69  1  0
 26 70  1  0
 26 71  1  0
 26 72  1  0
 28 73  1  0
 28 74  1  0
 28 75  1  0
 29 76  1  0
 29 77  1  0
 30 78  1  0
 30 79  1  0
 32 80  1  0
 32 81  1  0
 32 82  1  0
M  END
>  <meeko>  (17) 
{"is_sidechain": [false], "intermolecular_energy": 2.731, "internal_energy": -0.839}

$$$$
EPH_relaxed_0001_pdb2pqr_Repair_346_r2_0001_out
     RDKit          3D

 82 86  0  0  0  0  0  0  0  0999 V2000
    3.1890   11.5360   -4.3100 C   0  0  0  0  0  0  0  0  0  0  0  0
    2.0240   12.1020   -5.1280 C   0  0  2  0  0  0  0  0  0  0  0  0
    2.4850   12.6500   -6.4930 C   0  0  0  0  0  0  0  0  0  0  0  0
    1.9830   14.0660   -6.7890 C   0  0  0  0  0  0  0  0  0  0  0  0
    2.4200   14.5380   -8.1420 C   0  0  2  0  0  0  0  0  0  0  0  0
    2.6000   15.9560   -8.2530 O   0  0  0  0  0  0  0  0  0  0  0  0
    1.5520   15.3860   -9.0530 C   0  0  0  0  0  0  0  0  0  0  0  0
    0.1760   15.8110   -8.6460 C   0  0  0  0  0  0  0  0  0  0  0  0
    1.8450   15.3890  -10.5210 C   0  0  0  0  0  0  0  0  0  0  0  0
    1.3180   13.1970   -4.3370 C   0  0  1  0  0  0  0  0  0  0  0  0
   -0.1960   12.9160   -4.1480 C   0  0  0  0  0  0  0  0  0  0  0  0
   -0.5820   13.4650   -2.7500 C   0  0  0  0  0  0  0  0  0  0  0  0
    0.6270   14.3310   -2.3240 C   0  0  1  0  0  0  0  0  0  0  0  0
    0.4220   15.6940   -3.0560 C   0  0  0  0  0  0  0  0  0  0  0  0
    0.8300   14.5260   -0.7860 C   0  0  2  0  0  0  0  0  0  0  0  0
   -0.3160   15.2560   -0.0640 C   0  0  0  0  0  0  0  0  0  0  0  0
   -0.1770   16.7400    0.0140 C   0  0  0  0  0  0  0  0  0  0  0  0
    0.9530   17.4330   -0.2200 C   0  0  0  0  0  0  0  0  0  0  0  0
    2.2750   16.7110   -0.5080 C   0  0  1  0  0  0  0  0  0  0  0  0
    3.4080   17.3460    0.3410 C   0  0  0  0  0  0  0  0  0  0  0  0
    3.5130   18.8550    0.1410 C   0  0  0  0  0  0  0  0  0  0  0  0
    2.1970   19.5440    0.4930 C   0  0  2  0  0  0  0  0  0  0  0  0
    1.9660   19.4070    1.8980 O   0  0  0  0  0  0  0  0  0  0  0  0
    0.9800   18.9800   -0.2940 C   0  0  0  0  0  0  0  0  0  0  0  0
    1.0860   19.3940   -1.7820 C   0  0  0  0  0  0  0  0  0  0  0  0
   -0.3010   19.6620    0.2570 C   0  0  0  0  0  0  0  0  0  0  0  0
    2.2390   15.1260   -0.3890 C   0  0  1  0  0  0  0  0  0  0  0  0
    2.5070   14.6970    1.0860 C   0  0  0  0  0  0  0  0  0  0  0  0
    3.4120   14.5200   -1.2480 C   0  0  0  0  0  0  0  0  0  0  0  0
    3.1120   14.2380   -2.7320 C   0  0  0  0  0  0  0  0  0  0  0  0
    1.8050   13.4560   -2.8890 C   0  0  2  0  0  0  0  0  0  0  0  0
    1.9890   12.0700   -2.1820 C   0  0  0  0  0  0  0  0  0  0  0  0
    2.9697   11.6425   -3.2374 H   0  0  0  0  0  0  0  0  0  0  0  0
    3.3244   10.4717   -4.5526 H   0  0  0  0  0  0  0  0  0  0  0  0
    4.1094   12.0874   -4.5526 H   0  0  0  0  0  0  0  0  0  0  0  0
    1.3247   11.2759   -5.3243 H   0  0  0  0  0  0  0  0  0  0  0  0
    3.5848   12.6609   -6.5094 H   0  0  0  0  0  0  0  0  0  0  0  0
    2.0604   11.9905   -7.2642 H   0  0  0  0  0  0  0  0  0  0  0  0
    0.8838   14.0702   -6.7480 H   0  0  0  0  0  0  0  0  0  0  0  0
    2.4086   14.7449   -6.0354 H   0  0  0  0  0  0  0  0  0  0  0  0
    2.9783   13.6056   -8.3124 H   0  0  0  0  0  0  0  0  0  0  0  0
    0.1084   15.8319   -7.5483 H   0  0  0  0  0  0  0  0  0  0  0  0
   -0.0308   16.8149   -9.0453 H   0  0  0  0  0  0  0  0  0  0  0  0
   -0.5609   15.0986   -9.0453 H   0  0  0  0  0  0  0  0  0  0  0  0
    2.9337   15.4001  -10.6776 H   0  0  0  0  0  0  0  0  0  0  0  0
    1.4175   14.4864  -10.9821 H   0  0  0  0  0  0  0  0  0  0  0  0
    1.3991   16.2826  -10.9821 H   0  0  0  0  0  0  0  0  0  0  0  0
    1.5527   14.0635   -4.9727 H   0  0  0  0  0  0  0  0  0  0  0  0
   -0.7767   13.4279   -4.9295 H   0  0  0  0  0  0  0  0  0  0  0  0
   -0.4102   11.8396   -4.2225 H   0  0  0  0  0  0  0  0  0  0  0  0
   -1.4949   14.0756   -2.8110 H   0  0  0  0  0  0  0  0  0  0  0  0
   -0.7939   12.6610   -2.0298 H   0  0  0  0  0  0  0  0  0  0  0  0
    0.3015   16.4953   -2.3120 H   0  0  0  0  0  0  0  0  0  0  0  0
    1.2982   15.9073   -3.6859 H   0  0  0  0  0  0  0  0  0  0  0  0
   -0.4781   15.6401   -3.6859 H   0  0  0  0  0  0  0  0  0  0  0  0
    0.8073   13.4917   -0.4122 H   0  0  0  0  0  0  0  0  0  0  0  0
   -1.2518   15.0297   -0.5960 H   0  0  0  0  0  0  0  0  0  0  0  0
   -0.3012   14.8938    0.9746 H   0  0  0  0  0  0  0  0  0  0  0  0
   -1.0738   17.3161    0.2857 H   0  0  0  0  0  0  0  0  0  0  0  0
    2.4791   16.8655   -1.5778 H   0  0  0  0  0  0  0  0  0  0  0  0
    3.2078   17.1442    1.4036 H   0  0  0  0  0  0  0  0  0  0  0  0
    4.3592   16.8990    0.0164 H   0  0  0  0  0  0  0  0  0  0  0  0
    4.3104   19.2494    0.7880 H   0  0  0  0  0  0  0  0  0  0  0  0
    3.7423   19.0543   -0.9162 H   0  0  0  0  0  0  0  0  0  0  0  0
    2.2923   20.6020    0.2074 H   0  0  0  0  0  0  0  0  0  0  0  0
    1.9160   20.3010    2.2770 H   0  0  0  0  0  0  0  0  0  0  0  0
    1.3583   20.4577   -1.8481 H   0  0  0  0  0  0  0  0  0  0  0  0
    1.8576   18.7865   -2.2776 H   0  0  0  0  0  0  0  0  0  0  0  0
    0.1174   19.2320   -2.2776 H   0  0  0  0  0  0  0  0  0  0  0  0
   -0.2786   19.6501    1.3567 H   0  0  0  0  0  0  0  0  0  0  0  0
   -0.3440   20.7024   -0.0976 H   0  0  0  0  0  0  0  0  0  0  0  0
   -1.1881   19.1168   -0.0976 H   0  0  0  0  0  0  0  0  0  0  0  0
    2.0503   15.4281    1.7693 H   0  0  0  0  0  0  0  0  0  0  0  0
    2.0682   13.7043    1.2646 H   0  0  0  0  0  0  0  0  0  0  0  0
    3.5916   14.6560    1.2646 H   0  0  0  0  0  0  0  0  0  0  0  0
    4.2539   15.2268   -1.2072 H   0  0  0  0  0  0  0  0  0  0  0  0
    3.6152   13.5347   -0.8032 H   0  0  0  0  0  0  0  0  0  0  0  0
    3.0260   15.1939   -3.2695 H   0  0  0  0  0  0  0  0  0  0  0  0
    3.9331   13.6349   -3.1469 H   0  0  0  0  0  0  0  0  0  0  0  0
    1.9705   12.2096   -1.0910 H   0  0  0  0  0  0  0  0  0  0  0  0
    1.1725   11.3955   -2.4793 H   0  0  0  0  0  0  0  0  0  0  0  0
    2.9532   11.6319   -2.4793 H   0  0  0  0  0  0  0  0  0  0  0  0
  1  2  1  0
  2  3  1  0
  3  4  1  0
  4  5  1  0
  5  6  1  0
  6  7  1  0
  7  8  1  0
  7  9  1  0
  2 10  1  0
 10 11  1  0
 11 12  1  0
 12 13  1  0
 13 14  1  6
 13 15  1  0
 15 16  1  0
 16 17  1  0
 17 18  2  0
 18 19  1  0
 19 20  1  0
 20 21  1  0
 21 22  1  0
 22 23  1  0
 22 24  1  0
 24 25  1  0
 24 26  1  0
 19 27  1  0
 27 28  1  1
 27 29  1  0
 29 30  1  0
 30 31  1  0
 31 32  1  1
  7  5  1  0
 31 10  1  0
 31 13  1  0
 27 15  1  0
 24 18  1  0
  1 33  1  0
  1 34  1  0
  1 35  1  0
  2 36  1  6
  3 37  1  0
  3 38  1  0
  4 39  1  0
  4 40  1  0
  5 41  1  6
  8 42  1  0
  8 43  1  0
  8 44  1  0
  9 45  1  0
  9 46  1  0
  9 47  1  0
 10 48  1  6
 11 49  1  0
 11 50  1  0
 12 51  1  0
 12 52  1  0
 14 53  1  0
 14 54  1  0
 14 55  1  0
 15 56  1  1
 16 57  1  0
 16 58  1  0
 17 59  1  0
 19 60  1  6
 20 61  1  0
 20 62  1  0
 21 63  1  0
 21 64  1  0
 22 65  1  1
 23 66  1  0
 25 67  1  0
 25 68  1  0
 25 69  1  0
 26 70  1  0
 26 71  1  0
 26 72  1  0
 28 73  1  0
 28 74  1  0
 28 75  1  0
 29 76  1  0
 29 77  1  0
 30 78  1  0
 30 79  1  0
 32 80  1  0
 32 81  1  0
 32 82  1  0
M  END
>  <meeko>  (18) 
{"is_sidechain": [false], "intermolecular_energy": 2.731, "internal_energy": -0.839}

$$$$
