EPH_relaxed_0001_pdb2pqr_Repair_214_r2_0001_out
     RDKit          3D

 82 86  0  0  0  0  0  0  0  0999 V2000
   -1.6030    8.5730   -1.8180 C   0  0  0  0  0  0  0  0  0  0  0  0
   -2.0040    9.1510   -0.4590 C   0  0  2  0  0  0  0  0  0  0  0  0
   -3.4920    9.5530   -0.4150 C   0  0  0  0  0  0  0  0  0  0  0  0
   -4.4480    8.3620   -0.3050 C   0  0  0  0  0  0  0  0  0  0  0  0
   -5.0950    8.0470   -1.6200 C   0  0  2  0  0  0  0  0  0  0  0  0
   -6.3610    8.6840   -1.8320 O   0  0  0  0  0  0  0  0  0  0  0  0
   -6.3790    7.2500   -1.7500 C   0  0  0  0  0  0  0  0  0  0  0  0
   -7.0940    6.7180   -0.5480 C   0  0  0  0  0  0  0  0  0  0  0  0
   -6.6730    6.5750   -3.0540 C   0  0  0  0  0  0  0  0  0  0  0  0
   -1.1300   10.3550   -0.1280 C   0  0  1  0  0  0  0  0  0  0  0  0
   -0.0520   10.0350    0.9420 C   0  0  0  0  0  0  0  0  0  0  0  0
    1.2030   10.8670    0.5750 C   0  0  0  0  0  0  0  0  0  0  0  0
    0.7050   11.8790   -0.4830 C   0  0  1  0  0  0  0  0  0  0  0  0
    0.0330   13.0220    0.3400 C   0  0  0  0  0  0  0  0  0  0  0  0
    1.7830   12.4350   -1.4690 C   0  0  2  0  0  0  0  0  0  0  0  0
    2.9160   13.2420   -0.8110 C   0  0  0  0  0  0  0  0  0  0  0  0
    2.6700   14.7090   -0.6960 C   0  0  0  0  0  0  0  0  0  0  0  0
    1.7180   15.3970   -1.3540 C   0  0  0  0  0  0  0  0  0  0  0  0
    0.8280   14.7080   -2.3970 C   0  0  1  0  0  0  0  0  0  0  0  0
    0.7460   15.5880   -3.6710 C   0  0  0  0  0  0  0  0  0  0  0  0
    0.2950   17.0140   -3.3690 C   0  0  0  0  0  0  0  0  0  0  0  0
    1.2380   17.6850   -2.3740 C   0  0  2  0  0  0  0  0  0  0  0  0
    2.5140   17.8630   -2.9960 O   0  0  0  0  0  0  0  0  0  0  0  0
    1.4060   16.8830   -1.0530 C   0  0  0  0  0  0  0  0  0  0  0  0
    0.0940   16.9490   -0.2330 C   0  0  0  0  0  0  0  0  0  0  0  0
    2.4890   17.5950   -0.1970 C   0  0  0  0  0  0  0  0  0  0  0  0
    1.1860   13.1940   -2.7230 C   0  0  1  0  0  0  0  0  0  0  0  0
    2.2720   13.1330   -3.8400 C   0  0  0  0  0  0  0  0  0  0  0  0
   -0.0900   12.4780   -3.3040 C   0  0  0  0  0  0  0  0  0  0  0  0
   -1.0560   11.8440   -2.2850 C   0  0  0  0  0  0  0  0  0  0  0  0
   -0.2990   10.9690   -1.2820 C   0  0  2  0  0  0  0  0  0  0  0  0
    0.3700    9.7970   -2.0780 C   0  0  0  0  0  0  0  0  0  0  0  0
   -0.9819    7.6778   -1.6669 H   0  0  0  0  0  0  0  0  0  0  0  0
   -2.5074    8.3009   -2.3820 H   0  0  0  0  0  0  0  0  0  0  0  0
   -1.0315    9.3248   -2.3820 H   0  0  0  0  0  0  0  0  0  0  0  0
   -1.8523    8.3629    0.2933 H   0  0  0  0  0  0  0  0  0  0  0  0
   -3.6496   10.2065    0.4557 H   0  0  0  0  0  0  0  0  0  0  0  0
   -3.7167   10.0590   -1.3655 H   0  0  0  0  0  0  0  0  0  0  0  0
   -3.8828    7.4814    0.0342 H   0  0  0  0  0  0  0  0  0  0  0  0
   -5.2396    8.6229    0.4128 H   0  0  0  0  0  0  0  0  0  0  0  0
   -4.1133    7.9493   -2.1066 H   0  0  0  0  0  0  0  0  0  0  0  0
   -6.6008    7.0849    0.3642 H   0  0  0  0  0  0  0  0  0  0  0  0
   -8.1395    7.0596   -0.5623 H   0  0  0  0  0  0  0  0  0  0  0  0
   -7.0672    5.6184   -0.5623 H   0  0  0  0  0  0  0  0  0  0  0  0
   -7.1056    5.5818   -2.8634 H   0  0  0  0  0  0  0  0  0  0  0  0
   -7.3881    7.1824   -3.6282 H   0  0  0  0  0  0  0  0  0  0  0  0
   -5.7412    6.4651   -3.6282 H   0  0  0  0  0  0  0  0  0  0  0  0
   -1.9070   11.0637    0.1944 H   0  0  0  0  0  0  0  0  0  0  0  0
   -0.4147   10.3173    1.9414 H   0  0  0  0  0  0  0  0  0  0  0  0
    0.1787    8.9596    0.9610 H   0  0  0  0  0  0  0  0  0  0  0  0
    1.5938   11.3910    1.4597 H   0  0  0  0  0  0  0  0  0  0  0  0
    2.0237   10.2393    0.1977 H   0  0  0  0  0  0  0  0  0  0  0  0
    0.1523   12.8191    1.4145 H   0  0  0  0  0  0  0  0  0  0  0  0
    0.5108   13.9815    0.0928 H   0  0  0  0  0  0  0  0  0  0  0  0
   -1.0377   13.0711    0.0928 H   0  0  0  0  0  0  0  0  0  0  0  0
    2.2523   11.5146   -1.8468 H   0  0  0  0  0  0  0  0  0  0  0  0
    3.0732   12.8433    0.2021 H   0  0  0  0  0  0  0  0  0  0  0  0
    3.7905   13.1308   -1.4689 H   0  0  0  0  0  0  0  0  0  0  0  0
    3.3219   15.2768   -0.0158 H   0  0  0  0  0  0  0  0  0  0  0  0
   -0.1679   14.6232   -1.9376 H   0  0  0  0  0  0  0  0  0  0  0  0
    1.7408   15.6244   -4.1390 H   0  0  0  0  0  0  0  0  0  0  0  0
   -0.0004   15.1366   -4.3412 H   0  0  0  0  0  0  0  0  0  0  0  0
    0.2855   17.5941   -4.3035 H   0  0  0  0  0  0  0  0  0  0  0  0
   -0.7123   16.9779   -2.9286 H   0  0  0  0  0  0  0  0  0  0  0  0
    0.7932   18.6525   -2.0982 H   0  0  0  0  0  0  0  0  0  0  0  0
    2.3960   18.4770   -3.7400 H   0  0  0  0  0  0  0  0  0  0  0  0
    0.3318   16.9370    0.8409 H   0  0  0  0  0  0  0  0  0  0  0  0
   -0.4458   17.8754   -0.4787 H   0  0  0  0  0  0  0  0  0  0  0  0
   -0.5360   16.0814   -0.4787 H   0  0  0  0  0  0  0  0  0  0  0  0
    2.2671   17.4491    0.8705 H   0  0  0  0  0  0  0  0  0  0  0  0
    3.4768   17.1696   -0.4276 H   0  0  0  0  0  0  0  0  0  0  0  0
    2.4901   18.6706   -0.4276 H   0  0  0  0  0  0  0  0  0  0  0  0
    3.2692   13.0770   -3.3792 H   0  0  0  0  0  0  0  0  0  0  0  0
    2.1061   12.2428   -4.4645 H   0  0  0  0  0  0  0  0  0  0  0  0
    2.2069   14.0362   -4.4645 H   0  0  0  0  0  0  0  0  0  0  0  0
   -0.6569   13.2242   -3.8800 H   0  0  0  0  0  0  0  0  0  0  0  0
    0.2974   11.6355   -3.8957 H   0  0  0  0  0  0  0  0  0  0  0  0
   -1.5804   12.6434   -1.7410 H   0  0  0  0  0  0  0  0  0  0  0  0
   -1.7741   11.2126   -2.8288 H   0  0  0  0  0  0  0  0  0  0  0  0
    0.7878    9.0651   -1.3710 H   0  0  0  0  0  0  0  0  0  0  0  0
   -0.3840    9.3063   -2.7109 H   0  0  0  0  0  0  0  0  0  0  0  0
    1.1760   10.1968   -2.7109 H   0  0  0  0  0  0  0  0  0  0  0  0
  1  2  1  0
  2  3  1  0
  3  4  1  0
  4  5  1  0
  5  6  1  0
  6  7  1  0
  7  8  1  0
  7  9  1  0
  2 10  1  0
 10 11  1  0
 11 12  1  0
 12 13  1  0
 13 14  1  1
 13 15  1  0
 15 16  1  0
 16 17  1  0
 17 18  2  0
 18 19  1  0
 19 20  1  0
 20 21  1  0
 21 22  1  0
 22 23  1  0
 22 24  1  0
 24 25  1  0
 24 26  1  0
 19 27  1  0
 27 28  1  6
 27 29  1  0
 29 30  1  0
 30 31  1  0
 31 32  1  6
  7  5  1  0
 31 10  1  0
 31 13  1  0
 27 15  1  0
 24 18  1  0
  1 33  1  0
  1 34  1  0
  1 35  1  0
  2 36  1  1
  3 37  1  0
  3 38  1  0
  4 39  1  0
  4 40  1  0
  5 41  1  6
  8 42  1  0
  8 43  1  0
  8 44  1  0
  9 45  1  0
  9 46  1  0
  9 47  1  0
 10 48  1  1
 11 49  1  0
 11 50  1  0
 12 51  1  0
 12 52  1  0
 14 53  1  0
 14 54  1  0
 14 55  1  0
 15 56  1  6
 16 57  1  0
 16 58  1  0
 17 59  1  0
 19 60  1  1
 20 61  1  0
 20 62  1  0
 21 63  1  0
 21 64  1  0
 22 65  1  1
 23 66  1  0
 25 67  1  0
 25 68  1  0
 25 69  1  0
 26 70  1  0
 26 71  1  0
 26 72  1  0
 28 73  1  0
 28 74  1  0
 28 75  1  0
 29 76  1  0
 29 77  1  0
 30 78  1  0
 30 79  1  0
 32 80  1  0
 32 81  1  0
 32 82  1  0
M  END
>  <meeko>  (1) 
{"is_sidechain": [false], "intermolecular_energy": 2.731, "internal_energy": -0.839}

$$$$
EPH_relaxed_0001_pdb2pqr_Repair_214_r2_0001_out
     RDKit          3D

 82 86  0  0  0  0  0  0  0  0999 V2000
    2.0900   19.5660   -0.6760 C   0  0  0  0  0  0  0  0  0  0  0  0
    2.4660   18.3650    0.1950 C   0  0  2  0  0  0  0  0  0  0  0  0
    3.9070   17.8840   -0.0670 C   0  0  0  0  0  0  0  0  0  0  0  0
    4.9050   18.3130    1.0120 C   0  0  0  0  0  0  0  0  0  0  0  0
    4.2150   18.9240    2.1940 C   0  0  2  0  0  0  0  0  0  0  0  0
    4.7380   20.1940    2.6020 O   0  0  0  0  0  0  0  0  0  0  0  0
    4.8810   19.1180    3.5430 C   0  0  0  0  0  0  0  0  0  0  0  0
    6.2990   18.7020    3.7800 C   0  0  0  0  0  0  0  0  0  0  0  0
    4.0150   19.2590    4.7550 C   0  0  0  0  0  0  0  0  0  0  0  0
    1.4840   17.2230   -0.0430 C   0  0  1  0  0  0  0  0  0  0  0  0
    0.1750   17.6940   -0.7300 C   0  0  0  0  0  0  0  0  0  0  0  0
   -0.2760   16.5450   -1.6680 C   0  0  0  0  0  0  0  0  0  0  0  0
    0.5900   15.3350   -1.2460 C   0  0  1  0  0  0  0  0  0  0  0  0
   -0.1210   14.7530    0.0160 C   0  0  0  0  0  0  0  0  0  0  0  0
    0.8200   14.2380   -2.3360 C   0  0  2  0  0  0  0  0  0  0  0  0
   -0.4530   13.5250   -2.8240 C   0  0  0  0  0  0  0  0  0  0  0  0
   -0.8250   12.2940   -2.0650 C   0  0  0  0  0  0  0  0  0  0  0  0
   -0.0210   11.6220   -1.2220 C   0  0  0  0  0  0  0  0  0  0  0  0
    1.4460   12.0330   -1.0360 C   0  0  1  0  0  0  0  0  0  0  0  0
    2.3490   10.7730   -1.0980 C   0  0  0  0  0  0  0  0  0  0  0  0
    1.9160    9.6940   -0.1100 C   0  0  0  0  0  0  0  0  0  0  0  0
    0.4710    9.2700   -0.3640 C   0  0  2  0  0  0  0  0  0  0  0  0
    0.4010    8.6110   -1.6330 O   0  0  0  0  0  0  0  0  0  0  0  0
   -0.5300   10.4580   -0.3360 C   0  0  0  0  0  0  0  0  0  0  0  0
   -0.6770   10.9800    1.1150 C   0  0  0  0  0  0  0  0  0  0  0  0
   -1.9260    9.9160   -0.7460 C   0  0  0  0  0  0  0  0  0  0  0  0
    1.9630   13.2020   -1.9810 C   0  0  1  0  0  0  0  0  0  0  0  0
    2.4640   12.6100   -3.3340 C   0  0  0  0  0  0  0  0  0  0  0  0
    3.2090   13.8920   -1.3100 C   0  0  0  0  0  0  0  0  0  0  0  0
    2.9200   15.0480   -0.3340 C   0  0  0  0  0  0  0  0  0  0  0  0
    1.9530   16.0610   -0.9540 C   0  0  2  0  0  0  0  0  0  0  0  0
    2.6500   16.6790   -2.2130 C   0  0  0  0  0  0  0  0  0  0  0  0
    1.8236   20.4170   -0.0319 H   0  0  0  0  0  0  0  0  0  0  0  0
    2.9452   19.8404   -1.3111 H   0  0  0  0  0  0  0  0  0  0  0  0
    1.2310   19.3038   -1.3111 H   0  0  0  0  0  0  0  0  0  0  0  0
    2.4131   18.6890    1.2449 H   0  0  0  0  0  0  0  0  0  0  0  0
    3.9023   16.7852   -0.1186 H   0  0  0  0  0  0  0  0  0  0  0  0
    4.2340   18.3471   -1.0096 H   0  0  0  0  0  0  0  0  0  0  0  0
    5.4701   17.4304    1.3461 H   0  0  0  0  0  0  0  0  0  0  0  0
    5.5755   19.0692    0.5777 H   0  0  0  0  0  0  0  0  0  0  0  0
    3.2587   18.4652    1.9025 H   0  0  0  0  0  0  0  0  0  0  0  0
    6.4888   18.6463    4.8621 H   0  0  0  0  0  0  0  0  0  0  0  0
    6.4724   17.7151    3.3261 H   0  0  0  0  0  0  0  0  0  0  0  0
    6.9780   19.4388    3.3261 H   0  0  0  0  0  0  0  0  0  0  0  0
    4.6319   19.1586    5.6602 H   0  0  0  0  0  0  0  0  0  0  0  0
    3.5325   20.2475    4.7479 H   0  0  0  0  0  0  0  0  0  0  0  0
    3.2439   18.4746    4.7479 H   0  0  0  0  0  0  0  0  0  0  0  0
    1.3623   16.8657    0.9902 H   0  0  0  0  0  0  0  0  0  0  0  0
   -0.5994   17.8922    0.0257 H   0  0  0  0  0  0  0  0  0  0  0  0
    0.3376   18.6240   -1.2945 H   0  0  0  0  0  0  0  0  0  0  0  0
   -1.3447   16.3256   -1.5274 H   0  0  0  0  0  0  0  0  0  0  0  0
   -0.1484   16.7992   -2.7306 H   0  0  0  0  0  0  0  0  0  0  0  0
    0.3608   15.1474    0.9228 H   0  0  0  0  0  0  0  0  0  0  0  0
   -1.1813   15.0458    0.0072 H   0  0  0  0  0  0  0  0  0  0  0  0
   -0.0435   13.6558    0.0072 H   0  0  0  0  0  0  0  0  0  0  0  0
    1.1779   14.8281   -3.1926 H   0  0  0  0  0  0  0  0  0  0  0  0
   -1.2897   14.2353   -2.7509 H   0  0  0  0  0  0  0  0  0  0  0  0
   -0.2427   13.1966   -3.8526 H   0  0  0  0  0  0  0  0  0  0  0  0
   -1.8434   11.9036   -2.2076 H   0  0  0  0  0  0  0  0  0  0  0  0
    1.5102   12.4886   -0.0368 H   0  0  0  0  0  0  0  0  0  0  0  0
    2.3052   10.3575   -2.1156 H   0  0  0  0  0  0  0  0  0  0  0  0
    3.3705   11.0807   -0.8301 H   0  0  0  0  0  0  0  0  0  0  0  0
    2.5730    8.8189   -0.2218 H   0  0  0  0  0  0  0  0  0  0  0  0
    1.9885   10.1015    0.9092 H   0  0  0  0  0  0  0  0  0  0  0  0
    0.1769    8.5936    0.4521 H   0  0  0  0  0  0  0  0  0  0  0  0
    0.0300    7.7250   -1.4840 H   0  0  0  0  0  0  0  0  0  0  0  0
   -0.4485   10.1685    1.8215 H   0  0  0  0  0  0  0  0  0  0  0  0
    0.0211   11.8146    1.2769 H   0  0  0  0  0  0  0  0  0  0  0  0
   -1.7080   11.3276    1.2769 H   0  0  0  0  0  0  0  0  0  0  0  0
   -2.5110    9.6889    0.1575 H   0  0  0  0  0  0  0  0  0  0  0  0
   -2.4531   10.6748   -1.3430 H   0  0  0  0  0  0  0  0  0  0  0  0
   -1.8030    9.0003   -1.3430 H   0  0  0  0  0  0  0  0  0  0  0  0
    3.1630   11.7840   -3.1364 H   0  0  0  0  0  0  0  0  0  0  0  0
    1.6056   12.2340   -3.9100 H   0  0  0  0  0  0  0  0  0  0  0  0
    2.9768   13.3944   -3.9100 H   0  0  0  0  0  0  0  0  0  0  0  0
    3.7597   13.1179   -0.7554 H   0  0  0  0  0  0  0  0  0  0  0  0
    3.7673   14.3488   -2.1404 H   0  0  0  0  0  0  0  0  0  0  0  0
    2.4733   14.6400    0.5847 H   0  0  0  0  0  0  0  0  0  0  0  0
    3.8666   15.5604   -0.1075 H   0  0  0  0  0  0  0  0  0  0  0  0
    3.4370   17.3768   -1.8909 H   0  0  0  0  0  0  0  0  0  0  0  0
    3.0971   15.8751   -2.8162 H   0  0  0  0  0  0  0  0  0  0  0  0
    1.9054   17.2192   -2.8162 H   0  0  0  0  0  0  0  0  0  0  0  0
  1  2  1  0
  2  3  1  0
  3  4  1  0
  4  5  1  0
  5  6  1  0
  6  7  1  0
  7  8  1  0
  7  9  1  0
  2 10  1  0
 10 11  1  0
 11 12  1  0
 12 13  1  0
 13 14  1  1
 13 15  1  0
 15 16  1  0
 16 17  1  0
 17 18  2  0
 18 19  1  0
 19 20  1  0
 20 21  1  0
 21 22  1  0
 22 23  1  0
 22 24  1  0
 24 25  1  0
 24 26  1  0
 19 27  1  0
 27 28  1  6
 27 29  1  0
 29 30  1  0
 30 31  1  0
 31 32  1  6
  7  5  1  0
 31 10  1  0
 31 13  1  0
 27 15  1  0
 24 18  1  0
  1 33  1  0
  1 34  1  0
  1 35  1  0
  2 36  1  1
  3 37  1  0
  3 38  1  0
  4 39  1  0
  4 40  1  0
  5 41  1  1
  8 42  1  0
  8 43  1  0
  8 44  1  0
  9 45  1  0
  9 46  1  0
  9 47  1  0
 10 48  1  1
 11 49  1  0
 11 50  1  0
 12 51  1  0
 12 52  1  0
 14 53  1  0
 14 54  1  0
 14 55  1  0
 15 56  1  6
 16 57  1  0
 16 58  1  0
 17 59  1  0
 19 60  1  1
 20 61  1  0
 20 62  1  0
 21 63  1  0
 21 64  1  0
 22 65  1  1
 23 66  1  0
 25 67  1  0
 25 68  1  0
 25 69  1  0
 26 70  1  0
 26 71  1  0
 26 72  1  0
 28 73  1  0
 28 74  1  0
 28 75  1  0
 29 76  1  0
 29 77  1  0
 30 78  1  0
 30 79  1  0
 32 80  1  0
 32 81  1  0
 32 82  1  0
M  END
>  <meeko>  (2) 
{"is_sidechain": [false], "intermolecular_energy": 2.731, "internal_energy": -0.839}

$$$$
EPH_relaxed_0001_pdb2pqr_Repair_214_r2_0001_out
     RDKit          3D

 82 86  0  0  0  0  0  0  0  0999 V2000
    2.4710   18.0310   -2.6560 C   0  0  0  0  0  0  0  0  0  0  0  0
    1.1440   17.6850   -1.9730 C   0  0  2  0  0  0  0  0  0  0  0  0
    1.2470   17.7540   -0.4360 C   0  0  0  0  0  0  0  0  0  0  0  0
    0.9150   19.1330    0.1410 C   0  0  0  0  0  0  0  0  0  0  0  0
   -0.5110   19.2160    0.5940 C   0  0  2  0  0  0  0  0  0  0  0  0
   -1.3970   18.2870   -0.0440 O   0  0  0  0  0  0  0  0  0  0  0  0
   -1.6470   19.6790   -0.2990 C   0  0  0  0  0  0  0  0  0  0  0  0
   -1.4070   20.0910   -1.7170 C   0  0  0  0  0  0  0  0  0  0  0  0
   -2.8980   20.1940    0.3430 C   0  0  0  0  0  0  0  0  0  0  0  0
    0.6850   16.2970   -2.4030 C   0  0  1  0  0  0  0  0  0  0  0  0
    0.7580   16.0920   -3.9390 C   0  0  0  0  0  0  0  0  0  0  0  0
    1.1500   14.6110   -4.1750 C   0  0  0  0  0  0  0  0  0  0  0  0
    0.9650   13.9340   -2.7970 C   0  0  1  0  0  0  0  0  0  0  0  0
   -0.5650   13.6450   -2.6940 C   0  0  0  0  0  0  0  0  0  0  0  0
    1.8150   12.6470   -2.5390 C   0  0  2  0  0  0  0  0  0  0  0  0
    1.5150   11.4680   -3.4810 C   0  0  0  0  0  0  0  0  0  0  0  0
    0.4590   10.5260   -3.0070 C   0  0  0  0  0  0  0  0  0  0  0  0
   -0.0220   10.4570   -1.7510 C   0  0  0  0  0  0  0  0  0  0  0  0
    0.5740   11.3200   -0.6310 C   0  0  1  0  0  0  0  0  0  0  0  0
    0.8160   10.4420    0.6250 C   0  0  0  0  0  0  0  0  0  0  0  0
   -0.4390    9.6960    1.0680 C   0  0  0  0  0  0  0  0  0  0  0  0
   -0.9680    8.8050   -0.0520 C   0  0  2  0  0  0  0  0  0  0  0  0
   -0.0230    7.7580   -0.2930 O   0  0  0  0  0  0  0  0  0  0  0  0
   -1.2390    9.5780   -1.3730 C   0  0  0  0  0  0  0  0  0  0  0  0
   -2.4680   10.5030   -1.1920 C   0  0  0  0  0  0  0  0  0  0  0  0
   -1.6330    8.5420   -2.4600 C   0  0  0  0  0  0  0  0  0  0  0  0
    1.8480   12.1850   -1.0260 C   0  0  1  0  0  0  0  0  0  0  0  0
    3.1440   11.3360   -0.8480 C   0  0  0  0  0  0  0  0  0  0  0  0
    1.9720   13.3990   -0.0310 C   0  0  0  0  0  0  0  0  0  0  0  0
    1.2050   14.6830   -0.4030 C   0  0  0  0  0  0  0  0  0  0  0  0
    1.4780   15.0840   -1.8550 C   0  0  2  0  0  0  0  0  0  0  0  0
    3.0070   15.4030   -1.9840 C   0  0  0  0  0  0  0  0  0  0  0  0
    3.2360   18.2305   -1.8911 H   0  0  0  0  0  0  0  0  0  0  0  0
    2.7915   17.1864   -3.2836 H   0  0  0  0  0  0  0  0  0  0  0  0
    2.3383   18.9246   -3.2836 H   0  0  0  0  0  0  0  0  0  0  0  0
    0.4037   18.4352   -2.2879 H   0  0  0  0  0  0  0  0  0  0  0  0
    0.5479   17.0207   -0.0077 H   0  0  0  0  0  0  0  0  0  0  0  0
    2.2933   17.5387   -0.1736 H   0  0  0  0  0  0  0  0  0  0  0  0
    1.5738   19.3279    1.0001 H   0  0  0  0  0  0  0  0  0  0  0  0
    1.0673   19.8815   -0.6506 H   0  0  0  0  0  0  0  0  0  0  0  0
   -0.1971   19.5172    1.6043 H   0  0  0  0  0  0  0  0  0  0  0  0
   -0.8534   21.0414   -1.7340 H   0  0  0  0  0  0  0  0  0  0  0  0
   -0.8195   19.3152   -2.2298 H   0  0  0  0  0  0  0  0  0  0  0  0
   -2.3716   20.2194   -2.2298 H   0  0  0  0  0  0  0  0  0  0  0  0
   -2.7932   20.1508    1.4371 H   0  0  0  0  0  0  0  0  0  0  0  0
   -3.0680   21.2353    0.0317 H   0  0  0  0  0  0  0  0  0  0  0  0
   -3.7518   19.5742    0.0317 H   0  0  0  0  0  0  0  0  0  0  0  0
   -0.3321   16.3020   -1.9841 H   0  0  0  0  0  0  0  0  0  0  0  0
   -0.2202   16.3023   -4.3960 H   0  0  0  0  0  0  0  0  0  0  0  0
    1.4934   16.7722   -4.3935 H   0  0  0  0  0  0  0  0  0  0  0  0
    0.4914   14.1499   -4.9257 H   0  0  0  0  0  0  0  0  0  0  0  0
    2.1765   14.5069   -4.5564 H   0  0  0  0  0  0  0  0  0  0  0  0
   -0.8572   13.5898   -1.6350 H   0  0  0  0  0  0  0  0  0  0  0  0
   -1.1248   14.4533   -3.1872 H   0  0  0  0  0  0  0  0  0  0  0  0
   -0.7914   12.6882   -3.1872 H   0  0  0  0  0  0  0  0  0  0  0  0
    2.8321   12.9804   -2.7927 H   0  0  0  0  0  0  0  0  0  0  0  0
    1.1935   11.8797   -4.4491 H   0  0  0  0  0  0  0  0  0  0  0  0
    2.4432   10.8806   -3.5384 H   0  0  0  0  0  0  0  0  0  0  0  0
    0.0378    9.8288   -3.7463 H   0  0  0  0  0  0  0  0  0  0  0  0
   -0.1775   12.0917   -0.4080 H   0  0  0  0  0  0  0  0  0  0  0  0
    1.6008    9.7063    0.3951 H   0  0  0  0  0  0  0  0  0  0  0  0
    1.1150   11.1096    1.4465 H   0  0  0  0  0  0  0  0  0  0  0  0
   -0.1974    9.0717    1.9409 H   0  0  0  0  0  0  0  0  0  0  0  0
   -1.2134   10.4337    1.3251 H   0  0  0  0  0  0  0  0  0  0  0  0
   -1.9355    8.3989    0.2782 H   0  0  0  0  0  0  0  0  0  0  0  0
    0.6940    7.8540    0.3560 H   0  0  0  0  0  0  0  0  0  0  0  0
   -2.6621   10.6491   -0.1192 H   0  0  0  0  0  0  0  0  0  0  0  0
   -2.2673   11.4760   -1.6641 H   0  0  0  0  0  0  0  0  0  0  0  0
   -3.3475   10.0408   -1.6641 H   0  0  0  0  0  0  0  0  0  0  0  0
   -1.9842    7.6186   -1.9763 H   0  0  0  0  0  0  0  0  0  0  0  0
   -2.4365    8.9559   -3.0870 H   0  0  0  0  0  0  0  0  0  0  0  0
   -0.7575    8.3174   -3.0870 H   0  0  0  0  0  0  0  0  0  0  0  0
    3.3497   11.2013    0.2242 H   0  0  0  0  0  0  0  0  0  0  0  0
    3.0061   10.3527   -1.3213 H   0  0  0  0  0  0  0  0  0  0  0  0
    3.9904   11.8552   -1.3213 H   0  0  0  0  0  0  0  0  0  0  0  0
    1.6043   13.0641    0.9502 H   0  0  0  0  0  0  0  0  0  0  0  0
    3.0348   13.6818   -0.0528 H   0  0  0  0  0  0  0  0  0  0  0  0
    0.1266   14.5077   -0.2749 H   0  0  0  0  0  0  0  0  0  0  0  0
    1.5440   15.4967    0.2549 H   0  0  0  0  0  0  0  0  0  0  0  0
    3.4483   15.4951   -0.9806 H   0  0  0  0  0  0  0  0  0  0  0  0
    3.5064   14.5897   -2.5310 H   0  0  0  0  0  0  0  0  0  0  0  0
    3.1395   16.3481   -2.5310 H   0  0  0  0  0  0  0  0  0  0  0  0
  1  2  1  0
  2  3  1  0
  3  4  1  0
  4  5  1  0
  5  6  1  0
  6  7  1  0
  7  8  1  0
  7  9  1  0
  2 10  1  0
 10 11  1  0
 11 12  1  0
 12 13  1  0
 13 14  1  1
 13 15  1  0
 15 16  1  0
 16 17  1  0
 17 18  2  0
 18 19  1  0
 19 20  1  0
 20 21  1  0
 21 22  1  0
 22 23  1  0
 22 24  1  0
 24 25  1  0
 24 26  1  0
 19 27  1  0
 27 28  1  6
 27 29  1  0
 29 30  1  0
 30 31  1  0
 31 32  1  1
  7  5  1  0
 31 10  1  0
 31 13  1  0
 27 15  1  0
 24 18  1  0
  1 33  1  0
  1 34  1  0
  1 35  1  0
  2 36  1  6
  3 37  1  0
  3 38  1  0
  4 39  1  0
  4 40  1  0
  5 41  1  1
  8 42  1  0
  8 43  1  0
  8 44  1  0
  9 45  1  0
  9 46  1  0
  9 47  1  0
 10 48  1  1
 11 49  1  0
 11 50  1  0
 12 51  1  0
 12 52  1  0
 14 53  1  0
 14 54  1  0
 14 55  1  0
 15 56  1  6
 16 57  1  0
 16 58  1  0
 17 59  1  0
 19 60  1  1
 20 61  1  0
 20 62  1  0
 21 63  1  0
 21 64  1  0
 22 65  1  1
 23 66  1  0
 25 67  1  0
 25 68  1  0
 25 69  1  0
 26 70  1  0
 26 71  1  0
 26 72  1  0
 28 73  1  0
 28 74  1  0
 28 75  1  0
 29 76  1  0
 29 77  1  0
 30 78  1  0
 30 79  1  0
 32 80  1  0
 32 81  1  0
 32 82  1  0
M  END
>  <meeko>  (3) 
{"is_sidechain": [false], "intermolecular_energy": 2.731, "internal_energy": -0.839}

$$$$
EPH_relaxed_0001_pdb2pqr_Repair_214_r2_0001_out
     RDKit          3D

 82 86  0  0  0  0  0  0  0  0999 V2000
    0.3510   18.4880   -0.0040 C   0  0  0  0  0  0  0  0  0  0  0  0
    1.4430   17.4340   -0.2040 C   0  0  2  0  0  0  0  0  0  0  0  0
    2.6690   18.0010   -0.9480 C   0  0  0  0  0  0  0  0  0  0  0  0
    3.9010   18.1810   -0.0570 C   0  0  0  0  0  0  0  0  0  0  0  0
    3.5310   18.6850    1.3060 C   0  0  2  0  0  0  0  0  0  0  0  0
    3.8140   20.0730    1.5280 O   0  0  0  0  0  0  0  0  0  0  0  0
    4.5490   19.1390    2.3350 C   0  0  0  0  0  0  0  0  0  0  0  0
    6.0170   19.1090    2.0460 C   0  0  0  0  0  0  0  0  0  0  0  0
    4.1530   19.1460    3.7780 C   0  0  0  0  0  0  0  0  0  0  0  0
    0.8800   16.2390   -0.9630 C   0  0  1  0  0  0  0  0  0  0  0  0
    0.7300   16.5140   -2.4830 C   0  0  0  0  0  0  0  0  0  0  0  0
    1.0320   15.1790   -3.2110 C   0  0  0  0  0  0  0  0  0  0  0  0
    1.0190   14.1120   -2.0920 C   0  0  1  0  0  0  0  0  0  0  0  0
   -0.4910   13.7900   -1.8620 C   0  0  0  0  0  0  0  0  0  0  0  0
    1.8510   12.8160   -2.3620 C   0  0  2  0  0  0  0  0  0  0  0  0
    1.3810   11.9780   -3.5640 C   0  0  0  0  0  0  0  0  0  0  0  0
    0.3690   10.9260   -3.2510 C   0  0  0  0  0  0  0  0  0  0  0  0
    0.0680   10.4720   -2.0200 C   0  0  0  0  0  0  0  0  0  0  0  0
    0.8450   10.9570   -0.7900 C   0  0  1  0  0  0  0  0  0  0  0  0
    1.2300    9.7400    0.0920 C   0  0  0  0  0  0  0  0  0  0  0  0
    0.0240    8.8830    0.4640 C   0  0  0  0  0  0  0  0  0  0  0  0
   -0.6880    8.3710   -0.7850 C   0  0  2  0  0  0  0  0  0  0  0  0
    0.1770    7.4570   -1.4670 O   0  0  0  0  0  0  0  0  0  0  0  0
   -1.1150    9.5080   -1.7550 C   0  0  0  0  0  0  0  0  0  0  0  0
   -2.2730   10.3210   -1.1260 C   0  0  0  0  0  0  0  0  0  0  0  0
   -1.6930    8.8500   -3.0370 C   0  0  0  0  0  0  0  0  0  0  0  0
    2.0800   11.9140   -1.0820 C   0  0  1  0  0  0  0  0  0  0  0  0
    3.3570   11.0640   -1.3600 C   0  0  0  0  0  0  0  0  0  0  0  0
    2.3850   12.7680    0.2050 C   0  0  0  0  0  0  0  0  0  0  0  0
    1.6190   14.0960    0.3550 C   0  0  0  0  0  0  0  0  0  0  0  0
    1.6990   14.9240   -0.9300 C   0  0  2  0  0  0  0  0  0  0  0  0
    3.2050   15.2820   -1.1750 C   0  0  0  0  0  0  0  0  0  0  0  0
    0.1869   18.6464    1.0721 H   0  0  0  0  0  0  0  0  0  0  0  0
    0.6644   19.4337   -0.4702 H   0  0  0  0  0  0  0  0  0  0  0  0
   -0.5830   18.1413   -0.4702 H   0  0  0  0  0  0  0  0  0  0  0  0
    1.7807   17.1151    0.7931 H   0  0  0  0  0  0  0  0  0  0  0  0
    2.9289   17.3116   -1.7648 H   0  0  0  0  0  0  0  0  0  0  0  0
    2.3889   18.9996   -1.3146 H   0  0  0  0  0  0  0  0  0  0  0  0
    4.4101   17.2115    0.0475 H   0  0  0  0  0  0  0  0  0  0  0  0
    4.5605   18.9236   -0.5298 H   0  0  0  0  0  0  0  0  0  0  0  0
    2.6878   17.9809    1.3633 H   0  0  0  0  0  0  0  0  0  0  0  0
    6.5769   19.0976    2.9928 H   0  0  0  0  0  0  0  0  0  0  0  0
    6.2582   18.2057    1.4664 H   0  0  0  0  0  0  0  0  0  0  0  0
    6.2949   20.0017    1.4664 H   0  0  0  0  0  0  0  0  0  0  0  0
    5.0559   19.1300    4.4061 H   0  0  0  0  0  0  0  0  0  0  0  0
    3.5719   20.0546    3.9943 H   0  0  0  0  0  0  0  0  0  0  0  0
    3.5401   18.2585    3.9943 H   0  0  0  0  0  0  0  0  0  0  0  0
   -0.0670   16.1056   -0.4195 H   0  0  0  0  0  0  0  0  0  0  0  0
   -0.2944   16.8453   -2.7087 H   0  0  0  0  0  0  0  0  0  0  0  0
    1.4183   17.3070   -2.8107 H   0  0  0  0  0  0  0  0  0  0  0  0
    0.2583   14.9629   -3.9624 H   0  0  0  0  0  0  0  0  0  0  0  0
    1.9904   15.2058   -3.7503 H   0  0  0  0  0  0  0  0  0  0  0  0
   -0.6962   13.7462   -0.7822 H   0  0  0  0  0  0  0  0  0  0  0  0
   -1.1077   14.5768   -2.3209 H   0  0  0  0  0  0  0  0  0  0  0  0
   -0.7331   12.8200   -2.3209 H   0  0  0  0  0  0  0  0  0  0  0  0
    2.8334   13.2211   -2.6461 H   0  0  0  0  0  0  0  0  0  0  0  0
    0.9418   12.6625   -4.3047 H   0  0  0  0  0  0  0  0  0  0  0  0
    2.2709   11.4450   -3.9301 H   0  0  0  0  0  0  0  0  0  0  0  0
   -0.1768   10.4846   -4.0979 H   0  0  0  0  0  0  0  0  0  0  0  0
    0.1591   11.6165   -0.2380 H   0  0  0  0  0  0  0  0  0  0  0  0
    1.9484    9.1169   -0.4609 H   0  0  0  0  0  0  0  0  0  0  0  0
    1.6649   10.1278    1.0250 H   0  0  0  0  0  0  0  0  0  0  0  0
    0.3633    8.0245    1.0622 H   0  0  0  0  0  0  0  0  0  0  0  0
   -0.6803    9.5001    1.0413 H   0  0  0  0  0  0  0  0  0  0  0  0
   -1.6127    7.8734   -0.4573 H   0  0  0  0  0  0  0  0  0  0  0  0
    1.0870    7.7850   -1.3710 H   0  0  0  0  0  0  0  0  0  0  0  0
   -2.2024   10.2714   -0.0294 H   0  0  0  0  0  0  0  0  0  0  0  0
   -2.2035   11.3696   -1.4509 H   0  0  0  0  0  0  0  0  0  0  0  0
   -3.2357    9.8995   -1.4509 H   0  0  0  0  0  0  0  0  0  0  0  0
   -2.3946    8.0512   -2.7547 H   0  0  0  0  0  0  0  0  0  0  0  0
   -2.2217    9.6090   -3.6323 H   0  0  0  0  0  0  0  0  0  0  0  0
   -0.8722    8.4236   -3.6323 H   0  0  0  0  0  0  0  0  0  0  0  0
    3.8113   10.7616   -0.4049 H   0  0  0  0  0  0  0  0  0  0  0  0
    3.0827   10.1677   -1.9356 H   0  0  0  0  0  0  0  0  0  0  0  0
    4.0780   11.6630   -1.9356 H   0  0  0  0  0  0  0  0  0  0  0  0
    2.1478   12.1462    1.0809 H   0  0  0  0  0  0  0  0  0  0  0  0
    3.4433   13.0546    0.1161 H   0  0  0  0  0  0  0  0  0  0  0  0
    0.5639   13.8794    0.5782 H   0  0  0  0  0  0  0  0  0  0  0  0
    2.0754   14.6732    1.1726 H   0  0  0  0  0  0  0  0  0  0  0  0
    3.7151   15.4033   -0.2080 H   0  0  0  0  0  0  0  0  0  0  0  0
    3.6862   14.4732   -1.7445 H   0  0  0  0  0  0  0  0  0  0  0  0
    3.2708   16.2208   -1.7445 H   0  0  0  0  0  0  0  0  0  0  0  0
  1  2  1  0
  2  3  1  0
  3  4  1  0
  4  5  1  0
  5  6  1  0
  6  7  1  0
  7  8  1  0
  7  9  1  0
  2 10  1  0
 10 11  1  0
 11 12  1  0
 12 13  1  0
 13 14  1  1
 13 15  1  0
 15 16  1  0
 16 17  1  0
 17 18  2  0
 18 19  1  0
 19 20  1  0
 20 21  1  0
 21 22  1  0
 22 23  1  0
 22 24  1  0
 24 25  1  0
 24 26  1  0
 19 27  1  0
 27 28  1  6
 27 29  1  0
 29 30  1  0
 30 31  1  0
 31 32  1  6
  7  5  1  0
 31 10  1  0
 31 13  1  0
 27 15  1  0
 24 18  1  0
  1 33  1  0
  1 34  1  0
  1 35  1  0
  2 36  1  1
  3 37  1  0
  3 38  1  0
  4 39  1  0
  4 40  1  0
  5 41  1  1
  8 42  1  0
  8 43  1  0
  8 44  1  0
  9 45  1  0
  9 46  1  0
  9 47  1  0
 10 48  1  1
 11 49  1  0
 11 50  1  0
 12 51  1  0
 12 52  1  0
 14 53  1  0
 14 54  1  0
 14 55  1  0
 15 56  1  6
 16 57  1  0
 16 58  1  0
 17 59  1  0
 19 60  1  1
 20 61  1  0
 20 62  1  0
 21 63  1  0
 21 64  1  0
 22 65  1  1
 23 66  1  0
 25 67  1  0
 25 68  1  0
 25 69  1  0
 26 70  1  0
 26 71  1  0
 26 72  1  0
 28 73  1  0
 28 74  1  0
 28 75  1  0
 29 76  1  0
 29 77  1  0
 30 78  1  0
 30 79  1  0
 32 80  1  0
 32 81  1  0
 32 82  1  0
M  END
>  <meeko>  (4) 
{"is_sidechain": [false], "intermolecular_energy": 2.731, "internal_energy": -0.839}

$$$$
EPH_relaxed_0001_pdb2pqr_Repair_214_r2_0001_out
     RDKit          3D

 82 86  0  0  0  0  0  0  0  0999 V2000
   -5.1280    5.8990   -1.7720 C   0  0  0  0  0  0  0  0  0  0  0  0
   -5.4470    7.3970   -1.7960 C   0  0  2  0  0  0  0  0  0  0  0  0
   -5.2330    8.0580   -0.4190 C   0  0  0  0  0  0  0  0  0  0  0  0
   -4.1620    9.1510   -0.4210 C   0  0  0  0  0  0  0  0  0  0  0  0
   -2.8350    8.6270   -0.8800 C   0  0  2  0  0  0  0  0  0  0  0  0
   -1.7530    8.8540    0.0330 O   0  0  0  0  0  0  0  0  0  0  0  0
   -1.6610    9.5190   -1.2380 C   0  0  0  0  0  0  0  0  0  0  0  0
   -1.7600   11.0100   -1.1530 C   0  0  0  0  0  0  0  0  0  0  0  0
   -0.5900    8.9700   -2.1290 C   0  0  0  0  0  0  0  0  0  0  0  0
   -6.8810    7.6160   -2.2620 C   0  0  1  0  0  0  0  0  0  0  0  0
   -7.1830    6.9190   -3.6150 C   0  0  0  0  0  0  0  0  0  0  0  0
   -8.6560    6.4380   -3.5520 C   0  0  0  0  0  0  0  0  0  0  0  0
   -9.2480    7.1560   -2.3170 C   0  0  1  0  0  0  0  0  0  0  0  0
   -9.6060    8.5900   -2.8200 C   0  0  0  0  0  0  0  0  0  0  0  0
  -10.4720    6.4620   -1.6350 C   0  0  2  0  0  0  0  0  0  0  0  0
  -11.7240    6.3300   -2.5200 C   0  0  0  0  0  0  0  0  0  0  0  0
  -12.6840    7.4710   -2.4400 C   0  0  0  0  0  0  0  0  0  0  0  0
  -12.6940    8.4200   -1.4850 C   0  0  0  0  0  0  0  0  0  0  0  0
  -11.7310    8.3480   -0.2930 C   0  0  1  0  0  0  0  0  0  0  0  0
  -12.5100    8.6230    1.0190 C   0  0  0  0  0  0  0  0  0  0  0  0
  -13.2860    9.9360    0.9750 C   0  0  0  0  0  0  0  0  0  0  0  0
  -14.2750    9.9450   -0.1890 C   0  0  2  0  0  0  0  0  0  0  0  0
  -15.2870    8.9660    0.0580 O   0  0  0  0  0  0  0  0  0  0  0  0
  -13.6050    9.6690   -1.5640 C   0  0  0  0  0  0  0  0  0  0  0  0
  -12.7320   10.8820   -1.9710 C   0  0  0  0  0  0  0  0  0  0  0  0
  -14.7280    9.5660   -2.6300 C   0  0  0  0  0  0  0  0  0  0  0  0
  -10.8310    7.0400   -0.2060 C   0  0  1  0  0  0  0  0  0  0  0  0
  -11.6010    5.9140    0.5490 C   0  0  0  0  0  0  0  0  0  0  0  0
   -9.5490    7.3540    0.6520 C   0  0  0  0  0  0  0  0  0  0  0  0
   -8.3330    7.9270   -0.1000 C   0  0  0  0  0  0  0  0  0  0  0  0
   -8.0150    7.0920   -1.3440 C   0  0  2  0  0  0  0  0  0  0  0  0
   -7.6300    5.6500   -0.8680 C   0  0  0  0  0  0  0  0  0  0  0  0
   -5.0550    5.5563   -0.7293 H   0  0  0  0  0  0  0  0  0  0  0  0
   -5.9284    5.3454   -2.2847 H   0  0  0  0  0  0  0  0  0  0  0  0
   -4.1715    5.7195   -2.2847 H   0  0  0  0  0  0  0  0  0  0  0  0
   -4.7506    7.8725   -2.5023 H   0  0  0  0  0  0  0  0  0  0  0  0
   -6.1849    8.5052   -0.0968 H   0  0  0  0  0  0  0  0  0  0  0  0
   -4.8865    7.2697    0.2656 H   0  0  0  0  0  0  0  0  0  0  0  0
   -4.4790    9.9592   -1.0965 H   0  0  0  0  0  0  0  0  0  0  0  0
   -4.0470    9.5198    0.6089 H   0  0  0  0  0  0  0  0  0  0  0  0
   -3.3214    7.7980   -1.4149 H   0  0  0  0  0  0  0  0  0  0  0  0
   -1.7804   11.3165   -0.0968 H   0  0  0  0  0  0  0  0  0  0  0  0
   -0.8900   11.4642   -1.6499 H   0  0  0  0  0  0  0  0  0  0  0  0
   -2.6824   11.3452   -1.6499 H   0  0  0  0  0  0  0  0  0  0  0  0
    0.2214    8.5541   -1.5136 H   0  0  0  0  0  0  0  0  0  0  0  0
   -1.0120    8.1771   -2.7639 H   0  0  0  0  0  0  0  0  0  0  0  0
   -0.1926    9.7756   -2.7639 H   0  0  0  0  0  0  0  0  0  0  0  0
   -6.8988    8.7154   -2.2927 H   0  0  0  0  0  0  0  0  0  0  0  0
   -7.0517    7.6293   -4.4446 H   0  0  0  0  0  0  0  0  0  0  0  0
   -6.4989    6.0746   -3.7855 H   0  0  0  0  0  0  0  0  0  0  0  0
   -9.1978    6.7255   -4.4651 H   0  0  0  0  0  0  0  0  0  0  0  0
   -8.7346    5.3435   -3.4758 H   0  0  0  0  0  0  0  0  0  0  0  0
   -9.7710    9.2510   -1.9563 H   0  0  0  0  0  0  0  0  0  0  0  0
   -8.7782    8.9822   -3.4290 H   0  0  0  0  0  0  0  0  0  0  0  0
  -10.5210    8.5471   -3.4290 H   0  0  0  0  0  0  0  0  0  0  0  0
  -10.1065    5.4359   -1.4812 H   0  0  0  0  0  0  0  0  0  0  0  0
  -11.3934    6.2364   -3.5650 H   0  0  0  0  0  0  0  0  0  0  0  0
  -12.2673    5.4482   -2.1495 H   0  0  0  0  0  0  0  0  0  0  0  0
  -13.4479    7.5422   -3.2283 H   0  0  0  0  0  0  0  0  0  0  0  0
  -10.9848    9.1394   -0.4569 H   0  0  0  0  0  0  0  0  0  0  0  0
  -13.2197    7.7995    1.1868 H   0  0  0  0  0  0  0  0  0  0  0  0
  -11.7751    8.6969    1.8342 H   0  0  0  0  0  0  0  0  0  0  0  0
  -13.8384   10.0598    1.9181 H   0  0  0  0  0  0  0  0  0  0  0  0
  -12.5726   10.7618    0.8368 H   0  0  0  0  0  0  0  0  0  0  0  0
  -14.7062   10.9553   -0.2474 H   0  0  0  0  0  0  0  0  0  0  0  0
  -15.8140    8.8760   -0.7540 H   0  0  0  0  0  0  0  0  0  0  0  0
  -12.3662   11.3903   -1.0667 H   0  0  0  0  0  0  0  0  0  0  0  0
  -11.8760   10.5339   -2.5677 H   0  0  0  0  0  0  0  0  0  0  0  0
  -13.3339   11.5832   -2.5677 H   0  0  0  0  0  0  0  0  0  0  0  0
  -15.7028    9.4766   -2.1282 H   0  0  0  0  0  0  0  0  0  0  0  0
  -14.7207   10.4686   -3.2587 H   0  0  0  0  0  0  0  0  0  0  0  0
  -14.5566    8.6798   -3.2587 H   0  0  0  0  0  0  0  0  0  0  0  0
  -11.4986    6.0637    1.6339 H   0  0  0  0  0  0  0  0  0  0  0  0
  -12.6652    5.9489    0.2729 H   0  0  0  0  0  0  0  0  0  0  0  0
  -11.1825    4.9349    0.2729 H   0  0  0  0  0  0  0  0  0  0  0  0
   -9.8359    8.0825    1.4246 H   0  0  0  0  0  0  0  0  0  0  0  0
   -9.2155    6.3795    1.0382 H   0  0  0  0  0  0  0  0  0  0  0  0
   -8.5536    8.9601   -0.4067 H   0  0  0  0  0  0  0  0  0  0  0  0
   -7.4619    7.9025    0.5712 H   0  0  0  0  0  0  0  0  0  0  0  0
   -7.6212    5.6169    0.2315 H   0  0  0  0  0  0  0  0  0  0  0  0
   -8.3670    4.9286   -1.2506 H   0  0  0  0  0  0  0  0  0  0  0  0
   -6.6315    5.3919   -1.2506 H   0  0  0  0  0  0  0  0  0  0  0  0
  1  2  1  0
  2  3  1  0
  3  4  1  0
  4  5  1  0
  5  6  1  0
  6  7  1  0
  7  8  1  0
  7  9  1  0
  2 10  1  0
 10 11  1  0
 11 12  1  0
 12 13  1  0
 13 14  1  6
 13 15  1  0
 15 16  1  0
 16 17  1  0
 17 18  2  0
 18 19  1  0
 19 20  1  0
 20 21  1  0
 21 22  1  0
 22 23  1  0
 22 24  1  0
 24 25  1  0
 24 26  1  0
 19 27  1  0
 27 28  1  1
 27 29  1  0
 29 30  1  0
 30 31  1  0
 31 32  1  1
  7  5  1  0
 31 10  1  0
 31 13  1  0
 27 15  1  0
 24 18  1  0
  1 33  1  0
  1 34  1  0
  1 35  1  0
  2 36  1  6
  3 37  1  0
  3 38  1  0
  4 39  1  0
  4 40  1  0
  5 41  1  6
  8 42  1  0
  8 43  1  0
  8 44  1  0
  9 45  1  0
  9 46  1  0
  9 47  1  0
 10 48  1  6
 11 49  1  0
 11 50  1  0
 12 51  1  0
 12 52  1  0
 14 53  1  0
 14 54  1  0
 14 55  1  0
 15 56  1  1
 16 57  1  0
 16 58  1  0
 17 59  1  0
 19 60  1  6
 20 61  1  0
 20 62  1  0
 21 63  1  0
 21 64  1  0
 22 65  1  6
 23 66  1  0
 25 67  1  0
 25 68  1  0
 25 69  1  0
 26 70  1  0
 26 71  1  0
 26 72  1  0
 28 73  1  0
 28 74  1  0
 28 75  1  0
 29 76  1  0
 29 77  1  0
 30 78  1  0
 30 79  1  0
 32 80  1  0
 32 81  1  0
 32 82  1  0
M  END
>  <meeko>  (5) 
{"is_sidechain": [false], "intermolecular_energy": 2.731, "internal_energy": -0.839}

$$$$
EPH_relaxed_0001_pdb2pqr_Repair_214_r2_0001_out
     RDKit          3D

 82 86  0  0  0  0  0  0  0  0999 V2000
    0.4260    8.8620   -2.5080 C   0  0  0  0  0  0  0  0  0  0  0  0
    1.1880   10.0160   -3.1650 C   0  0  2  0  0  0  0  0  0  0  0  0
    2.6820   10.0170   -2.7830 C   0  0  0  0  0  0  0  0  0  0  0  0
    3.5930   10.6040   -3.8640 C   0  0  0  0  0  0  0  0  0  0  0  0
    4.9810   10.8420   -3.3490 C   0  0  2  0  0  0  0  0  0  0  0  0
    5.5890   12.0570   -3.8080 O   0  0  0  0  0  0  0  0  0  0  0  0
    6.2140   10.8350   -4.2340 C   0  0  0  0  0  0  0  0  0  0  0  0
    6.1160   10.5840   -5.7060 C   0  0  0  0  0  0  0  0  0  0  0  0
    7.5470   10.5870   -3.6010 C   0  0  0  0  0  0  0  0  0  0  0  0
    0.5510   11.3460   -2.7800 C   0  0  1  0  0  0  0  0  0  0  0  0
   -0.8370   11.1710   -2.1080 C   0  0  0  0  0  0  0  0  0  0  0  0
   -0.9620   12.2900   -1.0420 C   0  0  0  0  0  0  0  0  0  0  0  0
    0.1980   13.2620   -1.3590 C   0  0  1  0  0  0  0  0  0  0  0  0
   -0.3300   14.1470   -2.5320 C   0  0  0  0  0  0  0  0  0  0  0  0
    0.7160   14.1320   -0.1680 C   0  0  2  0  0  0  0  0  0  0  0  0
   -0.3180   15.1020    0.4290 C   0  0  0  0  0  0  0  0  0  0  0  0
   -0.3450   16.4630   -0.1850 C   0  0  0  0  0  0  0  0  0  0  0  0
    0.6110   16.9830   -0.9760 C   0  0  0  0  0  0  0  0  0  0  0  0
    1.9120   16.2160   -1.2470 C   0  0  1  0  0  0  0  0  0  0  0  0
    3.1220   17.1740   -1.0800 C   0  0  0  0  0  0  0  0  0  0  0  0
    2.9960   18.4300   -1.9360 C   0  0  0  0  0  0  0  0  0  0  0  0
    1.7190   19.1950   -1.5970 C   0  0  2  0  0  0  0  0  0  0  0  0
    1.8280   19.7070   -0.2650 O   0  0  0  0  0  0  0  0  0  0  0  0
    0.4340   18.3290   -1.7200 C   0  0  0  0  0  0  0  0  0  0  0  0
    0.1520   18.0270   -3.2130 C   0  0  0  0  0  0  0  0  0  0  0  0
   -0.7640   19.1780   -1.2160 C   0  0  0  0  0  0  0  0  0  0  0  0
    2.0950   14.8560   -0.4460 C   0  0  1  0  0  0  0  0  0  0  0  0
    2.7370   15.1410    0.9470 C   0  0  0  0  0  0  0  0  0  0  0  0
    3.1090   13.9350   -1.2220 C   0  0  0  0  0  0  0  0  0  0  0  0
    2.5200   13.0110   -2.3050 C   0  0  0  0  0  0  0  0  0  0  0  0
    1.3150   12.2340   -1.7660 C   0  0  2  0  0  0  0  0  0  0  0  0
    1.8200   11.3180   -0.5990 C   0  0  0  0  0  0  0  0  0  0  0  0
    0.4887    8.9570   -1.4139 H   0  0  0  0  0  0  0  0  0  0  0  0
   -0.6286    8.8948   -2.8190 H   0  0  0  0  0  0  0  0  0  0  0  0
    0.8704    7.9050   -2.8190 H   0  0  0  0  0  0  0  0  0  0  0  0
    1.1257    9.8759   -4.2543 H   0  0  0  0  0  0  0  0  0  0  0  0
    2.8054   10.6104   -1.8650 H   0  0  0  0  0  0  0  0  0  0  0  0
    2.9798    8.9668   -2.6470 H   0  0  0  0  0  0  0  0  0  0  0  0
    3.6417    9.9018   -4.7093 H   0  0  0  0  0  0  0  0  0  0  0  0
    3.1732   11.5707   -4.1790 H   0  0  0  0  0  0  0  0  0  0  0  0
    4.7462   10.3251   -2.4068 H   0  0  0  0  0  0  0  0  0  0  0  0
    5.7210    9.5722   -5.8799 H   0  0  0  0  0  0  0  0  0  0  0  0
    5.4409   11.3243   -6.1600 H   0  0  0  0  0  0  0  0  0  0  0  0
    7.1141   10.6710   -6.1600 H   0  0  0  0  0  0  0  0  0  0  0  0
    7.4423   10.6065   -2.5062 H   0  0  0  0  0  0  0  0  0  0  0  0
    7.9250    9.6031   -3.9158 H   0  0  0  0  0  0  0  0  0  0  0  0
    8.2536   11.3691   -3.9158 H   0  0  0  0  0  0  0  0  0  0  0  0
    0.5312   11.8330   -3.7661 H   0  0  0  0  0  0  0  0  0  0  0  0
   -1.6360   11.2708   -2.8574 H   0  0  0  0  0  0  0  0  0  0  0  0
   -0.9310   10.1758   -1.6489 H   0  0  0  0  0  0  0  0  0  0  0  0
   -1.9319   12.8017   -1.1280 H   0  0  0  0  0  0  0  0  0  0  0  0
   -0.9082   11.8967   -0.0161 H   0  0  0  0  0  0  0  0  0  0  0  0
   -0.8532   15.0239   -2.1230 H   0  0  0  0  0  0  0  0  0  0  0  0
    0.5169   14.4805   -3.1497 H   0  0  0  0  0  0  0  0  0  0  0  0
   -1.0257   13.5601   -3.1497 H   0  0  0  0  0  0  0  0  0  0  0  0
    0.9030   13.3783    0.6111 H   0  0  0  0  0  0  0  0  0  0  0  0
   -1.3150   14.6539    0.3060 H   0  0  0  0  0  0  0  0  0  0  0  0
   -0.0270   15.2480    1.4797 H   0  0  0  0  0  0  0  0  0  0  0  0
   -1.2207   17.0938    0.0275 H   0  0  0  0  0  0  0  0  0  0  0  0
    1.8502   15.8707   -2.2896 H   0  0  0  0  0  0  0  0  0  0  0  0
    3.1921   17.4728   -0.0237 H   0  0  0  0  0  0  0  0  0  0  0  0
    4.0226   16.6348   -1.4088 H   0  0  0  0  0  0  0  0  0  0  0  0
    3.8644   19.0796   -1.7522 H   0  0  0  0  0  0  0  0  0  0  0  0
    2.9563   18.1315   -2.9940 H   0  0  0  0  0  0  0  0  0  0  0  0
    1.6190   20.0097   -2.3293 H   0  0  0  0  0  0  0  0  0  0  0  0
    2.6910   20.1490   -0.1900 H   0  0  0  0  0  0  0  0  0  0  0  0
   -0.5969   17.2250   -3.2898 H   0  0  0  0  0  0  0  0  0  0  0  0
   -0.2301   18.9338   -3.7047 H   0  0  0  0  0  0  0  0  0  0  0  0
    1.0828   17.7078   -3.7047 H   0  0  0  0  0  0  0  0  0  0  0  0
   -0.7722   19.1838   -0.1160 H   0  0  0  0  0  0  0  0  0  0  0  0
   -0.6650   20.2087   -1.5874 H   0  0  0  0  0  0  0  0  0  0  0  0
   -1.7036   18.7431   -1.5874 H   0  0  0  0  0  0  0  0  0  0  0  0
    2.0415   14.8323    1.7413 H   0  0  0  0  0  0  0  0  0  0  0  0
    3.6755   14.5750    1.0409 H   0  0  0  0  0  0  0  0  0  0  0  0
    2.9467   16.2167    1.0409 H   0  0  0  0  0  0  0  0  0  0  0  0
    3.8475   14.5892   -1.7085 H   0  0  0  0  0  0  0  0  0  0  0  0
    3.5235   13.2580   -0.4605 H   0  0  0  0  0  0  0  0  0  0  0  0
    2.2007   13.6204   -3.1633 H   0  0  0  0  0  0  0  0  0  0  0  0
    3.2935   12.2911   -2.6107 H   0  0  0  0  0  0  0  0  0  0  0  0
    1.5653   11.7800    0.3662 H   0  0  0  0  0  0  0  0  0  0  0  0
    1.3381   10.3319   -0.6721 H   0  0  0  0  0  0  0  0  0  0  0  0
    2.9111   11.1991   -0.6721 H   0  0  0  0  0  0  0  0  0  0  0  0
  1  2  1  0
  2  3  1  0
  3  4  1  0
  4  5  1  0
  5  6  1  0
  6  7  1  0
  7  8  1  0
  7  9  1  0
  2 10  1  0
 10 11  1  0
 11 12  1  0
 12 13  1  0
 13 14  1  6
 13 15  1  0
 15 16  1  0
 16 17  1  0
 17 18  2  0
 18 19  1  0
 19 20  1  0
 20 21  1  0
 21 22  1  0
 22 23  1  0
 22 24  1  0
 24 25  1  0
 24 26  1  0
 19 27  1  0
 27 28  1  1
 27 29  1  0
 29 30  1  0
 30 31  1  0
 31 32  1  1
  7  5  1  0
 31 10  1  0
 31 13  1  0
 27 15  1  0
 24 18  1  0
  1 33  1  0
  1 34  1  0
  1 35  1  0
  2 36  1  6
  3 37  1  0
  3 38  1  0
  4 39  1  0
  4 40  1  0
  5 41  1  1
  8 42  1  0
  8 43  1  0
  8 44  1  0
  9 45  1  0
  9 46  1  0
  9 47  1  0
 10 48  1  6
 11 49  1  0
 11 50  1  0
 12 51  1  0
 12 52  1  0
 14 53  1  0
 14 54  1  0
 14 55  1  0
 15 56  1  1
 16 57  1  0
 16 58  1  0
 17 59  1  0
 19 60  1  6
 20 61  1  0
 20 62  1  0
 21 63  1  0
 21 64  1  0
 22 65  1  6
 23 66  1  0
 25 67  1  0
 25 68  1  0
 25 69  1  0
 26 70  1  0
 26 71  1  0
 26 72  1  0
 28 73  1  0
 28 74  1  0
 28 75  1  0
 29 76  1  0
 29 77  1  0
 30 78  1  0
 30 79  1  0
 32 80  1  0
 32 81  1  0
 32 82  1  0
M  END
>  <meeko>  (6) 
{"is_sidechain": [false], "intermolecular_energy": 2.731, "internal_energy": -0.839}

$$$$
EPH_relaxed_0001_pdb2pqr_Repair_214_r2_0001_out
     RDKit          3D

 82 86  0  0  0  0  0  0  0  0999 V2000
    3.2280   18.8370   -1.7430 C   0  0  0  0  0  0  0  0  0  0  0  0
    1.8050   18.8840   -1.1810 C   0  0  2  0  0  0  0  0  0  0  0  0
    1.6730   19.8880   -0.0180 C   0  0  0  0  0  0  0  0  0  0  0  0
    2.1820   19.3480    1.3210 C   0  0  0  0  0  0  0  0  0  0  0  0
    3.6740   19.4490    1.4290 C   0  0  2  0  0  0  0  0  0  0  0  0
    4.3030   18.3430    2.0890 O   0  0  0  0  0  0  0  0  0  0  0  0
    4.4080   19.6170    2.7460 C   0  0  0  0  0  0  0  0  0  0  0  0
    3.6710   19.6940    4.0460 C   0  0  0  0  0  0  0  0  0  0  0  0
    5.7900   20.1920    2.7260 C   0  0  0  0  0  0  0  0  0  0  0  0
    1.3810   17.4940   -0.7200 C   0  0  1  0  0  0  0  0  0  0  0  0
    0.1000   17.5200    0.1560 C   0  0  0  0  0  0  0  0  0  0  0  0
   -0.6920   16.2290   -0.1740 C   0  0  0  0  0  0  0  0  0  0  0  0
    0.3040   15.3510   -0.9680 C   0  0  1  0  0  0  0  0  0  0  0  0
    1.1980   14.6760    0.1180 C   0  0  0  0  0  0  0  0  0  0  0  0
   -0.3250   14.2970   -1.9360 C   0  0  2  0  0  0  0  0  0  0  0  0
   -1.1820   13.2150   -1.2560 C   0  0  0  0  0  0  0  0  0  0  0  0
   -0.4460   11.9840   -0.8440 C   0  0  0  0  0  0  0  0  0  0  0  0
    0.7840   11.6310   -1.2620 C   0  0  0  0  0  0  0  0  0  0  0  0
    1.5250   12.4600   -2.3200 C   0  0  1  0  0  0  0  0  0  0  0  0
    2.1260   11.5130   -3.3910 C   0  0  0  0  0  0  0  0  0  0  0  0
    3.0050   10.4240   -2.7830 C   0  0  0  0  0  0  0  0  0  0  0  0
    2.2170    9.5850   -1.7810 C   0  0  2  0  0  0  0  0  0  0  0  0
    1.2110    8.8500   -2.4840 O   0  0  0  0  0  0  0  0  0  0  0  0
    1.5560   10.4320   -0.6580 C   0  0  0  0  0  0  0  0  0  0  0  0
    2.6500   10.9860    0.2890 C   0  0  0  0  0  0  0  0  0  0  0  0
    0.6780    9.4840    0.2020 C   0  0  0  0  0  0  0  0  0  0  0  0
    0.7040   13.6610   -2.9580 C   0  0  1  0  0  0  0  0  0  0  0  0
   -0.1320   13.1500   -4.1710 C   0  0  0  0  0  0  0  0  0  0  0  0
    1.7120   14.7260   -3.5310 C   0  0  0  0  0  0  0  0  0  0  0  0
    2.2040   15.8130   -2.5570 C   0  0  0  0  0  0  0  0  0  0  0  0
    1.0290   16.4580   -1.8170 C   0  0  2  0  0  0  0  0  0  0  0  0
    0.1230   17.1650   -2.8820 C   0  0  0  0  0  0  0  0  0  0  0  0
    3.9494   18.8132   -0.9130 H   0  0  0  0  0  0  0  0  0  0  0  0
    3.3489   17.9344   -2.3600 H   0  0  0  0  0  0  0  0  0  0  0  0
    3.4082   19.7297   -2.3600 H   0  0  0  0  0  0  0  0  0  0  0  0
    1.1415   19.2256   -1.9892 H   0  0  0  0  0  0  0  0  0  0  0  0
    2.2496   20.7900   -0.2706 H   0  0  0  0  0  0  0  0  0  0  0  0
    0.6003   20.0972    0.1063 H   0  0  0  0  0  0  0  0  0  0  0  0
    1.7255   19.9286    2.1362 H   0  0  0  0  0  0  0  0  0  0  0  0
    1.9045   18.2858    1.3900 H   0  0  0  0  0  0  0  0  0  0  0  0
    3.7288   19.9999    0.4785 H   0  0  0  0  0  0  0  0  0  0  0  0
    4.3865   19.6192    4.8781 H   0  0  0  0  0  0  0  0  0  0  0  0
    3.1357   20.6530    4.1078 H   0  0  0  0  0  0  0  0  0  0  0  0
    2.9490   18.8664    4.1078 H   0  0  0  0  0  0  0  0  0  0  0  0
    6.1413   20.3382    3.7581 H   0  0  0  0  0  0  0  0  0  0  0  0
    6.4671   19.5009    2.2026 H   0  0  0  0  0  0  0  0  0  0  0  0
    5.7771   21.1594    2.2026 H   0  0  0  0  0  0  0  0  0  0  0  0
    2.2963   17.1869   -0.1929 H   0  0  0  0  0  0  0  0  0  0  0  0
    0.3702   17.5368    1.2222 H   0  0  0  0  0  0  0  0  0  0  0  0
   -0.5022   18.4171   -0.0504 H   0  0  0  0  0  0  0  0  0  0  0  0
   -1.0073   15.7205    0.7490 H   0  0  0  0  0  0  0  0  0  0  0  0
   -1.6097   16.4373   -0.7436 H   0  0  0  0  0  0  0  0  0  0  0  0
    0.8320   14.9523    1.1178 H   0  0  0  0  0  0  0  0  0  0  0  0
    1.1550   13.5831    0.0009 H   0  0  0  0  0  0  0  0  0  0  0  0
    2.2373   15.0167    0.0009 H   0  0  0  0  0  0  0  0  0  0  0  0
   -1.0262   14.9066   -2.5248 H   0  0  0  0  0  0  0  0  0  0  0  0
   -1.6359   13.6566   -0.3566 H   0  0  0  0  0  0  0  0  0  0  0  0
   -1.9173   12.8924   -2.0078 H   0  0  0  0  0  0  0  0  0  0  0  0
   -0.9514   11.3076   -0.1389 H   0  0  0  0  0  0  0  0  0  0  0  0
    2.3339   12.9817   -1.7875 H   0  0  0  0  0  0  0  0  0  0  0  0
    1.3021   11.0348   -3.9409 H   0  0  0  0  0  0  0  0  0  0  0  0
    2.7584   12.1198   -4.0557 H   0  0  0  0  0  0  0  0  0  0  0  0
    3.3767    9.7708   -3.5862 H   0  0  0  0  0  0  0  0  0  0  0  0
    3.8447   10.9024   -2.2576 H   0  0  0  0  0  0  0  0  0  0  0  0
    2.9295    8.9088   -1.2858 H   0  0  0  0  0  0  0  0  0  0  0  0
    1.0550    9.3010   -3.3310 H   0  0  0  0  0  0  0  0  0  0  0  0
    2.3434   10.8307    1.3339 H   0  0  0  0  0  0  0  0  0  0  0  0
    3.5974   10.4590    0.1027 H   0  0  0  0  0  0  0  0  0  0  0  0
    2.7859   12.0616    0.1027 H   0  0  0  0  0  0  0  0  0  0  0  0
    0.8610    9.6816    1.2685 H   0  0  0  0  0  0  0  0  0  0  0  0
   -0.3836    9.6596   -0.0265 H   0  0  0  0  0  0  0  0  0  0  0  0
    0.9343    8.4390   -0.0265 H   0  0  0  0  0  0  0  0  0  0  0  0
   -1.0169   12.6091   -3.8046 H   0  0  0  0  0  0  0  0  0  0  0  0
   -0.4528   14.0065   -4.7821 H   0  0  0  0  0  0  0  0  0  0  0  0
    0.4840   12.4739   -4.7821 H   0  0  0  0  0  0  0  0  0  0  0  0
    2.5958   14.1836   -3.8979 H   0  0  0  0  0  0  0  0  0  0  0  0
    1.1484   15.2676   -4.3049 H   0  0  0  0  0  0  0  0  0  0  0  0
    2.8849   15.3572   -1.8231 H   0  0  0  0  0  0  0  0  0  0  0  0
    2.7250   16.5913   -3.1340 H   0  0  0  0  0  0  0  0  0  0  0  0
   -0.6448   17.7641   -2.3706 H   0  0  0  0  0  0  0  0  0  0  0  0
    0.7414   17.8217   -3.5116 H   0  0  0  0  0  0  0  0  0  0  0  0
   -0.3637   16.4055   -3.5116 H   0  0  0  0  0  0  0  0  0  0  0  0
  1  2  1  0
  2  3  1  0
  3  4  1  0
  4  5  1  0
  5  6  1  0
  6  7  1  0
  7  8  1  0
  7  9  1  0
  2 10  1  0
 10 11  1  0
 11 12  1  0
 12 13  1  0
 13 14  1  1
 13 15  1  0
 15 16  1  0
 16 17  1  0
 17 18  2  0
 18 19  1  0
 19 20  1  0
 20 21  1  0
 21 22  1  0
 22 23  1  0
 22 24  1  0
 24 25  1  0
 24 26  1  0
 19 27  1  0
 27 28  1  6
 27 29  1  0
 29 30  1  0
 30 31  1  0
 31 32  1  6
  7  5  1  0
 31 10  1  0
 31 13  1  0
 27 15  1  0
 24 18  1  0
  1 33  1  0
  1 34  1  0
  1 35  1  0
  2 36  1  6
  3 37  1  0
  3 38  1  0
  4 39  1  0
  4 40  1  0
  5 41  1  6
  8 42  1  0
  8 43  1  0
  8 44  1  0
  9 45  1  0
  9 46  1  0
  9 47  1  0
 10 48  1  1
 11 49  1  0
 11 50  1  0
 12 51  1  0
 12 52  1  0
 14 53  1  0
 14 54  1  0
 14 55  1  0
 15 56  1  6
 16 57  1  0
 16 58  1  0
 17 59  1  0
 19 60  1  1
 20 61  1  0
 20 62  1  0
 21 63  1  0
 21 64  1  0
 22 65  1  1
 23 66  1  0
 25 67  1  0
 25 68  1  0
 25 69  1  0
 26 70  1  0
 26 71  1  0
 26 72  1  0
 28 73  1  0
 28 74  1  0
 28 75  1  0
 29 76  1  0
 29 77  1  0
 30 78  1  0
 30 79  1  0
 32 80  1  0
 32 81  1  0
 32 82  1  0
M  END
>  <meeko>  (7) 
{"is_sidechain": [false], "intermolecular_energy": 2.731, "internal_energy": -0.839}

$$$$
EPH_relaxed_0001_pdb2pqr_Repair_214_r2_0001_out
     RDKit          3D

 82 86  0  0  0  0  0  0  0  0999 V2000
    2.9180   19.1470   -0.8850 C   0  0  0  0  0  0  0  0  0  0  0  0
    2.6970   18.1380   -2.0160 C   0  0  2  0  0  0  0  0  0  0  0  0
    1.3140   18.3000   -2.6770 C   0  0  0  0  0  0  0  0  0  0  0  0
    0.5250   19.5080   -2.1640 C   0  0  0  0  0  0  0  0  0  0  0  0
   -0.7700   19.0970   -1.5310 C   0  0  2  0  0  0  0  0  0  0  0  0
   -1.6490   20.1820   -1.2060 O   0  0  0  0  0  0  0  0  0  0  0  0
   -1.1400   19.4240   -0.0960 C   0  0  0  0  0  0  0  0  0  0  0  0
   -0.2140   20.1940    0.7930 C   0  0  0  0  0  0  0  0  0  0  0  0
   -2.1750   18.5840    0.5850 C   0  0  0  0  0  0  0  0  0  0  0  0
    2.8570   16.7180   -1.4830 C   0  0  1  0  0  0  0  0  0  0  0  0
    3.4870   16.6790   -0.0660 C   0  0  0  0  0  0  0  0  0  0  0  0
    2.8290   15.4930    0.6840 C   0  0  0  0  0  0  0  0  0  0  0  0
    2.0970   14.6920   -0.4190 C   0  0  1  0  0  0  0  0  0  0  0  0
    3.2070   13.8200   -1.0850 C   0  0  0  0  0  0  0  0  0  0  0  0
    0.8830   13.8250    0.0470 C   0  0  2  0  0  0  0  0  0  0  0  0
    1.2270   12.7000    1.0390 C   0  0  0  0  0  0  0  0  0  0  0  0
    1.5680   11.3850    0.4190 C   0  0  0  0  0  0  0  0  0  0  0  0
    1.3230   11.0360   -0.8580 C   0  0  0  0  0  0  0  0  0  0  0  0
    0.5530   11.9730   -1.7970 C   0  0  1  0  0  0  0  0  0  0  0  0
   -0.5290   11.1650   -2.5610 C   0  0  0  0  0  0  0  0  0  0  0  0
    0.0490    9.9560   -3.2890 C   0  0  0  0  0  0  0  0  0  0  0  0
    0.7570    9.0190   -2.3130 C   0  0  2  0  0  0  0  0  0  0  0  0
   -0.2170    8.4470   -1.4350 O   0  0  0  0  0  0  0  0  0  0  0  0
    1.8630    9.7240   -1.4800 C   0  0  0  0  0  0  0  0  0  0  0  0
    3.0600   10.0770   -2.3960 C   0  0  0  0  0  0  0  0  0  0  0  0
    2.3990    8.7050   -0.4380 C   0  0  0  0  0  0  0  0  0  0  0  0
   -0.0280   13.2960   -1.1340 C   0  0  1  0  0  0  0  0  0  0  0  0
   -1.4330   13.0110   -0.5210 C   0  0  0  0  0  0  0  0  0  0  0  0
   -0.2440   14.3800   -2.2550 C   0  0  0  0  0  0  0  0  0  0  0  0
    0.9570   15.2860   -2.5870 C   0  0  0  0  0  0  0  0  0  0  0  0
    1.5690   15.8740   -1.3110 C   0  0  2  0  0  0  0  0  0  0  0  0
    0.4830   16.7750   -0.6310 C   0  0  0  0  0  0  0  0  0  0  0  0
    2.8071   18.6405    0.0851 H   0  0  0  0  0  0  0  0  0  0  0  0
    3.9302   19.5704   -0.9639 H   0  0  0  0  0  0  0  0  0  0  0  0
    2.1755   19.9547   -0.9639 H   0  0  0  0  0  0  0  0  0  0  0  0
    3.4559   18.3338   -2.7878 H   0  0  0  0  0  0  0  0  0  0  0  0
    1.4585   18.4145   -3.7614 H   0  0  0  0  0  0  0  0  0  0  0  0
    0.7295   17.4030   -2.4243 H   0  0  0  0  0  0  0  0  0  0  0  0
    1.1333   20.0402   -1.4178 H   0  0  0  0  0  0  0  0  0  0  0  0
    0.2961   20.1572   -3.0220 H   0  0  0  0  0  0  0  0  0  0  0  0
   -0.7753   18.1545   -2.0981 H   0  0  0  0  0  0  0  0  0  0  0  0
   -0.4608   19.9888    1.8451 H   0  0  0  0  0  0  0  0  0  0  0  0
    0.8239   19.8889    0.5936 H   0  0  0  0  0  0  0  0  0  0  0  0
   -0.3246   21.2701    0.5936 H   0  0  0  0  0  0  0  0  0  0  0  0
   -2.0622   18.6756    1.6754 H   0  0  0  0  0  0  0  0  0  0  0  0
   -3.1777   18.9269    0.2900 H   0  0  0  0  0  0  0  0  0  0  0  0
   -2.0457   17.5322    0.2900 H   0  0  0  0  0  0  0  0  0  0  0  0
    3.4831   16.2913   -2.2804 H   0  0  0  0  0  0  0  0  0  0  0  0
    4.5737   16.5249   -0.1388 H   0  0  0  0  0  0  0  0  0  0  0  0
    3.3178   17.6260    0.4674 H   0  0  0  0  0  0  0  0  0  0  0  0
    3.5930   14.8711    1.1734 H   0  0  0  0  0  0  0  0  0  0  0  0
    2.1464   15.8288    1.4785 H   0  0  0  0  0  0  0  0  0  0  0  0
    3.8158   13.3418   -0.3035 H   0  0  0  0  0  0  0  0  0  0  0  0
    2.7389   13.0456   -1.7104 H   0  0  0  0  0  0  0  0  0  0  0  0
    3.8486   14.4581   -1.7104 H   0  0  0  0  0  0  0  0  0  0  0  0
    0.2804   14.5496    0.6143 H   0  0  0  0  0  0  0  0  0  0  0  0
    2.0896   13.0272    1.6381 H   0  0  0  0  0  0  0  0  0  0  0  0
    0.3171   12.5295    1.6331 H   0  0  0  0  0  0  0  0  0  0  0  0
    2.0608   10.6387    1.0595 H   0  0  0  0  0  0  0  0  0  0  0  0
    1.2944   12.3689   -2.5067 H   0  0  0  0  0  0  0  0  0  0  0  0
   -1.2826   10.8153   -1.8400 H   0  0  0  0  0  0  0  0  0  0  0  0
   -0.9705   11.8305   -3.3175 H   0  0  0  0  0  0  0  0  0  0  0  0
   -0.7673    9.4099   -3.7845 H   0  0  0  0  0  0  0  0  0  0  0  0
    0.7808   10.3092   -4.0304 H   0  0  0  0  0  0  0  0  0  0  0  0
    1.2604    8.2422   -2.9073 H   0  0  0  0  0  0  0  0  0  0  0  0
   -0.2180    7.4860   -1.5820 H   0  0  0  0  0  0  0  0  0  0  0  0
    3.9321   10.3342   -1.7769 H   0  0  0  0  0  0  0  0  0  0  0  0
    3.3033    9.2124   -3.0310 H   0  0  0  0  0  0  0  0  0  0  0  0
    2.7952   10.9353   -3.0310 H   0  0  0  0  0  0  0  0  0  0  0  0
    2.2016    9.0803    0.5770 H   0  0  0  0  0  0  0  0  0  0  0  0
    1.8927    7.7383   -0.5764 H   0  0  0  0  0  0  0  0  0  0  0  0
    3.4824    8.5746   -0.5764 H   0  0  0  0  0  0  0  0  0  0  0  0
   -1.3638   13.0250    0.5767 H   0  0  0  0  0  0  0  0  0  0  0  0
   -2.1418   13.7837   -0.8536 H   0  0  0  0  0  0  0  0  0  0  0  0
   -1.7847   12.0232   -0.8536 H   0  0  0  0  0  0  0  0  0  0  0  0
   -0.5277   13.8524   -3.1776 H   0  0  0  0  0  0  0  0  0  0  0  0
   -1.0132   15.0573   -1.8555 H   0  0  0  0  0  0  0  0  0  0  0  0
    1.7205   14.6935   -3.1124 H   0  0  0  0  0  0  0  0  0  0  0  0
    0.6076   16.1133   -3.2222 H   0  0  0  0  0  0  0  0  0  0  0  0
    0.5753   16.6984    0.4624 H   0  0  0  0  0  0  0  0  0  0  0  0
    0.6290   17.8209   -0.9390 H   0  0  0  0  0  0  0  0  0  0  0  0
   -0.5179   16.4384   -0.9390 H   0  0  0  0  0  0  0  0  0  0  0  0
  1  2  1  0
  2  3  1  0
  3  4  1  0
  4  5  1  0
  5  6  1  0
  6  7  1  0
  7  8  1  0
  7  9  1  0
  2 10  1  0
 10 11  1  0
 11 12  1  0
 12 13  1  0
 13 14  1  6
 13 15  1  0
 15 16  1  0
 16 17  1  0
 17 18  2  0
 18 19  1  0
 19 20  1  0
 20 21  1  0
 21 22  1  0
 22 23  1  0
 22 24  1  0
 24 25  1  0
 24 26  1  0
 19 27  1  0
 27 28  1  1
 27 29  1  0
 29 30  1  0
 30 31  1  0
 31 32  1  1
  7  5  1  0
 31 10  1  0
 31 13  1  0
 27 15  1  0
 24 18  1  0
  1 33  1  0
  1 34  1  0
  1 35  1  0
  2 36  1  6
  3 37  1  0
  3 38  1  0
  4 39  1  0
  4 40  1  0
  5 41  1  6
  8 42  1  0
  8 43  1  0
  8 44  1  0
  9 45  1  0
  9 46  1  0
  9 47  1  0
 10 48  1  6
 11 49  1  0
 11 50  1  0
 12 51  1  0
 12 52  1  0
 14 53  1  0
 14 54  1  0
 14 55  1  0
 15 56  1  1
 16 57  1  0
 16 58  1  0
 17 59  1  0
 19 60  1  6
 20 61  1  0
 20 62  1  0
 21 63  1  0
 21 64  1  0
 22 65  1  6
 23 66  1  0
 25 67  1  0
 25 68  1  0
 25 69  1  0
 26 70  1  0
 26 71  1  0
 26 72  1  0
 28 73  1  0
 28 74  1  0
 28 75  1  0
 29 76  1  0
 29 77  1  0
 30 78  1  0
 30 79  1  0
 32 80  1  0
 32 81  1  0
 32 82  1  0
M  END
>  <meeko>  (8) 
{"is_sidechain": [false], "intermolecular_energy": 2.731, "internal_energy": -0.839}

$$$$
EPH_relaxed_0001_pdb2pqr_Repair_214_r2_0001_out
     RDKit          3D

 82 86  0  0  0  0  0  0  0  0999 V2000
    0.1570   17.8100   -2.5210 C   0  0  0  0  0  0  0  0  0  0  0  0
   -0.0870   16.9130   -1.3040 C   0  0  2  0  0  0  0  0  0  0  0  0
   -0.1360   17.7180    0.0100 C   0  0  0  0  0  0  0  0  0  0  0  0
    0.4840   19.1130   -0.1000 C   0  0  0  0  0  0  0  0  0  0  0  0
    1.6470   19.2780    0.8320 C   0  0  2  0  0  0  0  0  0  0  0  0
    2.6520   20.1940    0.3780 O   0  0  0  0  0  0  0  0  0  0  0  0
    3.0550   18.8210    0.5010 C   0  0  0  0  0  0  0  0  0  0  0  0
    3.3750   18.1620   -0.8040 C   0  0  0  0  0  0  0  0  0  0  0  0
    4.0090   18.5710    1.6270 C   0  0  0  0  0  0  0  0  0  0  0  0
    0.9970   15.8440   -1.2210 C   0  0  1  0  0  0  0  0  0  0  0  0
    1.2160   15.3270    0.2260 C   0  0  0  0  0  0  0  0  0  0  0  0
    1.5640   13.8210    0.1150 C   0  0  0  0  0  0  0  0  0  0  0  0
    1.8590   13.5990   -1.3870 C   0  0  1  0  0  0  0  0  0  0  0  0
    3.3310   14.0820   -1.5830 C   0  0  0  0  0  0  0  0  0  0  0  0
    1.6540   12.1450   -1.9240 C   0  0  2  0  0  0  0  0  0  0  0  0
    2.5660   11.0800   -1.2910 C   0  0  0  0  0  0  0  0  0  0  0  0
    3.8650   10.8540   -1.9920 C   0  0  0  0  0  0  0  0  0  0  0  0
    4.1640   11.2690   -3.2370 C   0  0  0  0  0  0  0  0  0  0  0  0
    3.1090   11.9580   -4.1130 C   0  0  1  0  0  0  0  0  0  0  0  0
    3.1320   11.3400   -5.5350 C   0  0  0  0  0  0  0  0  0  0  0  0
    4.5220   11.3700   -6.1640 C   0  0  0  0  0  0  0  0  0  0  0  0
    5.5300   10.6240   -5.2930 C   0  0  2  0  0  0  0  0  0  0  0  0
    5.1950    9.2330   -5.2870 O   0  0  0  0  0  0  0  0  0  0  0  0
    5.5880   11.1540   -3.8330 C   0  0  0  0  0  0  0  0  0  0  0  0
    6.2380   12.5600   -3.8150 C   0  0  0  0  0  0  0  0  0  0  0  0
    6.5380   10.2270   -3.0270 C   0  0  0  0  0  0  0  0  0  0  0  0
    1.6430   12.0320   -3.5030 C   0  0  1  0  0  0  0  0  0  0  0  0
    0.8550   10.7320   -3.8510 C   0  0  0  0  0  0  0  0  0  0  0  0
    0.8630   13.2190   -4.1820 C   0  0  0  0  0  0  0  0  0  0  0  0
    1.0120   14.6090   -3.5340 C   0  0  0  0  0  0  0  0  0  0  0  0
    0.7710   14.5380   -2.0230 C   0  0  2  0  0  0  0  0  0  0  0  0
   -0.7080   14.0760   -1.7950 C   0  0  0  0  0  0  0  0  0  0  0  0
    0.4317   18.8200   -2.1829 H   0  0  0  0  0  0  0  0  0  0  0  0
    0.9739   17.3914   -3.1272 H   0  0  0  0  0  0  0  0  0  0  0  0
   -0.7594   17.8629   -3.1272 H   0  0  0  0  0  0  0  0  0  0  0  0
   -1.0696   16.4363   -1.4353 H   0  0  0  0  0  0  0  0  0  0  0  0
   -1.1883   17.8283    0.3107 H   0  0  0  0  0  0  0  0  0  0  0  0
    0.4558   17.1605    0.7509 H   0  0  0  0  0  0  0  0  0  0  0  0
    0.8297   19.2691   -1.1325 H   0  0  0  0  0  0  0  0  0  0  0  0
   -0.2832   19.8519    0.1748 H   0  0  0  0  0  0  0  0  0  0  0  0
    1.0018   19.1059    1.7061 H   0  0  0  0  0  0  0  0  0  0  0  0
    3.8484   17.1870   -0.6161 H   0  0  0  0  0  0  0  0  0  0  0  0
    2.4480   18.0150   -1.3776 H   0  0  0  0  0  0  0  0  0  0  0  0
    4.0638   18.7996   -1.3776 H   0  0  0  0  0  0  0  0  0  0  0  0
    3.4880   18.7075    2.5861 H   0  0  0  0  0  0  0  0  0  0  0  0
    4.3924   17.5421    1.5612 H   0  0  0  0  0  0  0  0  0  0  0  0
    4.8477   19.2797    1.5612 H   0  0  0  0  0  0  0  0  0  0  0  0
    1.8423   16.4050   -1.6463 H   0  0  0  0  0  0  0  0  0  0  0  0
    2.0438   15.8730    0.7021 H   0  0  0  0  0  0  0  0  0  0  0  0
    0.3166   15.4802    0.8404 H   0  0  0  0  0  0  0  0  0  0  0  0
    2.4479   13.5807    0.7241 H   0  0  0  0  0  0  0  0  0  0  0  0
    0.7507   13.1767    0.4803 H   0  0  0  0  0  0  0  0  0  0  0  0
    3.8003   14.2360   -0.6001 H   0  0  0  0  0  0  0  0  0  0  0  0
    3.8948   13.3217   -2.1435 H   0  0  0  0  0  0  0  0  0  0  0  0
    3.3348   15.0285   -2.1435 H   0  0  0  0  0  0  0  0  0  0  0  0
    0.6363   11.9089   -1.5798 H   0  0  0  0  0  0  0  0  0  0  0  0
    2.7863   11.3910   -0.2591 H   0  0  0  0  0  0  0  0  0  0  0  0
    2.0155   10.1300   -1.3569 H   0  0  0  0  0  0  0  0  0  0  0  0
    4.6432   10.3018   -1.4447 H   0  0  0  0  0  0  0  0  0  0  0  0
    3.4000   13.0176   -4.1627 H   0  0  0  0  0  0  0  0  0  0  0  0
    2.7967   10.2943   -5.4704 H   0  0  0  0  0  0  0  0  0  0  0  0
    2.4649   11.9407   -6.1708 H   0  0  0  0  0  0  0  0  0  0  0  0
    4.4795   10.8934   -7.1545 H   0  0  0  0  0  0  0  0  0  0  0  0
    4.8440   12.4178   -6.2555 H   0  0  0  0  0  0  0  0  0  0  0  0
    6.5270   10.7899   -5.7270 H   0  0  0  0  0  0  0  0  0  0  0  0
    4.7940    9.0310   -4.4250 H   0  0  0  0  0  0  0  0  0  0  0  0
    6.3868   12.8819   -2.7737 H   0  0  0  0  0  0  0  0  0  0  0  0
    7.2096   12.5214   -4.3293 H   0  0  0  0  0  0  0  0  0  0  0  0
    5.5791   13.2752   -4.3293 H   0  0  0  0  0  0  0  0  0  0  0  0
    6.3771   10.3841   -1.9502 H   0  0  0  0  0  0  0  0  0  0  0  0
    6.3277    9.1773   -3.2799 H   0  0  0  0  0  0  0  0  0  0  0  0
    7.5822   10.4630   -3.2799 H   0  0  0  0  0  0  0  0  0  0  0  0
    0.5498   10.2284   -2.9219 H   0  0  0  0  0  0  0  0  0  0  0  0
   -0.0384   10.9909   -4.4383 H   0  0  0  0  0  0  0  0  0  0  0  0
    1.4978   10.0597   -4.4383 H   0  0  0  0  0  0  0  0  0  0  0  0
    1.2147   13.2969   -5.2213 H   0  0  0  0  0  0  0  0  0  0  0  0
   -0.2014   12.9634   -4.0734 H   0  0  0  0  0  0  0  0  0  0  0  0
    2.0290   14.9851   -3.7189 H   0  0  0  0  0  0  0  0  0  0  0  0
    0.2653   15.2844   -3.9770 H   0  0  0  0  0  0  0  0  0  0  0  0
   -0.9101   14.0129   -0.7156 H   0  0  0  0  0  0  0  0  0  0  0  0
   -1.3941   14.8026   -2.2546 H   0  0  0  0  0  0  0  0  0  0  0  0
   -0.8585   13.0880   -2.2546 H   0  0  0  0  0  0  0  0  0  0  0  0
  1  2  1  0
  2  3  1  0
  3  4  1  0
  4  5  1  0
  5  6  1  0
  6  7  1  0
  7  8  1  0
  7  9  1  0
  2 10  1  0
 10 11  1  0
 11 12  1  0
 12 13  1  0
 13 14  1  1
 13 15  1  0
 15 16  1  0
 16 17  1  0
 17 18  2  0
 18 19  1  0
 19 20  1  0
 20 21  1  0
 21 22  1  0
 22 23  1  0
 22 24  1  0
 24 25  1  0
 24 26  1  0
 19 27  1  0
 27 28  1  1
 27 29  1  0
 29 30  1  0
 30 31  1  0
 31 32  1  6
  7  5  1  0
 31 10  1  0
 31 13  1  0
 27 15  1  0
 24 18  1  0
  1 33  1  0
  1 34  1  0
  1 35  1  0
  2 36  1  6
  3 37  1  0
  3 38  1  0
  4 39  1  0
  4 40  1  0
  5 41  1  1
  8 42  1  0
  8 43  1  0
  8 44  1  0
  9 45  1  0
  9 46  1  0
  9 47  1  0
 10 48  1  6
 11 49  1  0
 11 50  1  0
 12 51  1  0
 12 52  1  0
 14 53  1  0
 14 54  1  0
 14 55  1  0
 15 56  1  1
 16 57  1  0
 16 58  1  0
 17 59  1  0
 19 60  1  6
 20 61  1  0
 20 62  1  0
 21 63  1  0
 21 64  1  0
 22 65  1  6
 23 66  1  0
 25 67  1  0
 25 68  1  0
 25 69  1  0
 26 70  1  0
 26 71  1  0
 26 72  1  0
 28 73  1  0
 28 74  1  0
 28 75  1  0
 29 76  1  0
 29 77  1  0
 30 78  1  0
 30 79  1  0
 32 80  1  0
 32 81  1  0
 32 82  1  0
M  END
>  <meeko>  (9) 
{"is_sidechain": [false], "intermolecular_energy": 2.731, "internal_energy": -0.839}

$$$$
EPH_relaxed_0001_pdb2pqr_Repair_214_r2_0001_out
     RDKit          3D

 82 86  0  0  0  0  0  0  0  0999 V2000
    0.1210    9.3580   -2.4190 C   0  0  0  0  0  0  0  0  0  0  0  0
    1.1790   10.3790   -2.8470 C   0  0  2  0  0  0  0  0  0  0  0  0
    2.5880    9.7590   -2.9190 C   0  0  0  0  0  0  0  0  0  0  0  0
    3.5270   10.4770   -3.8930 C   0  0  0  0  0  0  0  0  0  0  0  0
    4.9100   10.6120   -3.3310 C   0  0  2  0  0  0  0  0  0  0  0  0
    5.5420   11.8720   -3.5910 O   0  0  0  0  0  0  0  0  0  0  0  0
    6.1560   10.7200   -4.1910 C   0  0  0  0  0  0  0  0  0  0  0  0
    6.0760   10.6970   -5.6850 C   0  0  0  0  0  0  0  0  0  0  0  0
    7.4760   10.3570   -3.5870 C   0  0  0  0  0  0  0  0  0  0  0  0
    1.1780   11.5620   -1.8850 C   0  0  1  0  0  0  0  0  0  0  0  0
    2.2370   11.4170   -0.7600 C   0  0  0  0  0  0  0  0  0  0  0  0
    2.7650   12.8430   -0.4560 C   0  0  0  0  0  0  0  0  0  0  0  0
    1.7690   13.7880   -1.1690 C   0  0  1  0  0  0  0  0  0  0  0  0
    0.5520   13.8950   -0.1970 C   0  0  0  0  0  0  0  0  0  0  0  0
    2.3170   15.1970   -1.5660 C   0  0  2  0  0  0  0  0  0  0  0  0
    2.7580   16.0810   -0.3860 C   0  0  0  0  0  0  0  0  0  0  0  0
    1.6970   16.9640    0.1820 C   0  0  0  0  0  0  0  0  0  0  0  0
    0.5240   17.2560   -0.4100 C   0  0  0  0  0  0  0  0  0  0  0  0
    0.2090   16.7570   -1.8260 C   0  0  1  0  0  0  0  0  0  0  0  0
   -0.3720   17.9220   -2.6690 C   0  0  0  0  0  0  0  0  0  0  0  0
   -1.5750   18.5820   -2.0040 C   0  0  0  0  0  0  0  0  0  0  0  0
   -1.2080   19.1180   -0.6220 C   0  0  2  0  0  0  0  0  0  0  0  0
   -0.2780   20.1940   -0.7770 O   0  0  0  0  0  0  0  0  0  0  0  0
   -0.6020   18.0350    0.3140 C   0  0  0  0  0  0  0  0  0  0  0  0
   -1.7040   17.0270    0.7250 C   0  0  0  0  0  0  0  0  0  0  0  0
   -0.1460   18.7360    1.6220 C   0  0  0  0  0  0  0  0  0  0  0  0
    1.3890   15.9940   -2.5700 C   0  0  1  0  0  0  0  0  0  0  0  0
    2.3060   17.0200   -3.3040 C   0  0  0  0  0  0  0  0  0  0  0  0
    0.7780   15.0660   -3.6850 C   0  0  0  0  0  0  0  0  0  0  0  0
    0.3670   13.6440   -3.2580 C   0  0  0  0  0  0  0  0  0  0  0  0
    1.4920   12.9590   -2.4760 C   0  0  2  0  0  0  0  0  0  0  0  0
    2.7230   12.8180   -3.4360 C   0  0  0  0  0  0  0  0  0  0  0  0
    0.0763    9.3148   -1.3208 H   0  0  0  0  0  0  0  0  0  0  0  0
   -0.8603    9.6592   -2.8144 H   0  0  0  0  0  0  0  0  0  0  0  0
    0.3871    8.3666   -2.8144 H   0  0  0  0  0  0  0  0  0  0  0  0
    0.9180   10.7225   -3.8589 H   0  0  0  0  0  0  0  0  0  0  0  0
    3.0353    9.7954   -1.9147 H   0  0  0  0  0  0  0  0  0  0  0  0
    2.4680    8.7296   -3.2876 H   0  0  0  0  0  0  0  0  0  0  0  0
    3.5771    9.9019   -4.8294 H   0  0  0  0  0  0  0  0  0  0  0  0
    3.1291   11.4868   -4.0718 H   0  0  0  0  0  0  0  0  0  0  0  0
    4.6535    9.9615   -2.4818 H   0  0  0  0  0  0  0  0  0  0  0  0
    5.0612   10.4052   -5.9934 H   0  0  0  0  0  0  0  0  0  0  0  0
    6.3058   11.6976   -6.0799 H   0  0  0  0  0  0  0  0  0  0  0  0
    6.8022    9.9712   -6.0799 H   0  0  0  0  0  0  0  0  0  0  0  0
    7.3958   10.3791   -2.4901 H   0  0  0  0  0  0  0  0  0  0  0  0
    7.7631    9.3466   -3.9134 H   0  0  0  0  0  0  0  0  0  0  0  0
    8.2394   11.0785   -3.9134 H   0  0  0  0  0  0  0  0  0  0  0  0
    0.1324   11.5236   -1.5456 H   0  0  0  0  0  0  0  0  0  0  0  0
    1.7765   10.9837    0.1401 H   0  0  0  0  0  0  0  0  0  0  0  0
    3.0552   10.7510   -1.0713 H   0  0  0  0  0  0  0  0  0  0  0  0
    2.7716   13.0318    0.6276 H   0  0  0  0  0  0  0  0  0  0  0  0
    3.7988   12.9879   -0.8029 H   0  0  0  0  0  0  0  0  0  0  0  0
    0.9094   13.8636    0.8428 H   0  0  0  0  0  0  0  0  0  0  0  0
    0.0232   14.8431   -0.3745 H   0  0  0  0  0  0  0  0  0  0  0  0
   -0.1341   13.0537   -0.3745 H   0  0  0  0  0  0  0  0  0  0  0  0
    3.2380   14.9469   -2.1130 H   0  0  0  0  0  0  0  0  0  0  0  0
    3.1166   15.4209    0.4175 H   0  0  0  0  0  0  0  0  0  0  0  0
    3.5325   16.7536   -0.7831 H   0  0  0  0  0  0  0  0  0  0  0  0
    1.8899   17.4138    1.1671 H   0  0  0  0  0  0  0  0  0  0  0  0
   -0.5486   15.9681   -1.7091 H   0  0  0  0  0  0  0  0  0  0  0  0
    0.4124   18.6800   -2.8107 H   0  0  0  0  0  0  0  0  0  0  0  0
   -0.7091   17.5037   -3.6289 H   0  0  0  0  0  0  0  0  0  0  0  0
   -1.9220   19.4151   -2.6329 H   0  0  0  0  0  0  0  0  0  0  0  0
   -2.3696   17.8300   -1.8895 H   0  0  0  0  0  0  0  0  0  0  0  0
   -2.1373   19.4616   -0.1441 H   0  0  0  0  0  0  0  0  0  0  0  0
    0.4910   19.8510   -1.2630 H   0  0  0  0  0  0  0  0  0  0  0  0
   -1.7618   16.9741    1.8222 H   0  0  0  0  0  0  0  0  0  0  0  0
   -2.6726   17.3583    0.3223 H   0  0  0  0  0  0  0  0  0  0  0  0
   -1.4602   16.0328    0.3223 H   0  0  0  0  0  0  0  0  0  0  0  0
   -0.5148   18.1691    2.4896 H   0  0  0  0  0  0  0  0  0  0  0  0
    0.9528   18.7780    1.6516 H   0  0  0  0  0  0  0  0  0  0  0  0
   -0.5529   19.7575    1.6516 H   0  0  0  0  0  0  0  0  0  0  0  0
    2.8468   17.6251   -2.5615 H   0  0  0  0  0  0  0  0  0  0  0  0
    3.0286   16.4807   -3.9341 H   0  0  0  0  0  0  0  0  0  0  0  0
    1.6893   17.6778   -3.9341 H   0  0  0  0  0  0  0  0  0  0  0  0
   -0.1182   15.5667   -4.0802 H   0  0  0  0  0  0  0  0  0  0  0  0
    1.5875   14.9239   -4.4162 H   0  0  0  0  0  0  0  0  0  0  0  0
   -0.5284   13.7041   -2.6219 H   0  0  0  0  0  0  0  0  0  0  0  0
    0.1584   13.0531   -4.1621 H   0  0  0  0  0  0  0  0  0  0  0  0
    3.6420   12.7127   -2.8408 H   0  0  0  0  0  0  0  0  0  0  0  0
    2.5932   11.9288   -4.0705 H   0  0  0  0  0  0  0  0  0  0  0  0
    2.7976   13.7135   -4.0705 H   0  0  0  0  0  0  0  0  0  0  0  0
  1  2  1  0
  2  3  1  0
  3  4  1  0
  4  5  1  0
  5  6  1  0
  6  7  1  0
  7  8  1  0
  7  9  1  0
  2 10  1  0
 10 11  1  0
 11 12  1  0
 12 13  1  0
 13 14  1  1
 13 15  1  0
 15 16  1  0
 16 17  1  0
 17 18  2  0
 18 19  1  0
 19 20  1  0
 20 21  1  0
 21 22  1  0
 22 23  1  0
 22 24  1  0
 24 25  1  0
 24 26  1  0
 19 27  1  0
 27 28  1  6
 27 29  1  0
 29 30  1  0
 30 31  1  0
 31 32  1  6
  7  5  1  0
 31 10  1  0
 31 13  1  0
 27 15  1  0
 24 18  1  0
  1 33  1  0
  1 34  1  0
  1 35  1  0
  2 36  1  6
  3 37  1  0
  3 38  1  0
  4 39  1  0
  4 40  1  0
  5 41  1  1
  8 42  1  0
  8 43  1  0
  8 44  1  0
  9 45  1  0
  9 46  1  0
  9 47  1  0
 10 48  1  1
 11 49  1  0
 11 50  1  0
 12 51  1  0
 12 52  1  0
 14 53  1  0
 14 54  1  0
 14 55  1  0
 15 56  1  6
 16 57  1  0
 16 58  1  0
 17 59  1  0
 19 60  1  1
 20 61  1  0
 20 62  1  0
 21 63  1  0
 21 64  1  0
 22 65  1  1
 23 66  1  0
 25 67  1  0
 25 68  1  0
 25 69  1  0
 26 70  1  0
 26 71  1  0
 26 72  1  0
 28 73  1  0
 28 74  1  0
 28 75  1  0
 29 76  1  0
 29 77  1  0
 30 78  1  0
 30 79  1  0
 32 80  1  0
 32 81  1  0
 32 82  1  0
M  END
>  <meeko>  (10) 
{"is_sidechain": [false], "intermolecular_energy": 2.731, "internal_energy": -0.839}

$$$$
EPH_relaxed_0001_pdb2pqr_Repair_214_r2_0001_out
     RDKit          3D

 82 86  0  0  0  0  0  0  0  0999 V2000
    2.7380   10.1750   -3.0800 C   0  0  0  0  0  0  0  0  0  0  0  0
    1.4020   10.2450   -2.3350 C   0  0  2  0  0  0  0  0  0  0  0  0
    0.1980   10.2220   -3.2970 C   0  0  0  0  0  0  0  0  0  0  0  0
   -0.9600    9.3450   -2.8130 C   0  0  0  0  0  0  0  0  0  0  0  0
   -1.0190    9.2820   -1.3160 C   0  0  2  0  0  0  0  0  0  0  0  0
   -2.3440    9.2400   -0.7710 O   0  0  0  0  0  0  0  0  0  0  0  0
   -1.5650   10.4040   -0.4530 C   0  0  0  0  0  0  0  0  0  0  0  0
   -2.0870   11.6700   -1.0560 C   0  0  0  0  0  0  0  0  0  0  0  0
   -1.1420   10.4730    0.9820 C   0  0  0  0  0  0  0  0  0  0  0  0
    1.3540   11.5010   -1.4710 C   0  0  1  0  0  0  0  0  0  0  0  0
    2.3490   11.4450   -0.2810 C   0  0  0  0  0  0  0  0  0  0  0  0
    2.8650   12.8910   -0.0620 C   0  0  0  0  0  0  0  0  0  0  0  0
    1.9150   13.7760   -0.9020 C   0  0  1  0  0  0  0  0  0  0  0  0
    0.6470   13.9600   -0.0110 C   0  0  0  0  0  0  0  0  0  0  0  0
    2.4900   15.1490   -1.3780 C   0  0  2  0  0  0  0  0  0  0  0  0
    2.8700   16.1240   -0.2490 C   0  0  0  0  0  0  0  0  0  0  0  0
    1.7820   17.0490    0.1870 C   0  0  0  0  0  0  0  0  0  0  0  0
    0.6450   17.2940   -0.4900 C   0  0  0  0  0  0  0  0  0  0  0  0
    0.4080   16.6840   -1.8770 C   0  0  1  0  0  0  0  0  0  0  0  0
   -0.1210   17.7780   -2.8410 C   0  0  0  0  0  0  0  0  0  0  0  0
   -1.3560   18.4900   -2.2980 C   0  0  0  0  0  0  0  0  0  0  0  0
   -1.0630   19.1330   -0.9450 C   0  0  2  0  0  0  0  0  0  0  0  0
   -0.1210   20.1940   -1.1330 O   0  0  0  0  0  0  0  0  0  0  0  0
   -0.5150   18.1280    0.1060 C   0  0  0  0  0  0  0  0  0  0  0  0
   -1.6430   17.1560    0.5340 C   0  0  0  0  0  0  0  0  0  0  0  0
   -0.1290   18.9300    1.3780 C   0  0  0  0  0  0  0  0  0  0  0  0
    1.6230   15.8640   -2.4920 C   0  0  1  0  0  0  0  0  0  0  0  0
    2.5840   16.8280   -3.2530 C   0  0  0  0  0  0  0  0  0  0  0  0
    1.0710   14.8510   -3.5620 C   0  0  0  0  0  0  0  0  0  0  0  0
    0.6300   13.4680   -3.0470 C   0  0  0  0  0  0  0  0  0  0  0  0
    1.7070   12.8470   -2.1530 C   0  0  2  0  0  0  0  0  0  0  0  0
    2.9880   12.6290   -3.0280 C   0  0  0  0  0  0  0  0  0  0  0  0
    3.5618   10.1318   -2.3523 H   0  0  0  0  0  0  0  0  0  0  0  0
    2.7590    9.2745   -3.7114 H   0  0  0  0  0  0  0  0  0  0  0  0
    2.8530   11.0684   -3.7114 H   0  0  0  0  0  0  0  0  0  0  0  0
    1.3319    9.3513   -1.6975 H   0  0  0  0  0  0  0  0  0  0  0  0
   -0.1717   11.2512   -3.4152 H   0  0  0  0  0  0  0  0  0  0  0  0
    0.5525    9.7918   -4.2453 H   0  0  0  0  0  0  0  0  0  0  0  0
   -1.9053    9.7626   -3.1899 H   0  0  0  0  0  0  0  0  0  0  0  0
   -0.8005    8.3253   -3.1934 H   0  0  0  0  0  0  0  0  0  0  0  0
   -0.0781    8.7134   -1.2788 H   0  0  0  0  0  0  0  0  0  0  0  0
   -2.3742   12.3666   -0.2546 H   0  0  0  0  0  0  0  0  0  0  0  0
   -1.3049   12.1294   -1.6783 H   0  0  0  0  0  0  0  0  0  0  0  0
   -2.9656   11.4447   -1.6783 H   0  0  0  0  0  0  0  0  0  0  0  0
   -2.0192   10.3299    1.6301 H   0  0  0  0  0  0  0  0  0  0  0  0
   -0.4035    9.6835    1.1849 H   0  0  0  0  0  0  0  0  0  0  0  0
   -0.6927   11.4563    1.1849 H   0  0  0  0  0  0  0  0  0  0  0  0
    0.2911   11.4904   -1.1878 H   0  0  0  0  0  0  0  0  0  0  0  0
    1.8379   11.0839    0.6237 H   0  0  0  0  0  0  0  0  0  0  0  0
    3.1803   10.7565   -0.4928 H   0  0  0  0  0  0  0  0  0  0  0  0
    2.8118   13.1653    1.0019 H   0  0  0  0  0  0  0  0  0  0  0  0
    3.9171   13.0081   -0.3609 H   0  0  0  0  0  0  0  0  0  0  0  0
    0.9351   13.9182    1.0498 H   0  0  0  0  0  0  0  0  0  0  0  0
    0.1851   14.9346   -0.2274 H   0  0  0  0  0  0  0  0  0  0  0  0
   -0.0729   13.1569   -0.2274 H   0  0  0  0  0  0  0  0  0  0  0  0
    3.4386   14.8559   -1.8516 H   0  0  0  0  0  0  0  0  0  0  0  0
    3.1810   15.5299    0.6230 H   0  0  0  0  0  0  0  0  0  0  0  0
    3.6688   16.7627   -0.6540 H   0  0  0  0  0  0  0  0  0  0  0  0
    1.9217   17.5750    1.1429 H   0  0  0  0  0  0  0  0  0  0  0  0
   -0.3575   15.9061   -1.7392 H   0  0  0  0  0  0  0  0  0  0  0  0
    0.6735   18.5220   -2.9997 H   0  0  0  0  0  0  0  0  0  0  0  0
   -0.4073   17.2839   -3.7812 H   0  0  0  0  0  0  0  0  0  0  0  0
   -1.6632   19.2711   -3.0090 H   0  0  0  0  0  0  0  0  0  0  0  0
   -2.1599   17.7503   -2.1690 H   0  0  0  0  0  0  0  0  0  0  0  0
   -2.0158   19.5131   -0.5477 H   0  0  0  0  0  0  0  0  0  0  0  0
   -0.6180   21.0300   -1.1450 H   0  0  0  0  0  0  0  0  0  0  0  0
   -1.6929   17.1130    1.6320 H   0  0  0  0  0  0  0  0  0  0  0  0
   -2.6048   17.5128    0.1369 H   0  0  0  0  0  0  0  0  0  0  0  0
   -1.4322   16.1521    0.1369 H   0  0  0  0  0  0  0  0  0  0  0  0
   -0.4063   18.3538    2.2730 H   0  0  0  0  0  0  0  0  0  0  0  0
    0.9557   19.1127    1.3811 H   0  0  0  0  0  0  0  0  0  0  0  0
   -0.6629   19.8918    1.3811 H   0  0  0  0  0  0  0  0  0  0  0  0
    3.1673   17.4131   -2.5267 H   0  0  0  0  0  0  0  0  0  0  0  0
    3.2674   16.2414   -3.8845 H   0  0  0  0  0  0  0  0  0  0  0  0
    1.9952   17.5095   -3.8845 H   0  0  0  0  0  0  0  0  0  0  0  0
    0.2008   15.3190   -4.0454 H   0  0  0  0  0  0  0  0  0  0  0  0
    1.9192   14.6509   -4.2332 H   0  0  0  0  0  0  0  0  0  0  0  0
   -0.2985   13.5790   -2.4677 H   0  0  0  0  0  0  0  0  0  0  0  0
    0.4679   12.8072   -3.9114 H   0  0  0  0  0  0  0  0  0  0  0  0
    3.8589   12.4808   -2.3726 H   0  0  0  0  0  0  0  0  0  0  0  0
    2.8516   11.7412   -3.6629 H   0  0  0  0  0  0  0  0  0  0  0  0
    3.1530   13.5120   -3.6629 H   0  0  0  0  0  0  0  0  0  0  0  0
  1  2  1  0
  2  3  1  0
  3  4  1  0
  4  5  1  0
  5  6  1  0
  6  7  1  0
  7  8  1  0
  7  9  1  0
  2 10  1  0
 10 11  1  0
 11 12  1  0
 12 13  1  0
 13 14  1  1
 13 15  1  0
 15 16  1  0
 16 17  1  0
 17 18  2  0
 18 19  1  0
 19 20  1  0
 20 21  1  0
 21 22  1  0
 22 23  1  0
 22 24  1  0
 24 25  1  0
 24 26  1  0
 19 27  1  0
 27 28  1  6
 27 29  1  0
 29 30  1  0
 30 31  1  0
 31 32  1  6
  7  5  1  0
 31 10  1  0
 31 13  1  0
 27 15  1  0
 24 18  1  0
  1 33  1  0
  1 34  1  0
  1 35  1  0
  2 36  1  1
  3 37  1  0
  3 38  1  0
  4 39  1  0
  4 40  1  0
  5 41  1  1
  8 42  1  0
  8 43  1  0
  8 44  1  0
  9 45  1  0
  9 46  1  0
  9 47  1  0
 10 48  1  1
 11 49  1  0
 11 50  1  0
 12 51  1  0
 12 52  1  0
 14 53  1  0
 14 54  1  0
 14 55  1  0
 15 56  1  6
 16 57  1  0
 16 58  1  0
 17 59  1  0
 19 60  1  1
 20 61  1  0
 20 62  1  0
 21 63  1  0
 21 64  1  0
 22 65  1  1
 23 66  1  0
 25 67  1  0
 25 68  1  0
 25 69  1  0
 26 70  1  0
 26 71  1  0
 26 72  1  0
 28 73  1  0
 28 74  1  0
 28 75  1  0
 29 76  1  0
 29 77  1  0
 30 78  1  0
 30 79  1  0
 32 80  1  0
 32 81  1  0
 32 82  1  0
M  END
>  <meeko>  (11) 
{"is_sidechain": [false], "intermolecular_energy": 2.731, "internal_energy": -0.839}

$$$$
EPH_relaxed_0001_pdb2pqr_Repair_214_r2_0001_out
     RDKit          3D

 82 86  0  0  0  0  0  0  0  0999 V2000
   -0.9230   16.3940   -5.8970 C   0  0  0  0  0  0  0  0  0  0  0  0
    0.1810   15.6970   -6.6960 C   0  0  2  0  0  0  0  0  0  0  0  0
   -0.2100   15.4960   -8.1740 C   0  0  0  0  0  0  0  0  0  0  0  0
    0.4400   16.5050   -9.1250 C   0  0  0  0  0  0  0  0  0  0  0  0
    1.8470   16.1170   -9.4670 C   0  0  2  0  0  0  0  0  0  0  0  0
    2.3420   16.6780  -10.6900 O   0  0  0  0  0  0  0  0  0  0  0  0
    2.2090   15.2480  -10.6570 C   0  0  0  0  0  0  0  0  0  0  0  0
    1.1610   14.7130  -11.5810 C   0  0  0  0  0  0  0  0  0  0  0  0
    3.5180   14.5210  -10.6400 C   0  0  0  0  0  0  0  0  0  0  0  0
    0.5150   14.3530   -6.0590 C   0  0  1  0  0  0  0  0  0  0  0  0
    1.7410   13.6670   -6.7190 C   0  0  0  0  0  0  0  0  0  0  0  0
    2.4950   12.9180   -5.5900 C   0  0  0  0  0  0  0  0  0  0  0  0
    1.5120   12.9180   -4.3970 C   0  0  1  0  0  0  0  0  0  0  0  0
    0.5250   11.7440   -4.6900 C   0  0  0  0  0  0  0  0  0  0  0  0
    2.1500   12.7940   -2.9750 C   0  0  2  0  0  0  0  0  0  0  0  0
    2.9170   11.4860   -2.7160 C   0  0  0  0  0  0  0  0  0  0  0  0
    2.1040   10.3740   -2.1400 C   0  0  0  0  0  0  0  0  0  0  0  0
    0.8880   10.5030   -1.5790 C   0  0  0  0  0  0  0  0  0  0  0  0
    0.2490   11.8860   -1.3940 C   0  0  1  0  0  0  0  0  0  0  0  0
   -0.3270   12.0010    0.0420 C   0  0  0  0  0  0  0  0  0  0  0  0
   -1.2880   10.8650    0.3800 C   0  0  0  0  0  0  0  0  0  0  0  0
   -0.5990    9.5100    0.2400 C   0  0  2  0  0  0  0  0  0  0  0  0
    0.4140    9.4020    1.2440 O   0  0  0  0  0  0  0  0  0  0  0  0
    0.0290    9.2830   -1.1630 C   0  0  0  0  0  0  0  0  0  0  0  0
   -1.0950    9.1000   -2.2130 C   0  0  0  0  0  0  0  0  0  0  0  0
    0.8110    7.9430   -1.1260 C   0  0  0  0  0  0  0  0  0  0  0  0
    1.1590   13.1280   -1.7880 C   0  0  1  0  0  0  0  0  0  0  0  0
    2.0430   13.5470   -0.5740 C   0  0  0  0  0  0  0  0  0  0  0  0
    0.2340   14.3610   -2.1100 C   0  0  0  0  0  0  0  0  0  0  0  0
   -0.2680   14.4930   -3.5600 C   0  0  0  0  0  0  0  0  0  0  0  0
    0.8880   14.3520   -4.5550 C   0  0  2  0  0  0  0  0  0  0  0  0
    1.8860   15.5330   -4.2990 C   0  0  0  0  0  0  0  0  0  0  0  0
   -0.7297   16.2720   -4.8210 H   0  0  0  0  0  0  0  0  0  0  0  0
   -0.9369   17.4649   -6.1479 H   0  0  0  0  0  0  0  0  0  0  0  0
   -1.8958   15.9460   -6.1479 H   0  0  0  0  0  0  0  0  0  0  0  0
    1.0665   16.3493   -6.6742 H   0  0  0  0  0  0  0  0  0  0  0  0
    0.0951   14.4843   -8.4795 H   0  0  0  0  0  0  0  0  0  0  0  0
   -1.2978   15.6446   -8.2420 H   0  0  0  0  0  0  0  0  0  0  0  0
   -0.1514   16.5542  -10.0512 H   0  0  0  0  0  0  0  0  0  0  0  0
    0.4664   17.4829   -8.6219 H   0  0  0  0  0  0  0  0  0  0  0  0
    2.1152   16.0585   -8.4018 H   0  0  0  0  0  0  0  0  0  0  0  0
    0.3337   14.2907  -10.9918 H   0  0  0  0  0  0  0  0  0  0  0  0
    0.7810   15.5274  -12.2153 H   0  0  0  0  0  0  0  0  0  0  0  0
    1.5978   13.9276  -12.2153 H   0  0  0  0  0  0  0  0  0  0  0  0
    3.8282   14.3487   -9.5988 H   0  0  0  0  0  0  0  0  0  0  0  0
    3.4076   13.5549  -11.1544 H   0  0  0  0  0  0  0  0  0  0  0  0
    4.2798   15.1253  -11.1544 H   0  0  0  0  0  0  0  0  0  0  0  0
   -0.4433   13.8344   -6.2096 H   0  0  0  0  0  0  0  0  0  0  0  0
    1.4081   12.9556   -7.4891 H   0  0  0  0  0  0  0  0  0  0  0  0
    2.3930   14.4068   -7.2065 H   0  0  0  0  0  0  0  0  0  0  0  0
    2.7319   11.8889   -5.8978 H   0  0  0  0  0  0  0  0  0  0  0  0
    3.4536   13.3963   -5.3403 H   0  0  0  0  0  0  0  0  0  0  0  0
    0.1680   11.3194   -3.7401 H   0  0  0  0  0  0  0  0  0  0  0  0
   -0.3316   12.1208   -5.2681 H   0  0  0  0  0  0  0  0  0  0  0  0
    1.0433   10.9648   -5.2681 H   0  0  0  0  0  0  0  0  0  0  0  0
    2.9106   13.5886   -2.9881 H   0  0  0  0  0  0  0  0  0  0  0  0
    3.3345   11.1413   -3.6736 H   0  0  0  0  0  0  0  0  0  0  0  0
    3.6822   11.7256   -1.9629 H   0  0  0  0  0  0  0  0  0  0  0  0
    2.5361    9.3631   -2.1775 H   0  0  0  0  0  0  0  0  0  0  0  0
   -0.5666   11.9462   -2.1296 H   0  0  0  0  0  0  0  0  0  0  0  0
    0.5070   11.9823    0.7590 H   0  0  0  0  0  0  0  0  0  0  0  0
   -0.8907   12.9437    0.1010 H   0  0  0  0  0  0  0  0  0  0  0  0
   -1.6385   10.9857    1.4157 H   0  0  0  0  0  0  0  0  0  0  0  0
   -2.1365   10.9022   -0.3191 H   0  0  0  0  0  0  0  0  0  0  0  0
   -1.3687    8.7345    0.3673 H   0  0  0  0  0  0  0  0  0  0  0  0
    0.6890    8.4700    1.2860 H   0  0  0  0  0  0  0  0  0  0  0  0
   -2.0549    8.9437   -1.6991 H   0  0  0  0  0  0  0  0  0  0  0  0
   -1.1585    9.9996   -2.8428 H   0  0  0  0  0  0  0  0  0  0  0  0
   -0.8698    8.2267   -2.8428 H   0  0  0  0  0  0  0  0  0  0  0  0
    0.9833    7.6478   -0.0805 H   0  0  0  0  0  0  0  0  0  0  0  0
    0.2263    7.1630   -1.6357 H   0  0  0  0  0  0  0  0  0  0  0  0
    1.7777    8.0684   -1.6357 H   0  0  0  0  0  0  0  0  0  0  0  0
    1.5212   13.2997    0.3622 H   0  0  0  0  0  0  0  0  0  0  0  0
    3.0004   13.0069   -0.6139 H   0  0  0  0  0  0  0  0  0  0  0  0
    2.2311   14.6301   -0.6139 H   0  0  0  0  0  0  0  0  0  0  0  0
   -0.6487   14.2942   -1.4571 H   0  0  0  0  0  0  0  0  0  0  0  0
    0.8656   15.2459   -1.9425 H   0  0  0  0  0  0  0  0  0  0  0  0
   -1.0104   13.7056   -3.7569 H   0  0  0  0  0  0  0  0  0  0  0  0
   -0.7198   15.4880   -3.6857 H   0  0  0  0  0  0  0  0  0  0  0  0
    2.0101   15.6799   -3.2159 H   0  0  0  0  0  0  0  0  0  0  0  0
    2.8602   15.2943   -4.7507 H   0  0  0  0  0  0  0  0  0  0  0  0
    1.4882   16.4537   -4.7507 H   0  0  0  0  0  0  0  0  0  0  0  0
  1  2  1  0
  2  3  1  0
  3  4  1  0
  4  5  1  0
  5  6  1  0
  6  7  1  0
  7  8  1  0
  7  9  1  0
  2 10  1  0
 10 11  1  0
 11 12  1  0
 12 13  1  0
 13 14  1  6
 13 15  1  0
 15 16  1  0
 16 17  1  0
 17 18  2  0
 18 19  1  0
 19 20  1  0
 20 21  1  0
 21 22  1  0
 22 23  1  0
 22 24  1  0
 24 25  1  0
 24 26  1  0
 19 27  1  0
 27 28  1  1
 27 29  1  0
 29 30  1  0
 30 31  1  0
 31 32  1  6
  7  5  1  0
 31 10  1  0
 31 13  1  0
 27 15  1  0
 24 18  1  0
  1 33  1  0
  1 34  1  0
  1 35  1  0
  2 36  1  6
  3 37  1  0
  3 38  1  0
  4 39  1  0
  4 40  1  0
  5 41  1  1
  8 42  1  0
  8 43  1  0
  8 44  1  0
  9 45  1  0
  9 46  1  0
  9 47  1  0
 10 48  1  1
 11 49  1  0
 11 50  1  0
 12 51  1  0
 12 52  1  0
 14 53  1  0
 14 54  1  0
 14 55  1  0
 15 56  1  6
 16 57  1  0
 16 58  1  0
 17 59  1  0
 19 60  1  6
 20 61  1  0
 20 62  1  0
 21 63  1  0
 21 64  1  0
 22 65  1  1
 23 66  1  0
 25 67  1  0
 25 68  1  0
 25 69  1  0
 26 70  1  0
 26 71  1  0
 26 72  1  0
 28 73  1  0
 28 74  1  0
 28 75  1  0
 29 76  1  0
 29 77  1  0
 30 78  1  0
 30 79  1  0
 32 80  1  0
 32 81  1  0
 32 82  1  0
M  END
>  <meeko>  (12) 
{"is_sidechain": [false], "intermolecular_energy": 2.731, "internal_energy": -0.839}

$$$$
EPH_relaxed_0001_pdb2pqr_Repair_214_r2_0001_out
     RDKit          3D

 82 86  0  0  0  0  0  0  0  0999 V2000
   -4.0420    7.3890   -3.5550 C   0  0  0  0  0  0  0  0  0  0  0  0
   -3.6770    7.2920   -2.0710 C   0  0  2  0  0  0  0  0  0  0  0  0
   -4.8680    6.8290   -1.2090 C   0  0  0  0  0  0  0  0  0  0  0  0
   -6.0370    6.2690   -2.0240 C   0  0  0  0  0  0  0  0  0  0  0  0
   -7.3570    6.7470   -1.4990 C   0  0  2  0  0  0  0  0  0  0  0  0
   -8.3110    5.7070   -1.2430 O   0  0  0  0  0  0  0  0  0  0  0  0
   -8.6550    6.6420   -2.2790 C   0  0  0  0  0  0  0  0  0  0  0  0
   -8.6950    6.0430   -3.6500 C   0  0  0  0  0  0  0  0  0  0  0  0
   -9.7830    7.5560   -1.9160 C   0  0  0  0  0  0  0  0  0  0  0  0
   -3.1640    8.6380   -1.5720 C   0  0  1  0  0  0  0  0  0  0  0  0
   -3.8220    9.0690   -0.2350 C   0  0  0  0  0  0  0  0  0  0  0  0
   -2.7380    9.8270    0.5740 C   0  0  0  0  0  0  0  0  0  0  0  0
   -1.6070   10.0950   -0.4470 C   0  0  1  0  0  0  0  0  0  0  0  0
   -2.0750   11.3560   -1.2410 C   0  0  0  0  0  0  0  0  0  0  0  0
   -0.1730   10.2850    0.1450 C   0  0  2  0  0  0  0  0  0  0  0  0
   -0.0080   11.4950    1.0820 C   0  0  0  0  0  0  0  0  0  0  0  0
    0.4030   12.7660    0.4160 C   0  0  0  0  0  0  0  0  0  0  0  0
    0.9060   12.8700   -0.8280 C   0  0  0  0  0  0  0  0  0  0  0  0
    1.1980   11.6190   -1.6670 C   0  0  1  0  0  0  0  0  0  0  0  0
    2.6030   11.7450   -2.3120 C   0  0  0  0  0  0  0  0  0  0  0  0
    2.7670   13.0340   -3.1100 C   0  0  0  0  0  0  0  0  0  0  0  0
    2.5260   14.2570   -2.2280 C   0  0  2  0  0  0  0  0  0  0  0  0
    3.5690   14.3330   -1.2510 O   0  0  0  0  0  0  0  0  0  0  0  0
    1.1440   14.2360   -1.5180 C   0  0  0  0  0  0  0  0  0  0  0  0
    0.0200   14.4580   -2.5600 C   0  0  0  0  0  0  0  0  0  0  0  0
    1.0860   15.4500   -0.5520 C   0  0  0  0  0  0  0  0  0  0  0  0
    0.9860   10.2270   -0.9320 C   0  0  1  0  0  0  0  0  0  0  0  0
    2.2840    9.8250   -0.1670 C   0  0  0  0  0  0  0  0  0  0  0  0
    0.7430    9.1070   -2.0120 C   0  0  0  0  0  0  0  0  0  0  0  0
   -0.7120    8.8860   -2.4680 C   0  0  0  0  0  0  0  0  0  0  0  0
   -1.6500    8.7530   -1.2650 C   0  0  2  0  0  0  0  0  0  0  0  0
   -1.2180    7.4810   -0.4590 C   0  0  0  0  0  0  0  0  0  0  0  0
   -5.1007    7.6704   -3.6546 H   0  0  0  0  0  0  0  0  0  0  0  0
   -3.4131    8.1512   -4.0382 H   0  0  0  0  0  0  0  0  0  0  0  0
   -3.8744    6.4151   -4.0382 H   0  0  0  0  0  0  0  0  0  0  0  0
   -2.8856    6.5342   -1.9742 H   0  0  0  0  0  0  0  0  0  0  0  0
   -4.5159    6.0447   -0.5228 H   0  0  0  0  0  0  0  0  0  0  0  0
   -5.2430    7.7154   -0.6764 H   0  0  0  0  0  0  0  0  0  0  0  0
   -5.9305    6.5934   -3.0697 H   0  0  0  0  0  0  0  0  0  0  0  0
   -6.0142    5.1719   -1.9478 H   0  0  0  0  0  0  0  0  0  0  0  0
   -6.8736    7.5883   -0.9808 H   0  0  0  0  0  0  0  0  0  0  0  0
   -8.7681    4.9484   -3.5699 H   0  0  0  0  0  0  0  0  0  0  0  0
   -9.5693    6.4300   -4.1939 H   0  0  0  0  0  0  0  0  0  0  0  0
   -7.7770    6.3104   -4.1939 H   0  0  0  0  0  0  0  0  0  0  0  0
   -9.8639    7.6216   -0.8209 H   0  0  0  0  0  0  0  0  0  0  0  0
   -9.5917    8.5569   -2.3301 H   0  0  0  0  0  0  0  0  0  0  0  0
  -10.7225    7.1613   -2.3301 H   0  0  0  0  0  0  0  0  0  0  0  0
   -3.4201    9.2656   -2.4383 H   0  0  0  0  0  0  0  0  0  0  0  0
   -4.6795    9.7296   -0.4306 H   0  0  0  0  0  0  0  0  0  0  0  0
   -4.1919    8.1958    0.3224 H   0  0  0  0  0  0  0  0  0  0  0  0
   -3.1378   10.7729    0.9681 H   0  0  0  0  0  0  0  0  0  0  0  0
   -2.3877    9.2520    1.4439 H   0  0  0  0  0  0  0  0  0  0  0  0
   -2.3683   12.1463   -0.5343 H   0  0  0  0  0  0  0  0  0  0  0  0
   -1.2511   11.7174   -1.8739 H   0  0  0  0  0  0  0  0  0  0  0  0
   -2.9352   11.0924   -1.8739 H   0  0  0  0  0  0  0  0  0  0  0  0
   -0.0622    9.3956    0.7828 H   0  0  0  0  0  0  0  0  0  0  0  0
   -0.9711   11.6702    1.5836 H   0  0  0  0  0  0  0  0  0  0  0  0
    0.8079   11.2358    1.7727 H   0  0  0  0  0  0  0  0  0  0  0  0
    0.2848   13.6965    0.9906 H   0  0  0  0  0  0  0  0  0  0  0  0
    0.4282   11.5923   -2.4523 H   0  0  0  0  0  0  0  0  0  0  0  0
    3.3602   11.7255   -1.5143 H   0  0  0  0  0  0  0  0  0  0  0  0
    2.7270   10.9030   -3.0089 H   0  0  0  0  0  0  0  0  0  0  0  0
    3.7885   13.0786   -3.5158 H   0  0  0  0  0  0  0  0  0  0  0  0
    2.0285   13.0383   -3.9252 H   0  0  0  0  0  0  0  0  0  0  0  0
    2.5292   15.1420   -2.8813 H   0  0  0  0  0  0  0  0  0  0  0  0
    4.2650   13.7070   -1.5140 H   0  0  0  0  0  0  0  0  0  0  0  0
   -0.9307   14.6458   -2.0395 H   0  0  0  0  0  0  0  0  0  0  0  0
    0.2702   15.3241   -3.1903 H   0  0  0  0  0  0  0  0  0  0  0  0
   -0.0779   13.5618   -3.1903 H   0  0  0  0  0  0  0  0  0  0  0  0
    1.1031   15.0922    0.4880 H   0  0  0  0  0  0  0  0  0  0  0  0
    1.9540   16.1019   -0.7298 H   0  0  0  0  0  0  0  0  0  0  0  0
    0.1598   16.0161   -0.7298 H   0  0  0  0  0  0  0  0  0  0  0  0
    2.1032    9.8810    0.9166 H   0  0  0  0  0  0  0  0  0  0  0  0
    2.5665    8.7973   -0.4390 H   0  0  0  0  0  0  0  0  0  0  0  0
    3.0979   10.5132   -0.4390 H   0  0  0  0  0  0  0  0  0  0  0  0
    1.3345    9.3687   -2.9017 H   0  0  0  0  0  0  0  0  0  0  0  0
    1.0375    8.1667   -1.5230 H   0  0  0  0  0  0  0  0  0  0  0  0
   -1.0312    9.7425   -3.0800 H   0  0  0  0  0  0  0  0  0  0  0  0
   -0.7584    7.9556   -3.0530 H   0  0  0  0  0  0  0  0  0  0  0  0
   -1.2885    7.6885    0.6189 H   0  0  0  0  0  0  0  0  0  0  0  0
   -1.8815    6.6418   -0.7150 H   0  0  0  0  0  0  0  0  0  0  0  0
   -0.1807    7.2195   -0.7150 H   0  0  0  0  0  0  0  0  0  0  0  0
  1  2  1  0
  2  3  1  0
  3  4  1  0
  4  5  1  0
  5  6  1  0
  6  7  1  0
  7  8  1  0
  7  9  1  0
  2 10  1  0
 10 11  1  0
 11 12  1  0
 12 13  1  0
 13 14  1  6
 13 15  1  0
 15 16  1  0
 16 17  1  0
 17 18  2  0
 18 19  1  0
 19 20  1  0
 20 21  1  0
 21 22  1  0
 22 23  1  0
 22 24  1  0
 24 25  1  0
 24 26  1  0
 19 27  1  0
 27 28  1  1
 27 29  1  0
 29 30  1  0
 30 31  1  0
 31 32  1  1
  7  5  1  0
 31 10  1  0
 31 13  1  0
 27 15  1  0
 24 18  1  0
  1 33  1  0
  1 34  1  0
  1 35  1  0
  2 36  1  6
  3 37  1  0
  3 38  1  0
  4 39  1  0
  4 40  1  0
  5 41  1  1
  8 42  1  0
  8 43  1  0
  8 44  1  0
  9 45  1  0
  9 46  1  0
  9 47  1  0
 10 48  1  6
 11 49  1  0
 11 50  1  0
 12 51  1  0
 12 52  1  0
 14 53  1  0
 14 54  1  0
 14 55  1  0
 15 56  1  1
 16 57  1  0
 16 58  1  0
 17 59  1  0
 19 60  1  6
 20 61  1  0
 20 62  1  0
 21 63  1  0
 21 64  1  0
 22 65  1  6
 23 66  1  0
 25 67  1  0
 25 68  1  0
 25 69  1  0
 26 70  1  0
 26 71  1  0
 26 72  1  0
 28 73  1  0
 28 74  1  0
 28 75  1  0
 29 76  1  0
 29 77  1  0
 30 78  1  0
 30 79  1  0
 32 80  1  0
 32 81  1  0
 32 82  1  0
M  END
>  <meeko>  (13) 
{"is_sidechain": [false], "intermolecular_energy": 2.731, "internal_energy": -0.839}

$$$$
EPH_relaxed_0001_pdb2pqr_Repair_214_r2_0001_out
     RDKit          3D

 82 86  0  0  0  0  0  0  0  0999 V2000
   -2.2110    7.8640   -2.0770 C   0  0  0  0  0  0  0  0  0  0  0  0
   -2.2340    8.5100   -0.6890 C   0  0  2  0  0  0  0  0  0  0  0  0
   -3.6500    8.5280   -0.0800 C   0  0  0  0  0  0  0  0  0  0  0  0
   -4.7700    8.5060   -1.1240 C   0  0  0  0  0  0  0  0  0  0  0  0
   -5.5890    7.2540   -1.0320 C   0  0  2  0  0  0  0  0  0  0  0  0
   -5.6980    6.5180   -2.2570 O   0  0  0  0  0  0  0  0  0  0  0  0
   -6.9190    7.0710   -1.7380 C   0  0  0  0  0  0  0  0  0  0  0  0
   -7.5070    8.1530   -2.5880 C   0  0  0  0  0  0  0  0  0  0  0  0
   -7.8710    6.0410   -1.2140 C   0  0  0  0  0  0  0  0  0  0  0  0
   -1.6820    9.9290   -0.7670 C   0  0  1  0  0  0  0  0  0  0  0  0
   -1.2020   10.4600    0.6090 C   0  0  0  0  0  0  0  0  0  0  0  0
    0.0310   11.3600    0.3360 C   0  0  0  0  0  0  0  0  0  0  0  0
    0.0180   11.5850   -1.1940 C   0  0  1  0  0  0  0  0  0  0  0  0
   -1.0230   12.7250   -1.4230 C   0  0  0  0  0  0  0  0  0  0  0  0
    1.3950   11.9190   -1.8550 C   0  0  2  0  0  0  0  0  0  0  0  0
    2.0470   13.2280   -1.3770 C   0  0  0  0  0  0  0  0  0  0  0  0
    1.6900   14.4440   -2.1670 C   0  0  0  0  0  0  0  0  0  0  0  0
    1.1100   14.4450   -3.3810 C   0  0  0  0  0  0  0  0  0  0  0  0
    0.8420   13.1320   -4.1270 C   0  0  1  0  0  0  0  0  0  0  0  0
    1.3060   13.2700   -5.6020 C   0  0  0  0  0  0  0  0  0  0  0  0
    0.6830   14.4760   -6.3000 C   0  0  0  0  0  0  0  0  0  0  0  0
    1.0210   15.7680   -5.5610 C   0  0  2  0  0  0  0  0  0  0  0  0
    2.4270   16.0070   -5.6690 O   0  0  0  0  0  0  0  0  0  0  0  0
    0.6090   15.7430   -4.0620 C   0  0  0  0  0  0  0  0  0  0  0  0
   -0.9350   15.7870   -3.9460 C   0  0  0  0  0  0  0  0  0  0  0  0
    1.1320   17.0460   -3.4010 C   0  0  0  0  0  0  0  0  0  0  0  0
    1.3980   11.8150   -3.4340 C   0  0  1  0  0  0  0  0  0  0  0  0
    2.8780   11.5730   -3.8610 C   0  0  0  0  0  0  0  0  0  0  0  0
    0.5780   10.5750   -3.9530 C   0  0  0  0  0  0  0  0  0  0  0  0
   -0.7100   10.2230   -3.1850 C   0  0  0  0  0  0  0  0  0  0  0  0
   -0.4500   10.1640   -1.6770 C   0  0  2  0  0  0  0  0  0  0  0  0
    0.5770    9.0110   -1.4130 C   0  0  0  0  0  0  0  0  0  0  0  0
   -2.1720    6.7698   -1.9716 H   0  0  0  0  0  0  0  0  0  0  0  0
   -3.1198    8.1471   -2.6283 H   0  0  0  0  0  0  0  0  0  0  0  0
   -1.3246    8.2110   -2.6283 H   0  0  0  0  0  0  0  0  0  0  0  0
   -1.5993    7.8999   -0.0295 H   0  0  0  0  0  0  0  0  0  0  0  0
   -3.7610    7.6452    0.5669 H   0  0  0  0  0  0  0  0  0  0  0  0
   -3.7483    9.4716    0.4767 H   0  0  0  0  0  0  0  0  0  0  0  0
   -5.4260    9.3739   -0.9614 H   0  0  0  0  0  0  0  0  0  0  0  0
   -4.3091    8.5418   -2.1222 H   0  0  0  0  0  0  0  0  0  0  0  0
   -5.2815    7.1019    0.0131 H   0  0  0  0  0  0  0  0  0  0  0  0
   -7.9324    8.9358   -1.9428 H   0  0  0  0  0  0  0  0  0  0  0  0
   -6.7213    8.5882   -3.2230 H   0  0  0  0  0  0  0  0  0  0  0  0
   -8.2996    7.7305   -3.2230 H   0  0  0  0  0  0  0  0  0  0  0  0
   -7.8578    6.0553   -0.1142 H   0  0  0  0  0  0  0  0  0  0  0  0
   -8.8869    6.2651   -1.5714 H   0  0  0  0  0  0  0  0  0  0  0  0
   -7.5677    5.0459   -1.5714 H   0  0  0  0  0  0  0  0  0  0  0  0
   -2.5600   10.4455   -1.1821 H   0  0  0  0  0  0  0  0  0  0  0  0
   -2.0001   11.0461    1.0882 H   0  0  0  0  0  0  0  0  0  0  0  0
   -0.9439    9.6308    1.2841 H   0  0  0  0  0  0  0  0  0  0  0  0
   -0.0609   12.3172    0.8701 H   0  0  0  0  0  0  0  0  0  0  0  0
    0.9683   10.9000    0.6822 H   0  0  0  0  0  0  0  0  0  0  0  0
   -1.3702   13.1052   -0.4509 H   0  0  0  0  0  0  0  0  0  0  0  0
   -0.5530   13.5423   -1.9897 H   0  0  0  0  0  0  0  0  0  0  0  0
   -1.8795   12.3310   -1.9897 H   0  0  0  0  0  0  0  0  0  0  0  0
    2.0393   11.1098   -1.4806 H   0  0  0  0  0  0  0  0  0  0  0  0
    1.7419   13.3986   -0.3340 H   0  0  0  0  0  0  0  0  0  0  0  0
    3.1313   13.0913   -1.5021 H   0  0  0  0  0  0  0  0  0  0  0  0
    1.9207   15.4215   -1.7184 H   0  0  0  0  0  0  0  0  0  0  0  0
   -0.2467   12.9787   -4.0906 H   0  0  0  0  0  0  0  0  0  0  0  0
    2.4004   13.3791   -5.6188 H   0  0  0  0  0  0  0  0  0  0  0  0
    0.9813   12.3674   -6.1405 H   0  0  0  0  0  0  0  0  0  0  0  0
    1.0704   14.5371   -7.3277 H   0  0  0  0  0  0  0  0  0  0  0  0
   -0.4099   14.3514   -6.3080 H   0  0  0  0  0  0  0  0  0  0  0  0
    0.4432   16.5772   -6.0316 H   0  0  0  0  0  0  0  0  0  0  0  0
    2.8800   15.3620   -5.1010 H   0  0  0  0  0  0  0  0  0  0  0  0
   -1.2229   15.7952   -2.8844 H   0  0  0  0  0  0  0  0  0  0  0  0
   -1.3137   16.6963   -4.4356 H   0  0  0  0  0  0  0  0  0  0  0  0
   -1.3649   14.9007   -4.4356 H   0  0  0  0  0  0  0  0  0  0  0  0
    1.0910   16.9439   -2.3065 H   0  0  0  0  0  0  0  0  0  0  0  0
    2.1714   17.2243   -3.7140 H   0  0  0  0  0  0  0  0  0  0  0  0
    0.5043   17.8934   -3.7140 H   0  0  0  0  0  0  0  0  0  0  0  0
    3.5063   11.4703   -2.9640 H   0  0  0  0  0  0  0  0  0  0  0  0
    2.9410   10.6526   -4.4601 H   0  0  0  0  0  0  0  0  0  0  0  0
    3.2308   12.4254   -4.4601 H   0  0  0  0  0  0  0  0  0  0  0  0
    0.2982   10.7748   -4.9979 H   0  0  0  0  0  0  0  0  0  0  0  0
    1.2431    9.7104   -3.8109 H   0  0  0  0  0  0  0  0  0  0  0  0
   -1.4717   10.9899   -3.3891 H   0  0  0  0  0  0  0  0  0  0  0  0
   -1.0591    9.2350   -3.5197 H   0  0  0  0  0  0  0  0  0  0  0  0
    0.7011    8.8716   -0.3289 H   0  0  0  0  0  0  0  0  0  0  0  0
    0.2048    8.0785   -1.8623 H   0  0  0  0  0  0  0  0  0  0  0  0
    1.5462    9.2732   -1.8623 H   0  0  0  0  0  0  0  0  0  0  0  0
  1  2  1  0
  2  3  1  0
  3  4  1  0
  4  5  1  0
  5  6  1  0
  6  7  1  0
  7  8  1  0
  7  9  1  0
  2 10  1  0
 10 11  1  0
 11 12  1  0
 12 13  1  0
 13 14  1  1
 13 15  1  0
 15 16  1  0
 16 17  1  0
 17 18  2  0
 18 19  1  0
 19 20  1  0
 20 21  1  0
 21 22  1  0
 22 23  1  0
 22 24  1  0
 24 25  1  0
 24 26  1  0
 19 27  1  0
 27 28  1  6
 27 29  1  0
 29 30  1  0
 30 31  1  0
 31 32  1  6
  7  5  1  0
 31 10  1  0
 31 13  1  0
 27 15  1  0
 24 18  1  0
  1 33  1  0
  1 34  1  0
  1 35  1  0
  2 36  1  1
  3 37  1  0
  3 38  1  0
  4 39  1  0
  4 40  1  0
  5 41  1  1
  8 42  1  0
  8 43  1  0
  8 44  1  0
  9 45  1  0
  9 46  1  0
  9 47  1  0
 10 48  1  6
 11 49  1  0
 11 50  1  0
 12 51  1  0
 12 52  1  0
 14 53  1  0
 14 54  1  0
 14 55  1  0
 15 56  1  1
 16 57  1  0
 16 58  1  0
 17 59  1  0
 19 60  1  6
 20 61  1  0
 20 62  1  0
 21 63  1  0
 21 64  1  0
 22 65  1  6
 23 66  1  0
 25 67  1  0
 25 68  1  0
 25 69  1  0
 26 70  1  0
 26 71  1  0
 26 72  1  0
 28 73  1  0
 28 74  1  0
 28 75  1  0
 29 76  1  0
 29 77  1  0
 30 78  1  0
 30 79  1  0
 32 80  1  0
 32 81  1  0
 32 82  1  0
M  END
>  <meeko>  (14) 
{"is_sidechain": [false], "intermolecular_energy": 2.731, "internal_energy": -0.839}

$$$$
EPH_relaxed_0001_pdb2pqr_Repair_214_r2_0001_out
     RDKit          3D

 82 86  0  0  0  0  0  0  0  0999 V2000
    2.9080   11.4260   -5.3840 C   0  0  0  0  0  0  0  0  0  0  0  0
    1.9090   11.1100   -4.2670 C   0  0  2  0  0  0  0  0  0  0  0  0
    0.7990   10.1480   -4.7370 C   0  0  0  0  0  0  0  0  0  0  0  0
   -0.2840    9.8970   -3.6840 C   0  0  0  0  0  0  0  0  0  0  0  0
    0.2340    9.0800   -2.5390 C   0  0  2  0  0  0  0  0  0  0  0  0
   -0.6230    8.0030   -2.1370 O   0  0  0  0  0  0  0  0  0  0  0  0
   -0.4210    9.0480   -1.1710 C   0  0  0  0  0  0  0  0  0  0  0  0
   -1.6500    9.8490   -0.8750 C   0  0  0  0  0  0  0  0  0  0  0  0
    0.4030    8.6290    0.0070 C   0  0  0  0  0  0  0  0  0  0  0  0
    1.2910   12.4010   -3.7430 C   0  0  1  0  0  0  0  0  0  0  0  0
   -0.2500   12.3040   -3.5830 C   0  0  0  0  0  0  0  0  0  0  0  0
   -0.6250   13.1520   -2.3400 C   0  0  0  0  0  0  0  0  0  0  0  0
    0.6500   13.9690   -2.0260 C   0  0  1  0  0  0  0  0  0  0  0  0
    0.6090   15.1740   -3.0170 C   0  0  0  0  0  0  0  0  0  0  0  0
    0.8190   14.4430   -0.5460 C   0  0  2  0  0  0  0  0  0  0  0  0
   -0.2710   15.4050   -0.0410 C   0  0  0  0  0  0  0  0  0  0  0  0
    0.0160   16.8560   -0.2440 C   0  0  0  0  0  0  0  0  0  0  0  0
    1.2170   17.3820   -0.5460 C   0  0  0  0  0  0  0  0  0  0  0  0
    2.4680   16.4970   -0.6180 C   0  0  1  0  0  0  0  0  0  0  0  0
    3.6300   17.1790    0.1510 C   0  0  0  0  0  0  0  0  0  0  0  0
    3.8940   18.6030   -0.3310 C   0  0  0  0  0  0  0  0  0  0  0  0
    2.6430   19.4670   -0.1890 C   0  0  2  0  0  0  0  0  0  0  0  0
    2.3520   19.6320    1.2020 O   0  0  0  0  0  0  0  0  0  0  0  0
    1.4040   18.8740   -0.9160 C   0  0  0  0  0  0  0  0  0  0  0  0
    1.6010   18.9740   -2.4480 C   0  0  0  0  0  0  0  0  0  0  0  0
    0.1800   19.7670   -0.5770 C   0  0  0  0  0  0  0  0  0  0  0  0
    2.2680   14.9770   -0.1980 C   0  0  1  0  0  0  0  0  0  0  0  0
    2.4400   14.8250    1.3440 C   0  0  0  0  0  0  0  0  0  0  0  0
    3.4010   14.1070   -0.8590 C   0  0  0  0  0  0  0  0  0  0  0  0
    3.1250   13.5670   -2.2760 C   0  0  0  0  0  0  0  0  0  0  0  0
    1.7510   12.8940   -2.3480 C   0  0  2  0  0  0  0  0  0  0  0  0
    1.7700   11.6630   -1.3780 C   0  0  0  0  0  0  0  0  0  0  0  0
    3.8683   11.7298   -4.9419 H   0  0  0  0  0  0  0  0  0  0  0  0
    3.0575   10.5313   -6.0062 H   0  0  0  0  0  0  0  0  0  0  0  0
    2.5157   12.2439   -6.0062 H   0  0  0  0  0  0  0  0  0  0  0  0
    2.4621   10.6076   -3.4597 H   0  0  0  0  0  0  0  0  0  0  0  0
    0.3221   10.5778   -5.6302 H   0  0  0  0  0  0  0  0  0  0  0  0
    1.2784    9.1795   -4.9425 H   0  0  0  0  0  0  0  0  0  0  0  0
   -0.6385   10.8648   -3.2996 H   0  0  0  0  0  0  0  0  0  0  0  0
   -1.1027    9.3382   -4.1609 H   0  0  0  0  0  0  0  0  0  0  0  0
    1.2735    9.2517   -2.8552 H   0  0  0  0  0  0  0  0  0  0  0  0
   -1.7793    9.9332    0.2141 H   0  0  0  0  0  0  0  0  0  0  0  0
   -1.5466   10.8537   -1.3108 H   0  0  0  0  0  0  0  0  0  0  0  0
   -2.5274    9.3488   -1.3108 H   0  0  0  0  0  0  0  0  0  0  0  0
   -0.1225    8.8962    0.9357 H   0  0  0  0  0  0  0  0  0  0  0  0
    0.5613    7.5409   -0.0247 H   0  0  0  0  0  0  0  0  0  0  0  0
    1.3755    9.1421   -0.0247 H   0  0  0  0  0  0  0  0  0  0  0  0
    1.6336   13.0987   -4.5213 H   0  0  0  0  0  0  0  0  0  0  0  0
   -0.7496   12.7026   -4.4783 H   0  0  0  0  0  0  0  0  0  0  0  0
   -0.5692   11.2587   -3.4589 H   0  0  0  0  0  0  0  0  0  0  0  0
   -1.4687   13.8206   -2.5662 H   0  0  0  0  0  0  0  0  0  0  0  0
   -0.9412   12.5293   -1.4902 H   0  0  0  0  0  0  0  0  0  0  0  0
    0.5770   16.1152   -2.4486 H   0  0  0  0  0  0  0  0  0  0  0  0
    1.5082   15.1586   -3.6504 H   0  0  0  0  0  0  0  0  0  0  0  0
   -0.2871   15.0975   -3.6504 H   0  0  0  0  0  0  0  0  0  0  0  0
    0.6788   13.5095    0.0187 H   0  0  0  0  0  0  0  0  0  0  0  0
   -1.2062   15.1663   -0.5687 H   0  0  0  0  0  0  0  0  0  0  0  0
   -0.3290   15.2553    1.0472 H   0  0  0  0  0  0  0  0  0  0  0  0
   -0.8267   17.5550   -0.1375 H   0  0  0  0  0  0  0  0  0  0  0  0
    2.7223   16.4173   -1.6852 H   0  0  0  0  0  0  0  0  0  0  0  0
    3.3747   17.2103    1.2205 H   0  0  0  0  0  0  0  0  0  0  0  0
    4.5415   16.5905   -0.0304 H   0  0  0  0  0  0  0  0  0  0  0  0
    4.7048   19.0418    0.2690 H   0  0  0  0  0  0  0  0  0  0  0  0
    4.1780   18.5676   -1.3931 H   0  0  0  0  0  0  0  0  0  0  0  0
    2.8539   20.4347   -0.6676 H   0  0  0  0  0  0  0  0  0  0  0  0
    2.8640   20.3950    1.5210 H   0  0  0  0  0  0  0  0  0  0  0  0
    2.5630   19.4623   -2.6629 H   0  0  0  0  0  0  0  0  0  0  0  0
    1.5966   17.9645   -2.8849 H   0  0  0  0  0  0  0  0  0  0  0  0
    0.7835   19.5662   -2.8849 H   0  0  0  0  0  0  0  0  0  0  0  0
    0.0739   19.8444    0.5151 H   0  0  0  0  0  0  0  0  0  0  0  0
    0.3288   20.7702   -1.0030 H   0  0  0  0  0  0  0  0  0  0  0  0
   -0.7299   19.3191   -1.0030 H   0  0  0  0  0  0  0  0  0  0  0  0
    1.7118   15.4685    1.8594 H   0  0  0  0  0  0  0  0  0  0  0  0
    2.2700   13.7766    1.6303 H   0  0  0  0  0  0  0  0  0  0  0  0
    3.4595   15.1226    1.6303 H   0  0  0  0  0  0  0  0  0  0  0  0
    4.3090   14.7259   -0.9097 H   0  0  0  0  0  0  0  0  0  0  0  0
    3.4867   13.2141   -0.2223 H   0  0  0  0  0  0  0  0  0  0  0  0
    3.1547   14.4020   -2.9914 H   0  0  0  0  0  0  0  0  0  0  0  0
    3.8945   12.8208   -2.5231 H   0  0  0  0  0  0  0  0  0  0  0  0
    1.7645   12.0168   -0.3365 H   0  0  0  0  0  0  0  0  0  0  0  0
    0.8814   11.0403   -1.5584 H   0  0  0  0  0  0  0  0  0  0  0  0
    2.6774   11.0680   -1.5584 H   0  0  0  0  0  0  0  0  0  0  0  0
  1  2  1  0
  2  3  1  0
  3  4  1  0
  4  5  1  0
  5  6  1  0
  6  7  1  0
  7  8  1  0
  7  9  1  0
  2 10  1  0
 10 11  1  0
 11 12  1  0
 12 13  1  0
 13 14  1  6
 13 15  1  0
 15 16  1  0
 16 17  1  0
 17 18  2  0
 18 19  1  0
 19 20  1  0
 20 21  1  0
 21 22  1  0
 22 23  1  0
 22 24  1  0
 24 25  1  0
 24 26  1  0
 19 27  1  0
 27 28  1  1
 27 29  1  0
 29 30  1  0
 30 31  1  0
 31 32  1  1
  7  5  1  0
 31 10  1  0
 31 13  1  0
 27 15  1  0
 24 18  1  0
  1 33  1  0
  1 34  1  0
  1 35  1  0
  2 36  1  1
  3 37  1  0
  3 38  1  0
  4 39  1  0
  4 40  1  0
  5 41  1  1
  8 42  1  0
  8 43  1  0
  8 44  1  0
  9 45  1  0
  9 46  1  0
  9 47  1  0
 10 48  1  6
 11 49  1  0
 11 50  1  0
 12 51  1  0
 12 52  1  0
 14 53  1  0
 14 54  1  0
 14 55  1  0
 15 56  1  1
 16 57  1  0
 16 58  1  0
 17 59  1  0
 19 60  1  6
 20 61  1  0
 20 62  1  0
 21 63  1  0
 21 64  1  0
 22 65  1  6
 23 66  1  0
 25 67  1  0
 25 68  1  0
 25 69  1  0
 26 70  1  0
 26 71  1  0
 26 72  1  0
 28 73  1  0
 28 74  1  0
 28 75  1  0
 29 76  1  0
 29 77  1  0
 30 78  1  0
 30 79  1  0
 32 80  1  0
 32 81  1  0
 32 82  1  0
M  END
>  <meeko>  (15) 
{"is_sidechain": [false], "intermolecular_energy": 2.731, "internal_energy": -0.839}

$$$$
EPH_relaxed_0001_pdb2pqr_Repair_214_r2_0001_out
     RDKit          3D

 82 86  0  0  0  0  0  0  0  0999 V2000
   -2.9180   10.4960   -0.6580 C   0  0  0  0  0  0  0  0  0  0  0  0
   -1.4330   10.5130   -1.0290 C   0  0  2  0  0  0  0  0  0  0  0  0
   -0.6960    9.2520   -0.5340 C   0  0  0  0  0  0  0  0  0  0  0  0
    0.0040    8.4710   -1.6500 C   0  0  0  0  0  0  0  0  0  0  0  0
    0.9780    9.3280   -2.4000 C   0  0  2  0  0  0  0  0  0  0  0  0
    2.2060    8.6760   -2.7470 O   0  0  0  0  0  0  0  0  0  0  0  0
    2.3100    9.7760   -1.8290 C   0  0  0  0  0  0  0  0  0  0  0  0
    2.7420    9.3810   -0.4520 C   0  0  0  0  0  0  0  0  0  0  0  0
    2.9680   10.9880   -2.4130 C   0  0  0  0  0  0  0  0  0  0  0  0
   -0.7690   11.7610   -0.4580 C   0  0  1  0  0  0  0  0  0  0  0  0
    0.3710   11.4280    0.5400 C   0  0  0  0  0  0  0  0  0  0  0  0
    1.4580   12.5180    0.3580 C   0  0  0  0  0  0  0  0  0  0  0  0
    0.7710   13.6160   -0.4880 C   0  0  1  0  0  0  0  0  0  0  0  0
   -0.0670   14.4450    0.5350 C   0  0  0  0  0  0  0  0  0  0  0  0
    1.7170   14.5300   -1.3340 C   0  0  2  0  0  0  0  0  0  0  0  0
    2.7100   15.3750   -0.5170 C   0  0  0  0  0  0  0  0  0  0  0  0
    2.2200   16.7280   -0.1200 C   0  0  0  0  0  0  0  0  0  0  0  0
    1.1500   17.3570   -0.6420 C   0  0  0  0  0  0  0  0  0  0  0  0
    0.3670   16.7420   -1.8090 C   0  0  1  0  0  0  0  0  0  0  0  0
    0.1080   17.8260   -2.8880 C   0  0  0  0  0  0  0  0  0  0  0  0
   -0.5720   19.0670   -2.3180 C   0  0  0  0  0  0  0  0  0  0  0  0
    0.2640   19.6830   -1.2000 C   0  0  2  0  0  0  0  0  0  0  0  0
    1.4780   20.1940   -1.7600 O   0  0  0  0  0  0  0  0  0  0  0  0
    0.5970   18.6810   -0.0600 C   0  0  0  0  0  0  0  0  0  0  0  0
   -0.6880   18.3590    0.7420 C   0  0  0  0  0  0  0  0  0  0  0  0
    1.5610   19.3870    0.9310 C   0  0  0  0  0  0  0  0  0  0  0  0
    0.9710   15.4050   -2.4210 C   0  0  1  0  0  0  0  0  0  0  0  0
    2.0260   15.7500   -3.5160 C   0  0  0  0  0  0  0  0  0  0  0  0
   -0.1770   14.6070   -3.1460 C   0  0  0  0  0  0  0  0  0  0  0  0
   -0.9980   13.6320   -2.2820 C   0  0  0  0  0  0  0  0  0  0  0  0
   -0.0800   12.7210   -1.4600 C   0  0  2  0  0  0  0  0  0  0  0  0
    0.7600   11.8590   -2.4630 C   0  0  0  0  0  0  0  0  0  0  0  0
   -3.0224   10.4948    0.4370 H   0  0  0  0  0  0  0  0  0  0  0  0
   -3.4097   11.3886   -1.0722 H   0  0  0  0  0  0  0  0  0  0  0  0
   -3.3891    9.5924   -1.0722 H   0  0  0  0  0  0  0  0  0  0  0  0
   -1.3666   10.5250   -2.1269 H   0  0  0  0  0  0  0  0  0  0  0  0
    0.0609    9.5588    0.2028 H   0  0  0  0  0  0  0  0  0  0  0  0
   -1.4557    8.5842   -0.1016 H   0  0  0  0  0  0  0  0  0  0  0  0
    0.5445    7.6221   -1.2060 H   0  0  0  0  0  0  0  0  0  0  0  0
   -0.7627    8.1235   -2.3581 H   0  0  0  0  0  0  0  0  0  0  0  0
    0.1574    9.8813   -2.8801 H   0  0  0  0  0  0  0  0  0  0  0  0
    2.1435    9.9283    0.2912 H   0  0  0  0  0  0  0  0  0  0  0  0
    2.5940    8.2993   -0.3174 H   0  0  0  0  0  0  0  0  0  0  0  0
    3.8061    9.6250   -0.3174 H   0  0  0  0  0  0  0  0  0  0  0  0
    3.3220   11.6401   -1.6010 H   0  0  0  0  0  0  0  0  0  0  0  0
    3.8219   10.6785   -3.0335 H   0  0  0  0  0  0  0  0  0  0  0  0
    2.2433   11.5356   -3.0335 H   0  0  0  0  0  0  0  0  0  0  0  0
   -1.6477   12.2495   -0.0117 H   0  0  0  0  0  0  0  0  0  0  0  0
   -0.0118   11.4434    1.5711 H   0  0  0  0  0  0  0  0  0  0  0  0
    0.7817   10.4254    0.3500 H   0  0  0  0  0  0  0  0  0  0  0  0
    1.7731   12.9189    1.3327 H   0  0  0  0  0  0  0  0  0  0  0  0
    2.3655   12.1260   -0.1245 H   0  0  0  0  0  0  0  0  0  0  0  0
    0.2194   14.1617    1.5586 H   0  0  0  0  0  0  0  0  0  0  0  0
    0.1262   15.5173    0.3837 H   0  0  0  0  0  0  0  0  0  0  0  0
   -1.1371   14.2403    0.3837 H   0  0  0  0  0  0  0  0  0  0  0  0
    2.3280   13.7960   -1.8797 H   0  0  0  0  0  0  0  0  0  0  0  0
    2.9547   14.8194    0.4003 H   0  0  0  0  0  0  0  0  0  0  0  0
    3.5763   15.5455   -1.1731 H   0  0  0  0  0  0  0  0  0  0  0  0
    2.7806   17.2559    0.6656 H   0  0  0  0  0  0  0  0  0  0  0  0
   -0.5893   16.4001   -1.3863 H   0  0  0  0  0  0  0  0  0  0  0  0
    1.0714   18.1225   -3.3285 H   0  0  0  0  0  0  0  0  0  0  0  0
   -0.5653   17.3926   -3.6422 H   0  0  0  0  0  0  0  0  0  0  0  0
   -0.7007   19.8077   -3.1210 H   0  0  0  0  0  0  0  0  0  0  0  0
   -1.5483   18.7734   -1.9049 H   0  0  0  0  0  0  0  0  0  0  0  0
   -0.3342   20.4869   -0.7463 H   0  0  0  0  0  0  0  0  0  0  0  0
    2.1650   19.5170   -1.6410 H   0  0  0  0  0  0  0  0  0  0  0  0
   -0.4713   18.4133    1.8191 H   0  0  0  0  0  0  0  0  0  0  0  0
   -1.4711   19.0887    0.4883 H   0  0  0  0  0  0  0  0  0  0  0  0
   -1.0344   17.3463    0.4883 H   0  0  0  0  0  0  0  0  0  0  0  0
    1.2546   19.1626    1.9633 H   0  0  0  0  0  0  0  0  0  0  0  0
    2.5864   19.0247    0.7659 H   0  0  0  0  0  0  0  0  0  0  0  0
    1.5251   20.4740    0.7659 H   0  0  0  0  0  0  0  0  0  0  0  0
    2.9664   16.0575   -3.0352 H   0  0  0  0  0  0  0  0  0  0  0  0
    2.2071   14.8643   -4.1427 H   0  0  0  0  0  0  0  0  0  0  0  0
    1.6488   16.5716   -4.1427 H   0  0  0  0  0  0  0  0  0  0  0  0
   -0.8751   15.3423   -3.5726 H   0  0  0  0  0  0  0  0  0  0  0  0
    0.3354   13.9743   -3.8857 H   0  0  0  0  0  0  0  0  0  0  0  0
   -1.6384   14.2087   -1.5984 H   0  0  0  0  0  0  0  0  0  0  0  0
   -1.6106   13.0050   -2.9466 H   0  0  0  0  0  0  0  0  0  0  0  0
    1.4199   11.1818   -1.9010 H   0  0  0  0  0  0  0  0  0  0  0  0
    0.0817   11.2682   -3.0961 H   0  0  0  0  0  0  0  0  0  0  0  0
    1.3681   12.5218   -3.0961 H   0  0  0  0  0  0  0  0  0  0  0  0
  1  2  1  0
  2  3  1  0
  3  4  1  0
  4  5  1  0
  5  6  1  0
  6  7  1  0
  7  8  1  0
  7  9  1  0
  2 10  1  0
 10 11  1  0
 11 12  1  0
 12 13  1  0
 13 14  1  1
 13 15  1  0
 15 16  1  0
 16 17  1  0
 17 18  2  0
 18 19  1  0
 19 20  1  0
 20 21  1  0
 21 22  1  0
 22 23  1  0
 22 24  1  0
 24 25  1  0
 24 26  1  0
 19 27  1  0
 27 28  1  6
 27 29  1  0
 29 30  1  0
 30 31  1  0
 31 32  1  6
  7  5  1  0
 31 10  1  0
 31 13  1  0
 27 15  1  0
 24 18  1  0
  1 33  1  0
  1 34  1  0
  1 35  1  0
  2 36  1  6
  3 37  1  0
  3 38  1  0
  4 39  1  0
  4 40  1  0
  5 41  1  6
  8 42  1  0
  8 43  1  0
  8 44  1  0
  9 45  1  0
  9 46  1  0
  9 47  1  0
 10 48  1  1
 11 49  1  0
 11 50  1  0
 12 51  1  0
 12 52  1  0
 14 53  1  0
 14 54  1  0
 14 55  1  0
 15 56  1  6
 16 57  1  0
 16 58  1  0
 17 59  1  0
 19 60  1  1
 20 61  1  0
 20 62  1  0
 21 63  1  0
 21 64  1  0
 22 65  1  1
 23 66  1  0
 25 67  1  0
 25 68  1  0
 25 69  1  0
 26 70  1  0
 26 71  1  0
 26 72  1  0
 28 73  1  0
 28 74  1  0
 28 75  1  0
 29 76  1  0
 29 77  1  0
 30 78  1  0
 30 79  1  0
 32 80  1  0
 32 81  1  0
 32 82  1  0
M  END
>  <meeko>  (16) 
{"is_sidechain": [false], "intermolecular_energy": 2.731, "internal_energy": -0.839}

$$$$
EPH_relaxed_0001_pdb2pqr_Repair_214_r2_0001_out
     RDKit          3D

 82 86  0  0  0  0  0  0  0  0999 V2000
   -0.0390    9.2860   -4.0980 C   0  0  0  0  0  0  0  0  0  0  0  0
    0.0480    9.4820   -2.5820 C   0  0  2  0  0  0  0  0  0  0  0  0
   -0.8120    8.4590   -1.8140 C   0  0  0  0  0  0  0  0  0  0  0  0
   -2.3080    8.5530   -2.1290 C   0  0  0  0  0  0  0  0  0  0  0  0
   -2.8360    7.2720   -2.6980 C   0  0  2  0  0  0  0  0  0  0  0  0
   -3.8970    7.4320   -3.6490 O   0  0  0  0  0  0  0  0  0  0  0  0
   -4.2360    6.7510   -2.4300 C   0  0  0  0  0  0  0  0  0  0  0  0
   -5.1940    7.5020   -1.5600 C   0  0  0  0  0  0  0  0  0  0  0  0
   -4.5030    5.2890   -2.6100 C   0  0  0  0  0  0  0  0  0  0  0  0
   -0.3760   10.8990   -2.2150 C   0  0  1  0  0  0  0  0  0  0  0  0
   -1.5730   10.9280   -1.2280 C   0  0  0  0  0  0  0  0  0  0  0  0
   -1.3550   12.1480   -0.2970 C   0  0  0  0  0  0  0  0  0  0  0  0
   -0.2340   12.9650   -0.9790 C   0  0  1  0  0  0  0  0  0  0  0  0
   -0.9560   13.7850   -2.0940 C   0  0  0  0  0  0  0  0  0  0  0  0
    0.6170   13.8850   -0.0450 C   0  0  2  0  0  0  0  0  0  0  0  0
   -0.1680   15.0060    0.6580 C   0  0  0  0  0  0  0  0  0  0  0  0
   -0.2370   16.2990   -0.0850 C   0  0  0  0  0  0  0  0  0  0  0  0
    0.5410   16.6440   -1.1280 C   0  0  0  0  0  0  0  0  0  0  0  0
    1.6780   15.7290   -1.6000 C   0  0  1  0  0  0  0  0  0  0  0  0
    2.9610   16.5710   -1.8230 C   0  0  0  0  0  0  0  0  0  0  0  0
    2.7310   17.7490   -2.7650 C   0  0  0  0  0  0  0  0  0  0  0  0
    1.6340   18.6670   -2.2330 C   0  0  2  0  0  0  0  0  0  0  0  0
    2.0960   19.2870   -1.0290 O   0  0  0  0  0  0  0  0  0  0  0  0
    0.2950   17.9270   -1.9600 C   0  0  0  0  0  0  0  0  0  0  0  0
   -0.3570   17.5170   -3.3040 C   0  0  0  0  0  0  0  0  0  0  0  0
   -0.6810   18.9350   -1.2950 C   0  0  0  0  0  0  0  0  0  0  0  0
    1.9420   14.4380   -0.7120 C   0  0  1  0  0  0  0  0  0  0  0  0
    2.9160   14.7850    0.4550 C   0  0  0  0  0  0  0  0  0  0  0  0
    2.6690   13.3510   -1.5880 C   0  0  0  0  0  0  0  0  0  0  0  0
    1.7710   12.3950   -2.3960 C   0  0  0  0  0  0  0  0  0  0  0  0
    0.6730   11.7960   -1.5110 C   0  0  2  0  0  0  0  0  0  0  0  0
    1.3690   10.9460   -0.3940 C   0  0  0  0  0  0  0  0  0  0  0  0
   -0.4764    8.3005   -4.3158 H   0  0  0  0  0  0  0  0  0  0  0  0
   -0.6724   10.0727   -4.5337 H   0  0  0  0  0  0  0  0  0  0  0  0
    0.9694    9.3440   -4.5337 H   0  0  0  0  0  0  0  0  0  0  0  0
    1.0954    9.3200   -2.2875 H   0  0  0  0  0  0  0  0  0  0  0  0
   -0.4650    7.4482   -2.0747 H   0  0  0  0  0  0  0  0  0  0  0  0
   -0.6944    8.6797   -0.7428 H   0  0  0  0  0  0  0  0  0  0  0  0
   -2.8537    8.7830   -1.2020 H   0  0  0  0  0  0  0  0  0  0  0  0
   -2.4515    9.3457   -2.8780 H   0  0  0  0  0  0  0  0  0  0  0  0
   -1.8455    6.8005   -2.6172 H   0  0  0  0  0  0  0  0  0  0  0  0
   -4.9542    7.3140   -0.5031 H   0  0  0  0  0  0  0  0  0  0  0  0
   -5.1120    8.5789   -1.7687 H   0  0  0  0  0  0  0  0  0  0  0  0
   -6.2202    7.1652   -1.7687 H   0  0  0  0  0  0  0  0  0  0  0  0
   -4.5908    4.8083   -1.6245 H   0  0  0  0  0  0  0  0  0  0  0  0
   -5.4407    5.1536   -3.1689 H   0  0  0  0  0  0  0  0  0  0  0  0
   -3.6737    4.8309   -3.1689 H   0  0  0  0  0  0  0  0  0  0  0  0
   -0.5933   11.2917   -3.2193 H   0  0  0  0  0  0  0  0  0  0  0  0
   -2.5175   11.0375   -1.7811 H   0  0  0  0  0  0  0  0  0  0  0  0
   -1.6304    9.9945   -0.6490 H   0  0  0  0  0  0  0  0  0  0  0  0
   -2.2758   12.7443   -0.2166 H   0  0  0  0  0  0  0  0  0  0  0  0
   -1.0880   11.8482    0.7271 H   0  0  0  0  0  0  0  0  0  0  0  0
   -1.6151   14.5336   -1.6301 H   0  0  0  0  0  0  0  0  0  0  0  0
   -0.2067   14.2932   -2.7188 H   0  0  0  0  0  0  0  0  0  0  0  0
   -1.5549   13.1061   -2.7188 H   0  0  0  0  0  0  0  0  0  0  0  0
    0.9255   13.1917    0.7513 H   0  0  0  0  0  0  0  0  0  0  0  0
   -1.1967   14.6512    0.8189 H   0  0  0  0  0  0  0  0  0  0  0  0
    0.3754   15.2194    1.5903 H   0  0  0  0  0  0  0  0  0  0  0  0
   -0.9869   17.0317    0.2479 H   0  0  0  0  0  0  0  0  0  0  0  0
    1.3447   15.2968   -2.5551 H   0  0  0  0  0  0  0  0  0  0  0  0
    3.3023   16.9578   -0.8514 H   0  0  0  0  0  0  0  0  0  0  0  0
    3.7143   15.9160   -2.2851 H   0  0  0  0  0  0  0  0  0  0  0  0
    3.6653   18.3219   -2.8597 H   0  0  0  0  0  0  0  0  0  0  0  0
    2.4178   17.3590   -3.7447 H   0  0  0  0  0  0  0  0  0  0  0  0
    1.4246   19.4164   -3.0105 H   0  0  0  0  0  0  0  0  0  0  0  0
    2.8720   19.8270   -1.2540 H   0  0  0  0  0  0  0  0  0  0  0  0
   -1.2731   16.9410   -3.1065 H   0  0  0  0  0  0  0  0  0  0  0  0
   -0.6086   18.4198   -3.8800 H   0  0  0  0  0  0  0  0  0  0  0  0
    0.3476   16.8991   -3.8800 H   0  0  0  0  0  0  0  0  0  0  0  0
   -0.6025   18.8539   -0.2008 H   0  0  0  0  0  0  0  0  0  0  0  0
   -0.4207   19.9573   -1.6065 H   0  0  0  0  0  0  0  0  0  0  0  0
   -1.7112   18.7078   -1.6065 H   0  0  0  0  0  0  0  0  0  0  0  0
    2.4138   14.6061    1.4172 H   0  0  0  0  0  0  0  0  0  0  0  0
    3.8121   14.1508    0.3856 H   0  0  0  0  0  0  0  0  0  0  0  0
    3.2092   15.8429    0.3856 H   0  0  0  0  0  0  0  0  0  0  0  0
    3.3193   13.8789   -2.3010 H   0  0  0  0  0  0  0  0  0  0  0  0
    3.1985   12.7090   -0.8687 H   0  0  0  0  0  0  0  0  0  0  0  0
    1.3040   12.9516   -3.2219 H   0  0  0  0  0  0  0  0  0  0  0  0
    2.3925   11.5760   -2.7871 H   0  0  0  0  0  0  0  0  0  0  0  0
    1.0635   11.3192    0.5946 H   0  0  0  0  0  0  0  0  0  0  0  0
    1.0712    9.8920   -0.4962 H   0  0  0  0  0  0  0  0  0  0  0  0
    2.4610   11.0300   -0.4962 H   0  0  0  0  0  0  0  0  0  0  0  0
  1  2  1  0
  2  3  1  0
  3  4  1  0
  4  5  1  0
  5  6  1  0
  6  7  1  0
  7  8  1  0
  7  9  1  0
  2 10  1  0
 10 11  1  0
 11 12  1  0
 12 13  1  0
 13 14  1  6
 13 15  1  0
 15 16  1  0
 16 17  1  0
 17 18  2  0
 18 19  1  0
 19 20  1  0
 20 21  1  0
 21 22  1  0
 22 23  1  0
 22 24  1  0
 24 25  1  0
 24 26  1  0
 19 27  1  0
 27 28  1  1
 27 29  1  0
 29 30  1  0
 30 31  1  0
 31 32  1  1
  7  5  1  0
 31 10  1  0
 31 13  1  0
 27 15  1  0
 24 18  1  0
  1 33  1  0
  1 34  1  0
  1 35  1  0
  2 36  1  1
  3 37  1  0
  3 38  1  0
  4 39  1  0
  4 40  1  0
  5 41  1  6
  8 42  1  0
  8 43  1  0
  8 44  1  0
  9 45  1  0
  9 46  1  0
  9 47  1  0
 10 48  1  6
 11 49  1  0
 11 50  1  0
 12 51  1  0
 12 52  1  0
 14 53  1  0
 14 54  1  0
 14 55  1  0
 15 56  1  1
 16 57  1  0
 16 58  1  0
 17 59  1  0
 19 60  1  6
 20 61  1  0
 20 62  1  0
 21 63  1  0
 21 64  1  0
 22 65  1  6
 23 66  1  0
 25 67  1  0
 25 68  1  0
 25 69  1  0
 26 70  1  0
 26 71  1  0
 26 72  1  0
 28 73  1  0
 28 74  1  0
 28 75  1  0
 29 76  1  0
 29 77  1  0
 30 78  1  0
 30 79  1  0
 32 80  1  0
 32 81  1  0
 32 82  1  0
M  END
>  <meeko>  (17) 
{"is_sidechain": [false], "intermolecular_energy": 2.731, "internal_energy": -0.839}

$$$$
EPH_relaxed_0001_pdb2pqr_Repair_214_r2_0001_out
     RDKit          3D

 82 86  0  0  0  0  0  0  0  0999 V2000
    0.9680   14.9760   -2.6780 C   0  0  0  0  0  0  0  0  0  0  0  0
    1.2100   14.3020   -4.0310 C   0  0  2  0  0  0  0  0  0  0  0  0
    0.4780   15.0250   -5.1800 C   0  0  0  0  0  0  0  0  0  0  0  0
    0.9670   14.6190   -6.5730 C   0  0  0  0  0  0  0  0  0  0  0  0
    0.7990   15.7300   -7.5650 C   0  0  2  0  0  0  0  0  0  0  0  0
    0.4040   15.3060   -8.8760 O   0  0  0  0  0  0  0  0  0  0  0  0
    1.7000   15.9180   -8.7710 C   0  0  0  0  0  0  0  0  0  0  0  0
    2.8370   14.9860   -9.0480 C   0  0  0  0  0  0  0  0  0  0  0  0
    1.7790   17.2740   -9.4000 C   0  0  0  0  0  0  0  0  0  0  0  0
    0.7710   12.8430   -3.9710 C   0  0  1  0  0  0  0  0  0  0  0  0
    1.9070   11.8610   -4.3630 C   0  0  0  0  0  0  0  0  0  0  0  0
    1.7260   10.5950   -3.4860 C   0  0  0  0  0  0  0  0  0  0  0  0
    0.3180   10.7480   -2.8660 C   0  0  1  0  0  0  0  0  0  0  0  0
   -0.6660   10.2710   -3.9800 C   0  0  0  0  0  0  0  0  0  0  0  0
    0.0710    9.9970   -1.5170 C   0  0  2  0  0  0  0  0  0  0  0  0
    0.1870    8.4640   -1.5940 C   0  0  0  0  0  0  0  0  0  0  0  0
   -1.0830    7.7430   -1.9030 C   0  0  0  0  0  0  0  0  0  0  0  0
   -2.3190    8.2710   -1.8310 C   0  0  0  0  0  0  0  0  0  0  0  0
   -2.5380    9.6970   -1.3100 C   0  0  1  0  0  0  0  0  0  0  0  0
   -3.7070    9.7030   -0.2910 C   0  0  0  0  0  0  0  0  0  0  0  0
   -4.9820    9.0880   -0.8600 C   0  0  0  0  0  0  0  0  0  0  0  0
   -4.7390    7.6510   -1.3140 C   0  0  2  0  0  0  0  0  0  0  0  0
   -4.4630    6.8450   -0.1640 O   0  0  0  0  0  0  0  0  0  0  0  0
   -3.5750    7.5190   -2.3360 C   0  0  0  0  0  0  0  0  0  0  0  0
   -4.0000    8.1380   -3.6910 C   0  0  0  0  0  0  0  0  0  0  0  0
   -3.3430    6.0080   -2.6030 C   0  0  0  0  0  0  0  0  0  0  0  0
   -1.2450   10.4400   -0.7590 C   0  0  1  0  0  0  0  0  0  0  0  0
   -1.0310   10.0900    0.7460 C   0  0  0  0  0  0  0  0  0  0  0  0
   -1.4780   11.9950   -0.8250 C   0  0  0  0  0  0  0  0  0  0  0  0
   -1.1040   12.6990   -2.1430 C   0  0  0  0  0  0  0  0  0  0  0  0
    0.3020   12.2980   -2.5990 C   0  0  2  0  0  0  0  0  0  0  0  0
    1.3160   12.7850   -1.5080 C   0  0  0  0  0  0  0  0  0  0  0  0
    1.2198   14.2747   -1.8688 H   0  0  0  0  0  0  0  0  0  0  0  0
    1.6005   15.8723   -2.5965 H   0  0  0  0  0  0  0  0  0  0  0  0
   -0.0901   15.2653   -2.5965 H   0  0  0  0  0  0  0  0  0  0  0  0
    2.2886   14.3580   -4.2398 H   0  0  0  0  0  0  0  0  0  0  0  0
   -0.5951   14.7943   -5.1077 H   0  0  0  0  0  0  0  0  0  0  0  0
    0.6847   16.0995   -5.0672 H   0  0  0  0  0  0  0  0  0  0  0  0
    2.0326   14.3526   -6.5132 H   0  0  0  0  0  0  0  0  0  0  0  0
    0.3651   13.7629   -6.9117 H   0  0  0  0  0  0  0  0  0  0  0  0
    0.4736   16.4204   -6.7728 H   0  0  0  0  0  0  0  0  0  0  0  0
    3.2642   14.6358   -8.0967 H   0  0  0  0  0  0  0  0  0  0  0  0
    2.4720   14.1238   -9.6255 H   0  0  0  0  0  0  0  0  0  0  0  0
    3.6108   15.5130   -9.6255 H   0  0  0  0  0  0  0  0  0  0  0  0
    1.8237   18.0412   -8.6130 H   0  0  0  0  0  0  0  0  0  0  0  0
    2.6823   17.3364  -10.0246 H   0  0  0  0  0  0  0  0  0  0  0  0
    0.8891   17.4409  -10.0246 H   0  0  0  0  0  0  0  0  0  0  0  0
   -0.0759   12.8758   -4.6722 H   0  0  0  0  0  0  0  0  0  0  0  0
    1.8297   11.5981   -5.4283 H   0  0  0  0  0  0  0  0  0  0  0  0
    2.8955   12.3156   -4.2013 H   0  0  0  0  0  0  0  0  0  0  0  0
    1.7825    9.6850   -4.1014 H   0  0  0  0  0  0  0  0  0  0  0  0
    2.5108   10.5019   -2.7209 H   0  0  0  0  0  0  0  0  0  0  0  0
   -1.5631    9.8361   -3.5152 H   0  0  0  0  0  0  0  0  0  0  0  0
   -0.9559   11.1286   -4.6049 H   0  0  0  0  0  0  0  0  0  0  0  0
   -0.1724    9.5122   -4.6049 H   0  0  0  0  0  0  0  0  0  0  0  0
    0.9197   10.3310   -0.9021 H   0  0  0  0  0  0  0  0  0  0  0  0
    0.9174    8.2174   -2.3787 H   0  0  0  0  0  0  0  0  0  0  0  0
    0.4894    8.1310   -0.5902 H   0  0  0  0  0  0  0  0  0  0  0  0
   -1.0019    6.6916   -2.2159 H   0  0  0  0  0  0  0  0  0  0  0  0
   -2.8055   10.3032   -2.1881 H   0  0  0  0  0  0  0  0  0  0  0  0
   -3.4040    9.1284    0.5967 H   0  0  0  0  0  0  0  0  0  0  0  0
   -3.9253   10.7513   -0.0394 H   0  0  0  0  0  0  0  0  0  0  0  0
   -5.7617    9.0934   -0.0841 H   0  0  0  0  0  0  0  0  0  0  0  0
   -5.3005    9.6818   -1.7295 H   0  0  0  0  0  0  0  0  0  0  0  0
   -5.6488    7.3099   -1.8297 H   0  0  0  0  0  0  0  0  0  0  0  0
   -5.3140    6.5330    0.1880 H   0  0  0  0  0  0  0  0  0  0  0  0
   -4.6140    9.0323   -3.5090 H   0  0  0  0  0  0  0  0  0  0  0  0
   -3.1034    8.4190   -4.2631 H   0  0  0  0  0  0  0  0  0  0  0  0
   -4.5843    7.4022   -4.2631 H   0  0  0  0  0  0  0  0  0  0  0  0
   -3.2611    5.4746   -1.6445 H   0  0  0  0  0  0  0  0  0  0  0  0
   -4.1895    5.6029   -3.1769 H   0  0  0  0  0  0  0  0  0  0  0  0
   -2.4140    5.8755   -3.1769 H   0  0  0  0  0  0  0  0  0  0  0  0
   -1.5027   10.8614    1.3725 H   0  0  0  0  0  0  0  0  0  0  0  0
   -1.4860    9.1124    0.9634 H   0  0  0  0  0  0  0  0  0  0  0  0
    0.0465   10.0494    0.9634 H   0  0  0  0  0  0  0  0  0  0  0  0
   -2.5468   12.1792   -0.6412 H   0  0  0  0  0  0  0  0  0  0  0  0
   -0.7999   12.4195   -0.0700 H   0  0  0  0  0  0  0  0  0  0  0  0
   -1.8288   12.4158   -2.9204 H   0  0  0  0  0  0  0  0  0  0  0  0
   -1.1221   13.7863   -1.9772 H   0  0  0  0  0  0  0  0  0  0  0  0
    0.9024   12.5864   -0.5083 H   0  0  0  0  0  0  0  0  0  0  0  0
    2.2675   12.2456   -1.6250 H   0  0  0  0  0  0  0  0  0  0  0  0
    1.4899   13.8649   -1.6250 H   0  0  0  0  0  0  0  0  0  0  0  0
  1  2  1  0
  2  3  1  0
  3  4  1  0
  4  5  1  0
  5  6  1  0
  6  7  1  0
  7  8  1  0
  7  9  1  0
  2 10  1  0
 10 11  1  0
 11 12  1  0
 12 13  1  0
 13 14  1  6
 13 15  1  0
 15 16  1  0
 16 17  1  0
 17 18  2  0
 18 19  1  0
 19 20  1  0
 20 21  1  0
 21 22  1  0
 22 23  1  0
 22 24  1  0
 24 25  1  0
 24 26  1  0
 19 27  1  0
 27 28  1  1
 27 29  1  0
 29 30  1  0
 30 31  1  0
 31 32  1  1
  7  5  1  0
 31 10  1  0
 31 13  1  0
 27 15  1  0
 24 18  1  0
  1 33  1  0
  1 34  1  0
  1 35  1  0
  2 36  1  6
  3 37  1  0
  3 38  1  0
  4 39  1  0
  4 40  1  0
  5 41  1  1
  8 42  1  0
  8 43  1  0
  8 44  1  0
  9 45  1  0
  9 46  1  0
  9 47  1  0
 10 48  1  6
 11 49  1  0
 11 50  1  0
 12 51  1  0
 12 52  1  0
 14 53  1  0
 14 54  1  0
 14 55  1  0
 15 56  1  1
 16 57  1  0
 16 58  1  0
 17 59  1  0
 19 60  1  6
 20 61  1  0
 20 62  1  0
 21 63  1  0
 21 64  1  0
 22 65  1  6
 23 66  1  0
 25 67  1  0
 25 68  1  0
 25 69  1  0
 26 70  1  0
 26 71  1  0
 26 72  1  0
 28 73  1  0
 28 74  1  0
 28 75  1  0
 29 76  1  0
 29 77  1  0
 30 78  1  0
 30 79  1  0
 32 80  1  0
 32 81  1  0
 32 82  1  0
M  END
>  <meeko>  (18) 
{"is_sidechain": [false], "intermolecular_energy": 2.731, "internal_energy": -0.839}

$$$$
