EPH_relaxed_0001_pdb2pqr_Repair_97_r2_0001_out
     RDKit          3D

 82 86  0  0  0  0  0  0  0  0999 V2000
   -1.5820    8.5850   -1.9250 C   0  0  0  0  0  0  0  0  0  0  0  0
   -1.9470    9.0640   -0.5170 C   0  0  2  0  0  0  0  0  0  0  0  0
   -3.4510    9.3800   -0.3830 C   0  0  0  0  0  0  0  0  0  0  0  0
   -4.3380    8.1340   -0.3160 C   0  0  0  0  0  0  0  0  0  0  0  0
   -5.6140    8.3210   -1.0800 C   0  0  2  0  0  0  0  0  0  0  0  0
   -6.5890    7.2890   -0.8790 O   0  0  0  0  0  0  0  0  0  0  0  0
   -6.0550    7.4070   -2.2080 C   0  0  0  0  0  0  0  0  0  0  0  0
   -5.2240    6.2380   -2.6350 C   0  0  0  0  0  0  0  0  0  0  0  0
   -7.0390    7.9280   -3.2090 C   0  0  0  0  0  0  0  0  0  0  0  0
   -1.1220   10.2930   -0.1560 C   0  0  1  0  0  0  0  0  0  0  0  0
   -0.0960   10.0130    0.9740 C   0  0  0  0  0  0  0  0  0  0  0  0
    1.1570   10.8720    0.6640 C   0  0  0  0  0  0  0  0  0  0  0  0
    0.6920   11.8580   -0.4330 C   0  0  1  0  0  0  0  0  0  0  0  0
   -0.0520   12.9940    0.3370 C   0  0  0  0  0  0  0  0  0  0  0  0
    1.8080   12.4290   -1.3670 C   0  0  2  0  0  0  0  0  0  0  0  0
    2.8830   13.2720   -0.6600 C   0  0  0  0  0  0  0  0  0  0  0  0
    2.5950   14.7350   -0.5780 C   0  0  0  0  0  0  0  0  0  0  0  0
    1.6640   15.3890   -1.2960 C   0  0  0  0  0  0  0  0  0  0  0  0
    0.8480   14.6660   -2.3750 C   0  0  1  0  0  0  0  0  0  0  0  0
    0.8140   15.5280   -3.6640 C   0  0  0  0  0  0  0  0  0  0  0  0
    0.3120   16.9460   -3.4060 C   0  0  0  0  0  0  0  0  0  0  0  0
    1.1830   17.6530   -2.3710 C   0  0  2  0  0  0  0  0  0  0  0  0
    2.4870   17.8550   -2.9250 O   0  0  0  0  0  0  0  0  0  0  0  0
    1.3000   16.8710   -1.0320 C   0  0  0  0  0  0  0  0  0  0  0  0
   -0.0560   16.9140   -0.2850 C   0  0  0  0  0  0  0  0  0  0  0  0
    2.3170   17.6210   -0.1290 C   0  0  0  0  0  0  0  0  0  0  0  0
    1.2600   13.1580   -2.6610 C   0  0  1  0  0  0  0  0  0  0  0  0
    2.4060   13.1110   -3.7170 C   0  0  0  0  0  0  0  0  0  0  0  0
    0.0360   12.4020   -3.3000 C   0  0  0  0  0  0  0  0  0  0  0  0
   -0.9680   11.7570   -2.3260 C   0  0  0  0  0  0  0  0  0  0  0  0
   -0.2450   10.9140   -1.2720 C   0  0  2  0  0  0  0  0  0  0  0  0
    0.4940    9.7500   -2.0150 C   0  0  0  0  0  0  0  0  0  0  0  0
   -0.9167    7.7119   -1.8543 H   0  0  0  0  0  0  0  0  0  0  0  0
   -2.4979    8.3052   -2.4660 H   0  0  0  0  0  0  0  0  0  0  0  0
   -1.0692    9.3939   -2.4660 H   0  0  0  0  0  0  0  0  0  0  0  0
   -1.7183    8.2452    0.1810 H   0  0  0  0  0  0  0  0  0  0  0  0
   -3.6026    9.9641    0.5367 H   0  0  0  0  0  0  0  0  0  0  0  0
   -3.7445    9.9354   -1.2860 H   0  0  0  0  0  0  0  0  0  0  0  0
   -3.7886    7.2818   -0.7425 H   0  0  0  0  0  0  0  0  0  0  0  0
   -4.5929    7.9504    0.7382 H   0  0  0  0  0  0  0  0  0  0  0  0
   -5.5238    9.4150   -1.0093 H   0  0  0  0  0  0  0  0  0  0  0  0
   -4.8489    5.7104   -1.7456 H   0  0  0  0  0  0  0  0  0  0  0  0
   -5.8381    5.5518   -3.2366 H   0  0  0  0  0  0  0  0  0  0  0  0
   -4.3741    6.5925   -3.2366 H   0  0  0  0  0  0  0  0  0  0  0  0
   -7.8927    8.3800   -2.6829 H   0  0  0  0  0  0  0  0  0  0  0  0
   -6.5533    8.6871   -3.8398 H   0  0  0  0  0  0  0  0  0  0  0  0
   -7.3939    7.0996   -3.8398 H   0  0  0  0  0  0  0  0  0  0  0  0
   -1.9324   10.9858    0.1147 H   0  0  0  0  0  0  0  0  0  0  0  0
   -0.5189   10.2980    1.9487 H   0  0  0  0  0  0  0  0  0  0  0  0
    0.1595    8.9440    1.0193 H   0  0  0  0  0  0  0  0  0  0  0  0
    1.4863   11.4164    1.5613 H   0  0  0  0  0  0  0  0  0  0  0  0
    2.0123   10.2607    0.3403 H   0  0  0  0  0  0  0  0  0  0  0  0
    0.0535   12.8329    1.4200 H   0  0  0  0  0  0  0  0  0  0  0  0
    0.3845   13.9669    0.0668 H   0  0  0  0  0  0  0  0  0  0  0  0
   -1.1182   12.9827    0.0668 H   0  0  0  0  0  0  0  0  0  0  0  0
    2.3202   11.5168   -1.7069 H   0  0  0  0  0  0  0  0  0  0  0  0
    2.9947   12.8897    0.3653 H   0  0  0  0  0  0  0  0  0  0  0  0
    3.7943   13.1750   -1.2683 H   0  0  0  0  0  0  0  0  0  0  0  0
    3.1944   15.3277    0.1288 H   0  0  0  0  0  0  0  0  0  0  0  0
   -0.1689   14.5626   -1.9684 H   0  0  0  0  0  0  0  0  0  0  0  0
    1.8316   15.5839   -4.0779 H   0  0  0  0  0  0  0  0  0  0  0  0
    0.1168   15.0496   -4.3676 H   0  0  0  0  0  0  0  0  0  0  0  0
    0.3386   17.5142   -4.3475 H   0  0  0  0  0  0  0  0  0  0  0  0
   -0.7164   16.8896   -3.0198 H   0  0  0  0  0  0  0  0  0  0  0  0
    0.6996   18.6122   -2.1337 H   0  0  0  0  0  0  0  0  0  0  0  0
    2.6200   17.1820   -3.6140 H   0  0  0  0  0  0  0  0  0  0  0  0
    0.1229   16.9083    0.8003 H   0  0  0  0  0  0  0  0  0  0  0  0
   -0.5986   17.8298   -0.5624 H   0  0  0  0  0  0  0  0  0  0  0  0
   -0.6555   16.0344   -0.5624 H   0  0  0  0  0  0  0  0  0  0  0  0
    2.0718   17.4402    0.9280 H   0  0  0  0  0  0  0  0  0  0  0  0
    3.3328   17.2542   -0.3377 H   0  0  0  0  0  0  0  0  0  0  0  0
    2.2667   18.6998   -0.3377 H   0  0  0  0  0  0  0  0  0  0  0  0
    3.3774   13.0712   -3.2024 H   0  0  0  0  0  0  0  0  0  0  0  0
    2.2878   12.2169   -4.3468 H   0  0  0  0  0  0  0  0  0  0  0  0
    2.3614   14.0117   -4.3468 H   0  0  0  0  0  0  0  0  0  0  0  0
   -0.5169   13.1258   -3.9167 H   0  0  0  0  0  0  0  0  0  0  0  0
    0.4760   11.5620   -3.8575 H   0  0  0  0  0  0  0  0  0  0  0  0
   -1.5404   12.5497   -1.8220 H   0  0  0  0  0  0  0  0  0  0  0  0
   -1.6403   11.1012   -2.8987 H   0  0  0  0  0  0  0  0  0  0  0  0
    0.9307    9.0622   -1.2760 H   0  0  0  0  0  0  0  0  0  0  0  0
   -0.2231    9.2038   -2.6454 H   0  0  0  0  0  0  0  0  0  0  0  0
    1.2934   10.1666   -2.6454 H   0  0  0  0  0  0  0  0  0  0  0  0
  1  2  1  0
  2  3  1  0
  3  4  1  0
  4  5  1  0
  5  6  1  0
  6  7  1  0
  7  8  1  0
  7  9  1  0
  2 10  1  0
 10 11  1  0
 11 12  1  0
 12 13  1  0
 13 14  1  1
 13 15  1  0
 15 16  1  0
 16 17  1  0
 17 18  2  0
 18 19  1  0
 19 20  1  0
 20 21  1  0
 21 22  1  0
 22 23  1  0
 22 24  1  0
 24 25  1  0
 24 26  1  0
 19 27  1  0
 27 28  1  6
 27 29  1  0
 29 30  1  0
 30 31  1  0
 31 32  1  6
  7  5  1  0
 31 10  1  0
 31 13  1  0
 27 15  1  0
 24 18  1  0
  1 33  1  0
  1 34  1  0
  1 35  1  0
  2 36  1  1
  3 37  1  0
  3 38  1  0
  4 39  1  0
  4 40  1  0
  5 41  1  6
  8 42  1  0
  8 43  1  0
  8 44  1  0
  9 45  1  0
  9 46  1  0
  9 47  1  0
 10 48  1  1
 11 49  1  0
 11 50  1  0
 12 51  1  0
 12 52  1  0
 14 53  1  0
 14 54  1  0
 14 55  1  0
 15 56  1  6
 16 57  1  0
 16 58  1  0
 17 59  1  0
 19 60  1  1
 20 61  1  0
 20 62  1  0
 21 63  1  0
 21 64  1  0
 22 65  1  1
 23 66  1  0
 25 67  1  0
 25 68  1  0
 25 69  1  0
 26 70  1  0
 26 71  1  0
 26 72  1  0
 28 73  1  0
 28 74  1  0
 28 75  1  0
 29 76  1  0
 29 77  1  0
 30 78  1  0
 30 79  1  0
 32 80  1  0
 32 81  1  0
 32 82  1  0
M  END
>  <meeko>  (1) 
{"is_sidechain": [false], "intermolecular_energy": 2.731, "internal_energy": -0.839}

$$$$
EPH_relaxed_0001_pdb2pqr_Repair_97_r2_0001_out
     RDKit          3D

 82 86  0  0  0  0  0  0  0  0999 V2000
    4.2170   17.5430   -0.5700 C   0  0  0  0  0  0  0  0  0  0  0  0
    2.8540   18.1120   -0.1650 C   0  0  2  0  0  0  0  0  0  0  0  0
    2.9020   18.8110    1.2090 C   0  0  0  0  0  0  0  0  0  0  0  0
    4.2580   18.6970    1.9110 C   0  0  0  0  0  0  0  0  0  0  0  0
    4.2080   19.2470    3.3040 C   0  0  2  0  0  0  0  0  0  0  0  0
    5.2390   20.1940    3.6110 O   0  0  0  0  0  0  0  0  0  0  0  0
    5.2680   18.9640    4.3530 C   0  0  0  0  0  0  0  0  0  0  0  0
    6.4520   18.1000    4.0530 C   0  0  0  0  0  0  0  0  0  0  0  0
    4.9050   19.1230    5.7970 C   0  0  0  0  0  0  0  0  0  0  0  0
    1.8110   17.0010   -0.1480 C   0  0  1  0  0  0  0  0  0  0  0  0
    0.3780   17.5220   -0.4350 C   0  0  0  0  0  0  0  0  0  0  0  0
   -0.3490   16.4120   -1.2370 C   0  0  0  0  0  0  0  0  0  0  0  0
    0.5620   15.1700   -1.0990 C   0  0  1  0  0  0  0  0  0  0  0  0
    0.2100   14.5670    0.2970 C   0  0  0  0  0  0  0  0  0  0  0  0
    0.4500   14.1010   -2.2340 C   0  0  2  0  0  0  0  0  0  0  0  0
   -0.9290   13.4330   -2.3670 C   0  0  0  0  0  0  0  0  0  0  0  0
   -1.1150   12.1890   -1.5630 C   0  0  0  0  0  0  0  0  0  0  0  0
   -0.1290   11.4730   -0.9910 C   0  0  0  0  0  0  0  0  0  0  0  0
    1.3430   11.8450   -1.2090 C   0  0  1  0  0  0  0  0  0  0  0  0
    2.1560   10.5670   -1.5470 C   0  0  0  0  0  0  0  0  0  0  0  0
    1.9800    9.4690   -0.5020 C   0  0  0  0  0  0  0  0  0  0  0  0
    0.5100    9.0860   -0.3560 C   0  0  2  0  0  0  0  0  0  0  0  0
    0.0720    8.4670   -1.5700 O   0  0  0  0  0  0  0  0  0  0  0  0
   -0.4090   10.2950   -0.0250 C   0  0  0  0  0  0  0  0  0  0  0  0
   -0.1340   10.7770    1.4210 C   0  0  0  0  0  0  0  0  0  0  0  0
   -1.8790    9.7970   -0.0440 C   0  0  0  0  0  0  0  0  0  0  0  0
    1.6150   13.0290   -2.2330 C   0  0  1  0  0  0  0  0  0  0  0  0
    1.7040   12.4670   -3.6850 C   0  0  0  0  0  0  0  0  0  0  0  0
    3.0180   13.6710   -1.9180 C   0  0  0  0  0  0  0  0  0  0  0  0
    3.0450   14.8040   -0.8740 C   0  0  0  0  0  0  0  0  0  0  0  0
    1.9750   15.8560   -1.1790 C   0  0  2  0  0  0  0  0  0  0  0  0
    2.3150   16.4960   -2.5680 C   0  0  0  0  0  0  0  0  0  0  0  0
    4.7964   17.3011    0.3332 H   0  0  0  0  0  0  0  0  0  0  0  0
    4.0708   16.6308   -1.1670 H   0  0  0  0  0  0  0  0  0  0  0  0
    4.7628   18.2884   -1.1670 H   0  0  0  0  0  0  0  0  0  0  0  0
    2.5767   18.8704   -0.9120 H   0  0  0  0  0  0  0  0  0  0  0  0
    2.6746   19.8774    1.0641 H   0  0  0  0  0  0  0  0  0  0  0  0
    2.1643   18.3078    1.8514 H   0  0  0  0  0  0  0  0  0  0  0  0
    4.5481   17.6369    1.9563 H   0  0  0  0  0  0  0  0  0  0  0  0
    4.9919   19.2819    1.3371 H   0  0  0  0  0  0  0  0  0  0  0  0
    3.1111   19.1659    3.3224 H   0  0  0  0  0  0  0  0  0  0  0  0
    6.9102   17.7657    4.9955 H   0  0  0  0  0  0  0  0  0  0  0  0
    6.1288   17.2240    3.4715 H   0  0  0  0  0  0  0  0  0  0  0  0
    7.1876   18.6751    3.4715 H   0  0  0  0  0  0  0  0  0  0  0  0
    5.7322   18.7607    6.4251 H   0  0  0  0  0  0  0  0  0  0  0  0
    4.7184   20.1852    6.0134 H   0  0  0  0  0  0  0  0  0  0  0  0
    3.9977   18.5399    6.0134 H   0  0  0  0  0  0  0  0  0  0  0  0
    1.9686   16.6159    0.8702 H   0  0  0  0  0  0  0  0  0  0  0  0
   -0.1512   17.7151    0.5098 H   0  0  0  0  0  0  0  0  0  0  0  0
    0.4064   18.4645   -1.0015 H   0  0  0  0  0  0  0  0  0  0  0  0
   -1.3435   16.2133   -0.8110 H   0  0  0  0  0  0  0  0  0  0  0  0
   -0.5117   16.6951   -2.2874 H   0  0  0  0  0  0  0  0  0  0  0  0
    0.5949   15.2264    1.0889 H   0  0  0  0  0  0  0  0  0  0  0  0
   -0.8822   14.4776    0.3930 H   0  0  0  0  0  0  0  0  0  0  0  0
    0.6692   13.5720    0.3930 H   0  0  0  0  0  0  0  0  0  0  0  0
    0.5764   14.7079   -3.1427 H   0  0  0  0  0  0  0  0  0  0  0  0
   -1.6909   14.1601   -2.0495 H   0  0  0  0  0  0  0  0  0  0  0  0
   -1.0205   13.1309   -3.4207 H   0  0  0  0  0  0  0  0  0  0  0  0
   -2.1447   11.8269   -1.4265 H   0  0  0  0  0  0  0  0  0  0  0  0
    1.6930   12.2694   -0.2564 H   0  0  0  0  0  0  0  0  0  0  0  0
    1.8208   10.1832   -2.5218 H   0  0  0  0  0  0  0  0  0  0  0  0
    3.2206   10.8433   -1.5655 H   0  0  0  0  0  0  0  0  0  0  0  0
    2.5540    8.5829   -0.8107 H   0  0  0  0  0  0  0  0  0  0  0  0
    2.3430    9.8442    0.4662 H   0  0  0  0  0  0  0  0  0  0  0  0
    0.4332    8.3923    0.4942 H   0  0  0  0  0  0  0  0  0  0  0  0
   -0.8920    8.5810   -1.6270 H   0  0  0  0  0  0  0  0  0  0  0  0
   -0.5487   10.0501    2.1349 H   0  0  0  0  0  0  0  0  0  0  0  0
    0.9511   10.8665    1.5775 H   0  0  0  0  0  0  0  0  0  0  0  0
   -0.6091   11.7567    1.5775 H   0  0  0  0  0  0  0  0  0  0  0  0
   -2.2383    9.6753    0.9885 H   0  0  0  0  0  0  0  0  0  0  0  0
   -2.5084   10.5321   -0.5670 H   0  0  0  0  0  0  0  0  0  0  0  0
   -1.9321    8.8307   -0.5670 H   0  0  0  0  0  0  0  0  0  0  0  0
    1.8760   11.3812   -3.6480 H   0  0  0  0  0  0  0  0  0  0  0  0
    0.7623   12.6712   -4.2156 H   0  0  0  0  0  0  0  0  0  0  0  0
    2.5365   12.9522   -4.2156 H   0  0  0  0  0  0  0  0  0  0  0  0
    3.6773   12.8686   -1.5554 H   0  0  0  0  0  0  0  0  0  0  0  0
    3.3379   14.1401   -2.8601 H   0  0  0  0  0  0  0  0  0  0  0  0
    2.8578   14.3790    0.1232 H   0  0  0  0  0  0  0  0  0  0  0  0
    4.0322   15.2880   -0.9072 H   0  0  0  0  0  0  0  0  0  0  0  0
    2.8259   17.4578   -2.4133 H   0  0  0  0  0  0  0  0  0  0  0  0
    2.9721   15.8184   -3.1329 H   0  0  0  0  0  0  0  0  0  0  0  0
    1.3857   16.6612   -3.1329 H   0  0  0  0  0  0  0  0  0  0  0  0
  1  2  1  0
  2  3  1  0
  3  4  1  0
  4  5  1  0
  5  6  1  0
  6  7  1  0
  7  8  1  0
  7  9  1  0
  2 10  1  0
 10 11  1  0
 11 12  1  0
 12 13  1  0
 13 14  1  1
 13 15  1  0
 15 16  1  0
 16 17  1  0
 17 18  2  0
 18 19  1  0
 19 20  1  0
 20 21  1  0
 21 22  1  0
 22 23  1  0
 22 24  1  0
 24 25  1  0
 24 26  1  0
 19 27  1  0
 27 28  1  6
 27 29  1  0
 29 30  1  0
 30 31  1  0
 31 32  1  6
  7  5  1  0
 31 10  1  0
 31 13  1  0
 27 15  1  0
 24 18  1  0
  1 33  1  0
  1 34  1  0
  1 35  1  0
  2 36  1  6
  3 37  1  0
  3 38  1  0
  4 39  1  0
  4 40  1  0
  5 41  1  1
  8 42  1  0
  8 43  1  0
  8 44  1  0
  9 45  1  0
  9 46  1  0
  9 47  1  0
 10 48  1  1
 11 49  1  0
 11 50  1  0
 12 51  1  0
 12 52  1  0
 14 53  1  0
 14 54  1  0
 14 55  1  0
 15 56  1  6
 16 57  1  0
 16 58  1  0
 17 59  1  0
 19 60  1  1
 20 61  1  0
 20 62  1  0
 21 63  1  0
 21 64  1  0
 22 65  1  1
 23 66  1  0
 25 67  1  0
 25 68  1  0
 25 69  1  0
 26 70  1  0
 26 71  1  0
 26 72  1  0
 28 73  1  0
 28 74  1  0
 28 75  1  0
 29 76  1  0
 29 77  1  0
 30 78  1  0
 30 79  1  0
 32 80  1  0
 32 81  1  0
 32 82  1  0
M  END
>  <meeko>  (2) 
{"is_sidechain": [false], "intermolecular_energy": 2.731, "internal_energy": -0.839}

$$$$
EPH_relaxed_0001_pdb2pqr_Repair_97_r2_0001_out
     RDKit          3D

 82 86  0  0  0  0  0  0  0  0999 V2000
    2.3120   18.0490   -2.7360 C   0  0  0  0  0  0  0  0  0  0  0  0
    1.0140   17.6720   -2.0160 C   0  0  2  0  0  0  0  0  0  0  0  0
    1.1560   17.7510   -0.4830 C   0  0  0  0  0  0  0  0  0  0  0  0
    0.8020   19.1220    0.0980 C   0  0  0  0  0  0  0  0  0  0  0  0
   -0.6360   19.1930    0.5140 C   0  0  2  0  0  0  0  0  0  0  0  0
   -1.5070   18.2940   -0.1850 O   0  0  0  0  0  0  0  0  0  0  0  0
   -1.7450   19.6960   -0.3910 C   0  0  0  0  0  0  0  0  0  0  0  0
   -1.4630   20.1620   -1.7850 C   0  0  0  0  0  0  0  0  0  0  0  0
   -3.0120   20.1910    0.2350 C   0  0  0  0  0  0  0  0  0  0  0  0
    0.5800   16.2700   -2.4270 C   0  0  1  0  0  0  0  0  0  0  0  0
    0.6720   16.0420   -3.9600 C   0  0  0  0  0  0  0  0  0  0  0  0
    1.0880   14.5630   -4.1670 C   0  0  0  0  0  0  0  0  0  0  0  0
    0.8990   13.9060   -2.7800 C   0  0  1  0  0  0  0  0  0  0  0  0
   -0.6280   13.5950   -2.6880 C   0  0  0  0  0  0  0  0  0  0  0  0
    1.7650   12.6360   -2.4920 C   0  0  2  0  0  0  0  0  0  0  0  0
    1.4920   11.4370   -3.4180 C   0  0  0  0  0  0  0  0  0  0  0  0
    0.4450   10.4870   -2.9390 C   0  0  0  0  0  0  0  0  0  0  0  0
   -0.0470   10.4310   -1.6870 C   0  0  0  0  0  0  0  0  0  0  0  0
    0.5240   11.3210   -0.5760 C   0  0  1  0  0  0  0  0  0  0  0  0
    0.7660   10.4680    0.6970 C   0  0  0  0  0  0  0  0  0  0  0  0
   -0.4820    9.7110    1.1400 C   0  0  0  0  0  0  0  0  0  0  0  0
   -0.9860    8.7940    0.0290 C   0  0  2  0  0  0  0  0  0  0  0  0
   -0.0240    7.7570   -0.1850 O   0  0  0  0  0  0  0  0  0  0  0  0
   -1.2560    9.5410   -1.3070 C   0  0  0  0  0  0  0  0  0  0  0  0
   -2.5000   10.4500   -1.1530 C   0  0  0  0  0  0  0  0  0  0  0  0
   -1.6230    8.4810   -2.3810 C   0  0  0  0  0  0  0  0  0  0  0  0
    1.7890   12.1990   -0.9720 C   0  0  1  0  0  0  0  0  0  0  0  0
    3.0950   11.3730   -0.7670 C   0  0  0  0  0  0  0  0  0  0  0  0
    1.8850   13.4310    0.0040 C   0  0  0  0  0  0  0  0  0  0  0  0
    1.1030   14.6970   -0.3960 C   0  0  0  0  0  0  0  0  0  0  0  0
    1.3850   15.0780   -1.8520 C   0  0  2  0  0  0  0  0  0  0  0  0
    2.9100   15.4180   -1.9700 C   0  0  0  0  0  0  0  0  0  0  0  0
    3.0910   18.2753   -1.9931 H   0  0  0  0  0  0  0  0  0  0  0  0
    2.6392   17.2088   -3.3661 H   0  0  0  0  0  0  0  0  0  0  0  0
    2.1381   18.9338   -3.3661 H   0  0  0  0  0  0  0  0  0  0  0  0
    0.2466   18.4014   -2.3144 H   0  0  0  0  0  0  0  0  0  0  0  0
    0.4891   17.0006   -0.0334 H   0  0  0  0  0  0  0  0  0  0  0  0
    2.2147   17.5661   -0.2483 H   0  0  0  0  0  0  0  0  0  0  0  0
    1.4369   19.3119    0.9760 H   0  0  0  0  0  0  0  0  0  0  0  0
    0.9712   19.8791   -0.6819 H   0  0  0  0  0  0  0  0  0  0  0  0
   -0.3494   19.4524    1.5439 H   0  0  0  0  0  0  0  0  0  0  0  0
   -0.8938   21.1026   -1.7491 H   0  0  0  0  0  0  0  0  0  0  0  0
   -0.8756   19.3980   -2.3152 H   0  0  0  0  0  0  0  0  0  0  0  0
   -2.4124   20.3280   -2.3152 H   0  0  0  0  0  0  0  0  0  0  0  0
   -2.9184   20.1544    1.3304 H   0  0  0  0  0  0  0  0  0  0  0  0
   -3.1973   21.2277   -0.0828 H   0  0  0  0  0  0  0  0  0  0  0  0
   -3.8510   19.5545   -0.0828 H   0  0  0  0  0  0  0  0  0  0  0  0
   -0.4409   16.2658   -2.0174 H   0  0  0  0  0  0  0  0  0  0  0  0
   -0.3043   16.2305   -4.4304 H   0  0  0  0  0  0  0  0  0  0  0  0
    1.4016   16.7258   -4.4183 H   0  0  0  0  0  0  0  0  0  0  0  0
    0.4439   14.0798   -4.9164 H   0  0  0  0  0  0  0  0  0  0  0  0
    2.1199   14.4680   -4.5361 H   0  0  0  0  0  0  0  0  0  0  0  0
   -0.9268   13.5342   -1.6311 H   0  0  0  0  0  0  0  0  0  0  0  0
   -1.1959   14.3959   -3.1840 H   0  0  0  0  0  0  0  0  0  0  0  0
   -0.8374   12.6358   -3.1840 H   0  0  0  0  0  0  0  0  0  0  0  0
    2.7797   12.9806   -2.7404 H   0  0  0  0  0  0  0  0  0  0  0  0
    1.1744   11.8281   -4.3958 H   0  0  0  0  0  0  0  0  0  0  0  0
    2.4294   10.8627   -3.4566 H   0  0  0  0  0  0  0  0  0  0  0  0
    0.0412    9.7721   -3.6710 H   0  0  0  0  0  0  0  0  0  0  0  0
   -0.2415   12.0846   -0.3740 H   0  0  0  0  0  0  0  0  0  0  0  0
    1.5639    9.7404    0.4874 H   0  0  0  0  0  0  0  0  0  0  0  0
    1.0466   11.1538    1.5100 H   0  0  0  0  0  0  0  0  0  0  0  0
   -0.2401    9.1047    2.0254 H   0  0  0  0  0  0  0  0  0  0  0  0
   -1.2699   10.4409    1.3776 H   0  0  0  0  0  0  0  0  0  0  0  0
   -1.9507    8.3790    0.3562 H   0  0  0  0  0  0  0  0  0  0  0  0
    0.1590    7.3420    0.6750 H   0  0  0  0  0  0  0  0  0  0  0  0
   -2.7113   10.6044   -0.0846 H   0  0  0  0  0  0  0  0  0  0  0  0
   -2.3063   11.4209   -1.6325 H   0  0  0  0  0  0  0  0  0  0  0  0
   -3.3661    9.9705   -1.6325 H   0  0  0  0  0  0  0  0  0  0  0  0
   -1.9443    7.5530   -1.8855 H   0  0  0  0  0  0  0  0  0  0  0  0
   -2.4410    8.8635   -3.0091 H   0  0  0  0  0  0  0  0  0  0  0  0
   -0.7436    8.2758   -3.0091 H   0  0  0  0  0  0  0  0  0  0  0  0
    3.2869   11.2516    0.3093 H   0  0  0  0  0  0  0  0  0  0  0  0
    2.9797   10.3832   -1.2328 H   0  0  0  0  0  0  0  0  0  0  0  0
    3.9399   11.9013   -1.2328 H   0  0  0  0  0  0  0  0  0  0  0  0
    1.5127   13.1066    0.9869 H   0  0  0  0  0  0  0  0  0  0  0  0
    2.9436   13.7294   -0.0126 H   0  0  0  0  0  0  0  0  0  0  0  0
    0.0261   14.5078   -0.2756 H   0  0  0  0  0  0  0  0  0  0  0  0
    1.4230   15.5263    0.2519 H   0  0  0  0  0  0  0  0  0  0  0  0
    3.3431   15.5146   -0.9635 H   0  0  0  0  0  0  0  0  0  0  0  0
    3.4242   14.6124   -2.5147 H   0  0  0  0  0  0  0  0  0  0  0  0
    3.0333   16.3657   -2.5147 H   0  0  0  0  0  0  0  0  0  0  0  0
  1  2  1  0
  2  3  1  0
  3  4  1  0
  4  5  1  0
  5  6  1  0
  6  7  1  0
  7  8  1  0
  7  9  1  0
  2 10  1  0
 10 11  1  0
 11 12  1  0
 12 13  1  0
 13 14  1  1
 13 15  1  0
 15 16  1  0
 16 17  1  0
 17 18  2  0
 18 19  1  0
 19 20  1  0
 20 21  1  0
 21 22  1  0
 22 23  1  0
 22 24  1  0
 24 25  1  0
 24 26  1  0
 19 27  1  0
 27 28  1  6
 27 29  1  0
 29 30  1  0
 30 31  1  0
 31 32  1  1
  7  5  1  0
 31 10  1  0
 31 13  1  0
 27 15  1  0
 24 18  1  0
  1 33  1  0
  1 34  1  0
  1 35  1  0
  2 36  1  6
  3 37  1  0
  3 38  1  0
  4 39  1  0
  4 40  1  0
  5 41  1  1
  8 42  1  0
  8 43  1  0
  8 44  1  0
  9 45  1  0
  9 46  1  0
  9 47  1  0
 10 48  1  1
 11 49  1  0
 11 50  1  0
 12 51  1  0
 12 52  1  0
 14 53  1  0
 14 54  1  0
 14 55  1  0
 15 56  1  6
 16 57  1  0
 16 58  1  0
 17 59  1  0
 19 60  1  1
 20 61  1  0
 20 62  1  0
 21 63  1  0
 21 64  1  0
 22 65  1  1
 23 66  1  0
 25 67  1  0
 25 68  1  0
 25 69  1  0
 26 70  1  0
 26 71  1  0
 26 72  1  0
 28 73  1  0
 28 74  1  0
 28 75  1  0
 29 76  1  0
 29 77  1  0
 30 78  1  0
 30 79  1  0
 32 80  1  0
 32 81  1  0
 32 82  1  0
M  END
>  <meeko>  (3) 
{"is_sidechain": [false], "intermolecular_energy": 2.731, "internal_energy": -0.839}

$$$$
EPH_relaxed_0001_pdb2pqr_Repair_97_r2_0001_out
     RDKit          3D

 82 86  0  0  0  0  0  0  0  0999 V2000
    2.2110   17.9990   -2.5290 C   0  0  0  0  0  0  0  0  0  0  0  0
    0.6900   17.8520   -2.6240 C   0  0  2  0  0  0  0  0  0  0  0  0
   -0.0210   18.3290   -1.3420 C   0  0  0  0  0  0  0  0  0  0  0  0
    0.6980   17.9260   -0.0530 C   0  0  0  0  0  0  0  0  0  0  0  0
    1.2600   19.1160    0.6650 C   0  0  2  0  0  0  0  0  0  0  0  0
    2.1510   19.9210   -0.1180 O   0  0  0  0  0  0  0  0  0  0  0  0
    2.7270   19.2620    1.0210 C   0  0  0  0  0  0  0  0  0  0  0  0
    3.7250   18.2030    0.6700 C   0  0  0  0  0  0  0  0  0  0  0  0
    3.1050   20.1940    2.1290 C   0  0  0  0  0  0  0  0  0  0  0  0
    0.3260   16.4000   -2.9130 C   0  0  1  0  0  0  0  0  0  0  0  0
    0.4060   16.0530   -4.4230 C   0  0  0  0  0  0  0  0  0  0  0  0
    0.8980   14.5860   -4.5190 C   0  0  0  0  0  0  0  0  0  0  0  0
    0.7660   14.0350   -3.0800 C   0  0  1  0  0  0  0  0  0  0  0  0
   -0.7400   13.6530   -2.9330 C   0  0  0  0  0  0  0  0  0  0  0  0
    1.7030   12.8400   -2.7080 C   0  0  2  0  0  0  0  0  0  0  0  0
    1.4820   11.5580   -3.5280 C   0  0  0  0  0  0  0  0  0  0  0  0
    0.4950   10.5960   -2.9540 C   0  0  0  0  0  0  0  0  0  0  0  0
    0.0260   10.6170   -1.6920 C   0  0  0  0  0  0  0  0  0  0  0  0
    0.5660   11.6230   -0.6680 C   0  0  1  0  0  0  0  0  0  0  0  0
    0.8730   10.8900    0.6650 C   0  0  0  0  0  0  0  0  0  0  0  0
   -0.3250   10.1070    1.1920 C   0  0  0  0  0  0  0  0  0  0  0  0
   -0.7970    9.0770    0.1680 C   0  0  2  0  0  0  0  0  0  0  0  0
    0.2170    8.0780    0.0190 O   0  0  0  0  0  0  0  0  0  0  0  0
   -1.1270    9.6980   -1.2180 C   0  0  0  0  0  0  0  0  0  0  0  0
   -2.4160   10.5500   -1.1130 C   0  0  0  0  0  0  0  0  0  0  0  0
   -1.4530    8.5360   -2.1960 C   0  0  0  0  0  0  0  0  0  0  0  0
    1.7750   12.5300   -1.1580 C   0  0  1  0  0  0  0  0  0  0  0  0
    3.1270   11.7930   -0.9130 C   0  0  0  0  0  0  0  0  0  0  0  0
    1.8200   13.8410   -0.2870 C   0  0  0  0  0  0  0  0  0  0  0  0
    0.9640   15.0270   -0.7720 C   0  0  0  0  0  0  0  0  0  0  0  0
    1.2030   15.3030   -2.2590 C   0  0  2  0  0  0  0  0  0  0  0  0
    2.7060   15.7120   -2.4350 C   0  0  0  0  0  0  0  0  0  0  0  0
    2.5112   18.0280   -1.4712 H   0  0  0  0  0  0  0  0  0  0  0  0
    2.6937   17.1433   -3.0238 H   0  0  0  0  0  0  0  0  0  0  0  0
    2.5209   18.9313   -3.0238 H   0  0  0  0  0  0  0  0  0  0  0  0
    0.3461   18.4930   -3.4491 H   0  0  0  0  0  0  0  0  0  0  0  0
   -0.0913   19.4263   -1.3718 H   0  0  0  0  0  0  0  0  0  0  0  0
   -1.0087   17.8452   -1.3236 H   0  0  0  0  0  0  0  0  0  0  0  0
   -0.0169   17.4154    0.6090 H   0  0  0  0  0  0  0  0  0  0  0  0
    1.5329   17.2614   -0.3200 H   0  0  0  0  0  0  0  0  0  0  0  0
    0.3422   19.2188    1.2626 H   0  0  0  0  0  0  0  0  0  0  0  0
    4.1362   17.7666    1.5922 H   0  0  0  0  0  0  0  0  0  0  0  0
    3.2324   17.4161    0.0799 H   0  0  0  0  0  0  0  0  0  0  0  0
    4.5397   18.6481    0.0799 H   0  0  0  0  0  0  0  0  0  0  0  0
    2.9090   19.7108    3.0975 H   0  0  0  0  0  0  0  0  0  0  0  0
    4.1742   20.4406    2.0520 H   0  0  0  0  0  0  0  0  0  0  0  0
    2.5096   21.1157    2.0520 H   0  0  0  0  0  0  0  0  0  0  0  0
   -0.6871   16.3756   -2.4852 H   0  0  0  0  0  0  0  0  0  0  0  0
   -0.5864   16.1509   -4.8873 H   0  0  0  0  0  0  0  0  0  0  0  0
    1.0905   16.7345   -4.9493 H   0  0  0  0  0  0  0  0  0  0  0  0
    0.2694   14.0104   -5.2144 H   0  0  0  0  0  0  0  0  0  0  0  0
    1.9276   14.5155   -4.8997 H   0  0  0  0  0  0  0  0  0  0  0  0
   -0.9991   13.5873   -1.8660 H   0  0  0  0  0  0  0  0  0  0  0  0
   -1.3620   14.4218   -3.4147 H   0  0  0  0  0  0  0  0  0  0  0  0
   -0.9204   12.6807   -3.4147 H   0  0  0  0  0  0  0  0  0  0  0  0
    2.6933   13.2166   -3.0039 H   0  0  0  0  0  0  0  0  0  0  0  0
    1.1293   11.8507   -4.5280 H   0  0  0  0  0  0  0  0  0  0  0  0
    2.4484   11.0328   -3.5380 H   0  0  0  0  0  0  0  0  0  0  0  0
    0.1194    9.8034   -3.6179 H   0  0  0  0  0  0  0  0  0  0  0  0
   -0.2359   12.3598   -0.5132 H   0  0  0  0  0  0  0  0  0  0  0  0
    1.7058   10.1907    0.4991 H   0  0  0  0  0  0  0  0  0  0  0  0
    1.1283   11.6536    1.4145 H   0  0  0  0  0  0  0  0  0  0  0  0
   -0.0367    9.5880    2.1181 H   0  0  0  0  0  0  0  0  0  0  0  0
   -1.1472   10.8116    1.3859 H   0  0  0  0  0  0  0  0  0  0  0  0
   -1.7329    8.6400    0.5462 H   0  0  0  0  0  0  0  0  0  0  0  0
    0.5570    8.1370   -0.8900 H   0  0  0  0  0  0  0  0  0  0  0  0
   -2.6625   10.7129   -0.0534 H   0  0  0  0  0  0  0  0  0  0  0  0
   -2.2553   11.5204   -1.6055 H   0  0  0  0  0  0  0  0  0  0  0  0
   -3.2458   10.0218   -1.6055 H   0  0  0  0  0  0  0  0  0  0  0  0
   -1.7063    7.6330   -1.6211 H   0  0  0  0  0  0  0  0  0  0  0  0
   -2.3065    8.8187   -2.8297 H   0  0  0  0  0  0  0  0  0  0  0  0
   -0.5770    8.3334   -2.8297 H   0  0  0  0  0  0  0  0  0  0  0  0
    3.3019   11.6977    0.1688 H   0  0  0  0  0  0  0  0  0  0  0  0
    3.0866   10.7921   -1.3675 H   0  0  0  0  0  0  0  0  0  0  0  0
    3.9464   12.3693   -1.3675 H   0  0  0  0  0  0  0  0  0  0  0  0
    1.4819   13.5790    0.7264 H   0  0  0  0  0  0  0  0  0  0  0  0
    2.8605   14.1925   -0.3493 H   0  0  0  0  0  0  0  0  0  0  0  0
   -0.0990   14.7912   -0.6160 H   0  0  0  0  0  0  0  0  0  0  0  0
    1.2477   15.9220   -0.1989 H   0  0  0  0  0  0  0  0  0  0  0  0
    3.1699   15.8382   -1.4456 H   0  0  0  0  0  0  0  0  0  0  0  0
    3.2372   14.9258   -2.9914 H   0  0  0  0  0  0  0  0  0  0  0  0
    2.7656   16.6590   -2.9914 H   0  0  0  0  0  0  0  0  0  0  0  0
  1  2  1  0
  2  3  1  0
  3  4  1  0
  4  5  1  0
  5  6  1  0
  6  7  1  0
  7  8  1  0
  7  9  1  0
  2 10  1  0
 10 11  1  0
 11 12  1  0
 12 13  1  0
 13 14  1  1
 13 15  1  0
 15 16  1  0
 16 17  1  0
 17 18  2  0
 18 19  1  0
 19 20  1  0
 20 21  1  0
 21 22  1  0
 22 23  1  0
 22 24  1  0
 24 25  1  0
 24 26  1  0
 19 27  1  0
 27 28  1  6
 27 29  1  0
 29 30  1  0
 30 31  1  0
 31 32  1  1
  7  5  1  0
 31 10  1  0
 31 13  1  0
 27 15  1  0
 24 18  1  0
  1 33  1  0
  1 34  1  0
  1 35  1  0
  2 36  1  6
  3 37  1  0
  3 38  1  0
  4 39  1  0
  4 40  1  0
  5 41  1  1
  8 42  1  0
  8 43  1  0
  8 44  1  0
  9 45  1  0
  9 46  1  0
  9 47  1  0
 10 48  1  1
 11 49  1  0
 11 50  1  0
 12 51  1  0
 12 52  1  0
 14 53  1  0
 14 54  1  0
 14 55  1  0
 15 56  1  6
 16 57  1  0
 16 58  1  0
 17 59  1  0
 19 60  1  1
 20 61  1  0
 20 62  1  0
 21 63  1  0
 21 64  1  0
 22 65  1  1
 23 66  1  0
 25 67  1  0
 25 68  1  0
 25 69  1  0
 26 70  1  0
 26 71  1  0
 26 72  1  0
 28 73  1  0
 28 74  1  0
 28 75  1  0
 29 76  1  0
 29 77  1  0
 30 78  1  0
 30 79  1  0
 32 80  1  0
 32 81  1  0
 32 82  1  0
M  END
>  <meeko>  (4) 
{"is_sidechain": [false], "intermolecular_energy": 2.731, "internal_energy": -0.839}

$$$$
EPH_relaxed_0001_pdb2pqr_Repair_97_r2_0001_out
     RDKit          3D

 82 86  0  0  0  0  0  0  0  0999 V2000
    3.7540   17.9400    0.6800 C   0  0  0  0  0  0  0  0  0  0  0  0
    2.6940   18.3730   -0.3370 C   0  0  2  0  0  0  0  0  0  0  0  0
    1.9650   19.6610    0.0960 C   0  0  0  0  0  0  0  0  0  0  0  0
    0.7510   19.4090    0.9940 C   0  0  0  0  0  0  0  0  0  0  0  0
   -0.4860   20.0530    0.4460 C   0  0  2  0  0  0  0  0  0  0  0  0
   -1.5560   20.1940    1.3900 O   0  0  0  0  0  0  0  0  0  0  0  0
   -1.8050   19.3220    0.2760 C   0  0  0  0  0  0  0  0  0  0  0  0
   -1.9520   17.8810    0.6520 C   0  0  0  0  0  0  0  0  0  0  0  0
   -2.8020   19.8620   -0.7020 C   0  0  0  0  0  0  0  0  0  0  0  0
    1.6860   17.2500   -0.5470 C   0  0  1  0  0  0  0  0  0  0  0  0
    0.4660   17.6940   -1.3980 C   0  0  0  0  0  0  0  0  0  0  0  0
    0.0460   16.4690   -2.2510 C   0  0  0  0  0  0  0  0  0  0  0  0
    0.8140   15.2790   -1.6290 C   0  0  1  0  0  0  0  0  0  0  0  0
   -0.0320   14.8610   -0.3860 C   0  0  0  0  0  0  0  0  0  0  0  0
    1.0890   14.0650   -2.5750 C   0  0  2  0  0  0  0  0  0  0  0  0
   -0.1680   13.3520   -3.1040 C   0  0  0  0  0  0  0  0  0  0  0  0
   -0.6630   12.2230   -2.2610 C   0  0  0  0  0  0  0  0  0  0  0  0
    0.0320   11.6150   -1.2820 C   0  0  0  0  0  0  0  0  0  0  0  0
    1.4930   11.9890   -1.0040 C   0  0  1  0  0  0  0  0  0  0  0  0
    2.3390   10.6970   -0.8520 C   0  0  0  0  0  0  0  0  0  0  0  0
    1.7700    9.7450    0.1960 C   0  0  0  0  0  0  0  0  0  0  0  0
    0.3360    9.3510   -0.1460 C   0  0  2  0  0  0  0  0  0  0  0  0
    0.3470    8.5640   -1.3410 O   0  0  0  0  0  0  0  0  0  0  0  0
   -0.6080   10.5720   -0.3330 C   0  0  0  0  0  0  0  0  0  0  0  0
   -0.8580   11.2500    1.0370 C   0  0  0  0  0  0  0  0  0  0  0  0
   -1.9860   10.0410   -0.8120 C   0  0  0  0  0  0  0  0  0  0  0  0
    2.1460   13.0310   -2.0110 C   0  0  1  0  0  0  0  0  0  0  0  0
    2.7360   12.2810   -3.2440 C   0  0  0  0  0  0  0  0  0  0  0  0
    3.3580   13.7410   -1.3010 C   0  0  0  0  0  0  0  0  0  0  0  0
    3.0390   15.0050   -0.4800 C   0  0  0  0  0  0  0  0  0  0  0  0
    2.1780   15.9810   -1.2870 C   0  0  2  0  0  0  0  0  0  0  0  0
    3.0120   16.4360   -2.5330 C   0  0  0  0  0  0  0  0  0  0  0  0
    3.3702   18.0968    1.6989 H   0  0  0  0  0  0  0  0  0  0  0  0
    3.9869   16.8747    0.5358 H   0  0  0  0  0  0  0  0  0  0  0  0
    4.6662   18.5376    0.5358 H   0  0  0  0  0  0  0  0  0  0  0  0
    3.2123   18.5893   -1.2828 H   0  0  0  0  0  0  0  0  0  0  0  0
    2.6769   20.2953    0.6445 H   0  0  0  0  0  0  0  0  0  0  0  0
    1.5927   20.1430   -0.8200 H   0  0  0  0  0  0  0  0  0  0  0  0
    0.5839   18.3245    1.0718 H   0  0  0  0  0  0  0  0  0  0  0  0
    0.9576   19.8475    1.9815 H   0  0  0  0  0  0  0  0  0  0  0  0
    0.1111   20.6678   -0.2436 H   0  0  0  0  0  0  0  0  0  0  0  0
   -1.9616   17.7872    1.7479 H   0  0  0  0  0  0  0  0  0  0  0  0
   -2.8947   17.4895    0.2422 H   0  0  0  0  0  0  0  0  0  0  0  0
   -1.1077   17.3072    0.2422 H   0  0  0  0  0  0  0  0  0  0  0  0
   -3.6418   20.3168   -0.1562 H   0  0  0  0  0  0  0  0  0  0  0  0
   -2.3206   20.6227   -1.3341 H   0  0  0  0  0  0  0  0  0  0  0  0
   -3.1761   19.0432   -1.3341 H   0  0  0  0  0  0  0  0  0  0  0  0
    1.4578   17.0091    0.5018 H   0  0  0  0  0  0  0  0  0  0  0  0
   -0.3620   18.0006   -0.7420 H   0  0  0  0  0  0  0  0  0  0  0  0
    0.7217   18.5517   -2.0376 H   0  0  0  0  0  0  0  0  0  0  0  0
   -1.0400   16.3059   -2.1880 H   0  0  0  0  0  0  0  0  0  0  0  0
    0.2784   16.6039   -3.3177 H   0  0  0  0  0  0  0  0  0  0  0  0
    0.5098   15.1287    0.5331 H   0  0  0  0  0  0  0  0  0  0  0  0
   -0.9989   15.3851   -0.4075 H   0  0  0  0  0  0  0  0  0  0  0  0
   -0.2032   13.7746   -0.4075 H   0  0  0  0  0  0  0  0  0  0  0  0
    1.5492   14.5470   -3.4502 H   0  0  0  0  0  0  0  0  0  0  0  0
   -0.9738   14.0967   -3.1820 H   0  0  0  0  0  0  0  0  0  0  0  0
    0.1170   12.9088   -4.0696 H   0  0  0  0  0  0  0  0  0  0  0  0
   -1.6818   11.8575   -2.4568 H   0  0  0  0  0  0  0  0  0  0  0  0
    1.4886   12.5459   -0.0554 H   0  0  0  0  0  0  0  0  0  0  0  0
    2.3674   10.1780   -1.8215 H   0  0  0  0  0  0  0  0  0  0  0  0
    3.3455   10.9938   -0.5221 H   0  0  0  0  0  0  0  0  0  0  0  0
    2.3926    8.8390    0.2351 H   0  0  0  0  0  0  0  0  0  0  0  0
    1.7709   10.2549    1.1707 H   0  0  0  0  0  0  0  0  0  0  0  0
   -0.0598    8.7768    0.7047 H   0  0  0  0  0  0  0  0  0  0  0  0
    0.7300    9.1100   -2.0490 H   0  0  0  0  0  0  0  0  0  0  0  0
   -0.5998   10.5498    1.8452 H   0  0  0  0  0  0  0  0  0  0  0  0
   -0.2332   12.1516    1.1194 H   0  0  0  0  0  0  0  0  0  0  0  0
   -1.9185   11.5301    1.1194 H   0  0  0  0  0  0  0  0  0  0  0  0
   -2.6100    9.8005    0.0614 H   0  0  0  0  0  0  0  0  0  0  0  0
   -2.4851   10.8112   -1.4184 H   0  0  0  0  0  0  0  0  0  0  0  0
   -1.8392    9.1350   -1.4184 H   0  0  0  0  0  0  0  0  0  0  0  0
    3.3818   11.4600   -2.8992 H   0  0  0  0  0  0  0  0  0  0  0  0
    1.9153   11.8716   -3.8513 H   0  0  0  0  0  0  0  0  0  0  0  0
    3.3271   12.9822   -3.8513 H   0  0  0  0  0  0  0  0  0  0  0  0
    3.8197   13.0102   -0.6208 H   0  0  0  0  0  0  0  0  0  0  0  0
    4.0086   14.0854   -2.1183 H   0  0  0  0  0  0  0  0  0  0  0  0
    2.4954   14.7144    0.4311 H   0  0  0  0  0  0  0  0  0  0  0  0
    3.9851   15.5032   -0.2220 H   0  0  0  0  0  0  0  0  0  0  0  0
    3.9311   16.9375   -2.1958 H   0  0  0  0  0  0  0  0  0  0  0  0
    3.2753   15.5565   -3.1390 H   0  0  0  0  0  0  0  0  0  0  0  0
    2.4150   17.1334   -3.1390 H   0  0  0  0  0  0  0  0  0  0  0  0
  1  2  1  0
  2  3  1  0
  3  4  1  0
  4  5  1  0
  5  6  1  0
  6  7  1  0
  7  8  1  0
  7  9  1  0
  2 10  1  0
 10 11  1  0
 11 12  1  0
 12 13  1  0
 13 14  1  1
 13 15  1  0
 15 16  1  0
 16 17  1  0
 17 18  2  0
 18 19  1  0
 19 20  1  0
 20 21  1  0
 21 22  1  0
 22 23  1  0
 22 24  1  0
 24 25  1  0
 24 26  1  0
 19 27  1  0
 27 28  1  6
 27 29  1  0
 29 30  1  0
 30 31  1  0
 31 32  1  6
  7  5  1  0
 31 10  1  0
 31 13  1  0
 27 15  1  0
 24 18  1  0
  1 33  1  0
  1 34  1  0
  1 35  1  0
  2 36  1  6
  3 37  1  0
  3 38  1  0
  4 39  1  0
  4 40  1  0
  5 41  1  6
  8 42  1  0
  8 43  1  0
  8 44  1  0
  9 45  1  0
  9 46  1  0
  9 47  1  0
 10 48  1  1
 11 49  1  0
 11 50  1  0
 12 51  1  0
 12 52  1  0
 14 53  1  0
 14 54  1  0
 14 55  1  0
 15 56  1  6
 16 57  1  0
 16 58  1  0
 17 59  1  0
 19 60  1  1
 20 61  1  0
 20 62  1  0
 21 63  1  0
 21 64  1  0
 22 65  1  1
 23 66  1  0
 25 67  1  0
 25 68  1  0
 25 69  1  0
 26 70  1  0
 26 71  1  0
 26 72  1  0
 28 73  1  0
 28 74  1  0
 28 75  1  0
 29 76  1  0
 29 77  1  0
 30 78  1  0
 30 79  1  0
 32 80  1  0
 32 81  1  0
 32 82  1  0
M  END
>  <meeko>  (5) 
{"is_sidechain": [false], "intermolecular_energy": 2.731, "internal_energy": -0.839}

$$$$
EPH_relaxed_0001_pdb2pqr_Repair_97_r2_0001_out
     RDKit          3D

 82 86  0  0  0  0  0  0  0  0999 V2000
   -0.9570   19.7100   -2.1620 C   0  0  0  0  0  0  0  0  0  0  0  0
   -0.0400   19.1420   -1.0750 C   0  0  2  0  0  0  0  0  0  0  0  0
    0.9650   20.1910   -0.5580 C   0  0  0  0  0  0  0  0  0  0  0  0
    1.4270   19.9440    0.8810 C   0  0  0  0  0  0  0  0  0  0  0  0
    2.9140   19.7750    0.9650 C   0  0  2  0  0  0  0  0  0  0  0  0
    3.3450   18.6090    1.6780 O   0  0  0  0  0  0  0  0  0  0  0  0
    3.6940   19.8740    2.2620 C   0  0  0  0  0  0  0  0  0  0  0  0
    3.0120   20.1520    3.5650 C   0  0  0  0  0  0  0  0  0  0  0  0
    5.1570   20.1850    2.1950 C   0  0  0  0  0  0  0  0  0  0  0  0
    0.7050   17.9240   -1.6080 C   0  0  1  0  0  0  0  0  0  0  0  0
    2.2200   18.1930   -1.8140 C   0  0  0  0  0  0  0  0  0  0  0  0
    2.9590   16.8730   -1.4760 C   0  0  0  0  0  0  0  0  0  0  0  0
    1.8410   15.8060   -1.4100 C   0  0  1  0  0  0  0  0  0  0  0  0
    1.5680   15.4190   -2.8970 C   0  0  0  0  0  0  0  0  0  0  0  0
    2.1380   14.5480   -0.5310 C   0  0  2  0  0  0  0  0  0  0  0  0
    3.3270   13.6910   -0.9990 C   0  0  0  0  0  0  0  0  0  0  0  0
    2.9860   12.5960   -1.9550 C   0  0  0  0  0  0  0  0  0  0  0  0
    1.7480   12.1280   -2.2000 C   0  0  0  0  0  0  0  0  0  0  0  0
    0.5400   12.6460   -1.4100 C   0  0  1  0  0  0  0  0  0  0  0  0
   -0.3290   11.4470   -0.9470 C   0  0  0  0  0  0  0  0  0  0  0  0
   -0.7340   10.5380   -2.1030 C   0  0  0  0  0  0  0  0  0  0  0  0
    0.4950    9.9970   -2.8280 C   0  0  2  0  0  0  0  0  0  0  0  0
    1.2030    9.1210   -1.9450 O   0  0  0  0  0  0  0  0  0  0  0  0
    1.4510   11.1140   -3.3320 C   0  0  0  0  0  0  0  0  0  0  0  0
    0.7870   11.8760   -4.5060 C   0  0  0  0  0  0  0  0  0  0  0  0
    2.7160   10.4320   -3.9180 C   0  0  0  0  0  0  0  0  0  0  0  0
    0.8670   13.6560   -0.2260 C   0  0  1  0  0  0  0  0  0  0  0  0
    1.1820   12.8620    1.0780 C   0  0  0  0  0  0  0  0  0  0  0  0
   -0.4130   14.5210    0.0790 C   0  0  0  0  0  0  0  0  0  0  0  0
   -0.5880   15.8150   -0.7390 C   0  0  0  0  0  0  0  0  0  0  0  0
    0.6980   16.6470   -0.7320 C   0  0  2  0  0  0  0  0  0  0  0  0
    0.9860   17.0700    0.7490 C   0  0  0  0  0  0  0  0  0  0  0  0
   -1.8024   20.2336   -1.6918 H   0  0  0  0  0  0  0  0  0  0  0  0
   -0.3907   20.4157   -2.7875 H   0  0  0  0  0  0  0  0  0  0  0  0
   -1.3366   18.8886   -2.7875 H   0  0  0  0  0  0  0  0  0  0  0  0
   -0.6747   18.8468   -0.2265 H   0  0  0  0  0  0  0  0  0  0  0  0
    1.8483   20.1782   -1.2134 H   0  0  0  0  0  0  0  0  0  0  0  0
    0.4492   21.1625   -0.5678 H   0  0  0  0  0  0  0  0  0  0  0  0
    1.1301   20.8014    1.5028 H   0  0  0  0  0  0  0  0  0  0  0  0
    0.9559   19.0162    1.2377 H   0  0  0  0  0  0  0  0  0  0  0  0
    3.0478   20.2556   -0.0154 H   0  0  0  0  0  0  0  0  0  0  0  0
    3.6810   19.8793    4.3945 H   0  0  0  0  0  0  0  0  0  0  0  0
    2.7659   21.2222    3.6291 H   0  0  0  0  0  0  0  0  0  0  0  0
    2.0879   19.5588    3.6291 H   0  0  0  0  0  0  0  0  0  0  0  0
    5.5607   20.2708    3.2146 H   0  0  0  0  0  0  0  0  0  0  0  0
    5.6793   19.3778    1.6606 H   0  0  0  0  0  0  0  0  0  0  0  0
    5.3058   21.1349    1.6606 H   0  0  0  0  0  0  0  0  0  0  0  0
    0.1351   17.7494   -2.5325 H   0  0  0  0  0  0  0  0  0  0  0  0
    2.4152   18.4797   -2.8579 H   0  0  0  0  0  0  0  0  0  0  0  0
    2.5661   19.0152   -1.1704 H   0  0  0  0  0  0  0  0  0  0  0  0
    3.6878   16.6238   -2.2614 H   0  0  0  0  0  0  0  0  0  0  0  0
    3.5265   16.9414   -0.5362 H   0  0  0  0  0  0  0  0  0  0  0  0
    0.9342   14.5206   -2.9316 H   0  0  0  0  0  0  0  0  0  0  0  0
    1.0548   16.2495   -3.4037 H   0  0  0  0  0  0  0  0  0  0  0  0
    2.5226   15.2141   -3.4037 H   0  0  0  0  0  0  0  0  0  0  0  0
    2.4504   14.9957    0.4240 H   0  0  0  0  0  0  0  0  0  0  0  0
    4.0535   14.3560   -1.4888 H   0  0  0  0  0  0  0  0  0  0  0  0
    3.7199   13.1973   -0.0980 H   0  0  0  0  0  0  0  0  0  0  0  0
    3.8174   12.1322   -2.5061 H   0  0  0  0  0  0  0  0  0  0  0  0
   -0.0328   13.2746   -2.1078 H   0  0  0  0  0  0  0  0  0  0  0  0
    0.2450   10.8561   -0.2180 H   0  0  0  0  0  0  0  0  0  0  0  0
   -1.2498   11.8534   -0.5031 H   0  0  0  0  0  0  0  0  0  0  0  0
   -1.3201    9.6945   -1.7093 H   0  0  0  0  0  0  0  0  0  0  0  0
   -1.3331   11.1230   -2.8163 H   0  0  0  0  0  0  0  0  0  0  0  0
    0.1410    9.4608   -3.7208 H   0  0  0  0  0  0  0  0  0  0  0  0
    2.0760    9.5150   -1.7760 H   0  0  0  0  0  0  0  0  0  0  0  0
    0.1135   12.6489   -4.1072 H   0  0  0  0  0  0  0  0  0  0  0  0
    1.5651   12.3501   -5.1222 H   0  0  0  0  0  0  0  0  0  0  0  0
    0.2109   11.1700   -5.1222 H   0  0  0  0  0  0  0  0  0  0  0  0
    3.3595   10.0851   -3.0961 H   0  0  0  0  0  0  0  0  0  0  0  0
    2.4163    9.5732   -4.5366 H   0  0  0  0  0  0  0  0  0  0  0  0
    3.2687   11.1544   -4.5366 H   0  0  0  0  0  0  0  0  0  0  0  0
    0.9362   13.4816    1.9530 H   0  0  0  0  0  0  0  0  0  0  0  0
    0.5812   11.9408    1.1006 H   0  0  0  0  0  0  0  0  0  0  0  0
    2.2509   12.6033    1.1006 H   0  0  0  0  0  0  0  0  0  0  0  0
   -1.2938   13.8886   -0.1060 H   0  0  0  0  0  0  0  0  0  0  0  0
   -0.2946   14.8529    1.1210 H   0  0  0  0  0  0  0  0  0  0  0  0
   -0.8413   15.5530   -1.7769 H   0  0  0  0  0  0  0  0  0  0  0  0
   -1.3933   16.4107   -0.2844 H   0  0  0  0  0  0  0  0  0  0  0  0
    0.5017   16.3587    1.4343 H   0  0  0  0  0  0  0  0  0  0  0  0
    2.0716   17.0686    0.9262 H   0  0  0  0  0  0  0  0  0  0  0  0
    0.5868   18.0796    0.9262 H   0  0  0  0  0  0  0  0  0  0  0  0
  1  2  1  0
  2  3  1  0
  3  4  1  0
  4  5  1  0
  5  6  1  0
  6  7  1  0
  7  8  1  0
  7  9  1  0
  2 10  1  0
 10 11  1  0
 11 12  1  0
 12 13  1  0
 13 14  1  6
 13 15  1  0
 15 16  1  0
 16 17  1  0
 17 18  2  0
 18 19  1  0
 19 20  1  0
 20 21  1  0
 21 22  1  0
 22 23  1  0
 22 24  1  0
 24 25  1  0
 24 26  1  0
 19 27  1  0
 27 28  1  1
 27 29  1  0
 29 30  1  0
 30 31  1  0
 31 32  1  1
  7  5  1  0
 31 10  1  0
 31 13  1  0
 27 15  1  0
 24 18  1  0
  1 33  1  0
  1 34  1  0
  1 35  1  0
  2 36  1  1
  3 37  1  0
  3 38  1  0
  4 39  1  0
  4 40  1  0
  5 41  1  6
  8 42  1  0
  8 43  1  0
  8 44  1  0
  9 45  1  0
  9 46  1  0
  9 47  1  0
 10 48  1  6
 11 49  1  0
 11 50  1  0
 12 51  1  0
 12 52  1  0
 14 53  1  0
 14 54  1  0
 14 55  1  0
 15 56  1  1
 16 57  1  0
 16 58  1  0
 17 59  1  0
 19 60  1  6
 20 61  1  0
 20 62  1  0
 21 63  1  0
 21 64  1  0
 22 65  1  6
 23 66  1  0
 25 67  1  0
 25 68  1  0
 25 69  1  0
 26 70  1  0
 26 71  1  0
 26 72  1  0
 28 73  1  0
 28 74  1  0
 28 75  1  0
 29 76  1  0
 29 77  1  0
 30 78  1  0
 30 79  1  0
 32 80  1  0
 32 81  1  0
 32 82  1  0
M  END
>  <meeko>  (6) 
{"is_sidechain": [false], "intermolecular_energy": 2.731, "internal_energy": -0.839}

$$$$
EPH_relaxed_0001_pdb2pqr_Repair_97_r2_0001_out
     RDKit          3D

 82 86  0  0  0  0  0  0  0  0999 V2000
    0.4590    8.7940   -2.3630 C   0  0  0  0  0  0  0  0  0  0  0  0
    1.1930    9.9380   -3.0670 C   0  0  2  0  0  0  0  0  0  0  0  0
    2.6950    9.9640   -2.7190 C   0  0  0  0  0  0  0  0  0  0  0  0
    3.5670   10.6050   -3.8030 C   0  0  0  0  0  0  0  0  0  0  0  0
    4.9660   10.8430   -3.3210 C   0  0  2  0  0  0  0  0  0  0  0  0
    5.5700   12.0490   -3.8070 O   0  0  0  0  0  0  0  0  0  0  0  0
    6.1790   10.8190   -4.2310 C   0  0  0  0  0  0  0  0  0  0  0  0
    6.0500   10.5500   -5.6980 C   0  0  0  0  0  0  0  0  0  0  0  0
    7.5250   10.5720   -3.6230 C   0  0  0  0  0  0  0  0  0  0  0  0
    0.5510   11.2710   -2.7020 C   0  0  1  0  0  0  0  0  0  0  0  0
   -0.8240   11.1000   -2.0020 C   0  0  0  0  0  0  0  0  0  0  0  0
   -0.9410   12.2420   -0.9600 C   0  0  0  0  0  0  0  0  0  0  0  0
    0.2040   13.2170   -1.3200 C   0  0  1  0  0  0  0  0  0  0  0  0
   -0.3510   14.0690   -2.5030 C   0  0  0  0  0  0  0  0  0  0  0  0
    0.7340   14.1180   -0.1580 C   0  0  2  0  0  0  0  0  0  0  0  0
   -0.2980   15.0930    0.4350 C   0  0  0  0  0  0  0  0  0  0  0  0
   -0.3480   16.4390   -0.2100 C   0  0  0  0  0  0  0  0  0  0  0  0
    0.5900   16.9490   -1.0300 C   0  0  0  0  0  0  0  0  0  0  0  0
    1.8940   16.1870   -1.3050 C   0  0  1  0  0  0  0  0  0  0  0  0
    3.0970   17.1590   -1.1810 C   0  0  0  0  0  0  0  0  0  0  0  0
    2.9450   18.3940   -2.0630 C   0  0  0  0  0  0  0  0  0  0  0  0
    1.6670   19.1560   -1.7200 C   0  0  2  0  0  0  0  0  0  0  0  0
    1.7950   19.6990   -0.4020 O   0  0  0  0  0  0  0  0  0  0  0  0
    0.3890   18.2760   -1.8020 C   0  0  0  0  0  0  0  0  0  0  0  0
    0.0840   17.9360   -3.2820 C   0  0  0  0  0  0  0  0  0  0  0  0
   -0.8080   19.1260   -1.2960 C   0  0  0  0  0  0  0  0  0  0  0  0
    2.1020   14.8480   -0.4760 C   0  0  1  0  0  0  0  0  0  0  0  0
    2.7650   15.1710    0.8990 C   0  0  0  0  0  0  0  0  0  0  0  0
    3.1110   13.9170   -1.2470 C   0  0  0  0  0  0  0  0  0  0  0  0
    2.5120   12.9640   -2.2990 C   0  0  0  0  0  0  0  0  0  0  0  0
    1.3240   12.1890   -1.7220 C   0  0  2  0  0  0  0  0  0  0  0  0
    1.8560   11.3050   -0.5430 C   0  0  0  0  0  0  0  0  0  0  0  0
    0.5408    8.9214   -1.2735 H   0  0  0  0  0  0  0  0  0  0  0  0
   -0.6015    8.8043   -2.6548 H   0  0  0  0  0  0  0  0  0  0  0  0
    0.9103    7.8342   -2.6548 H   0  0  0  0  0  0  0  0  0  0  0  0
    1.1072    9.7691   -4.1506 H   0  0  0  0  0  0  0  0  0  0  0  0
    2.8257   10.5329   -1.7867 H   0  0  0  0  0  0  0  0  0  0  0  0
    3.0206    8.9178   -2.6213 H   0  0  0  0  0  0  0  0  0  0  0  0
    3.5997    9.9362   -4.6757 H   0  0  0  0  0  0  0  0  0  0  0  0
    3.1256   11.5773   -4.0673 H   0  0  0  0  0  0  0  0  0  0  0  0
    4.7485   10.3390   -2.3678 H   0  0  0  0  0  0  0  0  0  0  0  0
    5.5790    9.5677   -5.8506 H   0  0  0  0  0  0  0  0  0  0  0  0
    5.4283   11.3307   -6.1607 H   0  0  0  0  0  0  0  0  0  0  0  0
    7.0480   10.5539   -6.1607 H   0  0  0  0  0  0  0  0  0  0  0  0
    7.4404   10.5875   -2.5264 H   0  0  0  0  0  0  0  0  0  0  0  0
    7.8996    9.5901   -3.9480 H   0  0  0  0  0  0  0  0  0  0  0  0
    8.2238   11.3569   -3.9480 H   0  0  0  0  0  0  0  0  0  0  0  0
    0.5103   11.7345   -3.6988 H   0  0  0  0  0  0  0  0  0  0  0  0
   -1.6365   11.1757   -2.7396 H   0  0  0  0  0  0  0  0  0  0  0  0
   -0.9011   10.1150   -1.5185 H   0  0  0  0  0  0  0  0  0  0  0  0
   -1.9171   12.7427   -1.0405 H   0  0  0  0  0  0  0  0  0  0  0  0
   -0.8655   11.8731    0.0736 H   0  0  0  0  0  0  0  0  0  0  0  0
   -0.9107   14.9283   -2.1051 H   0  0  0  0  0  0  0  0  0  0  0  0
    0.4857   14.4300   -3.1191 H   0  0  0  0  0  0  0  0  0  0  0  0
   -1.0194   13.4495   -3.1191 H   0  0  0  0  0  0  0  0  0  0  0  0
    0.9403   13.3832    0.6342 H   0  0  0  0  0  0  0  0  0  0  0  0
   -1.2930   14.6336    0.3405 H   0  0  0  0  0  0  0  0  0  0  0  0
    0.0103   15.2660    1.4767 H   0  0  0  0  0  0  0  0  0  0  0  0
   -1.2257   17.0670    0.0030 H   0  0  0  0  0  0  0  0  0  0  0  0
    1.8188   15.8167   -2.3381 H   0  0  0  0  0  0  0  0  0  0  0  0
    3.1823   17.4825   -0.1331 H   0  0  0  0  0  0  0  0  0  0  0  0
    3.9968   16.6204   -1.5132 H   0  0  0  0  0  0  0  0  0  0  0  0
    3.8106   19.0551   -1.9089 H   0  0  0  0  0  0  0  0  0  0  0  0
    2.8898   18.0708   -3.1130 H   0  0  0  0  0  0  0  0  0  0  0  0
    1.5462   19.9534   -2.4680 H   0  0  0  0  0  0  0  0  0  0  0  0
    1.4180   19.0540    0.2200 H   0  0  0  0  0  0  0  0  0  0  0  0
   -0.6499   17.1179   -3.3265 H   0  0  0  0  0  0  0  0  0  0  0  0
   -0.3259   18.8241   -3.7853 H   0  0  0  0  0  0  0  0  0  0  0  0
    1.0112   17.6246   -3.7853 H   0  0  0  0  0  0  0  0  0  0  0  0
   -0.8151   19.1310   -0.1960 H   0  0  0  0  0  0  0  0  0  0  0  0
   -0.7084   20.1568   -1.6668 H   0  0  0  0  0  0  0  0  0  0  0  0
   -1.7484   18.6922   -1.6668 H   0  0  0  0  0  0  0  0  0  0  0  0
    2.0992   14.8466    1.7123 H   0  0  0  0  0  0  0  0  0  0  0  0
    3.7250   14.6396    0.9770 H   0  0  0  0  0  0  0  0  0  0  0  0
    2.9383   16.2545    0.9770 H   0  0  0  0  0  0  0  0  0  0  0  0
    3.8365   14.5654   -1.7601 H   0  0  0  0  0  0  0  0  0  0  0  0
    3.5430   13.2608   -0.4771 H   0  0  0  0  0  0  0  0  0  0  0  0
    2.1723   13.5513   -3.1649 H   0  0  0  0  0  0  0  0  0  0  0  0
    3.2867   12.2444   -2.6024 H   0  0  0  0  0  0  0  0  0  0  0  0
    1.5781   11.7668    0.4159 H   0  0  0  0  0  0  0  0  0  0  0  0
    1.4122   10.3006   -0.6086 H   0  0  0  0  0  0  0  0  0  0  0  0
    2.9513   11.2269   -0.6086 H   0  0  0  0  0  0  0  0  0  0  0  0
  1  2  1  0
  2  3  1  0
  3  4  1  0
  4  5  1  0
  5  6  1  0
  6  7  1  0
  7  8  1  0
  7  9  1  0
  2 10  1  0
 10 11  1  0
 11 12  1  0
 12 13  1  0
 13 14  1  6
 13 15  1  0
 15 16  1  0
 16 17  1  0
 17 18  2  0
 18 19  1  0
 19 20  1  0
 20 21  1  0
 21 22  1  0
 22 23  1  0
 22 24  1  0
 24 25  1  0
 24 26  1  0
 19 27  1  0
 27 28  1  1
 27 29  1  0
 29 30  1  0
 30 31  1  0
 31 32  1  1
  7  5  1  0
 31 10  1  0
 31 13  1  0
 27 15  1  0
 24 18  1  0
  1 33  1  0
  1 34  1  0
  1 35  1  0
  2 36  1  6
  3 37  1  0
  3 38  1  0
  4 39  1  0
  4 40  1  0
  5 41  1  1
  8 42  1  0
  8 43  1  0
  8 44  1  0
  9 45  1  0
  9 46  1  0
  9 47  1  0
 10 48  1  6
 11 49  1  0
 11 50  1  0
 12 51  1  0
 12 52  1  0
 14 53  1  0
 14 54  1  0
 14 55  1  0
 15 56  1  1
 16 57  1  0
 16 58  1  0
 17 59  1  0
 19 60  1  6
 20 61  1  0
 20 62  1  0
 21 63  1  0
 21 64  1  0
 22 65  1  6
 23 66  1  0
 25 67  1  0
 25 68  1  0
 25 69  1  0
 26 70  1  0
 26 71  1  0
 26 72  1  0
 28 73  1  0
 28 74  1  0
 28 75  1  0
 29 76  1  0
 29 77  1  0
 30 78  1  0
 30 79  1  0
 32 80  1  0
 32 81  1  0
 32 82  1  0
M  END
>  <meeko>  (7) 
{"is_sidechain": [false], "intermolecular_energy": 2.731, "internal_energy": -0.839}

$$$$
EPH_relaxed_0001_pdb2pqr_Repair_97_r2_0001_out
     RDKit          3D

 82 86  0  0  0  0  0  0  0  0999 V2000
    2.5280   19.2580   -1.0440 C   0  0  0  0  0  0  0  0  0  0  0  0
    2.3380   18.2450   -2.1770 C   0  0  2  0  0  0  0  0  0  0  0  0
    0.9200   18.3060   -2.7780 C   0  0  0  0  0  0  0  0  0  0  0  0
    0.1070   19.5180   -2.3160 C   0  0  0  0  0  0  0  0  0  0  0  0
   -1.1440   19.1060   -1.5990 C   0  0  2  0  0  0  0  0  0  0  0  0
   -1.9880   20.1930   -1.1960 O   0  0  0  0  0  0  0  0  0  0  0  0
   -1.4090   19.4130   -0.1370 C   0  0  0  0  0  0  0  0  0  0  0  0
   -0.4160   20.1610    0.6970 C   0  0  0  0  0  0  0  0  0  0  0  0
   -2.4010   18.5700    0.6030 C   0  0  0  0  0  0  0  0  0  0  0  0
    2.6300   16.8380   -1.6700 C   0  0  1  0  0  0  0  0  0  0  0  0
    3.4040   16.8360   -0.3240 C   0  0  0  0  0  0  0  0  0  0  0  0
    2.8920   15.6150    0.4840 C   0  0  0  0  0  0  0  0  0  0  0  0
    2.0960   14.7750   -0.5410 C   0  0  1  0  0  0  0  0  0  0  0  0
    3.1780   13.9640   -1.3220 C   0  0  0  0  0  0  0  0  0  0  0  0
    0.9860   13.8420    0.0430 C   0  0  2  0  0  0  0  0  0  0  0  0
    1.4910   12.7390    0.9890 C   0  0  0  0  0  0  0  0  0  0  0  0
    1.8390   11.4440    0.3320 C   0  0  0  0  0  0  0  0  0  0  0  0
    1.4840   11.0800   -0.9140 C   0  0  0  0  0  0  0  0  0  0  0  0
    0.5700   11.9720   -1.7660 C   0  0  1  0  0  0  0  0  0  0  0  0
   -0.5380   11.1050   -2.4180 C   0  0  0  0  0  0  0  0  0  0  0  0
    0.0280    9.9280   -3.2060 C   0  0  0  0  0  0  0  0  0  0  0  0
    0.8820    9.0330   -2.3130 C   0  0  2  0  0  0  0  0  0  0  0  0
    0.0370    8.4100   -1.3410 O   0  0  0  0  0  0  0  0  0  0  0  0
    2.0280    9.7990   -1.5940 C   0  0  0  0  0  0  0  0  0  0  0  0
    3.1030   10.2170   -2.6270 C   0  0  0  0  0  0  0  0  0  0  0  0
    2.7230    8.8130   -0.6170 C   0  0  0  0  0  0  0  0  0  0  0  0
   -0.0110   13.2620   -1.0410 C   0  0  1  0  0  0  0  0  0  0  0  0
   -1.3270   12.9000   -0.2870 C   0  0  0  0  0  0  0  0  0  0  0  0
   -0.4000   14.3310   -2.1280 C   0  0  0  0  0  0  0  0  0  0  0  0
    0.7090   15.3010   -2.5780 C   0  0  0  0  0  0  0  0  0  0  0  0
    1.4150   15.9240   -1.3700 C   0  0  2  0  0  0  0  0  0  0  0  0
    0.3560   16.7650   -0.5780 C   0  0  0  0  0  0  0  0  0  0  0  0
    2.4321   18.7465   -0.0749 H   0  0  0  0  0  0  0  0  0  0  0  0
    3.5269   19.7119   -1.1217 H   0  0  0  0  0  0  0  0  0  0  0  0
    1.7614   20.0431   -1.1217 H   0  0  0  0  0  0  0  0  0  0  0  0
    3.0464   18.5057   -2.9771 H   0  0  0  0  0  0  0  0  0  0  0  0
    1.0087   18.3446   -3.8737 H   0  0  0  0  0  0  0  0  0  0  0  0
    0.3853   17.4094   -2.4313 H   0  0  0  0  0  0  0  0  0  0  0  0
    0.7246   20.1234   -1.6362 H   0  0  0  0  0  0  0  0  0  0  0  0
   -0.1824   20.0962   -3.2059 H   0  0  0  0  0  0  0  0  0  0  0  0
   -1.1977   18.1725   -2.1784 H   0  0  0  0  0  0  0  0  0  0  0  0
   -0.6343   19.9966    1.7625 H   0  0  0  0  0  0  0  0  0  0  0  0
    0.5983   19.8006    0.4706 H   0  0  0  0  0  0  0  0  0  0  0  0
   -0.4824   21.2354    0.4706 H   0  0  0  0  0  0  0  0  0  0  0  0
   -2.2534   18.6955    1.6858 H   0  0  0  0  0  0  0  0  0  0  0  0
   -3.4208   18.8820    0.3334 H   0  0  0  0  0  0  0  0  0  0  0  0
   -2.2576   17.5132    0.3334 H   0  0  0  0  0  0  0  0  0  0  0  0
    3.1935   16.4456   -2.5294 H   0  0  0  0  0  0  0  0  0  0  0  0
    4.4844   16.7423   -0.5083 H   0  0  0  0  0  0  0  0  0  0  0  0
    3.2388   17.7728    0.2283 H   0  0  0  0  0  0  0  0  0  0  0  0
    3.7352   15.0363    0.8891 H   0  0  0  0  0  0  0  0  0  0  0  0
    2.2772   15.9133    1.3460 H   0  0  0  0  0  0  0  0  0  0  0  0
    3.8471   13.4625   -0.6073 H   0  0  0  0  0  0  0  0  0  0  0  0
    2.6859   13.2104   -1.9544 H   0  0  0  0  0  0  0  0  0  0  0  0
    3.7632   14.6478   -1.9544 H   0  0  0  0  0  0  0  0  0  0  0  0
    0.4061   14.5328    0.6726 H   0  0  0  0  0  0  0  0  0  0  0  0
    2.3909   13.1141    1.4984 H   0  0  0  0  0  0  0  0  0  0  0  0
    0.6571   12.5189    1.6718 H   0  0  0  0  0  0  0  0  0  0  0  0
    2.4356   10.7274    0.9155 H   0  0  0  0  0  0  0  0  0  0  0  0
    1.2110   12.4067   -2.5471 H   0  0  0  0  0  0  0  0  0  0  0  0
   -1.1935   10.7158   -1.6250 H   0  0  0  0  0  0  0  0  0  0  0  0
   -1.0904   11.7439   -3.1228 H   0  0  0  0  0  0  0  0  0  0  0  0
   -0.8037    9.3372   -3.6175 H   0  0  0  0  0  0  0  0  0  0  0  0
    0.6599   10.3200   -4.0166 H   0  0  0  0  0  0  0  0  0  0  0  0
    1.3625    8.2844   -2.9601 H   0  0  0  0  0  0  0  0  0  0  0  0
    0.6080    7.9220   -0.7240 H   0  0  0  0  0  0  0  0  0  0  0  0
    4.0024   10.5667   -2.0991 H   0  0  0  0  0  0  0  0  0  0  0  0
    3.3606    9.3535   -3.2579 H   0  0  0  0  0  0  0  0  0  0  0  0
    2.7096   11.0277   -3.2579 H   0  0  0  0  0  0  0  0  0  0  0  0
    2.5111    9.1136    0.4197 H   0  0  0  0  0  0  0  0  0  0  0  0
    2.3411    7.7959   -0.7892 H   0  0  0  0  0  0  0  0  0  0  0  0
    3.8093    8.8308   -0.7892 H   0  0  0  0  0  0  0  0  0  0  0  0
   -1.1529   12.9479    0.7981 H   0  0  0  0  0  0  0  0  0  0  0  0
   -2.1164   13.6144   -0.5636 H   0  0  0  0  0  0  0  0  0  0  0  0
   -1.6400   11.8824   -0.5636 H   0  0  0  0  0  0  0  0  0  0  0  0
   -0.7484   13.7878   -3.0189 H   0  0  0  0  0  0  0  0  0  0  0  0
   -1.1594   14.9657   -1.6480 H   0  0  0  0  0  0  0  0  0  0  0  0
    1.4459   14.7503   -3.1811 H   0  0  0  0  0  0  0  0  0  0  0  0
    0.2513   16.1066   -3.1710 H   0  0  0  0  0  0  0  0  0  0  0  0
    0.5187   16.6358    0.5022 H   0  0  0  0  0  0  0  0  0  0  0  0
    0.4616   17.8281   -0.8402 H   0  0  0  0  0  0  0  0  0  0  0  0
   -0.6555   16.4214   -0.8402 H   0  0  0  0  0  0  0  0  0  0  0  0
  1  2  1  0
  2  3  1  0
  3  4  1  0
  4  5  1  0
  5  6  1  0
  6  7  1  0
  7  8  1  0
  7  9  1  0
  2 10  1  0
 10 11  1  0
 11 12  1  0
 12 13  1  0
 13 14  1  6
 13 15  1  0
 15 16  1  0
 16 17  1  0
 17 18  2  0
 18 19  1  0
 19 20  1  0
 20 21  1  0
 21 22  1  0
 22 23  1  0
 22 24  1  0
 24 25  1  0
 24 26  1  0
 19 27  1  0
 27 28  1  1
 27 29  1  0
 29 30  1  0
 30 31  1  0
 31 32  1  1
  7  5  1  0
 31 10  1  0
 31 13  1  0
 27 15  1  0
 24 18  1  0
  1 33  1  0
  1 34  1  0
  1 35  1  0
  2 36  1  6
  3 37  1  0
  3 38  1  0
  4 39  1  0
  4 40  1  0
  5 41  1  6
  8 42  1  0
  8 43  1  0
  8 44  1  0
  9 45  1  0
  9 46  1  0
  9 47  1  0
 10 48  1  6
 11 49  1  0
 11 50  1  0
 12 51  1  0
 12 52  1  0
 14 53  1  0
 14 54  1  0
 14 55  1  0
 15 56  1  1
 16 57  1  0
 16 58  1  0
 17 59  1  0
 19 60  1  6
 20 61  1  0
 20 62  1  0
 21 63  1  0
 21 64  1  0
 22 65  1  6
 23 66  1  0
 25 67  1  0
 25 68  1  0
 25 69  1  0
 26 70  1  0
 26 71  1  0
 26 72  1  0
 28 73  1  0
 28 74  1  0
 28 75  1  0
 29 76  1  0
 29 77  1  0
 30 78  1  0
 30 79  1  0
 32 80  1  0
 32 81  1  0
 32 82  1  0
M  END
>  <meeko>  (8) 
{"is_sidechain": [false], "intermolecular_energy": 2.731, "internal_energy": -0.839}

$$$$
EPH_relaxed_0001_pdb2pqr_Repair_97_r2_0001_out
     RDKit          3D

 82 86  0  0  0  0  0  0  0  0999 V2000
    0.1650   10.6880   -4.1710 C   0  0  0  0  0  0  0  0  0  0  0  0
    0.9900   10.3220   -2.9330 C   0  0  2  0  0  0  0  0  0  0  0  0
    0.4470    9.0640   -2.2250 C   0  0  0  0  0  0  0  0  0  0  0  0
    0.2960    9.2280   -0.7100 C   0  0  0  0  0  0  0  0  0  0  0  0
   -1.0930    8.8990   -0.2530 C   0  0  2  0  0  0  0  0  0  0  0  0
   -1.9980    8.5330   -1.3030 O   0  0  0  0  0  0  0  0  0  0  0  0
   -2.3070    9.7420   -0.5930 C   0  0  0  0  0  0  0  0  0  0  0  0
   -2.1890   10.9820   -1.4220 C   0  0  0  0  0  0  0  0  0  0  0  0
   -3.5190    9.6360    0.2800 C   0  0  0  0  0  0  0  0  0  0  0  0
    1.0180   11.4950   -1.9620 C   0  0  1  0  0  0  0  0  0  0  0  0
    2.0140   11.2790   -0.7920 C   0  0  0  0  0  0  0  0  0  0  0  0
    2.6130   12.6680   -0.4510 C   0  0  0  0  0  0  0  0  0  0  0  0
    1.7090   13.6760   -1.1990 C   0  0  1  0  0  0  0  0  0  0  0  0
    0.4590   13.8500   -0.2810 C   0  0  0  0  0  0  0  0  0  0  0  0
    2.3580   15.0520   -1.5570 C   0  0  2  0  0  0  0  0  0  0  0  0
    2.7990   15.9000   -0.3510 C   0  0  0  0  0  0  0  0  0  0  0  0
    1.7680   16.8410    0.1780 C   0  0  0  0  0  0  0  0  0  0  0  0
    0.6430   17.2090   -0.4620 C   0  0  0  0  0  0  0  0  0  0  0  0
    0.3630   16.7390   -1.8960 C   0  0  1  0  0  0  0  0  0  0  0  0
   -0.1090   17.9430   -2.7530 C   0  0  0  0  0  0  0  0  0  0  0  0
   -1.2990   18.6710   -2.1340 C   0  0  0  0  0  0  0  0  0  0  0  0
   -0.9620   19.1730   -0.7330 C   0  0  2  0  0  0  0  0  0  0  0  0
    0.0370   20.1920   -0.8370 O   0  0  0  0  0  0  0  0  0  0  0  0
   -0.4660   18.0490    0.2190 C   0  0  0  0  0  0  0  0  0  0  0  0
   -1.6430   17.1070    0.5700 C   0  0  0  0  0  0  0  0  0  0  0  0
   -0.0270   18.7120    1.5520 C   0  0  0  0  0  0  0  0  0  0  0  0
    1.5260   15.9110   -2.5940 C   0  0  1  0  0  0  0  0  0  0  0  0
    2.5350   16.8840   -3.2770 C   0  0  0  0  0  0  0  0  0  0  0  0
    0.9110   15.0290   -3.7440 C   0  0  0  0  0  0  0  0  0  0  0  0
    0.3960   13.6320   -3.3480 C   0  0  0  0  0  0  0  0  0  0  0  0
    1.4420   12.8750   -2.5250 C   0  0  2  0  0  0  0  0  0  0  0  0
    2.7030   12.6650   -3.4300 C   0  0  0  0  0  0  0  0  0  0  0  0
   -0.7985   11.1154   -3.8563 H   0  0  0  0  0  0  0  0  0  0  0  0
    0.7148   11.4267   -4.7728 H   0  0  0  0  0  0  0  0  0  0  0  0
   -0.0136    9.7847   -4.7728 H   0  0  0  0  0  0  0  0  0  0  0  0
    2.0119   10.0954   -3.2711 H   0  0  0  0  0  0  0  0  0  0  0  0
   -0.5397    8.8255   -2.6487 H   0  0  0  0  0  0  0  0  0  0  0  0
    1.1796    8.2603   -2.3902 H   0  0  0  0  0  0  0  0  0  0  0  0
    1.0058    8.5556   -0.2060 H   0  0  0  0  0  0  0  0  0  0  0  0
    0.5008   10.2786   -0.4565 H   0  0  0  0  0  0  0  0  0  0  0  0
   -0.7112    8.5058    0.7007 H   0  0  0  0  0  0  0  0  0  0  0  0
   -2.1056   11.8579   -0.7618 H   0  0  0  0  0  0  0  0  0  0  0  0
   -1.2932   10.9148   -2.0568 H   0  0  0  0  0  0  0  0  0  0  0  0
   -3.0814   11.0849   -2.0568 H   0  0  0  0  0  0  0  0  0  0  0  0
   -3.2134    9.6627    1.3364 H   0  0  0  0  0  0  0  0  0  0  0  0
   -4.1952   10.4784    0.0725 H   0  0  0  0  0  0  0  0  0  0  0  0
   -4.0387    8.6890    0.0725 H   0  0  0  0  0  0  0  0  0  0  0  0
   -0.0424   11.5172   -1.6703 H   0  0  0  0  0  0  0  0  0  0  0  0
    1.4877   10.8686    0.0824 H   0  0  0  0  0  0  0  0  0  0  0  0
    2.8039   10.5667   -1.0726 H   0  0  0  0  0  0  0  0  0  0  0  0
    2.5819   12.8488    0.6336 H   0  0  0  0  0  0  0  0  0  0  0  0
    3.6684   12.7523   -0.7495 H   0  0  0  0  0  0  0  0  0  0  0  0
    0.7695   13.8068    0.7734 H   0  0  0  0  0  0  0  0  0  0  0  0
   -0.0130   14.8225   -0.4847 H   0  0  0  0  0  0  0  0  0  0  0  0
   -0.2606   13.0434   -0.4847 H   0  0  0  0  0  0  0  0  0  0  0  0
    3.2860   14.7494   -2.0642 H   0  0  0  0  0  0  0  0  0  0  0  0
    3.0821   15.2144    0.4613 H   0  0  0  0  0  0  0  0  0  0  0  0
    3.6293   16.5274   -0.7075 H   0  0  0  0  0  0  0  0  0  0  0  0
    1.9428   17.2700    1.1757 H   0  0  0  0  0  0  0  0  0  0  0  0
   -0.4446   15.9960   -1.8201 H   0  0  0  0  0  0  0  0  0  0  0  0
    0.7252   18.6529   -2.8535 H   0  0  0  0  0  0  0  0  0  0  0  0
   -0.4281   17.5524   -3.7305 H   0  0  0  0  0  0  0  0  0  0  0  0
   -1.5666   19.5284   -2.7690 H   0  0  0  0  0  0  0  0  0  0  0  0
   -2.1420   17.9681   -2.0619 H   0  0  0  0  0  0  0  0  0  0  0  0
   -1.8891   19.5687   -0.2926 H   0  0  0  0  0  0  0  0  0  0  0  0
   -0.3880   20.9850   -1.2060 H   0  0  0  0  0  0  0  0  0  0  0  0
   -1.7382   17.0308    1.6632 H   0  0  0  0  0  0  0  0  0  0  0  0
   -2.5748   17.5116    0.1481 H   0  0  0  0  0  0  0  0  0  0  0  0
   -1.4524   16.1092    0.1481 H   0  0  0  0  0  0  0  0  0  0  0  0
   -0.4150   18.1260    2.3982 H   0  0  0  0  0  0  0  0  0  0  0  0
    1.0714   18.7441    1.6012 H   0  0  0  0  0  0  0  0  0  0  0  0
   -0.4263   19.7358    1.6012 H   0  0  0  0  0  0  0  0  0  0  0  0
    3.0993   17.4281   -2.5053 H   0  0  0  0  0  0  0  0  0  0  0  0
    3.2322   16.3086   -3.9038 H   0  0  0  0  0  0  0  0  0  0  0  0
    1.9853   17.6017   -3.9038 H   0  0  0  0  0  0  0  0  0  0  0  0
    0.0655   15.5857   -4.1744 H   0  0  0  0  0  0  0  0  0  0  0  0
    1.7423   14.8428   -4.4399 H   0  0  0  0  0  0  0  0  0  0  0  0
   -0.5209   13.7426   -2.7504 H   0  0  0  0  0  0  0  0  0  0  0  0
    0.1912   13.0608   -4.2655 H   0  0  0  0  0  0  0  0  0  0  0  0
    3.5893   12.5174   -2.7954 H   0  0  0  0  0  0  0  0  0  0  0  0
    2.5551   11.7791   -4.0651 H   0  0  0  0  0  0  0  0  0  0  0  0
    2.8502   13.5510   -4.0651 H   0  0  0  0  0  0  0  0  0  0  0  0
  1  2  1  0
  2  3  1  0
  3  4  1  0
  4  5  1  0
  5  6  1  0
  6  7  1  0
  7  8  1  0
  7  9  1  0
  2 10  1  0
 10 11  1  0
 11 12  1  0
 12 13  1  0
 13 14  1  1
 13 15  1  0
 15 16  1  0
 16 17  1  0
 17 18  2  0
 18 19  1  0
 19 20  1  0
 20 21  1  0
 21 22  1  0
 22 23  1  0
 22 24  1  0
 24 25  1  0
 24 26  1  0
 19 27  1  0
 27 28  1  6
 27 29  1  0
 29 30  1  0
 30 31  1  0
 31 32  1  6
  7  5  1  0
 31 10  1  0
 31 13  1  0
 27 15  1  0
 24 18  1  0
  1 33  1  0
  1 34  1  0
  1 35  1  0
  2 36  1  6
  3 37  1  0
  3 38  1  0
  4 39  1  0
  4 40  1  0
  5 41  1  1
  8 42  1  0
  8 43  1  0
  8 44  1  0
  9 45  1  0
  9 46  1  0
  9 47  1  0
 10 48  1  1
 11 49  1  0
 11 50  1  0
 12 51  1  0
 12 52  1  0
 14 53  1  0
 14 54  1  0
 14 55  1  0
 15 56  1  6
 16 57  1  0
 16 58  1  0
 17 59  1  0
 19 60  1  1
 20 61  1  0
 20 62  1  0
 21 63  1  0
 21 64  1  0
 22 65  1  1
 23 66  1  0
 25 67  1  0
 25 68  1  0
 25 69  1  0
 26 70  1  0
 26 71  1  0
 26 72  1  0
 28 73  1  0
 28 74  1  0
 28 75  1  0
 29 76  1  0
 29 77  1  0
 30 78  1  0
 30 79  1  0
 32 80  1  0
 32 81  1  0
 32 82  1  0
M  END
>  <meeko>  (9) 
{"is_sidechain": [false], "intermolecular_energy": 2.731, "internal_energy": -0.839}

$$$$
EPH_relaxed_0001_pdb2pqr_Repair_97_r2_0001_out
     RDKit          3D

 82 86  0  0  0  0  0  0  0  0999 V2000
    0.1690   17.8050   -2.6620 C   0  0  0  0  0  0  0  0  0  0  0  0
   -0.1370   16.8790   -1.4810 C   0  0  2  0  0  0  0  0  0  0  0  0
   -0.2760   17.6550   -0.1560 C   0  0  0  0  0  0  0  0  0  0  0  0
    0.5190   18.9630   -0.1220 C   0  0  0  0  0  0  0  0  0  0  0  0
    1.8110   18.8070    0.6230 C   0  0  2  0  0  0  0  0  0  0  0  0
    2.7780   19.8330    0.3660 O   0  0  0  0  0  0  0  0  0  0  0  0
    3.1350   18.5070   -0.0540 C   0  0  0  0  0  0  0  0  0  0  0  0
    3.2340   18.3440   -1.5380 C   0  0  0  0  0  0  0  0  0  0  0  0
    4.2310   17.8920    0.7590 C   0  0  0  0  0  0  0  0  0  0  0  0
    0.9530   15.8220   -1.3540 C   0  0  1  0  0  0  0  0  0  0  0  0
    1.1280   15.3160    0.1030 C   0  0  0  0  0  0  0  0  0  0  0  0
    1.4940   13.8120    0.0130 C   0  0  0  0  0  0  0  0  0  0  0  0
    1.8420   13.5830   -1.4760 C   0  0  1  0  0  0  0  0  0  0  0  0
    3.3140   14.0800   -1.6250 C   0  0  0  0  0  0  0  0  0  0  0  0
    1.6680   12.1240   -2.0110 C   0  0  2  0  0  0  0  0  0  0  0  0
    2.5690   11.0720   -1.3400 C   0  0  0  0  0  0  0  0  0  0  0  0
    3.8920   10.8550   -1.9950 C   0  0  0  0  0  0  0  0  0  0  0  0
    4.2300   11.2640   -3.2320 C   0  0  0  0  0  0  0  0  0  0  0  0
    3.1990   11.9380   -4.1470 C   0  0  1  0  0  0  0  0  0  0  0  0
    3.2760   11.3110   -5.5640 C   0  0  0  0  0  0  0  0  0  0  0  0
    4.6860   11.3510   -6.1450 C   0  0  0  0  0  0  0  0  0  0  0  0
    5.6710   10.6200   -5.2360 C   0  0  2  0  0  0  0  0  0  0  0  0
    5.3490    9.2260   -5.2320 O   0  0  0  0  0  0  0  0  0  0  0  0
    5.6750   11.1590   -3.7780 C   0  0  0  0  0  0  0  0  0  0  0  0
    6.3100   12.5720   -3.7470 C   0  0  0  0  0  0  0  0  0  0  0  0
    6.6050   10.2470   -2.9340 C   0  0  0  0  0  0  0  0  0  0  0  0
    1.7130   12.0020   -3.5880 C   0  0  1  0  0  0  0  0  0  0  0  0
    0.9500   10.6920   -3.9540 C   0  0  0  0  0  0  0  0  0  0  0  0
    0.9450   13.1770   -4.3010 C   0  0  0  0  0  0  0  0  0  0  0  0
    1.0590   14.5730   -3.6570 C   0  0  0  0  0  0  0  0  0  0  0  0
    0.7670   14.5090   -2.1550 C   0  0  2  0  0  0  0  0  0  0  0  0
   -0.7150   14.0330   -1.9750 C   0  0  0  0  0  0  0  0  0  0  0  0
    0.4932   18.7860   -2.2844 H   0  0  0  0  0  0  0  0  0  0  0  0
    0.9696   17.3652   -3.2749 H   0  0  0  0  0  0  0  0  0  0  0  0
   -0.7360   17.9288   -3.2749 H   0  0  0  0  0  0  0  0  0  0  0  0
   -1.1035   16.3938   -1.6821 H   0  0  0  0  0  0  0  0  0  0  0  0
   -1.3393   17.8909   -0.0017 H   0  0  0  0  0  0  0  0  0  0  0  0
    0.1308   17.0111    0.6376 H   0  0  0  0  0  0  0  0  0  0  0  0
    0.7379   19.2742   -1.1541 H   0  0  0  0  0  0  0  0  0  0  0  0
   -0.0874   19.7197    0.3974 H   0  0  0  0  0  0  0  0  0  0  0  0
    1.2925   18.3367    1.4715 H   0  0  0  0  0  0  0  0  0  0  0  0
    3.7922   17.4249   -1.7695 H   0  0  0  0  0  0  0  0  0  0  0  0
    2.2236   18.2774   -1.9678 H   0  0  0  0  0  0  0  0  0  0  0  0
    3.7589   19.2099   -1.9678 H   0  0  0  0  0  0  0  0  0  0  0  0
    4.0082   18.0170    1.8289 H   0  0  0  0  0  0  0  0  0  0  0  0
    4.3056   16.8203    0.5228 H   0  0  0  0  0  0  0  0  0  0  0  0
    5.1846   18.3868    0.5228 H   0  0  0  0  0  0  0  0  0  0  0  0
    1.8068   16.3888   -1.7536 H   0  0  0  0  0  0  0  0  0  0  0  0
    1.9341   15.8728    0.6032 H   0  0  0  0  0  0  0  0  0  0  0  0
    0.2071   15.4643    0.6860 H   0  0  0  0  0  0  0  0  0  0  0  0
    2.3589   13.5839    0.6533 H   0  0  0  0  0  0  0  0  0  0  0  0
    0.6745   13.1624    0.3543 H   0  0  0  0  0  0  0  0  0  0  0  0
    3.7536   14.2284   -0.6276 H   0  0  0  0  0  0  0  0  0  0  0  0
    3.9002   13.3300   -2.1762 H   0  0  0  0  0  0  0  0  0  0  0  0
    3.3256   15.0319   -2.1762 H   0  0  0  0  0  0  0  0  0  0  0  0
    0.6411   11.8798   -1.7015 H   0  0  0  0  0  0  0  0  0  0  0  0
    2.7513   11.3920   -0.3035 H   0  0  0  0  0  0  0  0  0  0  0  0
    2.0305   10.1160   -1.4177 H   0  0  0  0  0  0  0  0  0  0  0  0
    4.6565   10.3145   -1.4175 H   0  0  0  0  0  0  0  0  0  0  0  0
    3.4816   13.0001   -4.1930 H   0  0  0  0  0  0  0  0  0  0  0  0
    2.9489   10.2625   -5.5040 H   0  0  0  0  0  0  0  0  0  0  0  0
    2.6250   11.9007   -6.2261 H   0  0  0  0  0  0  0  0  0  0  0  0
    4.6820   10.8685   -7.1335 H   0  0  0  0  0  0  0  0  0  0  0  0
    5.0007   12.4015   -6.2314 H   0  0  0  0  0  0  0  0  0  0  0  0
    6.6803   10.7931   -5.6377 H   0  0  0  0  0  0  0  0  0  0  0  0
    4.4940    9.1230   -4.7810 H   0  0  0  0  0  0  0  0  0  0  0  0
    6.4518   12.8874   -2.7028 H   0  0  0  0  0  0  0  0  0  0  0  0
    7.2837   12.5477   -4.2581 H   0  0  0  0  0  0  0  0  0  0  0  0
    5.6453   13.2840   -4.2581 H   0  0  0  0  0  0  0  0  0  0  0  0
    6.4220   10.4264   -1.8643 H   0  0  0  0  0  0  0  0  0  0  0  0
    6.3972    9.1929   -3.1698 H   0  0  0  0  0  0  0  0  0  0  0  0
    7.6549   10.4754   -3.1698 H   0  0  0  0  0  0  0  0  0  0  0  0
    0.6481   10.1737   -3.0319 H   0  0  0  0  0  0  0  0  0  0  0  0
    0.0558   10.9412   -4.5441 H   0  0  0  0  0  0  0  0  0  0  0  0
    1.6080   10.0371   -4.5441 H   0  0  0  0  0  0  0  0  0  0  0  0
    1.3309   13.2518   -5.3284 H   0  0  0  0  0  0  0  0  0  0  0  0
   -0.1200   12.9118   -4.2271 H   0  0  0  0  0  0  0  0  0  0  0  0
    2.0783   14.9575   -3.8094 H   0  0  0  0  0  0  0  0  0  0  0  0
    0.3218   15.2387   -4.1297 H   0  0  0  0  0  0  0  0  0  0  0  0
   -0.9484   13.9580   -0.9027 H   0  0  0  0  0  0  0  0  0  0  0  0
   -1.3932   14.7585   -2.4480 H   0  0  0  0  0  0  0  0  0  0  0  0
   -0.8439   13.0483   -2.4480 H   0  0  0  0  0  0  0  0  0  0  0  0
  1  2  1  0
  2  3  1  0
  3  4  1  0
  4  5  1  0
  5  6  1  0
  6  7  1  0
  7  8  1  0
  7  9  1  0
  2 10  1  0
 10 11  1  0
 11 12  1  0
 12 13  1  0
 13 14  1  1
 13 15  1  0
 15 16  1  0
 16 17  1  0
 17 18  2  0
 18 19  1  0
 19 20  1  0
 20 21  1  0
 21 22  1  0
 22 23  1  0
 22 24  1  0
 24 25  1  0
 24 26  1  0
 19 27  1  0
 27 28  1  1
 27 29  1  0
 29 30  1  0
 30 31  1  0
 31 32  1  6
  7  5  1  0
 31 10  1  0
 31 13  1  0
 27 15  1  0
 24 18  1  0
  1 33  1  0
  1 34  1  0
  1 35  1  0
  2 36  1  6
  3 37  1  0
  3 38  1  0
  4 39  1  0
  4 40  1  0
  5 41  1  1
  8 42  1  0
  8 43  1  0
  8 44  1  0
  9 45  1  0
  9 46  1  0
  9 47  1  0
 10 48  1  6
 11 49  1  0
 11 50  1  0
 12 51  1  0
 12 52  1  0
 14 53  1  0
 14 54  1  0
 14 55  1  0
 15 56  1  1
 16 57  1  0
 16 58  1  0
 17 59  1  0
 19 60  1  6
 20 61  1  0
 20 62  1  0
 21 63  1  0
 21 64  1  0
 22 65  1  6
 23 66  1  0
 25 67  1  0
 25 68  1  0
 25 69  1  0
 26 70  1  0
 26 71  1  0
 26 72  1  0
 28 73  1  0
 28 74  1  0
 28 75  1  0
 29 76  1  0
 29 77  1  0
 30 78  1  0
 30 79  1  0
 32 80  1  0
 32 81  1  0
 32 82  1  0
M  END
>  <meeko>  (10) 
{"is_sidechain": [false], "intermolecular_energy": 2.731, "internal_energy": -0.839}

$$$$
EPH_relaxed_0001_pdb2pqr_Repair_97_r2_0001_out
     RDKit          3D

 82 86  0  0  0  0  0  0  0  0999 V2000
   -0.8610   16.3370   -5.8410 C   0  0  0  0  0  0  0  0  0  0  0  0
    0.2320   15.6310   -6.6480 C   0  0  2  0  0  0  0  0  0  0  0  0
   -0.1680   15.4400   -8.1250 C   0  0  0  0  0  0  0  0  0  0  0  0
    0.4640   16.4650   -9.0710 C   0  0  0  0  0  0  0  0  0  0  0  0
    1.8680   16.0890   -9.4380 C   0  0  2  0  0  0  0  0  0  0  0  0
    2.3420   16.6670  -10.6610 O   0  0  0  0  0  0  0  0  0  0  0  0
    2.2190   15.2360  -10.6420 C   0  0  0  0  0  0  0  0  0  0  0  0
    1.1600   14.7050  -11.5570 C   0  0  0  0  0  0  0  0  0  0  0  0
    3.5320   14.5170  -10.6520 C   0  0  0  0  0  0  0  0  0  0  0  0
    0.5550   14.2820   -6.0170 C   0  0  1  0  0  0  0  0  0  0  0  0
    1.7990   13.6060   -6.6540 C   0  0  0  0  0  0  0  0  0  0  0  0
    2.5270   12.8470   -5.5160 C   0  0  0  0  0  0  0  0  0  0  0  0
    1.5150   12.8320   -4.3470 C   0  0  1  0  0  0  0  0  0  0  0  0
    0.5400   11.6580   -4.6760 C   0  0  0  0  0  0  0  0  0  0  0  0
    2.1190   12.6950   -2.9110 C   0  0  2  0  0  0  0  0  0  0  0  0
    2.8840   11.3860   -2.6470 C   0  0  0  0  0  0  0  0  0  0  0  0
    2.0610   10.2650   -2.1030 C   0  0  0  0  0  0  0  0  0  0  0  0
    0.8310   10.3850   -1.5710 C   0  0  0  0  0  0  0  0  0  0  0  0
    0.1840   11.7640   -1.3860 C   0  0  1  0  0  0  0  0  0  0  0  0
   -0.4280   11.8620    0.0360 C   0  0  0  0  0  0  0  0  0  0  0  0
   -1.3930   10.7190    0.3380 C   0  0  0  0  0  0  0  0  0  0  0  0
   -0.6970    9.3680    0.2010 C   0  0  2  0  0  0  0  0  0  0  0  0
    0.2930    9.2520    1.2280 O   0  0  0  0  0  0  0  0  0  0  0  0
   -0.0340    9.1580   -1.1890 C   0  0  0  0  0  0  0  0  0  0  0  0
   -1.1310    8.9820   -2.2680 C   0  0  0  0  0  0  0  0  0  0  0  0
    0.7520    7.8200   -1.1470 C   0  0  0  0  0  0  0  0  0  0  0  0
    1.0980   13.0130   -1.7450 C   0  0  1  0  0  0  0  0  0  0  0  0
    1.9510   13.4210   -0.5050 C   0  0  0  0  0  0  0  0  0  0  0  0
    0.1770   14.2460   -2.0760 C   0  0  0  0  0  0  0  0  0  0  0  0
   -0.2900   14.3920   -3.5370 C   0  0  0  0  0  0  0  0  0  0  0  0
    0.8910   14.2660   -4.5050 C   0  0  2  0  0  0  0  0  0  0  0  0
    1.8780   15.4470   -4.2130 C   0  0  0  0  0  0  0  0  0  0  0  0
   -0.6636   16.2095   -4.7664 H   0  0  0  0  0  0  0  0  0  0  0  0
   -0.8650   17.4088   -6.0884 H   0  0  0  0  0  0  0  0  0  0  0  0
   -1.8396   15.8999   -6.0884 H   0  0  0  0  0  0  0  0  0  0  0  0
    1.1246   16.2735   -6.6285 H   0  0  0  0  0  0  0  0  0  0  0  0
    0.1456   14.4346   -8.4426 H   0  0  0  0  0  0  0  0  0  0  0  0
   -1.2578   15.5775   -8.1834 H   0  0  0  0  0  0  0  0  0  0  0  0
   -0.1406   16.5239   -9.9881 H   0  0  0  0  0  0  0  0  0  0  0  0
    0.4928   17.4359   -8.5548 H   0  0  0  0  0  0  0  0  0  0  0  0
    2.1512   16.0197   -8.3774 H   0  0  0  0  0  0  0  0  0  0  0  0
    0.3339   14.2908  -10.9604 H   0  0  0  0  0  0  0  0  0  0  0  0
    0.7814   15.5199  -12.1915 H   0  0  0  0  0  0  0  0  0  0  0  0
    1.5865   13.9141  -12.1915 H   0  0  0  0  0  0  0  0  0  0  0  0
    3.8597   14.3376   -9.6174 H   0  0  0  0  0  0  0  0  0  0  0  0
    3.4192   13.5548  -11.1730 H   0  0  0  0  0  0  0  0  0  0  0  0
    4.2819   15.1303  -11.1730 H   0  0  0  0  0  0  0  0  0  0  0  0
   -0.3979   13.7626   -6.1964 H   0  0  0  0  0  0  0  0  0  0  0  0
    1.4870   12.9022   -7.4397 H   0  0  0  0  0  0  0  0  0  0  0  0
    2.4607   14.3528   -7.1171 H   0  0  0  0  0  0  0  0  0  0  0  0
    2.7739   11.8218   -5.8290 H   0  0  0  0  0  0  0  0  0  0  0  0
    3.4781   13.3246   -5.2381 H   0  0  0  0  0  0  0  0  0  0  0  0
    0.1714   11.2141   -3.7395 H   0  0  0  0  0  0  0  0  0  0  0  0
   -0.3101   12.0401   -5.2602 H   0  0  0  0  0  0  0  0  0  0  0  0
    1.0718   10.8925   -5.2602 H   0  0  0  0  0  0  0  0  0  0  0  0
    2.8770   13.4920   -2.8972 H   0  0  0  0  0  0  0  0  0  0  0  0
    3.3260   11.0530   -3.5976 H   0  0  0  0  0  0  0  0  0  0  0  0
    3.6294   11.6200   -1.8727 H   0  0  0  0  0  0  0  0  0  0  0  0
    2.4972    9.2559   -2.1404 H   0  0  0  0  0  0  0  0  0  0  0  0
   -0.6135   11.8294   -2.1408 H   0  0  0  0  0  0  0  0  0  0  0  0
    0.3879   11.8387    0.7734 H   0  0  0  0  0  0  0  0  0  0  0  0
   -0.9965   12.8021    0.0907 H   0  0  0  0  0  0  0  0  0  0  0  0
   -1.7694   10.8276    1.3659 H   0  0  0  0  0  0  0  0  0  0  0  0
   -2.2237   10.7609   -0.3819 H   0  0  0  0  0  0  0  0  0  0  0  0
   -1.4674    8.5894    0.3021 H   0  0  0  0  0  0  0  0  0  0  0  0
    1.1640    9.3610    0.8110 H   0  0  0  0  0  0  0  0  0  0  0  0
   -2.1041    8.8259   -1.7795 H   0  0  0  0  0  0  0  0  0  0  0  0
   -1.1763    9.8844   -2.8954 H   0  0  0  0  0  0  0  0  0  0  0  0
   -0.8917    8.1108   -2.8954 H   0  0  0  0  0  0  0  0  0  0  0  0
    0.9234    7.5282   -0.1004 H   0  0  0  0  0  0  0  0  0  0  0  0
    0.1704    7.0369   -1.6554 H   0  0  0  0  0  0  0  0  0  0  0  0
    1.7192    7.9468   -1.6554 H   0  0  0  0  0  0  0  0  0  0  0  0
    1.4076   13.1611    0.4154 H   0  0  0  0  0  0  0  0  0  0  0  0
    2.9111   12.8846   -0.5279 H   0  0  0  0  0  0  0  0  0  0  0  0
    2.1360   14.5051   -0.5279 H   0  0  0  0  0  0  0  0  0  0  0  0
   -0.7212   14.1691   -1.4457 H   0  0  0  0  0  0  0  0  0  0  0  0
    0.8010   15.1312   -1.8835 H   0  0  0  0  0  0  0  0  0  0  0  0
   -1.0243   13.6041   -3.7606 H   0  0  0  0  0  0  0  0  0  0  0  0
   -0.7425   15.3867   -3.6630 H   0  0  0  0  0  0  0  0  0  0  0  0
    1.9850   15.5751   -3.1257 H   0  0  0  0  0  0  0  0  0  0  0  0
    2.8602   15.2216   -4.6541 H   0  0  0  0  0  0  0  0  0  0  0  0
    1.4818   16.3735   -4.6541 H   0  0  0  0  0  0  0  0  0  0  0  0
  1  2  1  0
  2  3  1  0
  3  4  1  0
  4  5  1  0
  5  6  1  0
  6  7  1  0
  7  8  1  0
  7  9  1  0
  2 10  1  0
 10 11  1  0
 11 12  1  0
 12 13  1  0
 13 14  1  6
 13 15  1  0
 15 16  1  0
 16 17  1  0
 17 18  2  0
 18 19  1  0
 19 20  1  0
 20 21  1  0
 21 22  1  0
 22 23  1  0
 22 24  1  0
 24 25  1  0
 24 26  1  0
 19 27  1  0
 27 28  1  1
 27 29  1  0
 29 30  1  0
 30 31  1  0
 31 32  1  6
  7  5  1  0
 31 10  1  0
 31 13  1  0
 27 15  1  0
 24 18  1  0
  1 33  1  0
  1 34  1  0
  1 35  1  0
  2 36  1  6
  3 37  1  0
  3 38  1  0
  4 39  1  0
  4 40  1  0
  5 41  1  1
  8 42  1  0
  8 43  1  0
  8 44  1  0
  9 45  1  0
  9 46  1  0
  9 47  1  0
 10 48  1  1
 11 49  1  0
 11 50  1  0
 12 51  1  0
 12 52  1  0
 14 53  1  0
 14 54  1  0
 14 55  1  0
 15 56  1  6
 16 57  1  0
 16 58  1  0
 17 59  1  0
 19 60  1  6
 20 61  1  0
 20 62  1  0
 21 63  1  0
 21 64  1  0
 22 65  1  1
 23 66  1  0
 25 67  1  0
 25 68  1  0
 25 69  1  0
 26 70  1  0
 26 71  1  0
 26 72  1  0
 28 73  1  0
 28 74  1  0
 28 75  1  0
 29 76  1  0
 29 77  1  0
 30 78  1  0
 30 79  1  0
 32 80  1  0
 32 81  1  0
 32 82  1  0
M  END
>  <meeko>  (11) 
{"is_sidechain": [false], "intermolecular_energy": 2.731, "internal_energy": -0.839}

$$$$
EPH_relaxed_0001_pdb2pqr_Repair_97_r2_0001_out
     RDKit          3D

 82 86  0  0  0  0  0  0  0  0999 V2000
   -3.8600    7.2230   -3.3860 C   0  0  0  0  0  0  0  0  0  0  0  0
   -3.7990    7.2770   -1.8570 C   0  0  2  0  0  0  0  0  0  0  0  0
   -5.1780    7.0350   -1.2110 C   0  0  0  0  0  0  0  0  0  0  0  0
   -6.3490    7.5500   -2.0510 C   0  0  0  0  0  0  0  0  0  0  0  0
   -7.6260    7.5760   -1.2660 C   0  0  2  0  0  0  0  0  0  0  0  0
   -8.0220    6.3090   -0.7260 O   0  0  0  0  0  0  0  0  0  0  0  0
   -8.8970    6.8790   -1.7120 C   0  0  0  0  0  0  0  0  0  0  0  0
   -8.9560    6.1070   -2.9930 C   0  0  0  0  0  0  0  0  0  0  0  0
  -10.2050    7.3520   -1.1570 C   0  0  0  0  0  0  0  0  0  0  0  0
   -3.2420    8.6230   -1.4070 C   0  0  1  0  0  0  0  0  0  0  0  0
   -3.8500    9.1010   -0.0610 C   0  0  0  0  0  0  0  0  0  0  0  0
   -2.7260    9.8530    0.6960 C   0  0  0  0  0  0  0  0  0  0  0  0
   -1.6210   10.0720   -0.3640 C   0  0  1  0  0  0  0  0  0  0  0  0
   -2.0840   11.3230   -1.1740 C   0  0  0  0  0  0  0  0  0  0  0  0
   -0.1650   10.2430    0.1810 C   0  0  2  0  0  0  0  0  0  0  0  0
    0.0540   11.4710    1.0830 C   0  0  0  0  0  0  0  0  0  0  0  0
    0.4720   12.7160    0.3740 C   0  0  0  0  0  0  0  0  0  0  0  0
    0.9400   12.7790   -0.8870 C   0  0  0  0  0  0  0  0  0  0  0  0
    1.1790   11.5020   -1.7030 C   0  0  1  0  0  0  0  0  0  0  0  0
    2.5670   11.5800   -2.3910 C   0  0  0  0  0  0  0  0  0  0  0  0
    2.7350   12.8460   -3.2260 C   0  0  0  0  0  0  0  0  0  0  0  0
    2.5480   14.0940   -2.3670 C   0  0  2  0  0  0  0  0  0  0  0  0
    3.6200   14.1700   -1.4230 O   0  0  0  0  0  0  0  0  0  0  0  0
    1.1870   14.1220   -1.6160 C   0  0  0  0  0  0  0  0  0  0  0  0
    0.0370   14.3440   -2.6300 C   0  0  0  0  0  0  0  0  0  0  0  0
    1.1850   15.3600   -0.6790 C   0  0  0  0  0  0  0  0  0  0  0  0
    0.9590   10.1320   -0.9270 C   0  0  1  0  0  0  0  0  0  0  0  0
    2.2700    9.7210   -0.1920 C   0  0  0  0  0  0  0  0  0  0  0  0
    0.6590    8.9930   -1.9720 C   0  0  0  0  0  0  0  0  0  0  0  0
   -0.8130    8.7940   -2.3800 C   0  0  0  0  0  0  0  0  0  0  0  0
   -1.7180    8.7120   -1.1460 C   0  0  2  0  0  0  0  0  0  0  0  0
   -1.2900    7.4490   -0.3230 C   0  0  0  0  0  0  0  0  0  0  0  0
   -4.6500    6.5236   -3.6970 H   0  0  0  0  0  0  0  0  0  0  0  0
   -4.0822    8.2258   -3.7797 H   0  0  0  0  0  0  0  0  0  0  0  0
   -2.8916    6.8808   -3.7797 H   0  0  0  0  0  0  0  0  0  0  0  0
   -3.1325    6.4678   -1.5237 H   0  0  0  0  0  0  0  0  0  0  0  0
   -5.3068    5.9528   -1.0621 H   0  0  0  0  0  0  0  0  0  0  0  0
   -5.1918    7.5933   -0.2633 H   0  0  0  0  0  0  0  0  0  0  0  0
   -6.1204    8.5700   -2.3936 H   0  0  0  0  0  0  0  0  0  0  0  0
   -6.4848    6.8686   -2.9038 H   0  0  0  0  0  0  0  0  0  0  0  0
   -7.4274    8.6053   -0.9326 H   0  0  0  0  0  0  0  0  0  0  0  0
   -9.0381    5.0329   -2.7703 H   0  0  0  0  0  0  0  0  0  0  0  0
   -9.8322    6.4288   -3.5750 H   0  0  0  0  0  0  0  0  0  0  0  0
   -8.0411    6.2919   -3.5750 H   0  0  0  0  0  0  0  0  0  0  0  0
  -10.1638    7.3371   -0.0579 H   0  0  0  0  0  0  0  0  0  0  0  0
  -10.4006    8.3778   -1.5027 H   0  0  0  0  0  0  0  0  0  0  0  0
  -11.0114    6.6886   -1.5027 H   0  0  0  0  0  0  0  0  0  0  0  0
   -3.5101    9.2341   -2.2814 H   0  0  0  0  0  0  0  0  0  0  0  0
   -4.6984    9.7760   -0.2472 H   0  0  0  0  0  0  0  0  0  0  0  0
   -4.2219    8.2500    0.5285 H   0  0  0  0  0  0  0  0  0  0  0  0
   -3.0932   10.8166    1.0791 H   0  0  0  0  0  0  0  0  0  0  0  0
   -2.3618    9.2905    1.5683 H   0  0  0  0  0  0  0  0  0  0  0  0
   -2.3796   12.1217   -0.4779 H   0  0  0  0  0  0  0  0  0  0  0  0
   -1.2571   11.6763   -1.8075 H   0  0  0  0  0  0  0  0  0  0  0  0
   -2.9417   11.0528   -1.8075 H   0  0  0  0  0  0  0  0  0  0  0  0
   -0.0541    9.3669    0.8368 H   0  0  0  0  0  0  0  0  0  0  0  0
   -0.8897   11.6795    1.6084 H   0  0  0  0  0  0  0  0  0  0  0  0
    0.8844   11.2104    1.7557 H   0  0  0  0  0  0  0  0  0  0  0  0
    0.3909   13.6625    0.9286 H   0  0  0  0  0  0  0  0  0  0  0  0
    0.3856   11.4744   -2.4644 H   0  0  0  0  0  0  0  0  0  0  0  0
    3.3467   11.5630   -1.6152 H   0  0  0  0  0  0  0  0  0  0  0  0
    2.6526   10.7184   -3.0694 H   0  0  0  0  0  0  0  0  0  0  0  0
    3.7443   12.8577   -3.6633 H   0  0  0  0  0  0  0  0  0  0  0  0
    1.9726   12.8477   -4.0190 H   0  0  0  0  0  0  0  0  0  0  0  0
    2.5520   14.9624   -3.0422 H   0  0  0  0  0  0  0  0  0  0  0  0
    4.1100   13.3320   -1.4670 H   0  0  0  0  0  0  0  0  0  0  0  0
   -0.9017   14.5252   -2.0859 H   0  0  0  0  0  0  0  0  0  0  0  0
    0.2683   15.2141   -3.2620 H   0  0  0  0  0  0  0  0  0  0  0  0
   -0.0722   13.4503   -3.2620 H   0  0  0  0  0  0  0  0  0  0  0  0
    1.1855   15.0265    0.3692 H   0  0  0  0  0  0  0  0  0  0  0  0
    2.0822   15.9668   -0.8712 H   0  0  0  0  0  0  0  0  0  0  0  0
    0.2859   15.9639   -0.8712 H   0  0  0  0  0  0  0  0  0  0  0  0
    2.1117    9.7706    0.8954 H   0  0  0  0  0  0  0  0  0  0  0  0
    2.5432    8.6941   -0.4763 H   0  0  0  0  0  0  0  0  0  0  0  0
    3.0806   10.4081   -0.4763 H   0  0  0  0  0  0  0  0  0  0  0  0
    1.2294    9.2203   -2.8847 H   0  0  0  0  0  0  0  0  0  0  0  0
    0.9468    8.0581   -1.4689 H   0  0  0  0  0  0  0  0  0  0  0  0
   -1.1313    9.6422   -3.0039 H   0  0  0  0  0  0  0  0  0  0  0  0
   -0.8973    7.8510   -2.9400 H   0  0  0  0  0  0  0  0  0  0  0  0
   -1.3647    7.6693    0.7521 H   0  0  0  0  0  0  0  0  0  0  0  0
   -1.9531    6.6073   -0.5717 H   0  0  0  0  0  0  0  0  0  0  0  0
   -0.2518    7.1838   -0.5717 H   0  0  0  0  0  0  0  0  0  0  0  0
  1  2  1  0
  2  3  1  0
  3  4  1  0
  4  5  1  0
  5  6  1  0
  6  7  1  0
  7  8  1  0
  7  9  1  0
  2 10  1  0
 10 11  1  0
 11 12  1  0
 12 13  1  0
 13 14  1  6
 13 15  1  0
 15 16  1  0
 16 17  1  0
 17 18  2  0
 18 19  1  0
 19 20  1  0
 20 21  1  0
 21 22  1  0
 22 23  1  0
 22 24  1  0
 24 25  1  0
 24 26  1  0
 19 27  1  0
 27 28  1  1
 27 29  1  0
 29 30  1  0
 30 31  1  0
 31 32  1  1
  7  5  1  0
 31 10  1  0
 31 13  1  0
 27 15  1  0
 24 18  1  0
  1 33  1  0
  1 34  1  0
  1 35  1  0
  2 36  1  1
  3 37  1  0
  3 38  1  0
  4 39  1  0
  4 40  1  0
  5 41  1  1
  8 42  1  0
  8 43  1  0
  8 44  1  0
  9 45  1  0
  9 46  1  0
  9 47  1  0
 10 48  1  6
 11 49  1  0
 11 50  1  0
 12 51  1  0
 12 52  1  0
 14 53  1  0
 14 54  1  0
 14 55  1  0
 15 56  1  1
 16 57  1  0
 16 58  1  0
 17 59  1  0
 19 60  1  6
 20 61  1  0
 20 62  1  0
 21 63  1  0
 21 64  1  0
 22 65  1  6
 23 66  1  0
 25 67  1  0
 25 68  1  0
 25 69  1  0
 26 70  1  0
 26 71  1  0
 26 72  1  0
 28 73  1  0
 28 74  1  0
 28 75  1  0
 29 76  1  0
 29 77  1  0
 30 78  1  0
 30 79  1  0
 32 80  1  0
 32 81  1  0
 32 82  1  0
M  END
>  <meeko>  (12) 
{"is_sidechain": [false], "intermolecular_energy": 2.731, "internal_energy": -0.839}

$$$$
EPH_relaxed_0001_pdb2pqr_Repair_97_r2_0001_out
     RDKit          3D

 82 86  0  0  0  0  0  0  0  0999 V2000
   -2.1260    7.8840   -1.9990 C   0  0  0  0  0  0  0  0  0  0  0  0
   -2.2920    8.6010   -0.6560 C   0  0  2  0  0  0  0  0  0  0  0  0
   -3.7650    8.6580   -0.2060 C   0  0  0  0  0  0  0  0  0  0  0  0
   -4.5340    7.3560   -0.4480 C   0  0  0  0  0  0  0  0  0  0  0  0
   -5.7690    7.5850   -1.2650 C   0  0  2  0  0  0  0  0  0  0  0  0
   -6.6090    6.4330   -1.4170 O   0  0  0  0  0  0  0  0  0  0  0  0
   -6.0080    6.9420   -2.6190 C   0  0  0  0  0  0  0  0  0  0  0  0
   -5.0010    6.0200   -3.2330 C   0  0  0  0  0  0  0  0  0  0  0  0
   -6.9830    7.5850   -3.5550 C   0  0  0  0  0  0  0  0  0  0  0  0
   -1.7190   10.0110   -0.7460 C   0  0  1  0  0  0  0  0  0  0  0  0
   -1.2220   10.5410    0.6250 C   0  0  0  0  0  0  0  0  0  0  0  0
    0.0230   11.4210    0.3390 C   0  0  0  0  0  0  0  0  0  0  0  0
    0.0040   11.6380   -1.1920 C   0  0  1  0  0  0  0  0  0  0  0  0
   -1.0210   12.7930   -1.4210 C   0  0  0  0  0  0  0  0  0  0  0  0
    1.3810   11.9480   -1.8630 C   0  0  2  0  0  0  0  0  0  0  0  0
    2.0570   13.2490   -1.3960 C   0  0  0  0  0  0  0  0  0  0  0  0
    1.7140   14.4660   -2.1900 C   0  0  0  0  0  0  0  0  0  0  0  0
    1.1260   14.4700   -3.4010 C   0  0  0  0  0  0  0  0  0  0  0  0
    0.8330   13.1570   -4.1390 C   0  0  1  0  0  0  0  0  0  0  0  0
    1.2890   13.2800   -5.6170 C   0  0  0  0  0  0  0  0  0  0  0  0
    0.6810   14.4910   -6.3170 C   0  0  0  0  0  0  0  0  0  0  0  0
    1.0430   15.7820   -5.5880 C   0  0  2  0  0  0  0  0  0  0  0  0
    2.4530   15.9990   -5.7060 O   0  0  0  0  0  0  0  0  0  0  0  0
    0.6400   15.7710   -4.0870 C   0  0  0  0  0  0  0  0  0  0  0  0
   -0.9020   15.8400   -3.9610 C   0  0  0  0  0  0  0  0  0  0  0  0
    1.1870   17.0700   -3.4360 C   0  0  0  0  0  0  0  0  0  0  0  0
    1.3730   11.8350   -3.4420 C   0  0  1  0  0  0  0  0  0  0  0  0
    2.8470   11.5680   -3.8760 C   0  0  0  0  0  0  0  0  0  0  0  0
    0.5310   10.6050   -3.9490 C   0  0  0  0  0  0  0  0  0  0  0  0
   -0.7580   10.2770   -3.1710 C   0  0  0  0  0  0  0  0  0  0  0  0
   -0.4890   10.2220   -1.6640 C   0  0  2  0  0  0  0  0  0  0  0  0
    0.5220    9.0540   -1.4010 C   0  0  0  0  0  0  0  0  0  0  0  0
   -1.8811    6.8263   -1.8221 H   0  0  0  0  0  0  0  0  0  0  0  0
   -3.0638    7.9528   -2.5698 H   0  0  0  0  0  0  0  0  0  0  0  0
   -1.3138    8.3579   -2.5698 H   0  0  0  0  0  0  0  0  0  0  0  0
   -1.7393    8.0224    0.0989 H   0  0  0  0  0  0  0  0  0  0  0  0
   -3.7907    8.8814    0.8708 H   0  0  0  0  0  0  0  0  0  0  0  0
   -4.2550    9.4372   -0.8084 H   0  0  0  0  0  0  0  0  0  0  0  0
   -3.8802    6.6497   -0.9806 H   0  0  0  0  0  0  0  0  0  0  0  0
   -4.8391    6.9516    0.5284 H   0  0  0  0  0  0  0  0  0  0  0  0
   -5.8302    8.6285   -0.9226 H   0  0  0  0  0  0  0  0  0  0  0  0
   -4.4406    5.5069   -2.4375 H   0  0  0  0  0  0  0  0  0  0  0  0
   -5.5177    5.2754   -3.8563 H   0  0  0  0  0  0  0  0  0  0  0  0
   -4.3047    6.6002   -3.8563 H   0  0  0  0  0  0  0  0  0  0  0  0
   -7.7633    8.0996   -2.9750 H   0  0  0  0  0  0  0  0  0  0  0  0
   -6.4567    8.3138   -4.1889 H   0  0  0  0  0  0  0  0  0  0  0  0
   -7.4456    6.8142   -4.1889 H   0  0  0  0  0  0  0  0  0  0  0  0
   -2.5910   10.5389   -1.1594 H   0  0  0  0  0  0  0  0  0  0  0  0
   -2.0079   11.1414    1.1067 H   0  0  0  0  0  0  0  0  0  0  0  0
   -0.9724    9.7113    1.3026 H   0  0  0  0  0  0  0  0  0  0  0  0
   -0.0511   12.3824    0.8684 H   0  0  0  0  0  0  0  0  0  0  0  0
    0.9554   10.9486    0.6818 H   0  0  0  0  0  0  0  0  0  0  0  0
   -1.3627   13.1781   -0.4489 H   0  0  0  0  0  0  0  0  0  0  0  0
   -0.5395   13.6035   -1.9877 H   0  0  0  0  0  0  0  0  0  0  0  0
   -1.8830   12.4112   -1.9877 H   0  0  0  0  0  0  0  0  0  0  0  0
    2.0149   11.1311   -1.4876 H   0  0  0  0  0  0  0  0  0  0  0  0
    1.7616   13.4298   -0.3519 H   0  0  0  0  0  0  0  0  0  0  0  0
    3.1382   13.0945   -1.5273 H   0  0  0  0  0  0  0  0  0  0  0  0
    1.9628   15.4421   -1.7480 H   0  0  0  0  0  0  0  0  0  0  0  0
   -0.2577   13.0207   -4.0954 H   0  0  0  0  0  0  0  0  0  0  0  0
    2.3849   13.3717   -5.6416 H   0  0  0  0  0  0  0  0  0  0  0  0
    0.9464   12.3799   -6.1485 H   0  0  0  0  0  0  0  0  0  0  0  0
    1.0629   14.5404   -7.3474 H   0  0  0  0  0  0  0  0  0  0  0  0
   -0.4137   14.3832   -6.3169 H   0  0  0  0  0  0  0  0  0  0  0  0
    0.4750   16.5975   -6.0596 H   0  0  0  0  0  0  0  0  0  0  0  0
    2.8340   15.2220   -6.1490 H   0  0  0  0  0  0  0  0  0  0  0  0
   -1.1828   15.8526   -2.8975 H   0  0  0  0  0  0  0  0  0  0  0  0
   -1.2691   16.7555   -4.4480 H   0  0  0  0  0  0  0  0  0  0  0  0
   -1.3494   14.9610   -4.4480 H   0  0  0  0  0  0  0  0  0  0  0  0
    1.1474   16.9760   -2.3407 H   0  0  0  0  0  0  0  0  0  0  0  0
    2.2283   17.2286   -3.7530 H   0  0  0  0  0  0  0  0  0  0  0  0
    0.5728   17.9257   -3.7530 H   0  0  0  0  0  0  0  0  0  0  0  0
    3.4775   11.4538   -2.9819 H   0  0  0  0  0  0  0  0  0  0  0  0
    2.8915   10.6472   -4.4761 H   0  0  0  0  0  0  0  0  0  0  0  0
    3.2116   12.4147   -4.4761 H   0  0  0  0  0  0  0  0  0  0  0  0
    0.2480   10.8033   -4.9933 H   0  0  0  0  0  0  0  0  0  0  0  0
    1.1836    9.7311   -3.8061 H   0  0  0  0  0  0  0  0  0  0  0  0
   -1.5090   11.0546   -3.3745 H   0  0  0  0  0  0  0  0  0  0  0  0
   -1.1248    9.2929   -3.4983 H   0  0  0  0  0  0  0  0  0  0  0  0
    0.6446    8.9123   -0.3171 H   0  0  0  0  0  0  0  0  0  0  0  0
    0.1364    8.1271   -1.8507 H   0  0  0  0  0  0  0  0  0  0  0  0
    1.4946    9.3027   -1.8507 H   0  0  0  0  0  0  0  0  0  0  0  0
  1  2  1  0
  2  3  1  0
  3  4  1  0
  4  5  1  0
  5  6  1  0
  6  7  1  0
  7  8  1  0
  7  9  1  0
  2 10  1  0
 10 11  1  0
 11 12  1  0
 12 13  1  0
 13 14  1  1
 13 15  1  0
 15 16  1  0
 16 17  1  0
 17 18  2  0
 18 19  1  0
 19 20  1  0
 20 21  1  0
 21 22  1  0
 22 23  1  0
 22 24  1  0
 24 25  1  0
 24 26  1  0
 19 27  1  0
 27 28  1  6
 27 29  1  0
 29 30  1  0
 30 31  1  0
 31 32  1  6
  7  5  1  0
 31 10  1  0
 31 13  1  0
 27 15  1  0
 24 18  1  0
  1 33  1  0
  1 34  1  0
  1 35  1  0
  2 36  1  1
  3 37  1  0
  3 38  1  0
  4 39  1  0
  4 40  1  0
  5 41  1  6
  8 42  1  0
  8 43  1  0
  8 44  1  0
  9 45  1  0
  9 46  1  0
  9 47  1  0
 10 48  1  6
 11 49  1  0
 11 50  1  0
 12 51  1  0
 12 52  1  0
 14 53  1  0
 14 54  1  0
 14 55  1  0
 15 56  1  1
 16 57  1  0
 16 58  1  0
 17 59  1  0
 19 60  1  6
 20 61  1  0
 20 62  1  0
 21 63  1  0
 21 64  1  0
 22 65  1  6
 23 66  1  0
 25 67  1  0
 25 68  1  0
 25 69  1  0
 26 70  1  0
 26 71  1  0
 26 72  1  0
 28 73  1  0
 28 74  1  0
 28 75  1  0
 29 76  1  0
 29 77  1  0
 30 78  1  0
 30 79  1  0
 32 80  1  0
 32 81  1  0
 32 82  1  0
M  END
>  <meeko>  (13) 
{"is_sidechain": [false], "intermolecular_energy": 2.731, "internal_energy": -0.839}

$$$$
EPH_relaxed_0001_pdb2pqr_Repair_97_r2_0001_out
     RDKit          3D

 82 86  0  0  0  0  0  0  0  0999 V2000
    0.1310    9.4280   -2.6140 C   0  0  0  0  0  0  0  0  0  0  0  0
    1.2250   10.4360   -2.9800 C   0  0  2  0  0  0  0  0  0  0  0  0
    2.6230    9.7880   -3.0140 C   0  0  0  0  0  0  0  0  0  0  0  0
    3.5900   10.4630   -3.9910 C   0  0  0  0  0  0  0  0  0  0  0  0
    4.9540   10.6330   -3.3920 C   0  0  2  0  0  0  0  0  0  0  0  0
    5.5680   11.9020   -3.6520 O   0  0  0  0  0  0  0  0  0  0  0  0
    6.2210   10.7540   -4.2180 C   0  0  0  0  0  0  0  0  0  0  0  0
    6.1850   10.7090   -5.7130 C   0  0  0  0  0  0  0  0  0  0  0  0
    7.5310   10.4260   -3.5710 C   0  0  0  0  0  0  0  0  0  0  0  0
    1.2120   11.5980   -1.9940 C   0  0  1  0  0  0  0  0  0  0  0  0
    2.2680   11.4360   -0.8670 C   0  0  0  0  0  0  0  0  0  0  0  0
    2.7840   12.8590   -0.5310 C   0  0  0  0  0  0  0  0  0  0  0  0
    1.7850   13.8120   -1.2280 C   0  0  1  0  0  0  0  0  0  0  0  0
    0.5630   13.8900   -0.2590 C   0  0  0  0  0  0  0  0  0  0  0  0
    2.3240   15.2330   -1.5920 C   0  0  2  0  0  0  0  0  0  0  0  0
    2.7550   16.0950   -0.3920 C   0  0  0  0  0  0  0  0  0  0  0  0
    1.6850   16.9580    0.1900 C   0  0  0  0  0  0  0  0  0  0  0  0
    0.5120   17.2550   -0.4010 C   0  0  0  0  0  0  0  0  0  0  0  0
    0.2070   16.7830   -1.8280 C   0  0  1  0  0  0  0  0  0  0  0  0
   -0.3790   17.9620   -2.6490 C   0  0  0  0  0  0  0  0  0  0  0  0
   -1.5900   18.6000   -1.9740 C   0  0  0  0  0  0  0  0  0  0  0  0
   -1.2320   19.1090   -0.5800 C   0  0  2  0  0  0  0  0  0  0  0  0
   -0.3090   20.1950   -0.7090 O   0  0  0  0  0  0  0  0  0  0  0  0
   -0.6220   18.0100    0.3350 C   0  0  0  0  0  0  0  0  0  0  0  0
   -1.7180   16.9860    0.7200 C   0  0  0  0  0  0  0  0  0  0  0  0
   -0.1760   18.6860    1.6600 C   0  0  0  0  0  0  0  0  0  0  0  0
    1.3950   16.0450   -2.5830 C   0  0  1  0  0  0  0  0  0  0  0  0
    2.3070   17.0920   -3.2920 C   0  0  0  0  0  0  0  0  0  0  0  0
    0.7950   15.1360   -3.7200 C   0  0  0  0  0  0  0  0  0  0  0  0
    0.3920   13.7030   -3.3250 C   0  0  0  0  0  0  0  0  0  0  0  0
    1.5190   13.0090   -2.5530 C   0  0  2  0  0  0  0  0  0  0  0  0
    2.7540   12.8970   -3.5100 C   0  0  0  0  0  0  0  0  0  0  0  0
    0.0514    9.3546   -1.5193 H   0  0  0  0  0  0  0  0  0  0  0  0
   -0.8305    9.7633   -3.0299 H   0  0  0  0  0  0  0  0  0  0  0  0
    0.3866    8.4423   -3.0299 H   0  0  0  0  0  0  0  0  0  0  0  0
    1.0088   10.8065   -3.9929 H   0  0  0  0  0  0  0  0  0  0  0  0
    3.0556    9.8419   -2.0041 H   0  0  0  0  0  0  0  0  0  0  0  0
    2.4891    8.7518   -3.3580 H   0  0  0  0  0  0  0  0  0  0  0  0
    3.6727    9.8434   -4.8961 H   0  0  0  0  0  0  0  0  0  0  0  0
    3.1941   11.4607   -4.2314 H   0  0  0  0  0  0  0  0  0  0  0  0
    4.6866    9.9891   -2.5412 H   0  0  0  0  0  0  0  0  0  0  0  0
    5.5288    9.8887   -6.0394 H   0  0  0  0  0  0  0  0  0  0  0  0
    5.7985   11.6637   -6.0994 H   0  0  0  0  0  0  0  0  0  0  0  0
    7.2012   10.5415   -6.0994 H   0  0  0  0  0  0  0  0  0  0  0  0
    7.4171   10.4545   -2.4773 H   0  0  0  0  0  0  0  0  0  0  0  0
    7.8510    9.4200   -3.8802 H   0  0  0  0  0  0  0  0  0  0  0  0
    8.2873   11.1625   -3.8802 H   0  0  0  0  0  0  0  0  0  0  0  0
    0.1650   11.5455   -1.6608 H   0  0  0  0  0  0  0  0  0  0  0  0
    1.8069   10.9804    0.0217 H   0  0  0  0  0  0  0  0  0  0  0  0
    3.0922   10.7822   -1.1884 H   0  0  0  0  0  0  0  0  0  0  0  0
    2.7846   13.0250    0.5564 H   0  0  0  0  0  0  0  0  0  0  0  0
    3.8181   13.0183   -0.8705 H   0  0  0  0  0  0  0  0  0  0  0  0
    0.9183   13.8673    0.7818 H   0  0  0  0  0  0  0  0  0  0  0  0
    0.0121   14.8251   -0.4381 H   0  0  0  0  0  0  0  0  0  0  0  0
   -0.1023   13.0325   -0.4381 H   0  0  0  0  0  0  0  0  0  0  0  0
    3.2489   15.0005   -2.1402 H   0  0  0  0  0  0  0  0  0  0  0  0
    3.1156   15.4207    0.3988 H   0  0  0  0  0  0  0  0  0  0  0  0
    3.5265   16.7811   -0.7715 H   0  0  0  0  0  0  0  0  0  0  0  0
    1.8703   17.3875    1.1856 H   0  0  0  0  0  0  0  0  0  0  0  0
   -0.5446   15.9857   -1.7306 H   0  0  0  0  0  0  0  0  0  0  0  0
    0.4007   18.7282   -2.7717 H   0  0  0  0  0  0  0  0  0  0  0  0
   -0.7095   17.5619   -3.6189 H   0  0  0  0  0  0  0  0  0  0  0  0
   -1.9405   19.4439   -2.5864 H   0  0  0  0  0  0  0  0  0  0  0  0
   -2.3797   17.8402   -1.8784 H   0  0  0  0  0  0  0  0  0  0  0  0
   -2.1651   19.4361   -0.0980 H   0  0  0  0  0  0  0  0  0  0  0  0
    0.4790   19.9750   -0.1820 H   0  0  0  0  0  0  0  0  0  0  0  0
   -1.7891   16.9196    1.8157 H   0  0  0  0  0  0  0  0  0  0  0  0
   -2.6849   17.3118    0.3089 H   0  0  0  0  0  0  0  0  0  0  0  0
   -1.4586   15.9992    0.3089 H   0  0  0  0  0  0  0  0  0  0  0  0
   -0.5580   18.1070    2.5137 H   0  0  0  0  0  0  0  0  0  0  0  0
    0.9226   18.7203    1.7024 H   0  0  0  0  0  0  0  0  0  0  0  0
   -0.5767   19.7095    1.7024 H   0  0  0  0  0  0  0  0  0  0  0  0
    2.8313   17.6939   -2.5351 H   0  0  0  0  0  0  0  0  0  0  0  0
    3.0438   16.5705   -3.9206 H   0  0  0  0  0  0  0  0  0  0  0  0
    1.6894   17.7503   -3.9206 H   0  0  0  0  0  0  0  0  0  0  0  0
   -0.1029   15.6388   -4.1086 H   0  0  0  0  0  0  0  0  0  0  0  0
    1.6087   15.0146   -4.4502 H   0  0  0  0  0  0  0  0  0  0  0  0
   -0.5062   13.7436   -2.6913 H   0  0  0  0  0  0  0  0  0  0  0  0
    0.1908   13.1300   -4.2422 H   0  0  0  0  0  0  0  0  0  0  0  0
    3.6741   12.8136   -2.9130 H   0  0  0  0  0  0  0  0  0  0  0  0
    2.6465   12.0049   -4.1445 H   0  0  0  0  0  0  0  0  0  0  0  0
    2.8087   13.7939   -4.1445 H   0  0  0  0  0  0  0  0  0  0  0  0
  1  2  1  0
  2  3  1  0
  3  4  1  0
  4  5  1  0
  5  6  1  0
  6  7  1  0
  7  8  1  0
  7  9  1  0
  2 10  1  0
 10 11  1  0
 11 12  1  0
 12 13  1  0
 13 14  1  1
 13 15  1  0
 15 16  1  0
 16 17  1  0
 17 18  2  0
 18 19  1  0
 19 20  1  0
 20 21  1  0
 21 22  1  0
 22 23  1  0
 22 24  1  0
 24 25  1  0
 24 26  1  0
 19 27  1  0
 27 28  1  6
 27 29  1  0
 29 30  1  0
 30 31  1  0
 31 32  1  6
  7  5  1  0
 31 10  1  0
 31 13  1  0
 27 15  1  0
 24 18  1  0
  1 33  1  0
  1 34  1  0
  1 35  1  0
  2 36  1  6
  3 37  1  0
  3 38  1  0
  4 39  1  0
  4 40  1  0
  5 41  1  1
  8 42  1  0
  8 43  1  0
  8 44  1  0
  9 45  1  0
  9 46  1  0
  9 47  1  0
 10 48  1  1
 11 49  1  0
 11 50  1  0
 12 51  1  0
 12 52  1  0
 14 53  1  0
 14 54  1  0
 14 55  1  0
 15 56  1  6
 16 57  1  0
 16 58  1  0
 17 59  1  0
 19 60  1  1
 20 61  1  0
 20 62  1  0
 21 63  1  0
 21 64  1  0
 22 65  1  1
 23 66  1  0
 25 67  1  0
 25 68  1  0
 25 69  1  0
 26 70  1  0
 26 71  1  0
 26 72  1  0
 28 73  1  0
 28 74  1  0
 28 75  1  0
 29 76  1  0
 29 77  1  0
 30 78  1  0
 30 79  1  0
 32 80  1  0
 32 81  1  0
 32 82  1  0
M  END
>  <meeko>  (14) 
{"is_sidechain": [false], "intermolecular_energy": 2.731, "internal_energy": -0.839}

$$$$
EPH_relaxed_0001_pdb2pqr_Repair_97_r2_0001_out
     RDKit          3D

 82 86  0  0  0  0  0  0  0  0999 V2000
   -4.4390    6.2820   -2.5870 C   0  0  0  0  0  0  0  0  0  0  0  0
   -4.9880    7.6460   -2.1570 C   0  0  2  0  0  0  0  0  0  0  0  0
   -4.7840    7.9050   -0.6500 C   0  0  0  0  0  0  0  0  0  0  0  0
   -3.7870    9.0280   -0.3490 C   0  0  0  0  0  0  0  0  0  0  0  0
   -2.4090    8.6910   -0.8330 C   0  0  2  0  0  0  0  0  0  0  0  0
   -1.3510    9.0990    0.0430 O   0  0  0  0  0  0  0  0  0  0  0  0
   -1.3890    9.7360   -1.2440 C   0  0  0  0  0  0  0  0  0  0  0  0
   -1.7030   11.1980   -1.1910 C   0  0  0  0  0  0  0  0  0  0  0  0
   -0.2720    9.3260   -2.1520 C   0  0  0  0  0  0  0  0  0  0  0  0
   -6.4690    7.7430   -2.5060 C   0  0  1  0  0  0  0  0  0  0  0  0
   -6.8120    7.0490   -3.8500 C   0  0  0  0  0  0  0  0  0  0  0  0
   -8.2270    6.4360   -3.6890 C   0  0  0  0  0  0  0  0  0  0  0  0
   -8.7820    7.0720   -2.3930 C   0  0  1  0  0  0  0  0  0  0  0  0
   -9.3040    8.4770   -2.8280 C   0  0  0  0  0  0  0  0  0  0  0  0
   -9.8820    6.2560   -1.6390 C   0  0  2  0  0  0  0  0  0  0  0  0
  -11.1830    6.0290   -2.4290 C   0  0  0  0  0  0  0  0  0  0  0  0
  -12.2310    7.0760   -2.2450 C   0  0  0  0  0  0  0  0  0  0  0  0
  -12.2510    8.0010   -1.2670 C   0  0  0  0  0  0  0  0  0  0  0  0
  -11.1950    7.9930   -0.1540 C   0  0  1  0  0  0  0  0  0  0  0  0
  -11.8900    8.1690    1.2210 C   0  0  0  0  0  0  0  0  0  0  0  0
  -12.7810    9.4070    1.2710 C   0  0  0  0  0  0  0  0  0  0  0  0
  -13.8540    9.3510    0.1870 C   0  0  2  0  0  0  0  0  0  0  0  0
  -14.7540    8.2780    0.4840 O   0  0  0  0  0  0  0  0  0  0  0  0
  -13.2720    9.1640   -1.2420 C   0  0  0  0  0  0  0  0  0  0  0  0
  -12.5450   10.4590   -1.6810 C   0  0  0  0  0  0  0  0  0  0  0  0
  -14.4630    8.9820   -2.2220 C   0  0  0  0  0  0  0  0  0  0  0  0
  -10.1790    6.7700   -0.1720 C   0  0  1  0  0  0  0  0  0  0  0  0
  -10.7840    5.5640    0.6090 C   0  0  0  0  0  0  0  0  0  0  0  0
   -8.8660    7.1820    0.5950 C   0  0  0  0  0  0  0  0  0  0  0  0
   -7.7680    7.8770   -0.2320 C   0  0  0  0  0  0  0  0  0  0  0  0
   -7.4760    7.1010   -1.5190 C   0  0  2  0  0  0  0  0  0  0  0  0
   -6.9280    5.6900   -1.1130 C   0  0  0  0  0  0  0  0  0  0  0  0
   -4.1989    5.6855   -1.6945 H   0  0  0  0  0  0  0  0  0  0  0  0
   -5.1951    5.7552   -3.1876 H   0  0  0  0  0  0  0  0  0  0  0  0
   -3.5288    6.4259   -3.1876 H   0  0  0  0  0  0  0  0  0  0  0  0
   -4.4254    8.4170   -2.7038 H   0  0  0  0  0  0  0  0  0  0  0  0
   -5.7550    8.1750   -0.2092 H   0  0  0  0  0  0  0  0  0  0  0  0
   -4.3697    6.9822   -0.2179 H   0  0  0  0  0  0  0  0  0  0  0  0
   -4.1250    9.9480   -0.8483 H   0  0  0  0  0  0  0  0  0  0  0  0
   -3.7434    9.1643    0.7416 H   0  0  0  0  0  0  0  0  0  0  0  0
   -2.7804    7.7851   -1.3344 H   0  0  0  0  0  0  0  0  0  0  0  0
   -1.7722   11.5203   -0.1416 H   0  0  0  0  0  0  0  0  0  0  0  0
   -0.9057   11.7628   -1.6962 H   0  0  0  0  0  0  0  0  0  0  0  0
   -2.6619   11.3856   -1.6962 H   0  0  0  0  0  0  0  0  0  0  0  0
    0.5923    9.0088   -1.5500 H   0  0  0  0  0  0  0  0  0  0  0  0
   -0.6031    8.4908   -2.7867 H   0  0  0  0  0  0  0  0  0  0  0  0
    0.0158   10.1771   -2.7867 H   0  0  0  0  0  0  0  0  0  0  0  0
   -6.5875    8.8366   -2.5053 H   0  0  0  0  0  0  0  0  0  0  0  0
   -6.8088    7.7847   -4.6678 H   0  0  0  0  0  0  0  0  0  0  0  0
   -6.0712    6.2734   -4.0942 H   0  0  0  0  0  0  0  0  0  0  0  0
   -8.8616    6.6924   -4.5501 H   0  0  0  0  0  0  0  0  0  0  0  0
   -8.2025    5.3375   -3.6375 H   0  0  0  0  0  0  0  0  0  0  0  0
   -9.5273    9.0781   -1.9342 H   0  0  0  0  0  0  0  0  0  0  0  0
   -8.5344    8.9844   -3.4282 H   0  0  0  0  0  0  0  0  0  0  0  0
  -10.2182    8.3588   -3.4282 H   0  0  0  0  0  0  0  0  0  0  0  0
   -9.4149    5.2649   -1.5417 H   0  0  0  0  0  0  0  0  0  0  0  0
  -10.9285    5.9869   -3.4983 H   0  0  0  0  0  0  0  0  0  0  0  0
  -11.6151    5.0943   -2.0421 H   0  0  0  0  0  0  0  0  0  0  0  0
  -13.0576    7.0932   -2.9705 H   0  0  0  0  0  0  0  0  0  0  0  0
  -10.5376    8.8524   -0.3521 H   0  0  0  0  0  0  0  0  0  0  0  0
  -12.5081    7.2812    1.4201 H   0  0  0  0  0  0  0  0  0  0  0  0
  -11.1033    8.2924    1.9799 H   0  0  0  0  0  0  0  0  0  0  0  0
  -13.2671    9.4611    2.2563 H   0  0  0  0  0  0  0  0  0  0  0  0
  -12.1563   10.2963    1.1010 H   0  0  0  0  0  0  0  0  0  0  0  0
  -14.3757   10.3194    0.1890 H   0  0  0  0  0  0  0  0  0  0  0  0
  -15.5700    8.6690    0.8400 H   0  0  0  0  0  0  0  0  0  0  0  0
  -12.2290   11.0220   -0.7904 H   0  0  0  0  0  0  0  0  0  0  0  0
  -11.6617   10.1978   -2.2822 H   0  0  0  0  0  0  0  0  0  0  0  0
  -13.2280   11.0771   -2.2822 H   0  0  0  0  0  0  0  0  0  0  0  0
  -15.3911    8.8402   -1.6488 H   0  0  0  0  0  0  0  0  0  0  0  0
  -14.5564    9.8763   -2.8556 H   0  0  0  0  0  0  0  0  0  0  0  0
  -14.2851    8.1006   -2.8556 H   0  0  0  0  0  0  0  0  0  0  0  0
  -10.6933    5.7447    1.6903 H   0  0  0  0  0  0  0  0  0  0  0  0
  -11.8456    5.4509    0.3439 H   0  0  0  0  0  0  0  0  0  0  0  0
  -10.2400    4.6454    0.3439 H   0  0  0  0  0  0  0  0  0  0  0  0
   -9.1552    7.8664    1.4061 H   0  0  0  0  0  0  0  0  0  0  0  0
   -8.4184    6.2344    0.9292 H   0  0  0  0  0  0  0  0  0  0  0  0
   -8.1020    8.8923   -0.4921 H   0  0  0  0  0  0  0  0  0  0  0  0
   -6.8481    7.9161    0.3698 H   0  0  0  0  0  0  0  0  0  0  0  0
   -6.8971    5.6103   -0.0163 H   0  0  0  0  0  0  0  0  0  0  0  0
   -7.5884    4.9095   -1.5189 H   0  0  0  0  0  0  0  0  0  0  0  0
   -5.9139    5.5598   -1.5189 H   0  0  0  0  0  0  0  0  0  0  0  0
  1  2  1  0
  2  3  1  0
  3  4  1  0
  4  5  1  0
  5  6  1  0
  6  7  1  0
  7  8  1  0
  7  9  1  0
  2 10  1  0
 10 11  1  0
 11 12  1  0
 12 13  1  0
 13 14  1  6
 13 15  1  0
 15 16  1  0
 16 17  1  0
 17 18  2  0
 18 19  1  0
 19 20  1  0
 20 21  1  0
 21 22  1  0
 22 23  1  0
 22 24  1  0
 24 25  1  0
 24 26  1  0
 19 27  1  0
 27 28  1  1
 27 29  1  0
 29 30  1  0
 30 31  1  0
 31 32  1  1
  7  5  1  0
 31 10  1  0
 31 13  1  0
 27 15  1  0
 24 18  1  0
  1 33  1  0
  1 34  1  0
  1 35  1  0
  2 36  1  6
  3 37  1  0
  3 38  1  0
  4 39  1  0
  4 40  1  0
  5 41  1  6
  8 42  1  0
  8 43  1  0
  8 44  1  0
  9 45  1  0
  9 46  1  0
  9 47  1  0
 10 48  1  6
 11 49  1  0
 11 50  1  0
 12 51  1  0
 12 52  1  0
 14 53  1  0
 14 54  1  0
 14 55  1  0
 15 56  1  1
 16 57  1  0
 16 58  1  0
 17 59  1  0
 19 60  1  6
 20 61  1  0
 20 62  1  0
 21 63  1  0
 21 64  1  0
 22 65  1  6
 23 66  1  0
 25 67  1  0
 25 68  1  0
 25 69  1  0
 26 70  1  0
 26 71  1  0
 26 72  1  0
 28 73  1  0
 28 74  1  0
 28 75  1  0
 29 76  1  0
 29 77  1  0
 30 78  1  0
 30 79  1  0
 32 80  1  0
 32 81  1  0
 32 82  1  0
M  END
>  <meeko>  (15) 
{"is_sidechain": [false], "intermolecular_energy": 2.731, "internal_energy": -0.839}

$$$$
EPH_relaxed_0001_pdb2pqr_Repair_97_r2_0001_out
     RDKit          3D

 82 86  0  0  0  0  0  0  0  0999 V2000
   -1.3440    6.9090   -3.0540 C   0  0  0  0  0  0  0  0  0  0  0  0
   -2.5600    7.3780   -2.2510 C   0  0  2  0  0  0  0  0  0  0  0  0
   -3.8500    7.3780   -3.0960 C   0  0  0  0  0  0  0  0  0  0  0  0
   -4.6230    6.0570   -3.0400 C   0  0  0  0  0  0  0  0  0  0  0  0
   -5.9830    6.1840   -3.6560 C   0  0  2  0  0  0  0  0  0  0  0  0
   -6.5780    7.4820   -3.5300 O   0  0  0  0  0  0  0  0  0  0  0  0
   -7.2490    6.4090   -2.8500 C   0  0  0  0  0  0  0  0  0  0  0  0
   -7.2140    6.5190   -1.3570 C   0  0  0  0  0  0  0  0  0  0  0  0
   -8.5630    6.0350   -3.4610 C   0  0  0  0  0  0  0  0  0  0  0  0
   -2.3060    8.7710   -1.6890 C   0  0  1  0  0  0  0  0  0  0  0  0
   -3.1710    9.0780   -0.4370 C   0  0  0  0  0  0  0  0  0  0  0  0
   -2.3060    9.9620    0.4980 C   0  0  0  0  0  0  0  0  0  0  0  0
   -1.1130   10.4080   -0.3800 C   0  0  1  0  0  0  0  0  0  0  0  0
   -1.6580   11.6070   -1.2180 C   0  0  0  0  0  0  0  0  0  0  0  0
    0.2010   10.7850    0.3800 C   0  0  2  0  0  0  0  0  0  0  0  0
    0.0810   11.9850    1.3350 C   0  0  0  0  0  0  0  0  0  0  0  0
    0.3840   13.3150    0.7280 C   0  0  0  0  0  0  0  0  0  0  0  0
    1.0090   13.5150   -0.4470 C   0  0  0  0  0  0  0  0  0  0  0  0
    1.5710   12.3350   -1.2510 C   0  0  1  0  0  0  0  0  0  0  0  0
    3.0110   12.6700   -1.7230 C   0  0  0  0  0  0  0  0  0  0  0  0
    3.0830   13.9860   -2.4910 C   0  0  0  0  0  0  0  0  0  0  0  0
    2.5700   15.1440   -1.6380 C   0  0  2  0  0  0  0  0  0  0  0  0
    3.4700   15.3440   -0.5440 O   0  0  0  0  0  0  0  0  0  0  0  0
    1.1310   14.9150   -1.0970 C   0  0  0  0  0  0  0  0  0  0  0  0
    0.1170   14.9990   -2.2650 C   0  0  0  0  0  0  0  0  0  0  0  0
    0.7890   16.0890   -0.1400 C   0  0  0  0  0  0  0  0  0  0  0  0
    1.4740   10.9110   -0.5520 C   0  0  1  0  0  0  0  0  0  0  0  0
    2.7170   10.6800    0.3600 C   0  0  0  0  0  0  0  0  0  0  0  0
    1.5200    9.7920   -1.6580 C   0  0  0  0  0  0  0  0  0  0  0  0
    0.1740    9.3790   -2.2850 C   0  0  0  0  0  0  0  0  0  0  0  0
   -0.8700    9.0910   -1.2020 C   0  0  2  0  0  0  0  0  0  0  0  0
   -0.3600    7.8750   -0.3570 C   0  0  0  0  0  0  0  0  0  0  0  0
   -0.5452    6.6009   -2.3634 H   0  0  0  0  0  0  0  0  0  0  0  0
   -1.6297    6.0566   -3.6878 H   0  0  0  0  0  0  0  0  0  0  0  0
   -0.9833    7.7325   -3.6878 H   0  0  0  0  0  0  0  0  0  0  0  0
   -2.7060    6.6651   -1.4261 H   0  0  0  0  0  0  0  0  0  0  0  0
   -4.5063    8.1802   -2.7277 H   0  0  0  0  0  0  0  0  0  0  0  0
   -3.5484    7.5297   -4.1429 H   0  0  0  0  0  0  0  0  0  0  0  0
   -4.0552    5.2884   -3.5849 H   0  0  0  0  0  0  0  0  0  0  0  0
   -4.7498    5.7785   -1.9834 H   0  0  0  0  0  0  0  0  0  0  0  0
   -5.7247    5.4514   -4.4348 H   0  0  0  0  0  0  0  0  0  0  0  0
   -7.5189    5.5606   -0.9115 H   0  0  0  0  0  0  0  0  0  0  0  0
   -6.1928    6.7663   -1.0314 H   0  0  0  0  0  0  0  0  0  0  0  0
   -7.9045    7.3109   -1.0314 H   0  0  0  0  0  0  0  0  0  0  0  0
   -9.2922    5.8275   -2.6640 H   0  0  0  0  0  0  0  0  0  0  0  0
   -8.9272    6.8652   -4.0841 H   0  0  0  0  0  0  0  0  0  0  0  0
   -8.4354    5.1375   -4.0841 H   0  0  0  0  0  0  0  0  0  0  0  0
   -2.5455    9.3738   -2.5774 H   0  0  0  0  0  0  0  0  0  0  0  0
   -4.0840    9.6170   -0.7302 H   0  0  0  0  0  0  0  0  0  0  0  0
   -3.4777    8.1504    0.0685 H   0  0  0  0  0  0  0  0  0  0  0  0
   -2.8785   10.8340    0.8471 H   0  0  0  0  0  0  0  0  0  0  0  0
   -1.9814    9.4221    1.3997 H   0  0  0  0  0  0  0  0  0  0  0  0
   -2.0164   12.3955   -0.5398 H   0  0  0  0  0  0  0  0  0  0  0  0
   -0.8532   12.0069   -1.8523 H   0  0  0  0  0  0  0  0  0  0  0  0
   -2.4885   11.2636   -1.8523 H   0  0  0  0  0  0  0  0  0  0  0  0
    0.3624    9.9077    1.0237 H   0  0  0  0  0  0  0  0  0  0  0  0
   -0.9498   12.0129    1.7181 H   0  0  0  0  0  0  0  0  0  0  0  0
    0.8375   11.8280    2.1180 H   0  0  0  0  0  0  0  0  0  0  0  0
    0.0696   14.2075    1.2890 H   0  0  0  0  0  0  0  0  0  0  0  0
    0.9098   12.2177   -2.1223 H   0  0  0  0  0  0  0  0  0  0  0  0
    3.6640   12.7404   -0.8406 H   0  0  0  0  0  0  0  0  0  0  0  0
    3.3347   11.8682   -2.4029 H   0  0  0  0  0  0  0  0  0  0  0  0
    4.1281   14.1817   -2.7728 H   0  0  0  0  0  0  0  0  0  0  0  0
    2.4518   13.9041   -3.3882 H   0  0  0  0  0  0  0  0  0  0  0  0
    2.5244   16.0344   -2.2822 H   0  0  0  0  0  0  0  0  0  0  0  0
    2.9340   15.4680    0.2580 H   0  0  0  0  0  0  0  0  0  0  0  0
   -0.9023   15.0834   -1.8603 H   0  0  0  0  0  0  0  0  0  0  0  0
    0.3408   15.8817   -2.8821 H   0  0  0  0  0  0  0  0  0  0  0  0
    0.1925   14.0915   -2.8821 H   0  0  0  0  0  0  0  0  0  0  0  0
    0.8870   15.7526    0.9027 H   0  0  0  0  0  0  0  0  0  0  0  0
    1.4812   16.9243   -0.3224 H   0  0  0  0  0  0  0  0  0  0  0  0
   -0.2434   16.4219   -0.3224 H   0  0  0  0  0  0  0  0  0  0  0  0
    2.4128   10.7365    1.4156 H   0  0  0  0  0  0  0  0  0  0  0  0
    3.1435    9.6872    0.1540 H   0  0  0  0  0  0  0  0  0  0  0  0
    3.4717   11.4533    0.1540 H   0  0  0  0  0  0  0  0  0  0  0  0
    2.1685   10.1530   -2.4699 H   0  0  0  0  0  0  0  0  0  0  0  0
    1.8853    8.8919   -1.1418 H   0  0  0  0  0  0  0  0  0  0  0  0
   -0.1893   10.1950   -2.9271 H   0  0  0  0  0  0  0  0  0  0  0  0
    0.3283    8.4639   -2.8755 H   0  0  0  0  0  0  0  0  0  0  0  0
   -0.4570    8.1063    0.7140 H   0  0  0  0  0  0  0  0  0  0  0  0
   -0.9606    6.9849   -0.5958 H   0  0  0  0  0  0  0  0  0  0  0  0
    0.6959    7.6797   -0.5958 H   0  0  0  0  0  0  0  0  0  0  0  0
  1  2  1  0
  2  3  1  0
  3  4  1  0
  4  5  1  0
  5  6  1  0
  6  7  1  0
  7  8  1  0
  7  9  1  0
  2 10  1  0
 10 11  1  0
 11 12  1  0
 12 13  1  0
 13 14  1  6
 13 15  1  0
 15 16  1  0
 16 17  1  0
 17 18  2  0
 18 19  1  0
 19 20  1  0
 20 21  1  0
 21 22  1  0
 22 23  1  0
 22 24  1  0
 24 25  1  0
 24 26  1  0
 19 27  1  0
 27 28  1  1
 27 29  1  0
 29 30  1  0
 30 31  1  0
 31 32  1  1
  7  5  1  0
 31 10  1  0
 31 13  1  0
 27 15  1  0
 24 18  1  0
  1 33  1  0
  1 34  1  0
  1 35  1  0
  2 36  1  1
  3 37  1  0
  3 38  1  0
  4 39  1  0
  4 40  1  0
  5 41  1  6
  8 42  1  0
  8 43  1  0
  8 44  1  0
  9 45  1  0
  9 46  1  0
  9 47  1  0
 10 48  1  6
 11 49  1  0
 11 50  1  0
 12 51  1  0
 12 52  1  0
 14 53  1  0
 14 54  1  0
 14 55  1  0
 15 56  1  1
 16 57  1  0
 16 58  1  0
 17 59  1  0
 19 60  1  6
 20 61  1  0
 20 62  1  0
 21 63  1  0
 21 64  1  0
 22 65  1  6
 23 66  1  0
 25 67  1  0
 25 68  1  0
 25 69  1  0
 26 70  1  0
 26 71  1  0
 26 72  1  0
 28 73  1  0
 28 74  1  0
 28 75  1  0
 29 76  1  0
 29 77  1  0
 30 78  1  0
 30 79  1  0
 32 80  1  0
 32 81  1  0
 32 82  1  0
M  END
>  <meeko>  (16) 
{"is_sidechain": [false], "intermolecular_energy": 2.731, "internal_energy": -0.839}

$$$$
EPH_relaxed_0001_pdb2pqr_Repair_97_r2_0001_out
     RDKit          3D

 82 86  0  0  0  0  0  0  0  0999 V2000
  -14.8780    8.6940    0.8790 C   0  0  0  0  0  0  0  0  0  0  0  0
  -14.2280    8.9290   -0.4880 C   0  0  2  0  0  0  0  0  0  0  0  0
  -14.7490    7.9460   -1.5550 C   0  0  0  0  0  0  0  0  0  0  0  0
  -15.2870    8.6320   -2.8140 C   0  0  0  0  0  0  0  0  0  0  0  0
  -15.2260    7.7280   -4.0070 C   0  0  2  0  0  0  0  0  0  0  0  0
  -13.9100    7.5340   -4.5440 O   0  0  0  0  0  0  0  0  0  0  0  0
  -14.8510    8.2040   -5.3990 C   0  0  0  0  0  0  0  0  0  0  0  0
  -14.5140    9.6370   -5.6690 C   0  0  0  0  0  0  0  0  0  0  0  0
  -15.2850    7.3870   -6.5750 C   0  0  0  0  0  0  0  0  0  0  0  0
  -12.7130    8.8140   -0.3690 C   0  0  1  0  0  0  0  0  0  0  0  0
  -12.2260    8.8320    1.1050 C   0  0  0  0  0  0  0  0  0  0  0  0
  -10.9980    7.8890    1.1820 C   0  0  0  0  0  0  0  0  0  0  0  0
  -10.6180    7.6230   -0.2930 C   0  0  1  0  0  0  0  0  0  0  0  0
   -9.7890    8.8730   -0.7250 C   0  0  0  0  0  0  0  0  0  0  0  0
   -9.8470    6.2920   -0.5790 C   0  0  2  0  0  0  0  0  0  0  0  0
   -8.4710    6.1770    0.0990 C   0  0  0  0  0  0  0  0  0  0  0  0
   -7.3200    6.6870   -0.7040 C   0  0  0  0  0  0  0  0  0  0  0  0
   -7.3430    6.9530   -2.0230 C   0  0  0  0  0  0  0  0  0  0  0  0
   -8.5890    6.6500   -2.8660 C   0  0  1  0  0  0  0  0  0  0  0  0
   -8.1670    5.9290   -4.1730 C   0  0  0  0  0  0  0  0  0  0  0  0
   -7.1080    6.7030   -4.9520 C   0  0  0  0  0  0  0  0  0  0  0  0
   -5.8630    6.9340   -4.1000 C   0  0  2  0  0  0  0  0  0  0  0  0
   -5.2370    5.6720   -3.8480 O   0  0  0  0  0  0  0  0  0  0  0  0
   -6.1660    7.6460   -2.7530 C   0  0  0  0  0  0  0  0  0  0  0  0
   -6.5600    9.1200   -3.0200 C   0  0  0  0  0  0  0  0  0  0  0  0
   -4.8500    7.6900   -1.9300 C   0  0  0  0  0  0  0  0  0  0  0  0
   -9.7720    5.9040   -2.1110 C   0  0  1  0  0  0  0  0  0  0  0  0
   -9.5500    4.3610   -2.1690 C   0  0  0  0  0  0  0  0  0  0  0  0
  -11.1230    6.1860   -2.8680 C   0  0  0  0  0  0  0  0  0  0  0  0
  -11.8980    7.4530   -2.4570 C   0  0  0  0  0  0  0  0  0  0  0  0
  -12.0500    7.5330   -0.9350 C   0  0  2  0  0  0  0  0  0  0  0  0
  -12.8990    6.3000   -0.4740 C   0  0  0  0  0  0  0  0  0  0  0  0
  -14.1632    8.9524    1.6742 H   0  0  0  0  0  0  0  0  0  0  0  0
  -15.7741    9.3250    0.9722 H   0  0  0  0  0  0  0  0  0  0  0  0
  -15.1634    7.6358    0.9722 H   0  0  0  0  0  0  0  0  0  0  0  0
  -14.4994    9.9439   -0.8140 H   0  0  0  0  0  0  0  0  0  0  0  0
  -13.9228    7.2814   -1.8478 H   0  0  0  0  0  0  0  0  0  0  0  0
  -15.5891    7.3977   -1.1039 H   0  0  0  0  0  0  0  0  0  0  0  0
  -16.3334    8.9241   -2.6413 H   0  0  0  0  0  0  0  0  0  0  0  0
  -14.6604    9.5126   -3.0188 H   0  0  0  0  0  0  0  0  0  0  0  0
  -16.0752    7.1372   -3.6330 H   0  0  0  0  0  0  0  0  0  0  0  0
  -14.3886   10.1702   -4.7151 H   0  0  0  0  0  0  0  0  0  0  0  0
  -13.5786    9.6914   -6.2452 H   0  0  0  0  0  0  0  0  0  0  0  0
  -15.3271   10.1026   -6.2452 H   0  0  0  0  0  0  0  0  0  0  0  0
  -15.7737    6.4669   -6.2220 H   0  0  0  0  0  0  0  0  0  0  0  0
  -15.9933    7.9681   -7.1838 H   0  0  0  0  0  0  0  0  0  0  0  0
  -14.4070    7.1254   -7.1838 H   0  0  0  0  0  0  0  0  0  0  0  0
  -12.4147    9.6878   -0.9669 H   0  0  0  0  0  0  0  0  0  0  0  0
  -11.9384    9.8530    1.3965 H   0  0  0  0  0  0  0  0  0  0  0  0
  -13.0220    8.5004    1.7880 H   0  0  0  0  0  0  0  0  0  0  0  0
  -10.1678    8.3751    1.7154 H   0  0  0  0  0  0  0  0  0  0  0  0
  -11.2181    6.9610    1.7301 H   0  0  0  0  0  0  0  0  0  0  0  0
   -9.4356    9.4058    0.1701 H   0  0  0  0  0  0  0  0  0  0  0  0
   -8.9251    8.5506   -1.3248 H   0  0  0  0  0  0  0  0  0  0  0  0
  -10.4221    9.5434   -1.3248 H   0  0  0  0  0  0  0  0  0  0  0  0
  -10.4836    5.5397   -0.0903 H   0  0  0  0  0  0  0  0  0  0  0  0
   -8.5072    6.7452    1.0402 H   0  0  0  0  0  0  0  0  0  0  0  0
   -8.2904    5.1012    0.2407 H   0  0  0  0  0  0  0  0  0  0  0  0
   -6.3728    6.8600   -0.1722 H   0  0  0  0  0  0  0  0  0  0  0  0
   -9.0384    7.6248   -3.1065 H   0  0  0  0  0  0  0  0  0  0  0  0
   -7.7619    4.9394   -3.9149 H   0  0  0  0  0  0  0  0  0  0  0  0
   -9.0585    5.8472   -4.8121 H   0  0  0  0  0  0  0  0  0  0  0  0
   -6.8294    6.1291   -5.8481 H   0  0  0  0  0  0  0  0  0  0  0  0
   -7.5255    7.6805   -5.2351 H   0  0  0  0  0  0  0  0  0  0  0  0
   -5.1961    7.6026   -4.6641 H   0  0  0  0  0  0  0  0  0  0  0  0
   -4.4310    5.6300   -4.3890 H   0  0  0  0  0  0  0  0  0  0  0  0
   -6.6994    9.6416   -2.0616 H   0  0  0  0  0  0  0  0  0  0  0  0
   -5.7625    9.6145   -3.5940 H   0  0  0  0  0  0  0  0  0  0  0  0
   -7.4979    9.1506   -3.5940 H   0  0  0  0  0  0  0  0  0  0  0  0
   -5.0886    7.6820   -0.8562 H   0  0  0  0  0  0  0  0  0  0  0  0
   -4.2345    6.8119   -2.1754 H   0  0  0  0  0  0  0  0  0  0  0  0
   -4.2946    8.6072   -2.1754 H   0  0  0  0  0  0  0  0  0  0  0  0
   -9.4923    3.9602   -1.1463 H   0  0  0  0  0  0  0  0  0  0  0  0
  -10.3896    3.8895   -2.7008 H   0  0  0  0  0  0  0  0  0  0  0  0
   -8.6116    4.1453   -2.7008 H   0  0  0  0  0  0  0  0  0  0  0  0
  -10.8924    6.2700   -3.9403 H   0  0  0  0  0  0  0  0  0  0  0  0
  -11.7824    5.3464   -2.6029 H   0  0  0  0  0  0  0  0  0  0  0  0
  -11.3518    8.3397   -2.8112 H   0  0  0  0  0  0  0  0  0  0  0  0
  -12.9005    7.4127   -2.9080 H   0  0  0  0  0  0  0  0  0  0  0  0
  -12.9246    6.2628    0.6251 H   0  0  0  0  0  0  0  0  0  0  0  0
  -13.9240    6.3950   -0.8617 H   0  0  0  0  0  0  0  0  0  0  0  0
  -12.4445    5.3763   -0.8617 H   0  0  0  0  0  0  0  0  0  0  0  0
  1  2  1  0
  2  3  1  0
  3  4  1  0
  4  5  1  0
  5  6  1  0
  6  7  1  0
  7  8  1  0
  7  9  1  0
  2 10  1  0
 10 11  1  0
 11 12  1  0
 12 13  1  0
 13 14  1  6
 13 15  1  0
 15 16  1  0
 16 17  1  0
 17 18  2  0
 18 19  1  0
 19 20  1  0
 20 21  1  0
 21 22  1  0
 22 23  1  0
 22 24  1  0
 24 25  1  0
 24 26  1  0
 19 27  1  0
 27 28  1  1
 27 29  1  0
 29 30  1  0
 30 31  1  0
 31 32  1  1
  7  5  1  0
 31 10  1  0
 31 13  1  0
 27 15  1  0
 24 18  1  0
  1 33  1  0
  1 34  1  0
  1 35  1  0
  2 36  1  6
  3 37  1  0
  3 38  1  0
  4 39  1  0
  4 40  1  0
  5 41  1  6
  8 42  1  0
  8 43  1  0
  8 44  1  0
  9 45  1  0
  9 46  1  0
  9 47  1  0
 10 48  1  6
 11 49  1  0
 11 50  1  0
 12 51  1  0
 12 52  1  0
 14 53  1  0
 14 54  1  0
 14 55  1  0
 15 56  1  1
 16 57  1  0
 16 58  1  0
 17 59  1  0
 19 60  1  6
 20 61  1  0
 20 62  1  0
 21 63  1  0
 21 64  1  0
 22 65  1  6
 23 66  1  0
 25 67  1  0
 25 68  1  0
 25 69  1  0
 26 70  1  0
 26 71  1  0
 26 72  1  0
 28 73  1  0
 28 74  1  0
 28 75  1  0
 29 76  1  0
 29 77  1  0
 30 78  1  0
 30 79  1  0
 32 80  1  0
 32 81  1  0
 32 82  1  0
M  END
>  <meeko>  (17) 
{"is_sidechain": [false], "intermolecular_energy": 2.731, "internal_energy": -0.839}

$$$$
EPH_relaxed_0001_pdb2pqr_Repair_97_r2_0001_out
     RDKit          3D

 82 86  0  0  0  0  0  0  0  0999 V2000
   -2.4880    7.7820   -0.0520 C   0  0  0  0  0  0  0  0  0  0  0  0
   -3.1080    9.1820   -0.0480 C   0  0  2  0  0  0  0  0  0  0  0  0
   -4.5980    9.1580   -0.4430 C   0  0  0  0  0  0  0  0  0  0  0  0
   -5.1850    7.7480   -0.5460 C   0  0  0  0  0  0  0  0  0  0  0  0
   -5.8510    7.5210   -1.8700 C   0  0  2  0  0  0  0  0  0  0  0  0
   -6.7950    8.5310   -2.2470 O   0  0  0  0  0  0  0  0  0  0  0  0
   -7.3290    7.2160   -2.0220 C   0  0  0  0  0  0  0  0  0  0  0  0
   -8.2330    7.1220   -0.8320 C   0  0  0  0  0  0  0  0  0  0  0  0
   -7.7940    6.5330   -3.2700 C   0  0  0  0  0  0  0  0  0  0  0  0
   -2.3340   10.0950   -0.9910 C   0  0  1  0  0  0  0  0  0  0  0  0
   -2.9700   11.5060   -1.1120 C   0  0  0  0  0  0  0  0  0  0  0  0
   -1.8010   12.5110   -1.2770 C   0  0  0  0  0  0  0  0  0  0  0  0
   -0.5670   11.6280   -1.5760 C   0  0  1  0  0  0  0  0  0  0  0  0
   -0.6670   11.3030   -3.0990 C   0  0  0  0  0  0  0  0  0  0  0  0
    0.8250   12.2380   -1.2070 C   0  0  2  0  0  0  0  0  0  0  0  0
    1.1970   13.5220   -1.9680 C   0  0  0  0  0  0  0  0  0  0  0  0
    1.9420   13.3130   -3.2440 C   0  0  0  0  0  0  0  0  0  0  0  0
    2.5460   12.1710   -3.6200 C   0  0  0  0  0  0  0  0  0  0  0  0
    2.5990   10.9610   -2.6770 C   0  0  1  0  0  0  0  0  0  0  0  0
    4.0380   10.3830   -2.6560 C   0  0  0  0  0  0  0  0  0  0  0  0
    4.5580   10.0570   -4.0530 C   0  0  0  0  0  0  0  0  0  0  0  0
    4.5450   11.2970   -4.9430 C   0  0  2  0  0  0  0  0  0  0  0  0
    5.5010   12.2360   -4.4410 O   0  0  0  0  0  0  0  0  0  0  0  0
    3.1470   11.9720   -5.0330 C   0  0  0  0  0  0  0  0  0  0  0  0
    2.1860   11.0730   -5.8480 C   0  0  0  0  0  0  0  0  0  0  0  0
    3.3030   13.2870   -5.8440 C   0  0  0  0  0  0  0  0  0  0  0  0
    2.0130   11.1940   -1.2180 C   0  0  1  0  0  0  0  0  0  0  0  0
    3.1220   11.7710   -0.2860 C   0  0  0  0  0  0  0  0  0  0  0  0
    1.5960    9.8050   -0.6040 C   0  0  0  0  0  0  0  0  0  0  0  0
    0.1680    9.3130   -0.9070 C   0  0  0  0  0  0  0  0  0  0  0  0
   -0.8620   10.4120   -0.6250 C   0  0  2  0  0  0  0  0  0  0  0  0
   -0.8000   10.7450    0.9040 C   0  0  0  0  0  0  0  0  0  0  0  0
   -2.3384    7.4443    0.9841 H   0  0  0  0  0  0  0  0  0  0  0  0
   -3.1613    7.0843   -0.5715 H   0  0  0  0  0  0  0  0  0  0  0  0
   -1.5189    7.8117   -0.5715 H   0  0  0  0  0  0  0  0  0  0  0  0
   -3.0452    9.5693    0.9797 H   0  0  0  0  0  0  0  0  0  0  0  0
   -5.1671    9.7165    0.3147 H   0  0  0  0  0  0  0  0  0  0  0  0
   -4.6728    9.6110   -1.4426 H   0  0  0  0  0  0  0  0  0  0  0  0
   -4.3744    7.0144   -0.4241 H   0  0  0  0  0  0  0  0  0  0  0  0
   -5.9423    7.6328    0.2435 H   0  0  0  0  0  0  0  0  0  0  0  0
   -4.9513    7.0252   -2.2633 H   0  0  0  0  0  0  0  0  0  0  0  0
   -7.6346    7.1842    0.0889 H   0  0  0  0  0  0  0  0  0  0  0  0
   -8.9571    7.9497   -0.8553 H   0  0  0  0  0  0  0  0  0  0  0  0
   -8.7714    6.1630   -0.8553 H   0  0  0  0  0  0  0  0  0  0  0  0
   -8.3946    5.6509   -3.0032 H   0  0  0  0  0  0  0  0  0  0  0  0
   -8.4070    7.2285   -3.8620 H   0  0  0  0  0  0  0  0  0  0  0  0
   -6.9222    6.2176   -3.8620 H   0  0  0  0  0  0  0  0  0  0  0  0
   -2.3721    9.4883   -1.9078 H   0  0  0  0  0  0  0  0  0  0  0  0
   -3.6329   11.5488   -1.9888 H   0  0  0  0  0  0  0  0  0  0  0  0
   -3.5736   11.7446   -0.2239 H   0  0  0  0  0  0  0  0  0  0  0  0
   -1.9965   13.2006   -2.1114 H   0  0  0  0  0  0  0  0  0  0  0  0
   -1.6596   13.1369   -0.3835 H   0  0  0  0  0  0  0  0  0  0  0  0
   -0.9882   10.2592   -3.2309 H   0  0  0  0  0  0  0  0  0  0  0  0
   -1.4001   11.9745   -3.5699 H   0  0  0  0  0  0  0  0  0  0  0  0
    0.3168   11.4462   -3.5699 H   0  0  0  0  0  0  0  0  0  0  0  0
    0.6790   12.5436   -0.1605 H   0  0  0  0  0  0  0  0  0  0  0  0
    0.2666   14.0603   -2.2018 H   0  0  0  0  0  0  0  0  0  0  0  0
    1.8755   14.0817   -1.3074 H   0  0  0  0  0  0  0  0  0  0  0  0
    2.0025   14.1655   -3.9365 H   0  0  0  0  0  0  0  0  0  0  0  0
    1.9052   10.2175   -3.0964 H   0  0  0  0  0  0  0  0  0  0  0  0
    4.7084   11.1226   -2.1939 H   0  0  0  0  0  0  0  0  0  0  0  0
    4.0128    9.4451   -2.0818 H   0  0  0  0  0  0  0  0  0  0  0  0
    5.5887    9.6808   -3.9748 H   0  0  0  0  0  0  0  0  0  0  0  0
    3.9037    9.2954   -4.5023 H   0  0  0  0  0  0  0  0  0  0  0  0
    4.8037   10.9737   -5.9621 H   0  0  0  0  0  0  0  0  0  0  0  0
    5.7840   12.7940   -5.1840 H   0  0  0  0  0  0  0  0  0  0  0  0
    1.5596   10.4870   -5.1594 H   0  0  0  0  0  0  0  0  0  0  0  0
    1.5442   11.7025   -6.4819 H   0  0  0  0  0  0  0  0  0  0  0  0
    2.7713   10.3907   -6.4819 H   0  0  0  0  0  0  0  0  0  0  0  0
    3.4036   14.1354   -5.1511 H   0  0  0  0  0  0  0  0  0  0  0  0
    4.1998   13.2228   -6.4777 H   0  0  0  0  0  0  0  0  0  0  0  0
    2.4160   13.4344   -6.4777 H   0  0  0  0  0  0  0  0  0  0  0  0
    2.8329   11.6206    0.7646 H   0  0  0  0  0  0  0  0  0  0  0  0
    4.0723   11.2530   -0.4826 H   0  0  0  0  0  0  0  0  0  0  0  0
    3.2432   12.8465   -0.4826 H   0  0  0  0  0  0  0  0  0  0  0  0
    2.2969    9.0482   -0.9861 H   0  0  0  0  0  0  0  0  0  0  0  0
    1.6252    9.9513    0.4858 H   0  0  0  0  0  0  0  0  0  0  0  0
    0.1043    9.0234   -1.9663 H   0  0  0  0  0  0  0  0  0  0  0  0
   -0.0513    8.4519   -0.2586 H   0  0  0  0  0  0  0  0  0  0  0  0
   -0.9708    9.8275    1.4863 H   0  0  0  0  0  0  0  0  0  0  0  0
    0.1902   11.1563    1.1498 H   0  0  0  0  0  0  0  0  0  0  0  0
   -1.5758   11.4851    1.1498 H   0  0  0  0  0  0  0  0  0  0  0  0
  1  2  1  0
  2  3  1  0
  3  4  1  0
  4  5  1  0
  5  6  1  0
  6  7  1  0
  7  8  1  0
  7  9  1  0
  2 10  1  0
 10 11  1  0
 11 12  1  0
 12 13  1  0
 13 14  1  6
 13 15  1  0
 15 16  1  0
 16 17  1  0
 17 18  2  0
 18 19  1  0
 19 20  1  0
 20 21  1  0
 21 22  1  0
 22 23  1  0
 22 24  1  0
 24 25  1  0
 24 26  1  0
 19 27  1  0
 27 28  1  1
 27 29  1  0
 29 30  1  0
 30 31  1  0
 31 32  1  1
  7  5  1  0
 31 10  1  0
 31 13  1  0
 27 15  1  0
 24 18  1  0
  1 33  1  0
  1 34  1  0
  1 35  1  0
  2 36  1  1
  3 37  1  0
  3 38  1  0
  4 39  1  0
  4 40  1  0
  5 41  1  6
  8 42  1  0
  8 43  1  0
  8 44  1  0
  9 45  1  0
  9 46  1  0
  9 47  1  0
 10 48  1  6
 11 49  1  0
 11 50  1  0
 12 51  1  0
 12 52  1  0
 14 53  1  0
 14 54  1  0
 14 55  1  0
 15 56  1  1
 16 57  1  0
 16 58  1  0
 17 59  1  0
 19 60  1  6
 20 61  1  0
 20 62  1  0
 21 63  1  0
 21 64  1  0
 22 65  1  6
 23 66  1  0
 25 67  1  0
 25 68  1  0
 25 69  1  0
 26 70  1  0
 26 71  1  0
 26 72  1  0
 28 73  1  0
 28 74  1  0
 28 75  1  0
 29 76  1  0
 29 77  1  0
 30 78  1  0
 30 79  1  0
 32 80  1  0
 32 81  1  0
 32 82  1  0
M  END
>  <meeko>  (18) 
{"is_sidechain": [false], "intermolecular_energy": 2.731, "internal_energy": -0.839}

$$$$
EPH_relaxed_0001_pdb2pqr_Repair_97_r2_0001_out
     RDKit          3D

 82 86  0  0  0  0  0  0  0  0999 V2000
    0.9650   14.9200   -2.6770 C   0  0  0  0  0  0  0  0  0  0  0  0
    1.2060   14.2310   -4.0230 C   0  0  2  0  0  0  0  0  0  0  0  0
    0.4820   14.9470   -5.1800 C   0  0  0  0  0  0  0  0  0  0  0  0
    1.0430   14.6050   -6.5630 C   0  0  0  0  0  0  0  0  0  0  0  0
    0.8470   15.7300   -7.5340 C   0  0  2  0  0  0  0  0  0  0  0  0
    0.4060   15.3260   -8.8370 O   0  0  0  0  0  0  0  0  0  0  0  0
    1.7080   15.9300   -8.7670 C   0  0  0  0  0  0  0  0  0  0  0  0
    2.8300   14.9960   -9.0950 C   0  0  0  0  0  0  0  0  0  0  0  0
    1.7730   17.2940   -9.3810 C   0  0  0  0  0  0  0  0  0  0  0  0
    0.7580   12.7760   -3.9500 C   0  0  1  0  0  0  0  0  0  0  0  0
    1.8900   11.7830   -4.3280 C   0  0  0  0  0  0  0  0  0  0  0  0
    1.6980   10.5270   -3.4390 C   0  0  0  0  0  0  0  0  0  0  0  0
    0.2880   10.6950   -2.8250 C   0  0  1  0  0  0  0  0  0  0  0  0
   -0.6940   10.2120   -3.9380 C   0  0  0  0  0  0  0  0  0  0  0  0
    0.0330    9.9580   -1.4700 C   0  0  2  0  0  0  0  0  0  0  0  0
    0.1390    8.4240   -1.5310 C   0  0  0  0  0  0  0  0  0  0  0  0
   -1.1340    7.7080   -1.8380 C   0  0  0  0  0  0  0  0  0  0  0  0
   -2.3670    8.2440   -1.7750 C   0  0  0  0  0  0  0  0  0  0  0  0
   -2.5790    9.6770   -1.2690 C   0  0  1  0  0  0  0  0  0  0  0  0
   -3.7520    9.6990   -0.2550 C   0  0  0  0  0  0  0  0  0  0  0  0
   -5.0290    9.0870   -0.8230 C   0  0  0  0  0  0  0  0  0  0  0  0
   -4.7930    7.6440   -1.2610 C   0  0  2  0  0  0  0  0  0  0  0  0
   -4.5260    6.8480   -0.1020 O   0  0  0  0  0  0  0  0  0  0  0  0
   -3.6260    7.4950   -2.2770 C   0  0  0  0  0  0  0  0  0  0  0  0
   -4.0420    8.1020   -3.6400 C   0  0  0  0  0  0  0  0  0  0  0  0
   -3.4020    5.9790   -2.5280 C   0  0  0  0  0  0  0  0  0  0  0  0
   -1.2840   10.4170   -0.7210 C   0  0  1  0  0  0  0  0  0  0  0  0
   -1.0780   10.0810    0.7880 C   0  0  0  0  0  0  0  0  0  0  0  0
   -1.5080   11.9730   -0.8040 C   0  0  0  0  0  0  0  0  0  0  0  0
   -1.1240   12.6610   -2.1280 C   0  0  0  0  0  0  0  0  0  0  0  0
    0.2810   12.2470   -2.5740 C   0  0  2  0  0  0  0  0  0  0  0  0
    1.2940   12.7390   -1.4840 C   0  0  0  0  0  0  0  0  0  0  0  0
    1.2083   14.2244   -1.8603 H   0  0  0  0  0  0  0  0  0  0  0  0
    1.6046   15.8118   -2.6019 H   0  0  0  0  0  0  0  0  0  0  0  0
   -0.0910   15.2187   -2.6019 H   0  0  0  0  0  0  0  0  0  0  0  0
    2.2854   14.2780   -4.2296 H   0  0  0  0  0  0  0  0  0  0  0  0
   -0.5798   14.6605   -5.1554 H   0  0  0  0  0  0  0  0  0  0  0  0
    0.6290   16.0270   -5.0317 H   0  0  0  0  0  0  0  0  0  0  0  0
    2.1193   14.3978   -6.4699 H   0  0  0  0  0  0  0  0  0  0  0  0
    0.5039   13.7251   -6.9440 H   0  0  0  0  0  0  0  0  0  0  0  0
    0.5516   16.4109   -6.7221 H   0  0  0  0  0  0  0  0  0  0  0  0
    3.2797   14.6217   -8.1635 H   0  0  0  0  0  0  0  0  0  0  0  0
    2.4430   14.1496   -9.6813 H   0  0  0  0  0  0  0  0  0  0  0  0
    3.5922   15.5301   -9.6813 H   0  0  0  0  0  0  0  0  0  0  0  0
    1.8092   18.0529   -8.5855 H   0  0  0  0  0  0  0  0  0  0  0  0
    2.6759   17.3729  -10.0043 H   0  0  0  0  0  0  0  0  0  0  0  0
    0.8817   17.4584  -10.0043 H   0  0  0  0  0  0  0  0  0  0  0  0
   -0.0863   12.8072   -4.6544 H   0  0  0  0  0  0  0  0  0  0  0  0
    1.8151   11.5099   -5.3909 H   0  0  0  0  0  0  0  0  0  0  0  0
    2.8806   12.2333   -4.1672 H   0  0  0  0  0  0  0  0  0  0  0  0
    1.7509    9.6105   -4.0451 H   0  0  0  0  0  0  0  0  0  0  0  0
    2.4796   10.4367   -2.6703 H   0  0  0  0  0  0  0  0  0  0  0  0
   -1.5883    9.7722   -3.4723 H   0  0  0  0  0  0  0  0  0  0  0  0
   -0.9893   11.0677   -4.5630 H   0  0  0  0  0  0  0  0  0  0  0  0
   -0.1965    9.4558   -4.5630 H   0  0  0  0  0  0  0  0  0  0  0  0
    0.8828   10.2916   -0.8564 H   0  0  0  0  0  0  0  0  0  0  0  0
    0.8710    8.1647   -2.3101 H   0  0  0  0  0  0  0  0  0  0  0  0
    0.4347    8.0994   -0.5225 H   0  0  0  0  0  0  0  0  0  0  0  0
   -1.0582    6.6534   -2.1413 H   0  0  0  0  0  0  0  0  0  0  0  0
   -2.8390   10.2772   -2.1534 H   0  0  0  0  0  0  0  0  0  0  0  0
   -3.4559    9.1303    0.6388 H   0  0  0  0  0  0  0  0  0  0  0  0
   -3.9648   10.7510   -0.0140 H   0  0  0  0  0  0  0  0  0  0  0  0
   -5.8118    9.1055   -0.0505 H   0  0  0  0  0  0  0  0  0  0  0  0
   -5.3405    9.6740   -1.6996 H   0  0  0  0  0  0  0  0  0  0  0  0
   -5.7030    7.3029   -1.7763 H   0  0  0  0  0  0  0  0  0  0  0  0
   -3.8780    7.3270    0.4410 H   0  0  0  0  0  0  0  0  0  0  0  0
   -4.6564    8.9985   -3.4699 H   0  0  0  0  0  0  0  0  0  0  0  0
   -3.1417    8.3770   -4.2090 H   0  0  0  0  0  0  0  0  0  0  0  0
   -4.6234    7.3616   -4.2090 H   0  0  0  0  0  0  0  0  0  0  0  0
   -3.3246    5.4552   -1.5638 H   0  0  0  0  0  0  0  0  0  0  0  0
   -4.2499    5.5727   -3.0990 H   0  0  0  0  0  0  0  0  0  0  0  0
   -2.4729    5.8352   -3.0990 H   0  0  0  0  0  0  0  0  0  0  0  0
   -1.5540   10.8575    1.4048 H   0  0  0  0  0  0  0  0  0  0  0  0
   -1.5330    9.1048    1.0117 H   0  0  0  0  0  0  0  0  0  0  0  0
   -0.0016   10.0437    1.0117 H   0  0  0  0  0  0  0  0  0  0  0  0
   -2.5765   12.1652   -0.6269 H   0  0  0  0  0  0  0  0  0  0  0  0
   -0.8311   12.4016   -0.0503 H   0  0  0  0  0  0  0  0  0  0  0  0
   -1.8474   12.3742   -2.9055 H   0  0  0  0  0  0  0  0  0  0  0  0
   -1.1360   13.7500   -1.9735 H   0  0  0  0  0  0  0  0  0  0  0  0
    0.8822   12.5390   -0.4838 H   0  0  0  0  0  0  0  0  0  0  0  0
    2.2478   12.2038   -1.6016 H   0  0  0  0  0  0  0  0  0  0  0  0
    1.4630   13.8196   -1.6016 H   0  0  0  0  0  0  0  0  0  0  0  0
  1  2  1  0
  2  3  1  0
  3  4  1  0
  4  5  1  0
  5  6  1  0
  6  7  1  0
  7  8  1  0
  7  9  1  0
  2 10  1  0
 10 11  1  0
 11 12  1  0
 12 13  1  0
 13 14  1  6
 13 15  1  0
 15 16  1  0
 16 17  1  0
 17 18  2  0
 18 19  1  0
 19 20  1  0
 20 21  1  0
 21 22  1  0
 22 23  1  0
 22 24  1  0
 24 25  1  0
 24 26  1  0
 19 27  1  0
 27 28  1  1
 27 29  1  0
 29 30  1  0
 30 31  1  0
 31 32  1  1
  7  5  1  0
 31 10  1  0
 31 13  1  0
 27 15  1  0
 24 18  1  0
  1 33  1  0
  1 34  1  0
  1 35  1  0
  2 36  1  6
  3 37  1  0
  3 38  1  0
  4 39  1  0
  4 40  1  0
  5 41  1  1
  8 42  1  0
  8 43  1  0
  8 44  1  0
  9 45  1  0
  9 46  1  0
  9 47  1  0
 10 48  1  6
 11 49  1  0
 11 50  1  0
 12 51  1  0
 12 52  1  0
 14 53  1  0
 14 54  1  0
 14 55  1  0
 15 56  1  1
 16 57  1  0
 16 58  1  0
 17 59  1  0
 19 60  1  6
 20 61  1  0
 20 62  1  0
 21 63  1  0
 21 64  1  0
 22 65  1  6
 23 66  1  0
 25 67  1  0
 25 68  1  0
 25 69  1  0
 26 70  1  0
 26 71  1  0
 26 72  1  0
 28 73  1  0
 28 74  1  0
 28 75  1  0
 29 76  1  0
 29 77  1  0
 30 78  1  0
 30 79  1  0
 32 80  1  0
 32 81  1  0
 32 82  1  0
M  END
>  <meeko>  (19) 
{"is_sidechain": [false], "intermolecular_energy": 2.731, "internal_energy": -0.839}

$$$$
