EPH_relaxed_0001_pdb2pqr_Repair_331_r2_0001_out
     RDKit          3D

 82 86  0  0  0  0  0  0  0  0999 V2000
   -1.8580    8.2170   -1.9600 C   0  0  0  0  0  0  0  0  0  0  0  0
   -2.1970    8.7460   -0.5640 C   0  0  2  0  0  0  0  0  0  0  0  0
   -3.6880    9.1120   -0.4280 C   0  0  0  0  0  0  0  0  0  0  0  0
   -4.6130    7.8960   -0.3280 C   0  0  0  0  0  0  0  0  0  0  0  0
   -5.3440    7.6490   -1.6130 C   0  0  2  0  0  0  0  0  0  0  0  0
   -6.3640    8.6090   -1.9160 O   0  0  0  0  0  0  0  0  0  0  0  0
   -6.8100    7.2640   -1.6810 C   0  0  0  0  0  0  0  0  0  0  0  0
   -7.6330    7.1040   -0.4410 C   0  0  0  0  0  0  0  0  0  0  0  0
   -7.3120    6.5710   -2.9090 C   0  0  0  0  0  0  0  0  0  0  0  0
   -1.3320    9.9600   -0.2440 C   0  0  1  0  0  0  0  0  0  0  0  0
   -0.3040    9.6810    0.8850 C   0  0  0  0  0  0  0  0  0  0  0  0
    0.9710   10.4930    0.5410 C   0  0  0  0  0  0  0  0  0  0  0  0
    0.5260   11.4610   -0.5810 C   0  0  1  0  0  0  0  0  0  0  0  0
   -0.1760   12.6400    0.1620 C   0  0  0  0  0  0  0  0  0  0  0  0
    1.6510   11.9710   -1.5400 C   0  0  2  0  0  0  0  0  0  0  0  0
    2.7570   12.8010   -0.8650 C   0  0  0  0  0  0  0  0  0  0  0  0
    2.5140   14.2730   -0.8230 C   0  0  0  0  0  0  0  0  0  0  0  0
    1.5960   14.9350   -1.5520 C   0  0  0  0  0  0  0  0  0  0  0  0
    0.7500   14.2060   -2.6040 C   0  0  1  0  0  0  0  0  0  0  0  0
    0.7300   15.0330   -3.9160 C   0  0  0  0  0  0  0  0  0  0  0  0
    0.2740   16.4710   -3.6950 C   0  0  0  0  0  0  0  0  0  0  0  0
    1.1740   17.1810   -2.6870 C   0  0  2  0  0  0  0  0  0  0  0  0
    2.4790   17.3270   -3.2580 O   0  0  0  0  0  0  0  0  0  0  0  0
    1.2790   16.4340   -1.3280 C   0  0  0  0  0  0  0  0  0  0  0  0
   -0.0680   16.5390   -0.5710 C   0  0  0  0  0  0  0  0  0  0  0  0
    2.3260   17.1780   -0.4550 C   0  0  0  0  0  0  0  0  0  0  0  0
    1.1140   12.6790   -2.8490 C   0  0  1  0  0  0  0  0  0  0  0  0
    2.2490   12.5670   -3.9130 C   0  0  0  0  0  0  0  0  0  0  0  0
   -0.1380   11.9430   -3.4570 C   0  0  0  0  0  0  0  0  0  0  0  0
   -1.1530   11.3570   -2.4570 C   0  0  0  0  0  0  0  0  0  0  0  0
   -0.4460   10.5220   -1.3850 C   0  0  2  0  0  0  0  0  0  0  0  0
    0.2510    9.3150   -2.1000 C   0  0  0  0  0  0  0  0  0  0  0  0
   -1.2665    7.2940   -1.8687 H   0  0  0  0  0  0  0  0  0  0  0  0
   -2.7881    8.0038   -2.5072 H   0  0  0  0  0  0  0  0  0  0  0  0
   -1.2757    8.9730   -2.5072 H   0  0  0  0  0  0  0  0  0  0  0  0
   -1.9879    7.9400    0.1548 H   0  0  0  0  0  0  0  0  0  0  0  0
   -3.8149    9.7206    0.4795 H   0  0  0  0  0  0  0  0  0  0  0  0
   -3.9702    9.6566   -1.3411 H   0  0  0  0  0  0  0  0  0  0  0  0
   -4.0103    7.0086   -0.0843 H   0  0  0  0  0  0  0  0  0  0  0  0
   -5.3571    8.0946    0.4574 H   0  0  0  0  0  0  0  0  0  0  0  0
   -4.4438    7.2097   -2.0676 H   0  0  0  0  0  0  0  0  0  0  0  0
   -6.9913    7.2288    0.4436 H   0  0  0  0  0  0  0  0  0  0  0  0
   -8.4277    7.8645   -0.4277 H   0  0  0  0  0  0  0  0  0  0  0  0
   -8.0849    6.1012   -0.4277 H   0  0  0  0  0  0  0  0  0  0  0  0
   -7.9341    5.7122   -2.6169 H   0  0  0  0  0  0  0  0  0  0  0  0
   -7.9128    7.2727   -3.5063 H   0  0  0  0  0  0  0  0  0  0  0  0
   -6.4580    6.2189   -3.5063 H   0  0  0  0  0  0  0  0  0  0  0  0
   -2.1188   10.6841    0.0141 H   0  0  0  0  0  0  0  0  0  0  0  0
   -0.7093   10.0054    1.8548 H   0  0  0  0  0  0  0  0  0  0  0  0
   -0.0798    8.6065    0.9578 H   0  0  0  0  0  0  0  0  0  0  0  0
    1.3237   11.0529    1.4197 H   0  0  0  0  0  0  0  0  0  0  0  0
    1.8052    9.8475    0.2287 H   0  0  0  0  0  0  0  0  0  0  0  0
   -0.0883   12.4927    1.2486 H   0  0  0  0  0  0  0  0  0  0  0  0
    0.3044   13.5887   -0.1194 H   0  0  0  0  0  0  0  0  0  0  0  0
   -1.2390   12.6697   -0.1194 H   0  0  0  0  0  0  0  0  0  0  0  0
    2.1328   11.0347   -1.8582 H   0  0  0  0  0  0  0  0  0  0  0  0
    2.8654   12.4448    0.1701 H   0  0  0  0  0  0  0  0  0  0  0  0
    3.6601   12.6591   -1.4768 H   0  0  0  0  0  0  0  0  0  0  0  0
    3.1376   14.8671   -0.1387 H   0  0  0  0  0  0  0  0  0  0  0  0
   -0.2663   14.1435   -2.1877 H   0  0  0  0  0  0  0  0  0  0  0  0
    1.7450   15.0463   -4.3397 H   0  0  0  0  0  0  0  0  0  0  0  0
    0.0117   14.5567   -4.5995 H   0  0  0  0  0  0  0  0  0  0  0  0
    0.3101   17.0111   -4.6526 H   0  0  0  0  0  0  0  0  0  0  0  0
   -0.7523   16.4565   -3.2995 H   0  0  0  0  0  0  0  0  0  0  0  0
    0.7220   18.1606   -2.4725 H   0  0  0  0  0  0  0  0  0  0  0  0
    2.4760   18.1380   -3.7940 H   0  0  0  0  0  0  0  0  0  0  0  0
    0.1185   16.5245    0.5130 H   0  0  0  0  0  0  0  0  0  0  0  0
   -0.5698   17.4790   -0.8442 H   0  0  0  0  0  0  0  0  0  0  0  0
   -0.7094   15.6881   -0.8442 H   0  0  0  0  0  0  0  0  0  0  0  0
    2.0980   17.0160    0.6088 H   0  0  0  0  0  0  0  0  0  0  0  0
    3.3311   16.7904   -0.6777 H   0  0  0  0  0  0  0  0  0  0  0  0
    2.2906   18.2546   -0.6777 H   0  0  0  0  0  0  0  0  0  0  0  0
    3.2198   12.4712   -3.4048 H   0  0  0  0  0  0  0  0  0  0  0  0
    2.0756   11.6816   -4.5423 H   0  0  0  0  0  0  0  0  0  0  0  0
    2.2520   13.4692   -4.5423 H   0  0  0  0  0  0  0  0  0  0  0  0
   -0.6738   12.6656   -4.0900 H   0  0  0  0  0  0  0  0  0  0  0  0
    0.2714   11.0745   -3.9937 H   0  0  0  0  0  0  0  0  0  0  0  0
   -1.6964   12.1808   -1.9712 H   0  0  0  0  0  0  0  0  0  0  0  0
   -1.8504   10.7066   -3.0052 H   0  0  0  0  0  0  0  0  0  0  0  0
    0.6509    8.6226   -1.3446 H   0  0  0  0  0  0  0  0  0  0  0  0
   -0.4820    8.7883   -2.7287 H   0  0  0  0  0  0  0  0  0  0  0  0
    1.0736    9.6866   -2.7287 H   0  0  0  0  0  0  0  0  0  0  0  0
  1  2  1  0
  2  3  1  0
  3  4  1  0
  4  5  1  0
  5  6  1  0
  6  7  1  0
  7  8  1  0
  7  9  1  0
  2 10  1  0
 10 11  1  0
 11 12  1  0
 12 13  1  0
 13 14  1  1
 13 15  1  0
 15 16  1  0
 16 17  1  0
 17 18  2  0
 18 19  1  0
 19 20  1  0
 20 21  1  0
 21 22  1  0
 22 23  1  0
 22 24  1  0
 24 25  1  0
 24 26  1  0
 19 27  1  0
 27 28  1  6
 27 29  1  0
 29 30  1  0
 30 31  1  0
 31 32  1  6
  7  5  1  0
 31 10  1  0
 31 13  1  0
 27 15  1  0
 24 18  1  0
  1 33  1  0
  1 34  1  0
  1 35  1  0
  2 36  1  1
  3 37  1  0
  3 38  1  0
  4 39  1  0
  4 40  1  0
  5 41  1  6
  8 42  1  0
  8 43  1  0
  8 44  1  0
  9 45  1  0
  9 46  1  0
  9 47  1  0
 10 48  1  1
 11 49  1  0
 11 50  1  0
 12 51  1  0
 12 52  1  0
 14 53  1  0
 14 54  1  0
 14 55  1  0
 15 56  1  6
 16 57  1  0
 16 58  1  0
 17 59  1  0
 19 60  1  1
 20 61  1  0
 20 62  1  0
 21 63  1  0
 21 64  1  0
 22 65  1  1
 23 66  1  0
 25 67  1  0
 25 68  1  0
 25 69  1  0
 26 70  1  0
 26 71  1  0
 26 72  1  0
 28 73  1  0
 28 74  1  0
 28 75  1  0
 29 76  1  0
 29 77  1  0
 30 78  1  0
 30 79  1  0
 32 80  1  0
 32 81  1  0
 32 82  1  0
M  END
>  <meeko>  (1) 
{"is_sidechain": [false], "intermolecular_energy": 2.731, "internal_energy": -0.839}

$$$$
EPH_relaxed_0001_pdb2pqr_Repair_331_r2_0001_out
     RDKit          3D

 82 86  0  0  0  0  0  0  0  0999 V2000
    4.3960   16.8260   -0.2980 C   0  0  0  0  0  0  0  0  0  0  0  0
    3.0460   17.5280   -0.1260 C   0  0  2  0  0  0  0  0  0  0  0  0
    2.9880   18.3660    1.1660 C   0  0  0  0  0  0  0  0  0  0  0  0
    4.3650   18.7420    1.7190 C   0  0  0  0  0  0  0  0  0  0  0  0
    4.2730   19.2880    3.1120 C   0  0  2  0  0  0  0  0  0  0  0  0
    5.3250   20.1940    3.4700 O   0  0  0  0  0  0  0  0  0  0  0  0
    5.2720   18.9620    4.2060 C   0  0  0  0  0  0  0  0  0  0  0  0
    6.4350   18.0530    3.9560 C   0  0  0  0  0  0  0  0  0  0  0  0
    4.8510   19.1300    5.6330 C   0  0  0  0  0  0  0  0  0  0  0  0
    1.9220   16.4990   -0.1310 C   0  0  1  0  0  0  0  0  0  0  0  0
    0.5260   17.1400   -0.3530 C   0  0  0  0  0  0  0  0  0  0  0  0
   -0.3040   16.1280   -1.1850 C   0  0  0  0  0  0  0  0  0  0  0  0
    0.5130   14.8160   -1.1300 C   0  0  1  0  0  0  0  0  0  0  0  0
    0.1500   14.1750    0.2460 C   0  0  0  0  0  0  0  0  0  0  0  0
    0.2910   13.8150   -2.3100 C   0  0  2  0  0  0  0  0  0  0  0  0
   -1.1390   13.2590   -2.4350 C   0  0  0  0  0  0  0  0  0  0  0  0
   -1.4000   11.9960   -1.6840 C   0  0  0  0  0  0  0  0  0  0  0  0
   -0.4580   11.1810   -1.1730 C   0  0  0  0  0  0  0  0  0  0  0  0
    1.0330   11.4500   -1.4160 C   0  0  1  0  0  0  0  0  0  0  0  0
    1.7360   10.1330   -1.8350 C   0  0  0  0  0  0  0  0  0  0  0  0
    1.5020    9.0020   -0.8380 C   0  0  0  0  0  0  0  0  0  0  0  0
    0.0110    8.7240   -0.6680 C   0  0  2  0  0  0  0  0  0  0  0  0
   -0.5030    8.2000   -1.8960 O   0  0  0  0  0  0  0  0  0  0  0  0
   -0.8030    9.9820   -0.2550 C   0  0  0  0  0  0  0  0  0  0  0  0
   -0.4560   10.3710    1.2030 C   0  0  0  0  0  0  0  0  0  0  0  0
   -2.3080    9.5980   -0.2560 C   0  0  0  0  0  0  0  0  0  0  0  0
    1.3690   12.6590   -2.3910 C   0  0  1  0  0  0  0  0  0  0  0  0
    1.3790   12.1630   -3.8700 C   0  0  0  0  0  0  0  0  0  0  0  0
    2.8240   13.1760   -2.0870 C   0  0  0  0  0  0  0  0  0  0  0  0
    2.9650   14.2520   -0.9930 C   0  0  0  0  0  0  0  0  0  0  0  0
    1.9710   15.3960   -1.2180 C   0  0  2  0  0  0  0  0  0  0  0  0
    2.3250   16.0750   -2.5850 C   0  0  0  0  0  0  0  0  0  0  0  0
    4.8226   16.6042    0.6913 H   0  0  0  0  0  0  0  0  0  0  0  0
    4.2532   15.8879   -0.8544 H   0  0  0  0  0  0  0  0  0  0  0  0
    5.0819   17.4816   -0.8544 H   0  0  0  0  0  0  0  0  0  0  0  0
    2.9214   18.2190   -0.9727 H   0  0  0  0  0  0  0  0  0  0  0  0
    2.4342   19.2925    0.9542 H   0  0  0  0  0  0  0  0  0  0  0  0
    2.4940   17.7462    1.9288 H   0  0  0  0  0  0  0  0  0  0  0  0
    5.0021   17.8453    1.7290 H   0  0  0  0  0  0  0  0  0  0  0  0
    4.7927   19.5224    1.0724 H   0  0  0  0  0  0  0  0  0  0  0  0
    3.1742   19.2481    3.0806 H   0  0  0  0  0  0  0  0  0  0  0  0
    6.8563   17.7237    4.9173 H   0  0  0  0  0  0  0  0  0  0  0  0
    6.0985   17.1761    3.3835 H   0  0  0  0  0  0  0  0  0  0  0  0
    7.2047   18.5913    3.3835 H   0  0  0  0  0  0  0  0  0  0  0  0
    5.6659   18.8048    6.2964 H   0  0  0  0  0  0  0  0  0  0  0  0
    4.6218   20.1885    5.8255 H   0  0  0  0  0  0  0  0  0  0  0  0
    3.9560   18.5201    5.8255 H   0  0  0  0  0  0  0  0  0  0  0  0
    2.0759   16.0543    0.8632 H   0  0  0  0  0  0  0  0  0  0  0  0
    0.0367   17.3265    0.6144 H   0  0  0  0  0  0  0  0  0  0  0  0
    0.6127   18.1039   -0.8758 H   0  0  0  0  0  0  0  0  0  0  0  0
   -1.3000   15.9843   -0.7407 H   0  0  0  0  0  0  0  0  0  0  0  0
   -0.4709   16.4729   -2.2161 H   0  0  0  0  0  0  0  0  0  0  0  0
    0.5153   14.8200    1.0587 H   0  0  0  0  0  0  0  0  0  0  0  0
   -0.9421   14.0692    0.3245 H   0  0  0  0  0  0  0  0  0  0  0  0
    0.6210   13.1840    0.3245 H   0  0  0  0  0  0  0  0  0  0  0  0
    0.4410   14.4546   -3.1923 H   0  0  0  0  0  0  0  0  0  0  0  0
   -1.8353   14.0253   -2.0636 H   0  0  0  0  0  0  0  0  0  0  0  0
   -1.2787   13.0150   -3.4985 H   0  0  0  0  0  0  0  0  0  0  0  0
   -2.4508   11.7065   -1.5354 H   0  0  0  0  0  0  0  0  0  0  0  0
    1.4394   11.7994   -0.4554 H   0  0  0  0  0  0  0  0  0  0  0  0
    1.3485    9.8234   -2.8168 H   0  0  0  0  0  0  0  0  0  0  0  0
    2.8179   10.3286   -1.8701 H   0  0  0  0  0  0  0  0  0  0  0  0
    1.9985    8.0912   -1.2039 H   0  0  0  0  0  0  0  0  0  0  0  0
    1.9164    9.3014    0.1360 H   0  0  0  0  0  0  0  0  0  0  0  0
   -0.0982    7.9971    0.1504 H   0  0  0  0  0  0  0  0  0  0  0  0
   -1.4740    8.2360   -1.8480 H   0  0  0  0  0  0  0  0  0  0  0  0
   -1.0239    9.7344    1.8974 H   0  0  0  0  0  0  0  0  0  0  0  0
    0.6214   10.2296    1.3737 H   0  0  0  0  0  0  0  0  0  0  0  0
   -0.7190   11.4254    1.3737 H   0  0  0  0  0  0  0  0  0  0  0  0
   -2.6639    9.5072    0.7809 H   0  0  0  0  0  0  0  0  0  0  0  0
   -2.8850   10.3777   -0.7748 H   0  0  0  0  0  0  0  0  0  0  0  0
   -2.4409    8.6372   -0.7748 H   0  0  0  0  0  0  0  0  0  0  0  0
    1.4012   11.0634   -3.8878 H   0  0  0  0  0  0  0  0  0  0  0  0
    0.4735   12.5198   -4.3825 H   0  0  0  0  0  0  0  0  0  0  0  0
    2.2694   12.5560   -4.3825 H   0  0  0  0  0  0  0  0  0  0  0  0
    3.4279   12.3091   -1.7808 H   0  0  0  0  0  0  0  0  0  0  0  0
    3.1555   13.6643   -3.0152 H   0  0  0  0  0  0  0  0  0  0  0  0
    2.7713   13.7948   -0.0114 H   0  0  0  0  0  0  0  0  0  0  0  0
    3.9854   14.6609   -1.0325 H   0  0  0  0  0  0  0  0  0  0  0  0
    2.8261   17.0362   -2.3981 H   0  0  0  0  0  0  0  0  0  0  0  0
    2.9951   15.4175   -3.1583 H   0  0  0  0  0  0  0  0  0  0  0  0
    1.4023   16.2480   -3.1583 H   0  0  0  0  0  0  0  0  0  0  0  0
  1  2  1  0
  2  3  1  0
  3  4  1  0
  4  5  1  0
  5  6  1  0
  6  7  1  0
  7  8  1  0
  7  9  1  0
  2 10  1  0
 10 11  1  0
 11 12  1  0
 12 13  1  0
 13 14  1  1
 13 15  1  0
 15 16  1  0
 16 17  1  0
 17 18  2  0
 18 19  1  0
 19 20  1  0
 20 21  1  0
 21 22  1  0
 22 23  1  0
 22 24  1  0
 24 25  1  0
 24 26  1  0
 19 27  1  0
 27 28  1  6
 27 29  1  0
 29 30  1  0
 30 31  1  0
 31 32  1  6
  7  5  1  0
 31 10  1  0
 31 13  1  0
 27 15  1  0
 24 18  1  0
  1 33  1  0
  1 34  1  0
  1 35  1  0
  2 36  1  6
  3 37  1  0
  3 38  1  0
  4 39  1  0
  4 40  1  0
  5 41  1  1
  8 42  1  0
  8 43  1  0
  8 44  1  0
  9 45  1  0
  9 46  1  0
  9 47  1  0
 10 48  1  1
 11 49  1  0
 11 50  1  0
 12 51  1  0
 12 52  1  0
 14 53  1  0
 14 54  1  0
 14 55  1  0
 15 56  1  6
 16 57  1  0
 16 58  1  0
 17 59  1  0
 19 60  1  1
 20 61  1  0
 20 62  1  0
 21 63  1  0
 21 64  1  0
 22 65  1  1
 23 66  1  0
 25 67  1  0
 25 68  1  0
 25 69  1  0
 26 70  1  0
 26 71  1  0
 26 72  1  0
 28 73  1  0
 28 74  1  0
 28 75  1  0
 29 76  1  0
 29 77  1  0
 30 78  1  0
 30 79  1  0
 32 80  1  0
 32 81  1  0
 32 82  1  0
M  END
>  <meeko>  (2) 
{"is_sidechain": [false], "intermolecular_energy": 2.731, "internal_energy": -0.839}

$$$$
EPH_relaxed_0001_pdb2pqr_Repair_331_r2_0001_out
     RDKit          3D

 82 86  0  0  0  0  0  0  0  0999 V2000
   -5.1190    5.9210   -1.7610 C   0  0  0  0  0  0  0  0  0  0  0  0
   -5.4430    7.4180   -1.7920 C   0  0  2  0  0  0  0  0  0  0  0  0
   -5.2280    8.0870   -0.4190 C   0  0  0  0  0  0  0  0  0  0  0  0
   -4.1600    9.1840   -0.4290 C   0  0  0  0  0  0  0  0  0  0  0  0
   -2.8130    8.6420   -0.8000 C   0  0  2  0  0  0  0  0  0  0  0  0
   -1.7720    8.9310    0.1420 O   0  0  0  0  0  0  0  0  0  0  0  0
   -1.6290    9.5200   -1.1610 C   0  0  0  0  0  0  0  0  0  0  0  0
   -1.7380   11.0130   -1.1700 C   0  0  0  0  0  0  0  0  0  0  0  0
   -0.5200    8.9270   -1.9730 C   0  0  0  0  0  0  0  0  0  0  0  0
   -6.8790    7.6290   -2.2550 C   0  0  1  0  0  0  0  0  0  0  0  0
   -7.1800    6.9280   -3.6060 C   0  0  0  0  0  0  0  0  0  0  0  0
   -8.6510    6.4410   -3.5400 C   0  0  0  0  0  0  0  0  0  0  0  0
   -9.2440    7.1600   -2.3050 C   0  0  1  0  0  0  0  0  0  0  0  0
   -9.6090    8.5900   -2.8110 C   0  0  0  0  0  0  0  0  0  0  0  0
  -10.4630    6.4620   -1.6190 C   0  0  2  0  0  0  0  0  0  0  0  0
  -11.7170    6.3220   -2.5010 C   0  0  0  0  0  0  0  0  0  0  0  0
  -12.6810    7.4590   -2.4230 C   0  0  0  0  0  0  0  0  0  0  0  0
  -12.6940    8.4100   -1.4700 C   0  0  0  0  0  0  0  0  0  0  0  0
  -11.7280    8.3450   -0.2800 C   0  0  1  0  0  0  0  0  0  0  0  0
  -12.5060    8.6200    1.0340 C   0  0  0  0  0  0  0  0  0  0  0  0
  -13.2880    9.9300    0.9870 C   0  0  0  0  0  0  0  0  0  0  0  0
  -14.2790    9.9320   -0.1750 C   0  0  2  0  0  0  0  0  0  0  0  0
  -15.2870    8.9490    0.0770 O   0  0  0  0  0  0  0  0  0  0  0  0
  -13.6100    9.6560   -1.5500 C   0  0  0  0  0  0  0  0  0  0  0  0
  -12.7430   10.8710   -1.9620 C   0  0  0  0  0  0  0  0  0  0  0  0
  -14.7350    9.5450   -2.6140 C   0  0  0  0  0  0  0  0  0  0  0  0
  -10.8230    7.0420   -0.1910 C   0  0  1  0  0  0  0  0  0  0  0  0
  -11.5870    5.9140    0.5680 C   0  0  0  0  0  0  0  0  0  0  0  0
   -9.5410    7.3640    0.6640 C   0  0  0  0  0  0  0  0  0  0  0  0
   -8.3280    7.9390   -0.0920 C   0  0  0  0  0  0  0  0  0  0  0  0
   -8.0090    7.1030   -1.3350 C   0  0  2  0  0  0  0  0  0  0  0  0
   -7.6170    5.6640   -0.8550 C   0  0  0  0  0  0  0  0  0  0  0  0
   -5.0459    5.5832   -0.7167 H   0  0  0  0  0  0  0  0  0  0  0  0
   -5.9171    5.3625   -2.2720 H   0  0  0  0  0  0  0  0  0  0  0  0
   -4.1614    5.7424   -2.2720 H   0  0  0  0  0  0  0  0  0  0  0  0
   -4.7499    7.8923   -2.5024 H   0  0  0  0  0  0  0  0  0  0  0  0
   -6.1807    8.5328   -0.0970 H   0  0  0  0  0  0  0  0  0  0  0  0
   -4.8774    7.3035    0.2688 H   0  0  0  0  0  0  0  0  0  0  0  0
   -4.4476    9.9550   -1.1590 H   0  0  0  0  0  0  0  0  0  0  0  0
   -4.0926    9.6066    0.5843 H   0  0  0  0  0  0  0  0  0  0  0  0
   -3.2723    7.7789   -1.3041 H   0  0  0  0  0  0  0  0  0  0  0  0
   -1.7652   11.3849   -0.1351 H   0  0  0  0  0  0  0  0  0  0  0  0
   -0.8687   11.4410   -1.6907 H   0  0  0  0  0  0  0  0  0  0  0  0
   -2.6602   11.3102   -1.6907 H   0  0  0  0  0  0  0  0  0  0  0  0
    0.2477    8.5165   -1.3006 H   0  0  0  0  0  0  0  0  0  0  0  0
   -0.9199    8.1224   -2.6075 H   0  0  0  0  0  0  0  0  0  0  0  0
   -0.0729    9.7064   -2.6075 H   0  0  0  0  0  0  0  0  0  0  0  0
   -6.9017    8.7283   -2.2869 H   0  0  0  0  0  0  0  0  0  0  0  0
   -7.0528    7.6371   -4.4372 H   0  0  0  0  0  0  0  0  0  0  0  0
   -6.4927    6.0861   -3.7756 H   0  0  0  0  0  0  0  0  0  0  0  0
   -9.1953    6.7242   -4.4530 H   0  0  0  0  0  0  0  0  0  0  0  0
   -8.7253    5.3463   -3.4615 H   0  0  0  0  0  0  0  0  0  0  0  0
   -9.7780    9.2520   -1.9489 H   0  0  0  0  0  0  0  0  0  0  0  0
   -8.7829    8.9852   -3.4204 H   0  0  0  0  0  0  0  0  0  0  0  0
  -10.5234    8.5410   -3.4204 H   0  0  0  0  0  0  0  0  0  0  0  0
  -10.0913    5.4384   -1.4637 H   0  0  0  0  0  0  0  0  0  0  0  0
  -11.3884    6.2260   -3.5464 H   0  0  0  0  0  0  0  0  0  0  0  0
  -12.2560    5.4395   -2.1260 H   0  0  0  0  0  0  0  0  0  0  0  0
  -13.4456    7.5256   -3.2110 H   0  0  0  0  0  0  0  0  0  0  0  0
  -10.9855    9.1390   -0.4482 H   0  0  0  0  0  0  0  0  0  0  0  0
  -13.2117    7.7939    1.2056 H   0  0  0  0  0  0  0  0  0  0  0  0
  -11.7702    8.6990    1.8478 H   0  0  0  0  0  0  0  0  0  0  0  0
  -13.8393   10.0543    1.9307 H   0  0  0  0  0  0  0  0  0  0  0  0
  -12.5780   10.7581    0.8447 H   0  0  0  0  0  0  0  0  0  0  0  0
  -14.7151   10.9400   -0.2357 H   0  0  0  0  0  0  0  0  0  0  0  0
  -15.7000    8.7260   -0.7750 H   0  0  0  0  0  0  0  0  0  0  0  0
  -12.3774   11.3833   -1.0599 H   0  0  0  0  0  0  0  0  0  0  0  0
  -11.8867   10.5247   -2.5594 H   0  0  0  0  0  0  0  0  0  0  0  0
  -13.3489   11.5681   -2.5594 H   0  0  0  0  0  0  0  0  0  0  0  0
  -15.7081    9.4490   -2.1101 H   0  0  0  0  0  0  0  0  0  0  0  0
  -14.7352   10.4475   -3.2429 H   0  0  0  0  0  0  0  0  0  0  0  0
  -14.5588    8.6599   -3.2429 H   0  0  0  0  0  0  0  0  0  0  0  0
  -11.4836    6.0667    1.6524 H   0  0  0  0  0  0  0  0  0  0  0  0
  -12.6518    5.9435    0.2935 H   0  0  0  0  0  0  0  0  0  0  0  0
  -11.1645    4.9362    0.2935 H   0  0  0  0  0  0  0  0  0  0  0  0
   -9.8296    8.0942    1.4344 H   0  0  0  0  0  0  0  0  0  0  0  0
   -9.2032    6.3922    1.0533 H   0  0  0  0  0  0  0  0  0  0  0  0
   -8.5525    8.9708   -0.4004 H   0  0  0  0  0  0  0  0  0  0  0  0
   -7.4556    7.9179    0.5777 H   0  0  0  0  0  0  0  0  0  0  0  0
   -7.6088    5.6338    0.2446 H   0  0  0  0  0  0  0  0  0  0  0  0
   -8.3501    4.9379   -1.2363 H   0  0  0  0  0  0  0  0  0  0  0  0
   -6.6169    5.4100   -1.2363 H   0  0  0  0  0  0  0  0  0  0  0  0
  1  2  1  0
  2  3  1  0
  3  4  1  0
  4  5  1  0
  5  6  1  0
  6  7  1  0
  7  8  1  0
  7  9  1  0
  2 10  1  0
 10 11  1  0
 11 12  1  0
 12 13  1  0
 13 14  1  6
 13 15  1  0
 15 16  1  0
 16 17  1  0
 17 18  2  0
 18 19  1  0
 19 20  1  0
 20 21  1  0
 21 22  1  0
 22 23  1  0
 22 24  1  0
 24 25  1  0
 24 26  1  0
 19 27  1  0
 27 28  1  1
 27 29  1  0
 29 30  1  0
 30 31  1  0
 31 32  1  1
  7  5  1  0
 31 10  1  0
 31 13  1  0
 27 15  1  0
 24 18  1  0
  1 33  1  0
  1 34  1  0
  1 35  1  0
  2 36  1  6
  3 37  1  0
  3 38  1  0
  4 39  1  0
  4 40  1  0
  5 41  1  6
  8 42  1  0
  8 43  1  0
  8 44  1  0
  9 45  1  0
  9 46  1  0
  9 47  1  0
 10 48  1  6
 11 49  1  0
 11 50  1  0
 12 51  1  0
 12 52  1  0
 14 53  1  0
 14 54  1  0
 14 55  1  0
 15 56  1  1
 16 57  1  0
 16 58  1  0
 17 59  1  0
 19 60  1  6
 20 61  1  0
 20 62  1  0
 21 63  1  0
 21 64  1  0
 22 65  1  6
 23 66  1  0
 25 67  1  0
 25 68  1  0
 25 69  1  0
 26 70  1  0
 26 71  1  0
 26 72  1  0
 28 73  1  0
 28 74  1  0
 28 75  1  0
 29 76  1  0
 29 77  1  0
 30 78  1  0
 30 79  1  0
 32 80  1  0
 32 81  1  0
 32 82  1  0
M  END
>  <meeko>  (3) 
{"is_sidechain": [false], "intermolecular_energy": 2.731, "internal_energy": -0.839}

$$$$
EPH_relaxed_0001_pdb2pqr_Repair_331_r2_0001_out
     RDKit          3D

 82 86  0  0  0  0  0  0  0  0999 V2000
    0.6110   18.2880    0.0250 C   0  0  0  0  0  0  0  0  0  0  0  0
    1.5290   17.0640    0.0820 C   0  0  2  0  0  0  0  0  0  0  0  0
    2.9430   17.3730   -0.4500 C   0  0  0  0  0  0  0  0  0  0  0  0
    3.9680   17.6510    0.6520 C   0  0  0  0  0  0  0  0  0  0  0  0
    3.6130   18.8720    1.4450 C   0  0  2  0  0  0  0  0  0  0  0  0
    4.6080   19.9040    1.4340 O   0  0  0  0  0  0  0  0  0  0  0  0
    4.3420   19.2920    2.7070 C   0  0  0  0  0  0  0  0  0  0  0  0
    5.4860   18.4940    3.2500 C   0  0  0  0  0  0  0  0  0  0  0  0
    3.6390   20.1930    3.6740 C   0  0  0  0  0  0  0  0  0  0  0  0
    0.9140   15.9150   -0.7080 C   0  0  1  0  0  0  0  0  0  0  0  0
    0.7190   16.2600   -2.2090 C   0  0  0  0  0  0  0  0  0  0  0  0
    0.9680   14.9520   -3.0040 C   0  0  0  0  0  0  0  0  0  0  0  0
    0.9680   13.8380   -1.9320 C   0  0  1  0  0  0  0  0  0  0  0  0
   -0.5400   13.5370   -1.6640 C   0  0  0  0  0  0  0  0  0  0  0  0
    1.7620   12.5380   -2.2870 C   0  0  2  0  0  0  0  0  0  0  0  0
    1.2330   11.7630   -3.5070 C   0  0  0  0  0  0  0  0  0  0  0  0
    0.2090   10.7200   -3.2050 C   0  0  0  0  0  0  0  0  0  0  0  0
   -0.0600   10.2180   -1.9850 C   0  0  0  0  0  0  0  0  0  0  0  0
    0.7680   10.6330   -0.7620 C   0  0  1  0  0  0  0  0  0  0  0  0
    1.1550    9.3710    0.0530 C   0  0  0  0  0  0  0  0  0  0  0  0
   -0.0560    8.5230    0.4290 C   0  0  0  0  0  0  0  0  0  0  0  0
   -0.8200    8.0820   -0.8170 C   0  0  2  0  0  0  0  0  0  0  0  0
    0.0000    7.1800   -1.5660 O   0  0  0  0  0  0  0  0  0  0  0  0
   -1.2550    9.2680   -1.7210 C   0  0  0  0  0  0  0  0  0  0  0  0
   -2.3730   10.0770   -1.0180 C   0  0  0  0  0  0  0  0  0  0  0  0
   -1.8900    8.6790   -3.0100 C   0  0  0  0  0  0  0  0  0  0  0  0
    2.0130   11.5760   -1.0560 C   0  0  1  0  0  0  0  0  0  0  0  0
    3.2620   10.7130   -1.4130 C   0  0  0  0  0  0  0  0  0  0  0  0
    2.3800   12.3660    0.2560 C   0  0  0  0  0  0  0  0  0  0  0  0
    1.6490   13.7010    0.4900 C   0  0  0  0  0  0  0  0  0  0  0  0
    1.7050   14.5840   -0.7610 C   0  0  2  0  0  0  0  0  0  0  0  0
    3.2090   14.9210   -1.0410 C   0  0  0  0  0  0  0  0  0  0  0  0
    0.3680   18.6120    1.0477 H   0  0  0  0  0  0  0  0  0  0  0  0
    1.1213   19.1046   -0.5068 H   0  0  0  0  0  0  0  0  0  0  0  0
   -0.3158   18.0268   -0.5068 H   0  0  0  0  0  0  0  0  0  0  0  0
    1.6301   16.7755    1.1387 H   0  0  0  0  0  0  0  0  0  0  0  0
    3.2896   16.5096   -1.0368 H   0  0  0  0  0  0  0  0  0  0  0  0
    2.8657   18.2882   -1.0553 H   0  0  0  0  0  0  0  0  0  0  0  0
    4.0068   16.7851    1.3293 H   0  0  0  0  0  0  0  0  0  0  0  0
    4.9445   17.8237    0.1759 H   0  0  0  0  0  0  0  0  0  0  0  0
    2.5448   18.7343    1.2216 H   0  0  0  0  0  0  0  0  0  0  0  0
    5.4577   18.5138    4.3495 H   0  0  0  0  0  0  0  0  0  0  0  0
    5.4067   17.4543    2.8998 H   0  0  0  0  0  0  0  0  0  0  0  0
    6.4344   18.9275    2.8998 H   0  0  0  0  0  0  0  0  0  0  0  0
    3.8789   19.8855    4.7025 H   0  0  0  0  0  0  0  0  0  0  0  0
    3.9689   21.2303    3.5150 H   0  0  0  0  0  0  0  0  0  0  0  0
    2.5527   20.1253    3.5150 H   0  0  0  0  0  0  0  0  0  0  0  0
   -0.0167   15.7769   -0.1382 H   0  0  0  0  0  0  0  0  0  0  0  0
   -0.3050   16.6212   -2.3848 H   0  0  0  0  0  0  0  0  0  0  0  0
    1.4125   17.0530   -2.5256 H   0  0  0  0  0  0  0  0  0  0  0  0
    0.1657   14.7848   -3.7377 H   0  0  0  0  0  0  0  0  0  0  0  0
    1.9085   14.9827   -3.5736 H   0  0  0  0  0  0  0  0  0  0  0  0
   -0.7196   13.5011   -0.5794 H   0  0  0  0  0  0  0  0  0  0  0  0
   -1.1573   14.3296   -2.1119 H   0  0  0  0  0  0  0  0  0  0  0  0
   -0.8057   12.5681   -2.1119 H   0  0  0  0  0  0  0  0  0  0  0  0
    2.7429   12.9350   -2.5876 H   0  0  0  0  0  0  0  0  0  0  0  0
    0.7847   12.4882   -4.2020 H   0  0  0  0  0  0  0  0  0  0  0  0
    2.0980   11.2278   -3.9259 H   0  0  0  0  0  0  0  0  0  0  0  0
   -0.3753   10.3283   -4.0507 H   0  0  0  0  0  0  0  0  0  0  0  0
    0.1162   11.2815   -0.1582 H   0  0  0  0  0  0  0  0  0  0  0  0
    1.8408    8.7582   -0.5504 H   0  0  0  0  0  0  0  0  0  0  0  0
    1.6287    9.7089    0.9865 H   0  0  0  0  0  0  0  0  0  0  0  0
    0.2843    7.6320    0.9770 H   0  0  0  0  0  0  0  0  0  0  0  0
   -0.7269    9.1273    1.0572 H   0  0  0  0  0  0  0  0  0  0  0  0
   -1.7445    7.5904   -0.4799 H   0  0  0  0  0  0  0  0  0  0  0  0
   -0.5880    6.5430   -2.0050 H   0  0  0  0  0  0  0  0  0  0  0  0
   -2.2563    9.9926    0.0725 H   0  0  0  0  0  0  0  0  0  0  0  0
   -2.3019   11.1341   -1.3136 H   0  0  0  0  0  0  0  0  0  0  0  0
   -3.3549    9.6789   -1.3136 H   0  0  0  0  0  0  0  0  0  0  0  0
   -2.6710    7.9545   -2.7359 H   0  0  0  0  0  0  0  0  0  0  0  0
   -2.3352    9.4911   -3.6035 H   0  0  0  0  0  0  0  0  0  0  0  0
   -1.1136    8.1741   -3.6035 H   0  0  0  0  0  0  0  0  0  0  0  0
    3.7510   10.3752   -0.4874 H   0  0  0  0  0  0  0  0  0  0  0  0
    2.9474    9.8387   -2.0017 H   0  0  0  0  0  0  0  0  0  0  0  0
    3.9686   11.3165   -2.0017 H   0  0  0  0  0  0  0  0  0  0  0  0
    2.1589   11.7111    1.1117 H   0  0  0  0  0  0  0  0  0  0  0  0
    3.4407   12.6346    0.1431 H   0  0  0  0  0  0  0  0  0  0  0  0
    0.5973   13.4964    0.7392 H   0  0  0  0  0  0  0  0  0  0  0  0
    2.1445   14.2319    1.3163 H   0  0  0  0  0  0  0  0  0  0  0  0
    3.7419   15.0404   -0.0861 H   0  0  0  0  0  0  0  0  0  0  0  0
    3.6670   14.1032   -1.6167 H   0  0  0  0  0  0  0  0  0  0  0  0
    3.2742   15.8560   -1.6167 H   0  0  0  0  0  0  0  0  0  0  0  0
  1  2  1  0
  2  3  1  0
  3  4  1  0
  4  5  1  0
  5  6  1  0
  6  7  1  0
  7  8  1  0
  7  9  1  0
  2 10  1  0
 10 11  1  0
 11 12  1  0
 12 13  1  0
 13 14  1  1
 13 15  1  0
 15 16  1  0
 16 17  1  0
 17 18  2  0
 18 19  1  0
 19 20  1  0
 20 21  1  0
 21 22  1  0
 22 23  1  0
 22 24  1  0
 24 25  1  0
 24 26  1  0
 19 27  1  0
 27 28  1  6
 27 29  1  0
 29 30  1  0
 30 31  1  0
 31 32  1  6
  7  5  1  0
 31 10  1  0
 31 13  1  0
 27 15  1  0
 24 18  1  0
  1 33  1  0
  1 34  1  0
  1 35  1  0
  2 36  1  1
  3 37  1  0
  3 38  1  0
  4 39  1  0
  4 40  1  0
  5 41  1  1
  8 42  1  0
  8 43  1  0
  8 44  1  0
  9 45  1  0
  9 46  1  0
  9 47  1  0
 10 48  1  1
 11 49  1  0
 11 50  1  0
 12 51  1  0
 12 52  1  0
 14 53  1  0
 14 54  1  0
 14 55  1  0
 15 56  1  6
 16 57  1  0
 16 58  1  0
 17 59  1  0
 19 60  1  1
 20 61  1  0
 20 62  1  0
 21 63  1  0
 21 64  1  0
 22 65  1  1
 23 66  1  0
 25 67  1  0
 25 68  1  0
 25 69  1  0
 26 70  1  0
 26 71  1  0
 26 72  1  0
 28 73  1  0
 28 74  1  0
 28 75  1  0
 29 76  1  0
 29 77  1  0
 30 78  1  0
 30 79  1  0
 32 80  1  0
 32 81  1  0
 32 82  1  0
M  END
>  <meeko>  (4) 
{"is_sidechain": [false], "intermolecular_energy": 2.731, "internal_energy": -0.839}

$$$$
EPH_relaxed_0001_pdb2pqr_Repair_331_r2_0001_out
     RDKit          3D

 82 86  0  0  0  0  0  0  0  0999 V2000
    2.9950   16.8620   -0.1220 C   0  0  0  0  0  0  0  0  0  0  0  0
    1.5540   17.1970   -0.5170 C   0  0  2  0  0  0  0  0  0  0  0  0
    0.7100   17.6460    0.6920 C   0  0  0  0  0  0  0  0  0  0  0  0
    0.3510   19.1350    0.6740 C   0  0  0  0  0  0  0  0  0  0  0  0
   -1.1280   19.3480    0.5640 C   0  0  2  0  0  0  0  0  0  0  0  0
   -1.8460   18.2640   -0.0410 O   0  0  0  0  0  0  0  0  0  0  0  0
   -1.8540   19.5090   -0.7580 C   0  0  0  0  0  0  0  0  0  0  0  0
   -1.1210   19.4660   -2.0620 C   0  0  0  0  0  0  0  0  0  0  0  0
   -3.1860   20.1920   -0.7640 C   0  0  0  0  0  0  0  0  0  0  0  0
    0.9060   15.9900   -1.1860 C   0  0  1  0  0  0  0  0  0  0  0  0
    0.6240   16.2230   -2.6940 C   0  0  0  0  0  0  0  0  0  0  0  0
    0.8390   14.8620   -3.4050 C   0  0  0  0  0  0  0  0  0  0  0  0
    0.9090   13.8290   -2.2550 C   0  0  1  0  0  0  0  0  0  0  0  0
   -0.5800   13.5430   -1.8820 C   0  0  0  0  0  0  0  0  0  0  0  0
    1.6920   12.5100   -2.5580 C   0  0  2  0  0  0  0  0  0  0  0  0
    1.1030   11.6460   -3.6860 C   0  0  0  0  0  0  0  0  0  0  0  0
    0.1060   10.6230   -3.2520 C   0  0  0  0  0  0  0  0  0  0  0  0
   -0.0910   10.2110   -1.9860 C   0  0  0  0  0  0  0  0  0  0  0  0
    0.8000   10.7180   -0.8450 C   0  0  1  0  0  0  0  0  0  0  0  0
    1.2430    9.5210    0.0370 C   0  0  0  0  0  0  0  0  0  0  0  0
    0.0620    8.6980    0.5420 C   0  0  0  0  0  0  0  0  0  0  0  0
   -0.7680    8.1630   -0.6230 C   0  0  2  0  0  0  0  0  0  0  0  0
    0.0170    7.2120   -1.3500 O   0  0  0  0  0  0  0  0  0  0  0  0
   -1.2610    9.2780   -1.5870 C   0  0  0  0  0  0  0  0  0  0  0  0
   -2.3450   10.1320   -0.8830 C   0  0  0  0  0  0  0  0  0  0  0  0
   -1.9620    8.5930   -2.7910 C   0  0  0  0  0  0  0  0  0  0  0  0
    2.0190   11.6420   -1.2760 C   0  0  1  0  0  0  0  0  0  0  0  0
    3.2530   10.7600   -1.6390 C   0  0  0  0  0  0  0  0  0  0  0  0
    2.4520   12.5280   -0.0480 C   0  0  0  0  0  0  0  0  0  0  0  0
    1.7240   13.8740    0.1280 C   0  0  0  0  0  0  0  0  0  0  0  0
    1.7030   14.6620   -1.1850 C   0  0  2  0  0  0  0  0  0  0  0  0
    3.1860   14.9840   -1.5740 C   0  0  0  0  0  0  0  0  0  0  0  0
    3.0795   16.8424    0.9746 H   0  0  0  0  0  0  0  0  0  0  0  0
    3.2670   15.8767   -0.5284 H   0  0  0  0  0  0  0  0  0  0  0  0
    3.6737   17.6263   -0.5284 H   0  0  0  0  0  0  0  0  0  0  0  0
    1.5910   18.0391   -1.2237 H   0  0  0  0  0  0  0  0  0  0  0  0
   -0.2233   17.0639    0.6992 H   0  0  0  0  0  0  0  0  0  0  0  0
    1.3196   17.4734    1.5912 H   0  0  0  0  0  0  0  0  0  0  0  0
    0.7096   19.5993    1.6045 H   0  0  0  0  0  0  0  0  0  0  0  0
    0.8292   19.5921   -0.2049 H   0  0  0  0  0  0  0  0  0  0  0  0
   -1.1339   19.9469    1.4867 H   0  0  0  0  0  0  0  0  0  0  0  0
   -0.0393   19.4025   -1.8726 H   0  0  0  0  0  0  0  0  0  0  0  0
   -1.4451   18.5853   -2.6359 H   0  0  0  0  0  0  0  0  0  0  0  0
   -1.3399   20.3785   -2.6359 H   0  0  0  0  0  0  0  0  0  0  0  0
   -3.5160   20.3612    0.2716 H   0  0  0  0  0  0  0  0  0  0  0  0
   -3.1006   21.1576   -1.2840 H   0  0  0  0  0  0  0  0  0  0  0  0
   -3.9202   19.5591   -1.2840 H   0  0  0  0  0  0  0  0  0  0  0  0
    0.0096   15.8902   -0.5563 H   0  0  0  0  0  0  0  0  0  0  0  0
   -0.4114   16.5657   -2.8372 H   0  0  0  0  0  0  0  0  0  0  0  0
    1.2920   16.9937   -3.1062 H   0  0  0  0  0  0  0  0  0  0  0  0
   -0.0019   14.6380   -4.0778 H   0  0  0  0  0  0  0  0  0  0  0  0
    1.7453   14.8550   -4.0284 H   0  0  0  0  0  0  0  0  0  0  0  0
   -0.6864   13.5226   -0.7873 H   0  0  0  0  0  0  0  0  0  0  0  0
   -1.2207   14.3345   -2.2979 H   0  0  0  0  0  0  0  0  0  0  0  0
   -0.8819   12.5705   -2.2979 H   0  0  0  0  0  0  0  0  0  0  0  0
    2.6513   12.8878   -2.9414 H   0  0  0  0  0  0  0  0  0  0  0  0
    0.6106   12.3164   -4.4058 H   0  0  0  0  0  0  0  0  0  0  0  0
    1.9479   11.0854   -4.1125 H   0  0  0  0  0  0  0  0  0  0  0  0
   -0.5205   10.1675   -4.0330 H   0  0  0  0  0  0  0  0  0  0  0  0
    0.1767   11.4060   -0.2549 H   0  0  0  0  0  0  0  0  0  0  0  0
    1.8989    8.8684   -0.5579 H   0  0  0  0  0  0  0  0  0  0  0  0
    1.7658    9.9285    0.9149 H   0  0  0  0  0  0  0  0  0  0  0  0
    0.4400    7.8511    1.1336 H   0  0  0  0  0  0  0  0  0  0  0  0
   -0.5774    9.3444    1.1611 H   0  0  0  0  0  0  0  0  0  0  0  0
   -1.6681    7.6943   -0.1986 H   0  0  0  0  0  0  0  0  0  0  0  0
    0.2590    7.6180   -2.2000 H   0  0  0  0  0  0  0  0  0  0  0  0
   -2.2314   10.0425    0.2074 H   0  0  0  0  0  0  0  0  0  0  0  0
   -2.2309   11.1855   -1.1783 H   0  0  0  0  0  0  0  0  0  0  0  0
   -3.3425    9.7745   -1.1783 H   0  0  0  0  0  0  0  0  0  0  0  0
   -2.7028    7.8691   -2.4206 H   0  0  0  0  0  0  0  0  0  0  0  0
   -2.4676    9.3546   -3.4027 H   0  0  0  0  0  0  0  0  0  0  0  0
   -1.2122    8.0699   -3.4027 H   0  0  0  0  0  0  0  0  0  0  0  0
    3.7395   10.4123   -0.7157 H   0  0  0  0  0  0  0  0  0  0  0  0
    2.9227    9.8921   -2.2286 H   0  0  0  0  0  0  0  0  0  0  0  0
    3.9672   11.3535   -2.2286 H   0  0  0  0  0  0  0  0  0  0  0  0
    2.2841   11.9370    0.8644 H   0  0  0  0  0  0  0  0  0  0  0  0
    3.5026   12.7918   -0.2395 H   0  0  0  0  0  0  0  0  0  0  0  0
    0.6895   13.6841    0.4502 H   0  0  0  0  0  0  0  0  0  0  0  0
    2.2603   14.4664    0.8839 H   0  0  0  0  0  0  0  0  0  0  0  0
    3.7847   15.1140   -0.6604 H   0  0  0  0  0  0  0  0  0  0  0  0
    3.5978   14.1544   -2.1674 H   0  0  0  0  0  0  0  0  0  0  0  0
    3.2167   15.9097   -2.1674 H   0  0  0  0  0  0  0  0  0  0  0  0
  1  2  1  0
  2  3  1  0
  3  4  1  0
  4  5  1  0
  5  6  1  0
  6  7  1  0
  7  8  1  0
  7  9  1  0
  2 10  1  0
 10 11  1  0
 11 12  1  0
 12 13  1  0
 13 14  1  1
 13 15  1  0
 15 16  1  0
 16 17  1  0
 17 18  2  0
 18 19  1  0
 19 20  1  0
 20 21  1  0
 21 22  1  0
 22 23  1  0
 22 24  1  0
 24 25  1  0
 24 26  1  0
 19 27  1  0
 27 28  1  6
 27 29  1  0
 29 30  1  0
 30 31  1  0
 31 32  1  6
  7  5  1  0
 31 10  1  0
 31 13  1  0
 27 15  1  0
 24 18  1  0
  1 33  1  0
  1 34  1  0
  1 35  1  0
  2 36  1  6
  3 37  1  0
  3 38  1  0
  4 39  1  0
  4 40  1  0
  5 41  1  1
  8 42  1  0
  8 43  1  0
  8 44  1  0
  9 45  1  0
  9 46  1  0
  9 47  1  0
 10 48  1  1
 11 49  1  0
 11 50  1  0
 12 51  1  0
 12 52  1  0
 14 53  1  0
 14 54  1  0
 14 55  1  0
 15 56  1  6
 16 57  1  0
 16 58  1  0
 17 59  1  0
 19 60  1  1
 20 61  1  0
 20 62  1  0
 21 63  1  0
 21 64  1  0
 22 65  1  1
 23 66  1  0
 25 67  1  0
 25 68  1  0
 25 69  1  0
 26 70  1  0
 26 71  1  0
 26 72  1  0
 28 73  1  0
 28 74  1  0
 28 75  1  0
 29 76  1  0
 29 77  1  0
 30 78  1  0
 30 79  1  0
 32 80  1  0
 32 81  1  0
 32 82  1  0
M  END
>  <meeko>  (5) 
{"is_sidechain": [false], "intermolecular_energy": 2.731, "internal_energy": -0.839}

$$$$
EPH_relaxed_0001_pdb2pqr_Repair_331_r2_0001_out
     RDKit          3D

 82 86  0  0  0  0  0  0  0  0999 V2000
    0.7710   17.7010   -1.0430 C   0  0  0  0  0  0  0  0  0  0  0  0
    0.7190   17.4980   -2.5600 C   0  0  2  0  0  0  0  0  0  0  0  0
   -0.2700   18.4640   -3.2420 C   0  0  0  0  0  0  0  0  0  0  0  0
   -0.7430   19.6030   -2.3340 C   0  0  0  0  0  0  0  0  0  0  0  0
   -1.7930   19.1420   -1.3680 C   0  0  2  0  0  0  0  0  0  0  0  0
   -2.5590   20.1940   -0.7690 O   0  0  0  0  0  0  0  0  0  0  0  0
   -1.7400   19.4210    0.1220 C   0  0  0  0  0  0  0  0  0  0  0  0
   -0.6100   20.1910    0.7310 C   0  0  0  0  0  0  0  0  0  0  0  0
   -2.5200   18.5370    1.0440 C   0  0  0  0  0  0  0  0  0  0  0  0
    0.3410   16.0560   -2.8780 C   0  0  1  0  0  0  0  0  0  0  0  0
    0.4280   15.7360   -4.3950 C   0  0  0  0  0  0  0  0  0  0  0  0
    0.9050   14.2660   -4.5150 C   0  0  0  0  0  0  0  0  0  0  0  0
    0.7580   13.6900   -3.0880 C   0  0  1  0  0  0  0  0  0  0  0  0
   -0.7540   13.3210   -2.9580 C   0  0  0  0  0  0  0  0  0  0  0  0
    1.6800   12.4780   -2.7330 C   0  0  2  0  0  0  0  0  0  0  0  0
    1.4500   11.2140   -3.5790 C   0  0  0  0  0  0  0  0  0  0  0  0
    0.4490   10.2520   -3.0300 C   0  0  0  0  0  0  0  0  0  0  0  0
   -0.0270   10.2530   -1.7710 C   0  0  0  0  0  0  0  0  0  0  0  0
    0.5160   11.2340   -0.7240 C   0  0  1  0  0  0  0  0  0  0  0  0
    0.8070   10.4730    0.5960 C   0  0  0  0  0  0  0  0  0  0  0  0
   -0.4030    9.6920    1.1010 C   0  0  0  0  0  0  0  0  0  0  0  0
   -0.8780    8.6870    0.0550 C   0  0  2  0  0  0  0  0  0  0  0  0
    0.1260    7.6810   -0.1070 O   0  0  0  0  0  0  0  0  0  0  0  0
   -1.1930    9.3380   -1.3220 C   0  0  0  0  0  0  0  0  0  0  0  0
   -2.4730   10.2010   -1.2090 C   0  0  0  0  0  0  0  0  0  0  0  0
   -1.5240    8.1990   -2.3230 C   0  0  0  0  0  0  0  0  0  0  0  0
    1.7380   12.1380   -1.1890 C   0  0  1  0  0  0  0  0  0  0  0  0
    3.0810   11.3820   -0.9500 C   0  0  0  0  0  0  0  0  0  0  0  0
    1.7910   13.4310   -0.2930 C   0  0  0  0  0  0  0  0  0  0  0  0
    0.9510   14.6350   -0.7600 C   0  0  0  0  0  0  0  0  0  0  0  0
    1.2030   14.9370   -2.2410 C   0  0  2  0  0  0  0  0  0  0  0  0
    2.7100   15.3330   -2.3990 C   0  0  0  0  0  0  0  0  0  0  0  0
    0.5285   16.7544   -0.5379 H   0  0  0  0  0  0  0  0  0  0  0  0
    1.7810   18.0243   -0.7507 H   0  0  0  0  0  0  0  0  0  0  0  0
    0.0409   18.4701   -0.7507 H   0  0  0  0  0  0  0  0  0  0  0  0
    1.7210   17.7168   -2.9577 H   0  0  0  0  0  0  0  0  0  0  0  0
    0.2239   18.9031   -4.1213 H   0  0  0  0  0  0  0  0  0  0  0  0
   -1.1601   17.8762   -3.5106 H   0  0  0  0  0  0  0  0  0  0  0  0
    0.1177   19.9886   -1.7679 H   0  0  0  0  0  0  0  0  0  0  0  0
   -1.1810   20.3879   -2.9681 H   0  0  0  0  0  0  0  0  0  0  0  0
   -1.9447   18.2148   -1.9400 H   0  0  0  0  0  0  0  0  0  0  0  0
   -0.6819   20.1420    1.8276 H   0  0  0  0  0  0  0  0  0  0  0  0
    0.3469   19.7562    0.4065 H   0  0  0  0  0  0  0  0  0  0  0  0
   -0.6646   21.2406    0.4065 H   0  0  0  0  0  0  0  0  0  0  0  0
   -2.2884   18.7995    2.0868 H   0  0  0  0  0  0  0  0  0  0  0  0
   -3.5959   18.6751    0.8614 H   0  0  0  0  0  0  0  0  0  0  0  0
   -2.2490   17.4867    0.8614 H   0  0  0  0  0  0  0  0  0  0  0  0
   -0.6747   16.0350   -2.4563 H   0  0  0  0  0  0  0  0  0  0  0  0
   -0.5600   15.8532   -4.8642 H   0  0  0  0  0  0  0  0  0  0  0  0
    1.1234   16.4198   -4.9038 H   0  0  0  0  0  0  0  0  0  0  0  0
    0.2749   13.7101   -5.2249 H   0  0  0  0  0  0  0  0  0  0  0  0
    1.9363   14.1916   -4.8904 H   0  0  0  0  0  0  0  0  0  0  0  0
   -1.0251   13.2548   -1.8940 H   0  0  0  0  0  0  0  0  0  0  0  0
   -1.3639   14.0967   -3.4442 H   0  0  0  0  0  0  0  0  0  0  0  0
   -0.9380   12.3516   -3.4442 H   0  0  0  0  0  0  0  0  0  0  0  0
    2.6764   12.8489   -3.0152 H   0  0  0  0  0  0  0  0  0  0  0  0
    1.1069   11.5297   -4.5753 H   0  0  0  0  0  0  0  0  0  0  0  0
    2.4107   10.6784   -3.5928 H   0  0  0  0  0  0  0  0  0  0  0  0
    0.0684    9.4772   -3.7118 H   0  0  0  0  0  0  0  0  0  0  0  0
   -0.2798   11.9755   -0.5601 H   0  0  0  0  0  0  0  0  0  0  0  0
    1.6336    9.7685    0.4218 H   0  0  0  0  0  0  0  0  0  0  0  0
    1.0654   11.2195    1.3615 H   0  0  0  0  0  0  0  0  0  0  0  0
   -0.1261    9.1527    2.0189 H   0  0  0  0  0  0  0  0  0  0  0  0
   -1.2194   10.4010    1.3033 H   0  0  0  0  0  0  0  0  0  0  0  0
   -1.8206    8.2524    0.4193 H   0  0  0  0  0  0  0  0  0  0  0  0
    0.2020    7.4910   -1.0580 H   0  0  0  0  0  0  0  0  0  0  0  0
   -2.7134   10.3631   -0.1479 H   0  0  0  0  0  0  0  0  0  0  0  0
   -2.3055   11.1713   -1.6994 H   0  0  0  0  0  0  0  0  0  0  0  0
   -3.3097    9.6819   -1.6994 H   0  0  0  0  0  0  0  0  0  0  0  0
   -1.7889    7.2876   -1.7669 H   0  0  0  0  0  0  0  0  0  0  0  0
   -2.3713    8.5017   -2.9558 H   0  0  0  0  0  0  0  0  0  0  0  0
   -0.6464    8.0004   -2.9558 H   0  0  0  0  0  0  0  0  0  0  0  0
    3.2582   11.2822    0.1310 H   0  0  0  0  0  0  0  0  0  0  0  0
    3.0254   10.3826   -1.4062 H   0  0  0  0  0  0  0  0  0  0  0  0
    3.9066   11.9479   -1.4062 H   0  0  0  0  0  0  0  0  0  0  0  0
    1.4436   13.1531    0.7130 H   0  0  0  0  0  0  0  0  0  0  0  0
    2.8355   13.7725   -0.3422 H   0  0  0  0  0  0  0  0  0  0  0  0
   -0.1155   14.4077   -0.6153 H   0  0  0  0  0  0  0  0  0  0  0  0
    1.2403   15.5158   -0.1679 H   0  0  0  0  0  0  0  0  0  0  0  0
    3.1640   15.4523   -1.4042 H   0  0  0  0  0  0  0  0  0  0  0  0
    3.2405   14.5438   -2.9519 H   0  0  0  0  0  0  0  0  0  0  0  0
    2.7840   16.2811   -2.9519 H   0  0  0  0  0  0  0  0  0  0  0  0
  1  2  1  0
  2  3  1  0
  3  4  1  0
  4  5  1  0
  5  6  1  0
  6  7  1  0
  7  8  1  0
  7  9  1  0
  2 10  1  0
 10 11  1  0
 11 12  1  0
 12 13  1  0
 13 14  1  1
 13 15  1  0
 15 16  1  0
 16 17  1  0
 17 18  2  0
 18 19  1  0
 19 20  1  0
 20 21  1  0
 21 22  1  0
 22 23  1  0
 22 24  1  0
 24 25  1  0
 24 26  1  0
 19 27  1  0
 27 28  1  6
 27 29  1  0
 29 30  1  0
 30 31  1  0
 31 32  1  1
  7  5  1  0
 31 10  1  0
 31 13  1  0
 27 15  1  0
 24 18  1  0
  1 33  1  0
  1 34  1  0
  1 35  1  0
  2 36  1  6
  3 37  1  0
  3 38  1  0
  4 39  1  0
  4 40  1  0
  5 41  1  1
  8 42  1  0
  8 43  1  0
  8 44  1  0
  9 45  1  0
  9 46  1  0
  9 47  1  0
 10 48  1  1
 11 49  1  0
 11 50  1  0
 12 51  1  0
 12 52  1  0
 14 53  1  0
 14 54  1  0
 14 55  1  0
 15 56  1  6
 16 57  1  0
 16 58  1  0
 17 59  1  0
 19 60  1  1
 20 61  1  0
 20 62  1  0
 21 63  1  0
 21 64  1  0
 22 65  1  1
 23 66  1  0
 25 67  1  0
 25 68  1  0
 25 69  1  0
 26 70  1  0
 26 71  1  0
 26 72  1  0
 28 73  1  0
 28 74  1  0
 28 75  1  0
 29 76  1  0
 29 77  1  0
 30 78  1  0
 30 79  1  0
 32 80  1  0
 32 81  1  0
 32 82  1  0
M  END
>  <meeko>  (6) 
{"is_sidechain": [false], "intermolecular_energy": 2.731, "internal_energy": -0.839}

$$$$
EPH_relaxed_0001_pdb2pqr_Repair_331_r2_0001_out
     RDKit          3D

 82 86  0  0  0  0  0  0  0  0999 V2000
   -0.9170   16.5070   -5.8460 C   0  0  0  0  0  0  0  0  0  0  0  0
    0.1790   15.8130   -6.6600 C   0  0  2  0  0  0  0  0  0  0  0  0
   -0.2190   15.6370   -8.1390 C   0  0  0  0  0  0  0  0  0  0  0  0
    0.4560   16.6370   -9.0810 C   0  0  0  0  0  0  0  0  0  0  0  0
    1.8480   16.2110   -9.4370 C   0  0  2  0  0  0  0  0  0  0  0  0
    2.3300   16.7210  -10.6870 O   0  0  0  0  0  0  0  0  0  0  0  0
    2.1710   15.2950  -10.6030 C   0  0  0  0  0  0  0  0  0  0  0  0
    1.0940   14.7500  -11.4880 C   0  0  0  0  0  0  0  0  0  0  0  0
    3.4660   14.5450  -10.5860 C   0  0  0  0  0  0  0  0  0  0  0  0
    0.5030   14.4570   -6.0430 C   0  0  1  0  0  0  0  0  0  0  0  0
    1.7190   13.7690   -6.7190 C   0  0  0  0  0  0  0  0  0  0  0  0
    2.4720   12.9970   -5.6050 C   0  0  0  0  0  0  0  0  0  0  0  0
    1.4950   12.9900   -4.4060 C   0  0  1  0  0  0  0  0  0  0  0  0
    0.4960   11.8300   -4.7090 C   0  0  0  0  0  0  0  0  0  0  0  0
    2.1410   12.8410   -2.9900 C   0  0  2  0  0  0  0  0  0  0  0  0
    2.8970   11.5220   -2.7530 C   0  0  0  0  0  0  0  0  0  0  0  0
    2.0770   10.4100   -2.1880 C   0  0  0  0  0  0  0  0  0  0  0  0
    0.8650   10.5430   -1.6180 C   0  0  0  0  0  0  0  0  0  0  0  0
    0.2400   11.9290   -1.4100 C   0  0  1  0  0  0  0  0  0  0  0  0
   -0.3270   12.0300    0.0300 C   0  0  0  0  0  0  0  0  0  0  0  0
   -1.2960   10.8980    0.3580 C   0  0  0  0  0  0  0  0  0  0  0  0
   -0.6220    9.5390    0.1960 C   0  0  2  0  0  0  0  0  0  0  0  0
    0.3960    9.4070    1.1930 O   0  0  0  0  0  0  0  0  0  0  0  0
   -0.0030    9.3260   -1.2140 C   0  0  0  0  0  0  0  0  0  0  0  0
   -1.1340    9.1670   -2.2600 C   0  0  0  0  0  0  0  0  0  0  0  0
    0.7670    7.9780   -1.1990 C   0  0  0  0  0  0  0  0  0  0  0  0
    1.1590   13.1680   -1.7920 C   0  0  1  0  0  0  0  0  0  0  0  0
    2.0540   13.5620   -0.5780 C   0  0  0  0  0  0  0  0  0  0  0  0
    0.2440   14.4130   -2.0920 C   0  0  0  0  0  0  0  0  0  0  0  0
   -0.2650   14.5700   -3.5380 C   0  0  0  0  0  0  0  0  0  0  0  0
    0.8850   14.4320   -4.5410 C   0  0  2  0  0  0  0  0  0  0  0  0
    1.8950   15.6000   -4.2750 C   0  0  0  0  0  0  0  0  0  0  0  0
   -0.7137   16.3783   -4.7726 H   0  0  0  0  0  0  0  0  0  0  0  0
   -0.9318   17.5794   -6.0903 H   0  0  0  0  0  0  0  0  0  0  0  0
   -1.8927   16.0618   -6.0903 H   0  0  0  0  0  0  0  0  0  0  0  0
    1.0701   16.4573   -6.6329 H   0  0  0  0  0  0  0  0  0  0  0  0
    0.0587   14.6205   -8.4548 H   0  0  0  0  0  0  0  0  0  0  0  0
   -1.3025   15.8153   -8.2037 H   0  0  0  0  0  0  0  0  0  0  0  0
   -0.1392   16.7161  -10.0027 H   0  0  0  0  0  0  0  0  0  0  0  0
    0.5156   17.6069   -8.5656 H   0  0  0  0  0  0  0  0  0  0  0  0
    2.1354   16.1834   -8.3756 H   0  0  0  0  0  0  0  0  0  0  0  0
    0.2830   14.3396  -10.8684 H   0  0  0  0  0  0  0  0  0  0  0  0
    0.6982   15.5563  -12.1230 H   0  0  0  0  0  0  0  0  0  0  0  0
    1.5093   13.9535  -12.1230 H   0  0  0  0  0  0  0  0  0  0  0  0
    3.7731   14.3672   -9.5448 H   0  0  0  0  0  0  0  0  0  0  0  0
    3.3383   13.5811  -11.1003 H   0  0  0  0  0  0  0  0  0  0  0  0
    4.2385   15.1355  -11.1003 H   0  0  0  0  0  0  0  0  0  0  0  0
   -0.4612   13.9498   -6.1949 H   0  0  0  0  0  0  0  0  0  0  0  0
    1.3754   13.0717   -7.4973 H   0  0  0  0  0  0  0  0  0  0  0  0
    2.3753   14.5096   -7.1993 H   0  0  0  0  0  0  0  0  0  0  0  0
    2.6971   11.9700   -5.9284 H   0  0  0  0  0  0  0  0  0  0  0  0
    3.4367   13.4623   -5.3542 H   0  0  0  0  0  0  0  0  0  0  0  0
    0.1299   11.4049   -3.7628 H   0  0  0  0  0  0  0  0  0  0  0  0
   -0.3536   12.2198   -5.2889 H   0  0  0  0  0  0  0  0  0  0  0  0
    1.0075   11.0476   -5.2889 H   0  0  0  0  0  0  0  0  0  0  0  0
    2.9093   13.6282   -2.9972 H   0  0  0  0  0  0  0  0  0  0  0  0
    3.3061   11.1866   -3.7175 H   0  0  0  0  0  0  0  0  0  0  0  0
    3.6682   11.7441   -2.0008 H   0  0  0  0  0  0  0  0  0  0  0  0
    2.4991    9.3957   -2.2421 H   0  0  0  0  0  0  0  0  0  0  0  0
   -0.5791   12.0062   -2.1401 H   0  0  0  0  0  0  0  0  0  0  0  0
    0.5107   11.9945    0.7421 H   0  0  0  0  0  0  0  0  0  0  0  0
   -0.8820   12.9768    0.1046 H   0  0  0  0  0  0  0  0  0  0  0  0
   -1.6394   11.0079    1.3972 H   0  0  0  0  0  0  0  0  0  0  0  0
   -2.1474   10.9525   -0.3363 H   0  0  0  0  0  0  0  0  0  0  0  0
   -1.3987    8.7695    0.3171 H   0  0  0  0  0  0  0  0  0  0  0  0
    0.1510    9.9780    1.9410 H   0  0  0  0  0  0  0  0  0  0  0  0
   -2.0954    9.0318   -1.7428 H   0  0  0  0  0  0  0  0  0  0  0  0
   -1.1800   10.0675   -2.8901 H   0  0  0  0  0  0  0  0  0  0  0  0
   -0.9299    8.2887   -2.8901 H   0  0  0  0  0  0  0  0  0  0  0  0
    0.9439    7.6683   -0.1584 H   0  0  0  0  0  0  0  0  0  0  0  0
    0.1715    7.2098   -1.7140 H   0  0  0  0  0  0  0  0  0  0  0  0
    1.7312    8.1008   -1.7140 H   0  0  0  0  0  0  0  0  0  0  0  0
    1.5253   13.3293    0.3581 H   0  0  0  0  0  0  0  0  0  0  0  0
    2.9960   12.9954   -0.6177 H   0  0  0  0  0  0  0  0  0  0  0  0
    2.2722   14.6394   -0.6177 H   0  0  0  0  0  0  0  0  0  0  0  0
   -0.6358   14.3451   -1.4352 H   0  0  0  0  0  0  0  0  0  0  0  0
    0.8847   15.2896   -1.9161 H   0  0  0  0  0  0  0  0  0  0  0  0
   -1.0158   13.7924   -3.7418 H   0  0  0  0  0  0  0  0  0  0  0  0
   -0.7084   15.5707   -3.6476 H   0  0  0  0  0  0  0  0  0  0  0  0
    2.0162   15.7401   -3.1907 H   0  0  0  0  0  0  0  0  0  0  0  0
    2.8683   15.3524   -4.7238 H   0  0  0  0  0  0  0  0  0  0  0  0
    1.5096   16.5274   -4.7238 H   0  0  0  0  0  0  0  0  0  0  0  0
  1  2  1  0
  2  3  1  0
  3  4  1  0
  4  5  1  0
  5  6  1  0
  6  7  1  0
  7  8  1  0
  7  9  1  0
  2 10  1  0
 10 11  1  0
 11 12  1  0
 12 13  1  0
 13 14  1  6
 13 15  1  0
 15 16  1  0
 16 17  1  0
 17 18  2  0
 18 19  1  0
 19 20  1  0
 20 21  1  0
 21 22  1  0
 22 23  1  0
 22 24  1  0
 24 25  1  0
 24 26  1  0
 19 27  1  0
 27 28  1  1
 27 29  1  0
 29 30  1  0
 30 31  1  0
 31 32  1  6
  7  5  1  0
 31 10  1  0
 31 13  1  0
 27 15  1  0
 24 18  1  0
  1 33  1  0
  1 34  1  0
  1 35  1  0
  2 36  1  6
  3 37  1  0
  3 38  1  0
  4 39  1  0
  4 40  1  0
  5 41  1  1
  8 42  1  0
  8 43  1  0
  8 44  1  0
  9 45  1  0
  9 46  1  0
  9 47  1  0
 10 48  1  1
 11 49  1  0
 11 50  1  0
 12 51  1  0
 12 52  1  0
 14 53  1  0
 14 54  1  0
 14 55  1  0
 15 56  1  6
 16 57  1  0
 16 58  1  0
 17 59  1  0
 19 60  1  6
 20 61  1  0
 20 62  1  0
 21 63  1  0
 21 64  1  0
 22 65  1  1
 23 66  1  0
 25 67  1  0
 25 68  1  0
 25 69  1  0
 26 70  1  0
 26 71  1  0
 26 72  1  0
 28 73  1  0
 28 74  1  0
 28 75  1  0
 29 76  1  0
 29 77  1  0
 30 78  1  0
 30 79  1  0
 32 80  1  0
 32 81  1  0
 32 82  1  0
M  END
>  <meeko>  (7) 
{"is_sidechain": [false], "intermolecular_energy": 2.731, "internal_energy": -0.839}

$$$$
EPH_relaxed_0001_pdb2pqr_Repair_331_r2_0001_out
     RDKit          3D

 82 86  0  0  0  0  0  0  0  0999 V2000
   -2.1760    7.8520   -2.1310 C   0  0  0  0  0  0  0  0  0  0  0  0
   -2.1410    8.4960   -0.7420 C   0  0  2  0  0  0  0  0  0  0  0  0
   -3.5200    8.4700   -0.0540 C   0  0  0  0  0  0  0  0  0  0  0  0
   -4.6970    8.5180   -1.0320 C   0  0  0  0  0  0  0  0  0  0  0  0
   -5.5380    7.2800   -0.9490 C   0  0  2  0  0  0  0  0  0  0  0  0
   -5.6280    6.5350   -2.1700 O   0  0  0  0  0  0  0  0  0  0  0  0
   -6.8520    7.1110   -1.6870 C   0  0  0  0  0  0  0  0  0  0  0  0
   -7.4020    8.1940   -2.5610 C   0  0  0  0  0  0  0  0  0  0  0  0
   -7.8340    6.1010   -1.1780 C   0  0  0  0  0  0  0  0  0  0  0  0
   -1.6390    9.9320   -0.8480 C   0  0  1  0  0  0  0  0  0  0  0  0
   -1.2030   10.5150    0.5230 C   0  0  0  0  0  0  0  0  0  0  0  0
    0.0020   11.4520    0.2470 C   0  0  0  0  0  0  0  0  0  0  0  0
    0.0080   11.6370   -1.2880 C   0  0  1  0  0  0  0  0  0  0  0  0
   -1.0690   12.7320   -1.5650 C   0  0  0  0  0  0  0  0  0  0  0  0
    1.3840   12.0040   -1.9340 C   0  0  2  0  0  0  0  0  0  0  0  0
    1.9800   13.3480   -1.4790 C   0  0  0  0  0  0  0  0  0  0  0  0
    1.5950   14.5290   -2.3060 C   0  0  0  0  0  0  0  0  0  0  0  0
    1.0370   14.4790   -3.5300 C   0  0  0  0  0  0  0  0  0  0  0  0
    0.8300   13.1380   -4.2470 C   0  0  1  0  0  0  0  0  0  0  0  0
    1.3140   13.2550   -5.7160 C   0  0  0  0  0  0  0  0  0  0  0  0
    0.6620   14.4190   -6.4560 C   0  0  0  0  0  0  0  0  0  0  0  0
    0.9400   15.7420   -5.7450 C   0  0  2  0  0  0  0  0  0  0  0  0
    2.3380   16.0290   -5.8350 O   0  0  0  0  0  0  0  0  0  0  0  0
    0.5020   15.7390   -4.2540 C   0  0  0  0  0  0  0  0  0  0  0  0
   -1.0440   15.7310   -4.1650 C   0  0  0  0  0  0  0  0  0  0  0  0
    0.9650   17.0780   -3.6180 C   0  0  0  0  0  0  0  0  0  0  0  0
    1.4200   11.8600   -3.5090 C   0  0  1  0  0  0  0  0  0  0  0  0
    2.9150   11.6610   -3.9040 C   0  0  0  0  0  0  0  0  0  0  0  0
    0.6540   10.5780   -4.0100 C   0  0  0  0  0  0  0  0  0  0  0  0
   -0.6340   10.2000   -3.2550 C   0  0  0  0  0  0  0  0  0  0  0  0
   -0.4000   10.1880   -1.7420 C   0  0  2  0  0  0  0  0  0  0  0  0
    0.6630    9.0800   -1.4310 C   0  0  0  0  0  0  0  0  0  0  0  0
   -2.2354    6.7586   -2.0268 H   0  0  0  0  0  0  0  0  0  0  0  0
   -3.0557    8.2162   -2.6819 H   0  0  0  0  0  0  0  0  0  0  0  0
   -1.2620    8.1187   -2.6819 H   0  0  0  0  0  0  0  0  0  0  0  0
   -1.4517    7.9052   -0.1209 H   0  0  0  0  0  0  0  0  0  0  0  0
   -3.5963    7.5448    0.5360 H   0  0  0  0  0  0  0  0  0  0  0  0
   -3.5844    9.3729    0.5709 H   0  0  0  0  0  0  0  0  0  0  0  0
   -5.3229    9.3907   -0.7939 H   0  0  0  0  0  0  0  0  0  0  0  0
   -4.2922    8.5896   -2.0523 H   0  0  0  0  0  0  0  0  0  0  0  0
   -5.2596    7.1328    0.1050 H   0  0  0  0  0  0  0  0  0  0  0  0
   -7.8110    8.9994   -1.9333 H   0  0  0  0  0  0  0  0  0  0  0  0
   -6.5988    8.5960   -3.1961 H   0  0  0  0  0  0  0  0  0  0  0  0
   -8.2004    7.7827   -3.1961 H   0  0  0  0  0  0  0  0  0  0  0  0
   -7.8287    6.1064   -0.0780 H   0  0  0  0  0  0  0  0  0  0  0  0
   -8.8412    6.3535   -1.5411 H   0  0  0  0  0  0  0  0  0  0  0  0
   -7.5533    5.1013   -1.5411 H   0  0  0  0  0  0  0  0  0  0  0  0
   -2.5270   10.4057   -1.2919 H   0  0  0  0  0  0  0  0  0  0  0  0
   -2.0300   11.0837    0.9732 H   0  0  0  0  0  0  0  0  0  0  0  0
   -0.9279    9.7132    1.2240 H   0  0  0  0  0  0  0  0  0  0  0  0
   -0.1335   12.4186    0.7542 H   0  0  0  0  0  0  0  0  0  0  0  0
    0.9489   11.0353    0.6208 H   0  0  0  0  0  0  0  0  0  0  0  0
   -1.4511   13.1205   -0.6095 H   0  0  0  0  0  0  0  0  0  0  0  0
   -0.6172   13.5534   -2.1404 H   0  0  0  0  0  0  0  0  0  0  0  0
   -1.8978   12.2938   -2.1404 H   0  0  0  0  0  0  0  0  0  0  0  0
    2.0497   11.2283   -1.5276 H   0  0  0  0  0  0  0  0  0  0  0  0
    1.6497   13.5340   -0.4464 H   0  0  0  0  0  0  0  0  0  0  0  0
    3.0706   13.2474   -1.5816 H   0  0  0  0  0  0  0  0  0  0  0  0
    1.7832   15.5252   -1.8791 H   0  0  0  0  0  0  0  0  0  0  0  0
   -0.2529   12.9459   -4.2264 H   0  0  0  0  0  0  0  0  0  0  0  0
    2.4041   13.4026   -5.7174 H   0  0  0  0  0  0  0  0  0  0  0  0
    1.0302   12.3280   -6.2358 H   0  0  0  0  0  0  0  0  0  0  0  0
    1.0662   14.4676   -7.4779 H   0  0  0  0  0  0  0  0  0  0  0  0
   -0.4254   14.2549   -6.4799 H   0  0  0  0  0  0  0  0  0  0  0  0
    0.3427   16.5179   -6.2461 H   0  0  0  0  0  0  0  0  0  0  0  0
    2.7730   15.6180   -5.0690 H   0  0  0  0  0  0  0  0  0  0  0  0
   -1.3504   15.7294   -3.1085 H   0  0  0  0  0  0  0  0  0  0  0  0
   -1.4445   16.6271   -4.6616 H   0  0  0  0  0  0  0  0  0  0  0  0
   -1.4352   14.8308   -4.6616 H   0  0  0  0  0  0  0  0  0  0  0  0
    0.9355   16.9927   -2.5217 H   0  0  0  0  0  0  0  0  0  0  0  0
    1.9925   17.3013   -3.9409 H   0  0  0  0  0  0  0  0  0  0  0  0
    0.2949   17.8884   -3.9409 H   0  0  0  0  0  0  0  0  0  0  0  0
    3.5271   11.5795   -2.9936 H   0  0  0  0  0  0  0  0  0  0  0  0
    3.0179   10.7412   -4.4985 H   0  0  0  0  0  0  0  0  0  0  0  0
    3.2549   12.5218   -4.4985 H   0  0  0  0  0  0  0  0  0  0  0  0
    0.3861   10.7411   -5.0644 H   0  0  0  0  0  0  0  0  0  0  0  0
    1.3467    9.7417   -3.8347 H   0  0  0  0  0  0  0  0  0  0  0  0
   -1.4183   10.9340   -3.4918 H   0  0  0  0  0  0  0  0  0  0  0  0
   -0.9416    9.1919   -3.5699 H   0  0  0  0  0  0  0  0  0  0  0  0
    0.7693    8.9692   -0.3418 H   0  0  0  0  0  0  0  0  0  0  0  0
    0.3349    8.1246   -1.8664 H   0  0  0  0  0  0  0  0  0  0  0  0
    1.6312    9.3682   -1.8664 H   0  0  0  0  0  0  0  0  0  0  0  0
  1  2  1  0
  2  3  1  0
  3  4  1  0
  4  5  1  0
  5  6  1  0
  6  7  1  0
  7  8  1  0
  7  9  1  0
  2 10  1  0
 10 11  1  0
 11 12  1  0
 12 13  1  0
 13 14  1  1
 13 15  1  0
 15 16  1  0
 16 17  1  0
 17 18  2  0
 18 19  1  0
 19 20  1  0
 20 21  1  0
 21 22  1  0
 22 23  1  0
 22 24  1  0
 24 25  1  0
 24 26  1  0
 19 27  1  0
 27 28  1  6
 27 29  1  0
 29 30  1  0
 30 31  1  0
 31 32  1  6
  7  5  1  0
 31 10  1  0
 31 13  1  0
 27 15  1  0
 24 18  1  0
  1 33  1  0
  1 34  1  0
  1 35  1  0
  2 36  1  1
  3 37  1  0
  3 38  1  0
  4 39  1  0
  4 40  1  0
  5 41  1  1
  8 42  1  0
  8 43  1  0
  8 44  1  0
  9 45  1  0
  9 46  1  0
  9 47  1  0
 10 48  1  6
 11 49  1  0
 11 50  1  0
 12 51  1  0
 12 52  1  0
 14 53  1  0
 14 54  1  0
 14 55  1  0
 15 56  1  1
 16 57  1  0
 16 58  1  0
 17 59  1  0
 19 60  1  6
 20 61  1  0
 20 62  1  0
 21 63  1  0
 21 64  1  0
 22 65  1  6
 23 66  1  0
 25 67  1  0
 25 68  1  0
 25 69  1  0
 26 70  1  0
 26 71  1  0
 26 72  1  0
 28 73  1  0
 28 74  1  0
 28 75  1  0
 29 76  1  0
 29 77  1  0
 30 78  1  0
 30 79  1  0
 32 80  1  0
 32 81  1  0
 32 82  1  0
M  END
>  <meeko>  (8) 
{"is_sidechain": [false], "intermolecular_energy": 2.731, "internal_energy": -0.839}

$$$$
EPH_relaxed_0001_pdb2pqr_Repair_331_r2_0001_out
     RDKit          3D

 82 86  0  0  0  0  0  0  0  0999 V2000
   -3.7270    7.1530   -3.3420 C   0  0  0  0  0  0  0  0  0  0  0  0
   -3.7690    7.2630   -1.8150 C   0  0  2  0  0  0  0  0  0  0  0  0
   -5.1930    7.0680   -1.2570 C   0  0  0  0  0  0  0  0  0  0  0  0
   -6.2950    7.2510   -2.3040 C   0  0  0  0  0  0  0  0  0  0  0  0
   -7.6330    7.4720   -1.6680 C   0  0  2  0  0  0  0  0  0  0  0  0
   -8.2420    6.2930   -1.1270 O   0  0  0  0  0  0  0  0  0  0  0  0
   -8.9280    6.9120   -2.2260 C   0  0  0  0  0  0  0  0  0  0  0  0
   -8.9470    6.0870   -3.4750 C   0  0  0  0  0  0  0  0  0  0  0  0
  -10.2170    7.5690   -1.8400 C   0  0  0  0  0  0  0  0  0  0  0  0
   -3.2180    8.6140   -1.3760 C   0  0  1  0  0  0  0  0  0  0  0  0
   -3.8280    9.1010   -0.0340 C   0  0  0  0  0  0  0  0  0  0  0  0
   -2.7060    9.8630    0.7170 C   0  0  0  0  0  0  0  0  0  0  0  0
   -1.6020   10.0770   -0.3450 C   0  0  1  0  0  0  0  0  0  0  0  0
   -2.0700   11.3200   -1.1650 C   0  0  0  0  0  0  0  0  0  0  0  0
   -0.1470   10.2590    0.1990 C   0  0  2  0  0  0  0  0  0  0  0  0
    0.0670   11.4940    1.0900 C   0  0  0  0  0  0  0  0  0  0  0  0
    0.4810   12.7360    0.3720 C   0  0  0  0  0  0  0  0  0  0  0  0
    0.9480   12.7900   -0.8900 C   0  0  0  0  0  0  0  0  0  0  0  0
    1.1930   11.5080   -1.6950 C   0  0  1  0  0  0  0  0  0  0  0  0
    2.5800   11.5860   -2.3850 C   0  0  0  0  0  0  0  0  0  0  0  0
    2.7440   12.8450   -3.2290 C   0  0  0  0  0  0  0  0  0  0  0  0
    2.5510   14.1000   -2.3810 C   0  0  2  0  0  0  0  0  0  0  0  0
    3.6240   14.1870   -1.4380 O   0  0  0  0  0  0  0  0  0  0  0  0
    1.1910   14.1290   -1.6300 C   0  0  0  0  0  0  0  0  0  0  0  0
    0.0400   14.3380   -2.6450 C   0  0  0  0  0  0  0  0  0  0  0  0
    1.1830   15.3740   -0.7030 C   0  0  0  0  0  0  0  0  0  0  0  0
    0.9780   10.1430   -0.9090 C   0  0  1  0  0  0  0  0  0  0  0  0
    2.2910    9.7430   -0.1700 C   0  0  0  0  0  0  0  0  0  0  0  0
    0.6820    8.9940   -1.9440 C   0  0  0  0  0  0  0  0  0  0  0  0
   -0.7890    8.7870   -2.3500 C   0  0  0  0  0  0  0  0  0  0  0  0
   -1.6930    8.7110   -1.1160 C   0  0  2  0  0  0  0  0  0  0  0  0
   -1.2600    7.4570   -0.2830 C   0  0  0  0  0  0  0  0  0  0  0  0
   -3.3481    6.1607   -3.6278 H   0  0  0  0  0  0  0  0  0  0  0  0
   -4.7404    7.2893   -3.7474 H   0  0  0  0  0  0  0  0  0  0  0  0
   -3.0623    7.9300   -3.7474 H   0  0  0  0  0  0  0  0  0  0  0  0
   -3.1422    6.4558   -1.4081 H   0  0  0  0  0  0  0  0  0  0  0  0
   -5.2690    6.0500   -0.8472 H   0  0  0  0  0  0  0  0  0  0  0  0
   -5.3465    7.8417   -0.4903 H   0  0  0  0  0  0  0  0  0  0  0  0
   -6.0502    8.1212   -2.9307 H   0  0  0  0  0  0  0  0  0  0  0  0
   -6.3500    6.3331   -2.9077 H   0  0  0  0  0  0  0  0  0  0  0  0
   -7.3416    8.4852   -1.3542 H   0  0  0  0  0  0  0  0  0  0  0  0
   -8.9716    5.0199   -3.2092 H   0  0  0  0  0  0  0  0  0  0  0  0
   -9.8396    6.3381   -4.0668 H   0  0  0  0  0  0  0  0  0  0  0  0
   -8.0438    6.2968   -4.0668 H   0  0  0  0  0  0  0  0  0  0  0  0
  -10.2944    7.6085   -0.7434 H   0  0  0  0  0  0  0  0  0  0  0  0
  -10.2439    8.5908   -2.2465 H   0  0  0  0  0  0  0  0  0  0  0  0
  -11.0596    6.9904   -2.2465 H   0  0  0  0  0  0  0  0  0  0  0  0
   -3.4889    9.2171   -2.2551 H   0  0  0  0  0  0  0  0  0  0  0  0
   -4.6785    9.7717   -0.2258 H   0  0  0  0  0  0  0  0  0  0  0  0
   -4.1975    8.2538    0.5624 H   0  0  0  0  0  0  0  0  0  0  0  0
   -3.0762   10.8284    1.0924 H   0  0  0  0  0  0  0  0  0  0  0  0
   -2.3398    9.3088    1.5938 H   0  0  0  0  0  0  0  0  0  0  0  0
   -2.3719   12.1219   -0.4752 H   0  0  0  0  0  0  0  0  0  0  0  0
   -1.2434   11.6735   -1.7989 H   0  0  0  0  0  0  0  0  0  0  0  0
   -2.9245   11.0406   -1.7989 H   0  0  0  0  0  0  0  0  0  0  0  0
   -0.0327    9.3893    0.8628 H   0  0  0  0  0  0  0  0  0  0  0  0
   -0.8777   11.7031    1.6133 H   0  0  0  0  0  0  0  0  0  0  0  0
    0.8985   11.2416    1.7644 H   0  0  0  0  0  0  0  0  0  0  0  0
    0.3976   13.6863    0.9196 H   0  0  0  0  0  0  0  0  0  0  0  0
    0.3995   11.4714   -2.4559 H   0  0  0  0  0  0  0  0  0  0  0  0
    3.3603   11.5772   -1.6098 H   0  0  0  0  0  0  0  0  0  0  0  0
    2.6671   10.7199   -3.0575 H   0  0  0  0  0  0  0  0  0  0  0  0
    3.7538   12.8570   -3.6650 H   0  0  0  0  0  0  0  0  0  0  0  0
    1.9823   12.8372   -4.0225 H   0  0  0  0  0  0  0  0  0  0  0  0
    2.5499   14.9630   -3.0631 H   0  0  0  0  0  0  0  0  0  0  0  0
    3.5510   15.0460   -0.9890 H   0  0  0  0  0  0  0  0  0  0  0  0
   -0.9012   14.5089   -2.1020 H   0  0  0  0  0  0  0  0  0  0  0  0
    0.2623   15.2105   -3.2770 H   0  0  0  0  0  0  0  0  0  0  0  0
   -0.0586   13.4431   -3.2770 H   0  0  0  0  0  0  0  0  0  0  0  0
    1.1851   15.0487    0.3478 H   0  0  0  0  0  0  0  0  0  0  0  0
    2.0772   15.9835   -0.8999 H   0  0  0  0  0  0  0  0  0  0  0  0
    0.2810   15.9720   -0.8999 H   0  0  0  0  0  0  0  0  0  0  0  0
    2.1295    9.7922    0.9170 H   0  0  0  0  0  0  0  0  0  0  0  0
    2.5732    8.7181   -0.4528 H   0  0  0  0  0  0  0  0  0  0  0  0
    3.0967   10.4364   -0.4528 H   0  0  0  0  0  0  0  0  0  0  0  0
    1.2517    9.2152   -2.8586 H   0  0  0  0  0  0  0  0  0  0  0  0
    0.9730    8.0644   -1.4330 H   0  0  0  0  0  0  0  0  0  0  0  0
   -1.1103    9.6295   -2.9801 H   0  0  0  0  0  0  0  0  0  0  0  0
   -0.8701    7.8396   -2.9030 H   0  0  0  0  0  0  0  0  0  0  0  0
   -1.3386    7.6848    0.7903 H   0  0  0  0  0  0  0  0  0  0  0  0
   -1.9176    6.6097   -0.5272 H   0  0  0  0  0  0  0  0  0  0  0  0
   -0.2197    7.1960   -0.5272 H   0  0  0  0  0  0  0  0  0  0  0  0
  1  2  1  0
  2  3  1  0
  3  4  1  0
  4  5  1  0
  5  6  1  0
  6  7  1  0
  7  8  1  0
  7  9  1  0
  2 10  1  0
 10 11  1  0
 11 12  1  0
 12 13  1  0
 13 14  1  6
 13 15  1  0
 15 16  1  0
 16 17  1  0
 17 18  2  0
 18 19  1  0
 19 20  1  0
 20 21  1  0
 21 22  1  0
 22 23  1  0
 22 24  1  0
 24 25  1  0
 24 26  1  0
 19 27  1  0
 27 28  1  1
 27 29  1  0
 29 30  1  0
 30 31  1  0
 31 32  1  1
  7  5  1  0
 31 10  1  0
 31 13  1  0
 27 15  1  0
 24 18  1  0
  1 33  1  0
  1 34  1  0
  1 35  1  0
  2 36  1  1
  3 37  1  0
  3 38  1  0
  4 39  1  0
  4 40  1  0
  5 41  1  1
  8 42  1  0
  8 43  1  0
  8 44  1  0
  9 45  1  0
  9 46  1  0
  9 47  1  0
 10 48  1  6
 11 49  1  0
 11 50  1  0
 12 51  1  0
 12 52  1  0
 14 53  1  0
 14 54  1  0
 14 55  1  0
 15 56  1  1
 16 57  1  0
 16 58  1  0
 17 59  1  0
 19 60  1  6
 20 61  1  0
 20 62  1  0
 21 63  1  0
 21 64  1  0
 22 65  1  6
 23 66  1  0
 25 67  1  0
 25 68  1  0
 25 69  1  0
 26 70  1  0
 26 71  1  0
 26 72  1  0
 28 73  1  0
 28 74  1  0
 28 75  1  0
 29 76  1  0
 29 77  1  0
 30 78  1  0
 30 79  1  0
 32 80  1  0
 32 81  1  0
 32 82  1  0
M  END
>  <meeko>  (9) 
{"is_sidechain": [false], "intermolecular_energy": 2.731, "internal_energy": -0.839}

$$$$
EPH_relaxed_0001_pdb2pqr_Repair_331_r2_0001_out
     RDKit          3D

 82 86  0  0  0  0  0  0  0  0999 V2000
   -1.4030    6.8970   -3.1210 C   0  0  0  0  0  0  0  0  0  0  0  0
   -2.6030    7.3520   -2.2860 C   0  0  2  0  0  0  0  0  0  0  0  0
   -3.9140    7.3390   -3.0970 C   0  0  0  0  0  0  0  0  0  0  0  0
   -4.9860    6.4100   -2.5210 C   0  0  0  0  0  0  0  0  0  0  0  0
   -6.3470    6.7350   -3.0560 C   0  0  2  0  0  0  0  0  0  0  0  0
   -6.8400    8.0310   -2.6920 O   0  0  0  0  0  0  0  0  0  0  0  0
   -7.5720    6.9070   -2.1780 C   0  0  0  0  0  0  0  0  0  0  0  0
   -7.4930    6.7580   -0.6910 C   0  0  0  0  0  0  0  0  0  0  0  0
   -8.9250    6.7350   -2.7950 C   0  0  0  0  0  0  0  0  0  0  0  0
   -2.3490    8.7470   -1.7280 C   0  0  1  0  0  0  0  0  0  0  0  0
   -3.2190    9.0600   -0.4810 C   0  0  0  0  0  0  0  0  0  0  0  0
   -2.3570    9.9460    0.4550 C   0  0  0  0  0  0  0  0  0  0  0  0
   -1.1600   10.3870   -0.4190 C   0  0  1  0  0  0  0  0  0  0  0  0
   -1.6990   11.5840   -1.2640 C   0  0  0  0  0  0  0  0  0  0  0  0
    0.1510   10.7640    0.3450 C   0  0  2  0  0  0  0  0  0  0  0  0
    0.0290   11.9680    1.2950 C   0  0  0  0  0  0  0  0  0  0  0  0
    0.3370   13.2960    0.6850 C   0  0  0  0  0  0  0  0  0  0  0  0
    0.9680   13.4900   -0.4880 C   0  0  0  0  0  0  0  0  0  0  0  0
    1.5320   12.3070   -1.2840 C   0  0  1  0  0  0  0  0  0  0  0  0
    2.9740   12.6370   -1.7510 C   0  0  0  0  0  0  0  0  0  0  0  0
    3.0520   13.9500   -2.5230 C   0  0  0  0  0  0  0  0  0  0  0  0
    2.5370   15.1120   -1.6780 C   0  0  2  0  0  0  0  0  0  0  0  0
    3.4320   15.3150   -0.5790 O   0  0  0  0  0  0  0  0  0  0  0  0
    1.0950   14.8880   -1.1420 C   0  0  0  0  0  0  0  0  0  0  0  0
    0.0860   14.9690   -2.3150 C   0  0  0  0  0  0  0  0  0  0  0  0
    0.7500   16.0650   -0.1910 C   0  0  0  0  0  0  0  0  0  0  0  0
    1.4290   10.8850   -0.5810 C   0  0  1  0  0  0  0  0  0  0  0  0
    2.6680   10.6550    0.3380 C   0  0  0  0  0  0  0  0  0  0  0  0
    1.4780    9.7610   -1.6820 C   0  0  0  0  0  0  0  0  0  0  0  0
    0.1350    9.3490   -2.3140 C   0  0  0  0  0  0  0  0  0  0  0  0
   -0.9150    9.0660   -1.2360 C   0  0  2  0  0  0  0  0  0  0  0  0
   -0.4100    7.8520   -0.3830 C   0  0  0  0  0  0  0  0  0  0  0  0
   -0.5868    6.5875   -2.4517 H   0  0  0  0  0  0  0  0  0  0  0  0
   -1.6985    6.0485   -3.7556 H   0  0  0  0  0  0  0  0  0  0  0  0
   -1.0616    7.7281   -3.7556 H   0  0  0  0  0  0  0  0  0  0  0  0
   -2.7204    6.6366   -1.4587 H   0  0  0  0  0  0  0  0  0  0  0  0
   -4.3176    8.3620   -3.1207 H   0  0  0  0  0  0  0  0  0  0  0  0
   -3.6672    6.9612   -4.1002 H   0  0  0  0  0  0  0  0  0  0  0  0
   -4.7375    5.3717   -2.7859 H   0  0  0  0  0  0  0  0  0  0  0  0
   -5.0057    6.5447   -1.4295 H   0  0  0  0  0  0  0  0  0  0  0  0
   -6.1633    6.1296   -3.9559 H   0  0  0  0  0  0  0  0  0  0  0  0
   -7.9564    7.6319   -0.2098 H   0  0  0  0  0  0  0  0  0  0  0  0
   -8.0258    5.8456   -0.3851 H   0  0  0  0  0  0  0  0  0  0  0  0
   -6.4388    6.6870   -0.3851 H   0  0  0  0  0  0  0  0  0  0  0  0
   -9.6804    6.6390   -2.0012 H   0  0  0  0  0  0  0  0  0  0  0  0
   -9.1577    7.6108   -3.4186 H   0  0  0  0  0  0  0  0  0  0  0  0
   -8.9311    5.8288   -3.4186 H   0  0  0  0  0  0  0  0  0  0  0  0
   -2.5835    9.3471   -2.6196 H   0  0  0  0  0  0  0  0  0  0  0  0
   -4.1298    9.5994   -0.7803 H   0  0  0  0  0  0  0  0  0  0  0  0
   -3.5293    8.1347    0.0264 H   0  0  0  0  0  0  0  0  0  0  0  0
   -2.9298   10.8200    0.7986 H   0  0  0  0  0  0  0  0  0  0  0  0
   -2.0372    9.4089    1.3601 H   0  0  0  0  0  0  0  0  0  0  0  0
   -2.0561   12.3770   -0.5904 H   0  0  0  0  0  0  0  0  0  0  0  0
   -0.8914   11.9780   -1.8985 H   0  0  0  0  0  0  0  0  0  0  0  0
   -2.5293   11.2405   -1.8985 H   0  0  0  0  0  0  0  0  0  0  0  0
    0.3075    9.8881    0.9917 H   0  0  0  0  0  0  0  0  0  0  0  0
   -1.0034   11.9991    1.6734 H   0  0  0  0  0  0  0  0  0  0  0  0
    0.7822   11.8125    2.0815 H   0  0  0  0  0  0  0  0  0  0  0  0
    0.0216   14.1910    1.2412 H   0  0  0  0  0  0  0  0  0  0  0  0
    0.8744   12.1883   -2.1578 H   0  0  0  0  0  0  0  0  0  0  0  0
    3.6235   12.7090   -0.8662 H   0  0  0  0  0  0  0  0  0  0  0  0
    3.2988   11.8322   -2.4269 H   0  0  0  0  0  0  0  0  0  0  0  0
    4.0989   14.1429   -2.8001 H   0  0  0  0  0  0  0  0  0  0  0  0
    2.4248   13.8656   -3.4227 H   0  0  0  0  0  0  0  0  0  0  0  0
    2.4964   15.9992   -2.3271 H   0  0  0  0  0  0  0  0  0  0  0  0
    3.5040   14.4730   -0.0990 H   0  0  0  0  0  0  0  0  0  0  0  0
   -0.9354   15.0510   -1.9150 H   0  0  0  0  0  0  0  0  0  0  0  0
    0.3104   15.8520   -2.9314 H   0  0  0  0  0  0  0  0  0  0  0  0
    0.1667   14.0615   -2.9314 H   0  0  0  0  0  0  0  0  0  0  0  0
    0.8472   15.7332    0.8533 H   0  0  0  0  0  0  0  0  0  0  0  0
    1.4410   16.9006   -0.3761 H   0  0  0  0  0  0  0  0  0  0  0  0
   -0.2828   16.3953   -0.3761 H   0  0  0  0  0  0  0  0  0  0  0  0
    2.3585   10.7125    1.3920 H   0  0  0  0  0  0  0  0  0  0  0  0
    3.0958    9.6621    0.1351 H   0  0  0  0  0  0  0  0  0  0  0  0
    3.4236   11.4282    0.1351 H   0  0  0  0  0  0  0  0  0  0  0  0
    2.1317   10.1168   -2.4920 H   0  0  0  0  0  0  0  0  0  0  0  0
    1.8383    8.8622   -1.1600 H   0  0  0  0  0  0  0  0  0  0  0  0
   -0.2235   10.1638   -2.9602 H   0  0  0  0  0  0  0  0  0  0  0  0
    0.2907    8.4318   -2.9009 H   0  0  0  0  0  0  0  0  0  0  0  0
   -0.5086    8.0891    0.6866 H   0  0  0  0  0  0  0  0  0  0  0  0
   -1.0127    6.9625   -0.6185 H   0  0  0  0  0  0  0  0  0  0  0  0
    0.6458    7.6524   -0.6185 H   0  0  0  0  0  0  0  0  0  0  0  0
  1  2  1  0
  2  3  1  0
  3  4  1  0
  4  5  1  0
  5  6  1  0
  6  7  1  0
  7  8  1  0
  7  9  1  0
  2 10  1  0
 10 11  1  0
 11 12  1  0
 12 13  1  0
 13 14  1  6
 13 15  1  0
 15 16  1  0
 16 17  1  0
 17 18  2  0
 18 19  1  0
 19 20  1  0
 20 21  1  0
 21 22  1  0
 22 23  1  0
 22 24  1  0
 24 25  1  0
 24 26  1  0
 19 27  1  0
 27 28  1  1
 27 29  1  0
 29 30  1  0
 30 31  1  0
 31 32  1  1
  7  5  1  0
 31 10  1  0
 31 13  1  0
 27 15  1  0
 24 18  1  0
  1 33  1  0
  1 34  1  0
  1 35  1  0
  2 36  1  1
  3 37  1  0
  3 38  1  0
  4 39  1  0
  4 40  1  0
  5 41  1  6
  8 42  1  0
  8 43  1  0
  8 44  1  0
  9 45  1  0
  9 46  1  0
  9 47  1  0
 10 48  1  6
 11 49  1  0
 11 50  1  0
 12 51  1  0
 12 52  1  0
 14 53  1  0
 14 54  1  0
 14 55  1  0
 15 56  1  1
 16 57  1  0
 16 58  1  0
 17 59  1  0
 19 60  1  6
 20 61  1  0
 20 62  1  0
 21 63  1  0
 21 64  1  0
 22 65  1  6
 23 66  1  0
 25 67  1  0
 25 68  1  0
 25 69  1  0
 26 70  1  0
 26 71  1  0
 26 72  1  0
 28 73  1  0
 28 74  1  0
 28 75  1  0
 29 76  1  0
 29 77  1  0
 30 78  1  0
 30 79  1  0
 32 80  1  0
 32 81  1  0
 32 82  1  0
M  END
>  <meeko>  (10) 
{"is_sidechain": [false], "intermolecular_energy": 2.731, "internal_energy": -0.839}

$$$$
EPH_relaxed_0001_pdb2pqr_Repair_331_r2_0001_out
     RDKit          3D

 82 86  0  0  0  0  0  0  0  0999 V2000
   -0.0330    9.2810   -2.0640 C   0  0  0  0  0  0  0  0  0  0  0  0
    0.9680   10.3000   -2.6150 C   0  0  2  0  0  0  0  0  0  0  0  0
    2.3770    9.6970   -2.7850 C   0  0  0  0  0  0  0  0  0  0  0  0
    3.2450   10.4380   -3.8060 C   0  0  0  0  0  0  0  0  0  0  0  0
    4.6330   10.6690   -3.2900 C   0  0  2  0  0  0  0  0  0  0  0  0
    5.2340   11.8980   -3.7190 O   0  0  0  0  0  0  0  0  0  0  0  0
    5.8630   10.6900   -4.1790 C   0  0  0  0  0  0  0  0  0  0  0  0
    5.7620   10.4760   -5.6560 C   0  0  0  0  0  0  0  0  0  0  0  0
    7.1990   10.4320   -3.5560 C   0  0  0  0  0  0  0  0  0  0  0  0
    1.0300   11.5160   -1.6970 C   0  0  1  0  0  0  0  0  0  0  0  0
    2.1490   11.4020   -0.6280 C   0  0  0  0  0  0  0  0  0  0  0  0
    2.7030   12.8330   -0.4050 C   0  0  0  0  0  0  0  0  0  0  0  0
    1.6750   13.7600   -1.0950 C   0  0  1  0  0  0  0  0  0  0  0  0
    0.5150   13.9120   -0.0610 C   0  0  0  0  0  0  0  0  0  0  0  0
    2.2090   15.1500   -1.5710 C   0  0  2  0  0  0  0  0  0  0  0  0
    2.7220   16.0710   -0.4500 C   0  0  0  0  0  0  0  0  0  0  0  0
    1.6990   16.9830    0.1440 C   0  0  0  0  0  0  0  0  0  0  0  0
    0.4970   17.2640   -0.3920 C   0  0  0  0  0  0  0  0  0  0  0  0
    0.1010   16.7180   -1.7690 C   0  0  1  0  0  0  0  0  0  0  0  0
   -0.5190   17.8570   -2.6200 C   0  0  0  0  0  0  0  0  0  0  0  0
   -1.6790   18.5510   -1.9120 C   0  0  0  0  0  0  0  0  0  0  0  0
   -1.2310   19.1320   -0.5730 C   0  0  2  0  0  0  0  0  0  0  0  0
   -0.3040   20.1940   -0.8180 O   0  0  0  0  0  0  0  0  0  0  0  0
   -0.5810   18.0780    0.3660 C   0  0  0  0  0  0  0  0  0  0  0  0
   -1.6650   17.0940    0.8730 C   0  0  0  0  0  0  0  0  0  0  0  0
   -0.0480   18.8200    1.6210 C   0  0  0  0  0  0  0  0  0  0  0  0
    1.2320   15.9190   -2.5500 C   0  0  1  0  0  0  0  0  0  0  0  0
    2.1130   16.9110   -3.3700 C   0  0  0  0  0  0  0  0  0  0  0  0
    0.5540   14.9580   -3.5960 C   0  0  0  0  0  0  0  0  0  0  0  0
    0.1570   13.5560   -3.0950 C   0  0  0  0  0  0  0  0  0  0  0  0
    1.3200   12.8890   -2.3540 C   0  0  2  0  0  0  0  0  0  0  0  0
    2.4940   12.7030   -3.3750 C   0  0  0  0  0  0  0  0  0  0  0  0
   -0.0112    9.3032   -0.9644 H   0  0  0  0  0  0  0  0  0  0  0  0
   -1.0442    9.5332   -2.4158 H   0  0  0  0  0  0  0  0  0  0  0  0
    0.2372    8.2744   -2.4158 H   0  0  0  0  0  0  0  0  0  0  0  0
    0.6161   10.6034   -3.6120 H   0  0  0  0  0  0  0  0  0  0  0  0
    2.8866    9.7252   -1.8106 H   0  0  0  0  0  0  0  0  0  0  0  0
    2.2445    8.6714   -3.1601 H   0  0  0  0  0  0  0  0  0  0  0  0
    3.3021    9.8390   -4.7268 H   0  0  0  0  0  0  0  0  0  0  0  0
    2.7842   11.4177   -4.0009 H   0  0  0  0  0  0  0  0  0  0  0  0
    4.4036   10.1270   -2.3607 H   0  0  0  0  0  0  0  0  0  0  0  0
    5.3002    9.4975   -5.8540 H   0  0  0  0  0  0  0  0  0  0  0  0
    5.1436   11.2699   -6.1001 H   0  0  0  0  0  0  0  0  0  0  0  0
    6.7680   10.5032   -6.1001 H   0  0  0  0  0  0  0  0  0  0  0  0
    7.1024   10.4506   -2.4604 H   0  0  0  0  0  0  0  0  0  0  0  0
    7.5680    9.4460   -3.8748 H   0  0  0  0  0  0  0  0  0  0  0  0
    7.9086   11.2097   -3.8748 H   0  0  0  0  0  0  0  0  0  0  0  0
    0.0048   11.4980   -1.2986 H   0  0  0  0  0  0  0  0  0  0  0  0
    1.7364   11.0050    0.3112 H   0  0  0  0  0  0  0  0  0  0  0  0
    2.9441   10.7183   -0.9602 H   0  0  0  0  0  0  0  0  0  0  0  0
    2.7714   13.0601    0.6691 H   0  0  0  0  0  0  0  0  0  0  0  0
    3.7169   12.9566   -0.8133 H   0  0  0  0  0  0  0  0  0  0  0  0
    0.9236   13.8585    0.9589 H   0  0  0  0  0  0  0  0  0  0  0  0
    0.0188   14.8828   -0.2067 H   0  0  0  0  0  0  0  0  0  0  0  0
   -0.2146   13.1018   -0.2067 H   0  0  0  0  0  0  0  0  0  0  0  0
    3.0965   14.8730   -2.1588 H   0  0  0  0  0  0  0  0  0  0  0  0
    3.1206   15.4367    0.3554 H   0  0  0  0  0  0  0  0  0  0  0  0
    3.4783   16.7220   -0.9129 H   0  0  0  0  0  0  0  0  0  0  0  0
    1.9492   17.4657    1.1002 H   0  0  0  0  0  0  0  0  0  0  0  0
   -0.6535   15.9399   -1.5812 H   0  0  0  0  0  0  0  0  0  0  0  0
    0.2611   18.6027   -2.8330 H   0  0  0  0  0  0  0  0  0  0  0  0
   -0.9123   17.4076   -3.5438 H   0  0  0  0  0  0  0  0  0  0  0  0
   -2.0553   19.3645   -2.5497 H   0  0  0  0  0  0  0  0  0  0  0  0
   -2.4710   17.8105   -1.7264 H   0  0  0  0  0  0  0  0  0  0  0  0
   -2.1298   19.5001   -0.0566 H   0  0  0  0  0  0  0  0  0  0  0  0
    0.0540   20.0710   -1.7130 H   0  0  0  0  0  0  0  0  0  0  0  0
   -1.6703   17.0892    1.9730 H   0  0  0  0  0  0  0  0  0  0  0  0
   -2.6509   17.4121    0.5030 H   0  0  0  0  0  0  0  0  0  0  0  0
   -1.4435   16.0820    0.5030 H   0  0  0  0  0  0  0  0  0  0  0  0
   -0.4113   18.3143    2.5278 H   0  0  0  0  0  0  0  0  0  0  0  0
    1.0519   18.8118    1.6123 H   0  0  0  0  0  0  0  0  0  0  0  0
   -0.4070   19.8597    1.6123 H   0  0  0  0  0  0  0  0  0  0  0  0
    2.6822   17.5519   -2.6806 H   0  0  0  0  0  0  0  0  0  0  0  0
    2.8106   16.3440   -4.0039 H   0  0  0  0  0  0  0  0  0  0  0  0
    1.4675   17.5368   -4.0039 H   0  0  0  0  0  0  0  0  0  0  0  0
   -0.3589   15.4525   -3.9595 H   0  0  0  0  0  0  0  0  0  0  0  0
    1.3204   14.7827   -4.3653 H   0  0  0  0  0  0  0  0  0  0  0  0
   -0.7000   13.6474   -2.4115 H   0  0  0  0  0  0  0  0  0  0  0  0
   -0.1078   12.9351   -3.9635 H   0  0  0  0  0  0  0  0  0  0  0  0
    3.4361   12.5537   -2.8272 H   0  0  0  0  0  0  0  0  0  0  0  0
    2.2945   11.8253   -4.0073 H   0  0  0  0  0  0  0  0  0  0  0  0
    2.5755   13.5994   -4.0073 H   0  0  0  0  0  0  0  0  0  0  0  0
  1  2  1  0
  2  3  1  0
  3  4  1  0
  4  5  1  0
  5  6  1  0
  6  7  1  0
  7  8  1  0
  7  9  1  0
  2 10  1  0
 10 11  1  0
 11 12  1  0
 12 13  1  0
 13 14  1  1
 13 15  1  0
 15 16  1  0
 16 17  1  0
 17 18  2  0
 18 19  1  0
 19 20  1  0
 20 21  1  0
 21 22  1  0
 22 23  1  0
 22 24  1  0
 24 25  1  0
 24 26  1  0
 19 27  1  0
 27 28  1  6
 27 29  1  0
 29 30  1  0
 30 31  1  0
 31 32  1  6
  7  5  1  0
 31 10  1  0
 31 13  1  0
 27 15  1  0
 24 18  1  0
  1 33  1  0
  1 34  1  0
  1 35  1  0
  2 36  1  6
  3 37  1  0
  3 38  1  0
  4 39  1  0
  4 40  1  0
  5 41  1  1
  8 42  1  0
  8 43  1  0
  8 44  1  0
  9 45  1  0
  9 46  1  0
  9 47  1  0
 10 48  1  1
 11 49  1  0
 11 50  1  0
 12 51  1  0
 12 52  1  0
 14 53  1  0
 14 54  1  0
 14 55  1  0
 15 56  1  6
 16 57  1  0
 16 58  1  0
 17 59  1  0
 19 60  1  1
 20 61  1  0
 20 62  1  0
 21 63  1  0
 21 64  1  0
 22 65  1  1
 23 66  1  0
 25 67  1  0
 25 68  1  0
 25 69  1  0
 26 70  1  0
 26 71  1  0
 26 72  1  0
 28 73  1  0
 28 74  1  0
 28 75  1  0
 29 76  1  0
 29 77  1  0
 30 78  1  0
 30 79  1  0
 32 80  1  0
 32 81  1  0
 32 82  1  0
M  END
>  <meeko>  (11) 
{"is_sidechain": [false], "intermolecular_energy": 2.731, "internal_energy": -0.839}

$$$$
EPH_relaxed_0001_pdb2pqr_Repair_331_r2_0001_out
     RDKit          3D

 82 86  0  0  0  0  0  0  0  0999 V2000
   -4.2070    7.0390   -2.8930 C   0  0  0  0  0  0  0  0  0  0  0  0
   -4.6190    7.5900   -1.5250 C   0  0  2  0  0  0  0  0  0  0  0  0
   -6.1280    7.8960   -1.4530 C   0  0  0  0  0  0  0  0  0  0  0  0
   -7.0160    6.6560   -1.5950 C   0  0  0  0  0  0  0  0  0  0  0  0
   -8.0620    6.5980   -0.5240 C   0  0  2  0  0  0  0  0  0  0  0  0
   -9.1540    5.7110   -0.8010 O   0  0  0  0  0  0  0  0  0  0  0  0
   -9.4790    7.1080   -0.7100 C   0  0  0  0  0  0  0  0  0  0  0  0
   -9.9270    7.7140   -2.0030 C   0  0  0  0  0  0  0  0  0  0  0  0
  -10.2770    7.4630    0.5060 C   0  0  0  0  0  0  0  0  0  0  0  0
   -3.8170    8.8460   -1.2080 C   0  0  1  0  0  0  0  0  0  0  0  0
   -4.2370    9.5000    0.1360 C   0  0  0  0  0  0  0  0  0  0  0  0
   -2.9510   10.0940    0.7660 C   0  0  0  0  0  0  0  0  0  0  0  0
   -1.9060   10.0580   -0.3740 C   0  0  1  0  0  0  0  0  0  0  0  0
   -2.2150   11.3190   -1.2410 C   0  0  0  0  0  0  0  0  0  0  0  0
   -0.4060   10.0130    0.0650 C   0  0  2  0  0  0  0  0  0  0  0  0
    0.0780   11.2370    0.8620 C   0  0  0  0  0  0  0  0  0  0  0  0
    0.6430   12.3490    0.0410 C   0  0  0  0  0  0  0  0  0  0  0  0
    1.0210   12.2560   -1.2470 C   0  0  0  0  0  0  0  0  0  0  0  0
    0.9850   10.9110   -1.9840 C   0  0  1  0  0  0  0  0  0  0  0  0
    2.3130   10.7110   -2.7620 C   0  0  0  0  0  0  0  0  0  0  0  0
    2.6260   11.8780   -3.6930 C   0  0  0  0  0  0  0  0  0  0  0  0
    2.7100   13.1890   -2.9160 C   0  0  2  0  0  0  0  0  0  0  0  0
    3.8470   13.1380   -2.0490 O   0  0  0  0  0  0  0  0  0  0  0  0
    1.4320   13.4920   -2.0850 C   0  0  0  0  0  0  0  0  0  0  0  0
    0.2630   13.8450   -3.0380 C   0  0  0  0  0  0  0  0  0  0  0  0
    1.7030   14.7660   -1.2400 C   0  0  0  0  0  0  0  0  0  0  0  0
    0.6000    9.6470   -1.1010 C   0  0  1  0  0  0  0  0  0  0  0  0
    1.8760    9.0630   -0.4210 C   0  0  0  0  0  0  0  0  0  0  0  0
    0.0400    8.5150   -2.0410 C   0  0  0  0  0  0  0  0  0  0  0  0
   -1.4710    8.5440   -2.3410 C   0  0  0  0  0  0  0  0  0  0  0  0
   -2.2830    8.6900   -1.0500 C   0  0  2  0  0  0  0  0  0  0  0  0
   -2.0100    7.4250   -0.1670 C   0  0  0  0  0  0  0  0  0  0  0  0
   -3.5535    6.1650   -2.7546 H   0  0  0  0  0  0  0  0  0  0  0  0
   -5.1051    6.7402   -3.4536 H   0  0  0  0  0  0  0  0  0  0  0  0
   -3.6665    7.8159   -3.4536 H   0  0  0  0  0  0  0  0  0  0  0  0
   -4.4039    6.8130   -0.7767 H   0  0  0  0  0  0  0  0  0  0  0  0
   -6.3409    8.3660   -0.4815 H   0  0  0  0  0  0  0  0  0  0  0  0
   -6.3623    8.5575   -2.3001 H   0  0  0  0  0  0  0  0  0  0  0  0
   -7.5119    6.6831   -2.5765 H   0  0  0  0  0  0  0  0  0  0  0  0
   -6.3782    5.7648   -1.5001 H   0  0  0  0  0  0  0  0  0  0  0  0
   -7.3079    6.7824    0.2553 H   0  0  0  0  0  0  0  0  0  0  0  0
  -10.5694    8.5830   -1.7975 H   0  0  0  0  0  0  0  0  0  0  0  0
   -9.0482    8.0361   -2.5809 H   0  0  0  0  0  0  0  0  0  0  0  0
  -10.4927    6.9683   -2.5809 H   0  0  0  0  0  0  0  0  0  0  0  0
   -9.7028    7.2076    1.4088 H   0  0  0  0  0  0  0  0  0  0  0  0
  -10.4922    8.5417    0.5013 H   0  0  0  0  0  0  0  0  0  0  0  0
  -11.2223    6.9005    0.5013 H   0  0  0  0  0  0  0  0  0  0  0  0
   -4.0446    9.4409   -2.1048 H   0  0  0  0  0  0  0  0  0  0  0  0
   -4.9733   10.2970   -0.0445 H   0  0  0  0  0  0  0  0  0  0  0  0
   -4.7003    8.7614    0.8067 H   0  0  0  0  0  0  0  0  0  0  0  0
   -3.1243   11.1271    1.1015 H   0  0  0  0  0  0  0  0  0  0  0  0
   -2.6218    9.5310    1.6518 H   0  0  0  0  0  0  0  0  0  0  0  0
   -2.4246   12.1746   -0.5822 H   0  0  0  0  0  0  0  0  0  0  0  0
   -1.3467   11.5492   -1.8759 H   0  0  0  0  0  0  0  0  0  0  0  0
   -3.0914   11.1217   -1.8759 H   0  0  0  0  0  0  0  0  0  0  0  0
   -0.3929    9.1717    0.7735 H   0  0  0  0  0  0  0  0  0  0  0  0
   -0.7772   11.6335    1.4290 H   0  0  0  0  0  0  0  0  0  0  0  0
    0.9008   10.8800    1.4988 H   0  0  0  0  0  0  0  0  0  0  0  0
    0.7601   13.3270    0.5307 H   0  0  0  0  0  0  0  0  0  0  0  0
    0.1440   10.9737   -2.6902 H   0  0  0  0  0  0  0  0  0  0  0  0
    3.1342   10.6077   -2.0374 H   0  0  0  0  0  0  0  0  0  0  0  0
    2.2046    9.8087   -3.3818 H   0  0  0  0  0  0  0  0  0  0  0  0
    3.5890   11.6926   -4.1913 H   0  0  0  0  0  0  0  0  0  0  0  0
    1.8184   11.9611   -4.4352 H   0  0  0  0  0  0  0  0  0  0  0  0
    2.8061   14.0024   -3.6503 H   0  0  0  0  0  0  0  0  0  0  0  0
    4.6440   13.1670   -2.6050 H   0  0  0  0  0  0  0  0  0  0  0  0
   -0.6245   14.1130   -2.4460 H   0  0  0  0  0  0  0  0  0  0  0  0
    0.5513   14.6961   -3.6724 H   0  0  0  0  0  0  0  0  0  0  0  0
    0.0321   12.9765   -3.6724 H   0  0  0  0  0  0  0  0  0  0  0  0
    1.6496   14.5148   -0.1704 H   0  0  0  0  0  0  0  0  0  0  0  0
    2.7042   15.1560   -1.4755 H   0  0  0  0  0  0  0  0  0  0  0  0
    0.9472   15.5298   -1.4755 H   0  0  0  0  0  0  0  0  0  0  0  0
    1.7648    9.1139    0.6722 H   0  0  0  0  0  0  0  0  0  0  0  0
    2.0079    8.0149   -0.7278 H   0  0  0  0  0  0  0  0  0  0  0  0
    2.7554    9.6482   -0.7278 H   0  0  0  0  0  0  0  0  0  0  0  0
    0.5712    8.5873   -3.0015 H   0  0  0  0  0  0  0  0  0  0  0  0
    0.2059    7.5768   -1.4912 H   0  0  0  0  0  0  0  0  0  0  0  0
   -1.6904    9.3951   -3.0024 H   0  0  0  0  0  0  0  0  0  0  0  0
   -1.7507    7.5974   -2.8265 H   0  0  0  0  0  0  0  0  0  0  0  0
   -2.0694    7.7003    0.8963 H   0  0  0  0  0  0  0  0  0  0  0  0
   -2.7624    6.6538   -0.3887 H   0  0  0  0  0  0  0  0  0  0  0  0
   -1.0065    7.0327   -0.3887 H   0  0  0  0  0  0  0  0  0  0  0  0
  1  2  1  0
  2  3  1  0
  3  4  1  0
  4  5  1  0
  5  6  1  0
  6  7  1  0
  7  8  1  0
  7  9  1  0
  2 10  1  0
 10 11  1  0
 11 12  1  0
 12 13  1  0
 13 14  1  6
 13 15  1  0
 15 16  1  0
 16 17  1  0
 17 18  2  0
 18 19  1  0
 19 20  1  0
 20 21  1  0
 21 22  1  0
 22 23  1  0
 22 24  1  0
 24 25  1  0
 24 26  1  0
 19 27  1  0
 27 28  1  1
 27 29  1  0
 29 30  1  0
 30 31  1  0
 31 32  1  1
  7  5  1  0
 31 10  1  0
 31 13  1  0
 27 15  1  0
 24 18  1  0
  1 33  1  0
  1 34  1  0
  1 35  1  0
  2 36  1  1
  3 37  1  0
  3 38  1  0
  4 39  1  0
  4 40  1  0
  5 41  1  1
  8 42  1  0
  8 43  1  0
  8 44  1  0
  9 45  1  0
  9 46  1  0
  9 47  1  0
 10 48  1  6
 11 49  1  0
 11 50  1  0
 12 51  1  0
 12 52  1  0
 14 53  1  0
 14 54  1  0
 14 55  1  0
 15 56  1  1
 16 57  1  0
 16 58  1  0
 17 59  1  0
 19 60  1  6
 20 61  1  0
 20 62  1  0
 21 63  1  0
 21 64  1  0
 22 65  1  6
 23 66  1  0
 25 67  1  0
 25 68  1  0
 25 69  1  0
 26 70  1  0
 26 71  1  0
 26 72  1  0
 28 73  1  0
 28 74  1  0
 28 75  1  0
 29 76  1  0
 29 77  1  0
 30 78  1  0
 30 79  1  0
 32 80  1  0
 32 81  1  0
 32 82  1  0
M  END
>  <meeko>  (12) 
{"is_sidechain": [false], "intermolecular_energy": 2.731, "internal_energy": -0.839}

$$$$
EPH_relaxed_0001_pdb2pqr_Repair_331_r2_0001_out
     RDKit          3D

 82 86  0  0  0  0  0  0  0  0999 V2000
    0.1990   15.8790   -8.2920 C   0  0  0  0  0  0  0  0  0  0  0  0
    1.4310   16.0710   -7.4020 C   0  0  2  0  0  0  0  0  0  0  0  0
    2.6230   15.2100   -7.8660 C   0  0  0  0  0  0  0  0  0  0  0  0
    2.3840   14.4950   -9.1990 C   0  0  0  0  0  0  0  0  0  0  0  0
    2.8780   15.3060  -10.3590 C   0  0  2  0  0  0  0  0  0  0  0  0
    2.0090   16.3760  -10.7540 O   0  0  0  0  0  0  0  0  0  0  0  0
    2.1990   15.3250  -11.7160 C   0  0  0  0  0  0  0  0  0  0  0  0
    0.9690   14.5160  -11.9840 C   0  0  0  0  0  0  0  0  0  0  0  0
    3.0000   15.7390  -12.9110 C   0  0  0  0  0  0  0  0  0  0  0  0
    1.0820   15.7420   -5.9550 C   0  0  1  0  0  0  0  0  0  0  0  0
   -0.2590   16.3790   -5.5040 C   0  0  0  0  0  0  0  0  0  0  0  0
   -0.9230   15.3770   -4.5240 C   0  0  0  0  0  0  0  0  0  0  0  0
    0.1950   14.3620   -4.1870 C   0  0  1  0  0  0  0  0  0  0  0  0
    1.0540   15.0620   -3.0880 C   0  0  0  0  0  0  0  0  0  0  0  0
   -0.2760   12.9410   -3.7350 C   0  0  2  0  0  0  0  0  0  0  0  0
   -1.0960   12.9090   -2.4340 C   0  0  0  0  0  0  0  0  0  0  0  0
   -0.3000   12.7360   -1.1830 C   0  0  0  0  0  0  0  0  0  0  0  0
    0.9820   12.3280   -1.1210 C   0  0  0  0  0  0  0  0  0  0  0  0
    1.7330   11.8980   -2.3870 C   0  0  1  0  0  0  0  0  0  0  0  0
    2.4850   10.5680   -2.1170 C   0  0  0  0  0  0  0  0  0  0  0  0
    3.3960   10.6490   -0.8970 C   0  0  0  0  0  0  0  0  0  0  0  0
    2.6030   11.0220    0.3530 C   0  0  2  0  0  0  0  0  0  0  0  0
    1.7120    9.9480    0.6710 O   0  0  0  0  0  0  0  0  0  0  0  0
    1.7960   12.3410    0.1960 C   0  0  0  0  0  0  0  0  0  0  0  0
    2.7700   13.5450    0.1530 C   0  0  0  0  0  0  0  0  0  0  0  0
    0.9320   12.5270    1.4720 C   0  0  0  0  0  0  0  0  0  0  0  0
    0.8720   11.8520   -3.7220 C   0  0  1  0  0  0  0  0  0  0  0  0
    0.1720   10.4650   -3.8560 C   0  0  0  0  0  0  0  0  0  0  0  0
    1.8360   11.9840   -4.9600 C   0  0  0  0  0  0  0  0  0  0  0  0
    2.1680   13.4120   -5.4330 C   0  0  0  0  0  0  0  0  0  0  0  0
    0.8940   14.2480   -5.5910 C   0  0  2  0  0  0  0  0  0  0  0  0
    0.0190   13.5810   -6.7070 C   0  0  0  0  0  0  0  0  0  0  0  0
   -0.6912   15.7403   -7.6609 H   0  0  0  0  0  0  0  0  0  0  0  0
    0.0635   16.7669   -8.9271 H   0  0  0  0  0  0  0  0  0  0  0  0
    0.3401   14.9920   -8.9271 H   0  0  0  0  0  0  0  0  0  0  0  0
    1.7357   17.1250   -7.4809 H   0  0  0  0  0  0  0  0  0  0  0  0
    3.5015   15.8630   -7.9748 H   0  0  0  0  0  0  0  0  0  0  0  0
    2.7716   14.4299   -7.1049 H   0  0  0  0  0  0  0  0  0  0  0  0
    2.9137   13.5310   -9.1866 H   0  0  0  0  0  0  0  0  0  0  0  0
    1.3006   14.3477   -9.3199 H   0  0  0  0  0  0  0  0  0  0  0  0
    3.9236   15.1414  -10.0597 H   0  0  0  0  0  0  0  0  0  0  0  0
    0.5124   14.2157  -11.0293 H   0  0  0  0  0  0  0  0  0  0  0  0
    0.2517   15.1192  -12.5598 H   0  0  0  0  0  0  0  0  0  0  0  0
    1.2387   13.6184  -12.5598 H   0  0  0  0  0  0  0  0  0  0  0  0
    3.9316   16.2205  -12.5790 H   0  0  0  0  0  0  0  0  0  0  0  0
    3.2409   14.8525  -13.5160 H   0  0  0  0  0  0  0  0  0  0  0  0
    2.4161   16.4482  -13.5160 H   0  0  0  0  0  0  0  0  0  0  0  0
    1.9763   16.1415   -5.4544 H   0  0  0  0  0  0  0  0  0  0  0  0
   -0.0717   17.3371   -4.9970 H   0  0  0  0  0  0  0  0  0  0  0  0
   -0.9113   16.5787   -6.3669 H   0  0  0  0  0  0  0  0  0  0  0  0
   -1.2664   15.8925   -3.6150 H   0  0  0  0  0  0  0  0  0  0  0  0
   -1.8091   14.8923   -4.9597 H   0  0  0  0  0  0  0  0  0  0  0  0
    0.6897   14.7651   -2.0935 H   0  0  0  0  0  0  0  0  0  0  0  0
    2.1063   14.7609   -3.1980 H   0  0  0  0  0  0  0  0  0  0  0  0
    0.9715   16.1534   -3.1980 H   0  0  0  0  0  0  0  0  0  0  0  0
   -0.9754   12.6580   -4.5355 H   0  0  0  0  0  0  0  0  0  0  0  0
   -1.6485   13.8570   -2.3570 H   0  0  0  0  0  0  0  0  0  0  0  0
   -1.7464   12.0248   -2.5057 H   0  0  0  0  0  0  0  0  0  0  0  0
   -0.8033   12.9608   -0.2311 H   0  0  0  0  0  0  0  0  0  0  0  0
    2.4564   12.6993   -2.5981 H   0  0  0  0  0  0  0  0  0  0  0  0
    1.7446    9.7714   -1.9520 H   0  0  0  0  0  0  0  0  0  0  0  0
    3.1170   10.3580   -2.9925 H   0  0  0  0  0  0  0  0  0  0  0  0
    3.8757    9.6716   -0.7405 H   0  0  0  0  0  0  0  0  0  0  0  0
    4.1542   11.4256   -1.0762 H   0  0  0  0  0  0  0  0  0  0  0  0
    3.3264   11.1918    1.1640 H   0  0  0  0  0  0  0  0  0  0  0  0
    0.8560   10.3390    0.9150 H   0  0  0  0  0  0  0  0  0  0  0  0
    3.0186   13.8523    1.1795 H   0  0  0  0  0  0  0  0  0  0  0  0
    3.6897   13.2539   -0.3755 H   0  0  0  0  0  0  0  0  0  0  0  0
    2.2932   14.3836   -0.3755 H   0  0  0  0  0  0  0  0  0  0  0  0
    1.5614   12.3915    2.3639 H   0  0  0  0  0  0  0  0  0  0  0  0
    0.5002   13.5387    1.4782 H   0  0  0  0  0  0  0  0  0  0  0  0
    0.1221   11.7826    1.4782 H   0  0  0  0  0  0  0  0  0  0  0  0
   -0.0327   10.0593   -2.8543 H   0  0  0  0  0  0  0  0  0  0  0  0
   -0.7743   10.5833   -4.4041 H   0  0  0  0  0  0  0  0  0  0  0  0
    0.8293    9.7740   -4.4041 H   0  0  0  0  0  0  0  0  0  0  0  0
    2.7840   11.4916   -4.6975 H   0  0  0  0  0  0  0  0  0  0  0  0
    1.2931   11.5223   -5.7979 H   0  0  0  0  0  0  0  0  0  0  0  0
    2.8242   13.8928   -4.6926 H   0  0  0  0  0  0  0  0  0  0  0  0
    2.6698   13.3499   -6.4099 H   0  0  0  0  0  0  0  0  0  0  0  0
   -0.7731   12.9772   -6.2400 H   0  0  0  0  0  0  0  0  0  0  0  0
   -0.4365   14.3631   -7.3322 H   0  0  0  0  0  0  0  0  0  0  0  0
    0.6524   12.9345   -7.3322 H   0  0  0  0  0  0  0  0  0  0  0  0
  1  2  1  0
  2  3  1  0
  3  4  1  0
  4  5  1  0
  5  6  1  0
  6  7  1  0
  7  8  1  0
  7  9  1  0
  2 10  1  0
 10 11  1  0
 11 12  1  0
 12 13  1  0
 13 14  1  1
 13 15  1  0
 15 16  1  0
 16 17  1  0
 17 18  2  0
 18 19  1  0
 19 20  1  0
 20 21  1  0
 21 22  1  0
 22 23  1  0
 22 24  1  0
 24 25  1  0
 24 26  1  0
 19 27  1  0
 27 28  1  6
 27 29  1  0
 29 30  1  0
 30 31  1  0
 31 32  1  6
  7  5  1  0
 31 10  1  0
 31 13  1  0
 27 15  1  0
 24 18  1  0
  1 33  1  0
  1 34  1  0
  1 35  1  0
  2 36  1  1
  3 37  1  0
  3 38  1  0
  4 39  1  0
  4 40  1  0
  5 41  1  6
  8 42  1  0
  8 43  1  0
  8 44  1  0
  9 45  1  0
  9 46  1  0
  9 47  1  0
 10 48  1  1
 11 49  1  0
 11 50  1  0
 12 51  1  0
 12 52  1  0
 14 53  1  0
 14 54  1  0
 14 55  1  0
 15 56  1  6
 16 57  1  0
 16 58  1  0
 17 59  1  0
 19 60  1  6
 20 61  1  0
 20 62  1  0
 21 63  1  0
 21 64  1  0
 22 65  1  1
 23 66  1  0
 25 67  1  0
 25 68  1  0
 25 69  1  0
 26 70  1  0
 26 71  1  0
 26 72  1  0
 28 73  1  0
 28 74  1  0
 28 75  1  0
 29 76  1  0
 29 77  1  0
 30 78  1  0
 30 79  1  0
 32 80  1  0
 32 81  1  0
 32 82  1  0
M  END
>  <meeko>  (13) 
{"is_sidechain": [false], "intermolecular_energy": 2.731, "internal_energy": -0.839}

$$$$
EPH_relaxed_0001_pdb2pqr_Repair_331_r2_0001_out
     RDKit          3D

 82 86  0  0  0  0  0  0  0  0999 V2000
    0.9090   14.9330   -2.6160 C   0  0  0  0  0  0  0  0  0  0  0  0
    1.1710   14.2660   -3.9690 C   0  0  2  0  0  0  0  0  0  0  0  0
    0.4650   15.0020   -5.1260 C   0  0  0  0  0  0  0  0  0  0  0  0
    0.9870   14.6130   -6.5120 C   0  0  0  0  0  0  0  0  0  0  0  0
    0.7630   15.7040   -7.5140 C   0  0  2  0  0  0  0  0  0  0  0  0
    0.3710   15.2500   -8.8160 O   0  0  0  0  0  0  0  0  0  0  0  0
    1.6430   15.9140   -8.7330 C   0  0  0  0  0  0  0  0  0  0  0  0
    2.8130   15.0240   -9.0130 C   0  0  0  0  0  0  0  0  0  0  0  0
    1.6610   17.2640   -9.3780 C   0  0  0  0  0  0  0  0  0  0  0  0
    0.7220   12.8100   -3.9260 C   0  0  1  0  0  0  0  0  0  0  0  0
    1.8480   11.8250   -4.3380 C   0  0  0  0  0  0  0  0  0  0  0  0
    1.6620   10.5490   -3.4770 C   0  0  0  0  0  0  0  0  0  0  0  0
    0.2580   10.7040   -2.8470 C   0  0  1  0  0  0  0  0  0  0  0  0
   -0.7350   10.2490   -3.9620 C   0  0  0  0  0  0  0  0  0  0  0  0
    0.0130    9.9360   -1.5070 C   0  0  2  0  0  0  0  0  0  0  0  0
    0.1170    8.4040   -1.6050 C   0  0  0  0  0  0  0  0  0  0  0  0
   -1.1600    7.6970   -1.9170 C   0  0  0  0  0  0  0  0  0  0  0  0
   -2.3920    8.2330   -1.8320 C   0  0  0  0  0  0  0  0  0  0  0  0
   -2.5970    9.6540   -1.2900 C   0  0  1  0  0  0  0  0  0  0  0  0
   -3.7610    9.6540   -0.2650 C   0  0  0  0  0  0  0  0  0  0  0  0
   -5.0440    9.0570   -0.8360 C   0  0  0  0  0  0  0  0  0  0  0  0
   -4.8140    7.6240   -1.3100 C   0  0  2  0  0  0  0  0  0  0  0  0
   -4.5380    6.8010   -0.1730 O   0  0  0  0  0  0  0  0  0  0  0  0
   -3.6570    7.4980   -2.3400 C   0  0  0  0  0  0  0  0  0  0  0  0
   -4.0840    8.1380   -3.6840 C   0  0  0  0  0  0  0  0  0  0  0  0
   -3.4370    5.9880   -2.6290 C   0  0  0  0  0  0  0  0  0  0  0  0
   -1.2960   10.3790   -0.7360 C   0  0  1  0  0  0  0  0  0  0  0  0
   -1.0770   10.0080    0.7620 C   0  0  0  0  0  0  0  0  0  0  0  0
   -1.5180   11.9370   -0.7800 C   0  0  0  0  0  0  0  0  0  0  0  0
   -1.1450   12.6560   -2.0910 C   0  0  0  0  0  0  0  0  0  0  0  0
    0.2560   12.2500   -2.5590 C   0  0  2  0  0  0  0  0  0  0  0  0
    1.2790   12.7150   -1.4670 C   0  0  0  0  0  0  0  0  0  0  0  0
    1.1813   14.2397   -1.8066 H   0  0  0  0  0  0  0  0  0  0  0  0
    1.5147   15.8476   -2.5347 H   0  0  0  0  0  0  0  0  0  0  0  0
   -0.1572   15.1909   -2.5347 H   0  0  0  0  0  0  0  0  0  0  0  0
    2.2534   14.3157   -4.1586 H   0  0  0  0  0  0  0  0  0  0  0  0
   -0.6092   14.7694   -5.0815 H   0  0  0  0  0  0  0  0  0  0  0  0
    0.6676   16.0753   -4.9956 H   0  0  0  0  0  0  0  0  0  0  0  0
    2.0656   14.4087   -6.4424 H   0  0  0  0  0  0  0  0  0  0  0  0
    0.4380   13.7208   -6.8475 H   0  0  0  0  0  0  0  0  0  0  0  0
    0.4184   16.3895   -6.7258 H   0  0  0  0  0  0  0  0  0  0  0  0
    3.2541   14.6885   -8.0628 H   0  0  0  0  0  0  0  0  0  0  0  0
    2.4787   14.1498   -9.5910 H   0  0  0  0  0  0  0  0  0  0  0  0
    3.5662   15.5795   -9.5910 H   0  0  0  0  0  0  0  0  0  0  0  0
    1.6714   18.0418   -8.6003 H   0  0  0  0  0  0  0  0  0  0  0  0
    2.5605   17.3593  -10.0040 H   0  0  0  0  0  0  0  0  0  0  0  0
    0.7644   17.3833  -10.0040 H   0  0  0  0  0  0  0  0  0  0  0  0
   -0.1284   12.8586   -4.6220 H   0  0  0  0  0  0  0  0  0  0  0  0
    1.7625   11.5771   -5.4063 H   0  0  0  0  0  0  0  0  0  0  0  0
    2.8410   12.2697   -4.1763 H   0  0  0  0  0  0  0  0  0  0  0  0
    1.7084    9.6469   -4.1047 H   0  0  0  0  0  0  0  0  0  0  0  0
    2.4501   10.4400   -2.7174 H   0  0  0  0  0  0  0  0  0  0  0  0
   -1.6418    9.8335   -3.4982 H   0  0  0  0  0  0  0  0  0  0  0  0
   -1.0056   11.1129   -4.5868 H   0  0  0  0  0  0  0  0  0  0  0  0
   -0.2574    9.4799   -4.5868 H   0  0  0  0  0  0  0  0  0  0  0  0
    0.8679   10.2545   -0.8925 H   0  0  0  0  0  0  0  0  0  0  0  0
    0.8415    8.1624   -2.3967 H   0  0  0  0  0  0  0  0  0  0  0  0
    0.4221    8.0552   -0.6074 H   0  0  0  0  0  0  0  0  0  0  0  0
   -1.0884    6.6492   -2.2441 H   0  0  0  0  0  0  0  0  0  0  0  0
   -2.8638   10.2751   -2.1578 H   0  0  0  0  0  0  0  0  0  0  0  0
   -3.4579    9.0642    0.6127 H   0  0  0  0  0  0  0  0  0  0  0  0
   -3.9700   10.7003    0.0026 H   0  0  0  0  0  0  0  0  0  0  0  0
   -5.8200    9.0583   -0.0564 H   0  0  0  0  0  0  0  0  0  0  0  0
   -5.3623    9.6648   -1.6958 H   0  0  0  0  0  0  0  0  0  0  0  0
   -5.7291    7.2958   -1.8247 H   0  0  0  0  0  0  0  0  0  0  0  0
   -5.1760    6.0670   -0.1800 H   0  0  0  0  0  0  0  0  0  0  0  0
   -4.6846    9.0382   -3.4870 H   0  0  0  0  0  0  0  0  0  0  0  0
   -3.1882    8.4136   -4.2598 H   0  0  0  0  0  0  0  0  0  0  0  0
   -4.6825    7.4167   -4.2598 H   0  0  0  0  0  0  0  0  0  0  0  0
   -3.3572    5.4405   -1.6783 H   0  0  0  0  0  0  0  0  0  0  0  0
   -4.2877    5.5975   -3.2067 H   0  0  0  0  0  0  0  0  0  0  0  0
   -2.5102    5.8565   -3.2067 H   0  0  0  0  0  0  0  0  0  0  0  0
   -1.5321   10.7790    1.4010 H   0  0  0  0  0  0  0  0  0  0  0  0
   -1.5456    9.0350    0.9711 H   0  0  0  0  0  0  0  0  0  0  0  0
    0.0013    9.9481    0.9711 H   0  0  0  0  0  0  0  0  0  0  0  0
   -2.5845   12.1266   -0.5885 H   0  0  0  0  0  0  0  0  0  0  0  0
   -0.8333   12.3465   -0.0227 H   0  0  0  0  0  0  0  0  0  0  0  0
   -1.8757   12.3888   -2.8686 H   0  0  0  0  0  0  0  0  0  0  0  0
   -1.1541   13.7411   -1.9110 H   0  0  0  0  0  0  0  0  0  0  0  0
    0.8604   12.5247   -0.4677 H   0  0  0  0  0  0  0  0  0  0  0  0
    2.2190   12.1557   -1.5833 H   0  0  0  0  0  0  0  0  0  0  0  0
    1.4757   13.7910   -1.5833 H   0  0  0  0  0  0  0  0  0  0  0  0
  1  2  1  0
  2  3  1  0
  3  4  1  0
  4  5  1  0
  5  6  1  0
  6  7  1  0
  7  8  1  0
  7  9  1  0
  2 10  1  0
 10 11  1  0
 11 12  1  0
 12 13  1  0
 13 14  1  6
 13 15  1  0
 15 16  1  0
 16 17  1  0
 17 18  2  0
 18 19  1  0
 19 20  1  0
 20 21  1  0
 21 22  1  0
 22 23  1  0
 22 24  1  0
 24 25  1  0
 24 26  1  0
 19 27  1  0
 27 28  1  1
 27 29  1  0
 29 30  1  0
 30 31  1  0
 31 32  1  1
  7  5  1  0
 31 10  1  0
 31 13  1  0
 27 15  1  0
 24 18  1  0
  1 33  1  0
  1 34  1  0
  1 35  1  0
  2 36  1  6
  3 37  1  0
  3 38  1  0
  4 39  1  0
  4 40  1  0
  5 41  1  1
  8 42  1  0
  8 43  1  0
  8 44  1  0
  9 45  1  0
  9 46  1  0
  9 47  1  0
 10 48  1  6
 11 49  1  0
 11 50  1  0
 12 51  1  0
 12 52  1  0
 14 53  1  0
 14 54  1  0
 14 55  1  0
 15 56  1  1
 16 57  1  0
 16 58  1  0
 17 59  1  0
 19 60  1  6
 20 61  1  0
 20 62  1  0
 21 63  1  0
 21 64  1  0
 22 65  1  6
 23 66  1  0
 25 67  1  0
 25 68  1  0
 25 69  1  0
 26 70  1  0
 26 71  1  0
 26 72  1  0
 28 73  1  0
 28 74  1  0
 28 75  1  0
 29 76  1  0
 29 77  1  0
 30 78  1  0
 30 79  1  0
 32 80  1  0
 32 81  1  0
 32 82  1  0
M  END
>  <meeko>  (14) 
{"is_sidechain": [false], "intermolecular_energy": 2.731, "internal_energy": -0.839}

$$$$
EPH_relaxed_0001_pdb2pqr_Repair_331_r2_0001_out
     RDKit          3D

 82 86  0  0  0  0  0  0  0  0999 V2000
  -14.3820    5.4340    0.4580 C   0  0  0  0  0  0  0  0  0  0  0  0
  -13.8390    6.8580    0.3060 C   0  0  2  0  0  0  0  0  0  0  0  0
  -14.9550    7.8740   -0.0110 C   0  0  0  0  0  0  0  0  0  0  0  0
  -14.5330    9.3330    0.1850 C   0  0  0  0  0  0  0  0  0  0  0  0
  -15.2590   10.2500   -0.7520 C   0  0  2  0  0  0  0  0  0  0  0  0
  -15.1600    9.8930   -2.1370 O   0  0  0  0  0  0  0  0  0  0  0  0
  -14.5580   11.1420   -1.7600 C   0  0  0  0  0  0  0  0  0  0  0  0
  -13.0670   11.1610   -1.8810 C   0  0  0  0  0  0  0  0  0  0  0  0
  -15.2850   12.3430   -2.2800 C   0  0  0  0  0  0  0  0  0  0  0  0
  -12.7760    6.8950   -0.7850 C   0  0  1  0  0  0  0  0  0  0  0  0
  -13.1450    7.8560   -1.9470 C   0  0  0  0  0  0  0  0  0  0  0  0
  -11.8190    8.4850   -2.4460 C   0  0  0  0  0  0  0  0  0  0  0  0
  -10.7100    7.6290   -1.7900 C   0  0  1  0  0  0  0  0  0  0  0  0
  -10.5950    6.3610   -2.6930 C   0  0  0  0  0  0  0  0  0  0  0  0
   -9.3240    8.3260   -1.5940 C   0  0  2  0  0  0  0  0  0  0  0  0
   -8.6220    8.7600   -2.8920 C   0  0  0  0  0  0  0  0  0  0  0  0
   -7.7100    7.7430   -3.4950 C   0  0  0  0  0  0  0  0  0  0  0  0
   -7.2430    6.6450   -2.8720 C   0  0  0  0  0  0  0  0  0  0  0  0
   -7.5510    6.3880   -1.3920 C   0  0  1  0  0  0  0  0  0  0  0  0
   -6.2490    5.9720   -0.6570 C   0  0  0  0  0  0  0  0  0  0  0  0
   -5.5540    4.7890   -1.3220 C   0  0  0  0  0  0  0  0  0  0  0  0
   -5.2120    5.1040   -2.7760 C   0  0  2  0  0  0  0  0  0  0  0  0
   -4.2190    6.1340   -2.8030 O   0  0  0  0  0  0  0  0  0  0  0  0
   -6.4450    5.5440   -3.6140 C   0  0  0  0  0  0  0  0  0  0  0  0
   -7.3820    4.3320   -3.8380 C   0  0  0  0  0  0  0  0  0  0  0  0
   -5.9400    5.9680   -5.0200 C   0  0  0  0  0  0  0  0  0  0  0  0
   -8.3360    7.5450   -0.6360 C   0  0  1  0  0  0  0  0  0  0  0  0
   -7.3280    8.5980   -0.0820 C   0  0  0  0  0  0  0  0  0  0  0  0
   -9.0720    6.9340    0.6150 C   0  0  0  0  0  0  0  0  0  0  0  0
  -10.4870    6.3690    0.3810 C   0  0  0  0  0  0  0  0  0  0  0  0
  -11.3580    7.3720   -0.3810 C   0  0  2  0  0  0  0  0  0  0  0  0
  -11.5110    8.6500    0.5130 C   0  0  0  0  0  0  0  0  0  0  0  0
  -14.4753    5.1893    1.5264 H   0  0  0  0  0  0  0  0  0  0  0  0
  -15.3695    5.3650   -0.0216 H   0  0  0  0  0  0  0  0  0  0  0  0
  -13.6911    4.7250   -0.0216 H   0  0  0  0  0  0  0  0  0  0  0  0
  -13.3932    7.1469    1.2692 H   0  0  0  0  0  0  0  0  0  0  0  0
  -15.2605    7.7386   -1.0590 H   0  0  0  0  0  0  0  0  0  0  0  0
  -15.7766    7.6795    0.6941 H   0  0  0  0  0  0  0  0  0  0  0  0
  -14.7546    9.6324    1.2200 H   0  0  0  0  0  0  0  0  0  0  0  0
  -13.4560    9.4100   -0.0253 H   0  0  0  0  0  0  0  0  0  0  0  0
  -16.0269   10.4566    0.0080 H   0  0  0  0  0  0  0  0  0  0  0  0
  -12.6177   11.1667   -0.8770 H   0  0  0  0  0  0  0  0  0  0  0  0
  -12.7321   10.2671   -2.4275 H   0  0  0  0  0  0  0  0  0  0  0  0
  -12.7549   12.0632   -2.4275 H   0  0  0  0  0  0  0  0  0  0  0  0
  -15.6496   12.9453   -1.4348 H   0  0  0  0  0  0  0  0  0  0  0  0
  -14.6014   12.9482   -2.8936 H   0  0  0  0  0  0  0  0  0  0  0  0
  -16.1381   12.0180   -2.8936 H   0  0  0  0  0  0  0  0  0  0  0  0
  -12.7520    5.8288   -1.0546 H   0  0  0  0  0  0  0  0  0  0  0  0
  -13.6291    7.2971   -2.7614 H   0  0  0  0  0  0  0  0  0  0  0  0
  -13.8476    8.6321   -1.6094 H   0  0  0  0  0  0  0  0  0  0  0  0
  -11.7527    8.4322   -3.5427 H   0  0  0  0  0  0  0  0  0  0  0  0
  -11.7363    9.5493   -2.1807 H   0  0  0  0  0  0  0  0  0  0  0  0
  -10.5138    5.4656   -2.0592 H   0  0  0  0  0  0  0  0  0  0  0  0
  -11.4896    6.2808   -3.3281 H   0  0  0  0  0  0  0  0  0  0  0  0
   -9.7006    6.4430   -3.3281 H   0  0  0  0  0  0  0  0  0  0  0  0
   -9.5996    9.2577   -1.0782 H   0  0  0  0  0  0  0  0  0  0  0  0
   -9.3978    9.0027   -3.6331 H   0  0  0  0  0  0  0  0  0  0  0  0
   -7.9866    9.6165   -2.6224 H   0  0  0  0  0  0  0  0  0  0  0  0
   -7.3931    7.9047   -4.5359 H   0  0  0  0  0  0  0  0  0  0  0  0
   -8.2729    5.5583   -1.3709 H   0  0  0  0  0  0  0  0  0  0  0  0
   -5.5587    6.8284   -0.6508 H   0  0  0  0  0  0  0  0  0  0  0  0
   -6.5248    5.6666    0.3631 H   0  0  0  0  0  0  0  0  0  0  0  0
   -4.6269    4.5623   -0.7751 H   0  0  0  0  0  0  0  0  0  0  0  0
   -6.2343    3.9249   -1.3007 H   0  0  0  0  0  0  0  0  0  0  0  0
   -4.8360    4.1777   -3.2348 H   0  0  0  0  0  0  0  0  0  0  0  0
   -4.6420    6.9410   -3.1420 H   0  0  0  0  0  0  0  0  0  0  0  0
   -7.6957    3.9263   -2.8649 H   0  0  0  0  0  0  0  0  0  0  0  0
   -8.2686    4.6537   -4.4041 H   0  0  0  0  0  0  0  0  0  0  0  0
   -6.8475    3.5550   -4.4041 H   0  0  0  0  0  0  0  0  0  0  0  0
   -5.1017    6.6719   -4.9116 H   0  0  0  0  0  0  0  0  0  0  0  0
   -5.6028    5.0784   -5.5722 H   0  0  0  0  0  0  0  0  0  0  0  0
   -6.7578    6.4541   -5.5722 H   0  0  0  0  0  0  0  0  0  0  0  0
   -7.3458    8.5794    1.0177 H   0  0  0  0  0  0  0  0  0  0  0  0
   -6.3148    8.3576   -0.4365 H   0  0  0  0  0  0  0  0  0  0  0  0
   -7.6124    9.5997   -0.4365 H   0  0  0  0  0  0  0  0  0  0  0  0
   -8.4468    6.1160    1.0023 H   0  0  0  0  0  0  0  0  0  0  0  0
   -9.2094    7.7768    1.3083 H   0  0  0  0  0  0  0  0  0  0  0  0
  -10.4116    5.4405   -0.2039 H   0  0  0  0  0  0  0  0  0  0  0  0
  -10.9521    6.1715    1.3581 H   0  0  0  0  0  0  0  0  0  0  0  0
  -11.4765    8.3616    1.5740 H   0  0  0  0  0  0  0  0  0  0  0  0
  -10.6902    9.3495    0.2963 H   0  0  0  0  0  0  0  0  0  0  0  0
  -12.4737    9.1360    0.2963 H   0  0  0  0  0  0  0  0  0  0  0  0
  1  2  1  0
  2  3  1  0
  3  4  1  0
  4  5  1  0
  5  6  1  0
  6  7  1  0
  7  8  1  0
  7  9  1  0
  2 10  1  0
 10 11  1  0
 11 12  1  0
 12 13  1  0
 13 14  1  6
 13 15  1  0
 15 16  1  0
 16 17  1  0
 17 18  2  0
 18 19  1  0
 19 20  1  0
 20 21  1  0
 21 22  1  0
 22 23  1  0
 22 24  1  0
 24 25  1  0
 24 26  1  0
 19 27  1  0
 27 28  1  1
 27 29  1  0
 29 30  1  0
 30 31  1  0
 31 32  1  1
  7  5  1  0
 31 10  1  0
 31 13  1  0
 27 15  1  0
 24 18  1  0
  1 33  1  0
  1 34  1  0
  1 35  1  0
  2 36  1  1
  3 37  1  0
  3 38  1  0
  4 39  1  0
  4 40  1  0
  5 41  1  1
  8 42  1  0
  8 43  1  0
  8 44  1  0
  9 45  1  0
  9 46  1  0
  9 47  1  0
 10 48  1  6
 11 49  1  0
 11 50  1  0
 12 51  1  0
 12 52  1  0
 14 53  1  0
 14 54  1  0
 14 55  1  0
 15 56  1  1
 16 57  1  0
 16 58  1  0
 17 59  1  0
 19 60  1  6
 20 61  1  0
 20 62  1  0
 21 63  1  0
 21 64  1  0
 22 65  1  6
 23 66  1  0
 25 67  1  0
 25 68  1  0
 25 69  1  0
 26 70  1  0
 26 71  1  0
 26 72  1  0
 28 73  1  0
 28 74  1  0
 28 75  1  0
 29 76  1  0
 29 77  1  0
 30 78  1  0
 30 79  1  0
 32 80  1  0
 32 81  1  0
 32 82  1  0
M  END
>  <meeko>  (15) 
{"is_sidechain": [false], "intermolecular_energy": 2.731, "internal_energy": -0.839}

$$$$
EPH_relaxed_0001_pdb2pqr_Repair_331_r2_0001_out
     RDKit          3D

 82 86  0  0  0  0  0  0  0  0999 V2000
   -2.4350    7.7810   -0.0520 C   0  0  0  0  0  0  0  0  0  0  0  0
   -3.0660    9.1760   -0.0600 C   0  0  2  0  0  0  0  0  0  0  0  0
   -4.5550    9.1390   -0.4560 C   0  0  0  0  0  0  0  0  0  0  0  0
   -5.1440    7.7260   -0.5040 C   0  0  0  0  0  0  0  0  0  0  0  0
   -5.8730    7.4730   -1.7890 C   0  0  2  0  0  0  0  0  0  0  0  0
   -6.8190    8.4880   -2.1510 O   0  0  0  0  0  0  0  0  0  0  0  0
   -7.3620    7.1890   -1.8640 C   0  0  0  0  0  0  0  0  0  0  0  0
   -8.2100    7.1430   -0.6320 C   0  0  0  0  0  0  0  0  0  0  0  0
   -7.8950    6.4790   -3.0690 C   0  0  0  0  0  0  0  0  0  0  0  0
   -2.2970   10.0890   -1.0090 C   0  0  1  0  0  0  0  0  0  0  0  0
   -2.9430   11.4940   -1.1410 C   0  0  0  0  0  0  0  0  0  0  0  0
   -1.7820   12.5060   -1.3110 C   0  0  0  0  0  0  0  0  0  0  0  0
   -0.5410   11.6310   -1.6030 C   0  0  1  0  0  0  0  0  0  0  0  0
   -0.6370   11.2930   -3.1240 C   0  0  0  0  0  0  0  0  0  0  0  0
    0.8460   12.2530   -1.2360 C   0  0  2  0  0  0  0  0  0  0  0  0
    1.2100   13.5340   -2.0060 C   0  0  0  0  0  0  0  0  0  0  0  0
    1.9580   13.3220   -3.2810 C   0  0  0  0  0  0  0  0  0  0  0  0
    2.5710   12.1810   -3.6470 C   0  0  0  0  0  0  0  0  0  0  0  0
    2.6310   10.9790   -2.6960 C   0  0  1  0  0  0  0  0  0  0  0  0
    4.0750   10.4120   -2.6690 C   0  0  0  0  0  0  0  0  0  0  0  0
    4.5980   10.0790   -4.0630 C   0  0  0  0  0  0  0  0  0  0  0  0
    4.5770   11.3130   -4.9620 C   0  0  2  0  0  0  0  0  0  0  0  0
    5.5260   12.2620   -4.4650 O   0  0  0  0  0  0  0  0  0  0  0  0
    3.1750   11.9770   -5.0580 C   0  0  0  0  0  0  0  0  0  0  0  0
    2.2210   11.0640   -5.8680 C   0  0  0  0  0  0  0  0  0  0  0  0
    3.3220   13.2870   -5.8780 C   0  0  0  0  0  0  0  0  0  0  0  0
    2.0420   11.2170   -1.2390 C   0  0  1  0  0  0  0  0  0  0  0  0
    3.1460   11.8090   -0.3100 C   0  0  0  0  0  0  0  0  0  0  0  0
    1.6340    9.8300   -0.6160 C   0  0  0  0  0  0  0  0  0  0  0  0
    0.2100    9.3250   -0.9160 C   0  0  0  0  0  0  0  0  0  0  0  0
   -0.8280   10.4180   -0.6440 C   0  0  2  0  0  0  0  0  0  0  0  0
   -0.7700   10.7630    0.8830 C   0  0  0  0  0  0  0  0  0  0  0  0
   -2.2861    7.4519    0.9870 H   0  0  0  0  0  0  0  0  0  0  0  0
   -3.1011    7.0743   -0.5686 H   0  0  0  0  0  0  0  0  0  0  0  0
   -1.4644    7.8146   -0.5686 H   0  0  0  0  0  0  0  0  0  0  0  0
   -3.0077    9.5706    0.9651 H   0  0  0  0  0  0  0  0  0  0  0  0
   -5.1244    9.7279    0.2781 H   0  0  0  0  0  0  0  0  0  0  0  0
   -4.6278    9.5525   -1.4727 H   0  0  0  0  0  0  0  0  0  0  0  0
   -4.3270    6.9957   -0.4078 H   0  0  0  0  0  0  0  0  0  0  0  0
   -5.8620    7.6253    0.3233 H   0  0  0  0  0  0  0  0  0  0  0  0
   -5.0001    6.9517   -2.2089 H   0  0  0  0  0  0  0  0  0  0  0  0
   -7.5652    7.1780    0.2585 H   0  0  0  0  0  0  0  0  0  0  0  0
   -8.8928    8.0054   -0.6244 H   0  0  0  0  0  0  0  0  0  0  0  0
   -8.7955    6.2118   -0.6244 H   0  0  0  0  0  0  0  0  0  0  0  0
   -8.5268    5.6373   -2.7490 H   0  0  0  0  0  0  0  0  0  0  0  0
   -8.4932    7.1781   -3.6718 H   0  0  0  0  0  0  0  0  0  0  0  0
   -7.0567    6.0997   -3.6718 H   0  0  0  0  0  0  0  0  0  0  0  0
   -2.3299    9.4761   -1.9218 H   0  0  0  0  0  0  0  0  0  0  0  0
   -3.6047   11.5256   -2.0192 H   0  0  0  0  0  0  0  0  0  0  0  0
   -3.5498   11.7343   -0.2555 H   0  0  0  0  0  0  0  0  0  0  0  0
   -1.9818   13.1888   -2.1500 H   0  0  0  0  0  0  0  0  0  0  0  0
   -1.6464   13.1384   -0.4212 H   0  0  0  0  0  0  0  0  0  0  0  0
   -0.9356   10.2416   -3.2478 H   0  0  0  0  0  0  0  0  0  0  0  0
   -1.3855   11.9450   -3.5980 H   0  0  0  0  0  0  0  0  0  0  0  0
    0.3425   11.4542   -3.5980 H   0  0  0  0  0  0  0  0  0  0  0  0
    0.6965   12.5644   -0.1916 H   0  0  0  0  0  0  0  0  0  0  0  0
    0.2761   14.0642   -2.2441 H   0  0  0  0  0  0  0  0  0  0  0  0
    1.8845   14.1024   -1.3488 H   0  0  0  0  0  0  0  0  0  0  0  0
    2.0126   14.1697   -3.9799 H   0  0  0  0  0  0  0  0  0  0  0  0
    1.9424   10.2283   -3.1111 H   0  0  0  0  0  0  0  0  0  0  0  0
    4.7394   11.1604   -2.2124 H   0  0  0  0  0  0  0  0  0  0  0  0
    4.0568    9.4787   -2.0870 H   0  0  0  0  0  0  0  0  0  0  0  0
    5.6312    9.7104   -3.9815 H   0  0  0  0  0  0  0  0  0  0  0  0
    3.9494    9.3095   -4.5072 H   0  0  0  0  0  0  0  0  0  0  0  0
    4.8389   10.9849   -5.9787 H   0  0  0  0  0  0  0  0  0  0  0  0
    5.6810   12.9180   -5.1660 H   0  0  0  0  0  0  0  0  0  0  0  0
    1.6034   10.4730   -5.1757 H   0  0  0  0  0  0  0  0  0  0  0  0
    1.5701   11.6842   -6.5017 H   0  0  0  0  0  0  0  0  0  0  0  0
    2.8121   10.3865   -6.5017 H   0  0  0  0  0  0  0  0  0  0  0  0
    3.4178   14.1408   -5.1911 H   0  0  0  0  0  0  0  0  0  0  0  0
    4.2187   13.2241   -6.5120 H   0  0  0  0  0  0  0  0  0  0  0  0
    2.4336   13.4244   -6.5120 H   0  0  0  0  0  0  0  0  0  0  0  0
    2.8611   11.6562    0.7414 H   0  0  0  0  0  0  0  0  0  0  0  0
    4.1022   11.3026   -0.5081 H   0  0  0  0  0  0  0  0  0  0  0  0
    3.2533   12.8857   -0.5081 H   0  0  0  0  0  0  0  0  0  0  0  0
    2.3406    9.0756   -0.9922 H   0  0  0  0  0  0  0  0  0  0  0  0
    1.6607    9.9848    0.4727 H   0  0  0  0  0  0  0  0  0  0  0  0
    0.1494    9.0262   -1.9729 H   0  0  0  0  0  0  0  0  0  0  0  0
   -0.0034    8.4677   -0.2606 H   0  0  0  0  0  0  0  0  0  0  0  0
   -0.9240    9.8468    1.4720 H   0  0  0  0  0  0  0  0  0  0  0  0
    0.2131   11.1933    1.1246 H   0  0  0  0  0  0  0  0  0  0  0  0
   -1.5583   11.4911    1.1246 H   0  0  0  0  0  0  0  0  0  0  0  0
  1  2  1  0
  2  3  1  0
  3  4  1  0
  4  5  1  0
  5  6  1  0
  6  7  1  0
  7  8  1  0
  7  9  1  0
  2 10  1  0
 10 11  1  0
 11 12  1  0
 12 13  1  0
 13 14  1  6
 13 15  1  0
 15 16  1  0
 16 17  1  0
 17 18  2  0
 18 19  1  0
 19 20  1  0
 20 21  1  0
 21 22  1  0
 22 23  1  0
 22 24  1  0
 24 25  1  0
 24 26  1  0
 19 27  1  0
 27 28  1  1
 27 29  1  0
 29 30  1  0
 30 31  1  0
 31 32  1  1
  7  5  1  0
 31 10  1  0
 31 13  1  0
 27 15  1  0
 24 18  1  0
  1 33  1  0
  1 34  1  0
  1 35  1  0
  2 36  1  1
  3 37  1  0
  3 38  1  0
  4 39  1  0
  4 40  1  0
  5 41  1  6
  8 42  1  0
  8 43  1  0
  8 44  1  0
  9 45  1  0
  9 46  1  0
  9 47  1  0
 10 48  1  6
 11 49  1  0
 11 50  1  0
 12 51  1  0
 12 52  1  0
 14 53  1  0
 14 54  1  0
 14 55  1  0
 15 56  1  1
 16 57  1  0
 16 58  1  0
 17 59  1  0
 19 60  1  6
 20 61  1  0
 20 62  1  0
 21 63  1  0
 21 64  1  0
 22 65  1  6
 23 66  1  0
 25 67  1  0
 25 68  1  0
 25 69  1  0
 26 70  1  0
 26 71  1  0
 26 72  1  0
 28 73  1  0
 28 74  1  0
 28 75  1  0
 29 76  1  0
 29 77  1  0
 30 78  1  0
 30 79  1  0
 32 80  1  0
 32 81  1  0
 32 82  1  0
M  END
>  <meeko>  (16) 
{"is_sidechain": [false], "intermolecular_energy": 2.731, "internal_energy": -0.839}

$$$$
EPH_relaxed_0001_pdb2pqr_Repair_331_r2_0001_out
     RDKit          3D

 82 86  0  0  0  0  0  0  0  0999 V2000
  -15.1970    8.8210    0.7600 C   0  0  0  0  0  0  0  0  0  0  0  0
  -14.3380    9.1030   -0.4760 C   0  0  2  0  0  0  0  0  0  0  0  0
  -14.6860    8.1680   -1.6510 C   0  0  0  0  0  0  0  0  0  0  0  0
  -14.5680    8.8340   -3.0240 C   0  0  0  0  0  0  0  0  0  0  0  0
  -15.2500   10.1680   -3.0540 C   0  0  2  0  0  0  0  0  0  0  0  0
  -14.9220   10.9840   -4.1860 O   0  0  0  0  0  0  0  0  0  0  0  0
  -14.5150   11.4870   -2.9030 C   0  0  0  0  0  0  0  0  0  0  0  0
  -13.0320   11.5370   -2.7100 C   0  0  0  0  0  0  0  0  0  0  0  0
  -15.2870   12.6890   -2.4550 C   0  0  0  0  0  0  0  0  0  0  0  0
  -12.8610    8.9690   -0.1240 C   0  0  1  0  0  0  0  0  0  0  0  0
  -12.6110    8.9500    1.4080 C   0  0  0  0  0  0  0  0  0  0  0  0
  -11.4180    7.9920    1.6550 C   0  0  0  0  0  0  0  0  0  0  0  0
  -10.8120    7.7530    0.2520 C   0  0  1  0  0  0  0  0  0  0  0  0
   -9.9170    9.0030   -0.0160 C   0  0  0  0  0  0  0  0  0  0  0  0
  -10.0170    6.4210    0.0600 C   0  0  2  0  0  0  0  0  0  0  0  0
   -8.7650    6.2760    0.9420 C   0  0  0  0  0  0  0  0  0  0  0  0
   -7.4980    6.7900    0.3420 C   0  0  0  0  0  0  0  0  0  0  0  0
   -7.3120    7.0850   -0.9580 C   0  0  0  0  0  0  0  0  0  0  0  0
   -8.4120    6.8140   -1.9930 C   0  0  1  0  0  0  0  0  0  0  0  0
   -7.7960    6.1160   -3.2330 C   0  0  0  0  0  0  0  0  0  0  0  0
   -6.6230    6.8950   -3.8200 C   0  0  0  0  0  0  0  0  0  0  0  0
   -5.5250    7.0940   -2.7780 C   0  0  2  0  0  0  0  0  0  0  0  0
   -4.9550    5.8200   -2.4600 O   0  0  0  0  0  0  0  0  0  0  0  0
   -6.0300    7.7800   -1.4780 C   0  0  0  0  0  0  0  0  0  0  0  0
   -6.3660    9.2640   -1.7700 C   0  0  0  0  0  0  0  0  0  0  0  0
   -4.8600    7.7930   -0.4590 C   0  0  0  0  0  0  0  0  0  0  0  0
   -9.7050    6.0640   -1.4500 C   0  0  1  0  0  0  0  0  0  0  0  0
   -9.4880    4.5210   -1.5080 C   0  0  0  0  0  0  0  0  0  0  0  0
  -10.9190    6.3780   -2.4020 C   0  0  0  0  0  0  0  0  0  0  0  0
  -11.7380    7.6440   -2.0890 C   0  0  0  0  0  0  0  0  0  0  0  0
  -12.1270    7.6930   -0.6080 C   0  0  2  0  0  0  0  0  0  0  0  0
  -13.0470    6.4600   -0.3140 C   0  0  0  0  0  0  0  0  0  0  0  0
  -14.6074    9.0146    1.6682 H   0  0  0  0  0  0  0  0  0  0  0  0
  -16.0805    9.4763    0.7498 H   0  0  0  0  0  0  0  0  0  0  0  0
  -15.5202    7.7696    0.7498 H   0  0  0  0  0  0  0  0  0  0  0  0
  -14.5516   10.1325   -0.7991 H   0  0  0  0  0  0  0  0  0  0  0  0
  -14.0026    7.3065   -1.6232 H   0  0  0  0  0  0  0  0  0  0  0  0
  -15.7385    7.8736   -1.5263 H   0  0  0  0  0  0  0  0  0  0  0  0
  -13.5032    8.9727   -3.2625 H   0  0  0  0  0  0  0  0  0  0  0  0
  -15.0564    8.1828   -3.7638 H   0  0  0  0  0  0  0  0  0  0  0  0
  -16.1338    9.7533   -2.5471 H   0  0  0  0  0  0  0  0  0  0  0  0
  -12.8023   11.5447   -1.6343 H   0  0  0  0  0  0  0  0  0  0  0  0
  -12.5715   10.6539   -3.1769 H   0  0  0  0  0  0  0  0  0  0  0  0
  -12.6320   12.4491   -3.1769 H   0  0  0  0  0  0  0  0  0  0  0  0
  -15.3084   12.7223   -1.3557 H   0  0  0  0  0  0  0  0  0  0  0  0
  -14.8042   13.5993   -2.8401 H   0  0  0  0  0  0  0  0  0  0  0  0
  -16.3156   12.6286   -2.8401 H   0  0  0  0  0  0  0  0  0  0  0  0
  -12.4663    9.8520   -0.6478 H   0  0  0  0  0  0  0  0  0  0  0  0
  -12.3647    9.9612    1.7641 H   0  0  0  0  0  0  0  0  0  0  0  0
  -13.5068    8.6128    1.9500 H   0  0  0  0  0  0  0  0  0  0  0  0
  -10.6784    8.4572    2.3233 H   0  0  0  0  0  0  0  0  0  0  0  0
  -11.7291    7.0550    2.1400 H   0  0  0  0  0  0  0  0  0  0  0  0
   -9.6030    9.4415    0.9427 H   0  0  0  0  0  0  0  0  0  0  0  0
   -9.0283    8.7014   -0.5898 H   0  0  0  0  0  0  0  0  0  0  0  0
  -10.4888    9.7472   -0.5898 H   0  0  0  0  0  0  0  0  0  0  0  0
  -10.7291    5.6664    0.4255 H   0  0  0  0  0  0  0  0  0  0  0  0
   -8.9441    6.8241    1.8788 H   0  0  0  0  0  0  0  0  0  0  0  0
   -8.6172    5.1953    1.0846 H   0  0  0  0  0  0  0  0  0  0  0  0
   -6.6446    6.9403    1.0196 H   0  0  0  0  0  0  0  0  0  0  0  0
   -8.8100    7.7989   -2.2788 H   0  0  0  0  0  0  0  0  0  0  0  0
   -7.4430    5.1173   -2.9364 H   0  0  0  0  0  0  0  0  0  0  0  0
   -8.5772    6.0564   -4.0051 H   0  0  0  0  0  0  0  0  0  0  0  0
   -6.2119    6.3374   -4.6744 H   0  0  0  0  0  0  0  0  0  0  0  0
   -6.9837    7.8826   -4.1434 H   0  0  0  0  0  0  0  0  0  0  0  0
   -4.7735    7.7676   -3.2156 H   0  0  0  0  0  0  0  0  0  0  0  0
   -4.1810    5.6930   -3.0330 H   0  0  0  0  0  0  0  0  0  0  0  0
   -6.4887    9.8058   -0.8206 H   0  0  0  0  0  0  0  0  0  0  0  0
   -5.5480    9.7182   -2.3484 H   0  0  0  0  0  0  0  0  0  0  0  0
   -7.2999    9.3216   -2.3484 H   0  0  0  0  0  0  0  0  0  0  0  0
   -5.2646    7.7885    0.5639 H   0  0  0  0  0  0  0  0  0  0  0  0
   -4.2330    6.9018   -0.6092 H   0  0  0  0  0  0  0  0  0  0  0  0
   -4.2530    8.6979   -0.6092 H   0  0  0  0  0  0  0  0  0  0  0  0
   -9.4316    4.1200   -0.4853 H   0  0  0  0  0  0  0  0  0  0  0  0
  -10.3291    4.0522   -2.0398 H   0  0  0  0  0  0  0  0  0  0  0  0
   -8.5503    4.3023   -2.0398 H   0  0  0  0  0  0  0  0  0  0  0  0
  -10.5230    6.4819   -3.4230 H   0  0  0  0  0  0  0  0  0  0  0  0
  -11.6186    5.5408   -2.2617 H   0  0  0  0  0  0  0  0  0  0  0  0
  -11.1356    8.5316   -2.3324 H   0  0  0  0  0  0  0  0  0  0  0  0
  -12.6573    7.6253   -2.6927 H   0  0  0  0  0  0  0  0  0  0  0  0
  -13.1460    6.3274    0.7735 H   0  0  0  0  0  0  0  0  0  0  0  0
  -14.0404    6.6304   -0.7545 H   0  0  0  0  0  0  0  0  0  0  0  0
  -12.6007    5.5562   -0.7545 H   0  0  0  0  0  0  0  0  0  0  0  0
  1  2  1  0
  2  3  1  0
  3  4  1  0
  4  5  1  0
  5  6  1  0
  6  7  1  0
  7  8  1  0
  7  9  1  0
  2 10  1  0
 10 11  1  0
 11 12  1  0
 12 13  1  0
 13 14  1  6
 13 15  1  0
 15 16  1  0
 16 17  1  0
 17 18  2  0
 18 19  1  0
 19 20  1  0
 20 21  1  0
 21 22  1  0
 22 23  1  0
 22 24  1  0
 24 25  1  0
 24 26  1  0
 19 27  1  0
 27 28  1  1
 27 29  1  0
 29 30  1  0
 30 31  1  0
 31 32  1  1
  7  5  1  0
 31 10  1  0
 31 13  1  0
 27 15  1  0
 24 18  1  0
  1 33  1  0
  1 34  1  0
  1 35  1  0
  2 36  1  6
  3 37  1  0
  3 38  1  0
  4 39  1  0
  4 40  1  0
  5 41  1  1
  8 42  1  0
  8 43  1  0
  8 44  1  0
  9 45  1  0
  9 46  1  0
  9 47  1  0
 10 48  1  6
 11 49  1  0
 11 50  1  0
 12 51  1  0
 12 52  1  0
 14 53  1  0
 14 54  1  0
 14 55  1  0
 15 56  1  1
 16 57  1  0
 16 58  1  0
 17 59  1  0
 19 60  1  6
 20 61  1  0
 20 62  1  0
 21 63  1  0
 21 64  1  0
 22 65  1  6
 23 66  1  0
 25 67  1  0
 25 68  1  0
 25 69  1  0
 26 70  1  0
 26 71  1  0
 26 72  1  0
 28 73  1  0
 28 74  1  0
 28 75  1  0
 29 76  1  0
 29 77  1  0
 30 78  1  0
 30 79  1  0
 32 80  1  0
 32 81  1  0
 32 82  1  0
M  END
>  <meeko>  (17) 
{"is_sidechain": [false], "intermolecular_energy": 2.731, "internal_energy": -0.839}

$$$$
EPH_relaxed_0001_pdb2pqr_Repair_331_r2_0001_out
     RDKit          3D

 82 86  0  0  0  0  0  0  0  0999 V2000
    0.9440   14.7950   -4.6300 C   0  0  0  0  0  0  0  0  0  0  0  0
    0.5350   14.2600   -3.2550 C   0  0  2  0  0  0  0  0  0  0  0  0
    1.6390   14.4690   -2.1990 C   0  0  0  0  0  0  0  0  0  0  0  0
    1.7410   15.9110   -1.6930 C   0  0  0  0  0  0  0  0  0  0  0  0
    0.3930   16.4830   -1.3740 C   0  0  2  0  0  0  0  0  0  0  0  0
    0.2090   17.8450   -1.7830 O   0  0  0  0  0  0  0  0  0  0  0  0
    0.1740   17.5980   -0.3680 C   0  0  0  0  0  0  0  0  0  0  0  0
    1.3160   18.2050    0.3840 C   0  0  0  0  0  0  0  0  0  0  0  0
   -1.1850   17.7570    0.2380 C   0  0  0  0  0  0  0  0  0  0  0  0
    0.1860   12.7800   -3.3560 C   0  0  1  0  0  0  0  0  0  0  0  0
    1.4200   11.8950   -3.6780 C   0  0  0  0  0  0  0  0  0  0  0  0
    1.2170   10.5550   -2.9260 C   0  0  0  0  0  0  0  0  0  0  0  0
   -0.2610   10.5810   -2.4720 C   0  0  1  0  0  0  0  0  0  0  0  0
   -1.0740   10.1430   -3.7300 C   0  0  0  0  0  0  0  0  0  0  0  0
   -0.6160    9.7110   -1.2230 C   0  0  2  0  0  0  0  0  0  0  0  0
   -0.3960    8.1980   -1.3980 C   0  0  0  0  0  0  0  0  0  0  0  0
   -1.5720    7.4370   -1.9120 C   0  0  0  0  0  0  0  0  0  0  0  0
   -2.8390    7.8900   -1.9540 C   0  0  0  0  0  0  0  0  0  0  0  0
   -3.2080    9.2550   -1.3590 C   0  0  1  0  0  0  0  0  0  0  0  0
   -4.4870    9.1150   -0.4930 C   0  0  0  0  0  0  0  0  0  0  0  0
   -5.6450    8.4800   -1.2580 C   0  0  0  0  0  0  0  0  0  0  0  0
   -5.2590    7.1000   -1.7840 C   0  0  2  0  0  0  0  0  0  0  0  0
   -5.0700    6.2200   -0.6710 O   0  0  0  0  0  0  0  0  0  0  0  0
   -3.9770    7.1150   -2.6620 C   0  0  0  0  0  0  0  0  0  0  0  0
   -4.2780    7.8170   -4.0100 C   0  0  0  0  0  0  0  0  0  0  0  0
   -3.6190    5.6440   -3.0100 C   0  0  0  0  0  0  0  0  0  0  0  0
   -2.0380   10.0200   -0.6010 C   0  0  1  0  0  0  0  0  0  0  0  0
   -1.9820    9.5620    0.8880 C   0  0  0  0  0  0  0  0  0  0  0  0
   -2.3600   11.5610   -0.5800 C   0  0  0  0  0  0  0  0  0  0  0  0
   -1.8790   12.3880   -1.7870 C   0  0  0  0  0  0  0  0  0  0  0  0
   -0.4060   12.1010   -2.0960 C   0  0  2  0  0  0  0  0  0  0  0  0
    0.4390   12.5530   -0.8560 C   0  0  0  0  0  0  0  0  0  0  0  0
    1.6076   15.6631   -4.5031 H   0  0  0  0  0  0  0  0  0  0  0  0
    1.4726   14.0077   -5.1874 H   0  0  0  0  0  0  0  0  0  0  0  0
    0.0456   15.0986   -5.1874 H   0  0  0  0  0  0  0  0  0  0  0  0
   -0.3477   14.8291   -2.9278 H   0  0  0  0  0  0  0  0  0  0  0  0
    1.4276   13.8139   -1.3410 H   0  0  0  0  0  0  0  0  0  0  0  0
    2.5971   14.2295   -2.6834 H   0  0  0  0  0  0  0  0  0  0  0  0
    2.3593   15.9267   -0.7834 H   0  0  0  0  0  0  0  0  0  0  0  0
    2.1936   16.5222   -2.4878 H   0  0  0  0  0  0  0  0  0  0  0  0
   -0.0808   15.4981   -1.4986 H   0  0  0  0  0  0  0  0  0  0  0  0
    1.1356   18.1091    1.4649 H   0  0  0  0  0  0  0  0  0  0  0  0
    2.2476   17.6830    0.1200 H   0  0  0  0  0  0  0  0  0  0  0  0
    1.4045   19.2692    0.1200 H   0  0  0  0  0  0  0  0  0  0  0  0
   -1.1009   17.7472    1.3347 H   0  0  0  0  0  0  0  0  0  0  0  0
   -1.6222   18.7124   -0.0876 H   0  0  0  0  0  0  0  0  0  0  0  0
   -1.8309   16.9283   -0.0876 H   0  0  0  0  0  0  0  0  0  0  0  0
   -0.5729   12.8241   -4.1511 H   0  0  0  0  0  0  0  0  0  0  0  0
    1.4852   11.7154   -4.7613 H   0  0  0  0  0  0  0  0  0  0  0  0
    2.3522   12.3873   -3.3637 H   0  0  0  0  0  0  0  0  0  0  0  0
    1.4024    9.7022   -3.5956 H   0  0  0  0  0  0  0  0  0  0  0  0
    1.9109   10.4428   -2.0798 H   0  0  0  0  0  0  0  0  0  0  0  0
   -2.0010    9.6436   -3.4119 H   0  0  0  0  0  0  0  0  0  0  0  0
   -1.3230   11.0290   -4.3324 H   0  0  0  0  0  0  0  0  0  0  0  0
   -0.4710    9.4476   -4.3324 H   0  0  0  0  0  0  0  0  0  0  0  0
    0.1326   10.0387   -0.4867 H   0  0  0  0  0  0  0  0  0  0  0  0
    0.4358    8.0551   -2.1035 H   0  0  0  0  0  0  0  0  0  0  0  0
   -0.1941    7.8020   -0.3918 H   0  0  0  0  0  0  0  0  0  0  0  0
   -1.3882    6.4199   -2.2884 H   0  0  0  0  0  0  0  0  0  0  0  0
   -3.4087    9.9154   -2.2155 H   0  0  0  0  0  0  0  0  0  0  0  0
   -4.2548    8.4874    0.3800 H   0  0  0  0  0  0  0  0  0  0  0  0
   -4.7995   10.1261   -0.1930 H   0  0  0  0  0  0  0  0  0  0  0  0
   -6.5094    8.3800   -0.5850 H   0  0  0  0  0  0  0  0  0  0  0  0
   -5.8964    9.1244   -2.1134 H   0  0  0  0  0  0  0  0  0  0  0  0
   -6.0775    6.7526   -2.4316 H   0  0  0  0  0  0  0  0  0  0  0  0
   -5.7990    6.3750   -0.0460 H   0  0  0  0  0  0  0  0  0  0  0  0
   -4.7048    8.8124   -3.8177 H   0  0  0  0  0  0  0  0  0  0  0  0
   -3.3460    7.9224   -4.5847 H   0  0  0  0  0  0  0  0  0  0  0  0
   -4.9969    7.2145   -4.5847 H   0  0  0  0  0  0  0  0  0  0  0  0
   -3.4796    5.0710   -2.0814 H   0  0  0  0  0  0  0  0  0  0  0  0
   -4.4346    5.1973   -3.5975 H   0  0  0  0  0  0  0  0  0  0  0  0
   -2.6893    5.6220   -3.5975 H   0  0  0  0  0  0  0  0  0  0  0  0
   -2.0891   10.4376    1.5452 H   0  0  0  0  0  0  0  0  0  0  0  0
   -2.8002    8.8536    1.0848 H   0  0  0  0  0  0  0  0  0  0  0  0
   -1.0172    9.0716    1.0848 H   0  0  0  0  0  0  0  0  0  0  0  0
   -3.4525   11.6717   -0.5150 H   0  0  0  0  0  0  0  0  0  0  0  0
   -1.8039   11.9593    0.2815 H   0  0  0  0  0  0  0  0  0  0  0  0
   -2.4880   12.1298   -2.6659 H   0  0  0  0  0  0  0  0  0  0  0  0
   -1.9852   13.4559   -1.5454 H   0  0  0  0  0  0  0  0  0  0  0  0
   -0.0869   12.2717    0.0683 H   0  0  0  0  0  0  0  0  0  0  0  0
    1.4221   12.0603   -0.8830 H   0  0  0  0  0  0  0  0  0  0  0  0
    0.5749   13.6442   -0.8830 H   0  0  0  0  0  0  0  0  0  0  0  0
  1  2  1  0
  2  3  1  0
  3  4  1  0
  4  5  1  0
  5  6  1  0
  6  7  1  0
  7  8  1  0
  7  9  1  0
  2 10  1  0
 10 11  1  0
 11 12  1  0
 12 13  1  0
 13 14  1  6
 13 15  1  0
 15 16  1  0
 16 17  1  0
 17 18  2  0
 18 19  1  0
 19 20  1  0
 20 21  1  0
 21 22  1  0
 22 23  1  0
 22 24  1  0
 24 25  1  0
 24 26  1  0
 19 27  1  0
 27 28  1  1
 27 29  1  0
 29 30  1  0
 30 31  1  0
 31 32  1  1
  7  5  1  0
 31 10  1  0
 31 13  1  0
 27 15  1  0
 24 18  1  0
  1 33  1  0
  1 34  1  0
  1 35  1  0
  2 36  1  1
  3 37  1  0
  3 38  1  0
  4 39  1  0
  4 40  1  0
  5 41  1  6
  8 42  1  0
  8 43  1  0
  8 44  1  0
  9 45  1  0
  9 46  1  0
  9 47  1  0
 10 48  1  6
 11 49  1  0
 11 50  1  0
 12 51  1  0
 12 52  1  0
 14 53  1  0
 14 54  1  0
 14 55  1  0
 15 56  1  1
 16 57  1  0
 16 58  1  0
 17 59  1  0
 19 60  1  6
 20 61  1  0
 20 62  1  0
 21 63  1  0
 21 64  1  0
 22 65  1  6
 23 66  1  0
 25 67  1  0
 25 68  1  0
 25 69  1  0
 26 70  1  0
 26 71  1  0
 26 72  1  0
 28 73  1  0
 28 74  1  0
 28 75  1  0
 29 76  1  0
 29 77  1  0
 30 78  1  0
 30 79  1  0
 32 80  1  0
 32 81  1  0
 32 82  1  0
M  END
>  <meeko>  (18) 
{"is_sidechain": [false], "intermolecular_energy": 2.731, "internal_energy": -0.839}

$$$$
EPH_relaxed_0001_pdb2pqr_Repair_331_r2_0001_out
     RDKit          3D

 82 86  0  0  0  0  0  0  0  0999 V2000
    0.0160   17.4210   -1.5830 C   0  0  0  0  0  0  0  0  0  0  0  0
   -0.4480   16.1590   -0.8510 C   0  0  2  0  0  0  0  0  0  0  0  0
   -0.8950   16.4560    0.5940 C   0  0  0  0  0  0  0  0  0  0  0  0
   -1.0860   17.9470    0.8850 C   0  0  0  0  0  0  0  0  0  0  0  0
   -0.8770   18.7820   -0.3420 C   0  0  2  0  0  0  0  0  0  0  0  0
   -0.7380   20.1870   -0.0930 O   0  0  0  0  0  0  0  0  0  0  0  0
   -1.8910   19.7890   -0.8520 C   0  0  0  0  0  0  0  0  0  0  0  0
   -3.1910   20.0120   -0.1470 C   0  0  0  0  0  0  0  0  0  0  0  0
   -1.8340   20.1950   -2.2920 C   0  0  0  0  0  0  0  0  0  0  0  0
    0.6670   15.1200   -0.8490 C   0  0  1  0  0  0  0  0  0  0  0  0
    0.7710   14.3580    0.5000 C   0  0  0  0  0  0  0  0  0  0  0  0
    1.1910   12.9050    0.1620 C   0  0  0  0  0  0  0  0  0  0  0  0
    1.6340   12.9610   -1.3190 C   0  0  1  0  0  0  0  0  0  0  0  0
    3.0960   13.5080   -1.2800 C   0  0  0  0  0  0  0  0  0  0  0  0
    1.5400   11.6220   -2.1200 C   0  0  2  0  0  0  0  0  0  0  0  0
    2.4330   10.4840   -1.5950 C   0  0  0  0  0  0  0  0  0  0  0  0
    3.8000   10.4190   -2.1920 C   0  0  0  0  0  0  0  0  0  0  0  0
    4.1970   11.0560   -3.3100 C   0  0  0  0  0  0  0  0  0  0  0  0
    3.2010   11.8640   -4.1510 C   0  0  1  0  0  0  0  0  0  0  0  0
    3.3820   11.5100   -5.6510 C   0  0  0  0  0  0  0  0  0  0  0  0
    4.8220   11.6850   -6.1230 C   0  0  0  0  0  0  0  0  0  0  0  0
    5.7750   10.8220   -5.3000 C   0  0  2  0  0  0  0  0  0  0  0  0
    5.4990    9.4440   -5.5710 O   0  0  0  0  0  0  0  0  0  0  0  0
    5.6750   11.0840   -3.7720 C   0  0  0  0  0  0  0  0  0  0  0  0
    6.2600   12.4800   -3.4430 C   0  0  0  0  0  0  0  0  0  0  0  0
    6.5820   10.0520   -3.0490 C   0  0  0  0  0  0  0  0  0  0  0  0
    1.6820   11.7920   -3.6870 C   0  0  1  0  0  0  0  0  0  0  0  0
    0.9860   10.5560   -4.3340 C   0  0  0  0  0  0  0  0  0  0  0  0
    0.9200   13.0620   -4.2220 C   0  0  0  0  0  0  0  0  0  0  0  0
    0.9500   14.3170   -3.3290 C   0  0  0  0  0  0  0  0  0  0  0  0
    0.5720   13.9720   -1.8860 C   0  0  2  0  0  0  0  0  0  0  0  0
   -0.9020   13.4400   -1.8910 C   0  0  0  0  0  0  0  0  0  0  0  0
    0.2982   18.1887   -0.8475 H   0  0  0  0  0  0  0  0  0  0  0  0
    0.8845   17.1806   -2.2137 H   0  0  0  0  0  0  0  0  0  0  0  0
   -0.8014   17.8005   -2.2137 H   0  0  0  0  0  0  0  0  0  0  0  0
   -1.3217   15.7657   -1.3914 H   0  0  0  0  0  0  0  0  0  0  0  0
   -1.8505   15.9417    0.7746 H   0  0  0  0  0  0  0  0  0  0  0  0
   -0.0941   16.0989    1.2581 H   0  0  0  0  0  0  0  0  0  0  0  0
   -2.1083   18.1096    1.2571 H   0  0  0  0  0  0  0  0  0  0  0  0
   -0.3409   18.2482    1.6360 H   0  0  0  0  0  0  0  0  0  0  0  0
   -0.3396   17.9604   -0.8382 H   0  0  0  0  0  0  0  0  0  0  0  0
   -3.0279   19.9840    0.9405 H   0  0  0  0  0  0  0  0  0  0  0  0
   -3.5988   20.9932   -0.4315 H   0  0  0  0  0  0  0  0  0  0  0  0
   -3.9025   19.2228   -0.4315 H   0  0  0  0  0  0  0  0  0  0  0  0
   -1.6814   21.2822   -2.3607 H   0  0  0  0  0  0  0  0  0  0  0  0
   -1.0000   19.6757   -2.7866 H   0  0  0  0  0  0  0  0  0  0  0  0
   -2.7788   19.9254   -2.7866 H   0  0  0  0  0  0  0  0  0  0  0  0
    1.5239   15.7688   -1.0831 H   0  0  0  0  0  0  0  0  0  0  0  0
    1.5268   14.8305    1.1446 H   0  0  0  0  0  0  0  0  0  0  0  0
   -0.1878   14.3766    1.0389 H   0  0  0  0  0  0  0  0  0  0  0  0
    2.0235   12.5821    0.8044 H   0  0  0  0  0  0  0  0  0  0  0  0
    0.3748   12.1861    0.3262 H   0  0  0  0  0  0  0  0  0  0  0  0
    3.4150   13.6274   -0.2341 H   0  0  0  0  0  0  0  0  0  0  0  0
    3.7662   12.7998   -1.7892 H   0  0  0  0  0  0  0  0  0  0  0  0
    3.1367   14.4822   -1.7892 H   0  0  0  0  0  0  0  0  0  0  0  0
    0.5050   11.3037   -1.9264 H   0  0  0  0  0  0  0  0  0  0  0  0
    2.5425   10.6118   -0.5080 H   0  0  0  0  0  0  0  0  0  0  0  0
    1.9315    9.5474   -1.8801 H   0  0  0  0  0  0  0  0  0  0  0  0
    4.5462    9.7980   -1.6746 H   0  0  0  0  0  0  0  0  0  0  0  0
    3.4513   12.9220   -3.9839 H   0  0  0  0  0  0  0  0  0  0  0  0
    3.0854   10.4619   -5.8044 H   0  0  0  0  0  0  0  0  0  0  0  0
    2.7530   12.1980   -6.2350 H   0  0  0  0  0  0  0  0  0  0  0  0
    4.8924   11.3908   -7.1806 H   0  0  0  0  0  0  0  0  0  0  0  0
    5.1067   12.7400   -5.9973 H   0  0  0  0  0  0  0  0  0  0  0  0
    6.8003   11.0881   -5.5967 H   0  0  0  0  0  0  0  0  0  0  0  0
    5.0290    9.4000   -6.4210 H   0  0  0  0  0  0  0  0  0  0  0  0
    6.3133   12.6073   -2.3517 H   0  0  0  0  0  0  0  0  0  0  0  0
    7.2694   12.5649   -3.8718 H   0  0  0  0  0  0  0  0  0  0  0  0
    5.6127   13.2592   -3.8718 H   0  0  0  0  0  0  0  0  0  0  0  0
    6.4774   10.1710   -1.9605 H   0  0  0  0  0  0  0  0  0  0  0  0
    6.2810    9.0340   -3.3371 H   0  0  0  0  0  0  0  0  0  0  0  0
    7.6302   10.2198   -3.3371 H   0  0  0  0  0  0  0  0  0  0  0  0
    0.6111    9.8903   -3.5426 H   0  0  0  0  0  0  0  0  0  0  0  0
    0.1453   10.8935   -4.9580 H   0  0  0  0  0  0  0  0  0  0  0  0
    1.7105   10.0121   -4.9580 H   0  0  0  0  0  0  0  0  0  0  0  0
    1.3638   13.3326   -5.1914 H   0  0  0  0  0  0  0  0  0  0  0  0
   -0.1383   12.7654   -4.2664 H   0  0  0  0  0  0  0  0  0  0  0  0
    1.9634   14.7445   -3.3431 H   0  0  0  0  0  0  0  0  0  0  0  0
    0.2206   15.0423   -3.7188 H   0  0  0  0  0  0  0  0  0  0  0  0
   -1.2500   13.3144   -0.8551 H   0  0  0  0  0  0  0  0  0  0  0  0
   -1.5502   14.1609   -2.4107 H   0  0  0  0  0  0  0  0  0  0  0  0
   -0.9404   12.4713   -2.4107 H   0  0  0  0  0  0  0  0  0  0  0  0
  1  2  1  0
  2  3  1  0
  3  4  1  0
  4  5  1  0
  5  6  1  0
  6  7  1  0
  7  8  1  0
  7  9  1  0
  2 10  1  0
 10 11  1  0
 11 12  1  0
 12 13  1  0
 13 14  1  1
 13 15  1  0
 15 16  1  0
 16 17  1  0
 17 18  2  0
 18 19  1  0
 19 20  1  0
 20 21  1  0
 21 22  1  0
 22 23  1  0
 22 24  1  0
 24 25  1  0
 24 26  1  0
 19 27  1  0
 27 28  1  6
 27 29  1  0
 29 30  1  0
 30 31  1  0
 31 32  1  6
  7  5  1  0
 31 10  1  0
 31 13  1  0
 27 15  1  0
 24 18  1  0
  1 33  1  0
  1 34  1  0
  1 35  1  0
  2 36  1  6
  3 37  1  0
  3 38  1  0
  4 39  1  0
  4 40  1  0
  5 41  1  6
  8 42  1  0
  8 43  1  0
  8 44  1  0
  9 45  1  0
  9 46  1  0
  9 47  1  0
 10 48  1  6
 11 49  1  0
 11 50  1  0
 12 51  1  0
 12 52  1  0
 14 53  1  0
 14 54  1  0
 14 55  1  0
 15 56  1  6
 16 57  1  0
 16 58  1  0
 17 59  1  0
 19 60  1  6
 20 61  1  0
 20 62  1  0
 21 63  1  0
 21 64  1  0
 22 65  1  6
 23 66  1  0
 25 67  1  0
 25 68  1  0
 25 69  1  0
 26 70  1  0
 26 71  1  0
 26 72  1  0
 28 73  1  0
 28 74  1  0
 28 75  1  0
 29 76  1  0
 29 77  1  0
 30 78  1  0
 30 79  1  0
 32 80  1  0
 32 81  1  0
 32 82  1  0
M  END
>  <meeko>  (19) 
{"is_sidechain": [false], "intermolecular_energy": 2.731, "internal_energy": -0.839}

$$$$
