EPH_relaxed_0001_pdb2pqr_Repair_368_r2_0001_out
     RDKit          3D

 82 86  0  0  0  0  0  0  0  0999 V2000
   -1.3600    8.3770   -1.5140 C   0  0  0  0  0  0  0  0  0  0  0  0
   -1.9780    9.1850   -0.3700 C   0  0  2  0  0  0  0  0  0  0  0  0
   -3.4140    9.6430   -0.6930 C   0  0  0  0  0  0  0  0  0  0  0  0
   -4.4930    8.8830    0.0840 C   0  0  0  0  0  0  0  0  0  0  0  0
   -4.8080    7.5630   -0.5520 C   0  0  2  0  0  0  0  0  0  0  0  0
   -4.5790    7.5110   -1.9670 O   0  0  0  0  0  0  0  0  0  0  0  0
   -5.9430    7.3600   -1.5390 C   0  0  0  0  0  0  0  0  0  0  0  0
   -6.8360    8.4910   -1.9440 C   0  0  0  0  0  0  0  0  0  0  0  0
   -6.4860    5.9790   -1.7310 C   0  0  0  0  0  0  0  0  0  0  0  0
   -1.1040   10.3930   -0.0550 C   0  0  1  0  0  0  0  0  0  0  0  0
   -0.0160   10.0820    1.0080 C   0  0  0  0  0  0  0  0  0  0  0  0
    1.2340   10.9150    0.6240 C   0  0  0  0  0  0  0  0  0  0  0  0
    0.7250   11.9180   -0.4370 C   0  0  1  0  0  0  0  0  0  0  0  0
    0.0570   13.0650    0.3830 C   0  0  0  0  0  0  0  0  0  0  0  0
    1.7940   12.4690   -1.4360 C   0  0  2  0  0  0  0  0  0  0  0  0
    2.9300   13.2830   -0.7930 C   0  0  0  0  0  0  0  0  0  0  0  0
    2.6810   14.7510   -0.6870 C   0  0  0  0  0  0  0  0  0  0  0  0
    1.7220   15.4310   -1.3420 C   0  0  0  0  0  0  0  0  0  0  0  0
    0.8250   14.7330   -2.3720 C   0  0  1  0  0  0  0  0  0  0  0  0
    0.7300   15.6040   -3.6520 C   0  0  0  0  0  0  0  0  0  0  0  0
    0.2780   17.0310   -3.3560 C   0  0  0  0  0  0  0  0  0  0  0  0
    1.2280   17.7120   -2.3740 C   0  0  2  0  0  0  0  0  0  0  0  0
    2.4990   17.8870   -3.0080 O   0  0  0  0  0  0  0  0  0  0  0  0
    1.4100   16.9200   -1.0490 C   0  0  0  0  0  0  0  0  0  0  0  0
    0.1050   16.9880   -0.2180 C   0  0  0  0  0  0  0  0  0  0  0  0
    2.4980   17.6400   -0.2080 C   0  0  0  0  0  0  0  0  0  0  0  0
    1.1840   13.2180   -2.6900 C   0  0  1  0  0  0  0  0  0  0  0  0
    2.2610   13.1510   -3.8160 C   0  0  0  0  0  0  0  0  0  0  0  0
   -0.0950   12.4940   -3.2550 C   0  0  0  0  0  0  0  0  0  0  0  0
   -1.0510   11.8660   -2.2230 C   0  0  0  0  0  0  0  0  0  0  0  0
   -0.2840   11.0000   -1.2200 C   0  0  2  0  0  0  0  0  0  0  0  0
    0.3810    9.8240   -2.0140 C   0  0  0  0  0  0  0  0  0  0  0  0
   -0.7411    7.5679   -1.0989 H   0  0  0  0  0  0  0  0  0  0  0  0
   -2.1608    7.9456   -2.1326 H   0  0  0  0  0  0  0  0  0  0  0  0
   -0.7340    9.0369   -2.1326 H   0  0  0  0  0  0  0  0  0  0  0  0
   -2.0315    8.5262    0.5093 H   0  0  0  0  0  0  0  0  0  0  0  0
   -3.5000   10.7125   -0.4506 H   0  0  0  0  0  0  0  0  0  0  0  0
   -3.5835    9.4392   -1.7606 H   0  0  0  0  0  0  0  0  0  0  0  0
   -4.1371    8.7084    1.1101 H   0  0  0  0  0  0  0  0  0  0  0  0
   -5.4093    9.4916    0.0828 H   0  0  0  0  0  0  0  0  0  0  0  0
   -4.5223    7.0258    0.3644 H   0  0  0  0  0  0  0  0  0  0  0  0
   -7.2286    8.9883   -1.0448 H   0  0  0  0  0  0  0  0  0  0  0  0
   -6.2629    9.2145   -2.5424 H   0  0  0  0  0  0  0  0  0  0  0  0
   -7.6727    8.1014   -2.5424 H   0  0  0  0  0  0  0  0  0  0  0  0
   -6.6678    5.5167   -0.7495 H   0  0  0  0  0  0  0  0  0  0  0  0
   -7.4306    6.0312   -2.2923 H   0  0  0  0  0  0  0  0  0  0  0  0
   -5.7589    5.3739   -2.2923 H   0  0  0  0  0  0  0  0  0  0  0  0
   -1.8795   11.1027    0.2689 H   0  0  0  0  0  0  0  0  0  0  0  0
   -0.3706   10.3700    2.0087 H   0  0  0  0  0  0  0  0  0  0  0  0
    0.2172    9.0073    1.0323 H   0  0  0  0  0  0  0  0  0  0  0  0
    1.6309   11.4464    1.5016 H   0  0  0  0  0  0  0  0  0  0  0  0
    2.0530   10.2865    0.2442 H   0  0  0  0  0  0  0  0  0  0  0  0
    0.1743   12.8635    1.4580 H   0  0  0  0  0  0  0  0  0  0  0  0
    0.5390   14.0221    0.1346 H   0  0  0  0  0  0  0  0  0  0  0  0
   -1.0133   13.1181    0.1346 H   0  0  0  0  0  0  0  0  0  0  0  0
    2.2629   11.5475   -1.8114 H   0  0  0  0  0  0  0  0  0  0  0  0
    3.0961   12.8922    0.2217 H   0  0  0  0  0  0  0  0  0  0  0  0
    3.7998   13.1688   -1.4566 H   0  0  0  0  0  0  0  0  0  0  0  0
    3.3370   15.3257   -0.0167 H   0  0  0  0  0  0  0  0  0  0  0  0
   -0.1669   14.6493   -1.9038 H   0  0  0  0  0  0  0  0  0  0  0  0
    1.7207   15.6396   -4.1287 H   0  0  0  0  0  0  0  0  0  0  0  0
   -0.0208   15.1460   -4.3127 H   0  0  0  0  0  0  0  0  0  0  0  0
    0.2587   17.6044   -4.2945 H   0  0  0  0  0  0  0  0  0  0  0  0
   -0.7252   16.9952   -2.9062 H   0  0  0  0  0  0  0  0  0  0  0  0
    0.7829   18.6805   -2.1022 H   0  0  0  0  0  0  0  0  0  0  0  0
    3.1720   17.9390   -2.3080 H   0  0  0  0  0  0  0  0  0  0  0  0
    0.3518   16.9751    0.8539 H   0  0  0  0  0  0  0  0  0  0  0  0
   -0.4351   17.9155   -0.4588 H   0  0  0  0  0  0  0  0  0  0  0  0
   -0.5286   16.1217   -0.4588 H   0  0  0  0  0  0  0  0  0  0  0  0
    2.2864   17.5000    0.8623 H   0  0  0  0  0  0  0  0  0  0  0  0
    3.4850   17.2161   -0.4452 H   0  0  0  0  0  0  0  0  0  0  0  0
    2.4936   18.7141   -0.4452 H   0  0  0  0  0  0  0  0  0  0  0  0
    3.2615   13.0888   -3.3632 H   0  0  0  0  0  0  0  0  0  0  0  0
    2.0848   12.2621   -4.4395 H   0  0  0  0  0  0  0  0  0  0  0  0
    2.1963   14.0549   -4.4395 H   0  0  0  0  0  0  0  0  0  0  0  0
   -0.6684   13.2341   -3.8325 H   0  0  0  0  0  0  0  0  0  0  0  0
    0.2897   11.6477   -3.8430 H   0  0  0  0  0  0  0  0  0  0  0  0
   -1.5722   12.6685   -1.6805 H   0  0  0  0  0  0  0  0  0  0  0  0
   -1.7725   11.2292   -2.7559 H   0  0  0  0  0  0  0  0  0  0  0  0
    0.7953    9.0914   -1.3057 H   0  0  0  0  0  0  0  0  0  0  0  0
   -0.3745    9.3354   -2.6468 H   0  0  0  0  0  0  0  0  0  0  0  0
    1.1891   10.2196   -2.6468 H   0  0  0  0  0  0  0  0  0  0  0  0
  1  2  1  0
  2  3  1  0
  3  4  1  0
  4  5  1  0
  5  6  1  0
  6  7  1  0
  7  8  1  0
  7  9  1  0
  2 10  1  0
 10 11  1  0
 11 12  1  0
 12 13  1  0
 13 14  1  1
 13 15  1  0
 15 16  1  0
 16 17  1  0
 17 18  2  0
 18 19  1  0
 19 20  1  0
 20 21  1  0
 21 22  1  0
 22 23  1  0
 22 24  1  0
 24 25  1  0
 24 26  1  0
 19 27  1  0
 27 28  1  6
 27 29  1  0
 29 30  1  0
 30 31  1  0
 31 32  1  6
  7  5  1  0
 31 10  1  0
 31 13  1  0
 27 15  1  0
 24 18  1  0
  1 33  1  0
  1 34  1  0
  1 35  1  0
  2 36  1  1
  3 37  1  0
  3 38  1  0
  4 39  1  0
  4 40  1  0
  5 41  1  1
  8 42  1  0
  8 43  1  0
  8 44  1  0
  9 45  1  0
  9 46  1  0
  9 47  1  0
 10 48  1  1
 11 49  1  0
 11 50  1  0
 12 51  1  0
 12 52  1  0
 14 53  1  0
 14 54  1  0
 14 55  1  0
 15 56  1  6
 16 57  1  0
 16 58  1  0
 17 59  1  0
 19 60  1  1
 20 61  1  0
 20 62  1  0
 21 63  1  0
 21 64  1  0
 22 65  1  1
 23 66  1  0
 25 67  1  0
 25 68  1  0
 25 69  1  0
 26 70  1  0
 26 71  1  0
 26 72  1  0
 28 73  1  0
 28 74  1  0
 28 75  1  0
 29 76  1  0
 29 77  1  0
 30 78  1  0
 30 79  1  0
 32 80  1  0
 32 81  1  0
 32 82  1  0
M  END
>  <meeko>  (1) 
{"is_sidechain": [false], "intermolecular_energy": 2.731, "internal_energy": -0.839}

$$$$
EPH_relaxed_0001_pdb2pqr_Repair_368_r2_0001_out
     RDKit          3D

 82 86  0  0  0  0  0  0  0  0999 V2000
    4.2060   17.6100   -0.6360 C   0  0  0  0  0  0  0  0  0  0  0  0
    2.8440   18.1660   -0.2120 C   0  0  2  0  0  0  0  0  0  0  0  0
    2.9010   18.8530    1.1670 C   0  0  0  0  0  0  0  0  0  0  0  0
    4.2340   18.6610    1.8960 C   0  0  0  0  0  0  0  0  0  0  0  0
    4.1960   19.2340    3.2800 C   0  0  2  0  0  0  0  0  0  0  0  0
    5.2230   20.1940    3.5590 O   0  0  0  0  0  0  0  0  0  0  0  0
    5.2700   18.9770    4.3210 C   0  0  0  0  0  0  0  0  0  0  0  0
    6.4570   18.1170    4.0220 C   0  0  0  0  0  0  0  0  0  0  0  0
    4.9230   19.1580    5.7660 C   0  0  0  0  0  0  0  0  0  0  0  0
    1.8080   17.0490   -0.1960 C   0  0  1  0  0  0  0  0  0  0  0  0
    0.3750   17.5580   -0.5050 C   0  0  0  0  0  0  0  0  0  0  0  0
   -0.3360   16.4360   -1.3040 C   0  0  0  0  0  0  0  0  0  0  0  0
    0.5820   15.2010   -1.1430 C   0  0  1  0  0  0  0  0  0  0  0  0
    0.2170   14.6100    0.2550 C   0  0  0  0  0  0  0  0  0  0  0  0
    0.4890   14.1200   -2.2690 C   0  0  2  0  0  0  0  0  0  0  0  0
   -0.8840   13.4410   -2.4100 C   0  0  0  0  0  0  0  0  0  0  0  0
   -1.0720   12.2040   -1.5960 C   0  0  0  0  0  0  0  0  0  0  0  0
   -0.0880   11.5010   -1.0050 C   0  0  0  0  0  0  0  0  0  0  0  0
    1.3840   11.8800   -1.2100 C   0  0  1  0  0  0  0  0  0  0  0  0
    2.2090   10.6040   -1.5250 C   0  0  0  0  0  0  0  0  0  0  0  0
    2.0280    9.5150   -0.4720 C   0  0  0  0  0  0  0  0  0  0  0  0
    0.5580    9.1240   -0.3390 C   0  0  2  0  0  0  0  0  0  0  0  0
    0.1380    8.4910   -1.5510 O   0  0  0  0  0  0  0  0  0  0  0  0
   -0.3720   10.3310   -0.0300 C   0  0  0  0  0  0  0  0  0  0  0  0
   -0.1160   10.8290    1.4140 C   0  0  0  0  0  0  0  0  0  0  0  0
   -1.8390    9.8240   -0.0620 C   0  0  0  0  0  0  0  0  0  0  0  0
    1.6600   13.0550   -2.2430 C   0  0  1  0  0  0  0  0  0  0  0  0
    1.7700   12.4790   -3.6880 C   0  0  0  0  0  0  0  0  0  0  0  0
    3.0550   13.7090   -1.9180 C   0  0  0  0  0  0  0  0  0  0  0  0
    3.0640   14.8520   -0.8860 C   0  0  0  0  0  0  0  0  0  0  0  0
    1.9910   15.8950   -1.2140 C   0  0  2  0  0  0  0  0  0  0  0  0
    2.3430   16.5230   -2.6050 C   0  0  0  0  0  0  0  0  0  0  0  0
    4.7981   17.3683    0.2590 H   0  0  0  0  0  0  0  0  0  0  0  0
    4.0598   16.6996   -1.2358 H   0  0  0  0  0  0  0  0  0  0  0  0
    4.7387   18.3626   -1.2358 H   0  0  0  0  0  0  0  0  0  0  0  0
    2.5546   18.9296   -0.9490 H   0  0  0  0  0  0  0  0  0  0  0  0
    2.7350   19.9311    1.0250 H   0  0  0  0  0  0  0  0  0  0  0  0
    2.1237   18.3871    1.7905 H   0  0  0  0  0  0  0  0  0  0  0  0
    4.4528   17.5850    1.9615 H   0  0  0  0  0  0  0  0  0  0  0  0
    5.0147   19.1880    1.3279 H   0  0  0  0  0  0  0  0  0  0  0  0
    3.1001   19.1447    3.3125 H   0  0  0  0  0  0  0  0  0  0  0  0
    6.9158   17.7846    4.9649 H   0  0  0  0  0  0  0  0  0  0  0  0
    6.1371   17.2397    3.4406 H   0  0  0  0  0  0  0  0  0  0  0  0
    7.1910   18.6943    3.4406 H   0  0  0  0  0  0  0  0  0  0  0  0
    5.7255   18.7394    6.3910 H   0  0  0  0  0  0  0  0  0  0  0  0
    4.8096   20.2301    5.9844 H   0  0  0  0  0  0  0  0  0  0  0  0
    3.9789   18.6375    5.9844 H   0  0  0  0  0  0  0  0  0  0  0  0
    1.9561   16.6751    0.8278 H   0  0  0  0  0  0  0  0  0  0  0  0
   -0.1663   17.7572    0.4316 H   0  0  0  0  0  0  0  0  0  0  0  0
    0.4044   18.4948   -1.0808 H   0  0  0  0  0  0  0  0  0  0  0  0
   -1.3340   16.2351   -0.8873 H   0  0  0  0  0  0  0  0  0  0  0  0
   -0.4889   16.7076   -2.3589 H   0  0  0  0  0  0  0  0  0  0  0  0
    0.6193   15.2614    1.0448 H   0  0  0  0  0  0  0  0  0  0  0  0
   -0.8769   14.5480    0.3526 H   0  0  0  0  0  0  0  0  0  0  0  0
    0.6514   13.6041    0.3526 H   0  0  0  0  0  0  0  0  0  0  0  0
    0.6213   14.7188   -3.1822 H   0  0  0  0  0  0  0  0  0  0  0  0
   -1.6541   14.1663   -2.1084 H   0  0  0  0  0  0  0  0  0  0  0  0
   -0.9608   13.1271   -3.4614 H   0  0  0  0  0  0  0  0  0  0  0  0
   -2.1008   11.8361   -1.4684 H   0  0  0  0  0  0  0  0  0  0  0  0
    1.7205   12.3163   -0.2580 H   0  0  0  0  0  0  0  0  0  0  0  0
    1.8881   10.2085   -2.5000 H   0  0  0  0  0  0  0  0  0  0  0  0
    3.2719   10.8873   -1.5328 H   0  0  0  0  0  0  0  0  0  0  0  0
    2.6109    8.6296   -0.7658 H   0  0  0  0  0  0  0  0  0  0  0  0
    2.3777    9.9014    0.4967 H   0  0  0  0  0  0  0  0  0  0  0  0
    0.4755    8.4378    0.5168 H   0  0  0  0  0  0  0  0  0  0  0  0
    0.8680    8.5630   -2.1890 H   0  0  0  0  0  0  0  0  0  0  0  0
   -0.4975   10.0869    2.1308 H   0  0  0  0  0  0  0  0  0  0  0  0
    0.9644   10.9663    1.5684 H   0  0  0  0  0  0  0  0  0  0  0  0
   -0.6331   11.7875    1.5684 H   0  0  0  0  0  0  0  0  0  0  0  0
   -2.2057    9.6973    0.9673 H   0  0  0  0  0  0  0  0  0  0  0  0
   -2.4688   10.5566   -0.5880 H   0  0  0  0  0  0  0  0  0  0  0  0
   -1.8820    8.8589   -0.5880 H   0  0  0  0  0  0  0  0  0  0  0  0
    1.9761   11.3997   -3.6378 H   0  0  0  0  0  0  0  0  0  0  0  0
    0.8235   12.6470   -4.2227 H   0  0  0  0  0  0  0  0  0  0  0  0
    2.5879   12.9840   -4.2227 H   0  0  0  0  0  0  0  0  0  0  0  0
    3.7148   12.9143   -1.5397 H   0  0  0  0  0  0  0  0  0  0  0  0
    3.3823   14.1710   -2.8611 H   0  0  0  0  0  0  0  0  0  0  0  0
    2.8681   14.4361    0.1133 H   0  0  0  0  0  0  0  0  0  0  0  0
    4.0488   15.3413   -0.9130 H   0  0  0  0  0  0  0  0  0  0  0  0
    2.8757   17.4735   -2.4539 H   0  0  0  0  0  0  0  0  0  0  0  0
    2.9837   15.8292   -3.1690 H   0  0  0  0  0  0  0  0  0  0  0  0
    1.4168   16.7074   -3.1690 H   0  0  0  0  0  0  0  0  0  0  0  0
  1  2  1  0
  2  3  1  0
  3  4  1  0
  4  5  1  0
  5  6  1  0
  6  7  1  0
  7  8  1  0
  7  9  1  0
  2 10  1  0
 10 11  1  0
 11 12  1  0
 12 13  1  0
 13 14  1  1
 13 15  1  0
 15 16  1  0
 16 17  1  0
 17 18  2  0
 18 19  1  0
 19 20  1  0
 20 21  1  0
 21 22  1  0
 22 23  1  0
 22 24  1  0
 24 25  1  0
 24 26  1  0
 19 27  1  0
 27 28  1  6
 27 29  1  0
 29 30  1  0
 30 31  1  0
 31 32  1  6
  7  5  1  0
 31 10  1  0
 31 13  1  0
 27 15  1  0
 24 18  1  0
  1 33  1  0
  1 34  1  0
  1 35  1  0
  2 36  1  6
  3 37  1  0
  3 38  1  0
  4 39  1  0
  4 40  1  0
  5 41  1  1
  8 42  1  0
  8 43  1  0
  8 44  1  0
  9 45  1  0
  9 46  1  0
  9 47  1  0
 10 48  1  1
 11 49  1  0
 11 50  1  0
 12 51  1  0
 12 52  1  0
 14 53  1  0
 14 54  1  0
 14 55  1  0
 15 56  1  6
 16 57  1  0
 16 58  1  0
 17 59  1  0
 19 60  1  1
 20 61  1  0
 20 62  1  0
 21 63  1  0
 21 64  1  0
 22 65  1  1
 23 66  1  0
 25 67  1  0
 25 68  1  0
 25 69  1  0
 26 70  1  0
 26 71  1  0
 26 72  1  0
 28 73  1  0
 28 74  1  0
 28 75  1  0
 29 76  1  0
 29 77  1  0
 30 78  1  0
 30 79  1  0
 32 80  1  0
 32 81  1  0
 32 82  1  0
M  END
>  <meeko>  (2) 
{"is_sidechain": [false], "intermolecular_energy": 2.731, "internal_energy": -0.839}

$$$$
EPH_relaxed_0001_pdb2pqr_Repair_368_r2_0001_out
     RDKit          3D

 82 86  0  0  0  0  0  0  0  0999 V2000
    2.5460   17.9960   -2.5850 C   0  0  0  0  0  0  0  0  0  0  0  0
    1.1920   17.6850   -1.9410 C   0  0  2  0  0  0  0  0  0  0  0  0
    1.2470   17.7750   -0.4020 C   0  0  0  0  0  0  0  0  0  0  0  0
    0.8750   19.1540    0.1480 C   0  0  0  0  0  0  0  0  0  0  0  0
   -0.5830   19.2430    0.4810 C   0  0  2  0  0  0  0  0  0  0  0  0
   -1.4110   18.2860   -0.1920 O   0  0  0  0  0  0  0  0  0  0  0  0
   -1.6450   19.6650   -0.5170 C   0  0  0  0  0  0  0  0  0  0  0  0
   -1.2920   20.0270   -1.9260 C   0  0  0  0  0  0  0  0  0  0  0  0
   -2.9460   20.1940    0.0030 C   0  0  0  0  0  0  0  0  0  0  0  0
    0.7200   16.3000   -2.3650 C   0  0  1  0  0  0  0  0  0  0  0  0
    0.8020   16.0850   -3.9000 C   0  0  0  0  0  0  0  0  0  0  0  0
    1.1780   14.5980   -4.1250 C   0  0  0  0  0  0  0  0  0  0  0  0
    0.9760   13.9320   -2.7430 C   0  0  1  0  0  0  0  0  0  0  0  0
   -0.5580   13.6600   -2.6500 C   0  0  0  0  0  0  0  0  0  0  0  0
    1.8090   12.6370   -2.4720 C   0  0  2  0  0  0  0  0  0  0  0  0
    1.5020   11.4560   -3.4090 C   0  0  0  0  0  0  0  0  0  0  0  0
    0.4320   10.5280   -2.9370 C   0  0  0  0  0  0  0  0  0  0  0  0
   -0.0570   10.4720   -1.6850 C   0  0  0  0  0  0  0  0  0  0  0  0
    0.5410   11.3340   -0.5660 C   0  0  1  0  0  0  0  0  0  0  0  0
    0.7640   10.4620    0.6970 C   0  0  0  0  0  0  0  0  0  0  0  0
   -0.5020    9.7330    1.1360 C   0  0  0  0  0  0  0  0  0  0  0  0
   -1.0340    8.8410    0.0170 C   0  0  2  0  0  0  0  0  0  0  0  0
   -0.0990    7.7820   -0.2110 O   0  0  0  0  0  0  0  0  0  0  0  0
   -1.2880    9.6090   -1.3100 C   0  0  0  0  0  0  0  0  0  0  0  0
   -2.5070   10.5490   -1.1420 C   0  0  0  0  0  0  0  0  0  0  0  0
   -1.6850    8.5710   -2.3940 C   0  0  0  0  0  0  0  0  0  0  0  0
    1.8260   12.1830   -0.9560 C   0  0  1  0  0  0  0  0  0  0  0  0
    3.1120   11.3210   -0.7650 C   0  0  0  0  0  0  0  0  0  0  0  0
    1.9580   13.4020    0.0320 C   0  0  0  0  0  0  0  0  0  0  0  0
    1.2080   14.6920   -0.3520 C   0  0  0  0  0  0  0  0  0  0  0  0
    1.4960   15.0810   -1.8050 C   0  0  2  0  0  0  0  0  0  0  0  0
    3.0290   15.3820   -1.9250 C   0  0  0  0  0  0  0  0  0  0  0  0
    3.2953   18.1681   -1.7983 H   0  0  0  0  0  0  0  0  0  0  0  0
    2.8587   17.1463   -3.2097 H   0  0  0  0  0  0  0  0  0  0  0  0
    2.4566   18.8970   -3.2097 H   0  0  0  0  0  0  0  0  0  0  0  0
    0.4770   18.4441   -2.2911 H   0  0  0  0  0  0  0  0  0  0  0  0
    0.5476   17.0350    0.0142 H   0  0  0  0  0  0  0  0  0  0  0  0
    2.2886   17.5814   -0.1060 H   0  0  0  0  0  0  0  0  0  0  0  0
    1.4610   19.3443    1.0592 H   0  0  0  0  0  0  0  0  0  0  0  0
    1.0961   19.9031   -0.6266 H   0  0  0  0  0  0  0  0  0  0  0  0
   -0.3527   19.5825    1.5016 H   0  0  0  0  0  0  0  0  0  0  0  0
   -0.5240   20.8145   -1.9208 H   0  0  0  0  0  0  0  0  0  0  0  0
   -0.9033   19.1392   -2.4463 H   0  0  0  0  0  0  0  0  0  0  0  0
   -2.1893   20.3933   -2.4463 H   0  0  0  0  0  0  0  0  0  0  0  0
   -2.9309   20.1879    1.1029 H   0  0  0  0  0  0  0  0  0  0  0  0
   -3.0930   21.2233   -0.3560 H   0  0  0  0  0  0  0  0  0  0  0  0
   -3.7696   19.5593   -0.3560 H   0  0  0  0  0  0  0  0  0  0  0  0
   -0.2996   16.3188   -1.9525 H   0  0  0  0  0  0  0  0  0  0  0  0
   -0.1702   16.3043   -4.3655 H   0  0  0  0  0  0  0  0  0  0  0  0
    1.5490   16.7537   -4.3527 H   0  0  0  0  0  0  0  0  0  0  0  0
    0.5187   14.1401   -4.8770 H   0  0  0  0  0  0  0  0  0  0  0  0
    2.2054   14.4792   -4.4996 H   0  0  0  0  0  0  0  0  0  0  0  0
   -0.8575   13.6069   -1.5929 H   0  0  0  0  0  0  0  0  0  0  0  0
   -1.1056   14.4751   -3.1458 H   0  0  0  0  0  0  0  0  0  0  0  0
   -0.7920   12.7064   -3.1458 H   0  0  0  0  0  0  0  0  0  0  0  0
    2.8315   12.9575   -2.7207 H   0  0  0  0  0  0  0  0  0  0  0  0
    1.1917   11.8657   -4.3816 H   0  0  0  0  0  0  0  0  0  0  0  0
    2.4240   10.8579   -3.4563 H   0  0  0  0  0  0  0  0  0  0  0  0
    0.0078    9.8314   -3.6751 H   0  0  0  0  0  0  0  0  0  0  0  0
   -0.2040   12.1149   -0.3533 H   0  0  0  0  0  0  0  0  0  0  0  0
    1.5422    9.7161    0.4775 H   0  0  0  0  0  0  0  0  0  0  0  0
    1.0644   11.1318    1.5162 H   0  0  0  0  0  0  0  0  0  0  0  0
   -0.2732    9.1112    2.0140 H   0  0  0  0  0  0  0  0  0  0  0  0
   -1.2697   10.4809    1.3838 H   0  0  0  0  0  0  0  0  0  0  0  0
   -2.0083    8.4478    0.3427 H   0  0  0  0  0  0  0  0  0  0  0  0
    0.4530    7.7000    0.5850 H   0  0  0  0  0  0  0  0  0  0  0  0
   -2.7065   10.7029   -0.0712 H   0  0  0  0  0  0  0  0  0  0  0  0
   -2.2917   11.5172   -1.6177 H   0  0  0  0  0  0  0  0  0  0  0  0
   -3.3887   10.0947   -1.6177 H   0  0  0  0  0  0  0  0  0  0  0  0
   -2.0375    7.6495   -1.9076 H   0  0  0  0  0  0  0  0  0  0  0  0
   -2.4883    8.9849   -3.0212 H   0  0  0  0  0  0  0  0  0  0  0  0
   -0.8105    8.3432   -3.0212 H   0  0  0  0  0  0  0  0  0  0  0  0
    3.3088   11.1891    0.3092 H   0  0  0  0  0  0  0  0  0  0  0  0
    2.9670   10.3370   -1.2347 H   0  0  0  0  0  0  0  0  0  0  0  0
    3.9671   11.8291   -1.2347 H   0  0  0  0  0  0  0  0  0  0  0  0
    1.5811   13.0775    1.0131 H   0  0  0  0  0  0  0  0  0  0  0  0
    3.0240   13.6727    0.0142 H   0  0  0  0  0  0  0  0  0  0  0  0
    0.1269   14.5296   -0.2304 H   0  0  0  0  0  0  0  0  0  0  0  0
    1.5510   15.5058    0.3038 H   0  0  0  0  0  0  0  0  0  0  0  0
    3.4657   15.4677   -0.9190 H   0  0  0  0  0  0  0  0  0  0  0  0
    3.5218   14.5635   -2.4701 H   0  0  0  0  0  0  0  0  0  0  0  0
    3.1757   16.3261   -2.4701 H   0  0  0  0  0  0  0  0  0  0  0  0
  1  2  1  0
  2  3  1  0
  3  4  1  0
  4  5  1  0
  5  6  1  0
  6  7  1  0
  7  8  1  0
  7  9  1  0
  2 10  1  0
 10 11  1  0
 11 12  1  0
 12 13  1  0
 13 14  1  1
 13 15  1  0
 15 16  1  0
 16 17  1  0
 17 18  2  0
 18 19  1  0
 19 20  1  0
 20 21  1  0
 21 22  1  0
 22 23  1  0
 22 24  1  0
 24 25  1  0
 24 26  1  0
 19 27  1  0
 27 28  1  6
 27 29  1  0
 29 30  1  0
 30 31  1  0
 31 32  1  1
  7  5  1  0
 31 10  1  0
 31 13  1  0
 27 15  1  0
 24 18  1  0
  1 33  1  0
  1 34  1  0
  1 35  1  0
  2 36  1  6
  3 37  1  0
  3 38  1  0
  4 39  1  0
  4 40  1  0
  5 41  1  1
  8 42  1  0
  8 43  1  0
  8 44  1  0
  9 45  1  0
  9 46  1  0
  9 47  1  0
 10 48  1  1
 11 49  1  0
 11 50  1  0
 12 51  1  0
 12 52  1  0
 14 53  1  0
 14 54  1  0
 14 55  1  0
 15 56  1  6
 16 57  1  0
 16 58  1  0
 17 59  1  0
 19 60  1  1
 20 61  1  0
 20 62  1  0
 21 63  1  0
 21 64  1  0
 22 65  1  1
 23 66  1  0
 25 67  1  0
 25 68  1  0
 25 69  1  0
 26 70  1  0
 26 71  1  0
 26 72  1  0
 28 73  1  0
 28 74  1  0
 28 75  1  0
 29 76  1  0
 29 77  1  0
 30 78  1  0
 30 79  1  0
 32 80  1  0
 32 81  1  0
 32 82  1  0
M  END
>  <meeko>  (3) 
{"is_sidechain": [false], "intermolecular_energy": 2.731, "internal_energy": -0.839}

$$$$
EPH_relaxed_0001_pdb2pqr_Repair_368_r2_0001_out
     RDKit          3D

 82 86  0  0  0  0  0  0  0  0999 V2000
    0.4130   18.4090   -0.0390 C   0  0  0  0  0  0  0  0  0  0  0  0
    1.5000   17.3530   -0.2560 C   0  0  2  0  0  0  0  0  0  0  0  0
    2.7130   17.9180   -1.0210 C   0  0  0  0  0  0  0  0  0  0  0  0
    3.9480   18.1380   -0.1430 C   0  0  0  0  0  0  0  0  0  0  0  0
    3.5740   18.6130    1.2290 C   0  0  2  0  0  0  0  0  0  0  0  0
    3.8210   20.0040    1.4690 O   0  0  0  0  0  0  0  0  0  0  0  0
    4.5870   19.0790    2.2570 C   0  0  0  0  0  0  0  0  0  0  0  0
    6.0540   19.0930    1.9580 C   0  0  0  0  0  0  0  0  0  0  0  0
    4.2020   19.0570    3.7040 C   0  0  0  0  0  0  0  0  0  0  0  0
    0.9220   16.1580   -1.0040 C   0  0  1  0  0  0  0  0  0  0  0  0
    0.7900   16.4150   -2.5290 C   0  0  0  0  0  0  0  0  0  0  0  0
    1.0750   15.0650   -3.2360 C   0  0  0  0  0  0  0  0  0  0  0  0
    1.0320   14.0140   -2.1020 C   0  0  1  0  0  0  0  0  0  0  0  0
   -0.4850   13.7230   -1.8820 C   0  0  0  0  0  0  0  0  0  0  0  0
    1.8430   12.7000   -2.3470 C   0  0  2  0  0  0  0  0  0  0  0  0
    1.3690   11.8540   -3.5420 C   0  0  0  0  0  0  0  0  0  0  0  0
    0.3350   10.8240   -3.2240 C   0  0  0  0  0  0  0  0  0  0  0  0
    0.0140   10.3930   -1.9900 C   0  0  0  0  0  0  0  0  0  0  0  0
    0.7890   10.8810   -0.7590 C   0  0  1  0  0  0  0  0  0  0  0  0
    1.1430    9.6700    0.1430 C   0  0  0  0  0  0  0  0  0  0  0  0
   -0.0810    8.8390    0.5160 C   0  0  0  0  0  0  0  0  0  0  0  0
   -0.7910    8.3240   -0.7330 C   0  0  2  0  0  0  0  0  0  0  0  0
    0.0630    7.3840   -1.3940 O   0  0  0  0  0  0  0  0  0  0  0  0
   -1.1880    9.4550   -1.7230 C   0  0  0  0  0  0  0  0  0  0  0  0
   -2.3370   10.2970   -1.1160 C   0  0  0  0  0  0  0  0  0  0  0  0
   -1.7670    8.7890   -3.0010 C   0  0  0  0  0  0  0  0  0  0  0  0
    2.0430   11.8110   -1.0530 C   0  0  1  0  0  0  0  0  0  0  0  0
    3.3080   10.9340   -1.3060 C   0  0  0  0  0  0  0  0  0  0  0  0
    2.3520   12.6770    0.2250 C   0  0  0  0  0  0  0  0  0  0  0  0
    1.6090   14.0210    0.3510 C   0  0  0  0  0  0  0  0  0  0  0  0
    1.7170   14.8300   -0.9460 C   0  0  2  0  0  0  0  0  0  0  0  0
    3.2310   15.1570   -1.1810 C   0  0  0  0  0  0  0  0  0  0  0  0
    0.2581   18.5595    1.0396 H   0  0  0  0  0  0  0  0  0  0  0  0
    0.7258   19.3573   -0.5003 H   0  0  0  0  0  0  0  0  0  0  0  0
   -0.5259   18.0689   -0.5003 H   0  0  0  0  0  0  0  0  0  0  0  0
    1.8545   17.0341    0.7353 H   0  0  0  0  0  0  0  0  0  0  0  0
    2.9778   17.2119   -1.8218 H   0  0  0  0  0  0  0  0  0  0  0  0
    2.4164   18.9031   -1.4103 H   0  0  0  0  0  0  0  0  0  0  0  0
    4.4965   17.1886   -0.0546 H   0  0  0  0  0  0  0  0  0  0  0  0
    4.5722   18.9107   -0.6157 H   0  0  0  0  0  0  0  0  0  0  0  0
    2.7500   17.8862    1.2818 H   0  0  0  0  0  0  0  0  0  0  0  0
    6.6204   19.0984    2.9010 H   0  0  0  0  0  0  0  0  0  0  0  0
    6.3183   18.1973    1.3767 H   0  0  0  0  0  0  0  0  0  0  0  0
    6.3011   19.9935    1.3767 H   0  0  0  0  0  0  0  0  0  0  0  0
    5.1082   19.1088    4.3254 H   0  0  0  0  0  0  0  0  0  0  0  0
    3.5562   19.9197    3.9248 H   0  0  0  0  0  0  0  0  0  0  0  0
    3.6587   18.1263    3.9248 H   0  0  0  0  0  0  0  0  0  0  0  0
   -0.0320   16.0488   -0.4675 H   0  0  0  0  0  0  0  0  0  0  0  0
   -0.2264   16.7609   -2.7683 H   0  0  0  0  0  0  0  0  0  0  0  0
    1.4947   17.1915   -2.8613 H   0  0  0  0  0  0  0  0  0  0  0  0
    0.3048   14.8523   -3.9920 H   0  0  0  0  0  0  0  0  0  0  0  0
    2.0387   15.0672   -3.7664 H   0  0  0  0  0  0  0  0  0  0  0  0
   -0.6979   13.6822   -0.8036 H   0  0  0  0  0  0  0  0  0  0  0  0
   -1.0825   14.5229   -2.3437 H   0  0  0  0  0  0  0  0  0  0  0  0
   -0.7441   12.7588   -2.3437 H   0  0  0  0  0  0  0  0  0  0  0  0
    2.8350   13.0838   -2.6272 H   0  0  0  0  0  0  0  0  0  0  0  0
    0.9489   12.5360   -4.2960 H   0  0  0  0  0  0  0  0  0  0  0  0
    2.2525   11.3003   -3.8925 H   0  0  0  0  0  0  0  0  0  0  0  0
   -0.2103   10.3801   -4.0700 H   0  0  0  0  0  0  0  0  0  0  0  0
    0.1108   11.5605   -0.2220 H   0  0  0  0  0  0  0  0  0  0  0  0
    1.8552    9.0266   -0.3944 H   0  0  0  0  0  0  0  0  0  0  0  0
    1.5752   10.0635    1.0748 H   0  0  0  0  0  0  0  0  0  0  0  0
    0.2381    7.9824    1.1278 H   0  0  0  0  0  0  0  0  0  0  0  0
   -0.7791    9.4752    1.0799 H   0  0  0  0  0  0  0  0  0  0  0  0
   -1.7283    7.8493   -0.4074 H   0  0  0  0  0  0  0  0  0  0  0  0
    0.0410    7.5850   -2.3450 H   0  0  0  0  0  0  0  0  0  0  0  0
   -2.2812   10.2561   -0.0182 H   0  0  0  0  0  0  0  0  0  0  0  0
   -2.2422   11.3410   -1.4493 H   0  0  0  0  0  0  0  0  0  0  0  0
   -3.3039    9.8921   -1.4493 H   0  0  0  0  0  0  0  0  0  0  0  0
   -2.4636    7.9877   -2.7134 H   0  0  0  0  0  0  0  0  0  0  0  0
   -2.3016    9.5431   -3.5974 H   0  0  0  0  0  0  0  0  0  0  0  0
   -0.9459    8.3645   -3.5974 H   0  0  0  0  0  0  0  0  0  0  0  0
    3.7436   10.6320   -0.3421 H   0  0  0  0  0  0  0  0  0  0  0  0
    3.0245   10.0377   -1.8771 H   0  0  0  0  0  0  0  0  0  0  0  0
    4.0479   11.5139   -1.8771 H   0  0  0  0  0  0  0  0  0  0  0  0
    2.0960   12.0715    1.1069 H   0  0  0  0  0  0  0  0  0  0  0  0
    3.4159   12.9435    0.1412 H   0  0  0  0  0  0  0  0  0  0  0  0
    0.5480   13.8270    0.5670 H   0  0  0  0  0  0  0  0  0  0  0  0
    2.0675   14.6007    1.1657 H   0  0  0  0  0  0  0  0  0  0  0  0
    3.7374   15.2664   -0.2106 H   0  0  0  0  0  0  0  0  0  0  0  0
    3.6989   14.3392   -1.7487 H   0  0  0  0  0  0  0  0  0  0  0  0
    3.3197   16.0950   -1.7487 H   0  0  0  0  0  0  0  0  0  0  0  0
  1  2  1  0
  2  3  1  0
  3  4  1  0
  4  5  1  0
  5  6  1  0
  6  7  1  0
  7  8  1  0
  7  9  1  0
  2 10  1  0
 10 11  1  0
 11 12  1  0
 12 13  1  0
 13 14  1  1
 13 15  1  0
 15 16  1  0
 16 17  1  0
 17 18  2  0
 18 19  1  0
 19 20  1  0
 20 21  1  0
 21 22  1  0
 22 23  1  0
 22 24  1  0
 24 25  1  0
 24 26  1  0
 19 27  1  0
 27 28  1  6
 27 29  1  0
 29 30  1  0
 30 31  1  0
 31 32  1  6
  7  5  1  0
 31 10  1  0
 31 13  1  0
 27 15  1  0
 24 18  1  0
  1 33  1  0
  1 34  1  0
  1 35  1  0
  2 36  1  1
  3 37  1  0
  3 38  1  0
  4 39  1  0
  4 40  1  0
  5 41  1  1
  8 42  1  0
  8 43  1  0
  8 44  1  0
  9 45  1  0
  9 46  1  0
  9 47  1  0
 10 48  1  1
 11 49  1  0
 11 50  1  0
 12 51  1  0
 12 52  1  0
 14 53  1  0
 14 54  1  0
 14 55  1  0
 15 56  1  6
 16 57  1  0
 16 58  1  0
 17 59  1  0
 19 60  1  1
 20 61  1  0
 20 62  1  0
 21 63  1  0
 21 64  1  0
 22 65  1  1
 23 66  1  0
 25 67  1  0
 25 68  1  0
 25 69  1  0
 26 70  1  0
 26 71  1  0
 26 72  1  0
 28 73  1  0
 28 74  1  0
 28 75  1  0
 29 76  1  0
 29 77  1  0
 30 78  1  0
 30 79  1  0
 32 80  1  0
 32 81  1  0
 32 82  1  0
M  END
>  <meeko>  (4) 
{"is_sidechain": [false], "intermolecular_energy": 2.731, "internal_energy": -0.839}

$$$$
EPH_relaxed_0001_pdb2pqr_Repair_368_r2_0001_out
     RDKit          3D

 82 86  0  0  0  0  0  0  0  0999 V2000
    3.9410   17.6850    0.5630 C   0  0  0  0  0  0  0  0  0  0  0  0
    2.7860   18.1830   -0.3110 C   0  0  2  0  0  0  0  0  0  0  0  0
    2.1250   19.4500    0.2670 C   0  0  0  0  0  0  0  0  0  0  0  0
    0.8290   19.1730    1.0340 C   0  0  0  0  0  0  0  0  0  0  0  0
   -0.3330   19.9150    0.4450 C   0  0  2  0  0  0  0  0  0  0  0  0
   -1.3980   20.1870    1.3660 O   0  0  0  0  0  0  0  0  0  0  0  0
   -1.7130   19.3070    0.2740 C   0  0  0  0  0  0  0  0  0  0  0  0
   -2.0040   17.9000    0.6910 C   0  0  0  0  0  0  0  0  0  0  0  0
   -2.6390   19.9090   -0.7370 C   0  0  0  0  0  0  0  0  0  0  0  0
    1.7460   17.0810   -0.4740 C   0  0  1  0  0  0  0  0  0  0  0  0
    0.4810   17.5610   -1.2340 C   0  0  0  0  0  0  0  0  0  0  0  0
   -0.0160   16.3600   -2.0800 C   0  0  0  0  0  0  0  0  0  0  0  0
    0.7690   15.1460   -1.5320 C   0  0  1  0  0  0  0  0  0  0  0  0
   -0.0000   14.7180   -0.2430 C   0  0  0  0  0  0  0  0  0  0  0  0
    0.9600   13.9460   -2.5150 C   0  0  2  0  0  0  0  0  0  0  0  0
   -0.3420   13.2640   -2.9730 C   0  0  0  0  0  0  0  0  0  0  0  0
   -0.8010   12.1280   -2.1200 C   0  0  0  0  0  0  0  0  0  0  0  0
   -0.0540   11.4890   -1.2000 C   0  0  0  0  0  0  0  0  0  0  0  0
    1.4300   11.8330   -1.0130 C   0  0  1  0  0  0  0  0  0  0  0  0
    2.2600   10.5250   -0.9410 C   0  0  0  0  0  0  0  0  0  0  0  0
    1.7450    9.5630    0.1250 C   0  0  0  0  0  0  0  0  0  0  0  0
    0.2840    9.1990   -0.1290 C   0  0  2  0  0  0  0  0  0  0  0  0
    0.2020    8.4350   -1.3360 O   0  0  0  0  0  0  0  0  0  0  0  0
   -0.6480   10.4390   -0.2300 C   0  0  0  0  0  0  0  0  0  0  0  0
   -0.7950   11.0940    1.1650 C   0  0  0  0  0  0  0  0  0  0  0  0
   -2.0640    9.9410   -0.6270 C   0  0  0  0  0  0  0  0  0  0  0  0
    2.0330   12.8830   -2.0420 C   0  0  1  0  0  0  0  0  0  0  0  0
    2.5270   12.1480   -3.3250 C   0  0  0  0  0  0  0  0  0  0  0  0
    3.3020   13.5600   -1.4010 C   0  0  0  0  0  0  0  0  0  0  0  0
    3.0600   14.8120   -0.5370 C   0  0  0  0  0  0  0  0  0  0  0  0
    2.1660   15.8180   -1.2680 C   0  0  2  0  0  0  0  0  0  0  0  0
    2.9240   16.2830   -2.5580 C   0  0  0  0  0  0  0  0  0  0  0  0
    3.6741   17.8001    1.6239 H   0  0  0  0  0  0  0  0  0  0  0  0
    4.1336   16.6239    0.3464 H   0  0  0  0  0  0  0  0  0  0  0  0
    4.8448   18.2734    0.3464 H   0  0  0  0  0  0  0  0  0  0  0  0
    3.2043   18.4481   -1.2932 H   0  0  0  0  0  0  0  0  0  0  0  0
    2.8379   19.9318    0.9523 H   0  0  0  0  0  0  0  0  0  0  0  0
    1.8625   20.0932   -0.5859 H   0  0  0  0  0  0  0  0  0  0  0  0
    0.6177   18.0940    0.9991 H   0  0  0  0  0  0  0  0  0  0  0  0
    0.9643   19.5147    2.0708 H   0  0  0  0  0  0  0  0  0  0  0  0
    0.3298   20.4485   -0.2522 H   0  0  0  0  0  0  0  0  0  0  0  0
   -2.0168   17.8382    1.7892 H   0  0  0  0  0  0  0  0  0  0  0  0
   -2.9841   17.5955    0.2952 H   0  0  0  0  0  0  0  0  0  0  0  0
   -1.2251   17.2317    0.2952 H   0  0  0  0  0  0  0  0  0  0  0  0
   -3.4528   20.4381   -0.2196 H   0  0  0  0  0  0  0  0  0  0  0  0
   -2.0827   20.6186   -1.3671 H   0  0  0  0  0  0  0  0  0  0  0  0
   -3.0618   19.1126   -1.3671 H   0  0  0  0  0  0  0  0  0  0  0  0
    1.5827   16.8242    0.5831 H   0  0  0  0  0  0  0  0  0  0  0  0
   -0.2965   17.8682   -0.5191 H   0  0  0  0  0  0  0  0  0  0  0  0
    0.7093   18.4266   -1.8733 H   0  0  0  0  0  0  0  0  0  0  0  0
   -1.0983   16.2140   -1.9488 H   0  0  0  0  0  0  0  0  0  0  0  0
    0.1486   16.5117   -3.1570 H   0  0  0  0  0  0  0  0  0  0  0  0
    0.5677   15.0340    0.6446 H   0  0  0  0  0  0  0  0  0  0  0  0
   -0.9916   15.1940   -0.2326 H   0  0  0  0  0  0  0  0  0  0  0  0
   -0.1181   13.6244   -0.2326 H   0  0  0  0  0  0  0  0  0  0  0  0
    1.3712   14.4379   -3.4088 H   0  0  0  0  0  0  0  0  0  0  0  0
   -1.1377   14.0235   -2.9846 H   0  0  0  0  0  0  0  0  0  0  0  0
   -0.1286   12.8344   -3.9629 H   0  0  0  0  0  0  0  0  0  0  0  0
   -1.8371   11.7840   -2.2545 H   0  0  0  0  0  0  0  0  0  0  0  0
    1.4991   12.3713   -0.0562 H   0  0  0  0  0  0  0  0  0  0  0  0
    2.2145   10.0243   -1.9194 H   0  0  0  0  0  0  0  0  0  0  0  0
    3.2914   10.7985   -0.6736 H   0  0  0  0  0  0  0  0  0  0  0  0
    2.3529    8.6464    0.1067 H   0  0  0  0  0  0  0  0  0  0  0  0
    1.8192   10.0540    1.1066 H   0  0  0  0  0  0  0  0  0  0  0  0
   -0.0652    8.6145    0.7350 H   0  0  0  0  0  0  0  0  0  0  0  0
   -0.7340    8.3890   -1.5920 H   0  0  0  0  0  0  0  0  0  0  0  0
   -0.6252   10.3373    1.9451 H   0  0  0  0  0  0  0  0  0  0  0  0
   -0.0558   11.9017    1.2706 H   0  0  0  0  0  0  0  0  0  0  0  0
   -1.8085   11.5084    1.2706 H   0  0  0  0  0  0  0  0  0  0  0  0
   -2.6486    9.7354    0.2819 H   0  0  0  0  0  0  0  0  0  0  0  0
   -2.5713   10.7147   -1.2221 H   0  0  0  0  0  0  0  0  0  0  0  0
   -1.9753    9.0201   -1.2221 H   0  0  0  0  0  0  0  0  0  0  0  0
    3.1193   11.2667   -3.0376 H   0  0  0  0  0  0  0  0  0  0  0  0
    1.6597   11.8283   -3.9213 H   0  0  0  0  0  0  0  0  0  0  0  0
    3.1506   12.8303   -3.9213 H   0  0  0  0  0  0  0  0  0  0  0  0
    3.7955   12.8086   -0.7671 H   0  0  0  0  0  0  0  0  0  0  0  0
    3.9025   13.9105   -2.2534 H   0  0  0  0  0  0  0  0  0  0  0  0
    2.5715   14.5123    0.4019 H   0  0  0  0  0  0  0  0  0  0  0  0
    4.0296   15.2891   -0.3314 H   0  0  0  0  0  0  0  0  0  0  0  0
    3.8292   16.8383   -2.2713 H   0  0  0  0  0  0  0  0  0  0  0  0
    3.2071   15.4030   -3.1542 H   0  0  0  0  0  0  0  0  0  0  0  0
    2.2678   16.9341   -3.1542 H   0  0  0  0  0  0  0  0  0  0  0  0
  1  2  1  0
  2  3  1  0
  3  4  1  0
  4  5  1  0
  5  6  1  0
  6  7  1  0
  7  8  1  0
  7  9  1  0
  2 10  1  0
 10 11  1  0
 11 12  1  0
 12 13  1  0
 13 14  1  1
 13 15  1  0
 15 16  1  0
 16 17  1  0
 17 18  2  0
 18 19  1  0
 19 20  1  0
 20 21  1  0
 21 22  1  0
 22 23  1  0
 22 24  1  0
 24 25  1  0
 24 26  1  0
 19 27  1  0
 27 28  1  6
 27 29  1  0
 29 30  1  0
 30 31  1  0
 31 32  1  6
  7  5  1  0
 31 10  1  0
 31 13  1  0
 27 15  1  0
 24 18  1  0
  1 33  1  0
  1 34  1  0
  1 35  1  0
  2 36  1  6
  3 37  1  0
  3 38  1  0
  4 39  1  0
  4 40  1  0
  5 41  1  6
  8 42  1  0
  8 43  1  0
  8 44  1  0
  9 45  1  0
  9 46  1  0
  9 47  1  0
 10 48  1  1
 11 49  1  0
 11 50  1  0
 12 51  1  0
 12 52  1  0
 14 53  1  0
 14 54  1  0
 14 55  1  0
 15 56  1  6
 16 57  1  0
 16 58  1  0
 17 59  1  0
 19 60  1  1
 20 61  1  0
 20 62  1  0
 21 63  1  0
 21 64  1  0
 22 65  1  1
 23 66  1  0
 25 67  1  0
 25 68  1  0
 25 69  1  0
 26 70  1  0
 26 71  1  0
 26 72  1  0
 28 73  1  0
 28 74  1  0
 28 75  1  0
 29 76  1  0
 29 77  1  0
 30 78  1  0
 30 79  1  0
 32 80  1  0
 32 81  1  0
 32 82  1  0
M  END
>  <meeko>  (5) 
{"is_sidechain": [false], "intermolecular_energy": 2.731, "internal_energy": -0.839}

$$$$
EPH_relaxed_0001_pdb2pqr_Repair_368_r2_0001_out
     RDKit          3D

 82 86  0  0  0  0  0  0  0  0999 V2000
    0.4010    8.7980   -2.3400 C   0  0  0  0  0  0  0  0  0  0  0  0
    1.1370    9.9350   -3.0530 C   0  0  2  0  0  0  0  0  0  0  0  0
    2.6420    9.9530   -2.7180 C   0  0  0  0  0  0  0  0  0  0  0  0
    3.5090   10.5830   -3.8110 C   0  0  0  0  0  0  0  0  0  0  0  0
    4.9070   10.8340   -3.3330 C   0  0  2  0  0  0  0  0  0  0  0  0
    5.5050   12.0360   -3.8360 O   0  0  0  0  0  0  0  0  0  0  0  0
    6.1200   10.8040   -4.2440 C   0  0  0  0  0  0  0  0  0  0  0  0
    5.9910   10.5140   -5.7070 C   0  0  0  0  0  0  0  0  0  0  0  0
    7.4680   10.5720   -3.6340 C   0  0  0  0  0  0  0  0  0  0  0  0
    0.5060   11.2730   -2.6880 C   0  0  1  0  0  0  0  0  0  0  0  0
   -0.8690   11.1130   -1.9860 C   0  0  0  0  0  0  0  0  0  0  0  0
   -0.9750   12.2570   -0.9450 C   0  0  0  0  0  0  0  0  0  0  0  0
    0.1770   13.2230   -1.3070 C   0  0  1  0  0  0  0  0  0  0  0  0
   -0.3730   14.0790   -2.4900 C   0  0  0  0  0  0  0  0  0  0  0  0
    0.7170   14.1210   -0.1470 C   0  0  2  0  0  0  0  0  0  0  0  0
   -0.3070   15.1050    0.4470 C   0  0  0  0  0  0  0  0  0  0  0  0
   -0.3470   16.4500   -0.1990 C   0  0  0  0  0  0  0  0  0  0  0  0
    0.5940   16.9520   -1.0210 C   0  0  0  0  0  0  0  0  0  0  0  0
    1.8900   16.1800   -1.2970 C   0  0  1  0  0  0  0  0  0  0  0  0
    3.1010   17.1420   -1.1760 C   0  0  0  0  0  0  0  0  0  0  0  0
    2.9580   18.3770   -2.0590 C   0  0  0  0  0  0  0  0  0  0  0  0
    1.6870   19.1500   -1.7140 C   0  0  2  0  0  0  0  0  0  0  0  0
    1.8210   19.6930   -0.3970 O   0  0  0  0  0  0  0  0  0  0  0  0
    0.4010   18.2800   -1.7930 C   0  0  0  0  0  0  0  0  0  0  0  0
    0.0920   17.9420   -3.2720 C   0  0  0  0  0  0  0  0  0  0  0  0
   -0.7880   19.1390   -1.2860 C   0  0  0  0  0  0  0  0  0  0  0  0
    2.0900   14.8390   -0.4670 C   0  0  1  0  0  0  0  0  0  0  0  0
    2.7570   15.1580    0.9050 C   0  0  0  0  0  0  0  0  0  0  0  0
    3.0900   13.9000   -1.2400 C   0  0  0  0  0  0  0  0  0  0  0  0
    2.4820   12.9510   -2.2900 C   0  0  0  0  0  0  0  0  0  0  0  0
    1.2880   12.1850   -1.7100 C   0  0  2  0  0  0  0  0  0  0  0  0
    1.8150   11.2980   -0.5320 C   0  0  0  0  0  0  0  0  0  0  0  0
    0.4872    8.9312   -1.2515 H   0  0  0  0  0  0  0  0  0  0  0  0
   -0.6605    8.8109   -2.6280 H   0  0  0  0  0  0  0  0  0  0  0  0
    0.8474    7.8348   -2.6280 H   0  0  0  0  0  0  0  0  0  0  0  0
    1.0419    9.7626   -4.1352 H   0  0  0  0  0  0  0  0  0  0  0  0
    2.7841   10.5252   -1.7893 H   0  0  0  0  0  0  0  0  0  0  0  0
    2.9615    8.9051   -2.6189 H   0  0  0  0  0  0  0  0  0  0  0  0
    3.5442    9.9026   -4.6746 H   0  0  0  0  0  0  0  0  0  0  0  0
    3.0626   11.5493   -4.0887 H   0  0  0  0  0  0  0  0  0  0  0  0
    4.6926   10.3418   -2.3729 H   0  0  0  0  0  0  0  0  0  0  0  0
    5.5475    9.5169   -5.8454 H   0  0  0  0  0  0  0  0  0  0  0  0
    5.3447   11.2710   -6.1753 H   0  0  0  0  0  0  0  0  0  0  0  0
    6.9860   10.5410   -6.1753 H   0  0  0  0  0  0  0  0  0  0  0  0
    7.3817   10.5868   -2.5375 H   0  0  0  0  0  0  0  0  0  0  0  0
    7.8538    9.5942   -3.9582 H   0  0  0  0  0  0  0  0  0  0  0  0
    8.1585   11.3645   -3.9582 H   0  0  0  0  0  0  0  0  0  0  0  0
    0.4670   11.7365   -3.6848 H   0  0  0  0  0  0  0  0  0  0  0  0
   -1.6821   11.1943   -2.7224 H   0  0  0  0  0  0  0  0  0  0  0  0
   -0.9533   10.1290   -1.5017 H   0  0  0  0  0  0  0  0  0  0  0  0
   -1.9473   12.7653   -1.0245 H   0  0  0  0  0  0  0  0  0  0  0  0
   -0.9004   11.8882    0.0886 H   0  0  0  0  0  0  0  0  0  0  0  0
   -0.9273   14.9417   -2.0917 H   0  0  0  0  0  0  0  0  0  0  0  0
    0.4659   14.4349   -3.1061 H   0  0  0  0  0  0  0  0  0  0  0  0
   -1.0453   13.4639   -3.1061 H   0  0  0  0  0  0  0  0  0  0  0  0
    0.9196   13.3853    0.6453 H   0  0  0  0  0  0  0  0  0  0  0  0
   -1.3058   14.6535    0.3543 H   0  0  0  0  0  0  0  0  0  0  0  0
    0.0038   15.2764    1.4882 H   0  0  0  0  0  0  0  0  0  0  0  0
   -1.2194   17.0851    0.0146 H   0  0  0  0  0  0  0  0  0  0  0  0
    1.8088   15.8094   -2.3295 H   0  0  0  0  0  0  0  0  0  0  0  0
    3.1905   17.4660   -0.1286 H   0  0  0  0  0  0  0  0  0  0  0  0
    3.9957   16.5956   -1.5090 H   0  0  0  0  0  0  0  0  0  0  0  0
    3.8294   19.0309   -1.9074 H   0  0  0  0  0  0  0  0  0  0  0  0
    2.8982   18.0533   -3.1086 H   0  0  0  0  0  0  0  0  0  0  0  0
    1.5722   19.9479   -2.4624 H   0  0  0  0  0  0  0  0  0  0  0  0
    0.9710   19.5710    0.0590 H   0  0  0  0  0  0  0  0  0  0  0  0
   -0.6496   17.1308   -3.3155 H   0  0  0  0  0  0  0  0  0  0  0  0
   -0.3098   18.8336   -3.7756 H   0  0  0  0  0  0  0  0  0  0  0  0
    1.0159   17.6215   -3.7756 H   0  0  0  0  0  0  0  0  0  0  0  0
   -0.7943   19.1435   -0.1860 H   0  0  0  0  0  0  0  0  0  0  0  0
   -0.6803   20.1692   -1.6563 H   0  0  0  0  0  0  0  0  0  0  0  0
   -1.7322   18.7131   -1.6563 H   0  0  0  0  0  0  0  0  0  0  0  0
    2.0903   14.8391    1.7198 H   0  0  0  0  0  0  0  0  0  0  0  0
    3.7132   14.6198    0.9818 H   0  0  0  0  0  0  0  0  0  0  0  0
    2.9382   16.2402    0.9818 H   0  0  0  0  0  0  0  0  0  0  0  0
    3.8191   14.5427   -1.7551 H   0  0  0  0  0  0  0  0  0  0  0  0
    3.5185   13.2409   -0.4706 H   0  0  0  0  0  0  0  0  0  0  0  0
    2.1455   13.5402   -3.1558 H   0  0  0  0  0  0  0  0  0  0  0  0
    3.2506   12.2251   -2.5940 H   0  0  0  0  0  0  0  0  0  0  0  0
    1.5399   11.7610    0.4271 H   0  0  0  0  0  0  0  0  0  0  0  0
    1.3655   10.2962   -0.5978 H   0  0  0  0  0  0  0  0  0  0  0  0
    2.9098   11.2137   -0.5978 H   0  0  0  0  0  0  0  0  0  0  0  0
  1  2  1  0
  2  3  1  0
  3  4  1  0
  4  5  1  0
  5  6  1  0
  6  7  1  0
  7  8  1  0
  7  9  1  0
  2 10  1  0
 10 11  1  0
 11 12  1  0
 12 13  1  0
 13 14  1  6
 13 15  1  0
 15 16  1  0
 16 17  1  0
 17 18  2  0
 18 19  1  0
 19 20  1  0
 20 21  1  0
 21 22  1  0
 22 23  1  0
 22 24  1  0
 24 25  1  0
 24 26  1  0
 19 27  1  0
 27 28  1  1
 27 29  1  0
 29 30  1  0
 30 31  1  0
 31 32  1  1
  7  5  1  0
 31 10  1  0
 31 13  1  0
 27 15  1  0
 24 18  1  0
  1 33  1  0
  1 34  1  0
  1 35  1  0
  2 36  1  6
  3 37  1  0
  3 38  1  0
  4 39  1  0
  4 40  1  0
  5 41  1  1
  8 42  1  0
  8 43  1  0
  8 44  1  0
  9 45  1  0
  9 46  1  0
  9 47  1  0
 10 48  1  6
 11 49  1  0
 11 50  1  0
 12 51  1  0
 12 52  1  0
 14 53  1  0
 14 54  1  0
 14 55  1  0
 15 56  1  1
 16 57  1  0
 16 58  1  0
 17 59  1  0
 19 60  1  6
 20 61  1  0
 20 62  1  0
 21 63  1  0
 21 64  1  0
 22 65  1  6
 23 66  1  0
 25 67  1  0
 25 68  1  0
 25 69  1  0
 26 70  1  0
 26 71  1  0
 26 72  1  0
 28 73  1  0
 28 74  1  0
 28 75  1  0
 29 76  1  0
 29 77  1  0
 30 78  1  0
 30 79  1  0
 32 80  1  0
 32 81  1  0
 32 82  1  0
M  END
>  <meeko>  (6) 
{"is_sidechain": [false], "intermolecular_energy": 2.731, "internal_energy": -0.839}

$$$$
EPH_relaxed_0001_pdb2pqr_Repair_368_r2_0001_out
     RDKit          3D

 82 86  0  0  0  0  0  0  0  0999 V2000
    2.4350   19.5480   -0.9000 C   0  0  0  0  0  0  0  0  0  0  0  0
    2.3380   18.5710   -2.0760 C   0  0  2  0  0  0  0  0  0  0  0  0
    0.9420   18.5890   -2.7310 C   0  0  0  0  0  0  0  0  0  0  0  0
    0.0400   19.7190   -2.2280 C   0  0  0  0  0  0  0  0  0  0  0  0
   -1.1800   19.1890   -1.5380 C   0  0  2  0  0  0  0  0  0  0  0  0
   -2.1010   20.1940   -1.0950 O   0  0  0  0  0  0  0  0  0  0  0  0
   -1.4720   19.4130   -0.0660 C   0  0  0  0  0  0  0  0  0  0  0  0
   -0.5380   20.1940    0.8050 C   0  0  0  0  0  0  0  0  0  0  0  0
   -2.4030   18.4700    0.6300 C   0  0  0  0  0  0  0  0  0  0  0  0
    2.6760   17.1600   -1.6090 C   0  0  1  0  0  0  0  0  0  0  0  0
    3.4370   17.1450   -0.2560 C   0  0  0  0  0  0  0  0  0  0  0  0
    2.9630   15.8830    0.5090 C   0  0  0  0  0  0  0  0  0  0  0  0
    2.2080   15.0450   -0.5490 C   0  0  1  0  0  0  0  0  0  0  0  0
    3.3270   14.2990   -1.3420 C   0  0  0  0  0  0  0  0  0  0  0  0
    1.1280   14.0550   -0.0050 C   0  0  2  0  0  0  0  0  0  0  0  0
    1.6650   12.9430    0.9130 C   0  0  0  0  0  0  0  0  0  0  0  0
    2.0660   11.6830    0.2200 C   0  0  0  0  0  0  0  0  0  0  0  0
    1.7370   11.3440   -1.0410 C   0  0  0  0  0  0  0  0  0  0  0  0
    0.7990   12.2280   -1.8740 C   0  0  1  0  0  0  0  0  0  0  0  0
   -0.2710   11.3410   -2.5640 C   0  0  0  0  0  0  0  0  0  0  0  0
    0.3460   10.2100   -3.3820 C   0  0  0  0  0  0  0  0  0  0  0  0
    1.2240    9.3200   -2.5070 C   0  0  2  0  0  0  0  0  0  0  0  0
    0.3930    8.6370   -1.5630 O   0  0  0  0  0  0  0  0  0  0  0  0
    2.3340   10.1060   -1.7530 C   0  0  0  0  0  0  0  0  0  0  0  0
    3.4030   10.5930   -2.7610 C   0  0  0  0  0  0  0  0  0  0  0  0
    3.0560    9.1160   -0.7990 C   0  0  0  0  0  0  0  0  0  0  0  0
    0.1640   13.4720   -1.1160 C   0  0  1  0  0  0  0  0  0  0  0  0
   -1.1460   13.0400   -0.3880 C   0  0  0  0  0  0  0  0  0  0  0  0
   -0.2550   14.5600   -2.1750 C   0  0  0  0  0  0  0  0  0  0  0  0
    0.8220   15.5830   -2.5840 C   0  0  0  0  0  0  0  0  0  0  0  0
    1.4930   16.1940   -1.3500 C   0  0  2  0  0  0  0  0  0  0  0  0
    0.3970   16.9710   -0.5440 C   0  0  0  0  0  0  0  0  0  0  0  0
    2.3796   18.9896    0.0461 H   0  0  0  0  0  0  0  0  0  0  0  0
    3.3913   20.0892   -0.9509 H   0  0  0  0  0  0  0  0  0  0  0  0
    1.6038   20.2667   -0.9509 H   0  0  0  0  0  0  0  0  0  0  0  0
    3.0642   18.8945   -2.8363 H   0  0  0  0  0  0  0  0  0  0  0  0
    1.0698   18.7043   -3.8175 H   0  0  0  0  0  0  0  0  0  0  0  0
    0.4498   17.6422   -2.4641 H   0  0  0  0  0  0  0  0  0  0  0  0
    0.6082   20.3404   -1.5202 H   0  0  0  0  0  0  0  0  0  0  0  0
   -0.2867   20.3094   -3.0967 H   0  0  0  0  0  0  0  0  0  0  0  0
   -1.1643   18.2798   -2.1570 H   0  0  0  0  0  0  0  0  0  0  0  0
   -0.7721   19.9982    1.8618 H   0  0  0  0  0  0  0  0  0  0  0  0
    0.4984   19.8898    0.5966 H   0  0  0  0  0  0  0  0  0  0  0  0
   -0.6539   21.2678    0.5966 H   0  0  0  0  0  0  0  0  0  0  0  0
   -2.2923   18.5822    1.7186 H   0  0  0  0  0  0  0  0  0  0  0  0
   -3.4396   18.6984    0.3414 H   0  0  0  0  0  0  0  0  0  0  0  0
   -2.1613   17.4364    0.3414 H   0  0  0  0  0  0  0  0  0  0  0  0
    3.2610   16.8145   -2.4741 H   0  0  0  0  0  0  0  0  0  0  0  0
    4.5217   17.0963   -0.4319 H   0  0  0  0  0  0  0  0  0  0  0  0
    3.2325   18.0579    0.3226 H   0  0  0  0  0  0  0  0  0  0  0  0
    3.8231   15.3236    0.9057 H   0  0  0  0  0  0  0  0  0  0  0  0
    2.3293   16.1327    1.3727 H   0  0  0  0  0  0  0  0  0  0  0  0
    4.0281   13.8316   -0.6349 H   0  0  0  0  0  0  0  0  0  0  0  0
    2.8725   13.5226   -1.9749 H   0  0  0  0  0  0  0  0  0  0  0  0
    3.8689   15.0172   -1.9749 H   0  0  0  0  0  0  0  0  0  0  0  0
    0.5167   14.7045    0.6388 H   0  0  0  0  0  0  0  0  0  0  0  0
    2.5459   13.3350    1.4424 H   0  0  0  0  0  0  0  0  0  0  0  0
    0.8343   12.6720    1.5812 H   0  0  0  0  0  0  0  0  0  0  0  0
    2.6828   10.9708    0.7878 H   0  0  0  0  0  0  0  0  0  0  0  0
    1.4309   12.7103   -2.6343 H   0  0  0  0  0  0  0  0  0  0  0  0
   -0.9190   10.9037   -1.7901 H   0  0  0  0  0  0  0  0  0  0  0  0
   -0.8404   11.9806   -3.2545 H   0  0  0  0  0  0  0  0  0  0  0  0
   -0.4592    9.6020   -3.8202 H   0  0  0  0  0  0  0  0  0  0  0  0
    0.9705   10.6496   -4.1736 H   0  0  0  0  0  0  0  0  0  0  0  0
    1.7381    8.6093   -3.1708 H   0  0  0  0  0  0  0  0  0  0  0  0
    0.8980    7.8790   -1.2210 H   0  0  0  0  0  0  0  0  0  0  0  0
    4.2708   10.9883   -2.2127 H   0  0  0  0  0  0  0  0  0  0  0  0
    3.7213    9.7510   -3.3933 H   0  0  0  0  0  0  0  0  0  0  0  0
    2.9766   11.3857   -3.3933 H   0  0  0  0  0  0  0  0  0  0  0  0
    2.8511    9.3970    0.2446 H   0  0  0  0  0  0  0  0  0  0  0  0
    2.6885    8.0956   -0.9829 H   0  0  0  0  0  0  0  0  0  0  0  0
    4.1399    9.1541   -0.9829 H   0  0  0  0  0  0  0  0  0  0  0  0
   -0.9942   13.0900    0.7003 H   0  0  0  0  0  0  0  0  0  0  0  0
   -1.9651   13.7156   -0.6755 H   0  0  0  0  0  0  0  0  0  0  0  0
   -1.4025   12.0097   -0.6755 H   0  0  0  0  0  0  0  0  0  0  0  0
   -0.5753   14.0322   -3.0854 H   0  0  0  0  0  0  0  0  0  0  0  0
   -1.0417   15.1515   -1.6838 H   0  0  0  0  0  0  0  0  0  0  0  0
    1.5844   15.0782   -3.1955 H   0  0  0  0  0  0  0  0  0  0  0  0
    0.3410   16.3891   -3.1575 H   0  0  0  0  0  0  0  0  0  0  0  0
    0.5758   16.8443    0.5340 H   0  0  0  0  0  0  0  0  0  0  0  0
    0.4423   18.0398   -0.8000 H   0  0  0  0  0  0  0  0  0  0  0  0
   -0.5966   16.5744   -0.8000 H   0  0  0  0  0  0  0  0  0  0  0  0
  1  2  1  0
  2  3  1  0
  3  4  1  0
  4  5  1  0
  5  6  1  0
  6  7  1  0
  7  8  1  0
  7  9  1  0
  2 10  1  0
 10 11  1  0
 11 12  1  0
 12 13  1  0
 13 14  1  6
 13 15  1  0
 15 16  1  0
 16 17  1  0
 17 18  2  0
 18 19  1  0
 19 20  1  0
 20 21  1  0
 21 22  1  0
 22 23  1  0
 22 24  1  0
 24 25  1  0
 24 26  1  0
 19 27  1  0
 27 28  1  1
 27 29  1  0
 29 30  1  0
 30 31  1  0
 31 32  1  1
  7  5  1  0
 31 10  1  0
 31 13  1  0
 27 15  1  0
 24 18  1  0
  1 33  1  0
  1 34  1  0
  1 35  1  0
  2 36  1  6
  3 37  1  0
  3 38  1  0
  4 39  1  0
  4 40  1  0
  5 41  1  6
  8 42  1  0
  8 43  1  0
  8 44  1  0
  9 45  1  0
  9 46  1  0
  9 47  1  0
 10 48  1  6
 11 49  1  0
 11 50  1  0
 12 51  1  0
 12 52  1  0
 14 53  1  0
 14 54  1  0
 14 55  1  0
 15 56  1  1
 16 57  1  0
 16 58  1  0
 17 59  1  0
 19 60  1  6
 20 61  1  0
 20 62  1  0
 21 63  1  0
 21 64  1  0
 22 65  1  6
 23 66  1  0
 25 67  1  0
 25 68  1  0
 25 69  1  0
 26 70  1  0
 26 71  1  0
 26 72  1  0
 28 73  1  0
 28 74  1  0
 28 75  1  0
 29 76  1  0
 29 77  1  0
 30 78  1  0
 30 79  1  0
 32 80  1  0
 32 81  1  0
 32 82  1  0
M  END
>  <meeko>  (7) 
{"is_sidechain": [false], "intermolecular_energy": 2.731, "internal_energy": -0.839}

$$$$
EPH_relaxed_0001_pdb2pqr_Repair_368_r2_0001_out
     RDKit          3D

 82 86  0  0  0  0  0  0  0  0999 V2000
    1.6490   19.7520   -2.0500 C   0  0  0  0  0  0  0  0  0  0  0  0
    1.4220   19.5680   -0.5470 C   0  0  2  0  0  0  0  0  0  0  0  0
    2.6480   19.9970    0.2830 C   0  0  0  0  0  0  0  0  0  0  0  0
    3.0940   18.9520    1.3080 C   0  0  0  0  0  0  0  0  0  0  0  0
    4.4910   19.2060    1.7880 C   0  0  2  0  0  0  0  0  0  0  0  0
    5.0260   18.1870    2.6430 O   0  0  0  0  0  0  0  0  0  0  0  0
    4.8410   19.4810    3.2390 C   0  0  0  0  0  0  0  0  0  0  0  0
    3.7880   19.5170    4.3020 C   0  0  0  0  0  0  0  0  0  0  0  0
    6.1210   20.1940    3.5440 C   0  0  0  0  0  0  0  0  0  0  0  0
    1.0740   18.1140   -0.2480 C   0  0  1  0  0  0  0  0  0  0  0  0
   -0.2670   17.9670    0.5200 C   0  0  0  0  0  0  0  0  0  0  0  0
   -0.9310   16.6610    0.0140 C   0  0  0  0  0  0  0  0  0  0  0  0
    0.1850   15.9350   -0.7720 C   0  0  1  0  0  0  0  0  0  0  0  0
    1.0460   15.2230    0.3180 C   0  0  0  0  0  0  0  0  0  0  0  0
   -0.2860   14.9350   -1.8790 C   0  0  2  0  0  0  0  0  0  0  0  0
   -1.1050   13.7370   -1.3690 C   0  0  0  0  0  0  0  0  0  0  0  0
   -0.3090   12.5260   -1.0100 C   0  0  0  0  0  0  0  0  0  0  0  0
    0.9720   12.3010   -1.3570 C   0  0  0  0  0  0  0  0  0  0  0  0
    1.7230   13.2770   -2.2730 C   0  0  1  0  0  0  0  0  0  0  0  0
    2.4730   12.4810   -3.3730 C   0  0  0  0  0  0  0  0  0  0  0  0
    3.3850   11.4030   -2.7960 C   0  0  0  0  0  0  0  0  0  0  0  0
    2.5930   10.4190   -1.9390 C   0  0  2  0  0  0  0  0  0  0  0  0
    1.7010    9.6860   -2.7840 O   0  0  0  0  0  0  0  0  0  0  0  0
    1.7870   11.1080   -0.8020 C   0  0  0  0  0  0  0  0  0  0  0  0
    2.7620   11.6450    0.2760 C   0  0  0  0  0  0  0  0  0  0  0  0
    0.9240   10.0230   -0.1040 C   0  0  0  0  0  0  0  0  0  0  0  0
    0.8610   14.4730   -2.8660 C   0  0  1  0  0  0  0  0  0  0  0  0
    0.1600   14.0220   -4.1840 C   0  0  0  0  0  0  0  0  0  0  0  0
    1.8250   15.6550   -3.2590 C   0  0  0  0  0  0  0  0  0  0  0  0
    2.1580   16.6760   -2.1540 C   0  0  0  0  0  0  0  0  0  0  0  0
    0.8840   17.1650   -1.4580 C   0  0  2  0  0  0  0  0  0  0  0  0
    0.0080   17.9050   -2.5260 C   0  0  0  0  0  0  0  0  0  0  0  0
    2.4942   20.4371   -2.2120 H   0  0  0  0  0  0  0  0  0  0  0  0
    1.8735   18.7778   -2.5089 H   0  0  0  0  0  0  0  0  0  0  0  0
    0.7424   20.1733   -2.5089 H   0  0  0  0  0  0  0  0  0  0  0  0
    0.5836   20.2186   -0.2575 H   0  0  0  0  0  0  0  0  0  0  0  0
    3.4844   20.1867   -0.4058 H   0  0  0  0  0  0  0  0  0  0  0  0
    2.3559   20.8954    0.8466 H   0  0  0  0  0  0  0  0  0  0  0  0
    2.4102   18.9830    2.1691 H   0  0  0  0  0  0  0  0  0  0  0  0
    3.0727   17.9652    0.8225 H   0  0  0  0  0  0  0  0  0  0  0  0
    4.7393   19.7348    0.8559 H   0  0  0  0  0  0  0  0  0  0  0  0
    4.2662   19.5007    5.2925 H   0  0  0  0  0  0  0  0  0  0  0  0
    3.1926   20.4360    4.1974 H   0  0  0  0  0  0  0  0  0  0  0  0
    3.1313   18.6408    4.1974 H   0  0  0  0  0  0  0  0  0  0  0  0
    6.2500   20.2658    4.6341 H   0  0  0  0  0  0  0  0  0  0  0  0
    6.9640   19.6355    3.1111 H   0  0  0  0  0  0  0  0  0  0  0  0
    6.0899   21.2047    3.1111 H   0  0  0  0  0  0  0  0  0  0  0  0
    1.9691   17.8230    0.3213 H   0  0  0  0  0  0  0  0  0  0  0  0
   -0.0788   17.9018    1.6018 H   0  0  0  0  0  0  0  0  0  0  0  0
   -0.9195   18.8352    0.3454 H   0  0  0  0  0  0  0  0  0  0  0  0
   -1.2731   16.0464    0.8597 H   0  0  0  0  0  0  0  0  0  0  0  0
   -1.8180   16.8573   -0.6063 H   0  0  0  0  0  0  0  0  0  0  0  0
    0.6901   15.5173    1.3164 H   0  0  0  0  0  0  0  0  0  0  0  0
    0.9549   14.1328    0.2029 H   0  0  0  0  0  0  0  0  0  0  0  0
    2.0997   15.5171    0.2029 H   0  0  0  0  0  0  0  0  0  0  0  0
   -0.9855   15.5467   -2.4676 H   0  0  0  0  0  0  0  0  0  0  0  0
   -1.6564   14.0590   -0.4733 H   0  0  0  0  0  0  0  0  0  0  0  0
   -1.7560   13.4366   -2.2032 H   0  0  0  0  0  0  0  0  0  0  0  0
   -0.8118   11.7522   -0.4113 H   0  0  0  0  0  0  0  0  0  0  0  0
    2.4472   13.8007   -1.6317 H   0  0  0  0  0  0  0  0  0  0  0  0
    1.7314   12.0015   -4.0289 H   0  0  0  0  0  0  0  0  0  0  0  0
    3.1045   13.1911   -3.9271 H   0  0  0  0  0  0  0  0  0  0  0  0
    3.8637   10.8566   -3.6220 H   0  0  0  0  0  0  0  0  0  0  0  0
    4.1440   11.8870   -2.1638 H   0  0  0  0  0  0  0  0  0  0  0  0
    3.3169    9.7504   -1.4502 H   0  0  0  0  0  0  0  0  0  0  0  0
    1.0210    9.2840   -2.2170 H   0  0  0  0  0  0  0  0  0  0  0  0
    2.3607   11.4240    1.2761 H   0  0  0  0  0  0  0  0  0  0  0  0
    3.7420   11.1594    0.1586 H   0  0  0  0  0  0  0  0  0  0  0  0
    2.8754   12.7328    0.1586 H   0  0  0  0  0  0  0  0  0  0  0  0
    1.0105   10.1317    0.9872 H   0  0  0  0  0  0  0  0  0  0  0  0
   -0.1279   10.1433   -0.4023 H   0  0  0  0  0  0  0  0  0  0  0  0
    1.2779    9.0251   -0.4023 H   0  0  0  0  0  0  0  0  0  0  0  0
   -0.7420   13.4417   -3.9396 H   0  0  0  0  0  0  0  0  0  0  0  0
   -0.1222   14.9084   -4.7711 H   0  0  0  0  0  0  0  0  0  0  0  0
    0.8497   13.3978   -4.7711 H   0  0  0  0  0  0  0  0  0  0  0  0
    2.7726   15.2124   -3.5998 H   0  0  0  0  0  0  0  0  0  0  0  0
    1.2817   16.2271   -4.0255 H   0  0  0  0  0  0  0  0  0  0  0  0
    2.8144   16.2004   -1.4104 H   0  0  0  0  0  0  0  0  0  0  0  0
    2.6602   17.5398   -2.6141 H   0  0  0  0  0  0  0  0  0  0  0  0
   -0.7369   18.5343   -2.0170 H   0  0  0  0  0  0  0  0  0  0  0  0
    0.6526   18.5362   -3.1554 H   0  0  0  0  0  0  0  0  0  0  0  0
   -0.5066   17.1640   -3.1554 H   0  0  0  0  0  0  0  0  0  0  0  0
  1  2  1  0
  2  3  1  0
  3  4  1  0
  4  5  1  0
  5  6  1  0
  6  7  1  0
  7  8  1  0
  7  9  1  0
  2 10  1  0
 10 11  1  0
 11 12  1  0
 12 13  1  0
 13 14  1  1
 13 15  1  0
 15 16  1  0
 16 17  1  0
 17 18  2  0
 18 19  1  0
 19 20  1  0
 20 21  1  0
 21 22  1  0
 22 23  1  0
 22 24  1  0
 24 25  1  0
 24 26  1  0
 19 27  1  0
 27 28  1  6
 27 29  1  0
 29 30  1  0
 30 31  1  0
 31 32  1  6
  7  5  1  0
 31 10  1  0
 31 13  1  0
 27 15  1  0
 24 18  1  0
  1 33  1  0
  1 34  1  0
  1 35  1  0
  2 36  1  1
  3 37  1  0
  3 38  1  0
  4 39  1  0
  4 40  1  0
  5 41  1  6
  8 42  1  0
  8 43  1  0
  8 44  1  0
  9 45  1  0
  9 46  1  0
  9 47  1  0
 10 48  1  1
 11 49  1  0
 11 50  1  0
 12 51  1  0
 12 52  1  0
 14 53  1  0
 14 54  1  0
 14 55  1  0
 15 56  1  6
 16 57  1  0
 16 58  1  0
 17 59  1  0
 19 60  1  1
 20 61  1  0
 20 62  1  0
 21 63  1  0
 21 64  1  0
 22 65  1  1
 23 66  1  0
 25 67  1  0
 25 68  1  0
 25 69  1  0
 26 70  1  0
 26 71  1  0
 26 72  1  0
 28 73  1  0
 28 74  1  0
 28 75  1  0
 29 76  1  0
 29 77  1  0
 30 78  1  0
 30 79  1  0
 32 80  1  0
 32 81  1  0
 32 82  1  0
M  END
>  <meeko>  (8) 
{"is_sidechain": [false], "intermolecular_energy": 2.731, "internal_energy": -0.839}

$$$$
EPH_relaxed_0001_pdb2pqr_Repair_368_r2_0001_out
     RDKit          3D

 82 86  0  0  0  0  0  0  0  0999 V2000
    0.9410   10.8380   -4.4930 C   0  0  0  0  0  0  0  0  0  0  0  0
    0.6960   10.3280   -3.0700 C   0  0  2  0  0  0  0  0  0  0  0  0
   -0.6670    9.6200   -2.9340 C   0  0  0  0  0  0  0  0  0  0  0  0
   -0.7590    8.6880   -1.7230 C   0  0  0  0  0  0  0  0  0  0  0  0
   -2.1520    8.6290   -1.1740 C   0  0  2  0  0  0  0  0  0  0  0  0
   -2.9060    9.8390   -1.3210 O   0  0  0  0  0  0  0  0  0  0  0  0
   -2.6140    9.4340    0.0270 C   0  0  0  0  0  0  0  0  0  0  0  0
   -1.6840   10.3570    0.7510 C   0  0  0  0  0  0  0  0  0  0  0  0
   -3.8130    8.9610    0.7880 C   0  0  0  0  0  0  0  0  0  0  0  0
    0.7830   11.4840   -2.0810 C   0  0  1  0  0  0  0  0  0  0  0  0
    1.7870   11.2110   -0.9300 C   0  0  0  0  0  0  0  0  0  0  0  0
    2.4440   12.5700   -0.5770 C   0  0  0  0  0  0  0  0  0  0  0  0
    1.5690   13.6240   -1.2950 C   0  0  1  0  0  0  0  0  0  0  0  0
    0.3400   13.8320   -0.3560 C   0  0  0  0  0  0  0  0  0  0  0  0
    2.2660   14.9800   -1.6420 C   0  0  2  0  0  0  0  0  0  0  0  0
    2.7560   15.7910   -0.4290 C   0  0  0  0  0  0  0  0  0  0  0  0
    1.7700   16.7630    0.1290 C   0  0  0  0  0  0  0  0  0  0  0  0
    0.6510   17.1830   -0.4890 C   0  0  0  0  0  0  0  0  0  0  0  0
    0.3330   16.7470   -1.9250 C   0  0  1  0  0  0  0  0  0  0  0  0
   -0.1040   17.9820   -2.7560 C   0  0  0  0  0  0  0  0  0  0  0  0
   -1.2560   18.7450   -2.1100 C   0  0  0  0  0  0  0  0  0  0  0  0
   -0.8800   19.2130   -0.7060 C   0  0  2  0  0  0  0  0  0  0  0  0
    0.1560   20.1940   -0.8080 O   0  0  0  0  0  0  0  0  0  0  0  0
   -0.4140   18.0550    0.2210 C   0  0  0  0  0  0  0  0  0  0  0  0
   -1.6220   17.1540    0.5760 C   0  0  0  0  0  0  0  0  0  0  0  0
    0.0690   18.6790    1.5580 C   0  0  0  0  0  0  0  0  0  0  0  0
    1.4530   15.8870   -2.6530 C   0  0  1  0  0  0  0  0  0  0  0  0
    2.4890   16.8310   -3.3360 C   0  0  0  0  0  0  0  0  0  0  0  0
    0.7880   15.0480   -3.8070 C   0  0  0  0  0  0  0  0  0  0  0  0
    0.2250   13.6650   -3.4260 C   0  0  0  0  0  0  0  0  0  0  0  0
    1.2520   12.8550   -2.6290 C   0  0  2  0  0  0  0  0  0  0  0  0
    2.4920   12.6120   -3.5560 C   0  0  0  0  0  0  0  0  0  0  0  0
    1.4170   11.8288   -4.4505 H   0  0  0  0  0  0  0  0  0  0  0  0
    1.6006   10.1369   -5.0253 H   0  0  0  0  0  0  0  0  0  0  0  0
   -0.0186   10.9147   -5.0253 H   0  0  0  0  0  0  0  0  0  0  0  0
    1.4773    9.5870   -2.8451 H   0  0  0  0  0  0  0  0  0  0  0  0
   -1.4493   10.3878   -2.8414 H   0  0  0  0  0  0  0  0  0  0  0  0
   -0.7954    8.9955   -3.8304 H   0  0  0  0  0  0  0  0  0  0  0  0
   -0.4527    7.6764   -2.0276 H   0  0  0  0  0  0  0  0  0  0  0  0
   -0.0969    9.0804   -0.9371 H   0  0  0  0  0  0  0  0  0  0  0  0
   -2.2271    7.5590   -1.4179 H   0  0  0  0  0  0  0  0  0  0  0  0
   -1.8122   10.2297    1.8361 H   0  0  0  0  0  0  0  0  0  0  0  0
   -0.6455   10.1223    0.4745 H   0  0  0  0  0  0  0  0  0  0  0  0
   -1.9109   11.3972    0.4745 H   0  0  0  0  0  0  0  0  0  0  0  0
   -3.6162    9.0386    1.8675 H   0  0  0  0  0  0  0  0  0  0  0  0
   -4.6816    9.5839    0.5279 H   0  0  0  0  0  0  0  0  0  0  0  0
   -4.0224    7.9129    0.5279 H   0  0  0  0  0  0  0  0  0  0  0  0
   -0.2713   11.5426   -1.7728 H   0  0  0  0  0  0  0  0  0  0  0  0
    1.2582   10.8072   -0.0541 H   0  0  0  0  0  0  0  0  0  0  0  0
    2.5445   10.4734   -1.2336 H   0  0  0  0  0  0  0  0  0  0  0  0
    2.4361   12.7344    0.5106 H   0  0  0  0  0  0  0  0  0  0  0  0
    3.4972   12.6183   -0.8906 H   0  0  0  0  0  0  0  0  0  0  0  0
    0.6665   13.7767    0.6930 H   0  0  0  0  0  0  0  0  0  0  0  0
   -0.1065   14.8185   -0.5496 H   0  0  0  0  0  0  0  0  0  0  0  0
   -0.4063   13.0474   -0.5496 H   0  0  0  0  0  0  0  0  0  0  0  0
    3.1741   14.6504   -2.1680 H   0  0  0  0  0  0  0  0  0  0  0  0
    3.0228   15.0819    0.3685 H   0  0  0  0  0  0  0  0  0  0  0  0
    3.6053   16.3912   -0.7874 H   0  0  0  0  0  0  0  0  0  0  0  0
    1.9756   17.1703    1.1299 H   0  0  0  0  0  0  0  0  0  0  0  0
   -0.5012   16.0340   -1.8485 H   0  0  0  0  0  0  0  0  0  0  0  0
    0.7556   18.6609   -2.8571 H   0  0  0  0  0  0  0  0  0  0  0  0
   -0.4514   17.6194   -3.7347 H   0  0  0  0  0  0  0  0  0  0  0  0
   -1.4994   19.6214   -2.7287 H   0  0  0  0  0  0  0  0  0  0  0  0
   -2.1244   18.0739   -2.0360 H   0  0  0  0  0  0  0  0  0  0  0  0
   -1.7848   19.6381   -0.2470 H   0  0  0  0  0  0  0  0  0  0  0  0
   -0.0130   20.7180   -1.6100 H   0  0  0  0  0  0  0  0  0  0  0  0
   -1.7175   17.0828    1.6695 H   0  0  0  0  0  0  0  0  0  0  0  0
   -2.5404   17.5895    0.1553 H   0  0  0  0  0  0  0  0  0  0  0  0
   -1.4664   16.1496    0.1553 H   0  0  0  0  0  0  0  0  0  0  0  0
   -0.3636   18.1201    2.4009 H   0  0  0  0  0  0  0  0  0  0  0  0
    1.1667   18.6298    1.6102 H   0  0  0  0  0  0  0  0  0  0  0  0
   -0.2538   19.7293    1.6102 H   0  0  0  0  0  0  0  0  0  0  0  0
    3.0684   17.3590   -2.5643 H   0  0  0  0  0  0  0  0  0  0  0  0
    3.1697   16.2361   -3.9628 H   0  0  0  0  0  0  0  0  0  0  0  0
    1.9598   17.5639   -3.9628 H   0  0  0  0  0  0  0  0  0  0  0  0
   -0.0415   15.6437   -4.2158 H   0  0  0  0  0  0  0  0  0  0  0  0
    1.6017   14.8413   -4.5177 H   0  0  0  0  0  0  0  0  0  0  0  0
   -0.6791   13.8007   -2.8144 H   0  0  0  0  0  0  0  0  0  0  0  0
   -0.0132   13.1170   -4.3495 H   0  0  0  0  0  0  0  0  0  0  0  0
    3.3841   12.4372   -2.9367 H   0  0  0  0  0  0  0  0  0  0  0  0
    2.3084   11.7328   -4.1910 H   0  0  0  0  0  0  0  0  0  0  0  0
    2.6538   13.4955   -4.1910 H   0  0  0  0  0  0  0  0  0  0  0  0
  1  2  1  0
  2  3  1  0
  3  4  1  0
  4  5  1  0
  5  6  1  0
  6  7  1  0
  7  8  1  0
  7  9  1  0
  2 10  1  0
 10 11  1  0
 11 12  1  0
 12 13  1  0
 13 14  1  1
 13 15  1  0
 15 16  1  0
 16 17  1  0
 17 18  2  0
 18 19  1  0
 19 20  1  0
 20 21  1  0
 21 22  1  0
 22 23  1  0
 22 24  1  0
 24 25  1  0
 24 26  1  0
 19 27  1  0
 27 28  1  6
 27 29  1  0
 29 30  1  0
 30 31  1  0
 31 32  1  6
  7  5  1  0
 31 10  1  0
 31 13  1  0
 27 15  1  0
 24 18  1  0
  1 33  1  0
  1 34  1  0
  1 35  1  0
  2 36  1  1
  3 37  1  0
  3 38  1  0
  4 39  1  0
  4 40  1  0
  5 41  1  1
  8 42  1  0
  8 43  1  0
  8 44  1  0
  9 45  1  0
  9 46  1  0
  9 47  1  0
 10 48  1  1
 11 49  1  0
 11 50  1  0
 12 51  1  0
 12 52  1  0
 14 53  1  0
 14 54  1  0
 14 55  1  0
 15 56  1  6
 16 57  1  0
 16 58  1  0
 17 59  1  0
 19 60  1  1
 20 61  1  0
 20 62  1  0
 21 63  1  0
 21 64  1  0
 22 65  1  1
 23 66  1  0
 25 67  1  0
 25 68  1  0
 25 69  1  0
 26 70  1  0
 26 71  1  0
 26 72  1  0
 28 73  1  0
 28 74  1  0
 28 75  1  0
 29 76  1  0
 29 77  1  0
 30 78  1  0
 30 79  1  0
 32 80  1  0
 32 81  1  0
 32 82  1  0
M  END
>  <meeko>  (9) 
{"is_sidechain": [false], "intermolecular_energy": 2.731, "internal_energy": -0.839}

$$$$
EPH_relaxed_0001_pdb2pqr_Repair_368_r2_0001_out
     RDKit          3D

 82 86  0  0  0  0  0  0  0  0999 V2000
    0.2080   17.8600   -2.5460 C   0  0  0  0  0  0  0  0  0  0  0  0
   -0.0580   16.9440   -1.3480 C   0  0  2  0  0  0  0  0  0  0  0  0
   -0.1350   17.7290   -0.0230 C   0  0  0  0  0  0  0  0  0  0  0  0
    0.4930   19.1230   -0.0950 C   0  0  0  0  0  0  0  0  0  0  0  0
    1.6600   19.2540    0.8360 C   0  0  2  0  0  0  0  0  0  0  0  0
    2.6580   20.1940    0.4170 O   0  0  0  0  0  0  0  0  0  0  0  0
    3.0680   18.8180    0.4790 C   0  0  0  0  0  0  0  0  0  0  0  0
    3.3850   18.2170   -0.8540 C   0  0  0  0  0  0  0  0  0  0  0  0
    4.0300   18.5260    1.5890 C   0  0  0  0  0  0  0  0  0  0  0  0
    1.0270   15.8770   -1.2590 C   0  0  1  0  0  0  0  0  0  0  0  0
    1.2560   15.3780    0.1930 C   0  0  0  0  0  0  0  0  0  0  0  0
    1.6040   13.8700    0.0980 C   0  0  0  0  0  0  0  0  0  0  0  0
    1.8890   13.6300   -1.4030 C   0  0  1  0  0  0  0  0  0  0  0  0
    3.3590   14.1110   -1.6150 C   0  0  0  0  0  0  0  0  0  0  0  0
    1.6800   12.1690   -1.9210 C   0  0  2  0  0  0  0  0  0  0  0  0
    2.5970   11.1120   -1.2810 C   0  0  0  0  0  0  0  0  0  0  0  0
    3.8910   10.8790   -1.9880 C   0  0  0  0  0  0  0  0  0  0  0  0
    4.1810   11.2780   -3.2400 C   0  0  0  0  0  0  0  0  0  0  0  0
    3.1200   11.9560   -4.1170 C   0  0  1  0  0  0  0  0  0  0  0  0
    3.1340   11.3200   -5.5320 C   0  0  0  0  0  0  0  0  0  0  0  0
    4.5190   11.3420   -6.1700 C   0  0  0  0  0  0  0  0  0  0  0  0
    5.5340   10.6080   -5.2970 C   0  0  2  0  0  0  0  0  0  0  0  0
    5.1990    9.2170   -5.2720 O   0  0  0  0  0  0  0  0  0  0  0  0
    5.6020   11.1560   -3.8440 C   0  0  0  0  0  0  0  0  0  0  0  0
    6.2510   12.5620   -3.8480 C   0  0  0  0  0  0  0  0  0  0  0  0
    6.5570   10.2390   -3.0330 C   0  0  0  0  0  0  0  0  0  0  0  0
    1.6590   12.0370   -3.4980 C   0  0  1  0  0  0  0  0  0  0  0  0
    0.8690   10.7330   -3.8250 C   0  0  0  0  0  0  0  0  0  0  0  0
    0.8740   13.2160   -4.1860 C   0  0  0  0  0  0  0  0  0  0  0  0
    1.0260   14.6140   -3.5570 C   0  0  0  0  0  0  0  0  0  0  0  0
    0.7960   14.5610   -2.0430 C   0  0  2  0  0  0  0  0  0  0  0  0
   -0.6820   14.1010   -1.8000 C   0  0  0  0  0  0  0  0  0  0  0  0
    0.4979   18.8585   -2.1869 H   0  0  0  0  0  0  0  0  0  0  0  0
    1.0211   17.4393   -3.1558 H   0  0  0  0  0  0  0  0  0  0  0  0
   -0.7040   17.9402   -3.1558 H   0  0  0  0  0  0  0  0  0  0  0  0
   -1.0365   16.4671   -1.5065 H   0  0  0  0  0  0  0  0  0  0  0  0
   -1.1938   17.8392    0.2541 H   0  0  0  0  0  0  0  0  0  0  0  0
    0.4372   17.1573    0.7225 H   0  0  0  0  0  0  0  0  0  0  0  0
    0.8355   19.3070   -1.1240 H   0  0  0  0  0  0  0  0  0  0  0  0
   -0.2686   19.8581    0.2043 H   0  0  0  0  0  0  0  0  0  0  0  0
    1.0201   19.0416    1.7052 H   0  0  0  0  0  0  0  0  0  0  0  0
    3.8938   17.2525   -0.7097 H   0  0  0  0  0  0  0  0  0  0  0  0
    2.4527   18.0593   -1.4162 H   0  0  0  0  0  0  0  0  0  0  0  0
    4.0416   18.8974   -1.4162 H   0  0  0  0  0  0  0  0  0  0  0  0
    3.5300   18.6778    2.5570 H   0  0  0  0  0  0  0  0  0  0  0  0
    4.3724   17.4834    1.5127 H   0  0  0  0  0  0  0  0  0  0  0  0
    4.8942   19.2023    1.5127 H   0  0  0  0  0  0  0  0  0  0  0  0
    1.8691   16.4330   -1.6968 H   0  0  0  0  0  0  0  0  0  0  0  0
    2.0868   15.9300    0.6567 H   0  0  0  0  0  0  0  0  0  0  0  0
    0.3608   15.5386    0.8117 H   0  0  0  0  0  0  0  0  0  0  0  0
    2.4920   13.6373    0.7041 H   0  0  0  0  0  0  0  0  0  0  0  0
    0.7935   13.2299    0.4766 H   0  0  0  0  0  0  0  0  0  0  0  0
    3.8381   14.2678   -0.6373 H   0  0  0  0  0  0  0  0  0  0  0  0
    3.9166   13.3485   -2.1785 H   0  0  0  0  0  0  0  0  0  0  0  0
    3.3580   15.0557   -2.1785 H   0  0  0  0  0  0  0  0  0  0  0  0
    0.6645   11.9369   -1.5675 H   0  0  0  0  0  0  0  0  0  0  0  0
    2.8239   11.4355   -0.2544 H   0  0  0  0  0  0  0  0  0  0  0  0
    2.0468   10.1608   -1.3314 H   0  0  0  0  0  0  0  0  0  0  0  0
    4.6738   10.3351   -1.4390 H   0  0  0  0  0  0  0  0  0  0  0  0
    3.4098   13.0152   -4.1819 H   0  0  0  0  0  0  0  0  0  0  0  0
    2.7992   10.2752   -5.4522 H   0  0  0  0  0  0  0  0  0  0  0  0
    2.4629   11.9128   -6.1709 H   0  0  0  0  0  0  0  0  0  0  0  0
    4.4699   10.8526   -7.1539 H   0  0  0  0  0  0  0  0  0  0  0  0
    4.8397   12.3888   -6.2766 H   0  0  0  0  0  0  0  0  0  0  0  0
    6.5282   10.7693   -5.7393 H   0  0  0  0  0  0  0  0  0  0  0  0
    4.2750    9.1420   -4.9810 H   0  0  0  0  0  0  0  0  0  0  0  0
    6.4058   12.8973   -2.8119 H   0  0  0  0  0  0  0  0  0  0  0  0
    7.2196   12.5173   -4.3675 H   0  0  0  0  0  0  0  0  0  0  0  0
    5.5886   13.2701   -4.3675 H   0  0  0  0  0  0  0  0  0  0  0  0
    6.3918   10.3976   -1.9571 H   0  0  0  0  0  0  0  0  0  0  0  0
    6.3558    9.1870   -3.2837 H   0  0  0  0  0  0  0  0  0  0  0  0
    7.6000   10.4827   -3.2837 H   0  0  0  0  0  0  0  0  0  0  0  0
    0.5705   10.2404   -2.8879 H   0  0  0  0  0  0  0  0  0  0  0  0
   -0.0286   10.9848   -4.4089 H   0  0  0  0  0  0  0  0  0  0  0  0
    1.5077   10.0540   -4.4089 H   0  0  0  0  0  0  0  0  0  0  0  0
    1.2188   13.2812   -5.2285 H   0  0  0  0  0  0  0  0  0  0  0  0
   -0.1894   12.9613   -4.0663 H   0  0  0  0  0  0  0  0  0  0  0  0
    2.0412   14.9890   -3.7540 H   0  0  0  0  0  0  0  0  0  0  0  0
    0.2756   15.2833   -4.0030 H   0  0  0  0  0  0  0  0  0  0  0  0
   -0.8743   14.0412   -0.7186 H   0  0  0  0  0  0  0  0  0  0  0  0
   -1.3716   14.8270   -2.2554 H   0  0  0  0  0  0  0  0  0  0  0  0
   -0.8378   13.1119   -2.2554 H   0  0  0  0  0  0  0  0  0  0  0  0
  1  2  1  0
  2  3  1  0
  3  4  1  0
  4  5  1  0
  5  6  1  0
  6  7  1  0
  7  8  1  0
  7  9  1  0
  2 10  1  0
 10 11  1  0
 11 12  1  0
 12 13  1  0
 13 14  1  1
 13 15  1  0
 15 16  1  0
 16 17  1  0
 17 18  2  0
 18 19  1  0
 19 20  1  0
 20 21  1  0
 21 22  1  0
 22 23  1  0
 22 24  1  0
 24 25  1  0
 24 26  1  0
 19 27  1  0
 27 28  1  1
 27 29  1  0
 29 30  1  0
 30 31  1  0
 31 32  1  6
  7  5  1  0
 31 10  1  0
 31 13  1  0
 27 15  1  0
 24 18  1  0
  1 33  1  0
  1 34  1  0
  1 35  1  0
  2 36  1  6
  3 37  1  0
  3 38  1  0
  4 39  1  0
  4 40  1  0
  5 41  1  1
  8 42  1  0
  8 43  1  0
  8 44  1  0
  9 45  1  0
  9 46  1  0
  9 47  1  0
 10 48  1  6
 11 49  1  0
 11 50  1  0
 12 51  1  0
 12 52  1  0
 14 53  1  0
 14 54  1  0
 14 55  1  0
 15 56  1  1
 16 57  1  0
 16 58  1  0
 17 59  1  0
 19 60  1  6
 20 61  1  0
 20 62  1  0
 21 63  1  0
 21 64  1  0
 22 65  1  6
 23 66  1  0
 25 67  1  0
 25 68  1  0
 25 69  1  0
 26 70  1  0
 26 71  1  0
 26 72  1  0
 28 73  1  0
 28 74  1  0
 28 75  1  0
 29 76  1  0
 29 77  1  0
 30 78  1  0
 30 79  1  0
 32 80  1  0
 32 81  1  0
 32 82  1  0
M  END
>  <meeko>  (10) 
{"is_sidechain": [false], "intermolecular_energy": 2.731, "internal_energy": -0.839}

$$$$
EPH_relaxed_0001_pdb2pqr_Repair_368_r2_0001_out
     RDKit          3D

 82 86  0  0  0  0  0  0  0  0999 V2000
   -0.8800   16.3490   -5.8440 C   0  0  0  0  0  0  0  0  0  0  0  0
    0.2180   15.6550   -6.6560 C   0  0  2  0  0  0  0  0  0  0  0  0
   -0.1740   15.4870   -8.1380 C   0  0  0  0  0  0  0  0  0  0  0  0
    0.4810   16.5130   -9.0670 C   0  0  0  0  0  0  0  0  0  0  0  0
    1.8800   16.1170   -9.4320 C   0  0  2  0  0  0  0  0  0  0  0  0
    2.3610   16.6800  -10.6590 O   0  0  0  0  0  0  0  0  0  0  0  0
    2.2190   15.2510  -10.6310 C   0  0  0  0  0  0  0  0  0  0  0  0
    1.1520   14.7270  -11.5410 C   0  0  0  0  0  0  0  0  0  0  0  0
    3.5220   14.5150  -10.6360 C   0  0  0  0  0  0  0  0  0  0  0  0
    0.5360   14.2960   -6.0440 C   0  0  1  0  0  0  0  0  0  0  0  0
    1.7970   13.6400   -6.6670 C   0  0  0  0  0  0  0  0  0  0  0  0
    2.5070   12.8640   -5.5280 C   0  0  0  0  0  0  0  0  0  0  0  0
    1.4700   12.8200   -4.3810 C   0  0  1  0  0  0  0  0  0  0  0  0
    0.5100   11.6470   -4.7530 C   0  0  0  0  0  0  0  0  0  0  0  0
    2.0450   12.6590   -2.9360 C   0  0  2  0  0  0  0  0  0  0  0  0
    2.8130   11.3500   -2.6810 C   0  0  0  0  0  0  0  0  0  0  0  0
    1.9860   10.2150   -2.1760 C   0  0  0  0  0  0  0  0  0  0  0  0
    0.7440   10.3170   -1.6670 C   0  0  0  0  0  0  0  0  0  0  0  0
    0.0840   11.6880   -1.4700 C   0  0  1  0  0  0  0  0  0  0  0  0
   -0.5580   11.7550   -0.0600 C   0  0  0  0  0  0  0  0  0  0  0  0
   -1.5210   10.6010    0.2010 C   0  0  0  0  0  0  0  0  0  0  0  0
   -0.8140    9.2570    0.0530 C   0  0  2  0  0  0  0  0  0  0  0  0
    0.1550    9.1270    1.0980 O   0  0  0  0  0  0  0  0  0  0  0  0
   -0.1200    9.0780   -1.3270 C   0  0  0  0  0  0  0  0  0  0  0  0
   -1.1940    8.9160   -2.4320 C   0  0  0  0  0  0  0  0  0  0  0  0
    0.6730    7.7440   -1.2930 C   0  0  0  0  0  0  0  0  0  0  0  0
    0.9980   12.9490   -1.7860 C   0  0  1  0  0  0  0  0  0  0  0  0
    1.8220   13.3390   -0.5210 C   0  0  0  0  0  0  0  0  0  0  0  0
    0.0760   14.1830   -2.1130 C   0  0  0  0  0  0  0  0  0  0  0  0
   -0.3610   14.3540   -3.5800 C   0  0  0  0  0  0  0  0  0  0  0  0
    0.8400   14.2530   -4.5250 C   0  0  2  0  0  0  0  0  0  0  0  0
    1.8140   15.4340   -4.1900 C   0  0  0  0  0  0  0  0  0  0  0  0
   -0.6781   16.2214   -4.7702 H   0  0  0  0  0  0  0  0  0  0  0  0
   -0.8953   17.4212   -6.0893 H   0  0  0  0  0  0  0  0  0  0  0  0
   -1.8550   15.9028   -6.0893 H   0  0  0  0  0  0  0  0  0  0  0  0
    1.1109   16.2965   -6.6216 H   0  0  0  0  0  0  0  0  0  0  0  0
    0.1264   14.4806   -8.4649 H   0  0  0  0  0  0  0  0  0  0  0  0
   -1.2611   15.6417   -8.2030 H   0  0  0  0  0  0  0  0  0  0  0  0
   -0.1176   16.5949   -9.9862 H   0  0  0  0  0  0  0  0  0  0  0  0
    0.5244   17.4763   -8.5377 H   0  0  0  0  0  0  0  0  0  0  0  0
    2.1630   16.0517   -8.3710 H   0  0  0  0  0  0  0  0  0  0  0  0
    0.3248   14.3208  -10.9404 H   0  0  0  0  0  0  0  0  0  0  0  0
    0.7777   15.5438  -12.1756 H   0  0  0  0  0  0  0  0  0  0  0  0
    1.5695   13.9314  -12.1756 H   0  0  0  0  0  0  0  0  0  0  0  0
    3.8443   14.3330   -9.6001 H   0  0  0  0  0  0  0  0  0  0  0  0
    3.3980   13.5535  -11.1558 H   0  0  0  0  0  0  0  0  0  0  0  0
    4.2815   15.1175  -11.1558 H   0  0  0  0  0  0  0  0  0  0  0  0
   -0.4096   13.7744   -6.2534 H   0  0  0  0  0  0  0  0  0  0  0  0
    1.5060   12.9490   -7.4719 H   0  0  0  0  0  0  0  0  0  0  0  0
    2.4631   14.3996   -7.1021 H   0  0  0  0  0  0  0  0  0  0  0  0
    2.7678   11.8466   -5.8550 H   0  0  0  0  0  0  0  0  0  0  0  0
    3.4487   13.3424   -5.2210 H   0  0  0  0  0  0  0  0  0  0  0  0
    0.1279   11.1801   -3.8332 H   0  0  0  0  0  0  0  0  0  0  0  0
   -0.3323   12.0359   -5.3440 H   0  0  0  0  0  0  0  0  0  0  0  0
    1.0578   10.8982   -5.3440 H   0  0  0  0  0  0  0  0  0  0  0  0
    2.7978   13.4598   -2.8912 H   0  0  0  0  0  0  0  0  0  0  0  0
    3.2768   11.0377   -3.6283 H   0  0  0  0  0  0  0  0  0  0  0  0
    3.5411   11.5734   -1.8873 H   0  0  0  0  0  0  0  0  0  0  0  0
    2.4291    9.2093   -2.2238 H   0  0  0  0  0  0  0  0  0  0  0  0
   -0.6981   11.7632   -2.2398 H   0  0  0  0  0  0  0  0  0  0  0  0
    0.2426   11.7232    0.6936 H   0  0  0  0  0  0  0  0  0  0  0  0
   -1.1342   12.6901   -0.0001 H   0  0  0  0  0  0  0  0  0  0  0  0
   -1.9187   10.6880    1.2229 H   0  0  0  0  0  0  0  0  0  0  0  0
   -2.3371   10.6514   -0.5348 H   0  0  0  0  0  0  0  0  0  0  0  0
   -1.5816    8.4722    0.1230 H   0  0  0  0  0  0  0  0  0  0  0  0
    1.0360    9.1510    0.6880 H   0  0  0  0  0  0  0  0  0  0  0  0
   -2.1795    8.7674   -1.9665 H   0  0  0  0  0  0  0  0  0  0  0  0
   -1.2164    9.8209   -3.0570 H   0  0  0  0  0  0  0  0  0  0  0  0
   -0.9485    8.0447   -3.0570 H   0  0  0  0  0  0  0  0  0  0  0  0
    0.8487    7.4484   -0.2481 H   0  0  0  0  0  0  0  0  0  0  0  0
    0.0941    6.9602   -1.8034 H   0  0  0  0  0  0  0  0  0  0  0  0
    1.6382    7.8781   -1.8034 H   0  0  0  0  0  0  0  0  0  0  0  0
    1.2553   13.0708    0.3828 H   0  0  0  0  0  0  0  0  0  0  0  0
    2.7802   12.7989   -0.5267 H   0  0  0  0  0  0  0  0  0  0  0  0
    2.0118   14.4225   -0.5267 H   0  0  0  0  0  0  0  0  0  0  0  0
   -0.8347   14.0888   -1.5033 H   0  0  0  0  0  0  0  0  0  0  0  0
    0.6901   15.0681   -1.8906 H   0  0  0  0  0  0  0  0  0  0  0  0
   -1.0858   13.5664   -3.8337 H   0  0  0  0  0  0  0  0  0  0  0  0
   -0.8165   15.3484   -3.6967 H   0  0  0  0  0  0  0  0  0  0  0  0
    1.9008   15.5393   -3.0985 H   0  0  0  0  0  0  0  0  0  0  0  0
    2.8053   15.2244   -4.6182 H   0  0  0  0  0  0  0  0  0  0  0  0
    1.4195   16.3673   -4.6182 H   0  0  0  0  0  0  0  0  0  0  0  0
  1  2  1  0
  2  3  1  0
  3  4  1  0
  4  5  1  0
  5  6  1  0
  6  7  1  0
  7  8  1  0
  7  9  1  0
  2 10  1  0
 10 11  1  0
 11 12  1  0
 12 13  1  0
 13 14  1  6
 13 15  1  0
 15 16  1  0
 16 17  1  0
 17 18  2  0
 18 19  1  0
 19 20  1  0
 20 21  1  0
 21 22  1  0
 22 23  1  0
 22 24  1  0
 24 25  1  0
 24 26  1  0
 19 27  1  0
 27 28  1  1
 27 29  1  0
 29 30  1  0
 30 31  1  0
 31 32  1  1
  7  5  1  0
 31 10  1  0
 31 13  1  0
 27 15  1  0
 24 18  1  0
  1 33  1  0
  1 34  1  0
  1 35  1  0
  2 36  1  6
  3 37  1  0
  3 38  1  0
  4 39  1  0
  4 40  1  0
  5 41  1  1
  8 42  1  0
  8 43  1  0
  8 44  1  0
  9 45  1  0
  9 46  1  0
  9 47  1  0
 10 48  1  1
 11 49  1  0
 11 50  1  0
 12 51  1  0
 12 52  1  0
 14 53  1  0
 14 54  1  0
 14 55  1  0
 15 56  1  1
 16 57  1  0
 16 58  1  0
 17 59  1  0
 19 60  1  6
 20 61  1  0
 20 62  1  0
 21 63  1  0
 21 64  1  0
 22 65  1  1
 23 66  1  0
 25 67  1  0
 25 68  1  0
 25 69  1  0
 26 70  1  0
 26 71  1  0
 26 72  1  0
 28 73  1  0
 28 74  1  0
 28 75  1  0
 29 76  1  0
 29 77  1  0
 30 78  1  0
 30 79  1  0
 32 80  1  0
 32 81  1  0
 32 82  1  0
M  END
>  <meeko>  (11) 
{"is_sidechain": [false], "intermolecular_energy": 2.731, "internal_energy": -0.839}

$$$$
EPH_relaxed_0001_pdb2pqr_Repair_368_r2_0001_out
     RDKit          3D

 82 86  0  0  0  0  0  0  0  0999 V2000
    0.1050    9.4050   -2.4640 C   0  0  0  0  0  0  0  0  0  0  0  0
    1.2120   10.3880   -2.8550 C   0  0  2  0  0  0  0  0  0  0  0  0
    2.6010    9.7190   -2.8780 C   0  0  0  0  0  0  0  0  0  0  0  0
    3.5630   10.3340   -3.8980 C   0  0  0  0  0  0  0  0  0  0  0  0
    4.9320   10.5290   -3.3210 C   0  0  2  0  0  0  0  0  0  0  0  0
    5.4850   11.8370   -3.5190 O   0  0  0  0  0  0  0  0  0  0  0  0
    6.1720   10.7530   -4.1660 C   0  0  0  0  0  0  0  0  0  0  0  0
    6.1010   10.7940   -5.6610 C   0  0  0  0  0  0  0  0  0  0  0  0
    7.5100   10.4460   -3.5700 C   0  0  0  0  0  0  0  0  0  0  0  0
    1.2190   11.5700   -1.8930 C   0  0  1  0  0  0  0  0  0  0  0  0
    2.2960   11.4310   -0.7840 C   0  0  0  0  0  0  0  0  0  0  0  0
    2.8200   12.8600   -0.4870 C   0  0  0  0  0  0  0  0  0  0  0  0
    1.8080   13.7990   -1.1850 C   0  0  1  0  0  0  0  0  0  0  0  0
    0.6050   13.8990   -0.1960 C   0  0  0  0  0  0  0  0  0  0  0  0
    2.3420   15.2120   -1.5900 C   0  0  2  0  0  0  0  0  0  0  0  0
    2.7960   16.0980   -0.4170 C   0  0  0  0  0  0  0  0  0  0  0  0
    1.7380   16.9750    0.1670 C   0  0  0  0  0  0  0  0  0  0  0  0
    0.5550   17.2610   -0.4070 C   0  0  0  0  0  0  0  0  0  0  0  0
    0.2230   16.7600   -1.8190 C   0  0  1  0  0  0  0  0  0  0  0  0
   -0.3770   17.9210   -2.6530 C   0  0  0  0  0  0  0  0  0  0  0  0
   -1.5740   18.5750   -1.9690 C   0  0  0  0  0  0  0  0  0  0  0  0
   -1.1900   19.1130   -0.5930 C   0  0  2  0  0  0  0  0  0  0  0  0
   -0.2680   20.1940   -0.7620 O   0  0  0  0  0  0  0  0  0  0  0  0
   -0.5640   18.0330    0.3340 C   0  0  0  0  0  0  0  0  0  0  0  0
   -1.6540   17.0190    0.7600 C   0  0  0  0  0  0  0  0  0  0  0  0
   -0.0920   18.7360    1.6350 C   0  0  0  0  0  0  0  0  0  0  0  0
    1.3950   16.0040   -2.5800 C   0  0  1  0  0  0  0  0  0  0  0  0
    2.2950   17.0340   -3.3280 C   0  0  0  0  0  0  0  0  0  0  0  0
    0.7730   15.0720   -3.6860 C   0  0  0  0  0  0  0  0  0  0  0  0
    0.3760   13.6480   -3.2530 C   0  0  0  0  0  0  0  0  0  0  0  0
    1.5170   12.9690   -2.4880 C   0  0  2  0  0  0  0  0  0  0  0  0
    2.7340   12.8350   -3.4660 C   0  0  0  0  0  0  0  0  0  0  0  0
    0.0379    9.3455   -1.3677 H   0  0  0  0  0  0  0  0  0  0  0  0
   -0.8555    9.7533   -2.8717 H   0  0  0  0  0  0  0  0  0  0  0  0
    0.3373    8.4101   -2.8717 H   0  0  0  0  0  0  0  0  0  0  0  0
    0.9984   10.7395   -3.8752 H   0  0  0  0  0  0  0  0  0  0  0  0
    3.0486    9.8133   -1.8776 H   0  0  0  0  0  0  0  0  0  0  0  0
    2.4480    8.6701   -3.1719 H   0  0  0  0  0  0  0  0  0  0  0  0
    3.6349    9.6653   -4.7684 H   0  0  0  0  0  0  0  0  0  0  0  0
    3.1701   11.3193   -4.1893 H   0  0  0  0  0  0  0  0  0  0  0  0
    4.7131    9.8257   -2.5040 H   0  0  0  0  0  0  0  0  0  0  0  0
    5.1869   11.3219   -5.9703 H   0  0  0  0  0  0  0  0  0  0  0  0
    6.9811   11.3229   -6.0555 H   0  0  0  0  0  0  0  0  0  0  0  0
    6.0829    9.7673   -6.0555 H   0  0  0  0  0  0  0  0  0  0  0  0
    7.4353   10.4631   -2.4727 H   0  0  0  0  0  0  0  0  0  0  0  0
    7.8382    9.4492   -3.8996 H   0  0  0  0  0  0  0  0  0  0  0  0
    8.2400   11.2000   -3.8996 H   0  0  0  0  0  0  0  0  0  0  0  0
    0.1788   11.5253   -1.5381 H   0  0  0  0  0  0  0  0  0  0  0  0
    1.8518   10.9944    0.1227 H   0  0  0  0  0  0  0  0  0  0  0  0
    3.1135   10.7702   -1.1082 H   0  0  0  0  0  0  0  0  0  0  0  0
    2.8413   13.0485    0.5965 H   0  0  0  0  0  0  0  0  0  0  0  0
    3.8478   13.0112   -0.8487 H   0  0  0  0  0  0  0  0  0  0  0  0
    0.9773   13.8680    0.8386 H   0  0  0  0  0  0  0  0  0  0  0  0
    0.0692   14.8448   -0.3647 H   0  0  0  0  0  0  0  0  0  0  0  0
   -0.0796   13.0547   -0.3647 H   0  0  0  0  0  0  0  0  0  0  0  0
    3.2559   14.9670   -2.1510 H   0  0  0  0  0  0  0  0  0  0  0  0
    3.1705   15.4399    0.3809 H   0  0  0  0  0  0  0  0  0  0  0  0
    3.5609   16.7749   -0.8254 H   0  0  0  0  0  0  0  0  0  0  0  0
    1.9429   17.4253    1.1494 H   0  0  0  0  0  0  0  0  0  0  0  0
   -0.5277   15.9663   -1.6908 H   0  0  0  0  0  0  0  0  0  0  0  0
    0.4010   18.6833   -2.8070 H   0  0  0  0  0  0  0  0  0  0  0  0
   -0.7265   17.5006   -3.6075 H   0  0  0  0  0  0  0  0  0  0  0  0
   -1.9349   19.4062   -2.5925 H   0  0  0  0  0  0  0  0  0  0  0  0
   -2.3623   17.8183   -1.8424 H   0  0  0  0  0  0  0  0  0  0  0  0
   -2.1139   19.4516   -0.1013 H   0  0  0  0  0  0  0  0  0  0  0  0
    0.0620   20.1600   -1.6760 H   0  0  0  0  0  0  0  0  0  0  0  0
   -1.7032   16.9732    1.8579 H   0  0  0  0  0  0  0  0  0  0  0  0
   -2.6283   17.3393    0.3623 H   0  0  0  0  0  0  0  0  0  0  0  0
   -1.4048   16.0241    0.3623 H   0  0  0  0  0  0  0  0  0  0  0  0
   -0.4650   18.1804    2.5080 H   0  0  0  0  0  0  0  0  0  0  0  0
    1.0074   18.7622    1.6595 H   0  0  0  0  0  0  0  0  0  0  0  0
   -0.4839   19.7635    1.6595 H   0  0  0  0  0  0  0  0  0  0  0  0
    2.8341   17.6510   -2.5940 H   0  0  0  0  0  0  0  0  0  0  0  0
    3.0193   16.4979   -3.9589 H   0  0  0  0  0  0  0  0  0  0  0  0
    1.6666   17.6799   -3.9589 H   0  0  0  0  0  0  0  0  0  0  0  0
   -0.1315   15.5676   -4.0684 H   0  0  0  0  0  0  0  0  0  0  0  0
    1.5727   14.9341   -4.4286 H   0  0  0  0  0  0  0  0  0  0  0  0
   -0.5099   13.7033   -2.6033 H   0  0  0  0  0  0  0  0  0  0  0  0
    0.1566   13.0559   -4.1537 H   0  0  0  0  0  0  0  0  0  0  0  0
    3.6621   12.7328   -2.8845 H   0  0  0  0  0  0  0  0  0  0  0  0
    2.5988   11.9463   -4.1000 H   0  0  0  0  0  0  0  0  0  0  0  0
    2.7954   13.7318   -4.1000 H   0  0  0  0  0  0  0  0  0  0  0  0
  1  2  1  0
  2  3  1  0
  3  4  1  0
  4  5  1  0
  5  6  1  0
  6  7  1  0
  7  8  1  0
  7  9  1  0
  2 10  1  0
 10 11  1  0
 11 12  1  0
 12 13  1  0
 13 14  1  1
 13 15  1  0
 15 16  1  0
 16 17  1  0
 17 18  2  0
 18 19  1  0
 19 20  1  0
 20 21  1  0
 21 22  1  0
 22 23  1  0
 22 24  1  0
 24 25  1  0
 24 26  1  0
 19 27  1  0
 27 28  1  6
 27 29  1  0
 29 30  1  0
 30 31  1  0
 31 32  1  6
  7  5  1  0
 31 10  1  0
 31 13  1  0
 27 15  1  0
 24 18  1  0
  1 33  1  0
  1 34  1  0
  1 35  1  0
  2 36  1  6
  3 37  1  0
  3 38  1  0
  4 39  1  0
  4 40  1  0
  5 41  1  1
  8 42  1  0
  8 43  1  0
  8 44  1  0
  9 45  1  0
  9 46  1  0
  9 47  1  0
 10 48  1  1
 11 49  1  0
 11 50  1  0
 12 51  1  0
 12 52  1  0
 14 53  1  0
 14 54  1  0
 14 55  1  0
 15 56  1  6
 16 57  1  0
 16 58  1  0
 17 59  1  0
 19 60  1  1
 20 61  1  0
 20 62  1  0
 21 63  1  0
 21 64  1  0
 22 65  1  1
 23 66  1  0
 25 67  1  0
 25 68  1  0
 25 69  1  0
 26 70  1  0
 26 71  1  0
 26 72  1  0
 28 73  1  0
 28 74  1  0
 28 75  1  0
 29 76  1  0
 29 77  1  0
 30 78  1  0
 30 79  1  0
 32 80  1  0
 32 81  1  0
 32 82  1  0
M  END
>  <meeko>  (12) 
{"is_sidechain": [false], "intermolecular_energy": 2.731, "internal_energy": -0.839}

$$$$
EPH_relaxed_0001_pdb2pqr_Repair_368_r2_0001_out
     RDKit          3D

 82 86  0  0  0  0  0  0  0  0999 V2000
   -2.2770    7.8850   -2.1190 C   0  0  0  0  0  0  0  0  0  0  0  0
   -2.1690    8.4830   -0.7130 C   0  0  2  0  0  0  0  0  0  0  0  0
   -3.5200    8.4670    0.0300 C   0  0  0  0  0  0  0  0  0  0  0  0
   -4.7340    8.5610   -0.8980 C   0  0  0  0  0  0  0  0  0  0  0  0
   -5.2970    7.2090   -1.2140 C   0  0  2  0  0  0  0  0  0  0  0  0
   -5.2950    6.8690   -2.6070 O   0  0  0  0  0  0  0  0  0  0  0  0
   -6.5850    6.9980   -1.9880 C   0  0  0  0  0  0  0  0  0  0  0  0
   -7.3900    8.1540   -2.4930 C   0  0  0  0  0  0  0  0  0  0  0  0
   -7.3110    5.6980   -1.8300 C   0  0  0  0  0  0  0  0  0  0  0  0
   -1.6370    9.9090   -0.7950 C   0  0  1  0  0  0  0  0  0  0  0  0
   -1.1720   10.4530    0.5820 C   0  0  0  0  0  0  0  0  0  0  0  0
    0.0490   11.3690    0.3130 C   0  0  0  0  0  0  0  0  0  0  0  0
    0.0430   11.5860   -1.2190 C   0  0  1  0  0  0  0  0  0  0  0  0
   -1.0120   12.7110   -1.4600 C   0  0  0  0  0  0  0  0  0  0  0  0
    1.4200   11.9360   -1.8720 C   0  0  2  0  0  0  0  0  0  0  0  0
    2.0510   13.2560   -1.3970 C   0  0  0  0  0  0  0  0  0  0  0  0
    1.6830   14.4630   -2.1940 C   0  0  0  0  0  0  0  0  0  0  0  0
    1.1110   14.4510   -3.4130 C   0  0  0  0  0  0  0  0  0  0  0  0
    0.8650   13.1310   -4.1540 C   0  0  1  0  0  0  0  0  0  0  0  0
    1.3360   13.2680   -5.6260 C   0  0  0  0  0  0  0  0  0  0  0  0
    0.7020   14.4620   -6.3340 C   0  0  0  0  0  0  0  0  0  0  0  0
    1.0170   15.7620   -5.5990 C   0  0  2  0  0  0  0  0  0  0  0  0
    2.4210   16.0200   -5.7000 O   0  0  0  0  0  0  0  0  0  0  0  0
    0.5960   15.7380   -4.1030 C   0  0  0  0  0  0  0  0  0  0  0  0
   -0.9490   15.7620   -3.9970 C   0  0  0  0  0  0  0  0  0  0  0  0
    1.0970   17.0520   -3.4450 C   0  0  0  0  0  0  0  0  0  0  0  0
    1.4350   11.8240   -3.4510 C   0  0  1  0  0  0  0  0  0  0  0  0
    2.9210   11.6010   -3.8670 C   0  0  0  0  0  0  0  0  0  0  0  0
    0.6350   10.5710   -3.9690 C   0  0  0  0  0  0  0  0  0  0  0  0
   -0.6530   10.2050   -3.2080 C   0  0  0  0  0  0  0  0  0  0  0  0
   -0.4020   10.1570   -1.6980 C   0  0  2  0  0  0  0  0  0  0  0  0
    0.6390    9.0190   -1.4220 C   0  0  0  0  0  0  0  0  0  0  0  0
   -2.4720    6.8050   -2.0441 H   0  0  0  0  0  0  0  0  0  0  0  0
   -3.1021    8.3699   -2.6613 H   0  0  0  0  0  0  0  0  0  0  0  0
   -1.3344    8.0506   -2.6613 H   0  0  0  0  0  0  0  0  0  0  0  0
   -1.4694    7.8570   -0.1396 H   0  0  0  0  0  0  0  0  0  0  0  0
   -3.5912    7.5295    0.6010 H   0  0  0  0  0  0  0  0  0  0  0  0
   -3.5411    9.3557    0.6778 H   0  0  0  0  0  0  0  0  0  0  0  0
   -5.5115    9.1650   -0.4075 H   0  0  0  0  0  0  0  0  0  0  0  0
   -4.4094    9.0257   -1.8407 H   0  0  0  0  0  0  0  0  0  0  0  0
   -4.9402    6.8109   -0.2527 H   0  0  0  0  0  0  0  0  0  0  0  0
   -7.7872    8.7244   -1.6405 H   0  0  0  0  0  0  0  0  0  0  0  0
   -6.7502    8.8069   -3.1049 H   0  0  0  0  0  0  0  0  0  0  0  0
   -8.2243    7.7804   -3.1049 H   0  0  0  0  0  0  0  0  0  0  0  0
   -7.4354    5.4752   -0.7600 H   0  0  0  0  0  0  0  0  0  0  0  0
   -8.2996    5.7698   -2.3070 H   0  0  0  0  0  0  0  0  0  0  0  0
   -6.7313    4.8940   -2.3070 H   0  0  0  0  0  0  0  0  0  0  0  0
   -2.5196   10.4109   -1.2183 H   0  0  0  0  0  0  0  0  0  0  0  0
   -1.9811   11.0296    1.0541 H   0  0  0  0  0  0  0  0  0  0  0  0
   -0.9057    9.6302    1.2618 H   0  0  0  0  0  0  0  0  0  0  0  0
   -0.0605   12.3275    0.8415 H   0  0  0  0  0  0  0  0  0  0  0  0
    0.9905   10.9247    0.6680 H   0  0  0  0  0  0  0  0  0  0  0  0
   -1.3693   13.0920   -0.4920 H   0  0  0  0  0  0  0  0  0  0  0  0
   -0.5499   13.5312   -2.0289 H   0  0  0  0  0  0  0  0  0  0  0  0
   -1.8602   12.3025   -2.0289 H   0  0  0  0  0  0  0  0  0  0  0  0
    2.0727   11.1381   -1.4882 H   0  0  0  0  0  0  0  0  0  0  0  0
    1.7374   13.4274   -0.3567 H   0  0  0  0  0  0  0  0  0  0  0  0
    3.1377   13.1333   -1.5158 H   0  0  0  0  0  0  0  0  0  0  0  0
    1.8971   15.4454   -1.7479 H   0  0  0  0  0  0  0  0  0  0  0  0
   -0.2217   12.9634   -4.1232 H   0  0  0  0  0  0  0  0  0  0  0  0
    2.4290   13.3913   -5.6366 H   0  0  0  0  0  0  0  0  0  0  0  0
    1.0262   12.3587   -6.1619 H   0  0  0  0  0  0  0  0  0  0  0  0
    1.0960   14.5235   -7.3592 H   0  0  0  0  0  0  0  0  0  0  0  0
   -0.3890   14.3226   -6.3491 H   0  0  0  0  0  0  0  0  0  0  0  0
    0.4309   16.5611   -6.0764 H   0  0  0  0  0  0  0  0  0  0  0  0
    2.8080   15.3270   -6.2610 H   0  0  0  0  0  0  0  0  0  0  0  0
   -1.2438   15.7666   -2.9372 H   0  0  0  0  0  0  0  0  0  0  0  0
   -1.3363   16.6663   -4.4892 H   0  0  0  0  0  0  0  0  0  0  0  0
   -1.3642   14.8702   -4.4892 H   0  0  0  0  0  0  0  0  0  0  0  0
    1.0587   16.9516   -2.3503 H   0  0  0  0  0  0  0  0  0  0  0  0
    2.1328   17.2477   -3.7593 H   0  0  0  0  0  0  0  0  0  0  0  0
    0.4544   17.8876   -3.7593 H   0  0  0  0  0  0  0  0  0  0  0  0
    3.5441   11.5075   -2.9653 H   0  0  0  0  0  0  0  0  0  0  0  0
    3.0004   10.6809   -4.4646 H   0  0  0  0  0  0  0  0  0  0  0  0
    3.2669   12.4573   -4.4646 H   0  0  0  0  0  0  0  0  0  0  0  0
    0.3594   10.7622   -5.0166 H   0  0  0  0  0  0  0  0  0  0  0  0
    1.3107    9.7162   -3.8181 H   0  0  0  0  0  0  0  0  0  0  0  0
   -1.4238   10.9603   -3.4209 H   0  0  0  0  0  0  0  0  0  0  0  0
   -0.9864    9.2108   -3.5401 H   0  0  0  0  0  0  0  0  0  0  0  0
    0.7593    8.8875   -0.3365 H   0  0  0  0  0  0  0  0  0  0  0  0
    0.2816    8.0791   -1.8678 H   0  0  0  0  0  0  0  0  0  0  0  0
    1.6070    9.2915   -1.8678 H   0  0  0  0  0  0  0  0  0  0  0  0
  1  2  1  0
  2  3  1  0
  3  4  1  0
  4  5  1  0
  5  6  1  0
  6  7  1  0
  7  8  1  0
  7  9  1  0
  2 10  1  0
 10 11  1  0
 11 12  1  0
 12 13  1  0
 13 14  1  1
 13 15  1  0
 15 16  1  0
 16 17  1  0
 17 18  2  0
 18 19  1  0
 19 20  1  0
 20 21  1  0
 21 22  1  0
 22 23  1  0
 22 24  1  0
 24 25  1  0
 24 26  1  0
 19 27  1  0
 27 28  1  6
 27 29  1  0
 29 30  1  0
 30 31  1  0
 31 32  1  6
  7  5  1  0
 31 10  1  0
 31 13  1  0
 27 15  1  0
 24 18  1  0
  1 33  1  0
  1 34  1  0
  1 35  1  0
  2 36  1  1
  3 37  1  0
  3 38  1  0
  4 39  1  0
  4 40  1  0
  5 41  1  1
  8 42  1  0
  8 43  1  0
  8 44  1  0
  9 45  1  0
  9 46  1  0
  9 47  1  0
 10 48  1  6
 11 49  1  0
 11 50  1  0
 12 51  1  0
 12 52  1  0
 14 53  1  0
 14 54  1  0
 14 55  1  0
 15 56  1  1
 16 57  1  0
 16 58  1  0
 17 59  1  0
 19 60  1  6
 20 61  1  0
 20 62  1  0
 21 63  1  0
 21 64  1  0
 22 65  1  6
 23 66  1  0
 25 67  1  0
 25 68  1  0
 25 69  1  0
 26 70  1  0
 26 71  1  0
 26 72  1  0
 28 73  1  0
 28 74  1  0
 28 75  1  0
 29 76  1  0
 29 77  1  0
 30 78  1  0
 30 79  1  0
 32 80  1  0
 32 81  1  0
 32 82  1  0
M  END
>  <meeko>  (13) 
{"is_sidechain": [false], "intermolecular_energy": 2.731, "internal_energy": -0.839}

$$$$
EPH_relaxed_0001_pdb2pqr_Repair_368_r2_0001_out
     RDKit          3D

 82 86  0  0  0  0  0  0  0  0999 V2000
   -4.1220    7.4070   -3.5140 C   0  0  0  0  0  0  0  0  0  0  0  0
   -3.6690    7.2860   -2.0570 C   0  0  2  0  0  0  0  0  0  0  0  0
   -4.7990    6.7800   -1.1380 C   0  0  0  0  0  0  0  0  0  0  0  0
   -5.8090    5.8740   -1.8460 C   0  0  0  0  0  0  0  0  0  0  0  0
   -7.2090    6.3920   -1.7110 C   0  0  2  0  0  0  0  0  0  0  0  0
   -8.2290    5.3870   -1.7810 O   0  0  0  0  0  0  0  0  0  0  0  0
   -8.2250    6.3610   -2.8380 C   0  0  0  0  0  0  0  0  0  0  0  0
   -7.8830    5.7980   -4.1820 C   0  0  0  0  0  0  0  0  0  0  0  0
   -9.3800    7.3110   -2.7860 C   0  0  0  0  0  0  0  0  0  0  0  0
   -3.1570    8.6330   -1.5590 C   0  0  1  0  0  0  0  0  0  0  0  0
   -3.8140    9.0640   -0.2210 C   0  0  0  0  0  0  0  0  0  0  0  0
   -2.7290    9.8220    0.5870 C   0  0  0  0  0  0  0  0  0  0  0  0
   -1.5990   10.0910   -0.4350 C   0  0  1  0  0  0  0  0  0  0  0  0
   -2.0680   11.3510   -1.2290 C   0  0  0  0  0  0  0  0  0  0  0  0
   -0.1640   10.2820    0.1560 C   0  0  2  0  0  0  0  0  0  0  0  0
    0.0000   11.4910    1.0920 C   0  0  0  0  0  0  0  0  0  0  0  0
    0.4110   12.7630    0.4260 C   0  0  0  0  0  0  0  0  0  0  0  0
    0.9130   12.8660   -0.8190 C   0  0  0  0  0  0  0  0  0  0  0  0
    1.2040   11.6150   -1.6580 C   0  0  1  0  0  0  0  0  0  0  0  0
    2.6090   11.7410   -2.3040 C   0  0  0  0  0  0  0  0  0  0  0  0
    2.7730   13.0300   -3.1030 C   0  0  0  0  0  0  0  0  0  0  0  0
    2.5320   14.2530   -2.2210 C   0  0  2  0  0  0  0  0  0  0  0  0
    3.5750   14.3290   -1.2440 O   0  0  0  0  0  0  0  0  0  0  0  0
    1.1500   14.2320   -1.5090 C   0  0  0  0  0  0  0  0  0  0  0  0
    0.0250   14.4530   -2.5500 C   0  0  0  0  0  0  0  0  0  0  0  0
    1.0930   15.4470   -0.5440 C   0  0  0  0  0  0  0  0  0  0  0  0
    0.9930   10.2230   -0.9220 C   0  0  1  0  0  0  0  0  0  0  0  0
    2.2920    9.8220   -0.1580 C   0  0  0  0  0  0  0  0  0  0  0  0
    0.7500    9.1020   -2.0010 C   0  0  0  0  0  0  0  0  0  0  0  0
   -0.7060    8.8810   -2.4560 C   0  0  0  0  0  0  0  0  0  0  0  0
   -1.6430    8.7490   -1.2520 C   0  0  2  0  0  0  0  0  0  0  0  0
   -1.2100    7.4770   -0.4470 C   0  0  0  0  0  0  0  0  0  0  0  0
   -5.1843    7.6908   -3.5453 H   0  0  0  0  0  0  0  0  0  0  0  0
   -3.5218    8.1763   -4.0219 H   0  0  0  0  0  0  0  0  0  0  0  0
   -3.9854    6.4409   -4.0219 H   0  0  0  0  0  0  0  0  0  0  0  0
   -2.8580    6.5436   -2.0227 H   0  0  0  0  0  0  0  0  0  0  0  0
   -4.3463    6.2148   -0.3100 H   0  0  0  0  0  0  0  0  0  0  0  0
   -5.3507    7.6656   -0.7896 H   0  0  0  0  0  0  0  0  0  0  0  0
   -5.5509    5.8187   -2.9139 H   0  0  0  0  0  0  0  0  0  0  0  0
   -5.7648    4.8797   -1.3775 H   0  0  0  0  0  0  0  0  0  0  0  0
   -6.8710    7.1990   -1.0443 H   0  0  0  0  0  0  0  0  0  0  0  0
   -7.3157    4.8642   -4.0548 H   0  0  0  0  0  0  0  0  0  0  0  0
   -8.8086    5.5917   -4.7395 H   0  0  0  0  0  0  0  0  0  0  0  0
   -7.2733    6.5243   -4.7395 H   0  0  0  0  0  0  0  0  0  0  0  0
   -9.6352    7.5209   -1.7368 H   0  0  0  0  0  0  0  0  0  0  0  0
   -9.1064    8.2489   -3.2915 H   0  0  0  0  0  0  0  0  0  0  0  0
  -10.2475    6.8616   -3.2915 H   0  0  0  0  0  0  0  0  0  0  0  0
   -3.4145    9.2598   -2.4255 H   0  0  0  0  0  0  0  0  0  0  0  0
   -4.6717    9.7246   -0.4158 H   0  0  0  0  0  0  0  0  0  0  0  0
   -4.1834    8.1908    0.3367 H   0  0  0  0  0  0  0  0  0  0  0  0
   -3.1287   10.7676    0.9820 H   0  0  0  0  0  0  0  0  0  0  0  0
   -2.3775    9.2465    1.4560 H   0  0  0  0  0  0  0  0  0  0  0  0
   -2.3621   12.1411   -0.5225 H   0  0  0  0  0  0  0  0  0  0  0  0
   -1.2444   11.7131   -1.8620 H   0  0  0  0  0  0  0  0  0  0  0  0
   -2.9279   11.0865   -1.8620 H   0  0  0  0  0  0  0  0  0  0  0  0
   -0.0507    9.3935    0.7946 H   0  0  0  0  0  0  0  0  0  0  0  0
   -0.9634   11.6658    1.5932 H   0  0  0  0  0  0  0  0  0  0  0  0
    0.8159   11.2321    1.7829 H   0  0  0  0  0  0  0  0  0  0  0  0
    0.2938   13.6936    1.0007 H   0  0  0  0  0  0  0  0  0  0  0  0
    0.4335   11.5880   -2.4426 H   0  0  0  0  0  0  0  0  0  0  0  0
    3.3665   11.7218   -1.5066 H   0  0  0  0  0  0  0  0  0  0  0  0
    2.7324   10.8988   -3.0007 H   0  0  0  0  0  0  0  0  0  0  0  0
    3.7944   13.0745   -3.5089 H   0  0  0  0  0  0  0  0  0  0  0  0
    2.0347   13.0341   -3.9184 H   0  0  0  0  0  0  0  0  0  0  0  0
    2.5346   15.1374   -2.8751 H   0  0  0  0  0  0  0  0  0  0  0  0
    4.2540   14.9360   -1.5860 H   0  0  0  0  0  0  0  0  0  0  0  0
   -0.9254   14.6397   -2.0287 H   0  0  0  0  0  0  0  0  0  0  0  0
    0.2738   15.3194   -3.1804 H   0  0  0  0  0  0  0  0  0  0  0  0
   -0.0725   13.5568   -3.1804 H   0  0  0  0  0  0  0  0  0  0  0  0
    1.1097   15.0901    0.4963 H   0  0  0  0  0  0  0  0  0  0  0  0
    1.9616   16.0980   -0.7223 H   0  0  0  0  0  0  0  0  0  0  0  0
    0.1673   16.0138   -0.7223 H   0  0  0  0  0  0  0  0  0  0  0  0
    2.1119    9.8776    0.9257 H   0  0  0  0  0  0  0  0  0  0  0  0
    2.5752    8.7946   -0.4304 H   0  0  0  0  0  0  0  0  0  0  0  0
    3.1051   10.5110   -0.4304 H   0  0  0  0  0  0  0  0  0  0  0  0
    1.3411    9.3629   -2.8912 H   0  0  0  0  0  0  0  0  0  0  0  0
    1.0451    8.1620   -1.5118 H   0  0  0  0  0  0  0  0  0  0  0  0
   -1.0255    9.7372   -3.0683 H   0  0  0  0  0  0  0  0  0  0  0  0
   -0.7531    7.9504   -3.0405 H   0  0  0  0  0  0  0  0  0  0  0  0
   -1.2804    7.6838    0.6311 H   0  0  0  0  0  0  0  0  0  0  0  0
   -1.8730    6.6375   -0.7034 H   0  0  0  0  0  0  0  0  0  0  0  0
   -0.1725    7.2164   -0.7034 H   0  0  0  0  0  0  0  0  0  0  0  0
  1  2  1  0
  2  3  1  0
  3  4  1  0
  4  5  1  0
  5  6  1  0
  6  7  1  0
  7  8  1  0
  7  9  1  0
  2 10  1  0
 10 11  1  0
 11 12  1  0
 12 13  1  0
 13 14  1  6
 13 15  1  0
 15 16  1  0
 16 17  1  0
 17 18  2  0
 18 19  1  0
 19 20  1  0
 20 21  1  0
 21 22  1  0
 22 23  1  0
 22 24  1  0
 24 25  1  0
 24 26  1  0
 19 27  1  0
 27 28  1  1
 27 29  1  0
 29 30  1  0
 30 31  1  0
 31 32  1  1
  7  5  1  0
 31 10  1  0
 31 13  1  0
 27 15  1  0
 24 18  1  0
  1 33  1  0
  1 34  1  0
  1 35  1  0
  2 36  1  6
  3 37  1  0
  3 38  1  0
  4 39  1  0
  4 40  1  0
  5 41  1  1
  8 42  1  0
  8 43  1  0
  8 44  1  0
  9 45  1  0
  9 46  1  0
  9 47  1  0
 10 48  1  6
 11 49  1  0
 11 50  1  0
 12 51  1  0
 12 52  1  0
 14 53  1  0
 14 54  1  0
 14 55  1  0
 15 56  1  1
 16 57  1  0
 16 58  1  0
 17 59  1  0
 19 60  1  6
 20 61  1  0
 20 62  1  0
 21 63  1  0
 21 64  1  0
 22 65  1  6
 23 66  1  0
 25 67  1  0
 25 68  1  0
 25 69  1  0
 26 70  1  0
 26 71  1  0
 26 72  1  0
 28 73  1  0
 28 74  1  0
 28 75  1  0
 29 76  1  0
 29 77  1  0
 30 78  1  0
 30 79  1  0
 32 80  1  0
 32 81  1  0
 32 82  1  0
M  END
>  <meeko>  (14) 
{"is_sidechain": [false], "intermolecular_energy": 2.731, "internal_energy": -0.839}

$$$$
EPH_relaxed_0001_pdb2pqr_Repair_368_r2_0001_out
     RDKit          3D

 82 86  0  0  0  0  0  0  0  0999 V2000
    2.2930   11.1380   -5.4570 C   0  0  0  0  0  0  0  0  0  0  0  0
    1.6660   10.9970   -4.0670 C   0  0  2  0  0  0  0  0  0  0  0  0
    0.5420    9.9420   -4.0410 C   0  0  0  0  0  0  0  0  0  0  0  0
    0.4180    9.2080   -2.7030 C   0  0  0  0  0  0  0  0  0  0  0  0
   -1.0090    9.1180   -2.2510 C   0  0  2  0  0  0  0  0  0  0  0  0
   -1.5920   10.3670   -1.8570 O   0  0  0  0  0  0  0  0  0  0  0  0
   -1.4520    9.3780   -0.8240 C   0  0  0  0  0  0  0  0  0  0  0  0
   -0.4700    9.7480    0.2430 C   0  0  0  0  0  0  0  0  0  0  0  0
   -2.7530    8.8000   -0.3620 C   0  0  0  0  0  0  0  0  0  0  0  0
    1.1260   12.3440   -3.6020 C   0  0  1  0  0  0  0  0  0  0  0  0
   -0.4160   12.3430   -3.4310 C   0  0  0  0  0  0  0  0  0  0  0  0
   -0.7340   13.2680   -2.2290 C   0  0  0  0  0  0  0  0  0  0  0  0
    0.5880   14.0250   -1.9590 C   0  0  1  0  0  0  0  0  0  0  0  0
    0.6080   15.1830   -3.0060 C   0  0  0  0  0  0  0  0  0  0  0  0
    0.7940   14.5600   -0.5040 C   0  0  2  0  0  0  0  0  0  0  0  0
   -0.2360   15.6040   -0.0410 C   0  0  0  0  0  0  0  0  0  0  0  0
    0.1300   17.0260   -0.3140 C   0  0  0  0  0  0  0  0  0  0  0  0
    1.3570   17.4670   -0.6470 C   0  0  0  0  0  0  0  0  0  0  0  0
    2.5560   16.5100   -0.6820 C   0  0  1  0  0  0  0  0  0  0  0  0
    3.7600   17.1610    0.0480 C   0  0  0  0  0  0  0  0  0  0  0  0
    4.1000   18.5430   -0.5020 C   0  0  0  0  0  0  0  0  0  0  0  0
    2.9020   19.4820   -0.3960 C   0  0  2  0  0  0  0  0  0  0  0  0
    2.6310   19.7300    0.9870 O   0  0  0  0  0  0  0  0  0  0  0  0
    1.6250   18.9270   -1.0880 C   0  0  0  0  0  0  0  0  0  0  0  0
    1.8170   18.9430   -2.6240 C   0  0  0  0  0  0  0  0  0  0  0  0
    0.4560   19.9030   -0.7860 C   0  0  0  0  0  0  0  0  0  0  0  0
    2.2730   15.0260   -0.1890 C   0  0  1  0  0  0  0  0  0  0  0  0
    2.4470   14.9370    1.3580 C   0  0  0  0  0  0  0  0  0  0  0  0
    3.3500   14.0620   -0.8130 C   0  0  0  0  0  0  0  0  0  0  0  0
    3.0340   13.4730   -2.2010 C   0  0  0  0  0  0  0  0  0  0  0  0
    1.6240   12.8760   -2.2340 C   0  0  2  0  0  0  0  0  0  0  0  0
    1.5800   11.6940   -1.2070 C   0  0  0  0  0  0  0  0  0  0  0  0
    3.3615   11.3783   -5.3546 H   0  0  0  0  0  0  0  0  0  0  0  0
    2.1810   10.1922   -6.0074 H   0  0  0  0  0  0  0  0  0  0  0  0
    1.7869   11.9448   -6.0074 H   0  0  0  0  0  0  0  0  0  0  0  0
    2.4552   10.6554   -3.3811 H   0  0  0  0  0  0  0  0  0  0  0  0
   -0.4128   10.4465   -4.2502 H   0  0  0  0  0  0  0  0  0  0  0  0
    0.7925    9.1865   -4.8003 H   0  0  0  0  0  0  0  0  0  0  0  0
    0.8213    8.1908   -2.8155 H   0  0  0  0  0  0  0  0  0  0  0  0
    0.9824    9.7740   -1.9473 H   0  0  0  0  0  0  0  0  0  0  0  0
   -1.2002    8.2841   -2.9424 H   0  0  0  0  0  0  0  0  0  0  0  0
   -0.9213    9.5779    1.2316 H   0  0  0  0  0  0  0  0  0  0  0  0
    0.4332    9.1285    0.1408 H   0  0  0  0  0  0  0  0  0  0  0  0
   -0.2001   10.8095    0.1408 H   0  0  0  0  0  0  0  0  0  0  0  0
   -2.7792    8.7884    0.7376 H   0  0  0  0  0  0  0  0  0  0  0  0
   -3.5827    9.4142   -0.7420 H   0  0  0  0  0  0  0  0  0  0  0  0
   -2.8533    7.7726   -0.7420 H   0  0  0  0  0  0  0  0  0  0  0  0
    1.5019   12.9834   -4.4143 H   0  0  0  0  0  0  0  0  0  0  0  0
   -0.8983   12.7268   -4.3421 H   0  0  0  0  0  0  0  0  0  0  0  0
   -0.7929   11.3246   -3.2557 H   0  0  0  0  0  0  0  0  0  0  0  0
   -1.5398   13.9722   -2.4834 H   0  0  0  0  0  0  0  0  0  0  0  0
   -1.0797   12.7052   -1.3494 H   0  0  0  0  0  0  0  0  0  0  0  0
    0.6247   16.1503   -2.4826 H   0  0  0  0  0  0  0  0  0  0  0  0
    1.5047   15.0918   -3.6366 H   0  0  0  0  0  0  0  0  0  0  0  0
   -0.2913   15.1228   -3.6366 H   0  0  0  0  0  0  0  0  0  0  0  0
    0.6050   13.6646    0.1063 H   0  0  0  0  0  0  0  0  0  0  0  0
   -1.1868   15.3935   -0.5526 H   0  0  0  0  0  0  0  0  0  0  0  0
   -0.2942   15.5095    1.0534 H   0  0  0  0  0  0  0  0  0  0  0  0
   -0.6709   17.7760   -0.2363 H   0  0  0  0  0  0  0  0  0  0  0  0
    2.7985   16.3652   -1.7451 H   0  0  0  0  0  0  0  0  0  0  0  0
    3.5148   17.2571    1.1160 H   0  0  0  0  0  0  0  0  0  0  0  0
    4.6356   16.5141   -0.1098 H   0  0  0  0  0  0  0  0  0  0  0  0
    4.9385   18.9629    0.0729 H   0  0  0  0  0  0  0  0  0  0  0  0
    4.3735   18.4412   -1.5626 H   0  0  0  0  0  0  0  0  0  0  0  0
    3.1644   20.4118   -0.9219 H   0  0  0  0  0  0  0  0  0  0  0  0
    2.3250   18.8950    1.3810 H   0  0  0  0  0  0  0  0  0  0  0  0
    2.8879   19.0323   -2.8587 H   0  0  0  0  0  0  0  0  0  0  0  0
    1.4243   18.0090   -3.0524 H   0  0  0  0  0  0  0  0  0  0  0  0
    1.2752   19.7991   -3.0524 H   0  0  0  0  0  0  0  0  0  0  0  0
    0.3348   20.0042    0.3026 H   0  0  0  0  0  0  0  0  0  0  0  0
    0.6781   20.8876   -1.2233 H   0  0  0  0  0  0  0  0  0  0  0  0
   -0.4731   19.5087   -1.2233 H   0  0  0  0  0  0  0  0  0  0  0  0
    1.5719   15.3846    1.8518 H   0  0  0  0  0  0  0  0  0  0  0  0
    2.5369   13.8822    1.6568 H   0  0  0  0  0  0  0  0  0  0  0  0
    3.3549   15.4814    1.6568 H   0  0  0  0  0  0  0  0  0  0  0  0
    4.2915   14.6246   -0.8967 H   0  0  0  0  0  0  0  0  0  0  0  0
    3.3889   13.1966   -0.1351 H   0  0  0  0  0  0  0  0  0  0  0  0
    3.1050   14.2706   -2.9552 H   0  0  0  0  0  0  0  0  0  0  0  0
    3.7587   12.6741   -2.4167 H   0  0  0  0  0  0  0  0  0  0  0  0
    1.5950   12.0968   -0.1835 H   0  0  0  0  0  0  0  0  0  0  0  0
    0.6595   11.1110   -1.3582 H   0  0  0  0  0  0  0  0  0  0  0  0
    2.4546   11.0442   -1.3582 H   0  0  0  0  0  0  0  0  0  0  0  0
  1  2  1  0
  2  3  1  0
  3  4  1  0
  4  5  1  0
  5  6  1  0
  6  7  1  0
  7  8  1  0
  7  9  1  0
  2 10  1  0
 10 11  1  0
 11 12  1  0
 12 13  1  0
 13 14  1  6
 13 15  1  0
 15 16  1  0
 16 17  1  0
 17 18  2  0
 18 19  1  0
 19 20  1  0
 20 21  1  0
 21 22  1  0
 22 23  1  0
 22 24  1  0
 24 25  1  0
 24 26  1  0
 19 27  1  0
 27 28  1  1
 27 29  1  0
 29 30  1  0
 30 31  1  0
 31 32  1  1
  7  5  1  0
 31 10  1  0
 31 13  1  0
 27 15  1  0
 24 18  1  0
  1 33  1  0
  1 34  1  0
  1 35  1  0
  2 36  1  1
  3 37  1  0
  3 38  1  0
  4 39  1  0
  4 40  1  0
  5 41  1  6
  8 42  1  0
  8 43  1  0
  8 44  1  0
  9 45  1  0
  9 46  1  0
  9 47  1  0
 10 48  1  6
 11 49  1  0
 11 50  1  0
 12 51  1  0
 12 52  1  0
 14 53  1  0
 14 54  1  0
 14 55  1  0
 15 56  1  1
 16 57  1  0
 16 58  1  0
 17 59  1  0
 19 60  1  6
 20 61  1  0
 20 62  1  0
 21 63  1  0
 21 64  1  0
 22 65  1  6
 23 66  1  0
 25 67  1  0
 25 68  1  0
 25 69  1  0
 26 70  1  0
 26 71  1  0
 26 72  1  0
 28 73  1  0
 28 74  1  0
 28 75  1  0
 29 76  1  0
 29 77  1  0
 30 78  1  0
 30 79  1  0
 32 80  1  0
 32 81  1  0
 32 82  1  0
M  END
>  <meeko>  (15) 
{"is_sidechain": [false], "intermolecular_energy": 2.731, "internal_energy": -0.839}

$$$$
EPH_relaxed_0001_pdb2pqr_Repair_368_r2_0001_out
     RDKit          3D

 82 86  0  0  0  0  0  0  0  0999 V2000
    0.8240   14.8090   -2.5970 C   0  0  0  0  0  0  0  0  0  0  0  0
    1.1260   14.1200   -3.9300 C   0  0  2  0  0  0  0  0  0  0  0  0
    0.4760   14.8500   -5.1220 C   0  0  0  0  0  0  0  0  0  0  0  0
    1.1790   14.5930   -6.4580 C   0  0  0  0  0  0  0  0  0  0  0  0
    0.8940   15.6780   -7.4520 C   0  0  2  0  0  0  0  0  0  0  0  0
    0.3970   15.2180   -8.7150 O   0  0  0  0  0  0  0  0  0  0  0  0
    1.6800   15.8640   -8.7360 C   0  0  0  0  0  0  0  0  0  0  0  0
    2.8140   14.9560   -9.0950 C   0  0  0  0  0  0  0  0  0  0  0  0
    1.6670   17.2080   -9.3950 C   0  0  0  0  0  0  0  0  0  0  0  0
    0.6530   12.6720   -3.8850 C   0  0  1  0  0  0  0  0  0  0  0  0
    1.7640   11.6670   -4.2910 C   0  0  0  0  0  0  0  0  0  0  0  0
    1.5550   10.3960   -3.4280 C   0  0  0  0  0  0  0  0  0  0  0  0
    0.1520   10.5760   -2.8020 C   0  0  1  0  0  0  0  0  0  0  0  0
   -0.8450   10.1340   -3.9190 C   0  0  0  0  0  0  0  0  0  0  0  0
   -0.1090    9.8150   -1.4620 C   0  0  2  0  0  0  0  0  0  0  0  0
   -0.0300    8.2810   -1.5560 C   0  0  0  0  0  0  0  0  0  0  0  0
   -1.3180    7.5940   -1.8700 C   0  0  0  0  0  0  0  0  0  0  0  0
   -2.5410    8.1510   -1.7890 C   0  0  0  0  0  0  0  0  0  0  0  0
   -2.7240    9.5760   -1.2510 C   0  0  1  0  0  0  0  0  0  0  0  0
   -3.8910    9.5970   -0.2290 C   0  0  0  0  0  0  0  0  0  0  0  0
   -5.1820    9.0190   -0.8030 C   0  0  0  0  0  0  0  0  0  0  0  0
   -4.9740    7.5820   -1.2730 C   0  0  2  0  0  0  0  0  0  0  0  0
   -4.7150    6.7570   -0.1330 O   0  0  0  0  0  0  0  0  0  0  0  0
   -3.8160    7.4350   -2.2990 C   0  0  0  0  0  0  0  0  0  0  0  0
   -4.2290    8.0790   -3.6460 C   0  0  0  0  0  0  0  0  0  0  0  0
   -3.6200    5.9210   -2.5840 C   0  0  0  0  0  0  0  0  0  0  0  0
   -1.4130   10.2810   -0.6950 C   0  0  1  0  0  0  0  0  0  0  0  0
   -1.2040    9.9090    0.8050 C   0  0  0  0  0  0  0  0  0  0  0  0
   -1.6090   11.8420   -0.7430 C   0  0  0  0  0  0  0  0  0  0  0  0
   -1.2210   12.5520   -2.0540 C   0  0  0  0  0  0  0  0  0  0  0  0
    0.1740   12.1220   -2.5180 C   0  0  2  0  0  0  0  0  0  0  0  0
    1.2020   12.5730   -1.4240 C   0  0  0  0  0  0  0  0  0  0  0  0
    1.1142   14.1468   -1.7680 H   0  0  0  0  0  0  0  0  0  0  0  0
    1.3930   15.7482   -2.5325 H   0  0  0  0  0  0  0  0  0  0  0  0
   -0.2522   15.0271   -2.5325 H   0  0  0  0  0  0  0  0  0  0  0  0
    2.2154   14.1510   -4.0790 H   0  0  0  0  0  0  0  0  0  0  0  0
   -0.5677   14.5134   -5.2082 H   0  0  0  0  0  0  0  0  0  0  0  0
    0.5535   15.9285   -4.9199 H   0  0  0  0  0  0  0  0  0  0  0  0
    2.2643   14.5432   -6.2860 H   0  0  0  0  0  0  0  0  0  0  0  0
    0.8009   13.6447   -6.8676 H   0  0  0  0  0  0  0  0  0  0  0  0
    0.6205   16.3756   -6.6467 H   0  0  0  0  0  0  0  0  0  0  0  0
    3.2861   14.5780   -8.1762 H   0  0  0  0  0  0  0  0  0  0  0  0
    2.4334   14.1102   -9.6864 H   0  0  0  0  0  0  0  0  0  0  0  0
    3.5561   15.5124   -9.6864 H   0  0  0  0  0  0  0  0  0  0  0  0
    1.6594   17.9937   -8.6252 H   0  0  0  0  0  0  0  0  0  0  0  0
    2.5641   17.3176  -10.0220 H   0  0  0  0  0  0  0  0  0  0  0  0
    0.7679   17.3003  -10.0220 H   0  0  0  0  0  0  0  0  0  0  0  0
   -0.1944   12.7338   -4.5837 H   0  0  0  0  0  0  0  0  0  0  0  0
    1.6777   11.4181   -5.3590 H   0  0  0  0  0  0  0  0  0  0  0  0
    2.7636   12.0958   -4.1267 H   0  0  0  0  0  0  0  0  0  0  0  0
    1.5880    9.4919   -4.0538 H   0  0  0  0  0  0  0  0  0  0  0  0
    2.3394   10.2753   -2.6663 H   0  0  0  0  0  0  0  0  0  0  0  0
   -1.7575    9.7294   -3.4568 H   0  0  0  0  0  0  0  0  0  0  0  0
   -1.1040   11.0016   -4.5436 H   0  0  0  0  0  0  0  0  0  0  0  0
   -0.3760    9.3595   -4.5436 H   0  0  0  0  0  0  0  0  0  0  0  0
    0.7499   10.1208   -0.8465 H   0  0  0  0  0  0  0  0  0  0  0  0
    0.6926    8.0256   -2.3451 H   0  0  0  0  0  0  0  0  0  0  0  0
    0.2664    7.9298   -0.5566 H   0  0  0  0  0  0  0  0  0  0  0  0
   -1.2630    6.5445   -2.1948 H   0  0  0  0  0  0  0  0  0  0  0  0
   -2.9780   10.1995   -2.1209 H   0  0  0  0  0  0  0  0  0  0  0  0
   -3.5999    9.0044    0.6509 H   0  0  0  0  0  0  0  0  0  0  0  0
   -4.0840   10.6470    0.0360 H   0  0  0  0  0  0  0  0  0  0  0  0
   -5.9603    9.0346   -0.0258 H   0  0  0  0  0  0  0  0  0  0  0  0
   -5.4875    9.6299   -1.6652 H   0  0  0  0  0  0  0  0  0  0  0  0
   -5.8926    7.2675   -1.7900 H   0  0  0  0  0  0  0  0  0  0  0  0
   -5.1640    7.1590    0.6290 H   0  0  0  0  0  0  0  0  0  0  0  0
   -4.8136    8.9905   -3.4526 H   0  0  0  0  0  0  0  0  0  0  0  0
   -3.3273    8.3367   -4.2209 H   0  0  0  0  0  0  0  0  0  0  0  0
   -4.8394    7.3670   -4.2209 H   0  0  0  0  0  0  0  0  0  0  0  0
   -3.5493    5.3748   -1.6318 H   0  0  0  0  0  0  0  0  0  0  0  0
   -4.4767    5.5426   -3.1610 H   0  0  0  0  0  0  0  0  0  0  0  0
   -2.6952    5.7732   -3.1610 H   0  0  0  0  0  0  0  0  0  0  0  0
   -1.6435   10.6912    1.4414 H   0  0  0  0  0  0  0  0  0  0  0  0
   -1.6936    8.9468    1.0158 H   0  0  0  0  0  0  0  0  0  0  0  0
   -0.1275    9.8266    1.0158 H   0  0  0  0  0  0  0  0  0  0  0  0
   -2.6727   12.0495   -0.5546 H   0  0  0  0  0  0  0  0  0  0  0  0
   -0.9194   12.2416    0.0151 H   0  0  0  0  0  0  0  0  0  0  0  0
   -1.9543   12.2955   -2.8328 H   0  0  0  0  0  0  0  0  0  0  0  0
   -1.2124   13.6374   -1.8759 H   0  0  0  0  0  0  0  0  0  0  0  0
    0.7796   12.3877   -0.4254 H   0  0  0  0  0  0  0  0  0  0  0  0
    2.1347   12.0014   -1.5395 H   0  0  0  0  0  0  0  0  0  0  0  0
    1.4131   13.6464   -1.5395 H   0  0  0  0  0  0  0  0  0  0  0  0
  1  2  1  0
  2  3  1  0
  3  4  1  0
  4  5  1  0
  5  6  1  0
  6  7  1  0
  7  8  1  0
  7  9  1  0
  2 10  1  0
 10 11  1  0
 11 12  1  0
 12 13  1  0
 13 14  1  6
 13 15  1  0
 15 16  1  0
 16 17  1  0
 17 18  2  0
 18 19  1  0
 19 20  1  0
 20 21  1  0
 21 22  1  0
 22 23  1  0
 22 24  1  0
 24 25  1  0
 24 26  1  0
 19 27  1  0
 27 28  1  1
 27 29  1  0
 29 30  1  0
 30 31  1  0
 31 32  1  1
  7  5  1  0
 31 10  1  0
 31 13  1  0
 27 15  1  0
 24 18  1  0
  1 33  1  0
  1 34  1  0
  1 35  1  0
  2 36  1  6
  3 37  1  0
  3 38  1  0
  4 39  1  0
  4 40  1  0
  5 41  1  1
  8 42  1  0
  8 43  1  0
  8 44  1  0
  9 45  1  0
  9 46  1  0
  9 47  1  0
 10 48  1  6
 11 49  1  0
 11 50  1  0
 12 51  1  0
 12 52  1  0
 14 53  1  0
 14 54  1  0
 14 55  1  0
 15 56  1  1
 16 57  1  0
 16 58  1  0
 17 59  1  0
 19 60  1  6
 20 61  1  0
 20 62  1  0
 21 63  1  0
 21 64  1  0
 22 65  1  6
 23 66  1  0
 25 67  1  0
 25 68  1  0
 25 69  1  0
 26 70  1  0
 26 71  1  0
 26 72  1  0
 28 73  1  0
 28 74  1  0
 28 75  1  0
 29 76  1  0
 29 77  1  0
 30 78  1  0
 30 79  1  0
 32 80  1  0
 32 81  1  0
 32 82  1  0
M  END
>  <meeko>  (16) 
{"is_sidechain": [false], "intermolecular_energy": 2.731, "internal_energy": -0.839}

$$$$
EPH_relaxed_0001_pdb2pqr_Repair_368_r2_0001_out
     RDKit          3D

 82 86  0  0  0  0  0  0  0  0999 V2000
   -1.7350   14.8330    0.4600 C   0  0  0  0  0  0  0  0  0  0  0  0
   -0.3890   15.5340    0.2540 C   0  0  2  0  0  0  0  0  0  0  0  0
   -0.4360   16.5500   -0.9050 C   0  0  0  0  0  0  0  0  0  0  0  0
   -0.0450   17.9720   -0.4930 C   0  0  0  0  0  0  0  0  0  0  0  0
    1.3820   18.0460   -0.0400 C   0  0  2  0  0  0  0  0  0  0  0  0
    2.0500   19.2730   -0.3610 O   0  0  0  0  0  0  0  0  0  0  0  0
    2.5610   18.0890   -0.9940 C   0  0  0  0  0  0  0  0  0  0  0  0
    2.3660   18.0600   -2.4780 C   0  0  0  0  0  0  0  0  0  0  0  0
    3.9060   17.6690   -0.4890 C   0  0  0  0  0  0  0  0  0  0  0  0
    0.7010   14.5010   -0.0030 C   0  0  1  0  0  0  0  0  0  0  0  0
    0.8310   13.4700    1.1500 C   0  0  0  0  0  0  0  0  0  0  0  0
    1.2070   12.1150    0.4980 C   0  0  0  0  0  0  0  0  0  0  0  0
    1.6050   12.4760   -0.9520 C   0  0  1  0  0  0  0  0  0  0  0  0
    3.0790   12.9800   -0.8500 C   0  0  0  0  0  0  0  0  0  0  0  0
    1.4560   11.3390   -2.0140 C   0  0  2  0  0  0  0  0  0  0  0  0
    2.3390   10.1020   -1.7730 C   0  0  0  0  0  0  0  0  0  0  0  0
    3.6840   10.1430   -2.4180 C   0  0  0  0  0  0  0  0  0  0  0  0
    4.0600   10.9960   -3.3890 C   0  0  0  0  0  0  0  0  0  0  0  0
    3.0560   11.9800   -4.0060 C   0  0  1  0  0  0  0  0  0  0  0  0
    3.1830   11.9480   -5.5510 C   0  0  0  0  0  0  0  0  0  0  0  0
    4.6110   12.1980   -6.0270 C   0  0  0  0  0  0  0  0  0  0  0  0
    5.5690   11.1650   -5.4390 C   0  0  2  0  0  0  0  0  0  0  0  0
    5.2540    9.8800   -5.9850 O   0  0  0  0  0  0  0  0  0  0  0  0
    5.5230   11.0990   -3.8870 C   0  0  0  0  0  0  0  0  0  0  0  0
    6.1490   12.3840   -3.2920 C   0  0  0  0  0  0  0  0  0  0  0  0
    6.4290    9.9230   -3.4320 C   0  0  0  0  0  0  0  0  0  0  0  0
    1.5520   11.8350   -3.5130 C   0  0  1  0  0  0  0  0  0  0  0  0
    0.8080   10.7750   -4.3820 C   0  0  0  0  0  0  0  0  0  0  0  0
    0.8030   13.2010   -3.7410 C   0  0  0  0  0  0  0  0  0  0  0  0
    0.8880   14.2380   -2.6050 C   0  0  0  0  0  0  0  0  0  0  0  0
    0.5480   13.6010   -1.2540 C   0  0  2  0  0  0  0  0  0  0  0  0
   -0.9370   13.1050   -1.3190 C   0  0  0  0  0  0  0  0  0  0  0  0
   -1.9335   14.7296    1.5370 H   0  0  0  0  0  0  0  0  0  0  0  0
   -2.5340   15.4295   -0.0045 H   0  0  0  0  0  0  0  0  0  0  0  0
   -1.7042   13.8364   -0.0045 H   0  0  0  0  0  0  0  0  0  0  0  0
   -0.1619   16.0924    1.1741 H   0  0  0  0  0  0  0  0  0  0  0  0
    0.2565   16.2132   -1.6904 H   0  0  0  0  0  0  0  0  0  0  0  0
   -1.4783   16.5915   -1.2541 H   0  0  0  0  0  0  0  0  0  0  0  0
   -0.1807   18.6426   -1.3543 H   0  0  0  0  0  0  0  0  0  0  0  0
   -0.6874   18.2741    0.3473 H   0  0  0  0  0  0  0  0  0  0  0  0
    1.1618   17.4146    0.8334 H   0  0  0  0  0  0  0  0  0  0  0  0
    1.3014   17.9017   -2.7049 H   0  0  0  0  0  0  0  0  0  0  0  0
    2.6946   19.0169   -2.9098 H   0  0  0  0  0  0  0  0  0  0  0  0
    2.9588   17.2401   -2.9098 H   0  0  0  0  0  0  0  0  0  0  0  0
    3.9015   17.6704    0.6110 H   0  0  0  0  0  0  0  0  0  0  0  0
    4.1348   16.6566   -0.8534 H   0  0  0  0  0  0  0  0  0  0  0  0
    4.6702   18.3713   -0.8534 H   0  0  0  0  0  0  0  0  0  0  0  0
    1.5643   15.1715   -0.1256 H   0  0  0  0  0  0  0  0  0  0  0  0
    1.6177   13.7839    1.8519 H   0  0  0  0  0  0  0  0  0  0  0  0
   -0.1092   13.3889    1.7152 H   0  0  0  0  0  0  0  0  0  0  0  0
    2.0514   11.6502    1.0280 H   0  0  0  0  0  0  0  0  0  0  0  0
    0.3799   11.3908    0.5352 H   0  0  0  0  0  0  0  0  0  0  0  0
    3.3611   13.0765    0.2088 H   0  0  0  0  0  0  0  0  0  0  0  0
    3.7478   12.2595   -1.3435 H   0  0  0  0  0  0  0  0  0  0  0  0
    3.1667   13.9592   -1.3435 H   0  0  0  0  0  0  0  0  0  0  0  0
    0.4207   11.0026   -1.8558 H   0  0  0  0  0  0  0  0  0  0  0  0
    2.4855    9.9953   -0.6880 H   0  0  0  0  0  0  0  0  0  0  0  0
    1.8076    9.2550   -2.2315 H   0  0  0  0  0  0  0  0  0  0  0  0
    4.4314    9.4145   -2.0706 H   0  0  0  0  0  0  0  0  0  0  0  0
    3.3343   12.9756   -3.6300 H   0  0  0  0  0  0  0  0  0  0  0  0
    2.8594   10.9602   -5.9108 H   0  0  0  0  0  0  0  0  0  0  0  0
    2.5513   12.7532   -5.9543 H   0  0  0  0  0  0  0  0  0  0  0  0
    4.6413   12.1338   -7.1247 H   0  0  0  0  0  0  0  0  0  0  0  0
    4.9234   13.1982   -5.6923 H   0  0  0  0  0  0  0  0  0  0  0  0
    6.5902   11.4719   -5.7091 H   0  0  0  0  0  0  0  0  0  0  0  0
    5.0340    9.2920   -5.2440 H   0  0  0  0  0  0  0  0  0  0  0  0
    6.1227   12.3300   -2.1936 H   0  0  0  0  0  0  0  0  0  0  0  0
    7.1920   12.4741   -3.6298 H   0  0  0  0  0  0  0  0  0  0  0  0
    5.5771   13.2608   -3.6298 H   0  0  0  0  0  0  0  0  0  0  0  0
    6.4575    9.8860   -2.3330 H   0  0  0  0  0  0  0  0  0  0  0  0
    6.0242    8.9768   -3.8203 H   0  0  0  0  0  0  0  0  0  0  0  0
    7.4472   10.0730   -3.8203 H   0  0  0  0  0  0  0  0  0  0  0  0
    0.3011   10.0528   -3.7251 H   0  0  0  0  0  0  0  0  0  0  0  0
    0.0639   11.2783   -5.0169 H   0  0  0  0  0  0  0  0  0  0  0  0
    1.5342   10.2463   -5.0169 H   0  0  0  0  0  0  0  0  0  0  0  0
    1.2232   13.6638   -4.6461 H   0  0  0  0  0  0  0  0  0  0  0  0
   -0.2626   12.9368   -3.8103 H   0  0  0  0  0  0  0  0  0  0  0  0
    1.9095   14.6442   -2.5643 H   0  0  0  0  0  0  0  0  0  0  0  0
    0.1624   15.0397   -2.8071 H   0  0  0  0  0  0  0  0  0  0  0  0
   -1.3253   12.9753   -0.2980 H   0  0  0  0  0  0  0  0  0  0  0  0
   -1.5486   13.8476   -1.8523 H   0  0  0  0  0  0  0  0  0  0  0  0
   -0.9795   12.1439   -1.8523 H   0  0  0  0  0  0  0  0  0  0  0  0
  1  2  1  0
  2  3  1  0
  3  4  1  0
  4  5  1  0
  5  6  1  0
  6  7  1  0
  7  8  1  0
  7  9  1  0
  2 10  1  0
 10 11  1  0
 11 12  1  0
 12 13  1  0
 13 14  1  1
 13 15  1  0
 15 16  1  0
 16 17  1  0
 17 18  2  0
 18 19  1  0
 19 20  1  0
 20 21  1  0
 21 22  1  0
 22 23  1  0
 22 24  1  0
 24 25  1  0
 24 26  1  0
 19 27  1  0
 27 28  1  6
 27 29  1  0
 29 30  1  0
 30 31  1  0
 31 32  1  6
  7  5  1  0
 31 10  1  0
 31 13  1  0
 27 15  1  0
 24 18  1  0
  1 33  1  0
  1 34  1  0
  1 35  1  0
  2 36  1  1
  3 37  1  0
  3 38  1  0
  4 39  1  0
  4 40  1  0
  5 41  1  1
  8 42  1  0
  8 43  1  0
  8 44  1  0
  9 45  1  0
  9 46  1  0
  9 47  1  0
 10 48  1  6
 11 49  1  0
 11 50  1  0
 12 51  1  0
 12 52  1  0
 14 53  1  0
 14 54  1  0
 14 55  1  0
 15 56  1  6
 16 57  1  0
 16 58  1  0
 17 59  1  0
 19 60  1  1
 20 61  1  0
 20 62  1  0
 21 63  1  0
 21 64  1  0
 22 65  1  1
 23 66  1  0
 25 67  1  0
 25 68  1  0
 25 69  1  0
 26 70  1  0
 26 71  1  0
 26 72  1  0
 28 73  1  0
 28 74  1  0
 28 75  1  0
 29 76  1  0
 29 77  1  0
 30 78  1  0
 30 79  1  0
 32 80  1  0
 32 81  1  0
 32 82  1  0
M  END
>  <meeko>  (17) 
{"is_sidechain": [false], "intermolecular_energy": 2.731, "internal_energy": -0.839}

$$$$
EPH_relaxed_0001_pdb2pqr_Repair_368_r2_0001_out
     RDKit          3D

 82 86  0  0  0  0  0  0  0  0999 V2000
    1.6860   15.4100   -0.6680 C   0  0  0  0  0  0  0  0  0  0  0  0
    1.6420   15.1180   -2.1710 C   0  0  2  0  0  0  0  0  0  0  0  0
    1.1930   16.3450   -2.9880 C   0  0  0  0  0  0  0  0  0  0  0  0
    1.8490   17.6550   -2.5420 C   0  0  0  0  0  0  0  0  0  0  0  0
    0.8620   18.5760   -1.8920 C   0  0  2  0  0  0  0  0  0  0  0  0
    1.2970   19.9370   -1.7780 O   0  0  0  0  0  0  0  0  0  0  0  0
    1.0930   19.2320   -0.5430 C   0  0  0  0  0  0  0  0  0  0  0  0
    2.3470   18.9930    0.2360 C   0  0  0  0  0  0  0  0  0  0  0  0
   -0.0950   19.7090    0.2330 C   0  0  0  0  0  0  0  0  0  0  0  0
    0.7130   13.9410   -2.4440 C   0  0  1  0  0  0  0  0  0  0  0  0
    0.9910   13.2660   -3.8140 C   0  0  0  0  0  0  0  0  0  0  0  0
    0.7280   11.7500   -3.6280 C   0  0  0  0  0  0  0  0  0  0  0  0
   -0.0050   11.6460   -2.2700 C   0  0  1  0  0  0  0  0  0  0  0  0
   -1.4930   11.9930   -2.5890 C   0  0  0  0  0  0  0  0  0  0  0  0
    0.1210   10.2790   -1.5200 C   0  0  2  0  0  0  0  0  0  0  0  0
   -0.4750    9.0700   -2.2620 C   0  0  0  0  0  0  0  0  0  0  0  0
   -1.9090    8.7820   -1.9640 C   0  0  0  0  0  0  0  0  0  0  0  0
   -2.6080    9.2830   -0.9280 C   0  0  0  0  0  0  0  0  0  0  0  0
   -1.9280   10.1580    0.1320 C   0  0  1  0  0  0  0  0  0  0  0  0
   -2.3510    9.6810    1.5470 C   0  0  0  0  0  0  0  0  0  0  0  0
   -3.8660    9.6300    1.7180 C   0  0  0  0  0  0  0  0  0  0  0  0
   -4.5000    8.7040    0.6830 C   0  0  2  0  0  0  0  0  0  0  0  0
   -4.0870    7.3610    0.9510 O   0  0  0  0  0  0  0  0  0  0  0  0
   -4.1370    9.0810   -0.7810 C   0  0  0  0  0  0  0  0  0  0  0  0
   -4.8410   10.4050   -1.1680 C   0  0  0  0  0  0  0  0  0  0  0  0
   -4.7230    7.9880   -1.7150 C   0  0  0  0  0  0  0  0  0  0  0  0
   -0.3530   10.3220   -0.0110 C   0  0  1  0  0  0  0  0  0  0  0  0
    0.3720    9.1490    0.7170 C   0  0  0  0  0  0  0  0  0  0  0  0
    0.0940   11.6430    0.7200 C   0  0  0  0  0  0  0  0  0  0  0  0
    0.0620   12.9410   -0.1090 C   0  0  0  0  0  0  0  0  0  0  0  0
    0.7650   12.7490   -1.4560 C   0  0  2  0  0  0  0  0  0  0  0  0
    2.2700   12.4200   -1.1680 C   0  0  0  0  0  0  0  0  0  0  0  0
    1.5449   14.4736   -0.1083 H   0  0  0  0  0  0  0  0  0  0  0  0
    2.6605   15.8492   -0.4082 H   0  0  0  0  0  0  0  0  0  0  0  0
    0.8842   16.1169   -0.4082 H   0  0  0  0  0  0  0  0  0  0  0  0
    2.6643   14.8664   -2.4897 H   0  0  0  0  0  0  0  0  0  0  0  0
    1.4474   16.1711   -4.0440 H   0  0  0  0  0  0  0  0  0  0  0  0
    0.1102   16.4576   -2.8302 H   0  0  0  0  0  0  0  0  0  0  0  0
    2.6497   17.4261   -1.8234 H   0  0  0  0  0  0  0  0  0  0  0  0
    2.2514   18.1579   -3.4337 H   0  0  0  0  0  0  0  0  0  0  0  0
    0.0193   17.9960   -2.2962 H   0  0  0  0  0  0  0  0  0  0  0  0
    2.1238   19.0355    1.3123 H   0  0  0  0  0  0  0  0  0  0  0  0
    2.7516   18.0016   -0.0156 H   0  0  0  0  0  0  0  0  0  0  0  0
    3.0879   19.7661   -0.0156 H   0  0  0  0  0  0  0  0  0  0  0  0
    0.1129   19.6255    1.3099 H   0  0  0  0  0  0  0  0  0  0  0  0
   -0.3008   20.7595   -0.0204 H   0  0  0  0  0  0  0  0  0  0  0  0
   -0.9701   19.0925   -0.0204 H   0  0  0  0  0  0  0  0  0  0  0  0
   -0.2583   14.4514   -2.3665 H   0  0  0  0  0  0  0  0  0  0  0  0
    0.3179   13.6757   -4.5815 H   0  0  0  0  0  0  0  0  0  0  0  0
    2.0247   13.4499   -4.1420 H   0  0  0  0  0  0  0  0  0  0  0  0
    0.0964   11.3626   -4.4411 H   0  0  0  0  0  0  0  0  0  0  0  0
    1.6560   11.1597   -3.6479 H   0  0  0  0  0  0  0  0  0  0  0  0
   -2.0490   12.1226   -1.6487 H   0  0  0  0  0  0  0  0  0  0  0  0
   -1.5354   12.9251   -3.1715 H   0  0  0  0  0  0  0  0  0  0  0  0
   -1.9433   11.1758   -3.1715 H   0  0  0  0  0  0  0  0  0  0  0  0
    1.2087   10.1156   -1.5087 H   0  0  0  0  0  0  0  0  0  0  0  0
   -0.3830    9.2553   -3.3424 H   0  0  0  0  0  0  0  0  0  0  0  0
    0.0899    8.1920   -1.9156 H   0  0  0  0  0  0  0  0  0  0  0  0
   -2.4393    8.1034   -2.6483 H   0  0  0  0  0  0  0  0  0  0  0  0
   -2.2909   11.1820   -0.0406 H   0  0  0  0  0  0  0  0  0  0  0  0
   -1.9428    8.6736    1.7163 H   0  0  0  0  0  0  0  0  0  0  0  0
   -1.9568   10.4050    2.2753 H   0  0  0  0  0  0  0  0  0  0  0  0
   -4.1024    9.2588    2.7261 H   0  0  0  0  0  0  0  0  0  0  0  0
   -4.2700   10.6434    1.5773 H   0  0  0  0  0  0  0  0  0  0  0  0
   -5.5914    8.8086    0.7719 H   0  0  0  0  0  0  0  0  0  0  0  0
   -3.4510    7.1050    0.2610 H   0  0  0  0  0  0  0  0  0  0  0  0
   -5.1294   10.9473   -0.2554 H   0  0  0  0  0  0  0  0  0  0  0  0
   -4.1538   11.0257   -1.7617 H   0  0  0  0  0  0  0  0  0  0  0  0
   -5.7399   10.1824   -1.7617 H   0  0  0  0  0  0  0  0  0  0  0  0
   -5.1562    7.1800   -1.1071 H   0  0  0  0  0  0  0  0  0  0  0  0
   -5.5056    8.4292   -2.3498 H   0  0  0  0  0  0  0  0  0  0  0  0
   -3.9224    7.5804   -2.3498 H   0  0  0  0  0  0  0  0  0  0  0  0
    0.2879    9.2850    1.8053 H   0  0  0  0  0  0  0  0  0  0  0  0
   -0.0942    8.1950    0.4296 H   0  0  0  0  0  0  0  0  0  0  0  0
    1.4338    9.1395    0.4296 H   0  0  0  0  0  0  0  0  0  0  0  0
   -0.5694   11.7848    1.5859 H   0  0  0  0  0  0  0  0  0  0  0  0
    1.1537   11.4882    0.9712 H   0  0  0  0  0  0  0  0  0  0  0  0
   -0.9847   13.2284   -0.2872 H   0  0  0  0  0  0  0  0  0  0  0  0
    0.5875   13.7281    0.4517 H   0  0  0  0  0  0  0  0  0  0  0  0
    2.4359   12.3837   -0.0812 H   0  0  0  0  0  0  0  0  0  0  0  0
    2.5234   11.4453   -1.6103 H   0  0  0  0  0  0  0  0  0  0  0  0
    2.9070   13.2001   -1.6103 H   0  0  0  0  0  0  0  0  0  0  0  0
  1  2  1  0
  2  3  1  0
  3  4  1  0
  4  5  1  0
  5  6  1  0
  6  7  1  0
  7  8  1  0
  7  9  1  0
  2 10  1  0
 10 11  1  0
 11 12  1  0
 12 13  1  0
 13 14  1  6
 13 15  1  0
 15 16  1  0
 16 17  1  0
 17 18  2  0
 18 19  1  0
 19 20  1  0
 20 21  1  0
 21 22  1  0
 22 23  1  0
 22 24  1  0
 24 25  1  0
 24 26  1  0
 19 27  1  0
 27 28  1  1
 27 29  1  0
 29 30  1  0
 30 31  1  0
 31 32  1  1
  7  5  1  0
 31 10  1  0
 31 13  1  0
 27 15  1  0
 24 18  1  0
  1 33  1  0
  1 34  1  0
  1 35  1  0
  2 36  1  6
  3 37  1  0
  3 38  1  0
  4 39  1  0
  4 40  1  0
  5 41  1  1
  8 42  1  0
  8 43  1  0
  8 44  1  0
  9 45  1  0
  9 46  1  0
  9 47  1  0
 10 48  1  6
 11 49  1  0
 11 50  1  0
 12 51  1  0
 12 52  1  0
 14 53  1  0
 14 54  1  0
 14 55  1  0
 15 56  1  1
 16 57  1  0
 16 58  1  0
 17 59  1  0
 19 60  1  6
 20 61  1  0
 20 62  1  0
 21 63  1  0
 21 64  1  0
 22 65  1  6
 23 66  1  0
 25 67  1  0
 25 68  1  0
 25 69  1  0
 26 70  1  0
 26 71  1  0
 26 72  1  0
 28 73  1  0
 28 74  1  0
 28 75  1  0
 29 76  1  0
 29 77  1  0
 30 78  1  0
 30 79  1  0
 32 80  1  0
 32 81  1  0
 32 82  1  0
M  END
>  <meeko>  (18) 
{"is_sidechain": [false], "intermolecular_energy": 2.731, "internal_energy": -0.839}

$$$$
