EPH_relaxed_0001_pdb2pqr_Repair_394_r2_0001_out
     RDKit          3D

 82 86  0  0  0  0  0  0  0  0999 V2000
   -1.8580    8.8550   -1.8090 C   0  0  0  0  0  0  0  0  0  0  0  0
   -1.8120    9.1060   -0.2990 C   0  0  2  0  0  0  0  0  0  0  0  0
   -3.2210    9.2790    0.3030 C   0  0  0  0  0  0  0  0  0  0  0  0
   -4.3450    9.2280   -0.7360 C   0  0  0  0  0  0  0  0  0  0  0  0
   -4.9470    7.8590   -0.8340 C   0  0  2  0  0  0  0  0  0  0  0  0
   -5.0610    7.3500   -2.1690 O   0  0  0  0  0  0  0  0  0  0  0  0
   -6.2960    7.5820   -1.4720 C   0  0  0  0  0  0  0  0  0  0  0  0
   -7.1250    8.6840   -2.0530 C   0  0  0  0  0  0  0  0  0  0  0  0
   -7.0210    6.3280   -1.0960 C   0  0  0  0  0  0  0  0  0  0  0  0
   -0.9640   10.3370   -0.0020 C   0  0  1  0  0  0  0  0  0  0  0  0
    0.1360   10.0630    1.0570 C   0  0  0  0  0  0  0  0  0  0  0  0
    1.3650   10.9200    0.6580 C   0  0  0  0  0  0  0  0  0  0  0  0
    0.8270   11.8990   -0.4110 C   0  0  1  0  0  0  0  0  0  0  0  0
    0.1380   13.0400    0.4010 C   0  0  0  0  0  0  0  0  0  0  0  0
    1.8770   12.4640   -1.4220 C   0  0  2  0  0  0  0  0  0  0  0  0
    2.9980   13.3100   -0.7940 C   0  0  0  0  0  0  0  0  0  0  0  0
    2.7170   14.7730   -0.7020 C   0  0  0  0  0  0  0  0  0  0  0  0
    1.7390   15.4250   -1.3590 C   0  0  0  0  0  0  0  0  0  0  0  0
    0.8520   14.6950   -2.3760 C   0  0  1  0  0  0  0  0  0  0  0  0
    0.7310   15.5500   -3.6650 C   0  0  0  0  0  0  0  0  0  0  0  0
    0.2480   16.9690   -3.3820 C   0  0  0  0  0  0  0  0  0  0  0  0
    1.1870   17.6820   -2.4120 C   0  0  2  0  0  0  0  0  0  0  0  0
    2.4500   17.8790   -3.0550 O   0  0  0  0  0  0  0  0  0  0  0  0
    1.3940   16.9080   -1.0800 C   0  0  0  0  0  0  0  0  0  0  0  0
    0.0920   16.9560   -0.2430 C   0  0  0  0  0  0  0  0  0  0  0  0
    2.4700   17.6620   -0.2530 C   0  0  0  0  0  0  0  0  0  0  0  0
    1.2440   13.1850   -2.6800 C   0  0  1  0  0  0  0  0  0  0  0  0
    2.3160   13.1310   -3.8120 C   0  0  0  0  0  0  0  0  0  0  0  0
   -0.0210   12.4270   -3.2310 C   0  0  0  0  0  0  0  0  0  0  0  0
   -0.9570   11.7880   -2.1870 C   0  0  0  0  0  0  0  0  0  0  0  0
   -0.1640   10.9510   -1.1790 C   0  0  2  0  0  0  0  0  0  0  0  0
    0.5220    9.7810   -1.9640 C   0  0  0  0  0  0  0  0  0  0  0  0
   -2.0534    7.7891   -1.9977 H   0  0  0  0  0  0  0  0  0  0  0  0
   -2.6603    9.4597   -2.2569 H   0  0  0  0  0  0  0  0  0  0  0  0
   -0.8934    9.1359   -2.2569 H   0  0  0  0  0  0  0  0  0  0  0  0
   -1.3583    8.2206    0.1703 H   0  0  0  0  0  0  0  0  0  0  0  0
   -3.3874    8.4743    1.0343 H   0  0  0  0  0  0  0  0  0  0  0  0
   -3.2536   10.2777    0.7630 H   0  0  0  0  0  0  0  0  0  0  0  0
   -5.1298    9.9428   -0.4477 H   0  0  0  0  0  0  0  0  0  0  0  0
   -3.9180    9.4860   -1.7163 H   0  0  0  0  0  0  0  0  0  0  0  0
   -4.5186    7.5749    0.1385 H   0  0  0  0  0  0  0  0  0  0  0  0
   -7.5702    9.2758   -1.2396 H   0  0  0  0  0  0  0  0  0  0  0  0
   -6.4894    9.3331   -2.6732 H   0  0  0  0  0  0  0  0  0  0  0  0
   -7.9248    8.2532   -2.6732 H   0  0  0  0  0  0  0  0  0  0  0  0
   -7.0682    6.2463   -0.0001 H   0  0  0  0  0  0  0  0  0  0  0  0
   -8.0414    6.3575   -1.5058 H   0  0  0  0  0  0  0  0  0  0  0  0
   -6.4863    5.4584   -1.5058 H   0  0  0  0  0  0  0  0  0  0  0  0
   -1.7541   11.0319    0.3189 H   0  0  0  0  0  0  0  0  0  0  0  0
   -0.2198   10.3534    2.0565 H   0  0  0  0  0  0  0  0  0  0  0  0
    0.3941    8.9942    1.0907 H   0  0  0  0  0  0  0  0  0  0  0  0
    1.7538   11.4700    1.5277 H   0  0  0  0  0  0  0  0  0  0  0  0
    2.1968   10.3067    0.2812 H   0  0  0  0  0  0  0  0  0  0  0  0
    0.2550   12.8462    1.4774 H   0  0  0  0  0  0  0  0  0  0  0  0
    0.6055   14.0033    0.1489 H   0  0  0  0  0  0  0  0  0  0  0  0
   -0.9322   13.0747    0.1489 H   0  0  0  0  0  0  0  0  0  0  0  0
    2.3641   11.5493   -1.7909 H   0  0  0  0  0  0  0  0  0  0  0  0
    3.1782   12.9338    0.2238 H   0  0  0  0  0  0  0  0  0  0  0  0
    3.8665   13.2082   -1.4614 H   0  0  0  0  0  0  0  0  0  0  0  0
    3.3637   15.3692   -0.0414 H   0  0  0  0  0  0  0  0  0  0  0  0
   -0.1350   14.5935   -1.9012 H   0  0  0  0  0  0  0  0  0  0  0  0
    1.7183   15.6031   -4.1470 H   0  0  0  0  0  0  0  0  0  0  0  0
   -0.0122   15.0679   -4.3171 H   0  0  0  0  0  0  0  0  0  0  0  0
    0.2111   17.5317   -4.3264 H   0  0  0  0  0  0  0  0  0  0  0  0
   -0.7520   16.9152   -2.9269 H   0  0  0  0  0  0  0  0  0  0  0  0
    0.7215   18.6429   -2.1474 H   0  0  0  0  0  0  0  0  0  0  0  0
    3.0880   18.1520   -2.3740 H   0  0  0  0  0  0  0  0  0  0  0  0
    0.3439   16.9467    0.8277 H   0  0  0  0  0  0  0  0  0  0  0  0
   -0.4633   17.8752   -0.4811 H   0  0  0  0  0  0  0  0  0  0  0  0
   -0.5295   16.0802   -0.4811 H   0  0  0  0  0  0  0  0  0  0  0  0
    2.2717   17.5230    0.8200 H   0  0  0  0  0  0  0  0  0  0  0  0
    3.4658   17.2631   -0.4965 H   0  0  0  0  0  0  0  0  0  0  0  0
    2.4349   18.7341   -0.4965 H   0  0  0  0  0  0  0  0  0  0  0  0
    3.3196   13.0804   -3.3645 H   0  0  0  0  0  0  0  0  0  0  0  0
    2.1470   12.2402   -4.4349 H   0  0  0  0  0  0  0  0  0  0  0  0
    2.2373   14.0342   -4.4349 H   0  0  0  0  0  0  0  0  0  0  0  0
   -0.6140   13.1482   -3.8126 H   0  0  0  0  0  0  0  0  0  0  0  0
    0.3793   11.5839   -3.8132 H   0  0  0  0  0  0  0  0  0  0  0  0
   -1.4940   12.5839   -1.6503 H   0  0  0  0  0  0  0  0  0  0  0  0
   -1.6665   11.1290   -2.7089 H   0  0  0  0  0  0  0  0  0  0  0  0
    0.9453    9.0591   -1.2501 H   0  0  0  0  0  0  0  0  0  0  0  0
   -0.2237    9.2770   -2.5965 H   0  0  0  0  0  0  0  0  0  0  0  0
    1.3259   10.1856   -2.5965 H   0  0  0  0  0  0  0  0  0  0  0  0
  1  2  1  0
  2  3  1  0
  3  4  1  0
  4  5  1  0
  5  6  1  0
  6  7  1  0
  7  8  1  0
  7  9  1  0
  2 10  1  0
 10 11  1  0
 11 12  1  0
 12 13  1  0
 13 14  1  1
 13 15  1  0
 15 16  1  0
 16 17  1  0
 17 18  2  0
 18 19  1  0
 19 20  1  0
 20 21  1  0
 21 22  1  0
 22 23  1  0
 22 24  1  0
 24 25  1  0
 24 26  1  0
 19 27  1  0
 27 28  1  6
 27 29  1  0
 29 30  1  0
 30 31  1  0
 31 32  1  6
  7  5  1  0
 31 10  1  0
 31 13  1  0
 27 15  1  0
 24 18  1  0
  1 33  1  0
  1 34  1  0
  1 35  1  0
  2 36  1  1
  3 37  1  0
  3 38  1  0
  4 39  1  0
  4 40  1  0
  5 41  1  1
  8 42  1  0
  8 43  1  0
  8 44  1  0
  9 45  1  0
  9 46  1  0
  9 47  1  0
 10 48  1  1
 11 49  1  0
 11 50  1  0
 12 51  1  0
 12 52  1  0
 14 53  1  0
 14 54  1  0
 14 55  1  0
 15 56  1  6
 16 57  1  0
 16 58  1  0
 17 59  1  0
 19 60  1  1
 20 61  1  0
 20 62  1  0
 21 63  1  0
 21 64  1  0
 22 65  1  1
 23 66  1  0
 25 67  1  0
 25 68  1  0
 25 69  1  0
 26 70  1  0
 26 71  1  0
 26 72  1  0
 28 73  1  0
 28 74  1  0
 28 75  1  0
 29 76  1  0
 29 77  1  0
 30 78  1  0
 30 79  1  0
 32 80  1  0
 32 81  1  0
 32 82  1  0
M  END
>  <meeko>  (1) 
{"is_sidechain": [false], "intermolecular_energy": 2.731, "internal_energy": -0.839}

$$$$
EPH_relaxed_0001_pdb2pqr_Repair_394_r2_0001_out
     RDKit          3D

 82 86  0  0  0  0  0  0  0  0999 V2000
    1.9720   19.6640   -0.5360 C   0  0  0  0  0  0  0  0  0  0  0  0
    2.3790   18.4250    0.2670 C   0  0  2  0  0  0  0  0  0  0  0  0
    3.8280   17.9910   -0.0300 C   0  0  0  0  0  0  0  0  0  0  0  0
    4.8020   18.2710    1.1180 C   0  0  0  0  0  0  0  0  0  0  0  0
    4.1500   19.0510    2.2190 C   0  0  2  0  0  0  0  0  0  0  0  0
    4.8950   20.1920    2.6670 O   0  0  0  0  0  0  0  0  0  0  0  0
    4.7100   19.1390    3.6270 C   0  0  0  0  0  0  0  0  0  0  0  0
    5.9730   18.4340    4.0100 C   0  0  0  0  0  0  0  0  0  0  0  0
    3.7820   19.4990    4.7450 C   0  0  0  0  0  0  0  0  0  0  0  0
    1.4210   17.2770   -0.0290 C   0  0  1  0  0  0  0  0  0  0  0  0
    0.1620   17.7360   -0.8130 C   0  0  0  0  0  0  0  0  0  0  0  0
   -0.2170   16.5750   -1.7690 C   0  0  0  0  0  0  0  0  0  0  0  0
    0.6200   15.3730   -1.2730 C   0  0  1  0  0  0  0  0  0  0  0  0
   -0.1770   14.8020   -0.0590 C   0  0  0  0  0  0  0  0  0  0  0  0
    0.9320   14.2650   -2.3320 C   0  0  2  0  0  0  0  0  0  0  0  0
   -0.3010   13.5420   -2.9020 C   0  0  0  0  0  0  0  0  0  0  0  0
   -0.7230   12.3190   -2.1590 C   0  0  0  0  0  0  0  0  0  0  0  0
    0.0210   11.6580   -1.2530 C   0  0  0  0  0  0  0  0  0  0  0  0
    1.4690   12.0770   -0.9670 C   0  0  1  0  0  0  0  0  0  0  0  0
    2.3780   10.8200   -0.9510 C   0  0  0  0  0  0  0  0  0  0  0  0
    1.8790    9.7490    0.0150 C   0  0  0  0  0  0  0  0  0  0  0  0
    0.4580    9.3170   -0.3370 C   0  0  2  0  0  0  0  0  0  0  0  0
    0.4800    8.6450   -1.6000 O   0  0  0  0  0  0  0  0  0  0  0  0
   -0.5460   10.5020   -0.3930 C   0  0  0  0  0  0  0  0  0  0  0  0
   -0.7990   11.0380    1.0370 C   0  0  0  0  0  0  0  0  0  0  0  0
   -1.9080    9.9500   -0.8960 C   0  0  0  0  0  0  0  0  0  0  0  0
    2.0490   13.2380   -1.8850 C   0  0  1  0  0  0  0  0  0  0  0  0
    2.6470   12.6340   -3.1920 C   0  0  0  0  0  0  0  0  0  0  0  0
    3.2420   13.9390   -1.1340 C   0  0  0  0  0  0  0  0  0  0  0  0
    2.8810   15.1050   -0.1930 C   0  0  0  0  0  0  0  0  0  0  0  0
    1.9570   16.1070   -0.8920 C   0  0  2  0  0  0  0  0  0  0  0  0
    2.7400   16.7150   -2.1050 C   0  0  0  0  0  0  0  0  0  0  0  0
    1.7049   20.4772    0.1549 H   0  0  0  0  0  0  0  0  0  0  0  0
    2.8127   19.9826   -1.1698 H   0  0  0  0  0  0  0  0  0  0  0  0
    1.1061   19.4220   -1.1698 H   0  0  0  0  0  0  0  0  0  0  0  0
    2.3255   18.6892    1.3335 H   0  0  0  0  0  0  0  0  0  0  0  0
    3.8320   16.9099   -0.2330 H   0  0  0  0  0  0  0  0  0  0  0  0
    4.1699   18.5813   -0.8929 H   0  0  0  0  0  0  0  0  0  0  0  0
    5.1604   17.3132    1.5233 H   0  0  0  0  0  0  0  0  0  0  0  0
    5.6368   18.8680    0.7221 H   0  0  0  0  0  0  0  0  0  0  0  0
    3.1496   18.7993    1.8371 H   0  0  0  0  0  0  0  0  0  0  0  0
    6.0507   18.3906    5.1064 H   0  0  0  0  0  0  0  0  0  0  0  0
    5.9606   17.4123    3.6026 H   0  0  0  0  0  0  0  0  0  0  0  0
    6.8362   18.9808    3.6026 H   0  0  0  0  0  0  0  0  0  0  0  0
    4.2768   19.3070    5.7085 H   0  0  0  0  0  0  0  0  0  0  0  0
    3.5184   20.5646    4.6740 H   0  0  0  0  0  0  0  0  0  0  0  0
    2.8688   18.8899    4.6740 H   0  0  0  0  0  0  0  0  0  0  0  0
    1.2277   16.9298    0.9967 H   0  0  0  0  0  0  0  0  0  0  0  0
   -0.6650   17.9387   -0.1166 H   0  0  0  0  0  0  0  0  0  0  0  0
    0.3613   18.6609   -1.3741 H   0  0  0  0  0  0  0  0  0  0  0  0
   -1.2924   16.3530   -1.7033 H   0  0  0  0  0  0  0  0  0  0  0  0
   -0.0141   16.8186   -2.8223 H   0  0  0  0  0  0  0  0  0  0  0  0
    0.2916   15.1377    0.8779 H   0  0  0  0  0  0  0  0  0  0  0  0
   -1.2153   15.1630   -0.0995 H   0  0  0  0  0  0  0  0  0  0  0  0
   -0.1691   13.7028   -0.0995 H   0  0  0  0  0  0  0  0  0  0  0  0
    1.3494   14.8470   -3.1669 H   0  0  0  0  0  0  0  0  0  0  0  0
   -1.1427   14.2501   -2.8969 H   0  0  0  0  0  0  0  0  0  0  0  0
   -0.0163   13.2031   -3.9090 H   0  0  0  0  0  0  0  0  0  0  0  0
   -1.7278   11.9239   -2.3696 H   0  0  0  0  0  0  0  0  0  0  0  0
    1.4597   12.5436    0.0291 H   0  0  0  0  0  0  0  0  0  0  0  0
    2.4084   10.3940   -1.9647 H   0  0  0  0  0  0  0  0  0  0  0  0
    3.3767   11.1345   -0.6138 H   0  0  0  0  0  0  0  0  0  0  0  0
    2.5451    8.8754   -0.0406 H   0  0  0  0  0  0  0  0  0  0  0  0
    1.8773   10.1669    1.0325 H   0  0  0  0  0  0  0  0  0  0  0  0
    0.1088    8.6476    0.4630 H   0  0  0  0  0  0  0  0  0  0  0  0
    1.1140    9.1120   -2.1710 H   0  0  0  0  0  0  0  0  0  0  0  0
   -0.4500   10.2986    1.7728 H   0  0  0  0  0  0  0  0  0  0  0  0
   -0.2512   11.9815    1.1772 H   0  0  0  0  0  0  0  0  0  0  0  0
   -1.8756   11.2148    1.1772 H   0  0  0  0  0  0  0  0  0  0  0  0
   -2.5408    9.6936   -0.0335 H   0  0  0  0  0  0  0  0  0  0  0  0
   -2.4112   10.7151   -1.5053 H   0  0  0  0  0  0  0  0  0  0  0  0
   -1.7365    9.0504   -1.5053 H   0  0  0  0  0  0  0  0  0  0  0  0
    3.3993   11.8741   -2.9340 H   0  0  0  0  0  0  0  0  0  0  0  0
    1.8435   12.1690   -3.7821 H   0  0  0  0  0  0  0  0  0  0  0  0
    3.1200   13.4328   -3.7821 H   0  0  0  0  0  0  0  0  0  0  0  0
    3.7534   13.1725   -0.5332 H   0  0  0  0  0  0  0  0  0  0  0  0
    3.8571   14.3889   -1.9273 H   0  0  0  0  0  0  0  0  0  0  0  0
    2.3716   14.7054    0.6963 H   0  0  0  0  0  0  0  0  0  0  0  0
    3.8075   15.6235    0.0948 H   0  0  0  0  0  0  0  0  0  0  0  0
    3.5575   17.3498   -1.7326 H   0  0  0  0  0  0  0  0  0  0  0  0
    3.1570   15.9017   -2.7171 H   0  0  0  0  0  0  0  0  0  0  0  0
    2.0553   17.3204   -2.7171 H   0  0  0  0  0  0  0  0  0  0  0  0
  1  2  1  0
  2  3  1  0
  3  4  1  0
  4  5  1  0
  5  6  1  0
  6  7  1  0
  7  8  1  0
  7  9  1  0
  2 10  1  0
 10 11  1  0
 11 12  1  0
 12 13  1  0
 13 14  1  1
 13 15  1  0
 15 16  1  0
 16 17  1  0
 17 18  2  0
 18 19  1  0
 19 20  1  0
 20 21  1  0
 21 22  1  0
 22 23  1  0
 22 24  1  0
 24 25  1  0
 24 26  1  0
 19 27  1  0
 27 28  1  6
 27 29  1  0
 29 30  1  0
 30 31  1  0
 31 32  1  6
  7  5  1  0
 31 10  1  0
 31 13  1  0
 27 15  1  0
 24 18  1  0
  1 33  1  0
  1 34  1  0
  1 35  1  0
  2 36  1  1
  3 37  1  0
  3 38  1  0
  4 39  1  0
  4 40  1  0
  5 41  1  1
  8 42  1  0
  8 43  1  0
  8 44  1  0
  9 45  1  0
  9 46  1  0
  9 47  1  0
 10 48  1  1
 11 49  1  0
 11 50  1  0
 12 51  1  0
 12 52  1  0
 14 53  1  0
 14 54  1  0
 14 55  1  0
 15 56  1  6
 16 57  1  0
 16 58  1  0
 17 59  1  0
 19 60  1  1
 20 61  1  0
 20 62  1  0
 21 63  1  0
 21 64  1  0
 22 65  1  1
 23 66  1  0
 25 67  1  0
 25 68  1  0
 25 69  1  0
 26 70  1  0
 26 71  1  0
 26 72  1  0
 28 73  1  0
 28 74  1  0
 28 75  1  0
 29 76  1  0
 29 77  1  0
 30 78  1  0
 30 79  1  0
 32 80  1  0
 32 81  1  0
 32 82  1  0
M  END
>  <meeko>  (2) 
{"is_sidechain": [false], "intermolecular_energy": 2.731, "internal_energy": -0.839}

$$$$
EPH_relaxed_0001_pdb2pqr_Repair_394_r2_0001_out
     RDKit          3D

 82 86  0  0  0  0  0  0  0  0999 V2000
    2.2560   18.0570   -2.7460 C   0  0  0  0  0  0  0  0  0  0  0  0
    0.9540   17.6560   -2.0460 C   0  0  2  0  0  0  0  0  0  0  0  0
    1.0720   17.7380   -0.5110 C   0  0  0  0  0  0  0  0  0  0  0  0
    0.7320   19.1180    0.0600 C   0  0  0  0  0  0  0  0  0  0  0  0
   -0.7050   19.2080    0.4740 C   0  0  2  0  0  0  0  0  0  0  0  0
   -1.5770   18.2780   -0.1820 O   0  0  0  0  0  0  0  0  0  0  0  0
   -1.8150   19.6700   -0.4520 C   0  0  0  0  0  0  0  0  0  0  0  0
   -1.5350   20.0720   -1.8650 C   0  0  0  0  0  0  0  0  0  0  0  0
   -3.0810   20.1920    0.1540 C   0  0  0  0  0  0  0  0  0  0  0  0
    0.5530   16.2460   -2.4630 C   0  0  1  0  0  0  0  0  0  0  0  0
    0.7150   16.0050   -3.9870 C   0  0  0  0  0  0  0  0  0  0  0  0
    1.1550   14.5290   -4.1630 C   0  0  0  0  0  0  0  0  0  0  0  0
    0.9120   13.8830   -2.7790 C   0  0  1  0  0  0  0  0  0  0  0  0
   -0.6140   13.5560   -2.7510 C   0  0  0  0  0  0  0  0  0  0  0  0
    1.7780   12.6250   -2.4420 C   0  0  2  0  0  0  0  0  0  0  0  0
    1.5590   11.4150   -3.3680 C   0  0  0  0  0  0  0  0  0  0  0  0
    0.5020   10.4580   -2.9270 C   0  0  0  0  0  0  0  0  0  0  0  0
   -0.0440   10.4080   -1.6970 C   0  0  0  0  0  0  0  0  0  0  0  0
    0.4690   11.3130   -0.5700 C   0  0  1  0  0  0  0  0  0  0  0  0
    0.6640   10.4740    0.7200 C   0  0  0  0  0  0  0  0  0  0  0  0
   -0.5950    9.7070    1.1150 C   0  0  0  0  0  0  0  0  0  0  0  0
   -1.0400    8.7750   -0.0090 C   0  0  2  0  0  0  0  0  0  0  0  0
   -0.0580    7.7470   -0.1710 O   0  0  0  0  0  0  0  0  0  0  0  0
   -1.2590    9.5070   -1.3620 C   0  0  0  0  0  0  0  0  0  0  0  0
   -2.5180   10.4040   -1.2710 C   0  0  0  0  0  0  0  0  0  0  0  0
   -1.5670    8.4350   -2.4410 C   0  0  0  0  0  0  0  0  0  0  0  0
    1.7400   12.2010   -0.9180 C   0  0  1  0  0  0  0  0  0  0  0  0
    3.0450   11.3910   -0.6490 C   0  0  0  0  0  0  0  0  0  0  0  0
    1.7810   13.4430    0.0490 C   0  0  0  0  0  0  0  0  0  0  0  0
    1.0030   14.6960   -0.3960 C   0  0  0  0  0  0  0  0  0  0  0  0
    1.3450   15.0680   -1.8420 C   0  0  2  0  0  0  0  0  0  0  0  0
    2.8700   15.4240   -1.8970 C   0  0  0  0  0  0  0  0  0  0  0  0
    3.0207   18.2925   -1.9911 H   0  0  0  0  0  0  0  0  0  0  0  0
    2.6056   17.2249   -3.3748 H   0  0  0  0  0  0  0  0  0  0  0  0
    2.0768   18.9416   -3.3748 H   0  0  0  0  0  0  0  0  0  0  0  0
    0.1772   18.3704   -2.3563 H   0  0  0  0  0  0  0  0  0  0  0  0
    0.3849   17.0008   -0.0700 H   0  0  0  0  0  0  0  0  0  0  0  0
    2.1233   17.5357   -0.2582 H   0  0  0  0  0  0  0  0  0  0  0  0
    1.3682   19.3074    0.9372 H   0  0  0  0  0  0  0  0  0  0  0  0
    0.9100   19.8673   -0.7254 H   0  0  0  0  0  0  0  0  0  0  0  0
   -0.4172   19.5138    1.4907 H   0  0  0  0  0  0  0  0  0  0  0  0
   -0.9063   20.9746   -1.8717 H   0  0  0  0  0  0  0  0  0  0  0  0
   -1.0094   19.2552   -2.3813 H   0  0  0  0  0  0  0  0  0  0  0  0
   -2.4834   20.2819   -2.3813 H   0  0  0  0  0  0  0  0  0  0  0  0
   -3.0030   20.1598    1.2508 H   0  0  0  0  0  0  0  0  0  0  0  0
   -3.2426   21.2301   -0.1718 H   0  0  0  0  0  0  0  0  0  0  0  0
   -3.9274   19.5695   -0.1718 H   0  0  0  0  0  0  0  0  0  0  0  0
   -0.4851   16.2348   -2.0992 H   0  0  0  0  0  0  0  0  0  0  0  0
   -0.2415   16.1789   -4.5016 H   0  0  0  0  0  0  0  0  0  0  0  0
    1.4576   16.6923   -4.4184 H   0  0  0  0  0  0  0  0  0  0  0  0
    0.5492   14.0324   -4.9353 H   0  0  0  0  0  0  0  0  0  0  0  0
    2.2027   14.4413   -4.4866 H   0  0  0  0  0  0  0  0  0  0  0  0
   -0.9543   13.4831   -1.7075 H   0  0  0  0  0  0  0  0  0  0  0  0
   -1.1698   14.3554   -3.2629 H   0  0  0  0  0  0  0  0  0  0  0  0
   -0.7934   12.5990   -3.2629 H   0  0  0  0  0  0  0  0  0  0  0  0
    2.7987   12.9789   -2.6491 H   0  0  0  0  0  0  0  0  0  0  0  0
    1.2809   11.7940   -4.3625 H   0  0  0  0  0  0  0  0  0  0  0  0
    2.5032   10.8506   -3.3599 H   0  0  0  0  0  0  0  0  0  0  0  0
    0.1383    9.7323   -3.6693 H   0  0  0  0  0  0  0  0  0  0  0  0
   -0.3128   12.0697   -0.4084 H   0  0  0  0  0  0  0  0  0  0  0  0
    1.4779    9.7533    0.5523 H   0  0  0  0  0  0  0  0  0  0  0  0
    0.9017   11.1698    1.5382 H   0  0  0  0  0  0  0  0  0  0  0  0
   -0.3860    9.1110    2.0156 H   0  0  0  0  0  0  0  0  0  0  0  0
   -1.4002   10.4303    1.3114 H   0  0  0  0  0  0  0  0  0  0  0  0
   -2.0138    8.3524    0.2791 H   0  0  0  0  0  0  0  0  0  0  0  0
    0.3960    7.6360    0.6810 H   0  0  0  0  0  0  0  0  0  0  0  0
   -2.7665   10.5810   -0.2142 H   0  0  0  0  0  0  0  0  0  0  0  0
   -2.3198   11.3656   -1.7671 H   0  0  0  0  0  0  0  0  0  0  0  0
   -3.3621    9.9026   -1.7671 H   0  0  0  0  0  0  0  0  0  0  0  0
   -1.8389    7.4887   -1.9506 H   0  0  0  0  0  0  0  0  0  0  0  0
   -2.4034    8.7762   -3.0686 H   0  0  0  0  0  0  0  0  0  0  0  0
   -0.6770    8.2802   -3.0686 H   0  0  0  0  0  0  0  0  0  0  0  0
    3.1999   11.2949    0.4358 H   0  0  0  0  0  0  0  0  0  0  0  0
    2.9542   10.3903   -1.0965 H   0  0  0  0  0  0  0  0  0  0  0  0
    3.9015   11.9165   -1.0965 H   0  0  0  0  0  0  0  0  0  0  0  0
    1.3709   13.1236    1.0184 H   0  0  0  0  0  0  0  0  0  0  0  0
    2.8360   13.7533    0.0743 H   0  0  0  0  0  0  0  0  0  0  0  0
   -0.0759   14.4951   -0.3215 H   0  0  0  0  0  0  0  0  0  0  0  0
    1.2842   15.5345    0.2581 H   0  0  0  0  0  0  0  0  0  0  0  0
    3.2623   15.5156   -0.8734 H   0  0  0  0  0  0  0  0  0  0  0  0
    3.4133   14.6285   -2.4281 H   0  0  0  0  0  0  0  0  0  0  0  0
    3.0049   16.3778   -2.4281 H   0  0  0  0  0  0  0  0  0  0  0  0
  1  2  1  0
  2  3  1  0
  3  4  1  0
  4  5  1  0
  5  6  1  0
  6  7  1  0
  7  8  1  0
  7  9  1  0
  2 10  1  0
 10 11  1  0
 11 12  1  0
 12 13  1  0
 13 14  1  6
 13 15  1  0
 15 16  1  0
 16 17  1  0
 17 18  2  0
 18 19  1  0
 19 20  1  0
 20 21  1  0
 21 22  1  0
 22 23  1  0
 22 24  1  0
 24 25  1  0
 24 26  1  0
 19 27  1  0
 27 28  1  1
 27 29  1  0
 29 30  1  0
 30 31  1  0
 31 32  1  1
  7  5  1  0
 31 10  1  0
 31 13  1  0
 27 15  1  0
 24 18  1  0
  1 33  1  0
  1 34  1  0
  1 35  1  0
  2 36  1  6
  3 37  1  0
  3 38  1  0
  4 39  1  0
  4 40  1  0
  5 41  1  1
  8 42  1  0
  8 43  1  0
  8 44  1  0
  9 45  1  0
  9 46  1  0
  9 47  1  0
 10 48  1  1
 11 49  1  0
 11 50  1  0
 12 51  1  0
 12 52  1  0
 14 53  1  0
 14 54  1  0
 14 55  1  0
 15 56  1  6
 16 57  1  0
 16 58  1  0
 17 59  1  0
 19 60  1  1
 20 61  1  0
 20 62  1  0
 21 63  1  0
 21 64  1  0
 22 65  1  1
 23 66  1  0
 25 67  1  0
 25 68  1  0
 25 69  1  0
 26 70  1  0
 26 71  1  0
 26 72  1  0
 28 73  1  0
 28 74  1  0
 28 75  1  0
 29 76  1  0
 29 77  1  0
 30 78  1  0
 30 79  1  0
 32 80  1  0
 32 81  1  0
 32 82  1  0
M  END
>  <meeko>  (3) 
{"is_sidechain": [false], "intermolecular_energy": 2.731, "internal_energy": -0.839}

$$$$
EPH_relaxed_0001_pdb2pqr_Repair_394_r2_0001_out
     RDKit          3D

 82 86  0  0  0  0  0  0  0  0999 V2000
    0.4050   18.3970   -0.0280 C   0  0  0  0  0  0  0  0  0  0  0  0
    1.4980   17.3490   -0.2560 C   0  0  2  0  0  0  0  0  0  0  0  0
    2.7030   17.9250   -1.0260 C   0  0  0  0  0  0  0  0  0  0  0  0
    3.9360   18.1640   -0.1500 C   0  0  0  0  0  0  0  0  0  0  0  0
    3.5580   18.6350    1.2220 C   0  0  2  0  0  0  0  0  0  0  0  0
    3.8100   20.0250    1.4680 O   0  0  0  0  0  0  0  0  0  0  0  0
    4.5690   19.0940    2.2560 C   0  0  0  0  0  0  0  0  0  0  0  0
    6.0370   19.1030    1.9630 C   0  0  0  0  0  0  0  0  0  0  0  0
    4.1770   19.0680    3.7010 C   0  0  0  0  0  0  0  0  0  0  0  0
    0.9230   16.1540   -1.0070 C   0  0  1  0  0  0  0  0  0  0  0  0
    0.8020   16.4090   -2.5330 C   0  0  0  0  0  0  0  0  0  0  0  0
    1.0900   15.0580   -3.2370 C   0  0  0  0  0  0  0  0  0  0  0  0
    1.0380   14.0080   -2.1020 C   0  0  1  0  0  0  0  0  0  0  0  0
   -0.4810   13.7190   -1.8920 C   0  0  0  0  0  0  0  0  0  0  0  0
    1.8490   12.6930   -2.3400 C   0  0  2  0  0  0  0  0  0  0  0  0
    1.3810   11.8460   -3.5370 C   0  0  0  0  0  0  0  0  0  0  0  0
    0.3440   10.8180   -3.2250 C   0  0  0  0  0  0  0  0  0  0  0  0
    0.0150   10.3890   -1.9930 C   0  0  0  0  0  0  0  0  0  0  0  0
    0.7820   10.8770   -0.7570 C   0  0  1  0  0  0  0  0  0  0  0  0
    1.1290    9.6670    0.1490 C   0  0  0  0  0  0  0  0  0  0  0  0
   -0.0990    8.8380    0.5140 C   0  0  0  0  0  0  0  0  0  0  0  0
   -0.8010    8.3220   -0.7390 C   0  0  2  0  0  0  0  0  0  0  0  0
    0.0560    7.3810   -1.3930 O   0  0  0  0  0  0  0  0  0  0  0  0
   -1.1910    9.4520   -1.7330 C   0  0  0  0  0  0  0  0  0  0  0  0
   -2.3430   10.2970   -1.1340 C   0  0  0  0  0  0  0  0  0  0  0  0
   -1.7610    8.7860   -3.0140 C   0  0  0  0  0  0  0  0  0  0  0  0
    2.0390   11.8050   -1.0440 C   0  0  1  0  0  0  0  0  0  0  0  0
    3.3040   10.9270   -1.2880 C   0  0  0  0  0  0  0  0  0  0  0  0
    2.3410   12.6720    0.2350 C   0  0  0  0  0  0  0  0  0  0  0  0
    1.5990   14.0170    0.3540 C   0  0  0  0  0  0  0  0  0  0  0  0
    1.7160   14.8240   -0.9420 C   0  0  2  0  0  0  0  0  0  0  0  0
    3.2320   15.1490   -1.1680 C   0  0  0  0  0  0  0  0  0  0  0  0
    0.2547   18.5411    1.0521 H   0  0  0  0  0  0  0  0  0  0  0  0
    0.7092   19.3497   -0.4862 H   0  0  0  0  0  0  0  0  0  0  0  0
   -0.5340   18.0531   -0.4862 H   0  0  0  0  0  0  0  0  0  0  0  0
    1.8604   17.0282    0.7318 H   0  0  0  0  0  0  0  0  0  0  0  0
    2.9754   17.2182   -1.8237 H   0  0  0  0  0  0  0  0  0  0  0  0
    2.3941   18.9043   -1.4204 H   0  0  0  0  0  0  0  0  0  0  0  0
    4.4984   17.2228   -0.0615 H   0  0  0  0  0  0  0  0  0  0  0  0
    4.5478   18.9454   -0.6245 H   0  0  0  0  0  0  0  0  0  0  0  0
    2.7310   17.9112    1.2690 H   0  0  0  0  0  0  0  0  0  0  0  0
    6.5995   19.1064    2.9083 H   0  0  0  0  0  0  0  0  0  0  0  0
    6.3006   18.2065    1.3827 H   0  0  0  0  0  0  0  0  0  0  0  0
    6.2896   20.0027    1.3827 H   0  0  0  0  0  0  0  0  0  0  0  0
    5.0796   19.1279    4.3269 H   0  0  0  0  0  0  0  0  0  0  0  0
    3.5223   19.9247    3.9188 H   0  0  0  0  0  0  0  0  0  0  0  0
    3.6412   18.1323    3.9188 H   0  0  0  0  0  0  0  0  0  0  0  0
   -0.0350   16.0474   -0.4771 H   0  0  0  0  0  0  0  0  0  0  0  0
   -0.2123   16.7560   -2.7797 H   0  0  0  0  0  0  0  0  0  0  0  0
    1.5103   17.1840   -2.8611 H   0  0  0  0  0  0  0  0  0  0  0  0
    0.3246   14.8456   -3.9979 H   0  0  0  0  0  0  0  0  0  0  0  0
    2.0571   15.0584   -3.7611 H   0  0  0  0  0  0  0  0  0  0  0  0
   -0.7008   13.6772   -0.8150 H   0  0  0  0  0  0  0  0  0  0  0  0
   -1.0744   14.5204   -2.3565 H   0  0  0  0  0  0  0  0  0  0  0  0
   -0.7386   12.7557   -2.3565 H   0  0  0  0  0  0  0  0  0  0  0  0
    2.8434   13.0753   -2.6139 H   0  0  0  0  0  0  0  0  0  0  0  0
    0.9666   12.5277   -4.2943 H   0  0  0  0  0  0  0  0  0  0  0  0
    2.2660   11.2905   -3.8809 H   0  0  0  0  0  0  0  0  0  0  0  0
   -0.1965   10.3740   -4.0740 H   0  0  0  0  0  0  0  0  0  0  0  0
    0.1005   11.5571   -0.2251 H   0  0  0  0  0  0  0  0  0  0  0  0
    1.8444    9.0223   -0.3825 H   0  0  0  0  0  0  0  0  0  0  0  0
    1.5556   10.0610    1.0833 H   0  0  0  0  0  0  0  0  0  0  0  0
    0.2146    7.9818    1.1293 H   0  0  0  0  0  0  0  0  0  0  0  0
   -0.8003    9.4762    1.0716 H   0  0  0  0  0  0  0  0  0  0  0  0
   -1.7407    7.8483   -0.4188 H   0  0  0  0  0  0  0  0  0  0  0  0
    0.0680    6.5710   -0.8550 H   0  0  0  0  0  0  0  0  0  0  0  0
   -2.2923   10.2598   -0.0358 H   0  0  0  0  0  0  0  0  0  0  0  0
   -2.2461   11.3398   -1.4704 H   0  0  0  0  0  0  0  0  0  0  0  0
   -3.3085    9.8914   -1.4704 H   0  0  0  0  0  0  0  0  0  0  0  0
   -2.4522    7.9784   -2.7309 H   0  0  0  0  0  0  0  0  0  0  0  0
   -2.2997    9.5378   -3.6094 H   0  0  0  0  0  0  0  0  0  0  0  0
   -0.9350    8.3698   -3.6094 H   0  0  0  0  0  0  0  0  0  0  0  0
    3.7348   10.6280   -0.3211 H   0  0  0  0  0  0  0  0  0  0  0  0
    3.0227   10.0289   -1.8575 H   0  0  0  0  0  0  0  0  0  0  0  0
    4.0470   11.5046   -1.8575 H   0  0  0  0  0  0  0  0  0  0  0  0
    2.0783   12.0680    1.1160 H   0  0  0  0  0  0  0  0  0  0  0  0
    3.4059   12.9367    0.1582 H   0  0  0  0  0  0  0  0  0  0  0  0
    0.5364   13.8245    0.5633 H   0  0  0  0  0  0  0  0  0  0  0  0
    2.0534   14.5972    1.1707 H   0  0  0  0  0  0  0  0  0  0  0  0
    3.7330   15.2564   -0.1946 H   0  0  0  0  0  0  0  0  0  0  0  0
    3.7019   14.3312   -1.7340 H   0  0  0  0  0  0  0  0  0  0  0  0
    3.3254   16.0876   -1.7340 H   0  0  0  0  0  0  0  0  0  0  0  0
  1  2  1  0
  2  3  1  0
  3  4  1  0
  4  5  1  0
  5  6  1  0
  6  7  1  0
  7  8  1  0
  7  9  1  0
  2 10  1  0
 10 11  1  0
 11 12  1  0
 12 13  1  0
 13 14  1  1
 13 15  1  0
 15 16  1  0
 16 17  1  0
 17 18  2  0
 18 19  1  0
 19 20  1  0
 20 21  1  0
 21 22  1  0
 22 23  1  0
 22 24  1  0
 24 25  1  0
 24 26  1  0
 19 27  1  0
 27 28  1  6
 27 29  1  0
 29 30  1  0
 30 31  1  0
 31 32  1  6
  7  5  1  0
 31 10  1  0
 31 13  1  0
 27 15  1  0
 24 18  1  0
  1 33  1  0
  1 34  1  0
  1 35  1  0
  2 36  1  1
  3 37  1  0
  3 38  1  0
  4 39  1  0
  4 40  1  0
  5 41  1  1
  8 42  1  0
  8 43  1  0
  8 44  1  0
  9 45  1  0
  9 46  1  0
  9 47  1  0
 10 48  1  1
 11 49  1  0
 11 50  1  0
 12 51  1  0
 12 52  1  0
 14 53  1  0
 14 54  1  0
 14 55  1  0
 15 56  1  6
 16 57  1  0
 16 58  1  0
 17 59  1  0
 19 60  1  1
 20 61  1  0
 20 62  1  0
 21 63  1  0
 21 64  1  0
 22 65  1  1
 23 66  1  0
 25 67  1  0
 25 68  1  0
 25 69  1  0
 26 70  1  0
 26 71  1  0
 26 72  1  0
 28 73  1  0
 28 74  1  0
 28 75  1  0
 29 76  1  0
 29 77  1  0
 30 78  1  0
 30 79  1  0
 32 80  1  0
 32 81  1  0
 32 82  1  0
M  END
>  <meeko>  (4) 
{"is_sidechain": [false], "intermolecular_energy": 2.731, "internal_energy": -0.839}

$$$$
EPH_relaxed_0001_pdb2pqr_Repair_394_r2_0001_out
     RDKit          3D

 82 86  0  0  0  0  0  0  0  0999 V2000
    3.6850   17.7900    0.6610 C   0  0  0  0  0  0  0  0  0  0  0  0
    2.7980   18.0730   -0.5540 C   0  0  2  0  0  0  0  0  0  0  0  0
    2.1110   19.4510   -0.4640 C   0  0  0  0  0  0  0  0  0  0  0  0
    1.2180   19.6140    0.7680 C   0  0  0  0  0  0  0  0  0  0  0  0
   -0.1260   20.1720    0.4090 C   0  0  2  0  0  0  0  0  0  0  0  0
   -1.0730   20.1920    1.4850 O   0  0  0  0  0  0  0  0  0  0  0  0
   -1.3950   19.3400    0.3730 C   0  0  0  0  0  0  0  0  0  0  0  0
   -1.3800   17.8800    0.7010 C   0  0  0  0  0  0  0  0  0  0  0  0
   -2.5480   19.8290   -0.4470 C   0  0  0  0  0  0  0  0  0  0  0  0
    1.7480   16.9770   -0.6990 C   0  0  1  0  0  0  0  0  0  0  0  0
    0.5000   17.4460   -1.4930 C   0  0  0  0  0  0  0  0  0  0  0  0
    0.0030   16.2240   -2.3080 C   0  0  0  0  0  0  0  0  0  0  0  0
    0.7670   15.0200   -1.7090 C   0  0  1  0  0  0  0  0  0  0  0  0
   -0.0270   14.6420   -0.4200 C   0  0  0  0  0  0  0  0  0  0  0  0
    0.9600   13.7870   -2.6510 C   0  0  2  0  0  0  0  0  0  0  0  0
   -0.3420   13.1040   -3.1070 C   0  0  0  0  0  0  0  0  0  0  0  0
   -0.8260   12.0010   -2.2250 C   0  0  0  0  0  0  0  0  0  0  0  0
   -0.1000   11.3840   -1.2740 C   0  0  0  0  0  0  0  0  0  0  0  0
    1.3840   11.7190   -1.0750 C   0  0  1  0  0  0  0  0  0  0  0  0
    2.1980   10.4050   -0.9490 C   0  0  0  0  0  0  0  0  0  0  0  0
    1.6570    9.4830    0.1390 C   0  0  0  0  0  0  0  0  0  0  0  0
    0.1960    9.1260   -0.1250 C   0  0  2  0  0  0  0  0  0  0  0  0
    0.1250    8.3250   -1.3090 O   0  0  0  0  0  0  0  0  0  0  0  0
   -0.7200   10.3710   -0.2810 C   0  0  0  0  0  0  0  0  0  0  0  0
   -0.8820   11.0730    1.0910 C   0  0  0  0  0  0  0  0  0  0  0  0
   -2.1350    9.8750   -0.6840 C   0  0  0  0  0  0  0  0  0  0  0  0
    2.0140   12.7290   -2.1270 C   0  0  1  0  0  0  0  0  0  0  0  0
    2.5200   11.9480   -3.3780 C   0  0  0  0  0  0  0  0  0  0  0  0
    3.2800   13.4130   -1.4890 C   0  0  0  0  0  0  0  0  0  0  0  0
    3.0390   14.6950   -0.6690 C   0  0  0  0  0  0  0  0  0  0  0  0
    2.1670   15.6860   -1.4450 C   0  0  2  0  0  0  0  0  0  0  0  0
    2.9490   16.1020   -2.7370 C   0  0  0  0  0  0  0  0  0  0  0  0
    3.1132   17.9724    1.5828 H   0  0  0  0  0  0  0  0  0  0  0  0
    4.0166   16.7415    0.6366 H   0  0  0  0  0  0  0  0  0  0  0  0
    4.5626   18.4528    0.6366 H   0  0  0  0  0  0  0  0  0  0  0  0
    3.4481   18.0851   -1.4413 H   0  0  0  0  0  0  0  0  0  0  0  0
    2.8907   20.2263   -0.4328 H   0  0  0  0  0  0  0  0  0  0  0  0
    1.4612   19.5444   -1.3466 H   0  0  0  0  0  0  0  0  0  0  0  0
    1.0808   18.6306    1.2414 H   0  0  0  0  0  0  0  0  0  0  0  0
    1.7087   20.3179    1.4563 H   0  0  0  0  0  0  0  0  0  0  0  0
    0.3277   20.8575   -0.3219 H   0  0  0  0  0  0  0  0  0  0  0  0
   -1.3787   17.7496    1.7932 H   0  0  0  0  0  0  0  0  0  0  0  0
   -2.2733   17.3994    0.2754 H   0  0  0  0  0  0  0  0  0  0  0  0
   -0.4771   17.4178    0.2754 H   0  0  0  0  0  0  0  0  0  0  0  0
   -3.3534   20.1706    0.2198 H   0  0  0  0  0  0  0  0  0  0  0  0
   -2.2182   20.6647   -1.0817 H   0  0  0  0  0  0  0  0  0  0  0  0
   -2.9196   19.0110   -1.0817 H   0  0  0  0  0  0  0  0  0  0  0  0
    1.5649   16.7554    0.3628 H   0  0  0  0  0  0  0  0  0  0  0  0
   -0.2848   17.7838   -0.8002 H   0  0  0  0  0  0  0  0  0  0  0  0
    0.7471   18.2886   -2.1556 H   0  0  0  0  0  0  0  0  0  0  0  0
   -1.0827   16.0933   -2.1891 H   0  0  0  0  0  0  0  0  0  0  0  0
    0.1853   16.3394   -3.3866 H   0  0  0  0  0  0  0  0  0  0  0  0
    0.5600   14.9214    0.4674 H   0  0  0  0  0  0  0  0  0  0  0  0
   -0.9864   15.1800   -0.4093 H   0  0  0  0  0  0  0  0  0  0  0  0
   -0.2143   13.5581   -0.4093 H   0  0  0  0  0  0  0  0  0  0  0  0
    1.3897   14.2455   -3.5539 H   0  0  0  0  0  0  0  0  0  0  0  0
   -1.1292   13.8708   -3.1554 H   0  0  0  0  0  0  0  0  0  0  0  0
   -0.1183   12.6405   -4.0791 H   0  0  0  0  0  0  0  0  0  0  0  0
   -1.8638   11.6639   -2.3640 H   0  0  0  0  0  0  0  0  0  0  0  0
    1.4445   12.2874   -0.1352 H   0  0  0  0  0  0  0  0  0  0  0  0
    2.1611    9.8739   -1.9116 H   0  0  0  0  0  0  0  0  0  0  0  0
    3.2283   10.6758   -0.6748 H   0  0  0  0  0  0  0  0  0  0  0  0
    2.2552    8.5601    0.1590 H   0  0  0  0  0  0  0  0  0  0  0  0
    1.7219   10.0044    1.1054 H   0  0  0  0  0  0  0  0  0  0  0  0
   -0.1729    8.5736    0.7518 H   0  0  0  0  0  0  0  0  0  0  0  0
   -0.4840    8.7660   -1.9260 H   0  0  0  0  0  0  0  0  0  0  0  0
   -0.7139   10.3444    1.8978 H   0  0  0  0  0  0  0  0  0  0  0  0
   -0.1484   11.8884    1.1746 H   0  0  0  0  0  0  0  0  0  0  0  0
   -1.8987   11.4845    1.1746 H   0  0  0  0  0  0  0  0  0  0  0  0
   -2.7232    9.6688    0.2224 H   0  0  0  0  0  0  0  0  0  0  0  0
   -2.6393   10.6500   -1.2799 H   0  0  0  0  0  0  0  0  0  0  0  0
   -2.0450    8.9548   -1.2799 H   0  0  0  0  0  0  0  0  0  0  0  0
    3.0914   11.0660   -3.0532 H   0  0  0  0  0  0  0  0  0  0  0  0
    1.6590   11.6252   -3.9817 H   0  0  0  0  0  0  0  0  0  0  0  0
    3.1665   12.6019   -3.9817 H   0  0  0  0  0  0  0  0  0  0  0  0
    3.7558   12.6773   -0.8239 H   0  0  0  0  0  0  0  0  0  0  0  0
    3.8966   13.7298   -2.3431 H   0  0  0  0  0  0  0  0  0  0  0  0
    2.5336   14.4308    0.2716 H   0  0  0  0  0  0  0  0  0  0  0  0
    4.0106   15.1683   -0.4643 H   0  0  0  0  0  0  0  0  0  0  0  0
    3.8872   16.6011   -2.4530 H   0  0  0  0  0  0  0  0  0  0  0  0
    3.1763   15.2056   -3.3326 H   0  0  0  0  0  0  0  0  0  0  0  0
    2.3326   16.7914   -3.3326 H   0  0  0  0  0  0  0  0  0  0  0  0
  1  2  1  0
  2  3  1  0
  3  4  1  0
  4  5  1  0
  5  6  1  0
  6  7  1  0
  7  8  1  0
  7  9  1  0
  2 10  1  0
 10 11  1  0
 11 12  1  0
 12 13  1  0
 13 14  1  1
 13 15  1  0
 15 16  1  0
 16 17  1  0
 17 18  2  0
 18 19  1  0
 19 20  1  0
 20 21  1  0
 21 22  1  0
 22 23  1  0
 22 24  1  0
 24 25  1  0
 24 26  1  0
 19 27  1  0
 27 28  1  6
 27 29  1  0
 29 30  1  0
 30 31  1  0
 31 32  1  6
  7  5  1  0
 31 10  1  0
 31 13  1  0
 27 15  1  0
 24 18  1  0
  1 33  1  0
  1 34  1  0
  1 35  1  0
  2 36  1  6
  3 37  1  0
  3 38  1  0
  4 39  1  0
  4 40  1  0
  5 41  1  6
  8 42  1  0
  8 43  1  0
  8 44  1  0
  9 45  1  0
  9 46  1  0
  9 47  1  0
 10 48  1  1
 11 49  1  0
 11 50  1  0
 12 51  1  0
 12 52  1  0
 14 53  1  0
 14 54  1  0
 14 55  1  0
 15 56  1  6
 16 57  1  0
 16 58  1  0
 17 59  1  0
 19 60  1  1
 20 61  1  0
 20 62  1  0
 21 63  1  0
 21 64  1  0
 22 65  1  1
 23 66  1  0
 25 67  1  0
 25 68  1  0
 25 69  1  0
 26 70  1  0
 26 71  1  0
 26 72  1  0
 28 73  1  0
 28 74  1  0
 28 75  1  0
 29 76  1  0
 29 77  1  0
 30 78  1  0
 30 79  1  0
 32 80  1  0
 32 81  1  0
 32 82  1  0
M  END
>  <meeko>  (5) 
{"is_sidechain": [false], "intermolecular_energy": 2.731, "internal_energy": -0.839}

$$$$
EPH_relaxed_0001_pdb2pqr_Repair_394_r2_0001_out
     RDKit          3D

 82 86  0  0  0  0  0  0  0  0999 V2000
    0.4490    8.8630   -2.5110 C   0  0  0  0  0  0  0  0  0  0  0  0
    1.2070   10.0190   -3.1690 C   0  0  2  0  0  0  0  0  0  0  0  0
    2.7010   10.0250   -2.7900 C   0  0  0  0  0  0  0  0  0  0  0  0
    3.6100   10.6090   -3.8750 C   0  0  0  0  0  0  0  0  0  0  0  0
    5.0010   10.8420   -3.3670 C   0  0  2  0  0  0  0  0  0  0  0  0
    5.6120   12.0540   -3.8290 O   0  0  0  0  0  0  0  0  0  0  0  0
    6.2290   10.8290   -4.2580 C   0  0  0  0  0  0  0  0  0  0  0  0
    6.1240   10.5770   -5.7290 C   0  0  0  0  0  0  0  0  0  0  0  0
    7.5650   10.5760   -3.6310 C   0  0  0  0  0  0  0  0  0  0  0  0
    0.5670   11.3470   -2.7820 C   0  0  1  0  0  0  0  0  0  0  0  0
   -0.8210   11.1680   -2.1110 C   0  0  0  0  0  0  0  0  0  0  0  0
   -0.9490   12.2850   -1.0430 C   0  0  0  0  0  0  0  0  0  0  0  0
    0.2090   13.2610   -1.3590 C   0  0  1  0  0  0  0  0  0  0  0  0
   -0.3200   14.1460   -2.5300 C   0  0  0  0  0  0  0  0  0  0  0  0
    0.7250   14.1300   -0.1660 C   0  0  2  0  0  0  0  0  0  0  0  0
   -0.3110   15.0970    0.4330 C   0  0  0  0  0  0  0  0  0  0  0  0
   -0.3410   16.4580   -0.1790 C   0  0  0  0  0  0  0  0  0  0  0  0
    0.6150   16.9820   -0.9700 C   0  0  0  0  0  0  0  0  0  0  0  0
    1.9170   16.2180   -1.2410 C   0  0  1  0  0  0  0  0  0  0  0  0
    3.1240   17.1780   -1.0720 C   0  0  0  0  0  0  0  0  0  0  0  0
    2.9960   18.4360   -1.9260 C   0  0  0  0  0  0  0  0  0  0  0  0
    1.7180   19.1980   -1.5860 C   0  0  2  0  0  0  0  0  0  0  0  0
    1.8260   19.7070   -0.2540 O   0  0  0  0  0  0  0  0  0  0  0  0
    0.4350   18.3290   -1.7120 C   0  0  0  0  0  0  0  0  0  0  0  0
    0.1540   18.0280   -3.2050 C   0  0  0  0  0  0  0  0  0  0  0  0
   -0.7650   19.1740   -1.2060 C   0  0  0  0  0  0  0  0  0  0  0  0
    2.1030   14.8570   -0.4420 C   0  0  1  0  0  0  0  0  0  0  0  0
    2.7440   15.1420    0.9510 C   0  0  0  0  0  0  0  0  0  0  0  0
    3.1190   13.9390   -1.2190 C   0  0  0  0  0  0  0  0  0  0  0  0
    2.5320   13.0160   -2.3040 C   0  0  0  0  0  0  0  0  0  0  0  0
    1.3290   12.2350   -1.7670 C   0  0  2  0  0  0  0  0  0  0  0  0
    1.8350   11.3190   -0.6010 C   0  0  0  0  0  0  0  0  0  0  0  0
    0.5119    8.9589   -1.4170 H   0  0  0  0  0  0  0  0  0  0  0  0
   -0.6058    8.8923   -2.8216 H   0  0  0  0  0  0  0  0  0  0  0  0
    0.8963    7.9073   -2.8216 H   0  0  0  0  0  0  0  0  0  0  0  0
    1.1434    9.8783   -4.2581 H   0  0  0  0  0  0  0  0  0  0  0  0
    2.8245   10.6228   -1.8749 H   0  0  0  0  0  0  0  0  0  0  0  0
    3.0010    8.9759   -2.6503 H   0  0  0  0  0  0  0  0  0  0  0  0
    3.6523    9.9067   -4.7206 H   0  0  0  0  0  0  0  0  0  0  0  0
    3.1924   11.5775   -4.1873 H   0  0  0  0  0  0  0  0  0  0  0  0
    4.7685   10.3269   -2.4233 H   0  0  0  0  0  0  0  0  0  0  0  0
    5.7061    9.5740   -5.9003 H   0  0  0  0  0  0  0  0  0  0  0  0
    5.4653   11.3313   -6.1841 H   0  0  0  0  0  0  0  0  0  0  0  0
    7.1234   10.6404   -6.1841 H   0  0  0  0  0  0  0  0  0  0  0  0
    7.4655   10.5948   -2.5357 H   0  0  0  0  0  0  0  0  0  0  0  0
    7.9384    9.5912   -3.9484 H   0  0  0  0  0  0  0  0  0  0  0  0
    8.2726   11.3561   -3.9484 H   0  0  0  0  0  0  0  0  0  0  0  0
    0.5463   11.8356   -3.7673 H   0  0  0  0  0  0  0  0  0  0  0  0
   -1.6198   11.2674   -2.8607 H   0  0  0  0  0  0  0  0  0  0  0  0
   -0.9131   10.1718   -1.6536 H   0  0  0  0  0  0  0  0  0  0  0  0
   -1.9203   12.7942   -1.1281 H   0  0  0  0  0  0  0  0  0  0  0  0
   -0.8941   11.8903   -0.0177 H   0  0  0  0  0  0  0  0  0  0  0  0
   -0.8437   15.0221   -2.1198 H   0  0  0  0  0  0  0  0  0  0  0  0
    0.5263   14.4807   -3.1479 H   0  0  0  0  0  0  0  0  0  0  0  0
   -1.0156   13.5591   -3.1479 H   0  0  0  0  0  0  0  0  0  0  0  0
    0.9129   13.3750    0.6116 H   0  0  0  0  0  0  0  0  0  0  0  0
   -1.3071   14.6469    0.3099 H   0  0  0  0  0  0  0  0  0  0  0  0
   -0.0200   15.2421    1.4838 H   0  0  0  0  0  0  0  0  0  0  0  0
   -1.2183   17.0864    0.0340 H   0  0  0  0  0  0  0  0  0  0  0  0
    1.8560   15.8735   -2.2839 H   0  0  0  0  0  0  0  0  0  0  0  0
    3.1929   17.4750   -0.0151 H   0  0  0  0  0  0  0  0  0  0  0  0
    4.0258   16.6413   -1.4017 H   0  0  0  0  0  0  0  0  0  0  0  0
    3.8633   19.0867   -1.7407 H   0  0  0  0  0  0  0  0  0  0  0  0
    2.9570   18.1394   -2.9846 H   0  0  0  0  0  0  0  0  0  0  0  0
    1.6161   20.0146   -2.3159 H   0  0  0  0  0  0  0  0  0  0  0  0
    2.3550   20.5220   -0.2920 H   0  0  0  0  0  0  0  0  0  0  0  0
   -0.5948   17.2259   -3.2827 H   0  0  0  0  0  0  0  0  0  0  0  0
   -0.2279   18.9350   -3.6963 H   0  0  0  0  0  0  0  0  0  0  0  0
    1.0851   17.7092   -3.6963 H   0  0  0  0  0  0  0  0  0  0  0  0
   -0.7720   19.1790   -0.1060 H   0  0  0  0  0  0  0  0  0  0  0  0
   -0.6695   20.2052   -1.5767 H   0  0  0  0  0  0  0  0  0  0  0  0
   -1.7037   18.7365   -1.5767 H   0  0  0  0  0  0  0  0  0  0  0  0
    2.0483   14.8327    1.7449 H   0  0  0  0  0  0  0  0  0  0  0  0
    3.6828   14.5765    1.0453 H   0  0  0  0  0  0  0  0  0  0  0  0
    2.9530   16.2178    1.0453 H   0  0  0  0  0  0  0  0  0  0  0  0
    3.8567   14.5952   -1.7039 H   0  0  0  0  0  0  0  0  0  0  0  0
    3.5342   13.2613   -0.4585 H   0  0  0  0  0  0  0  0  0  0  0  0
    2.2112   13.6266   -3.1609 H   0  0  0  0  0  0  0  0  0  0  0  0
    3.3072   12.2986   -2.6112 H   0  0  0  0  0  0  0  0  0  0  0  0
    1.5802   11.7802    0.3646 H   0  0  0  0  0  0  0  0  0  0  0  0
    1.3539   10.3325   -0.6745 H   0  0  0  0  0  0  0  0  0  0  0  0
    2.9262   11.2011   -0.6745 H   0  0  0  0  0  0  0  0  0  0  0  0
  1  2  1  0
  2  3  1  0
  3  4  1  0
  4  5  1  0
  5  6  1  0
  6  7  1  0
  7  8  1  0
  7  9  1  0
  2 10  1  0
 10 11  1  0
 11 12  1  0
 12 13  1  0
 13 14  1  6
 13 15  1  0
 15 16  1  0
 16 17  1  0
 17 18  2  0
 18 19  1  0
 19 20  1  0
 20 21  1  0
 21 22  1  0
 22 23  1  0
 22 24  1  0
 24 25  1  0
 24 26  1  0
 19 27  1  0
 27 28  1  1
 27 29  1  0
 29 30  1  0
 30 31  1  0
 31 32  1  1
  7  5  1  0
 31 10  1  0
 31 13  1  0
 27 15  1  0
 24 18  1  0
  1 33  1  0
  1 34  1  0
  1 35  1  0
  2 36  1  6
  3 37  1  0
  3 38  1  0
  4 39  1  0
  4 40  1  0
  5 41  1  1
  8 42  1  0
  8 43  1  0
  8 44  1  0
  9 45  1  0
  9 46  1  0
  9 47  1  0
 10 48  1  6
 11 49  1  0
 11 50  1  0
 12 51  1  0
 12 52  1  0
 14 53  1  0
 14 54  1  0
 14 55  1  0
 15 56  1  1
 16 57  1  0
 16 58  1  0
 17 59  1  0
 19 60  1  6
 20 61  1  0
 20 62  1  0
 21 63  1  0
 21 64  1  0
 22 65  1  6
 23 66  1  0
 25 67  1  0
 25 68  1  0
 25 69  1  0
 26 70  1  0
 26 71  1  0
 26 72  1  0
 28 73  1  0
 28 74  1  0
 28 75  1  0
 29 76  1  0
 29 77  1  0
 30 78  1  0
 30 79  1  0
 32 80  1  0
 32 81  1  0
 32 82  1  0
M  END
>  <meeko>  (6) 
{"is_sidechain": [false], "intermolecular_energy": 2.731, "internal_energy": -0.839}

$$$$
EPH_relaxed_0001_pdb2pqr_Repair_394_r2_0001_out
     RDKit          3D

 82 86  0  0  0  0  0  0  0  0999 V2000
    0.1760   17.8390   -2.5680 C   0  0  0  0  0  0  0  0  0  0  0  0
   -0.0910   16.9270   -1.3670 C   0  0  2  0  0  0  0  0  0  0  0  0
   -0.1710   17.7170   -0.0450 C   0  0  0  0  0  0  0  0  0  0  0  0
    0.4540   19.1130   -0.1230 C   0  0  0  0  0  0  0  0  0  0  0  0
    1.6090   19.2570    0.8210 C   0  0  2  0  0  0  0  0  0  0  0  0
    2.6120   20.1910    0.4010 O   0  0  0  0  0  0  0  0  0  0  0  0
    3.0220   18.8170    0.4860 C   0  0  0  0  0  0  0  0  0  0  0  0
    3.3550   18.1990   -0.8350 C   0  0  0  0  0  0  0  0  0  0  0  0
    3.9700   18.5390    1.6110 C   0  0  0  0  0  0  0  0  0  0  0  0
    0.9940   15.8610   -1.2720 C   0  0  1  0  0  0  0  0  0  0  0  0
    1.2120   15.3580    0.1790 C   0  0  0  0  0  0  0  0  0  0  0  0
    1.5620   13.8510    0.0830 C   0  0  0  0  0  0  0  0  0  0  0  0
    1.8590   13.6150   -1.4160 C   0  0  1  0  0  0  0  0  0  0  0  0
    3.3300   14.0980   -1.6150 C   0  0  0  0  0  0  0  0  0  0  0  0
    1.6560   12.1560   -1.9400 C   0  0  2  0  0  0  0  0  0  0  0  0
    2.5680   11.0980   -1.2950 C   0  0  0  0  0  0  0  0  0  0  0  0
    3.8680   10.8670   -1.9920 C   0  0  0  0  0  0  0  0  0  0  0  0
    4.1680   11.2700   -3.2410 C   0  0  0  0  0  0  0  0  0  0  0  0
    3.1140   11.9500   -4.1240 C   0  0  1  0  0  0  0  0  0  0  0  0
    3.1390   11.3180   -5.5410 C   0  0  0  0  0  0  0  0  0  0  0  0
    4.5300   11.3430   -6.1680 C   0  0  0  0  0  0  0  0  0  0  0  0
    5.5380   10.6080   -5.2890 C   0  0  2  0  0  0  0  0  0  0  0  0
    5.2040    9.2160   -5.2700 O   0  0  0  0  0  0  0  0  0  0  0  0
    5.5940   11.1510   -3.8340 C   0  0  0  0  0  0  0  0  0  0  0  0
    6.2410   12.5580   -3.8280 C   0  0  0  0  0  0  0  0  0  0  0  0
    6.5430   10.2330   -3.0180 C   0  0  0  0  0  0  0  0  0  0  0  0
    1.6470   12.0280   -3.5170 C   0  0  1  0  0  0  0  0  0  0  0  0
    0.8610   10.7240   -3.8540 C   0  0  0  0  0  0  0  0  0  0  0  0
    0.8670   13.2080   -4.2090 C   0  0  0  0  0  0  0  0  0  0  0  0
    1.0130   14.6040   -3.5740 C   0  0  0  0  0  0  0  0  0  0  0  0
    0.7700   14.5470   -2.0620 C   0  0  2  0  0  0  0  0  0  0  0  0
   -0.7090   14.0850   -1.8320 C   0  0  0  0  0  0  0  0  0  0  0  0
    0.4684   18.8379   -2.2120 H   0  0  0  0  0  0  0  0  0  0  0  0
    0.9876   17.4147   -3.1773 H   0  0  0  0  0  0  0  0  0  0  0  0
   -0.7363   17.9194   -3.1773 H   0  0  0  0  0  0  0  0  0  0  0  0
   -1.0687   16.4486   -1.5256 H   0  0  0  0  0  0  0  0  0  0  0  0
   -1.2302   17.8257    0.2310 H   0  0  0  0  0  0  0  0  0  0  0  0
    0.4018   17.1498    0.7035 H   0  0  0  0  0  0  0  0  0  0  0  0
    0.8087   19.2879   -1.1495 H   0  0  0  0  0  0  0  0  0  0  0  0
   -0.3135   19.8485    0.1597 H   0  0  0  0  0  0  0  0  0  0  0  0
    0.9589   19.0563    1.6853 H   0  0  0  0  0  0  0  0  0  0  0  0
    3.8710   17.2413   -0.6721 H   0  0  0  0  0  0  0  0  0  0  0  0
    2.4287   18.0246   -1.4021 H   0  0  0  0  0  0  0  0  0  0  0  0
    4.0101   18.8767   -1.4021 H   0  0  0  0  0  0  0  0  0  0  0  0
    3.4544   18.6902    2.5708 H   0  0  0  0  0  0  0  0  0  0  0  0
    4.3233   17.4994    1.5444 H   0  0  0  0  0  0  0  0  0  0  0  0
    4.8288   19.2231    1.5444 H   0  0  0  0  0  0  0  0  0  0  0  0
    1.8392   16.4192   -1.7009 H   0  0  0  0  0  0  0  0  0  0  0  0
    2.0387   15.9094    0.6507 H   0  0  0  0  0  0  0  0  0  0  0  0
    0.3116   15.5158    0.7908 H   0  0  0  0  0  0  0  0  0  0  0  0
    2.4454   13.6176    0.6955 H   0  0  0  0  0  0  0  0  0  0  0  0
    0.7491   13.2092    0.4536 H   0  0  0  0  0  0  0  0  0  0  0  0
    3.8011   14.2527   -0.6331 H   0  0  0  0  0  0  0  0  0  0  0  0
    3.8929   13.3375   -2.1761 H   0  0  0  0  0  0  0  0  0  0  0  0
    3.3325   15.0442   -2.1761 H   0  0  0  0  0  0  0  0  0  0  0  0
    0.6377   11.9222   -1.5958 H   0  0  0  0  0  0  0  0  0  0  0  0
    2.7864   11.4192   -0.2659 H   0  0  0  0  0  0  0  0  0  0  0  0
    2.0186   10.1467   -1.3521 H   0  0  0  0  0  0  0  0  0  0  0  0
    4.6463   10.3215   -1.4383 H   0  0  0  0  0  0  0  0  0  0  0  0
    3.4044   13.0094   -4.1826 H   0  0  0  0  0  0  0  0  0  0  0  0
    2.8043   10.2728   -5.4670 H   0  0  0  0  0  0  0  0  0  0  0  0
    2.4723   11.9119   -6.1835 H   0  0  0  0  0  0  0  0  0  0  0  0
    4.4894   10.8561   -7.1535 H   0  0  0  0  0  0  0  0  0  0  0  0
    4.8506   12.3904   -6.2692 H   0  0  0  0  0  0  0  0  0  0  0  0
    6.5352   10.7722   -5.7233 H   0  0  0  0  0  0  0  0  0  0  0  0
    4.9720    8.9810   -4.3560 H   0  0  0  0  0  0  0  0  0  0  0  0
    6.3925   12.8875   -2.7895 H   0  0  0  0  0  0  0  0  0  0  0  0
    7.2110   12.5177   -4.3451 H   0  0  0  0  0  0  0  0  0  0  0  0
    5.5790   13.2682   -4.3451 H   0  0  0  0  0  0  0  0  0  0  0  0
    6.3753   10.3952   -1.9430 H   0  0  0  0  0  0  0  0  0  0  0  0
    6.3387    9.1811   -3.2663 H   0  0  0  0  0  0  0  0  0  0  0  0
    7.5876   10.4721   -3.2663 H   0  0  0  0  0  0  0  0  0  0  0  0
    0.5605   10.2254   -2.9207 H   0  0  0  0  0  0  0  0  0  0  0  0
   -0.0352   10.9770   -4.4395 H   0  0  0  0  0  0  0  0  0  0  0  0
    1.5033   10.0497   -4.4395 H   0  0  0  0  0  0  0  0  0  0  0  0
    1.2209   13.2765   -5.2483 H   0  0  0  0  0  0  0  0  0  0  0  0
   -0.1973   12.9523   -4.1003 H   0  0  0  0  0  0  0  0  0  0  0  0
    2.0297   14.9799   -3.7611 H   0  0  0  0  0  0  0  0  0  0  0  0
    0.2658   15.2740   -4.0243 H   0  0  0  0  0  0  0  0  0  0  0  0
   -0.9098   14.0223   -0.7523 H   0  0  0  0  0  0  0  0  0  0  0  0
   -1.3957   14.8114   -2.2911 H   0  0  0  0  0  0  0  0  0  0  0  0
   -0.8601   13.0969   -2.2911 H   0  0  0  0  0  0  0  0  0  0  0  0
  1  2  1  0
  2  3  1  0
  3  4  1  0
  4  5  1  0
  5  6  1  0
  6  7  1  0
  7  8  1  0
  7  9  1  0
  2 10  1  0
 10 11  1  0
 11 12  1  0
 12 13  1  0
 13 14  1  1
 13 15  1  0
 15 16  1  0
 16 17  1  0
 17 18  2  0
 18 19  1  0
 19 20  1  0
 20 21  1  0
 21 22  1  0
 22 23  1  0
 22 24  1  0
 24 25  1  0
 24 26  1  0
 19 27  1  0
 27 28  1  1
 27 29  1  0
 29 30  1  0
 30 31  1  0
 31 32  1  6
  7  5  1  0
 31 10  1  0
 31 13  1  0
 27 15  1  0
 24 18  1  0
  1 33  1  0
  1 34  1  0
  1 35  1  0
  2 36  1  6
  3 37  1  0
  3 38  1  0
  4 39  1  0
  4 40  1  0
  5 41  1  1
  8 42  1  0
  8 43  1  0
  8 44  1  0
  9 45  1  0
  9 46  1  0
  9 47  1  0
 10 48  1  6
 11 49  1  0
 11 50  1  0
 12 51  1  0
 12 52  1  0
 14 53  1  0
 14 54  1  0
 14 55  1  0
 15 56  1  1
 16 57  1  0
 16 58  1  0
 17 59  1  0
 19 60  1  6
 20 61  1  0
 20 62  1  0
 21 63  1  0
 21 64  1  0
 22 65  1  6
 23 66  1  0
 25 67  1  0
 25 68  1  0
 25 69  1  0
 26 70  1  0
 26 71  1  0
 26 72  1  0
 28 73  1  0
 28 74  1  0
 28 75  1  0
 29 76  1  0
 29 77  1  0
 30 78  1  0
 30 79  1  0
 32 80  1  0
 32 81  1  0
 32 82  1  0
M  END
>  <meeko>  (7) 
{"is_sidechain": [false], "intermolecular_energy": 2.731, "internal_energy": -0.839}

$$$$
EPH_relaxed_0001_pdb2pqr_Repair_394_r2_0001_out
     RDKit          3D

 82 86  0  0  0  0  0  0  0  0999 V2000
    2.9770   19.1160   -1.0570 C   0  0  0  0  0  0  0  0  0  0  0  0
    2.6330   18.0850   -2.1350 C   0  0  2  0  0  0  0  0  0  0  0  0
    1.2020   18.2690   -2.6800 C   0  0  0  0  0  0  0  0  0  0  0  0
    0.4660   19.4710   -2.0820 C   0  0  0  0  0  0  0  0  0  0  0  0
   -0.8850   19.0900   -1.5590 C   0  0  2  0  0  0  0  0  0  0  0  0
   -1.7670   20.1940   -1.3170 O   0  0  0  0  0  0  0  0  0  0  0  0
   -1.3700   19.4360   -0.1630 C   0  0  0  0  0  0  0  0  0  0  0  0
   -0.5070   20.1940    0.7970 C   0  0  0  0  0  0  0  0  0  0  0  0
   -2.4750   18.6210    0.4330 C   0  0  0  0  0  0  0  0  0  0  0  0
    2.8010   16.6750   -1.5790 C   0  0  1  0  0  0  0  0  0  0  0  0
    3.4600   16.6620   -0.1740 C   0  0  0  0  0  0  0  0  0  0  0  0
    2.8160   15.4920    0.6110 C   0  0  0  0  0  0  0  0  0  0  0  0
    2.0600   14.6720   -0.4610 C   0  0  1  0  0  0  0  0  0  0  0  0
    3.1540   13.7840   -1.1320 C   0  0  0  0  0  0  0  0  0  0  0  0
    0.8540   13.8160    0.0470 C   0  0  2  0  0  0  0  0  0  0  0  0
    1.2170   12.7090    1.0530 C   0  0  0  0  0  0  0  0  0  0  0  0
    1.5430   11.3820    0.4510 C   0  0  0  0  0  0  0  0  0  0  0  0
    1.2720   11.0090   -0.8130 C   0  0  0  0  0  0  0  0  0  0  0  0
    0.4840   11.9290   -1.7540 C   0  0  1  0  0  0  0  0  0  0  0  0
   -0.6150   11.1090   -2.4800 C   0  0  0  0  0  0  0  0  0  0  0  0
   -0.0540    9.8850   -3.1960 C   0  0  0  0  0  0  0  0  0  0  0  0
    0.6720    8.9650   -2.2180 C   0  0  2  0  0  0  0  0  0  0  0  0
   -0.2840    8.4130   -1.3080 O   0  0  0  0  0  0  0  0  0  0  0  0
    1.7960    9.6850   -1.4200 C   0  0  0  0  0  0  0  0  0  0  0  0
    2.9750   10.0170   -2.3680 C   0  0  0  0  0  0  0  0  0  0  0  0
    2.3520    8.6840   -0.3710 C   0  0  0  0  0  0  0  0  0  0  0  0
   -0.0810   13.2660   -1.1050 C   0  0  1  0  0  0  0  0  0  0  0  0
   -1.4730   12.9950   -0.4570 C   0  0  0  0  0  0  0  0  0  0  0  0
   -0.3190   14.3290   -2.2420 C   0  0  0  0  0  0  0  0  0  0  0  0
    0.8770   15.2260   -2.6150 C   0  0  0  0  0  0  0  0  0  0  0  0
    1.5160   15.8370   -1.3650 C   0  0  2  0  0  0  0  0  0  0  0  0
    0.4450   16.7530   -0.6800 C   0  0  0  0  0  0  0  0  0  0  0  0
    2.8282   18.6702   -0.0625 H   0  0  0  0  0  0  0  0  0  0  0  0
    4.0269   19.4251   -1.1670 H   0  0  0  0  0  0  0  0  0  0  0  0
    2.3230   19.9936   -1.1670 H   0  0  0  0  0  0  0  0  0  0  0  0
    3.3280   18.2395   -2.9735 H   0  0  0  0  0  0  0  0  0  0  0  0
    1.2602   18.4045   -3.7701 H   0  0  0  0  0  0  0  0  0  0  0  0
    0.6327   17.3708   -2.3988 H   0  0  0  0  0  0  0  0  0  0  0  0
    1.0654   19.8809   -1.2557 H   0  0  0  0  0  0  0  0  0  0  0  0
    0.3273   20.2182   -2.8773 H   0  0  0  0  0  0  0  0  0  0  0  0
   -0.8601   18.1430   -2.1181 H   0  0  0  0  0  0  0  0  0  0  0  0
   -0.7953   19.9408    1.8279 H   0  0  0  0  0  0  0  0  0  0  0  0
    0.5469   19.9243    0.6343 H   0  0  0  0  0  0  0  0  0  0  0  0
   -0.6385   21.2739    0.6343 H   0  0  0  0  0  0  0  0  0  0  0  0
   -2.4134   18.6665    1.5303 H   0  0  0  0  0  0  0  0  0  0  0  0
   -3.4450   19.0216    0.1033 H   0  0  0  0  0  0  0  0  0  0  0  0
   -2.3787   17.5760    0.1033 H   0  0  0  0  0  0  0  0  0  0  0  0
    3.4095   16.2317   -2.3810 H   0  0  0  0  0  0  0  0  0  0  0  0
    4.5448   16.5048   -0.2659 H   0  0  0  0  0  0  0  0  0  0  0  0
    3.3031   17.6193    0.3447 H   0  0  0  0  0  0  0  0  0  0  0  0
    3.5890   14.8778    1.0960 H   0  0  0  0  0  0  0  0  0  0  0  0
    2.1505   15.8441    1.4129 H   0  0  0  0  0  0  0  0  0  0  0  0
    3.7572   13.2944   -0.3533 H   0  0  0  0  0  0  0  0  0  0  0  0
    2.6719   13.0185   -1.7578 H   0  0  0  0  0  0  0  0  0  0  0  0
    3.8040   14.4132   -1.7578 H   0  0  0  0  0  0  0  0  0  0  0  0
    0.2642   14.5521    0.6130 H   0  0  0  0  0  0  0  0  0  0  0  0
    2.0923   13.0458    1.6278 H   0  0  0  0  0  0  0  0  0  0  0  0
    0.3194   12.5514    1.6691 H   0  0  0  0  0  0  0  0  0  0  0  0
    2.0475   10.6471    1.0955 H   0  0  0  0  0  0  0  0  0  0  0  0
    1.2114   12.3091   -2.4864 H   0  0  0  0  0  0  0  0  0  0  0  0
   -1.3543   10.7750   -1.7372 H   0  0  0  0  0  0  0  0  0  0  0  0
   -1.0708   11.7607   -3.2399 H   0  0  0  0  0  0  0  0  0  0  0  0
   -0.8812    9.3315   -3.6643 H   0  0  0  0  0  0  0  0  0  0  0  0
    0.6635   10.2228   -3.9583 H   0  0  0  0  0  0  0  0  0  0  0  0
    1.1608    8.1759   -2.8082 H   0  0  0  0  0  0  0  0  0  0  0  0
    0.1890    7.8000   -0.7200 H   0  0  0  0  0  0  0  0  0  0  0  0
    3.8651   10.2676   -1.7723 H   0  0  0  0  0  0  0  0  0  0  0  0
    3.1921    9.1450   -3.0025 H   0  0  0  0  0  0  0  0  0  0  0  0
    2.7052   10.8741   -3.0025 H   0  0  0  0  0  0  0  0  0  0  0  0
    2.1431    9.0601    0.6414 H   0  0  0  0  0  0  0  0  0  0  0  0
    1.8682    7.7053   -0.5057 H   0  0  0  0  0  0  0  0  0  0  0  0
    3.4385    8.5775   -0.5057 H   0  0  0  0  0  0  0  0  0  0  0  0
   -1.3773   13.0136    0.6387 H   0  0  0  0  0  0  0  0  0  0  0  0
   -2.1835   13.7717   -0.7763 H   0  0  0  0  0  0  0  0  0  0  0  0
   -1.8403   12.0085   -0.7763 H   0  0  0  0  0  0  0  0  0  0  0  0
   -0.6223   13.7846   -3.1485 H   0  0  0  0  0  0  0  0  0  0  0  0
   -1.0794   15.0150   -1.8405 H   0  0  0  0  0  0  0  0  0  0  0  0
    1.6285   14.6217   -3.1443 H   0  0  0  0  0  0  0  0  0  0  0  0
    0.5157   16.0420   -3.2582 H   0  0  0  0  0  0  0  0  0  0  0  0
    0.5389   16.6727    0.4130 H   0  0  0  0  0  0  0  0  0  0  0  0
    0.6059   17.7972   -0.9861 H   0  0  0  0  0  0  0  0  0  0  0  0
   -0.5617   16.4321   -0.9861 H   0  0  0  0  0  0  0  0  0  0  0  0
  1  2  1  0
  2  3  1  0
  3  4  1  0
  4  5  1  0
  5  6  1  0
  6  7  1  0
  7  8  1  0
  7  9  1  0
  2 10  1  0
 10 11  1  0
 11 12  1  0
 12 13  1  0
 13 14  1  6
 13 15  1  0
 15 16  1  0
 16 17  1  0
 17 18  2  0
 18 19  1  0
 19 20  1  0
 20 21  1  0
 21 22  1  0
 22 23  1  0
 22 24  1  0
 24 25  1  0
 24 26  1  0
 19 27  1  0
 27 28  1  1
 27 29  1  0
 29 30  1  0
 30 31  1  0
 31 32  1  1
  7  5  1  0
 31 10  1  0
 31 13  1  0
 27 15  1  0
 24 18  1  0
  1 33  1  0
  1 34  1  0
  1 35  1  0
  2 36  1  6
  3 37  1  0
  3 38  1  0
  4 39  1  0
  4 40  1  0
  5 41  1  6
  8 42  1  0
  8 43  1  0
  8 44  1  0
  9 45  1  0
  9 46  1  0
  9 47  1  0
 10 48  1  6
 11 49  1  0
 11 50  1  0
 12 51  1  0
 12 52  1  0
 14 53  1  0
 14 54  1  0
 14 55  1  0
 15 56  1  1
 16 57  1  0
 16 58  1  0
 17 59  1  0
 19 60  1  6
 20 61  1  0
 20 62  1  0
 21 63  1  0
 21 64  1  0
 22 65  1  6
 23 66  1  0
 25 67  1  0
 25 68  1  0
 25 69  1  0
 26 70  1  0
 26 71  1  0
 26 72  1  0
 28 73  1  0
 28 74  1  0
 28 75  1  0
 29 76  1  0
 29 77  1  0
 30 78  1  0
 30 79  1  0
 32 80  1  0
 32 81  1  0
 32 82  1  0
M  END
>  <meeko>  (8) 
{"is_sidechain": [false], "intermolecular_energy": 2.731, "internal_energy": -0.839}

$$$$
EPH_relaxed_0001_pdb2pqr_Repair_394_r2_0001_out
     RDKit          3D

 82 86  0  0  0  0  0  0  0  0999 V2000
   -0.2970   15.1010   -7.5410 C   0  0  0  0  0  0  0  0  0  0  0  0
    1.0910   15.0520   -6.8960 C   0  0  2  0  0  0  0  0  0  0  0  0
    2.2210   15.1120   -7.9440 C   0  0  0  0  0  0  0  0  0  0  0  0
    2.2630   16.4270   -8.7280 C   0  0  0  0  0  0  0  0  0  0  0  0
    1.8460   16.2350  -10.1550 C   0  0  2  0  0  0  0  0  0  0  0  0
    1.2080   14.9800  -10.4290 O   0  0  0  0  0  0  0  0  0  0  0  0
    2.4710   15.2050  -11.0770 C   0  0  0  0  0  0  0  0  0  0  0  0
    3.5650   14.2990  -10.6080 C   0  0  0  0  0  0  0  0  0  0  0  0
    2.3600   15.4080  -12.5560 C   0  0  0  0  0  0  0  0  0  0  0  0
    1.2280   13.7880   -6.0550 C   0  0  1  0  0  0  0  0  0  0  0  0
    2.6640   13.2000   -6.0900 C   0  0  0  0  0  0  0  0  0  0  0  0
    2.9350   12.5970   -4.6880 C   0  0  0  0  0  0  0  0  0  0  0  0
    1.5480   12.5600   -4.0040 C   0  0  1  0  0  0  0  0  0  0  0  0
    0.8610   11.2750   -4.5620 C   0  0  0  0  0  0  0  0  0  0  0  0
    1.5480   12.5840   -2.4410 C   0  0  2  0  0  0  0  0  0  0  0  0
    2.2320   11.3800   -1.7700 C   0  0  0  0  0  0  0  0  0  0  0  0
    1.3370   10.2220   -1.4730 C   0  0  0  0  0  0  0  0  0  0  0  0
   -0.0080   10.2530   -1.4710 C   0  0  0  0  0  0  0  0  0  0  0  0
   -0.7660   11.5690   -1.6930 C   0  0  1  0  0  0  0  0  0  0  0  0
   -1.8920   11.7030   -0.6350 C   0  0  0  0  0  0  0  0  0  0  0  0
   -2.8200   10.4920   -0.6120 C   0  0  0  0  0  0  0  0  0  0  0  0
   -2.0390    9.2110   -0.3310 C   0  0  2  0  0  0  0  0  0  0  0  0
   -1.5270    9.2660    1.0040 O   0  0  0  0  0  0  0  0  0  0  0  0
   -0.8700    8.9750   -1.3290 C   0  0  0  0  0  0  0  0  0  0  0  0
   -1.4410    8.6160   -2.7230 C   0  0  0  0  0  0  0  0  0  0  0  0
   -0.0780    7.7280   -0.8500 C   0  0  0  0  0  0  0  0  0  0  0  0
    0.1320   12.8760   -1.7980 C   0  0  1  0  0  0  0  0  0  0  0  0
    0.4000   13.4530   -0.3740 C   0  0  0  0  0  0  0  0  0  0  0  0
   -0.6640   13.9850   -2.5830 C   0  0  0  0  0  0  0  0  0  0  0  0
   -0.5280   13.9830   -4.1170 C   0  0  0  0  0  0  0  0  0  0  0  0
    0.9430   13.9100   -4.5370 C   0  0  2  0  0  0  0  0  0  0  0  0
    1.6560   15.2020   -4.0090 C   0  0  0  0  0  0  0  0  0  0  0  0
   -1.0659   15.1281   -6.7548 H   0  0  0  0  0  0  0  0  0  0  0  0
   -0.3794   16.0026   -8.1657 H   0  0  0  0  0  0  0  0  0  0  0  0
   -0.4428   14.2074   -8.1657 H   0  0  0  0  0  0  0  0  0  0  0  0
    1.1892   15.9394   -6.2535 H   0  0  0  0  0  0  0  0  0  0  0  0
    3.1829   14.9857   -7.4255 H   0  0  0  0  0  0  0  0  0  0  0  0
    2.0284   14.3096   -8.6714 H   0  0  0  0  0  0  0  0  0  0  0  0
    1.5824   17.1480   -8.2516 H   0  0  0  0  0  0  0  0  0  0  0  0
    3.2985   16.7981   -8.7202 H   0  0  0  0  0  0  0  0  0  0  0  0
    1.6605   17.3130  -10.2708 H   0  0  0  0  0  0  0  0  0  0  0  0
    3.5827   14.2843   -9.5082 H   0  0  0  0  0  0  0  0  0  0  0  0
    3.3855   13.2815  -10.9854 H   0  0  0  0  0  0  0  0  0  0  0  0
    4.5312   14.6650  -10.9854 H   0  0  0  0  0  0  0  0  0  0  0  0
    1.8412   16.3567  -12.7580 H   0  0  0  0  0  0  0  0  0  0  0  0
    3.3666   15.4391  -12.9984 H   0  0  0  0  0  0  0  0  0  0  0  0
    1.7906   14.5773  -12.9984 H   0  0  0  0  0  0  0  0  0  0  0  0
    0.4592   13.1636   -6.5336 H   0  0  0  0  0  0  0  0  0  0  0  0
    2.7339   12.4167   -6.8591 H   0  0  0  0  0  0  0  0  0  0  0  0
    3.4030   13.9771   -6.3351 H   0  0  0  0  0  0  0  0  0  0  0  0
    3.3519   11.5828   -4.7755 H   0  0  0  0  0  0  0  0  0  0  0  0
    3.6668   13.1856   -4.1153 H   0  0  0  0  0  0  0  0  0  0  0  0
    0.5247   10.6460   -3.7246 H   0  0  0  0  0  0  0  0  0  0  0  0
   -0.0051   11.5600   -5.1774 H   0  0  0  0  0  0  0  0  0  0  0  0
    1.5790   10.7131   -5.1774 H   0  0  0  0  0  0  0  0  0  0  0  0
    2.1856   13.4522   -2.2181 H   0  0  0  0  0  0  0  0  0  0  0  0
    3.0326   11.0284   -2.4374 H   0  0  0  0  0  0  0  0  0  0  0  0
    2.5964   11.7405   -0.7967 H   0  0  0  0  0  0  0  0  0  0  0  0
    1.8185    9.2619   -1.2356 H   0  0  0  0  0  0  0  0  0  0  0  0
   -1.2061   11.5011   -2.6988 H   0  0  0  0  0  0  0  0  0  0  0  0
   -1.4316   11.8134    0.3579 H   0  0  0  0  0  0  0  0  0  0  0  0
   -2.4970   12.5824   -0.9007 H   0  0  0  0  0  0  0  0  0  0  0  0
   -3.5758   10.6326    0.1747 H   0  0  0  0  0  0  0  0  0  0  0  0
   -3.3019   10.4004   -1.5966 H   0  0  0  0  0  0  0  0  0  0  0  0
   -2.7338    8.3674   -0.4555 H   0  0  0  0  0  0  0  0  0  0  0  0
   -2.2610    9.5200    1.5900 H   0  0  0  0  0  0  0  0  0  0  0  0
   -2.3665    8.0341   -2.6014 H   0  0  0  0  0  0  0  0  0  0  0  0
   -1.6591    9.5398   -3.2789 H   0  0  0  0  0  0  0  0  0  0  0  0
   -0.7030    8.0191   -3.2789 H   0  0  0  0  0  0  0  0  0  0  0  0
   -0.0625    7.7036    0.2496 H   0  0  0  0  0  0  0  0  0  0  0  0
   -0.5634    6.8170   -1.2302 H   0  0  0  0  0  0  0  0  0  0  0  0
    0.9529    7.7801   -1.2302 H   0  0  0  0  0  0  0  0  0  0  0  0
    0.0641   12.7299    0.3838 H   0  0  0  0  0  0  0  0  0  0  0  0
    1.4770   13.6397   -0.2507 H   0  0  0  0  0  0  0  0  0  0  0  0
   -0.1521   14.3964   -0.2507 H   0  0  0  0  0  0  0  0  0  0  0  0
   -1.7305   13.8616   -2.3433 H   0  0  0  0  0  0  0  0  0  0  0  0
   -0.2254   14.9395   -2.2565 H   0  0  0  0  0  0  0  0  0  0  0  0
   -1.0622   13.1120   -4.5244 H   0  0  0  0  0  0  0  0  0  0  0  0
   -0.9585   14.9165   -4.5084 H   0  0  0  0  0  0  0  0  0  0  0  0
    1.6540   15.1984   -2.9090 H   0  0  0  0  0  0  0  0  0  0  0  0
    2.6936   15.2233   -4.3737 H   0  0  0  0  0  0  0  0  0  0  0  0
    1.1209   16.0912   -4.3737 H   0  0  0  0  0  0  0  0  0  0  0  0
  1  2  1  0
  2  3  1  0
  3  4  1  0
  4  5  1  0
  5  6  1  0
  6  7  1  0
  7  8  1  0
  7  9  1  0
  2 10  1  0
 10 11  1  0
 11 12  1  0
 12 13  1  0
 13 14  1  1
 13 15  1  0
 15 16  1  0
 16 17  1  0
 17 18  2  0
 18 19  1  0
 19 20  1  0
 20 21  1  0
 21 22  1  0
 22 23  1  0
 22 24  1  0
 24 25  1  0
 24 26  1  0
 19 27  1  0
 27 28  1  1
 27 29  1  0
 29 30  1  0
 30 31  1  0
 31 32  1  1
  7  5  1  0
 31 10  1  0
 31 13  1  0
 27 15  1  0
 24 18  1  0
  1 33  1  0
  1 34  1  0
  1 35  1  0
  2 36  1  1
  3 37  1  0
  3 38  1  0
  4 39  1  0
  4 40  1  0
  5 41  1  6
  8 42  1  0
  8 43  1  0
  8 44  1  0
  9 45  1  0
  9 46  1  0
  9 47  1  0
 10 48  1  6
 11 49  1  0
 11 50  1  0
 12 51  1  0
 12 52  1  0
 14 53  1  0
 14 54  1  0
 14 55  1  0
 15 56  1  6
 16 57  1  0
 16 58  1  0
 17 59  1  0
 19 60  1  6
 20 61  1  0
 20 62  1  0
 21 63  1  0
 21 64  1  0
 22 65  1  1
 23 66  1  0
 25 67  1  0
 25 68  1  0
 25 69  1  0
 26 70  1  0
 26 71  1  0
 26 72  1  0
 28 73  1  0
 28 74  1  0
 28 75  1  0
 29 76  1  0
 29 77  1  0
 30 78  1  0
 30 79  1  0
 32 80  1  0
 32 81  1  0
 32 82  1  0
M  END
>  <meeko>  (9) 
{"is_sidechain": [false], "intermolecular_energy": 2.731, "internal_energy": -0.839}

$$$$
EPH_relaxed_0001_pdb2pqr_Repair_394_r2_0001_out
     RDKit          3D

 82 86  0  0  0  0  0  0  0  0999 V2000
   -0.9200   16.3760   -5.8750 C   0  0  0  0  0  0  0  0  0  0  0  0
    0.1880   15.6760   -6.6670 C   0  0  2  0  0  0  0  0  0  0  0  0
   -0.1960   15.4700   -8.1460 C   0  0  0  0  0  0  0  0  0  0  0  0
    0.4420   16.4880   -9.0950 C   0  0  0  0  0  0  0  0  0  0  0  0
    1.8480   16.1080   -9.4510 C   0  0  2  0  0  0  0  0  0  0  0  0
    2.3300   16.6780  -10.6750 O   0  0  0  0  0  0  0  0  0  0  0  0
    2.2030   15.2470  -10.6490 C   0  0  0  0  0  0  0  0  0  0  0  0
    1.1490   14.7130  -11.5660 C   0  0  0  0  0  0  0  0  0  0  0  0
    3.5150   14.5260  -10.6480 C   0  0  0  0  0  0  0  0  0  0  0  0
    0.5180   14.3340   -6.0230 C   0  0  1  0  0  0  0  0  0  0  0  0
    1.7470   13.6460   -6.6740 C   0  0  0  0  0  0  0  0  0  0  0  0
    2.4950   12.9000   -5.5390 C   0  0  0  0  0  0  0  0  0  0  0  0
    1.5050   12.9050   -4.3510 C   0  0  1  0  0  0  0  0  0  0  0  0
    0.5200   11.7300   -4.6440 C   0  0  0  0  0  0  0  0  0  0  0  0
    2.1370   12.7860   -2.9250 C   0  0  2  0  0  0  0  0  0  0  0  0
    2.9020   11.4780   -2.6570 C   0  0  0  0  0  0  0  0  0  0  0  0
    2.0860   10.3680   -2.0820 C   0  0  0  0  0  0  0  0  0  0  0  0
    0.8660   10.5000   -1.5270 C   0  0  0  0  0  0  0  0  0  0  0  0
    0.2270   11.8830   -1.3500 C   0  0  1  0  0  0  0  0  0  0  0  0
   -0.3570   12.0040    0.0820 C   0  0  0  0  0  0  0  0  0  0  0  0
   -1.3190   10.8690    0.4190 C   0  0  0  0  0  0  0  0  0  0  0  0
   -0.6310    9.5130    0.2870 C   0  0  2  0  0  0  0  0  0  0  0  0
    0.3780    9.4090    1.2970 O   0  0  0  0  0  0  0  0  0  0  0  0
    0.0050    9.2820   -1.1120 C   0  0  0  0  0  0  0  0  0  0  0  0
   -1.1130    9.0950   -2.1670 C   0  0  0  0  0  0  0  0  0  0  0  0
    0.7870    7.9410   -1.0650 C   0  0  0  0  0  0  0  0  0  0  0  0
    1.1390   13.1240   -1.7440 C   0  0  1  0  0  0  0  0  0  0  0  0
    2.0170   13.5470   -0.5270 C   0  0  0  0  0  0  0  0  0  0  0  0
    0.2160   14.3560   -2.0750 C   0  0  0  0  0  0  0  0  0  0  0  0
   -0.2780   14.4830   -3.5290 C   0  0  0  0  0  0  0  0  0  0  0  0
    0.8830   14.3390   -4.5170 C   0  0  2  0  0  0  0  0  0  0  0  0
    1.8800   15.5200   -4.2600 C   0  0  0  0  0  0  0  0  0  0  0  0
   -0.7318   16.2571   -4.7978 H   0  0  0  0  0  0  0  0  0  0  0  0
   -0.9323   17.4462   -6.1292 H   0  0  0  0  0  0  0  0  0  0  0  0
   -1.8917   15.9275   -6.1292 H   0  0  0  0  0  0  0  0  0  0  0  0
    1.0736   16.3280   -6.6440 H   0  0  0  0  0  0  0  0  0  0  0  0
    0.1242   14.4628   -8.4509 H   0  0  0  0  0  0  0  0  0  0  0  0
   -1.2856   15.6034   -8.2168 H   0  0  0  0  0  0  0  0  0  0  0  0
   -0.1571   16.5412  -10.0160 H   0  0  0  0  0  0  0  0  0  0  0  0
    0.4684   17.4625   -8.5855 H   0  0  0  0  0  0  0  0  0  0  0  0
    2.1258   16.0448   -8.3885 H   0  0  0  0  0  0  0  0  0  0  0  0
    0.3234   14.2947  -10.9715 H   0  0  0  0  0  0  0  0  0  0  0  0
    0.7683   15.5270  -12.2005 H   0  0  0  0  0  0  0  0  0  0  0  0
    1.5801   13.9246  -12.2005 H   0  0  0  0  0  0  0  0  0  0  0  0
    3.8357   14.3497   -9.6107 H   0  0  0  0  0  0  0  0  0  0  0  0
    3.4041   13.5621  -11.1663 H   0  0  0  0  0  0  0  0  0  0  0  0
    4.2692   15.1364  -11.1663 H   0  0  0  0  0  0  0  0  0  0  0  0
   -0.4395   13.8146   -6.1763 H   0  0  0  0  0  0  0  0  0  0  0  0
    1.4181   12.9324   -7.4438 H   0  0  0  0  0  0  0  0  0  0  0  0
    2.4017   14.3844   -7.1599 H   0  0  0  0  0  0  0  0  0  0  0  0
    2.7327   11.8697   -5.8422 H   0  0  0  0  0  0  0  0  0  0  0  0
    3.4529   13.3779   -5.2860 H   0  0  0  0  0  0  0  0  0  0  0  0
    0.1636   11.3048   -3.6942 H   0  0  0  0  0  0  0  0  0  0  0  0
   -0.3371   12.1056   -5.2222 H   0  0  0  0  0  0  0  0  0  0  0  0
    1.0394   10.9516   -5.2222 H   0  0  0  0  0  0  0  0  0  0  0  0
    2.8983   13.5799   -2.9374 H   0  0  0  0  0  0  0  0  0  0  0  0
    3.3248   11.1300   -3.6110 H   0  0  0  0  0  0  0  0  0  0  0  0
    3.6625   11.7201   -1.9000 H   0  0  0  0  0  0  0  0  0  0  0  0
    2.5177    9.3568   -2.1143 H   0  0  0  0  0  0  0  0  0  0  0  0
   -0.5846   11.9399   -2.0903 H   0  0  0  0  0  0  0  0  0  0  0  0
    0.4729   11.9889    0.8038 H   0  0  0  0  0  0  0  0  0  0  0  0
   -0.9214   12.9467    0.1340 H   0  0  0  0  0  0  0  0  0  0  0  0
   -1.6743   10.9932    1.4526 H   0  0  0  0  0  0  0  0  0  0  0  0
   -2.1635   10.9041   -0.2850 H   0  0  0  0  0  0  0  0  0  0  0  0
   -1.4015    8.7381    0.4126 H   0  0  0  0  0  0  0  0  0  0  0  0
    1.2390    9.3620    0.8490 H   0  0  0  0  0  0  0  0  0  0  0  0
   -2.0746    8.9342   -1.6576 H   0  0  0  0  0  0  0  0  0  0  0  0
   -1.1775    9.9948   -2.7964 H   0  0  0  0  0  0  0  0  0  0  0  0
   -0.8811    8.2232   -2.7964 H   0  0  0  0  0  0  0  0  0  0  0  0
    0.9558    7.6515   -0.0173 H   0  0  0  0  0  0  0  0  0  0  0  0
    0.2037    7.1584   -1.5722 H   0  0  0  0  0  0  0  0  0  0  0  0
    1.7554    8.0633   -1.5722 H   0  0  0  0  0  0  0  0  0  0  0  0
    1.4942   13.2951    0.4075 H   0  0  0  0  0  0  0  0  0  0  0  0
    2.9780   13.0130   -0.5649 H   0  0  0  0  0  0  0  0  0  0  0  0
    2.1983   14.6313   -0.5649 H   0  0  0  0  0  0  0  0  0  0  0  0
   -0.6704   14.2914   -1.4268 H   0  0  0  0  0  0  0  0  0  0  0  0
    0.8465   15.2415   -1.9068 H   0  0  0  0  0  0  0  0  0  0  0  0
   -1.0191   13.6947   -3.7274 H   0  0  0  0  0  0  0  0  0  0  0  0
   -0.7291   15.4776   -3.6605 H   0  0  0  0  0  0  0  0  0  0  0  0
    2.0036   15.6664   -3.1768 H   0  0  0  0  0  0  0  0  0  0  0  0
    2.8545   15.2820   -4.7114 H   0  0  0  0  0  0  0  0  0  0  0  0
    1.4819   16.4407   -4.7114 H   0  0  0  0  0  0  0  0  0  0  0  0
  1  2  1  0
  2  3  1  0
  3  4  1  0
  4  5  1  0
  5  6  1  0
  6  7  1  0
  7  8  1  0
  7  9  1  0
  2 10  1  0
 10 11  1  0
 11 12  1  0
 12 13  1  0
 13 14  1  6
 13 15  1  0
 15 16  1  0
 16 17  1  0
 17 18  2  0
 18 19  1  0
 19 20  1  0
 20 21  1  0
 21 22  1  0
 22 23  1  0
 22 24  1  0
 24 25  1  0
 24 26  1  0
 19 27  1  0
 27 28  1  1
 27 29  1  0
 29 30  1  0
 30 31  1  0
 31 32  1  6
  7  5  1  0
 31 10  1  0
 31 13  1  0
 27 15  1  0
 24 18  1  0
  1 33  1  0
  1 34  1  0
  1 35  1  0
  2 36  1  6
  3 37  1  0
  3 38  1  0
  4 39  1  0
  4 40  1  0
  5 41  1  1
  8 42  1  0
  8 43  1  0
  8 44  1  0
  9 45  1  0
  9 46  1  0
  9 47  1  0
 10 48  1  1
 11 49  1  0
 11 50  1  0
 12 51  1  0
 12 52  1  0
 14 53  1  0
 14 54  1  0
 14 55  1  0
 15 56  1  6
 16 57  1  0
 16 58  1  0
 17 59  1  0
 19 60  1  6
 20 61  1  0
 20 62  1  0
 21 63  1  0
 21 64  1  0
 22 65  1  1
 23 66  1  0
 25 67  1  0
 25 68  1  0
 25 69  1  0
 26 70  1  0
 26 71  1  0
 26 72  1  0
 28 73  1  0
 28 74  1  0
 28 75  1  0
 29 76  1  0
 29 77  1  0
 30 78  1  0
 30 79  1  0
 32 80  1  0
 32 81  1  0
 32 82  1  0
M  END
>  <meeko>  (10) 
{"is_sidechain": [false], "intermolecular_energy": 2.731, "internal_energy": -0.839}

$$$$
EPH_relaxed_0001_pdb2pqr_Repair_394_r2_0001_out
     RDKit          3D

 82 86  0  0  0  0  0  0  0  0999 V2000
   -2.2850    7.8200   -2.1370 C   0  0  0  0  0  0  0  0  0  0  0  0
   -2.2600    8.4360   -0.7350 C   0  0  2  0  0  0  0  0  0  0  0  0
   -3.6510    8.4200   -0.0690 C   0  0  0  0  0  0  0  0  0  0  0  0
   -4.8050    8.6460   -1.0490 C   0  0  0  0  0  0  0  0  0  0  0  0
   -5.8770    7.6110   -0.8900 C   0  0  2  0  0  0  0  0  0  0  0  0
   -5.4060    6.2570   -0.8800 O   0  0  0  0  0  0  0  0  0  0  0  0
   -6.2550    6.6240   -1.9790 C   0  0  0  0  0  0  0  0  0  0  0  0
   -5.5650    6.6260   -3.3070 C   0  0  0  0  0  0  0  0  0  0  0  0
   -7.6100    5.9900   -1.9320 C   0  0  0  0  0  0  0  0  0  0  0  0
   -1.7330    9.8650   -0.8050 C   0  0  1  0  0  0  0  0  0  0  0  0
   -1.3060   10.4130    0.5820 C   0  0  0  0  0  0  0  0  0  0  0  0
   -0.0820   11.3340    0.3430 C   0  0  0  0  0  0  0  0  0  0  0  0
   -0.0510   11.5500   -1.1890 C   0  0  1  0  0  0  0  0  0  0  0  0
   -1.1050   12.6690   -1.4580 C   0  0  0  0  0  0  0  0  0  0  0  0
    1.3400   11.9060   -1.8080 C   0  0  2  0  0  0  0  0  0  0  0  0
    1.9530   13.2300   -1.3180 C   0  0  0  0  0  0  0  0  0  0  0  0
    1.5990   14.4340   -2.1260 C   0  0  0  0  0  0  0  0  0  0  0  0
    1.0580   14.4170   -3.3580 C   0  0  0  0  0  0  0  0  0  0  0  0
    0.8380   13.0950   -4.1040 C   0  0  1  0  0  0  0  0  0  0  0  0
    1.3450   13.2330   -5.5640 C   0  0  0  0  0  0  0  0  0  0  0  0
    0.7240   14.4220   -6.2890 C   0  0  0  0  0  0  0  0  0  0  0  0
    1.0140   15.7250   -5.5480 C   0  0  2  0  0  0  0  0  0  0  0  0
    2.4180   15.9900   -5.6140 O   0  0  0  0  0  0  0  0  0  0  0  0
    0.5550   15.7010   -4.0640 C   0  0  0  0  0  0  0  0  0  0  0  0
   -0.9930   15.7170   -3.9970 C   0  0  0  0  0  0  0  0  0  0  0  0
    1.0320   17.0180   -3.3950 C   0  0  0  0  0  0  0  0  0  0  0  0
    1.3960   11.7920   -3.3850 C   0  0  1  0  0  0  0  0  0  0  0  0
    2.8930   11.5750   -3.7630 C   0  0  0  0  0  0  0  0  0  0  0  0
    0.6160   10.5340   -3.9220 C   0  0  0  0  0  0  0  0  0  0  0  0
   -0.6900   10.1630   -3.1930 C   0  0  0  0  0  0  0  0  0  0  0  0
   -0.4770   10.1170   -1.6770 C   0  0  2  0  0  0  0  0  0  0  0  0
    0.5630    8.9850   -1.3730 C   0  0  0  0  0  0  0  0  0  0  0  0
   -2.3295    6.7239   -2.0552 H   0  0  0  0  0  0  0  0  0  0  0  0
   -3.1691    8.1832   -2.6814 H   0  0  0  0  0  0  0  0  0  0  0  0
   -1.3743    8.1104   -2.6814 H   0  0  0  0  0  0  0  0  0  0  0  0
   -1.5899    7.8220   -0.1153 H   0  0  0  0  0  0  0  0  0  0  0  0
   -3.7930    7.4426    0.4152 H   0  0  0  0  0  0  0  0  0  0  0  0
   -3.6726    9.2518    0.6504 H   0  0  0  0  0  0  0  0  0  0  0  0
   -5.2390    9.6400   -0.8657 H   0  0  0  0  0  0  0  0  0  0  0  0
   -4.4062    8.5728   -2.0716 H   0  0  0  0  0  0  0  0  0  0  0  0
   -6.4780    8.2947   -0.2724 H   0  0  0  0  0  0  0  0  0  0  0  0
   -4.4757    6.6292   -3.1542 H   0  0  0  0  0  0  0  0  0  0  0  0
   -5.8535    5.7270   -3.8715 H   0  0  0  0  0  0  0  0  0  0  0  0
   -5.8587    7.5233   -3.8715 H   0  0  0  0  0  0  0  0  0  0  0  0
   -7.9124    5.8485   -0.8839 H   0  0  0  0  0  0  0  0  0  0  0  0
   -8.3373    6.6413   -2.4388 H   0  0  0  0  0  0  0  0  0  0  0  0
   -7.5761    5.0143   -2.4388 H   0  0  0  0  0  0  0  0  0  0  0  0
   -2.6070   10.3626   -1.2506 H   0  0  0  0  0  0  0  0  0  0  0  0
   -2.1294   10.9869    1.0322 H   0  0  0  0  0  0  0  0  0  0  0  0
   -1.0538    9.5924    1.2697 H   0  0  0  0  0  0  0  0  0  0  0  0
   -0.2084   12.2923    0.8680 H   0  0  0  0  0  0  0  0  0  0  0  0
    0.8522   10.8938    0.7217 H   0  0  0  0  0  0  0  0  0  0  0  0
   -1.4752   13.0620   -0.4996 H   0  0  0  0  0  0  0  0  0  0  0  0
   -0.6376   13.4827   -2.0320 H   0  0  0  0  0  0  0  0  0  0  0  0
   -1.9451   12.2510   -2.0320 H   0  0  0  0  0  0  0  0  0  0  0  0
    1.9865   11.1113   -1.4074 H   0  0  0  0  0  0  0  0  0  0  0  0
    1.6124   13.4010   -0.2861 H   0  0  0  0  0  0  0  0  0  0  0  0
    3.0430   13.1126   -1.4084 H   0  0  0  0  0  0  0  0  0  0  0  0
    1.7971   15.4182   -1.6765 H   0  0  0  0  0  0  0  0  0  0  0  0
   -0.2483   12.9217   -4.1011 H   0  0  0  0  0  0  0  0  0  0  0  0
    2.4373   13.3616   -5.5472 H   0  0  0  0  0  0  0  0  0  0  0  0
    1.0528   12.3217   -6.1063 H   0  0  0  0  0  0  0  0  0  0  0  0
    1.1436   14.4840   -7.3039 H   0  0  0  0  0  0  0  0  0  0  0  0
   -0.3656   14.2773   -6.3315 H   0  0  0  0  0  0  0  0  0  0  0  0
    0.4364   16.5207   -6.0412 H   0  0  0  0  0  0  0  0  0  0  0  0
    2.7290   15.7160   -6.4930 H   0  0  0  0  0  0  0  0  0  0  0  0
   -1.3145   15.7203   -2.9450 H   0  0  0  0  0  0  0  0  0  0  0  0
   -1.3724   16.6191   -4.4992 H   0  0  0  0  0  0  0  0  0  0  0  0
   -1.3910   14.8229   -4.4992 H   0  0  0  0  0  0  0  0  0  0  0  0
    0.9925   16.9088   -2.3011 H   0  0  0  0  0  0  0  0  0  0  0  0
    2.0652   17.2334   -3.7049 H   0  0  0  0  0  0  0  0  0  0  0  0
    0.3763   17.8451   -3.7049 H   0  0  0  0  0  0  0  0  0  0  0  0
    3.4939   11.4879   -2.8457 H   0  0  0  0  0  0  0  0  0  0  0  0
    2.9918   10.6531   -4.3550 H   0  0  0  0  0  0  0  0  0  0  0  0
    3.2495   12.4309   -4.3550 H   0  0  0  0  0  0  0  0  0  0  0  0
    0.3665   10.7224   -4.9766 H   0  0  0  0  0  0  0  0  0  0  0  0
    1.2918    9.6826   -3.7532 H   0  0  0  0  0  0  0  0  0  0  0  0
   -1.4583   10.9150   -3.4259 H   0  0  0  0  0  0  0  0  0  0  0  0
   -1.0108    9.1672   -3.5327 H   0  0  0  0  0  0  0  0  0  0  0  0
    0.6702    8.8683   -0.2845 H   0  0  0  0  0  0  0  0  0  0  0  0
    0.2130    8.0384   -1.8106 H   0  0  0  0  0  0  0  0  0  0  0  0
    1.5358    9.2537   -1.8106 H   0  0  0  0  0  0  0  0  0  0  0  0
  1  2  1  0
  2  3  1  0
  3  4  1  0
  4  5  1  0
  5  6  1  0
  6  7  1  0
  7  8  1  0
  7  9  1  0
  2 10  1  0
 10 11  1  0
 11 12  1  0
 12 13  1  0
 13 14  1  1
 13 15  1  0
 15 16  1  0
 16 17  1  0
 17 18  2  0
 18 19  1  0
 19 20  1  0
 20 21  1  0
 21 22  1  0
 22 23  1  0
 22 24  1  0
 24 25  1  0
 24 26  1  0
 19 27  1  0
 27 28  1  1
 27 29  1  0
 29 30  1  0
 30 31  1  0
 31 32  1  6
  7  5  1  0
 31 10  1  0
 31 13  1  0
 27 15  1  0
 24 18  1  0
  1 33  1  0
  1 34  1  0
  1 35  1  0
  2 36  1  1
  3 37  1  0
  3 38  1  0
  4 39  1  0
  4 40  1  0
  5 41  1  1
  8 42  1  0
  8 43  1  0
  8 44  1  0
  9 45  1  0
  9 46  1  0
  9 47  1  0
 10 48  1  6
 11 49  1  0
 11 50  1  0
 12 51  1  0
 12 52  1  0
 14 53  1  0
 14 54  1  0
 14 55  1  0
 15 56  1  1
 16 57  1  0
 16 58  1  0
 17 59  1  0
 19 60  1  6
 20 61  1  0
 20 62  1  0
 21 63  1  0
 21 64  1  0
 22 65  1  6
 23 66  1  0
 25 67  1  0
 25 68  1  0
 25 69  1  0
 26 70  1  0
 26 71  1  0
 26 72  1  0
 28 73  1  0
 28 74  1  0
 28 75  1  0
 29 76  1  0
 29 77  1  0
 30 78  1  0
 30 79  1  0
 32 80  1  0
 32 81  1  0
 32 82  1  0
M  END
>  <meeko>  (11) 
{"is_sidechain": [false], "intermolecular_energy": 2.731, "internal_energy": -0.839}

$$$$
EPH_relaxed_0001_pdb2pqr_Repair_394_r2_0001_out
     RDKit          3D

 82 86  0  0  0  0  0  0  0  0999 V2000
    0.0250    9.2210   -1.9620 C   0  0  0  0  0  0  0  0  0  0  0  0
    0.9970   10.2480   -2.5490 C   0  0  2  0  0  0  0  0  0  0  0  0
    2.4110    9.6640   -2.7460 C   0  0  0  0  0  0  0  0  0  0  0  0
    3.2610   10.4380   -3.7570 C   0  0  0  0  0  0  0  0  0  0  0  0
    4.6640   10.6320   -3.2660 C   0  0  2  0  0  0  0  0  0  0  0  0
    5.2740   11.8660   -3.6690 O   0  0  0  0  0  0  0  0  0  0  0  0
    5.8740   10.6660   -4.1820 C   0  0  0  0  0  0  0  0  0  0  0  0
    5.7350   10.5010   -5.6630 C   0  0  0  0  0  0  0  0  0  0  0  0
    7.2200   10.3680   -3.6000 C   0  0  0  0  0  0  0  0  0  0  0  0
    1.0620   11.4760   -1.6490 C   0  0  1  0  0  0  0  0  0  0  0  0
    2.1530   11.3560   -0.5520 C   0  0  0  0  0  0  0  0  0  0  0  0
    2.7300   12.7790   -0.3370 C   0  0  0  0  0  0  0  0  0  0  0  0
    1.7380   13.7160   -1.0650 C   0  0  1  0  0  0  0  0  0  0  0  0
    0.5580   13.9070   -0.0620 C   0  0  0  0  0  0  0  0  0  0  0  0
    2.3120   15.0880   -1.5490 C   0  0  2  0  0  0  0  0  0  0  0  0
    2.8170   16.0150   -0.4300 C   0  0  0  0  0  0  0  0  0  0  0  0
    1.8000   16.9560    0.1250 C   0  0  0  0  0  0  0  0  0  0  0  0
    0.6170   17.2540   -0.4430 C   0  0  0  0  0  0  0  0  0  0  0  0
    0.2420   16.6940   -1.8210 C   0  0  1  0  0  0  0  0  0  0  0  0
   -0.3340   17.8330   -2.7040 C   0  0  0  0  0  0  0  0  0  0  0  0
   -1.4960   18.5610   -2.0340 C   0  0  0  0  0  0  0  0  0  0  0  0
   -1.0680   19.1530   -0.6940 C   0  0  2  0  0  0  0  0  0  0  0  0
   -0.1140   20.1920   -0.9330 O   0  0  0  0  0  0  0  0  0  0  0  0
   -0.4620   18.1000    0.2760 C   0  0  0  0  0  0  0  0  0  0  0  0
   -1.5780   17.1470    0.7710 C   0  0  0  0  0  0  0  0  0  0  0  0
    0.0560   18.8510    1.5320 C   0  0  0  0  0  0  0  0  0  0  0  0
    1.3750   15.8610   -2.5630 C   0  0  1  0  0  0  0  0  0  0  0  0
    2.2950   16.8210   -3.3770 C   0  0  0  0  0  0  0  0  0  0  0  0
    0.7020   14.8970   -3.6100 C   0  0  0  0  0  0  0  0  0  0  0  0
    0.2650   13.5110   -3.0980 C   0  0  0  0  0  0  0  0  0  0  0  0
    1.3960   12.8330   -2.3190 C   0  0  2  0  0  0  0  0  0  0  0  0
    2.5900   12.6070   -3.3090 C   0  0  0  0  0  0  0  0  0  0  0  0
    0.0655    9.2638   -0.8636 H   0  0  0  0  0  0  0  0  0  0  0  0
   -0.9968    9.4480   -2.3003 H   0  0  0  0  0  0  0  0  0  0  0  0
    0.3079    8.2133   -2.3003 H   0  0  0  0  0  0  0  0  0  0  0  0
    0.6167   10.5335   -3.5409 H   0  0  0  0  0  0  0  0  0  0  0  0
    2.9295    9.6748   -1.7759 H   0  0  0  0  0  0  0  0  0  0  0  0
    2.2859    8.6460   -3.1436 H   0  0  0  0  0  0  0  0  0  0  0  0
    3.2884    9.8777   -4.7032 H   0  0  0  0  0  0  0  0  0  0  0  0
    2.8068   11.4296   -3.9001 H   0  0  0  0  0  0  0  0  0  0  0  0
    4.4475   10.0627   -2.3500 H   0  0  0  0  0  0  0  0  0  0  0  0
    5.0397    9.6757   -5.8763 H   0  0  0  0  0  0  0  0  0  0  0  0
    5.3447   11.4317   -6.1006 H   0  0  0  0  0  0  0  0  0  0  0  0
    6.7184   10.2744   -6.1006 H   0  0  0  0  0  0  0  0  0  0  0  0
    7.1560   10.3822   -2.5020 H   0  0  0  0  0  0  0  0  0  0  0  0
    7.5526    9.3745   -3.9351 H   0  0  0  0  0  0  0  0  0  0  0  0
    7.9409   11.1283   -3.9351 H   0  0  0  0  0  0  0  0  0  0  0  0
    0.0273   11.4849   -1.2757 H   0  0  0  0  0  0  0  0  0  0  0  0
    1.7105   10.9815    0.3829 H   0  0  0  0  0  0  0  0  0  0  0  0
    2.9418   10.6517   -0.8550 H   0  0  0  0  0  0  0  0  0  0  0  0
    2.7774   13.0210    0.7350 H   0  0  0  0  0  0  0  0  0  0  0  0
    3.7555   12.8761   -0.7229 H   0  0  0  0  0  0  0  0  0  0  0  0
    0.9388   13.8454    0.9681 H   0  0  0  0  0  0  0  0  0  0  0  0
    0.0952   14.8917   -0.2235 H   0  0  0  0  0  0  0  0  0  0  0  0
   -0.1918   13.1185   -0.2235 H   0  0  0  0  0  0  0  0  0  0  0  0
    3.2075   14.7844   -2.1111 H   0  0  0  0  0  0  0  0  0  0  0  0
    3.1829   15.3850    0.3942 H   0  0  0  0  0  0  0  0  0  0  0  0
    3.5976   16.6432   -0.8839 H   0  0  0  0  0  0  0  0  0  0  0  0
    2.0378   17.4479    1.0797 H   0  0  0  0  0  0  0  0  0  0  0  0
   -0.5323   15.9340   -1.6396 H   0  0  0  0  0  0  0  0  0  0  0  0
    0.4662   18.5594   -2.9091 H   0  0  0  0  0  0  0  0  0  0  0  0
   -0.7142   17.3780   -3.6305 H   0  0  0  0  0  0  0  0  0  0  0  0
   -1.8405   19.3721   -2.6924 H   0  0  0  0  0  0  0  0  0  0  0  0
   -2.3071   17.8395   -1.8564 H   0  0  0  0  0  0  0  0  0  0  0  0
   -1.9706   19.5472   -0.2043 H   0  0  0  0  0  0  0  0  0  0  0  0
   -0.5600   21.0420   -0.7800 H   0  0  0  0  0  0  0  0  0  0  0  0
   -1.5901   17.1366    1.8709 H   0  0  0  0  0  0  0  0  0  0  0  0
   -2.5515   17.4968    0.3968 H   0  0  0  0  0  0  0  0  0  0  0  0
   -1.3850   16.1308    0.3968 H   0  0  0  0  0  0  0  0  0  0  0  0
   -0.2981   18.3377    2.4382 H   0  0  0  0  0  0  0  0  0  0  0  0
    1.1559   18.8638    1.5239 H   0  0  0  0  0  0  0  0  0  0  0  0
   -0.3228   19.8837    1.5239 H   0  0  0  0  0  0  0  0  0  0  0  0
    2.8860   17.4377   -2.6839 H   0  0  0  0  0  0  0  0  0  0  0  0
    2.9725   16.2299   -4.0107 H   0  0  0  0  0  0  0  0  0  0  0  0
    1.6756   17.4727   -4.0107 H   0  0  0  0  0  0  0  0  0  0  0  0
   -0.1920   15.4038   -4.0023 H   0  0  0  0  0  0  0  0  0  0  0  0
    1.4828   14.6944   -4.3579 H   0  0  0  0  0  0  0  0  0  0  0  0
   -0.6063   13.6298   -2.4372 H   0  0  0  0  0  0  0  0  0  0  0  0
    0.0089   12.8821   -3.9634 H   0  0  0  0  0  0  0  0  0  0  0  0
    3.5129   12.4323   -2.7365 H   0  0  0  0  0  0  0  0  0  0  0  0
    2.3805   11.7326   -3.9426 H   0  0  0  0  0  0  0  0  0  0  0  0
    2.7145   13.4975   -3.9426 H   0  0  0  0  0  0  0  0  0  0  0  0
  1  2  1  0
  2  3  1  0
  3  4  1  0
  4  5  1  0
  5  6  1  0
  6  7  1  0
  7  8  1  0
  7  9  1  0
  2 10  1  0
 10 11  1  0
 11 12  1  0
 12 13  1  0
 13 14  1  1
 13 15  1  0
 15 16  1  0
 16 17  1  0
 17 18  2  0
 18 19  1  0
 19 20  1  0
 20 21  1  0
 21 22  1  0
 22 23  1  0
 22 24  1  0
 24 25  1  0
 24 26  1  0
 19 27  1  0
 27 28  1  6
 27 29  1  0
 29 30  1  0
 30 31  1  0
 31 32  1  6
  7  5  1  0
 31 10  1  0
 31 13  1  0
 27 15  1  0
 24 18  1  0
  1 33  1  0
  1 34  1  0
  1 35  1  0
  2 36  1  6
  3 37  1  0
  3 38  1  0
  4 39  1  0
  4 40  1  0
  5 41  1  1
  8 42  1  0
  8 43  1  0
  8 44  1  0
  9 45  1  0
  9 46  1  0
  9 47  1  0
 10 48  1  1
 11 49  1  0
 11 50  1  0
 12 51  1  0
 12 52  1  0
 14 53  1  0
 14 54  1  0
 14 55  1  0
 15 56  1  6
 16 57  1  0
 16 58  1  0
 17 59  1  0
 19 60  1  1
 20 61  1  0
 20 62  1  0
 21 63  1  0
 21 64  1  0
 22 65  1  1
 23 66  1  0
 25 67  1  0
 25 68  1  0
 25 69  1  0
 26 70  1  0
 26 71  1  0
 26 72  1  0
 28 73  1  0
 28 74  1  0
 28 75  1  0
 29 76  1  0
 29 77  1  0
 30 78  1  0
 30 79  1  0
 32 80  1  0
 32 81  1  0
 32 82  1  0
M  END
>  <meeko>  (12) 
{"is_sidechain": [false], "intermolecular_energy": 2.731, "internal_energy": -0.839}

$$$$
EPH_relaxed_0001_pdb2pqr_Repair_394_r2_0001_out
     RDKit          3D

 82 86  0  0  0  0  0  0  0  0999 V2000
   -3.3980    7.3390   -3.3940 C   0  0  0  0  0  0  0  0  0  0  0  0
   -3.4440    7.3880   -1.8640 C   0  0  2  0  0  0  0  0  0  0  0  0
   -4.8570    7.1060   -1.3160 C   0  0  0  0  0  0  0  0  0  0  0  0
   -5.5410    5.9020   -1.9680 C   0  0  0  0  0  0  0  0  0  0  0  0
   -6.6290    6.3240   -2.9090 C   0  0  2  0  0  0  0  0  0  0  0  0
   -7.4680    7.3790   -2.4200 O   0  0  0  0  0  0  0  0  0  0  0  0
   -8.1050    6.1090   -2.6310 C   0  0  0  0  0  0  0  0  0  0  0  0
   -8.5750    5.4460   -1.3740 C   0  0  0  0  0  0  0  0  0  0  0  0
   -9.0560    6.0970   -3.7870 C   0  0  0  0  0  0  0  0  0  0  0  0
   -2.9550    8.7450   -1.3730 C   0  0  1  0  0  0  0  0  0  0  0  0
   -3.5970    9.1570   -0.0210 C   0  0  0  0  0  0  0  0  0  0  0  0
   -2.5150    9.9400    0.7670 C   0  0  0  0  0  0  0  0  0  0  0  0
   -1.4120   10.2390   -0.2750 C   0  0  1  0  0  0  0  0  0  0  0  0
   -1.9270   11.4880   -1.0560 C   0  0  0  0  0  0  0  0  0  0  0  0
    0.0290   10.4630    0.2880 C   0  0  2  0  0  0  0  0  0  0  0  0
    0.1820   11.6740    1.2240 C   0  0  0  0  0  0  0  0  0  0  0  0
    0.5480   12.9570    0.5530 C   0  0  0  0  0  0  0  0  0  0  0  0
    1.0220   13.0760   -0.7010 C   0  0  0  0  0  0  0  0  0  0  0  0
    1.3280   11.8350   -1.5480 C   0  0  1  0  0  0  0  0  0  0  0  0
    2.7170   11.9970   -2.2210 C   0  0  0  0  0  0  0  0  0  0  0  0
    2.8320   13.2910   -3.0200 C   0  0  0  0  0  0  0  0  0  0  0  0
    2.5790   14.5050   -2.1300 C   0  0  2  0  0  0  0  0  0  0  0  0
    3.6390   14.6050   -1.1740 O   0  0  0  0  0  0  0  0  0  0  0  0
    1.2130   14.4490   -1.3910 C   0  0  0  0  0  0  0  0  0  0  0  0
    0.0620   14.6450   -2.4090 C   0  0  0  0  0  0  0  0  0  0  0  0
    1.1440   15.6600   -0.4210 C   0  0  0  0  0  0  0  0  0  0  0  0
    1.1660   10.4360   -0.8120 C   0  0  1  0  0  0  0  0  0  0  0  0
    2.4890   10.0650   -0.0750 C   0  0  0  0  0  0  0  0  0  0  0  0
    0.9290    9.3120   -1.8900 C   0  0  0  0  0  0  0  0  0  0  0  0
   -0.5290    9.0560   -2.3170 C   0  0  0  0  0  0  0  0  0  0  0  0
   -1.4390    8.8980   -1.0950 C   0  0  2  0  0  0  0  0  0  0  0  0
   -0.9590    7.6350   -0.3020 C   0  0  0  0  0  0  0  0  0  0  0  0
   -2.6778    6.5719   -3.7148 H   0  0  0  0  0  0  0  0  0  0  0  0
   -4.3964    7.0902   -3.7831 H   0  0  0  0  0  0  0  0  0  0  0  0
   -3.0867    8.3197   -3.7831 H   0  0  0  0  0  0  0  0  0  0  0  0
   -2.7806    6.5956   -1.4872 H   0  0  0  0  0  0  0  0  0  0  0  0
   -4.7790    6.9178   -0.2350 H   0  0  0  0  0  0  0  0  0  0  0  0
   -5.4726    7.9884   -1.5451 H   0  0  0  0  0  0  0  0  0  0  0  0
   -4.7898    5.3252   -2.5275 H   0  0  0  0  0  0  0  0  0  0  0  0
   -5.9938    5.2926   -1.1720 H   0  0  0  0  0  0  0  0  0  0  0  0
   -5.9999    6.0877   -3.7799 H   0  0  0  0  0  0  0  0  0  0  0  0
   -8.1865    5.9941   -0.5030 H   0  0  0  0  0  0  0  0  0  0  0  0
   -9.6747    5.4478   -1.3476 H   0  0  0  0  0  0  0  0  0  0  0  0
   -8.2093    4.4089   -1.3476 H   0  0  0  0  0  0  0  0  0  0  0  0
  -10.0897    6.0840   -3.4112 H   0  0  0  0  0  0  0  0  0  0  0  0
   -8.8999    6.9972   -4.3996 H   0  0  0  0  0  0  0  0  0  0  0  0
   -8.8772    5.2010   -4.3996 H   0  0  0  0  0  0  0  0  0  0  0  0
   -3.2436    9.3669   -2.2332 H   0  0  0  0  0  0  0  0  0  0  0  0
   -4.4744    9.7966   -0.1974 H   0  0  0  0  0  0  0  0  0  0  0  0
   -3.9344    8.2741    0.5417 H   0  0  0  0  0  0  0  0  0  0  0  0
   -2.9301   10.8747    1.1720 H   0  0  0  0  0  0  0  0  0  0  0  0
   -2.1325    9.3711    1.6272 H   0  0  0  0  0  0  0  0  0  0  0  0
   -2.2459   12.2613   -0.3416 H   0  0  0  0  0  0  0  0  0  0  0  0
   -1.1188   11.8839   -1.6884 H   0  0  0  0  0  0  0  0  0  0  0  0
   -2.7794   11.1992   -1.6884 H   0  0  0  0  0  0  0  0  0  0  0  0
    0.1759    9.5753    0.9207 H   0  0  0  0  0  0  0  0  0  0  0  0
   -0.7751   11.8239    1.7450 H   0  0  0  0  0  0  0  0  0  0  0  0
    1.0177   11.4340    1.8978 H   0  0  0  0  0  0  0  0  0  0  0  0
    0.4193   13.8830    1.1326 H   0  0  0  0  0  0  0  0  0  0  0  0
    0.5432   11.7909   -2.3175 H   0  0  0  0  0  0  0  0  0  0  0  0
    3.4903   11.9957   -1.4387 H   0  0  0  0  0  0  0  0  0  0  0  0
    2.8486   11.1591   -2.9214 H   0  0  0  0  0  0  0  0  0  0  0  0
    3.8433   13.3620   -3.4470 H   0  0  0  0  0  0  0  0  0  0  0  0
    2.0772   13.2783   -3.8200 H   0  0  0  0  0  0  0  0  0  0  0  0
    2.5469   15.3905   -2.7818 H   0  0  0  0  0  0  0  0  0  0  0  0
    4.3180   15.1920   -1.5480 H   0  0  0  0  0  0  0  0  0  0  0  0
   -0.8823   14.8058   -1.8683 H   0  0  0  0  0  0  0  0  0  0  0  0
    0.2763   15.5196   -3.0408 H   0  0  0  0  0  0  0  0  0  0  0  0
   -0.0253   13.7488   -3.0408 H   0  0  0  0  0  0  0  0  0  0  0  0
    1.1646   15.2992    0.6180 H   0  0  0  0  0  0  0  0  0  0  0  0
    2.0060   16.3203   -0.5970 H   0  0  0  0  0  0  0  0  0  0  0  0
    0.2126   16.2181   -0.5970 H   0  0  0  0  0  0  0  0  0  0  0  0
    2.3281   10.1101    1.0122 H   0  0  0  0  0  0  0  0  0  0  0  0
    2.7936    9.0468   -0.3586 H   0  0  0  0  0  0  0  0  0  0  0  0
    3.2786   10.7764   -0.3586 H   0  0  0  0  0  0  0  0  0  0  0  0
    1.4958    9.5900   -2.7908 H   0  0  0  0  0  0  0  0  0  0  0  0
    1.2566    8.3783   -1.4094 H   0  0  0  0  0  0  0  0  0  0  0  0
   -0.8815    9.9053   -2.9206 H   0  0  0  0  0  0  0  0  0  0  0  0
   -0.5644    8.1258   -2.9031 H   0  0  0  0  0  0  0  0  0  0  0  0
   -1.0332    7.8301    0.7780 H   0  0  0  0  0  0  0  0  0  0  0  0
   -1.5930    6.7750   -0.5636 H   0  0  0  0  0  0  0  0  0  0  0  0
    0.0861    7.4131   -0.5636 H   0  0  0  0  0  0  0  0  0  0  0  0
  1  2  1  0
  2  3  1  0
  3  4  1  0
  4  5  1  0
  5  6  1  0
  6  7  1  0
  7  8  1  0
  7  9  1  0
  2 10  1  0
 10 11  1  0
 11 12  1  0
 12 13  1  0
 13 14  1  6
 13 15  1  0
 15 16  1  0
 16 17  1  0
 17 18  2  0
 18 19  1  0
 19 20  1  0
 20 21  1  0
 21 22  1  0
 22 23  1  0
 22 24  1  0
 24 25  1  0
 24 26  1  0
 19 27  1  0
 27 28  1  1
 27 29  1  0
 29 30  1  0
 30 31  1  0
 31 32  1  1
  7  5  1  0
 31 10  1  0
 31 13  1  0
 27 15  1  0
 24 18  1  0
  1 33  1  0
  1 34  1  0
  1 35  1  0
  2 36  1  1
  3 37  1  0
  3 38  1  0
  4 39  1  0
  4 40  1  0
  5 41  1  6
  8 42  1  0
  8 43  1  0
  8 44  1  0
  9 45  1  0
  9 46  1  0
  9 47  1  0
 10 48  1  6
 11 49  1  0
 11 50  1  0
 12 51  1  0
 12 52  1  0
 14 53  1  0
 14 54  1  0
 14 55  1  0
 15 56  1  1
 16 57  1  0
 16 58  1  0
 17 59  1  0
 19 60  1  6
 20 61  1  0
 20 62  1  0
 21 63  1  0
 21 64  1  0
 22 65  1  6
 23 66  1  0
 25 67  1  0
 25 68  1  0
 25 69  1  0
 26 70  1  0
 26 71  1  0
 26 72  1  0
 28 73  1  0
 28 74  1  0
 28 75  1  0
 29 76  1  0
 29 77  1  0
 30 78  1  0
 30 79  1  0
 32 80  1  0
 32 81  1  0
 32 82  1  0
M  END
>  <meeko>  (13) 
{"is_sidechain": [false], "intermolecular_energy": 2.731, "internal_energy": -0.839}

$$$$
EPH_relaxed_0001_pdb2pqr_Repair_394_r2_0001_out
     RDKit          3D

 82 86  0  0  0  0  0  0  0  0999 V2000
    2.7990   18.0790   -3.6680 C   0  0  0  0  0  0  0  0  0  0  0  0
    2.0950   17.9010   -2.3210 C   0  0  2  0  0  0  0  0  0  0  0  0
    2.5270   18.9670   -1.2940 C   0  0  0  0  0  0  0  0  0  0  0  0
    1.8710   18.8010    0.0790 C   0  0  0  0  0  0  0  0  0  0  0  0
    2.4460   19.7500    1.0870 C   0  0  2  0  0  0  0  0  0  0  0  0
    3.7780   20.1940    0.7980 O   0  0  0  0  0  0  0  0  0  0  0  0
    3.6160   19.4050    1.9880 C   0  0  0  0  0  0  0  0  0  0  0  0
    4.2820   18.0660    1.9240 C   0  0  0  0  0  0  0  0  0  0  0  0
    3.7970   20.1800    3.2550 C   0  0  0  0  0  0  0  0  0  0  0  0
    2.3700   16.5060   -1.7700 C   0  0  1  0  0  0  0  0  0  0  0  0
    3.1470   16.5370   -0.4270 C   0  0  0  0  0  0  0  0  0  0  0  0
    2.6220   15.3490    0.4200 C   0  0  0  0  0  0  0  0  0  0  0  0
    1.8130   14.4860   -0.5770 C   0  0  1  0  0  0  0  0  0  0  0  0
    2.8830   13.6380   -1.3340 C   0  0  0  0  0  0  0  0  0  0  0  0
    0.6930   13.5860    0.0390 C   0  0  2  0  0  0  0  0  0  0  0  0
    1.1880   12.5070    1.0180 C   0  0  0  0  0  0  0  0  0  0  0  0
    1.5170   11.1890    0.4010 C   0  0  0  0  0  0  0  0  0  0  0  0
    1.1550   10.7900   -0.8330 C   0  0  0  0  0  0  0  0  0  0  0  0
    0.2510   11.6660   -1.7100 C   0  0  1  0  0  0  0  0  0  0  0  0
   -0.8700   10.7930   -2.3320 C   0  0  0  0  0  0  0  0  0  0  0  0
   -0.3210    9.5850   -3.0850 C   0  0  0  0  0  0  0  0  0  0  0  0
    0.5250    8.7080   -2.1650 C   0  0  2  0  0  0  0  0  0  0  0  0
   -0.3260    8.1250   -1.1730 O   0  0  0  0  0  0  0  0  0  0  0  0
    1.6810    9.4820   -1.4730 C   0  0  0  0  0  0  0  0  0  0  0  0
    2.7600    9.8530   -2.5210 C   0  0  0  0  0  0  0  0  0  0  0  0
    2.3670    8.5180   -0.4680 C   0  0  0  0  0  0  0  0  0  0  0  0
   -0.3130   12.9850   -1.0240 C   0  0  1  0  0  0  0  0  0  0  0  0
   -1.6320   12.6640   -0.2580 C   0  0  0  0  0  0  0  0  0  0  0  0
   -0.6920   14.0240   -2.1440 C   0  0  0  0  0  0  0  0  0  0  0  0
    0.4280   14.9660   -2.6260 C   0  0  0  0  0  0  0  0  0  0  0  0
    1.1450   15.6180   -1.4400 C   0  0  2  0  0  0  0  0  0  0  0  0
    0.0980   16.4960   -0.6730 C   0  0  0  0  0  0  0  0  0  0  0  0
    3.8527   18.3454   -3.4986 H   0  0  0  0  0  0  0  0  0  0  0  0
    2.7453   17.1390   -4.2368 H   0  0  0  0  0  0  0  0  0  0  0  0
    2.3050   18.8805   -4.2368 H   0  0  0  0  0  0  0  0  0  0  0  0
    1.0159   18.0266   -2.4935 H   0  0  0  0  0  0  0  0  0  0  0  0
    3.6179   18.9050   -1.1673 H   0  0  0  0  0  0  0  0  0  0  0  0
    2.2047   19.9420   -1.6882 H   0  0  0  0  0  0  0  0  0  0  0  0
    0.7920   18.9927   -0.0160 H   0  0  0  0  0  0  0  0  0  0  0  0
    2.0601   17.7749    0.4274 H   0  0  0  0  0  0  0  0  0  0  0  0
    1.4501   20.1665    1.2986 H   0  0  0  0  0  0  0  0  0  0  0  0
    4.4649   17.6983    2.9445 H   0  0  0  0  0  0  0  0  0  0  0  0
    3.6311   17.3579    1.3903 H   0  0  0  0  0  0  0  0  0  0  0  0
    5.2394   18.1578    1.3903 H   0  0  0  0  0  0  0  0  0  0  0  0
    3.6416   19.5147    4.1171 H   0  0  0  0  0  0  0  0  0  0  0  0
    4.8158   20.5933    3.2897 H   0  0  0  0  0  0  0  0  0  0  0  0
    3.0666   21.0018    3.2897 H   0  0  0  0  0  0  0  0  0  0  0  0
    2.9262   16.0790   -2.6175 H   0  0  0  0  0  0  0  0  0  0  0  0
    4.2257   16.4241   -0.6106 H   0  0  0  0  0  0  0  0  0  0  0  0
    2.9950   17.4929    0.0957 H   0  0  0  0  0  0  0  0  0  0  0  0
    3.4589   14.7731    0.8419 H   0  0  0  0  0  0  0  0  0  0  0  0
    2.0127   15.6821    1.2731 H   0  0  0  0  0  0  0  0  0  0  0  0
    3.5284   13.1265   -0.6048 H   0  0  0  0  0  0  0  0  0  0  0  0
    2.3794   12.8911   -1.9653 H   0  0  0  0  0  0  0  0  0  0  0  0
    3.4951   14.2989   -1.9653 H   0  0  0  0  0  0  0  0  0  0  0  0
    0.1226   14.3026    0.6482 H   0  0  0  0  0  0  0  0  0  0  0  0
    2.0944   12.8866    1.5122 H   0  0  0  0  0  0  0  0  0  0  0  0
    0.3543   12.3191    1.7106 H   0  0  0  0  0  0  0  0  0  0  0  0
    2.1054   10.4832    1.0057 H   0  0  0  0  0  0  0  0  0  0  0  0
    0.8959   12.0680   -2.5053 H   0  0  0  0  0  0  0  0  0  0  0  0
   -1.5278   10.4367   -1.5256 H   0  0  0  0  0  0  0  0  0  0  0  0
   -1.4166   11.4167   -3.0546 H   0  0  0  0  0  0  0  0  0  0  0  0
   -1.1610    8.9919   -3.4757 H   0  0  0  0  0  0  0  0  0  0  0  0
    0.3127    9.9432   -3.9097 H   0  0  0  0  0  0  0  0  0  0  0  0
    0.9960    7.9340   -2.7887 H   0  0  0  0  0  0  0  0  0  0  0  0
   -1.2100    8.5140   -1.2790 H   0  0  0  0  0  0  0  0  0  0  0  0
    3.6788   10.1689   -2.0052 H   0  0  0  0  0  0  0  0  0  0  0  0
    2.9757    8.9774   -3.1509 H   0  0  0  0  0  0  0  0  0  0  0  0
    2.3916   10.6761   -3.1509 H   0  0  0  0  0  0  0  0  0  0  0  0
    2.1398    8.8373    0.5598 H   0  0  0  0  0  0  0  0  0  0  0  0
    1.9919    7.4960   -0.6258 H   0  0  0  0  0  0  0  0  0  0  0  0
    3.4554    8.5375   -0.6258 H   0  0  0  0  0  0  0  0  0  0  0  0
   -1.4471   12.7090    0.8254 H   0  0  0  0  0  0  0  0  0  0  0  0
   -2.4023   13.4009   -0.5294 H   0  0  0  0  0  0  0  0  0  0  0  0
   -1.9775   11.6556   -0.5294 H   0  0  0  0  0  0  0  0  0  0  0  0
   -1.0486   13.4572   -3.0167 H   0  0  0  0  0  0  0  0  0  0  0  0
   -1.4432   14.6824   -1.6833 H   0  0  0  0  0  0  0  0  0  0  0  0
    1.1566   14.3877   -3.2131 H   0  0  0  0  0  0  0  0  0  0  0  0
   -0.0216   15.7584   -3.2424 H   0  0  0  0  0  0  0  0  0  0  0  0
    0.2420   16.3753    0.4108 H   0  0  0  0  0  0  0  0  0  0  0  0
    0.2356   17.5527   -0.9457 H   0  0  0  0  0  0  0  0  0  0  0  0
   -0.9186   16.1764   -0.9457 H   0  0  0  0  0  0  0  0  0  0  0  0
  1  2  1  0
  2  3  1  0
  3  4  1  0
  4  5  1  0
  5  6  1  0
  6  7  1  0
  7  8  1  0
  7  9  1  0
  2 10  1  0
 10 11  1  0
 11 12  1  0
 12 13  1  0
 13 14  1  6
 13 15  1  0
 15 16  1  0
 16 17  1  0
 17 18  2  0
 18 19  1  0
 19 20  1  0
 20 21  1  0
 21 22  1  0
 22 23  1  0
 22 24  1  0
 24 25  1  0
 24 26  1  0
 19 27  1  0
 27 28  1  1
 27 29  1  0
 29 30  1  0
 30 31  1  0
 31 32  1  1
  7  5  1  0
 31 10  1  0
 31 13  1  0
 27 15  1  0
 24 18  1  0
  1 33  1  0
  1 34  1  0
  1 35  1  0
  2 36  1  6
  3 37  1  0
  3 38  1  0
  4 39  1  0
  4 40  1  0
  5 41  1  1
  8 42  1  0
  8 43  1  0
  8 44  1  0
  9 45  1  0
  9 46  1  0
  9 47  1  0
 10 48  1  6
 11 49  1  0
 11 50  1  0
 12 51  1  0
 12 52  1  0
 14 53  1  0
 14 54  1  0
 14 55  1  0
 15 56  1  1
 16 57  1  0
 16 58  1  0
 17 59  1  0
 19 60  1  6
 20 61  1  0
 20 62  1  0
 21 63  1  0
 21 64  1  0
 22 65  1  6
 23 66  1  0
 25 67  1  0
 25 68  1  0
 25 69  1  0
 26 70  1  0
 26 71  1  0
 26 72  1  0
 28 73  1  0
 28 74  1  0
 28 75  1  0
 29 76  1  0
 29 77  1  0
 30 78  1  0
 30 79  1  0
 32 80  1  0
 32 81  1  0
 32 82  1  0
M  END
>  <meeko>  (14) 
{"is_sidechain": [false], "intermolecular_energy": 2.731, "internal_energy": -0.839}

$$$$
EPH_relaxed_0001_pdb2pqr_Repair_394_r2_0001_out
     RDKit          3D

 82 86  0  0  0  0  0  0  0  0999 V2000
    0.2580   18.6230   -2.4430 C   0  0  0  0  0  0  0  0  0  0  0  0
    0.7390   17.7860   -1.2540 C   0  0  2  0  0  0  0  0  0  0  0  0
    2.0110   18.3720   -0.6090 C   0  0  0  0  0  0  0  0  0  0  0  0
    1.7400   19.5660    0.3110 C   0  0  0  0  0  0  0  0  0  0  0  0
    2.7330   19.6400    1.4310 C   0  0  2  0  0  0  0  0  0  0  0  0
    4.0050   20.1920    1.0680 O   0  0  0  0  0  0  0  0  0  0  0  0
    4.0060   18.8140    1.4760 C   0  0  0  0  0  0  0  0  0  0  0  0
    4.3530   17.8550    0.3810 C   0  0  0  0  0  0  0  0  0  0  0  0
    4.6590   18.5790    2.8030 C   0  0  0  0  0  0  0  0  0  0  0  0
    0.9940   16.3510   -1.6980 C   0  0  1  0  0  0  0  0  0  0  0  0
    2.3500   16.1850   -2.4360 C   0  0  0  0  0  0  0  0  0  0  0  0
    2.8990   14.7870   -2.0530 C   0  0  0  0  0  0  0  0  0  0  0  0
    1.7040   14.0670   -1.3850 C   0  0  1  0  0  0  0  0  0  0  0  0
    0.8380   13.5410   -2.5730 C   0  0  0  0  0  0  0  0  0  0  0  0
    2.0600   12.9250   -0.3800 C   0  0  2  0  0  0  0  0  0  0  0  0
    2.8120   11.7290   -0.9900 C   0  0  0  0  0  0  0  0  0  0  0  0
    1.9460   10.6260   -1.5020 C   0  0  0  0  0  0  0  0  0  0  0  0
    0.6400   10.4620   -1.2210 C   0  0  0  0  0  0  0  0  0  0  0  0
   -0.0750   11.3880   -0.2290 C   0  0  1  0  0  0  0  0  0  0  0  0
   -0.9220   10.5390    0.7540 C   0  0  0  0  0  0  0  0  0  0  0  0
   -1.8850    9.5990    0.0360 C   0  0  0  0  0  0  0  0  0  0  0  0
   -1.1320    8.6550   -0.8980 C   0  0  2  0  0  0  0  0  0  0  0  0
   -0.3280    7.7720   -0.1100 O   0  0  0  0  0  0  0  0  0  0  0  0
   -0.2360    9.3980   -1.9280 C   0  0  0  0  0  0  0  0  0  0  0  0
   -1.1280   10.1170   -2.9700 C   0  0  0  0  0  0  0  0  0  0  0  0
    0.5750    8.3310   -2.7120 C   0  0  0  0  0  0  0  0  0  0  0  0
    0.8460   12.4480    0.5160 C   0  0  1  0  0  0  0  0  0  0  0  0
    1.4620   11.8090    1.7980 C   0  0  0  0  0  0  0  0  0  0  0  0
   -0.0460   13.6500    1.0050 C   0  0  0  0  0  0  0  0  0  0  0  0
   -0.2620   14.8040    0.0070 C   0  0  0  0  0  0  0  0  0  0  0  0
    1.0690   15.2670   -0.5930 C   0  0  2  0  0  0  0  0  0  0  0  0
    1.9530   15.8230    0.5760 C   0  0  0  0  0  0  0  0  0  0  0  0
   -0.2583   19.5215   -2.0740 H   0  0  0  0  0  0  0  0  0  0  0  0
    1.1221   18.9219   -3.0545 H   0  0  0  0  0  0  0  0  0  0  0  0
   -0.4353   18.0268   -3.0545 H   0  0  0  0  0  0  0  0  0  0  0  0
   -0.0554   17.8039   -0.4934 H   0  0  0  0  0  0  0  0  0  0  0  0
    2.4967   17.5814   -0.0182 H   0  0  0  0  0  0  0  0  0  0  0  0
    2.6490   18.7353   -1.4281 H   0  0  0  0  0  0  0  0  0  0  0  0
    1.7996   20.4919   -0.2799 H   0  0  0  0  0  0  0  0  0  0  0  0
    0.7386   19.4411    0.7486 H   0  0  0  0  0  0  0  0  0  0  0  0
    1.9291   19.7975    2.1651 H   0  0  0  0  0  0  0  0  0  0  0  0
    4.6962   16.9064    0.8195 H   0  0  0  0  0  0  0  0  0  0  0  0
    3.4644   17.6712   -0.2407 H   0  0  0  0  0  0  0  0  0  0  0  0
    5.1535   18.2824   -0.2407 H   0  0  0  0  0  0  0  0  0  0  0  0
    3.9542   18.8326    3.6085 H   0  0  0  0  0  0  0  0  0  0  0  0
    4.9471   17.5208    2.8876 H   0  0  0  0  0  0  0  0  0  0  0  0
    5.5554   19.2110    2.8876 H   0  0  0  0  0  0  0  0  0  0  0  0
    0.1030   16.1910   -2.3230 H   0  0  0  0  0  0  0  0  0  0  0  0
    2.1995   16.2479   -3.5238 H   0  0  0  0  0  0  0  0  0  0  0  0
    3.0556   16.9787   -2.1493 H   0  0  0  0  0  0  0  0  0  0  0  0
    3.2296   14.2410   -2.9489 H   0  0  0  0  0  0  0  0  0  0  0  0
    3.7724   14.8503   -1.3873 H   0  0  0  0  0  0  0  0  0  0  0  0
   -0.0398   13.0078   -2.1790 H   0  0  0  0  0  0  0  0  0  0  0  0
    0.5056   14.3899   -3.1885 H   0  0  0  0  0  0  0  0  0  0  0  0
    1.4381   12.8547   -3.1885 H   0  0  0  0  0  0  0  0  0  0  0  0
    2.7782   13.4182    0.2915 H   0  0  0  0  0  0  0  0  0  0  0  0
    3.4197   12.1010   -1.8280 H   0  0  0  0  0  0  0  0  0  0  0  0
    3.4073   11.2948   -0.1732 H   0  0  0  0  0  0  0  0  0  0  0  0
    2.4151    9.8843   -2.1652 H   0  0  0  0  0  0  0  0  0  0  0  0
   -0.7354   12.0286   -0.8319 H   0  0  0  0  0  0  0  0  0  0  0  0
   -0.2426    9.9389    1.3772 H   0  0  0  0  0  0  0  0  0  0  0  0
   -1.5228   11.2321    1.3612 H   0  0  0  0  0  0  0  0  0  0  0  0
   -2.4325    9.0054    0.7829 H   0  0  0  0  0  0  0  0  0  0  0  0
   -2.5831   10.2023   -0.5630 H   0  0  0  0  0  0  0  0  0  0  0  0
   -1.8818    8.0980   -1.4790 H   0  0  0  0  0  0  0  0  0  0  0  0
   -0.5400    6.8620   -0.3790 H   0  0  0  0  0  0  0  0  0  0  0  0
   -1.8825   10.7251   -2.4495 H   0  0  0  0  0  0  0  0  0  0  0  0
   -0.5039   10.7675   -3.6003 H   0  0  0  0  0  0  0  0  0  0  0  0
   -1.6312    9.3690   -3.6003 H   0  0  0  0  0  0  0  0  0  0  0  0
    1.0834    7.6621   -2.0020 H   0  0  0  0  0  0  0  0  0  0  0  0
   -0.1070    7.7440   -3.3447 H   0  0  0  0  0  0  0  0  0  0  0  0
    1.3231    8.8310   -3.3447 H   0  0  0  0  0  0  0  0  0  0  0  0
    1.0151   12.2726    2.6898 H   0  0  0  0  0  0  0  0  0  0  0  0
    1.2561   10.7285    1.8043 H   0  0  0  0  0  0  0  0  0  0  0  0
    2.5494   11.9751    1.8043 H   0  0  0  0  0  0  0  0  0  0  0  0
   -1.0352   13.2460    1.2662 H   0  0  0  0  0  0  0  0  0  0  0  0
    0.5058   14.0953    1.8459 H   0  0  0  0  0  0  0  0  0  0  0  0
   -0.9216   14.4601   -0.8033 H   0  0  0  0  0  0  0  0  0  0  0  0
   -0.7181   15.6497    0.5425 H   0  0  0  0  0  0  0  0  0  0  0  0
    1.5051   15.5413    1.5404 H   0  0  0  0  0  0  0  0  0  0  0  0
    2.9653   15.3987    0.5040 H   0  0  0  0  0  0  0  0  0  0  0  0
    2.0089   16.9192    0.5040 H   0  0  0  0  0  0  0  0  0  0  0  0
  1  2  1  0
  2  3  1  0
  3  4  1  0
  4  5  1  0
  5  6  1  0
  6  7  1  0
  7  8  1  0
  7  9  1  0
  2 10  1  0
 10 11  1  0
 11 12  1  0
 12 13  1  0
 13 14  1  6
 13 15  1  0
 15 16  1  0
 16 17  1  0
 17 18  2  0
 18 19  1  0
 19 20  1  0
 20 21  1  0
 21 22  1  0
 22 23  1  0
 22 24  1  0
 24 25  1  0
 24 26  1  0
 19 27  1  0
 27 28  1  1
 27 29  1  0
 29 30  1  0
 30 31  1  0
 31 32  1  1
  7  5  1  0
 31 10  1  0
 31 13  1  0
 27 15  1  0
 24 18  1  0
  1 33  1  0
  1 34  1  0
  1 35  1  0
  2 36  1  1
  3 37  1  0
  3 38  1  0
  4 39  1  0
  4 40  1  0
  5 41  1  1
  8 42  1  0
  8 43  1  0
  8 44  1  0
  9 45  1  0
  9 46  1  0
  9 47  1  0
 10 48  1  6
 11 49  1  0
 11 50  1  0
 12 51  1  0
 12 52  1  0
 14 53  1  0
 14 54  1  0
 14 55  1  0
 15 56  1  1
 16 57  1  0
 16 58  1  0
 17 59  1  0
 19 60  1  6
 20 61  1  0
 20 62  1  0
 21 63  1  0
 21 64  1  0
 22 65  1  6
 23 66  1  0
 25 67  1  0
 25 68  1  0
 25 69  1  0
 26 70  1  0
 26 71  1  0
 26 72  1  0
 28 73  1  0
 28 74  1  0
 28 75  1  0
 29 76  1  0
 29 77  1  0
 30 78  1  0
 30 79  1  0
 32 80  1  0
 32 81  1  0
 32 82  1  0
M  END
>  <meeko>  (15) 
{"is_sidechain": [false], "intermolecular_energy": 2.731, "internal_energy": -0.839}

$$$$
EPH_relaxed_0001_pdb2pqr_Repair_394_r2_0001_out
     RDKit          3D

 82 86  0  0  0  0  0  0  0  0999 V2000
    0.9190   14.8680   -2.6190 C   0  0  0  0  0  0  0  0  0  0  0  0
    1.1850   14.1880   -3.9650 C   0  0  2  0  0  0  0  0  0  0  0  0
    0.4900   14.9180   -5.1320 C   0  0  0  0  0  0  0  0  0  0  0  0
    1.0870   14.5930   -6.5040 C   0  0  0  0  0  0  0  0  0  0  0  0
    0.8430   15.6950   -7.4900 C   0  0  2  0  0  0  0  0  0  0  0  0
    0.4010   15.2550   -8.7810 O   0  0  0  0  0  0  0  0  0  0  0  0
    1.6830   15.9030   -8.7360 C   0  0  0  0  0  0  0  0  0  0  0  0
    2.8320   15.0010   -9.0630 C   0  0  0  0  0  0  0  0  0  0  0  0
    1.6960   17.2580   -9.3720 C   0  0  0  0  0  0  0  0  0  0  0  0
    0.7260   12.7350   -3.9130 C   0  0  1  0  0  0  0  0  0  0  0  0
    1.8530   11.7390   -4.2940 C   0  0  0  0  0  0  0  0  0  0  0  0
    1.6460   10.4740   -3.4220 C   0  0  0  0  0  0  0  0  0  0  0  0
    0.2330   10.6450   -2.8170 C   0  0  1  0  0  0  0  0  0  0  0  0
   -0.7440   10.1820   -3.9430 C   0  0  0  0  0  0  0  0  0  0  0  0
   -0.0380    9.8940   -1.4730 C   0  0  2  0  0  0  0  0  0  0  0  0
    0.0580    8.3600   -1.5510 C   0  0  0  0  0  0  0  0  0  0  0  0
   -1.2180    7.6570   -1.8760 C   0  0  0  0  0  0  0  0  0  0  0  0
   -2.4480    8.2000   -1.8170 C   0  0  0  0  0  0  0  0  0  0  0  0
   -2.6530    9.6280   -1.2960 C   0  0  1  0  0  0  0  0  0  0  0  0
   -3.8340    9.6470   -0.2900 C   0  0  0  0  0  0  0  0  0  0  0  0
   -5.1110    9.0500   -0.8750 C   0  0  0  0  0  0  0  0  0  0  0  0
   -4.8810    7.6110   -1.3290 C   0  0  2  0  0  0  0  0  0  0  0  0
   -4.6290    6.7990   -0.1780 O   0  0  0  0  0  0  0  0  0  0  0  0
   -3.7080    7.4660   -2.3380 C   0  0  0  0  0  0  0  0  0  0  0  0
   -4.1090    8.0930   -3.6960 C   0  0  0  0  0  0  0  0  0  0  0  0
   -3.4920    5.9520   -2.6050 C   0  0  0  0  0  0  0  0  0  0  0  0
   -1.3570   10.3530   -0.7290 C   0  0  1  0  0  0  0  0  0  0  0  0
   -1.1660    9.9980    0.7780 C   0  0  0  0  0  0  0  0  0  0  0  0
   -1.5700   11.9110   -0.7940 C   0  0  0  0  0  0  0  0  0  0  0  0
   -1.1710   12.6130   -2.1070 C   0  0  0  0  0  0  0  0  0  0  0  0
    0.2350   12.1930   -2.5470 C   0  0  2  0  0  0  0  0  0  0  0  0
    1.2420   12.6660   -1.4440 C   0  0  0  0  0  0  0  0  0  0  0  0
    1.1874   14.1819   -1.8022 H   0  0  0  0  0  0  0  0  0  0  0  0
    1.5257   15.7825   -2.5440 H   0  0  0  0  0  0  0  0  0  0  0  0
   -0.1472   15.1281   -2.5440 H   0  0  0  0  0  0  0  0  0  0  0  0
    2.2689   14.2296   -4.1480 H   0  0  0  0  0  0  0  0  0  0  0  0
   -0.5718   14.6306   -5.1383 H   0  0  0  0  0  0  0  0  0  0  0  0
    0.6319   15.9962   -4.9669 H   0  0  0  0  0  0  0  0  0  0  0  0
    2.1717   14.4459   -6.3950 H   0  0  0  0  0  0  0  0  0  0  0  0
    0.6015   13.6811   -6.8819 H   0  0  0  0  0  0  0  0  0  0  0  0
    0.5344   16.3791   -6.6858 H   0  0  0  0  0  0  0  0  0  0  0  0
    3.2916   14.6402   -8.1311 H   0  0  0  0  0  0  0  0  0  0  0  0
    2.4698   14.1435   -9.6491 H   0  0  0  0  0  0  0  0  0  0  0  0
    3.5789   15.5565   -9.6491 H   0  0  0  0  0  0  0  0  0  0  0  0
    1.7034   18.0305   -8.5890 H   0  0  0  0  0  0  0  0  0  0  0  0
    2.5952   17.3610   -9.9972 H   0  0  0  0  0  0  0  0  0  0  0  0
    0.7990   17.3782   -9.9972 H   0  0  0  0  0  0  0  0  0  0  0  0
   -0.1126   12.7807   -4.6234 H   0  0  0  0  0  0  0  0  0  0  0  0
    1.7842   11.4792   -5.3607 H   0  0  0  0  0  0  0  0  0  0  0  0
    2.8454   12.1804   -4.1201 H   0  0  0  0  0  0  0  0  0  0  0  0
    1.6971    9.5645   -4.0386 H   0  0  0  0  0  0  0  0  0  0  0  0
    2.4212   10.3686   -2.6487 H   0  0  0  0  0  0  0  0  0  0  0  0
   -1.6495    9.7529   -3.4892 H   0  0  0  0  0  0  0  0  0  0  0  0
   -1.0201   11.0450   -4.5666 H   0  0  0  0  0  0  0  0  0  0  0  0
   -0.2509    9.4218   -4.5666 H   0  0  0  0  0  0  0  0  0  0  0  0
    0.8092   10.2147   -0.8491 H   0  0  0  0  0  0  0  0  0  0  0  0
    0.7941    8.1046   -2.3275 H   0  0  0  0  0  0  0  0  0  0  0  0
    0.3441    8.0214   -0.5443 H   0  0  0  0  0  0  0  0  0  0  0  0
   -1.1469    6.6053   -2.1906 H   0  0  0  0  0  0  0  0  0  0  0  0
   -2.9013   10.2397   -2.1759 H   0  0  0  0  0  0  0  0  0  0  0  0
   -3.5487    9.0664    0.5996 H   0  0  0  0  0  0  0  0  0  0  0  0
   -4.0414   10.6976   -0.0385 H   0  0  0  0  0  0  0  0  0  0  0  0
   -5.8994    9.0641   -0.1080 H   0  0  0  0  0  0  0  0  0  0  0  0
   -5.4122    9.6497   -1.7466 H   0  0  0  0  0  0  0  0  0  0  0  0
   -5.7892    7.2827   -1.8557 H   0  0  0  0  0  0  0  0  0  0  0  0
   -3.7090    6.9530    0.0950 H   0  0  0  0  0  0  0  0  0  0  0  0
   -4.6940    9.0076   -3.5191 H   0  0  0  0  0  0  0  0  0  0  0  0
   -3.2023    8.3423   -4.2668 H   0  0  0  0  0  0  0  0  0  0  0  0
   -4.7156    7.3745   -4.2668 H   0  0  0  0  0  0  0  0  0  0  0  0
   -3.4158    5.4178   -1.6464 H   0  0  0  0  0  0  0  0  0  0  0  0
   -4.3427    5.5559   -3.1789 H   0  0  0  0  0  0  0  0  0  0  0  0
   -2.5644    5.8096   -3.1789 H   0  0  0  0  0  0  0  0  0  0  0  0
   -1.5958   10.7968    1.4002 H   0  0  0  0  0  0  0  0  0  0  0  0
   -1.6747    9.0479    0.9982 H   0  0  0  0  0  0  0  0  0  0  0  0
   -0.0928    9.8990    0.9982 H   0  0  0  0  0  0  0  0  0  0  0  0
   -2.6385   12.1082   -0.6227 H   0  0  0  0  0  0  0  0  0  0  0  0
   -0.8962   12.3257   -0.0297 H   0  0  0  0  0  0  0  0  0  0  0  0
   -1.8905   12.3414   -2.8935 H   0  0  0  0  0  0  0  0  0  0  0  0
   -1.1764   13.7002   -1.9396 H   0  0  0  0  0  0  0  0  0  0  0  0
    0.8168   12.4663   -0.4494 H   0  0  0  0  0  0  0  0  0  0  0  0
    2.1900   12.1190   -1.5541 H   0  0  0  0  0  0  0  0  0  0  0  0
    1.4263   13.7449   -1.5541 H   0  0  0  0  0  0  0  0  0  0  0  0
  1  2  1  0
  2  3  1  0
  3  4  1  0
  4  5  1  0
  5  6  1  0
  6  7  1  0
  7  8  1  0
  7  9  1  0
  2 10  1  0
 10 11  1  0
 11 12  1  0
 12 13  1  0
 13 14  1  6
 13 15  1  0
 15 16  1  0
 16 17  1  0
 17 18  2  0
 18 19  1  0
 19 20  1  0
 20 21  1  0
 21 22  1  0
 22 23  1  0
 22 24  1  0
 24 25  1  0
 24 26  1  0
 19 27  1  0
 27 28  1  1
 27 29  1  0
 29 30  1  0
 30 31  1  0
 31 32  1  1
  7  5  1  0
 31 10  1  0
 31 13  1  0
 27 15  1  0
 24 18  1  0
  1 33  1  0
  1 34  1  0
  1 35  1  0
  2 36  1  6
  3 37  1  0
  3 38  1  0
  4 39  1  0
  4 40  1  0
  5 41  1  1
  8 42  1  0
  8 43  1  0
  8 44  1  0
  9 45  1  0
  9 46  1  0
  9 47  1  0
 10 48  1  6
 11 49  1  0
 11 50  1  0
 12 51  1  0
 12 52  1  0
 14 53  1  0
 14 54  1  0
 14 55  1  0
 15 56  1  1
 16 57  1  0
 16 58  1  0
 17 59  1  0
 19 60  1  6
 20 61  1  0
 20 62  1  0
 21 63  1  0
 21 64  1  0
 22 65  1  6
 23 66  1  0
 25 67  1  0
 25 68  1  0
 25 69  1  0
 26 70  1  0
 26 71  1  0
 26 72  1  0
 28 73  1  0
 28 74  1  0
 28 75  1  0
 29 76  1  0
 29 77  1  0
 30 78  1  0
 30 79  1  0
 32 80  1  0
 32 81  1  0
 32 82  1  0
M  END
>  <meeko>  (16) 
{"is_sidechain": [false], "intermolecular_energy": 2.731, "internal_energy": -0.839}

$$$$
EPH_relaxed_0001_pdb2pqr_Repair_394_r2_0001_out
     RDKit          3D

 82 86  0  0  0  0  0  0  0  0999 V2000
   -1.9130    9.5300   -0.3720 C   0  0  0  0  0  0  0  0  0  0  0  0
   -1.3920   10.4610   -1.4710 C   0  0  2  0  0  0  0  0  0  0  0  0
   -0.4080    9.7460   -2.4190 C   0  0  0  0  0  0  0  0  0  0  0  0
    1.0150    9.6410   -1.8640 C   0  0  0  0  0  0  0  0  0  0  0  0
    2.0360   10.0800   -2.8700 C   0  0  2  0  0  0  0  0  0  0  0  0
    3.2140    9.2650   -2.9220 O   0  0  0  0  0  0  0  0  0  0  0  0
    3.4010   10.6240   -2.4940 C   0  0  0  0  0  0  0  0  0  0  0  0
    3.8200   10.7590   -1.0630 C   0  0  0  0  0  0  0  0  0  0  0  0
    4.1320   11.4730   -3.4860 C   0  0  0  0  0  0  0  0  0  0  0  0
   -0.7220   11.6780   -0.8460 C   0  0  1  0  0  0  0  0  0  0  0  0
    0.4490   11.2970    0.0990 C   0  0  0  0  0  0  0  0  0  0  0  0
    1.5220   12.4060   -0.0480 C   0  0  0  0  0  0  0  0  0  0  0  0
    0.8040   13.5460   -0.8080 C   0  0  1  0  0  0  0  0  0  0  0  0
   -0.0120   14.3050    0.2860 C   0  0  0  0  0  0  0  0  0  0  0  0
    1.7190   14.5160   -1.6230 C   0  0  2  0  0  0  0  0  0  0  0  0
    2.7280   15.3200   -0.7850 C   0  0  0  0  0  0  0  0  0  0  0  0
    2.2390   16.6430   -0.2950 C   0  0  0  0  0  0  0  0  0  0  0  0
    1.1510   17.2920   -0.7490 C   0  0  0  0  0  0  0  0  0  0  0  0
    0.3400   16.7410   -1.9280 C   0  0  1  0  0  0  0  0  0  0  0  0
    0.0430   17.8850   -2.9320 C   0  0  0  0  0  0  0  0  0  0  0  0
   -0.6300   19.0840   -2.2710 C   0  0  0  0  0  0  0  0  0  0  0  0
    0.2330   19.6400   -1.1420 C   0  0  2  0  0  0  0  0  0  0  0  0
    1.4270   20.1940   -1.7040 O   0  0  0  0  0  0  0  0  0  0  0  0
    0.6050   18.5740   -0.0730 C   0  0  0  0  0  0  0  0  0  0  0  0
   -0.6550   18.1940    0.7430 C   0  0  0  0  0  0  0  0  0  0  0  0
    1.5910   19.2290    0.9310 C   0  0  0  0  0  0  0  0  0  0  0  0
    0.9360   15.4480   -2.6350 C   0  0  1  0  0  0  0  0  0  0  0  0
    1.9570   15.8670   -3.7360 C   0  0  0  0  0  0  0  0  0  0  0  0
   -0.2260   14.6850   -3.3740 C   0  0  0  0  0  0  0  0  0  0  0  0
   -1.0160   13.6520   -2.5470 C   0  0  0  0  0  0  0  0  0  0  0  0
   -0.0680   12.7030   -1.8080 C   0  0  2  0  0  0  0  0  0  0  0  0
    0.7500   11.9090   -2.8830 C   0  0  0  0  0  0  0  0  0  0  0  0
   -1.6743    9.9565    0.6135 H   0  0  0  0  0  0  0  0  0  0  0  0
   -3.0032    9.4210   -0.4701 H   0  0  0  0  0  0  0  0  0  0  0  0
   -1.4357    8.5438   -0.4701 H   0  0  0  0  0  0  0  0  0  0  0  0
   -2.2562   10.7803   -2.0720 H   0  0  0  0  0  0  0  0  0  0  0  0
   -0.7834    8.7292   -2.6067 H   0  0  0  0  0  0  0  0  0  0  0  0
   -0.3512   10.3487   -3.3374 H   0  0  0  0  0  0  0  0  0  0  0  0
    1.0974   10.2781   -0.9711 H   0  0  0  0  0  0  0  0  0  0  0  0
    1.2094    8.5872   -1.6155 H   0  0  0  0  0  0  0  0  0  0  0  0
    1.2488   10.4603   -3.5377 H   0  0  0  0  0  0  0  0  0  0  0  0
    2.9791   10.4881   -0.4076 H   0  0  0  0  0  0  0  0  0  0  0  0
    4.6698   10.0892   -0.8650 H   0  0  0  0  0  0  0  0  0  0  0  0
    4.1189   11.7989   -0.8650 H   0  0  0  0  0  0  0  0  0  0  0  0
    4.7597   12.2020   -2.9526 H   0  0  0  0  0  0  0  0  0  0  0  0
    4.7674   10.8345   -4.1173 H   0  0  0  0  0  0  0  0  0  0  0  0
    3.4062   12.0066   -4.1173 H   0  0  0  0  0  0  0  0  0  0  0  0
   -1.5919   12.1307   -0.3476 H   0  0  0  0  0  0  0  0  0  0  0  0
    0.0953   11.2478    1.1394 H   0  0  0  0  0  0  0  0  0  0  0  0
    0.8618   10.3113   -0.1616 H   0  0  0  0  0  0  0  0  0  0  0  0
    1.8613   12.7514    0.9397 H   0  0  0  0  0  0  0  0  0  0  0  0
    2.4183   12.0514   -0.5780 H   0  0  0  0  0  0  0  0  0  0  0  0
    0.3284   13.9884    1.2829 H   0  0  0  0  0  0  0  0  0  0  0  0
    0.1421   15.3883    0.1728 H   0  0  0  0  0  0  0  0  0  0  0  0
   -1.0813   14.0730    0.1728 H   0  0  0  0  0  0  0  0  0  0  0  0
    2.3200   13.8209   -2.2277 H   0  0  0  0  0  0  0  0  0  0  0  0
    3.0024   14.7134    0.0907 H   0  0  0  0  0  0  0  0  0  0  0  0
    3.5744   15.5368   -1.4533 H   0  0  0  0  0  0  0  0  0  0  0  0
    2.8172   17.1284    0.5050 H   0  0  0  0  0  0  0  0  0  0  0  0
   -0.6017   16.3661   -1.5006 H   0  0  0  0  0  0  0  0  0  0  0  0
    0.9915   18.2159   -3.3801 H   0  0  0  0  0  0  0  0  0  0  0  0
   -0.6483   17.4912   -3.6917 H   0  0  0  0  0  0  0  0  0  0  0  0
   -0.7866   19.8697   -3.0248 H   0  0  0  0  0  0  0  0  0  0  0  0
   -1.5923   18.7581   -1.8494 H   0  0  0  0  0  0  0  0  0  0  0  0
   -0.3575   20.4106   -0.6247 H   0  0  0  0  0  0  0  0  0  0  0  0
    1.2600   21.1360   -1.8780 H   0  0  0  0  0  0  0  0  0  0  0  0
   -0.4301   18.2618    1.8176 H   0  0  0  0  0  0  0  0  0  0  0  0
   -1.4743   18.8850    0.4955 H   0  0  0  0  0  0  0  0  0  0  0  0
   -0.9556   17.1652    0.4955 H   0  0  0  0  0  0  0  0  0  0  0  0
    1.2651   19.0125    1.9591 H   0  0  0  0  0  0  0  0  0  0  0  0
    2.6003   18.8212    0.7727 H   0  0  0  0  0  0  0  0  0  0  0  0
    1.6063   20.3174    0.7727 H   0  0  0  0  0  0  0  0  0  0  0  0
    2.8748   16.2436   -3.2608 H   0  0  0  0  0  0  0  0  0  0  0  0
    2.1993   14.9956   -4.3621 H   0  0  0  0  0  0  0  0  0  0  0  0
    1.5174   16.6574   -4.3621 H   0  0  0  0  0  0  0  0  0  0  0  0
   -0.9411   15.4384   -3.7360 H   0  0  0  0  0  0  0  0  0  0  0  0
    0.2697   14.1022   -4.1643 H   0  0  0  0  0  0  0  0  0  0  0  0
   -1.6410   14.1809   -1.8124 H   0  0  0  0  0  0  0  0  0  0  0  0
   -1.6432   13.0605   -3.2302 H   0  0  0  0  0  0  0  0  0  0  0  0
    1.4520   11.2276   -2.3800 H   0  0  0  0  0  0  0  0  0  0  0  0
    0.0606   11.3265   -3.5118 H   0  0  0  0  0  0  0  0  0  0  0  0
    1.3117   12.6155   -3.5118 H   0  0  0  0  0  0  0  0  0  0  0  0
  1  2  1  0
  2  3  1  0
  3  4  1  0
  4  5  1  0
  5  6  1  0
  6  7  1  0
  7  8  1  0
  7  9  1  0
  2 10  1  0
 10 11  1  0
 11 12  1  0
 12 13  1  0
 13 14  1  1
 13 15  1  0
 15 16  1  0
 16 17  1  0
 17 18  2  0
 18 19  1  0
 19 20  1  0
 20 21  1  0
 21 22  1  0
 22 23  1  0
 22 24  1  0
 24 25  1  0
 24 26  1  0
 19 27  1  0
 27 28  1  6
 27 29  1  0
 29 30  1  0
 30 31  1  0
 31 32  1  6
  7  5  1  0
 31 10  1  0
 31 13  1  0
 27 15  1  0
 24 18  1  0
  1 33  1  0
  1 34  1  0
  1 35  1  0
  2 36  1  6
  3 37  1  0
  3 38  1  0
  4 39  1  0
  4 40  1  0
  5 41  1  6
  8 42  1  0
  8 43  1  0
  8 44  1  0
  9 45  1  0
  9 46  1  0
  9 47  1  0
 10 48  1  1
 11 49  1  0
 11 50  1  0
 12 51  1  0
 12 52  1  0
 14 53  1  0
 14 54  1  0
 14 55  1  0
 15 56  1  6
 16 57  1  0
 16 58  1  0
 17 59  1  0
 19 60  1  1
 20 61  1  0
 20 62  1  0
 21 63  1  0
 21 64  1  0
 22 65  1  1
 23 66  1  0
 25 67  1  0
 25 68  1  0
 25 69  1  0
 26 70  1  0
 26 71  1  0
 26 72  1  0
 28 73  1  0
 28 74  1  0
 28 75  1  0
 29 76  1  0
 29 77  1  0
 30 78  1  0
 30 79  1  0
 32 80  1  0
 32 81  1  0
 32 82  1  0
M  END
>  <meeko>  (17) 
{"is_sidechain": [false], "intermolecular_energy": 2.731, "internal_energy": -0.839}

$$$$
EPH_relaxed_0001_pdb2pqr_Repair_394_r2_0001_out
     RDKit          3D

 82 86  0  0  0  0  0  0  0  0999 V2000
    0.0860    9.8620   -4.5950 C   0  0  0  0  0  0  0  0  0  0  0  0
    1.1480   10.5890   -3.7660 C   0  0  2  0  0  0  0  0  0  0  0  0
    1.6360    9.7400   -2.5750 C   0  0  0  0  0  0  0  0  0  0  0  0
    0.6400    8.6630   -2.1370 C   0  0  0  0  0  0  0  0  0  0  0  0
   -0.1590    9.0990   -0.9460 C   0  0  2  0  0  0  0  0  0  0  0  0
   -0.7230    8.0270   -0.1790 O   0  0  0  0  0  0  0  0  0  0  0  0
   -1.6590    8.9030   -0.8280 C   0  0  0  0  0  0  0  0  0  0  0  0
   -2.4490    8.2500   -1.9180 C   0  0  0  0  0  0  0  0  0  0  0  0
   -2.4220    9.7770    0.1190 C   0  0  0  0  0  0  0  0  0  0  0  0
    0.5960   11.9190   -3.2660 C   0  0  1  0  0  0  0  0  0  0  0  0
   -0.8620   11.8050   -2.7480 C   0  0  0  0  0  0  0  0  0  0  0  0
   -0.9940   12.7900   -1.5590 C   0  0  0  0  0  0  0  0  0  0  0  0
    0.2740   13.6710   -1.6400 C   0  0  1  0  0  0  0  0  0  0  0  0
   -0.0510   14.7430   -2.7270 C   0  0  0  0  0  0  0  0  0  0  0  0
    0.7450   14.3300   -0.3030 C   0  0  2  0  0  0  0  0  0  0  0  0
   -0.2530   15.3190    0.3240 C   0  0  0  0  0  0  0  0  0  0  0  0
   -0.0960   16.7410   -0.1050 C   0  0  0  0  0  0  0  0  0  0  0  0
    0.9780   17.2550   -0.7320 C   0  0  0  0  0  0  0  0  0  0  0  0
    2.2260   16.3990   -0.9850 C   0  0  1  0  0  0  0  0  0  0  0  0
    3.4930   17.2010   -0.5860 C   0  0  0  0  0  0  0  0  0  0  0  0
    3.5670   18.5600   -1.2760 C   0  0  0  0  0  0  0  0  0  0  0  0
    2.3360   19.4030   -0.9530 C   0  0  2  0  0  0  0  0  0  0  0  0
    2.3550   19.7320    0.4400 O   0  0  0  0  0  0  0  0  0  0  0  0
    0.9980   18.6940   -1.3030 C   0  0  0  0  0  0  0  0  0  0  0  0
    0.8420   18.6080   -2.8420 C   0  0  0  0  0  0  0  0  0  0  0  0
   -0.1640   19.5910   -0.7990 C   0  0  0  0  0  0  0  0  0  0  0  0
    2.2050   14.9390   -0.3580 C   0  0  1  0  0  0  0  0  0  0  0  0
    2.7250   14.9830    1.1110 C   0  0  0  0  0  0  0  0  0  0  0  0
    3.2050   14.0220   -1.1570 C   0  0  0  0  0  0  0  0  0  0  0  0
    2.6480   13.3040   -2.4010 C   0  0  0  0  0  0  0  0  0  0  0  0
    1.3310   12.5930   -2.0790 C   0  0  2  0  0  0  0  0  0  0  0  0
    1.6310   11.4930   -1.0040 C   0  0  0  0  0  0  0  0  0  0  0  0
   -0.6318    9.3706   -3.9217 H   0  0  0  0  0  0  0  0  0  0  0  0
   -0.4440   10.5876   -5.2295 H   0  0  0  0  0  0  0  0  0  0  0  0
    0.5707    9.1054   -5.2295 H   0  0  0  0  0  0  0  0  0  0  0  0
    2.0138   10.7682   -4.4205 H   0  0  0  0  0  0  0  0  0  0  0  0
    2.5764    9.2469   -2.8624 H   0  0  0  0  0  0  0  0  0  0  0  0
    1.7638   10.4246   -1.7236 H   0  0  0  0  0  0  0  0  0  0  0  0
   -0.0472    8.4529   -2.9699 H   0  0  0  0  0  0  0  0  0  0  0  0
    1.2081    7.7632   -1.8584 H   0  0  0  0  0  0  0  0  0  0  0  0
    0.4828    9.9818   -0.8086 H   0  0  0  0  0  0  0  0  0  0  0  0
   -3.2249    7.6086   -1.4747 H   0  0  0  0  0  0  0  0  0  0  0  0
   -2.9236    9.0229   -2.5403 H   0  0  0  0  0  0  0  0  0  0  0  0
   -1.7792    7.6384   -2.5403 H   0  0  0  0  0  0  0  0  0  0  0  0
   -2.1775    9.4970    1.1543 H   0  0  0  0  0  0  0  0  0  0  0  0
   -2.1479   10.8287   -0.0509 H   0  0  0  0  0  0  0  0  0  0  0  0
   -3.5010    9.6473   -0.0509 H   0  0  0  0  0  0  0  0  0  0  0  0
    0.7183   12.5228   -4.1773 H   0  0  0  0  0  0  0  0  0  0  0  0
   -1.5693   12.0771   -3.5453 H   0  0  0  0  0  0  0  0  0  0  0  0
   -1.0897   10.7755   -2.4344 H   0  0  0  0  0  0  0  0  0  0  0  0
   -1.9008   13.4041   -1.6622 H   0  0  0  0  0  0  0  0  0  0  0  0
   -1.0795   12.2696   -0.5936 H   0  0  0  0  0  0  0  0  0  0  0  0
   -0.3369   15.6860   -2.2381 H   0  0  0  0  0  0  0  0  0  0  0  0
    0.8369   14.9098   -3.3545 H   0  0  0  0  0  0  0  0  0  0  0  0
   -0.8821   14.3887   -3.3545 H   0  0  0  0  0  0  0  0  0  0  0  0
    0.7841   13.4700    0.3818 H   0  0  0  0  0  0  0  0  0  0  0  0
   -1.2688   14.9931    0.0557 H   0  0  0  0  0  0  0  0  0  0  0  0
   -0.0574   15.3040    1.4064 H   0  0  0  0  0  0  0  0  0  0  0  0
   -0.9291   17.4264    0.1098 H   0  0  0  0  0  0  0  0  0  0  0  0
    2.2393   16.1926   -2.0654 H   0  0  0  0  0  0  0  0  0  0  0  0
    3.4823   17.3584    0.5026 H   0  0  0  0  0  0  0  0  0  0  0  0
    4.3705   16.6179   -0.9023 H   0  0  0  0  0  0  0  0  0  0  0  0
    4.4671   19.0902   -0.9315 H   0  0  0  0  0  0  0  0  0  0  0  0
    3.6078   18.4001   -2.3635 H   0  0  0  0  0  0  0  0  0  0  0  0
    2.3839   20.3080   -1.5764 H   0  0  0  0  0  0  0  0  0  0  0  0
    1.4810   19.5150    0.8060 H   0  0  0  0  0  0  0  0  0  0  0  0
   -0.0971   18.0903   -3.0870 H   0  0  0  0  0  0  0  0  0  0  0  0
    0.8226   19.6229   -3.2659 H   0  0  0  0  0  0  0  0  0  0  0  0
    1.6898   18.0498   -3.2659 H   0  0  0  0  0  0  0  0  0  0  0  0
   -0.1719   19.5971    0.3010 H   0  0  0  0  0  0  0  0  0  0  0  0
   -0.0230   20.6168   -1.1704 H   0  0  0  0  0  0  0  0  0  0  0  0
   -1.1206   19.1949   -1.1704 H   0  0  0  0  0  0  0  0  0  0  0  0
    1.8735   14.9110    1.8037 H   0  0  0  0  0  0  0  0  0  0  0  0
    3.4099   14.1396    1.2829 H   0  0  0  0  0  0  0  0  0  0  0  0
    3.2585   15.9295    1.2829 H   0  0  0  0  0  0  0  0  0  0  0  0
    4.0447   14.6524   -1.4850 H   0  0  0  0  0  0  0  0  0  0  0  0
    3.4774   13.2171   -0.4585 H   0  0  0  0  0  0  0  0  0  0  0  0
    2.4725   14.0443   -3.1954 H   0  0  0  0  0  0  0  0  0  0  0  0
    3.3810   12.5528   -2.7302 H   0  0  0  0  0  0  0  0  0  0  0  0
    1.5140   11.9220    0.0021 H   0  0  0  0  0  0  0  0  0  0  0  0
    0.9283   10.6561   -1.1298 H   0  0  0  0  0  0  0  0  0  0  0  0
    2.6613   11.1287   -1.1298 H   0  0  0  0  0  0  0  0  0  0  0  0
  1  2  1  0
  2  3  1  0
  3  4  1  0
  4  5  1  0
  5  6  1  0
  6  7  1  0
  7  8  1  0
  7  9  1  0
  2 10  1  0
 10 11  1  0
 11 12  1  0
 12 13  1  0
 13 14  1  6
 13 15  1  0
 15 16  1  0
 16 17  1  0
 17 18  2  0
 18 19  1  0
 19 20  1  0
 20 21  1  0
 21 22  1  0
 22 23  1  0
 22 24  1  0
 24 25  1  0
 24 26  1  0
 19 27  1  0
 27 28  1  1
 27 29  1  0
 29 30  1  0
 30 31  1  0
 31 32  1  1
  7  5  1  0
 31 10  1  0
 31 13  1  0
 27 15  1  0
 24 18  1  0
  1 33  1  0
  1 34  1  0
  1 35  1  0
  2 36  1  6
  3 37  1  0
  3 38  1  0
  4 39  1  0
  4 40  1  0
  5 41  1  1
  8 42  1  0
  8 43  1  0
  8 44  1  0
  9 45  1  0
  9 46  1  0
  9 47  1  0
 10 48  1  6
 11 49  1  0
 11 50  1  0
 12 51  1  0
 12 52  1  0
 14 53  1  0
 14 54  1  0
 14 55  1  0
 15 56  1  1
 16 57  1  0
 16 58  1  0
 17 59  1  0
 19 60  1  6
 20 61  1  0
 20 62  1  0
 21 63  1  0
 21 64  1  0
 22 65  1  6
 23 66  1  0
 25 67  1  0
 25 68  1  0
 25 69  1  0
 26 70  1  0
 26 71  1  0
 26 72  1  0
 28 73  1  0
 28 74  1  0
 28 75  1  0
 29 76  1  0
 29 77  1  0
 30 78  1  0
 30 79  1  0
 32 80  1  0
 32 81  1  0
 32 82  1  0
M  END
>  <meeko>  (18) 
{"is_sidechain": [false], "intermolecular_energy": 2.731, "internal_energy": -0.839}

$$$$
EPH_relaxed_0001_pdb2pqr_Repair_394_r2_0001_out
     RDKit          3D

 82 86  0  0  0  0  0  0  0  0999 V2000
    2.2640   15.9260   -0.6380 C   0  0  0  0  0  0  0  0  0  0  0  0
    1.9070   15.8990   -2.1260 C   0  0  2  0  0  0  0  0  0  0  0  0
    1.1950   17.1900   -2.5770 C   0  0  0  0  0  0  0  0  0  0  0  0
    1.6490   18.4400   -1.8180 C   0  0  0  0  0  0  0  0  0  0  0  0
    0.7350   18.7560   -0.6730 C   0  0  2  0  0  0  0  0  0  0  0  0
   -0.5270   18.0770   -0.7090 O   0  0  0  0  0  0  0  0  0  0  0  0
   -0.5730   19.5080   -0.8290 C   0  0  0  0  0  0  0  0  0  0  0  0
   -1.0410   19.9910   -2.1660 C   0  0  0  0  0  0  0  0  0  0  0  0
   -1.1510   20.1940    0.3690 C   0  0  0  0  0  0  0  0  0  0  0  0
    1.0310   14.6890   -2.4290 C   0  0  1  0  0  0  0  0  0  0  0  0
    1.2780   14.1120   -3.8480 C   0  0  0  0  0  0  0  0  0  0  0  0
    1.1080   12.5750   -3.7430 C   0  0  0  0  0  0  0  0  0  0  0  0
    0.4490   12.3500   -2.3610 C   0  0  1  0  0  0  0  0  0  0  0  0
   -1.0690   12.6290   -2.5910 C   0  0  0  0  0  0  0  0  0  0  0  0
    0.6860   10.9520   -1.7030 C   0  0  2  0  0  0  0  0  0  0  0  0
    0.1220    9.7560   -2.4890 C   0  0  0  0  0  0  0  0  0  0  0  0
   -1.2780    9.3690   -2.1440 C   0  0  0  0  0  0  0  0  0  0  0  0
   -1.9520    9.7670   -1.0490 C   0  0  0  0  0  0  0  0  0  0  0  0
   -1.2700   10.6160    0.0300 C   0  0  1  0  0  0  0  0  0  0  0  0
   -1.5970   10.0350    1.4310 C   0  0  0  0  0  0  0  0  0  0  0  0
   -3.0970    9.8860    1.6670 C   0  0  0  0  0  0  0  0  0  0  0  0
   -3.7290    8.9880    0.6080 C   0  0  2  0  0  0  0  0  0  0  0  0
   -3.2300    7.6570    0.7740 O   0  0  0  0  0  0  0  0  0  0  0  0
   -3.4580    9.4690   -0.8450 C   0  0  0  0  0  0  0  0  0  0  0  0
   -4.2520   10.7710   -1.1190 C   0  0  0  0  0  0  0  0  0  0  0  0
   -4.0290    8.4010   -1.8170 C   0  0  0  0  0  0  0  0  0  0  0  0
    0.2840   10.8790   -0.1740 C   0  0  1  0  0  0  0  0  0  0  0  0
    1.1080    9.7100    0.4480 C   0  0  0  0  0  0  0  0  0  0  0  0
    0.6940   12.1790    0.6150 C   0  0  0  0  0  0  0  0  0  0  0  0
    0.5500   13.5190   -0.1320 C   0  0  0  0  0  0  0  0  0  0  0  0
    1.1970   13.4460   -1.5180 C   0  0  2  0  0  0  0  0  0  0  0  0
    2.7290   13.1880   -1.3190 C   0  0  0  0  0  0  0  0  0  0  0  0
    1.3441   15.8564   -0.0389 H   0  0  0  0  0  0  0  0  0  0  0  0
    2.9200   15.0749   -0.4028 H   0  0  0  0  0  0  0  0  0  0  0  0
    2.7845   16.8661   -0.4028 H   0  0  0  0  0  0  0  0  0  0  0  0
    2.8488   15.8273   -2.6899 H   0  0  0  0  0  0  0  0  0  0  0  0
    1.3960   17.3416   -3.6478 H   0  0  0  0  0  0  0  0  0  0  0  0
    0.1236   17.0570   -2.3661 H   0  0  0  0  0  0  0  0  0  0  0  0
    2.6637   18.2714   -1.4281 H   0  0  0  0  0  0  0  0  0  0  0  0
    1.6310   19.2902   -2.5158 H   0  0  0  0  0  0  0  0  0  0  0  0
    1.5920   18.8988    0.0017 H   0  0  0  0  0  0  0  0  0  0  0  0
   -1.8004   20.7747   -2.0275 H   0  0  0  0  0  0  0  0  0  0  0  0
   -0.1883   20.4016   -2.7266 H   0  0  0  0  0  0  0  0  0  0  0  0
   -1.4783   19.1517   -2.7266 H   0  0  0  0  0  0  0  0  0  0  0  0
   -0.7577   19.7272    1.2841 H   0  0  0  0  0  0  0  0  0  0  0  0
   -0.8732   21.2582    0.3517 H   0  0  0  0  0  0  0  0  0  0  0  0
   -2.2469   20.1008    0.3517 H   0  0  0  0  0  0  0  0  0  0  0  0
    0.0381   15.1376   -2.2779 H   0  0  0  0  0  0  0  0  0  0  0  0
    0.5467   14.5262   -4.5577 H   0  0  0  0  0  0  0  0  0  0  0  0
    2.2829   14.3738   -4.2108 H   0  0  0  0  0  0  0  0  0  0  0  0
    0.4595   12.1999   -4.5484 H   0  0  0  0  0  0  0  0  0  0  0  0
    2.0648   12.0413   -3.8414 H   0  0  0  0  0  0  0  0  0  0  0  0
   -1.5760   12.7222   -1.6193 H   0  0  0  0  0  0  0  0  0  0  0  0
   -1.1882   13.5641   -3.1579 H   0  0  0  0  0  0  0  0  0  0  0  0
   -1.5129   11.7974   -3.1579 H   0  0  0  0  0  0  0  0  0  0  0  0
    1.7804   10.8518   -1.7515 H   0  0  0  0  0  0  0  0  0  0  0  0
    0.1508   10.0086   -3.5592 H   0  0  0  0  0  0  0  0  0  0  0  0
    0.7505    8.8934   -2.2227 H   0  0  0  0  0  0  0  0  0  0  0  0
   -1.8031    8.7023   -2.8438 H   0  0  0  0  0  0  0  0  0  0  0  0
   -1.6965   11.6256   -0.0637 H   0  0  0  0  0  0  0  0  0  0  0  0
   -1.1258    9.0451    1.5210 H   0  0  0  0  0  0  0  0  0  0  0  0
   -1.2089   10.7379    2.1829 H   0  0  0  0  0  0  0  0  0  0  0  0
   -3.2629    9.4431    2.6601 H   0  0  0  0  0  0  0  0  0  0  0  0
   -3.5624   10.8809    1.6069 H   0  0  0  0  0  0  0  0  0  0  0  0
   -4.8188    9.0251    0.7529 H   0  0  0  0  0  0  0  0  0  0  0  0
   -3.9060    7.0450    0.4350 H   0  0  0  0  0  0  0  0  0  0  0  0
   -4.5354   11.2357   -0.1631 H   0  0  0  0  0  0  0  0  0  0  0  0
   -3.6253   11.4684   -1.6942 H   0  0  0  0  0  0  0  0  0  0  0  0
   -5.1590   10.5332   -1.6942 H   0  0  0  0  0  0  0  0  0  0  0  0
   -4.4699    7.5764   -1.2377 H   0  0  0  0  0  0  0  0  0  0  0  0
   -4.8028    8.8585   -2.4509 H   0  0  0  0  0  0  0  0  0  0  0  0
   -3.2187    8.0116   -2.4509 H   0  0  0  0  0  0  0  0  0  0  0  0
    1.0634    9.7732    1.5453 H   0  0  0  0  0  0  0  0  0  0  0  0
    0.6868    8.7487    0.1187 H   0  0  0  0  0  0  0  0  0  0  0  0
    2.1550    9.7836    0.1187 H   0  0  0  0  0  0  0  0  0  0  0  0
    0.0675   12.2321    1.5176 H   0  0  0  0  0  0  0  0  0  0  0  0
    1.7716   12.0711    0.8078 H   0  0  0  0  0  0  0  0  0  0  0  0
   -0.5184   13.7547   -0.2456 H   0  0  0  0  0  0  0  0  0  0  0  0
    1.0571   14.3019    0.4510 H   0  0  0  0  0  0  0  0  0  0  0  0
    2.9577   13.1495   -0.2437 H   0  0  0  0  0  0  0  0  0  0  0  0
    3.0035   12.2310   -1.7868 H   0  0  0  0  0  0  0  0  0  0  0  0
    3.3018   14.0023   -1.7868 H   0  0  0  0  0  0  0  0  0  0  0  0
  1  2  1  0
  2  3  1  0
  3  4  1  0
  4  5  1  0
  5  6  1  0
  6  7  1  0
  7  8  1  0
  7  9  1  0
  2 10  1  0
 10 11  1  0
 11 12  1  0
 12 13  1  0
 13 14  1  6
 13 15  1  0
 15 16  1  0
 16 17  1  0
 17 18  2  0
 18 19  1  0
 19 20  1  0
 20 21  1  0
 21 22  1  0
 22 23  1  0
 22 24  1  0
 24 25  1  0
 24 26  1  0
 19 27  1  0
 27 28  1  1
 27 29  1  0
 29 30  1  0
 30 31  1  0
 31 32  1  1
  7  5  1  0
 31 10  1  0
 31 13  1  0
 27 15  1  0
 24 18  1  0
  1 33  1  0
  1 34  1  0
  1 35  1  0
  2 36  1  6
  3 37  1  0
  3 38  1  0
  4 39  1  0
  4 40  1  0
  5 41  1  1
  8 42  1  0
  8 43  1  0
  8 44  1  0
  9 45  1  0
  9 46  1  0
  9 47  1  0
 10 48  1  6
 11 49  1  0
 11 50  1  0
 12 51  1  0
 12 52  1  0
 14 53  1  0
 14 54  1  0
 14 55  1  0
 15 56  1  1
 16 57  1  0
 16 58  1  0
 17 59  1  0
 19 60  1  1
 20 61  1  0
 20 62  1  0
 21 63  1  0
 21 64  1  0
 22 65  1  1
 23 66  1  0
 25 67  1  0
 25 68  1  0
 25 69  1  0
 26 70  1  0
 26 71  1  0
 26 72  1  0
 28 73  1  0
 28 74  1  0
 28 75  1  0
 29 76  1  0
 29 77  1  0
 30 78  1  0
 30 79  1  0
 32 80  1  0
 32 81  1  0
 32 82  1  0
M  END
>  <meeko>  (19) 
{"is_sidechain": [false], "intermolecular_energy": 2.731, "internal_energy": -0.839}

$$$$
