EPH_relaxed_0001_pdb2pqr_Repair_198_r2_0001_out
     RDKit          3D

 82 86  0  0  0  0  0  0  0  0999 V2000
   -1.5200    8.4060   -1.6470 C   0  0  0  0  0  0  0  0  0  0  0  0
   -1.9660    9.0950   -0.3540 C   0  0  2  0  0  0  0  0  0  0  0  0
   -3.4610    9.4700   -0.3810 C   0  0  0  0  0  0  0  0  0  0  0  0
   -4.4000    8.2650   -0.2720 C   0  0  0  0  0  0  0  0  0  0  0  0
   -5.0990    7.9880   -1.5690 C   0  0  2  0  0  0  0  0  0  0  0  0
   -6.3200    8.7150   -1.7590 O   0  0  0  0  0  0  0  0  0  0  0  0
   -6.4410    7.2860   -1.6630 C   0  0  0  0  0  0  0  0  0  0  0  0
   -7.1640    6.8180   -0.4390 C   0  0  0  0  0  0  0  0  0  0  0  0
   -6.8140    6.6250   -2.9530 C   0  0  0  0  0  0  0  0  0  0  0  0
   -1.1210   10.3400   -0.1100 C   0  0  1  0  0  0  0  0  0  0  0  0
   -0.0610   10.1330    1.0040 C   0  0  0  0  0  0  0  0  0  0  0  0
    1.1870   10.9560    0.5920 C   0  0  0  0  0  0  0  0  0  0  0  0
    0.6930   11.8640   -0.5590 C   0  0  1  0  0  0  0  0  0  0  0  0
   -0.0170   13.0590    0.1500 C   0  0  0  0  0  0  0  0  0  0  0  0
    1.7810   12.3550   -1.5680 C   0  0  2  0  0  0  0  0  0  0  0  0
    2.8850   13.2380   -0.9580 C   0  0  0  0  0  0  0  0  0  0  0  0
    2.6090   14.7050   -0.9740 C   0  0  0  0  0  0  0  0  0  0  0  0
    1.6590   15.3140   -1.7070 C   0  0  0  0  0  0  0  0  0  0  0  0
    0.8040   14.5220   -2.7040 C   0  0  1  0  0  0  0  0  0  0  0  0
    0.7330   15.2890   -4.0500 C   0  0  0  0  0  0  0  0  0  0  0  0
    0.2500   16.7260   -3.8800 C   0  0  0  0  0  0  0  0  0  0  0  0
    1.1590   17.4980   -2.9270 C   0  0  2  0  0  0  0  0  0  0  0  0
    2.4450   17.6470   -3.5370 O   0  0  0  0  0  0  0  0  0  0  0  0
    1.3140   16.8150   -1.5400 C   0  0  0  0  0  0  0  0  0  0  0  0
   -0.0160   16.9230   -0.7540 C   0  0  0  0  0  0  0  0  0  0  0  0
    2.3650   17.6180   -0.7270 C   0  0  0  0  0  0  0  0  0  0  0  0
    1.1970   12.9930   -2.8920 C   0  0  1  0  0  0  0  0  0  0  0  0
    2.3070   12.8590   -3.9790 C   0  0  0  0  0  0  0  0  0  0  0  0
   -0.0530   12.2050   -3.4350 C   0  0  0  0  0  0  0  0  0  0  0  0
   -1.0290   11.6410   -2.3850 C   0  0  0  0  0  0  0  0  0  0  0  0
   -0.2770   10.8700   -1.2960 C   0  0  2  0  0  0  0  0  0  0  0  0
    0.4290    9.6480   -1.9760 C   0  0  0  0  0  0  0  0  0  0  0  0
   -0.9374    7.5060   -1.4008 H   0  0  0  0  0  0  0  0  0  0  0  0
   -2.4051    8.1205   -2.2345 H   0  0  0  0  0  0  0  0  0  0  0  0
   -0.8971    9.0966   -2.2345 H   0  0  0  0  0  0  0  0  0  0  0  0
   -1.8203    8.3796    0.4688 H   0  0  0  0  0  0  0  0  0  0  0  0
   -3.6647   10.1464    0.4622 H   0  0  0  0  0  0  0  0  0  0  0  0
   -3.6563    9.9427   -1.3548 H   0  0  0  0  0  0  0  0  0  0  0  0
   -3.8124    7.3797    0.0125 H   0  0  0  0  0  0  0  0  0  0  0  0
   -5.1629    8.4922    0.4872 H   0  0  0  0  0  0  0  0  0  0  0  0
   -4.1385    7.8146   -2.0763 H   0  0  0  0  0  0  0  0  0  0  0  0
   -6.6291    7.1642    0.4577 H   0  0  0  0  0  0  0  0  0  0  0  0
   -8.1852    7.2269   -0.4375 H   0  0  0  0  0  0  0  0  0  0  0  0
   -7.2091    5.7189   -0.4375 H   0  0  0  0  0  0  0  0  0  0  0  0
   -7.3447    5.6846   -2.7431 H   0  0  0  0  0  0  0  0  0  0  0  0
   -7.4679    7.2937   -3.5320 H   0  0  0  0  0  0  0  0  0  0  0  0
   -5.9035    6.4109   -3.5320 H   0  0  0  0  0  0  0  0  0  0  0  0
   -1.9170   11.0585    0.1354 H   0  0  0  0  0  0  0  0  0  0  0  0
   -0.4499   10.4917    1.9684 H   0  0  0  0  0  0  0  0  0  0  0  0
    0.1885    9.0679    1.1190 H   0  0  0  0  0  0  0  0  0  0  0  0
    1.5490   11.5613    1.4361 H   0  0  0  0  0  0  0  0  0  0  0  0
    2.0272   10.3151    0.2865 H   0  0  0  0  0  0  0  0  0  0  0  0
    0.0569   12.9347    1.2405 H   0  0  0  0  0  0  0  0  0  0  0  0
    0.4680   14.0011   -0.1453 H   0  0  0  0  0  0  0  0  0  0  0  0
   -1.0763   13.0836   -0.1453 H   0  0  0  0  0  0  0  0  0  0  0  0
    2.2747   11.4157   -1.8579 H   0  0  0  0  0  0  0  0  0  0  0  0
    3.0272   12.9302    0.0884 H   0  0  0  0  0  0  0  0  0  0  0  0
    3.7759   13.0888   -1.5857 H   0  0  0  0  0  0  0  0  0  0  0  0
    3.2353   15.3421   -0.3322 H   0  0  0  0  0  0  0  0  0  0  0  0
   -0.2000   14.4569   -2.2593 H   0  0  0  0  0  0  0  0  0  0  0  0
    1.7367   15.3053   -4.4999 H   0  0  0  0  0  0  0  0  0  0  0  0
    0.0092   14.7675   -4.6935 H   0  0  0  0  0  0  0  0  0  0  0  0
    0.2504   17.2243   -4.8607 H   0  0  0  0  0  0  0  0  0  0  0  0
   -0.7658   16.7074   -3.4584 H   0  0  0  0  0  0  0  0  0  0  0  0
    0.6905   18.4762   -2.7434 H   0  0  0  0  0  0  0  0  0  0  0  0
    2.3630   18.3190   -4.2350 H   0  0  0  0  0  0  0  0  0  0  0  0
    0.1937   16.9060    0.3257 H   0  0  0  0  0  0  0  0  0  0  0  0
   -0.5205   17.8651   -1.0147 H   0  0  0  0  0  0  0  0  0  0  0  0
   -0.6659   16.0747   -1.0147 H   0  0  0  0  0  0  0  0  0  0  0  0
    2.1817   17.4779    0.3485 H   0  0  0  0  0  0  0  0  0  0  0  0
    3.3743   17.2588   -0.9768 H   0  0  0  0  0  0  0  0  0  0  0  0
    2.2837   18.6862   -0.9768 H   0  0  0  0  0  0  0  0  0  0  0  0
    3.2857   12.7408   -3.4910 H   0  0  0  0  0  0  0  0  0  0  0  0
    2.1015   11.9791   -4.6064 H   0  0  0  0  0  0  0  0  0  0  0  0
    2.3168   13.7625   -4.6064 H   0  0  0  0  0  0  0  0  0  0  0  0
   -0.6207   12.8881   -4.0839 H   0  0  0  0  0  0  0  0  0  0  0  0
    0.3622   11.3231   -3.9447 H   0  0  0  0  0  0  0  0  0  0  0  0
   -1.5796   12.4731   -1.9218 H   0  0  0  0  0  0  0  0  0  0  0  0
   -1.7239   10.9515   -2.8867 H   0  0  0  0  0  0  0  0  0  0  0  0
    0.8194    8.9722   -1.2009 H   0  0  0  0  0  0  0  0  0  0  0  0
   -0.2960    9.1076   -2.6023 H   0  0  0  0  0  0  0  0  0  0  0  0
    1.2593   10.0062   -2.6023 H   0  0  0  0  0  0  0  0  0  0  0  0
  1  2  1  0
  2  3  1  0
  3  4  1  0
  4  5  1  0
  5  6  1  0
  6  7  1  0
  7  8  1  0
  7  9  1  0
  2 10  1  0
 10 11  1  0
 11 12  1  0
 12 13  1  0
 13 14  1  1
 13 15  1  0
 15 16  1  0
 16 17  1  0
 17 18  2  0
 18 19  1  0
 19 20  1  0
 20 21  1  0
 21 22  1  0
 22 23  1  0
 22 24  1  0
 24 25  1  0
 24 26  1  0
 19 27  1  0
 27 28  1  6
 27 29  1  0
 29 30  1  0
 30 31  1  0
 31 32  1  6
  7  5  1  0
 31 10  1  0
 31 13  1  0
 27 15  1  0
 24 18  1  0
  1 33  1  0
  1 34  1  0
  1 35  1  0
  2 36  1  1
  3 37  1  0
  3 38  1  0
  4 39  1  0
  4 40  1  0
  5 41  1  6
  8 42  1  0
  8 43  1  0
  8 44  1  0
  9 45  1  0
  9 46  1  0
  9 47  1  0
 10 48  1  1
 11 49  1  0
 11 50  1  0
 12 51  1  0
 12 52  1  0
 14 53  1  0
 14 54  1  0
 14 55  1  0
 15 56  1  6
 16 57  1  0
 16 58  1  0
 17 59  1  0
 19 60  1  1
 20 61  1  0
 20 62  1  0
 21 63  1  0
 21 64  1  0
 22 65  1  1
 23 66  1  0
 25 67  1  0
 25 68  1  0
 25 69  1  0
 26 70  1  0
 26 71  1  0
 26 72  1  0
 28 73  1  0
 28 74  1  0
 28 75  1  0
 29 76  1  0
 29 77  1  0
 30 78  1  0
 30 79  1  0
 32 80  1  0
 32 81  1  0
 32 82  1  0
M  END
>  <meeko>  (1) 
{"is_sidechain": [false], "intermolecular_energy": 2.731, "internal_energy": -0.839}

$$$$
EPH_relaxed_0001_pdb2pqr_Repair_198_r2_0001_out
     RDKit          3D

 82 86  0  0  0  0  0  0  0  0999 V2000
   -0.1650   18.5910   -2.1140 C   0  0  0  0  0  0  0  0  0  0  0  0
    0.8610   17.5580   -1.6390 C   0  0  2  0  0  0  0  0  0  0  0  0
    2.2920   17.9130   -2.0870 C   0  0  0  0  0  0  0  0  0  0  0  0
    3.2650   18.1320   -0.9250 C   0  0  0  0  0  0  0  0  0  0  0  0
    2.6430   18.9420    0.1730 C   0  0  2  0  0  0  0  0  0  0  0  0
    3.2930   20.1920    0.4360 O   0  0  0  0  0  0  0  0  0  0  0  0
    3.3300   19.2240    1.4960 C   0  0  0  0  0  0  0  0  0  0  0  0
    4.7000   18.6980    1.7920 C   0  0  0  0  0  0  0  0  0  0  0  0
    2.4860   19.5900    2.6770 C   0  0  0  0  0  0  0  0  0  0  0  0
    0.4810   16.1750   -2.1540 C   0  0  1  0  0  0  0  0  0  0  0  0
    0.6450   16.0440   -3.6910 C   0  0  0  0  0  0  0  0  0  0  0  0
    1.1080   14.5910   -3.9700 C   0  0  0  0  0  0  0  0  0  0  0  0
    0.8780   13.8450   -2.6350 C   0  0  1  0  0  0  0  0  0  0  0  0
   -0.6430   13.4930   -2.6300 C   0  0  0  0  0  0  0  0  0  0  0  0
    1.7640   12.5810   -2.3870 C   0  0  2  0  0  0  0  0  0  0  0  0
    1.5630   11.4360   -3.3950 C   0  0  0  0  0  0  0  0  0  0  0  0
    0.5220   10.4330   -3.0220 C   0  0  0  0  0  0  0  0  0  0  0  0
   -0.0220   10.2880   -1.7990 C   0  0  0  0  0  0  0  0  0  0  0  0
    0.4780   11.1200   -0.6110 C   0  0  1  0  0  0  0  0  0  0  0  0
    0.6880   10.1960    0.6170 C   0  0  0  0  0  0  0  0  0  0  0  0
   -0.5580    9.3830    0.9570 C   0  0  0  0  0  0  0  0  0  0  0  0
   -0.9900    8.5250   -0.2300 C   0  0  2  0  0  0  0  0  0  0  0  0
    0.0080    7.5270   -0.4640 O   0  0  0  0  0  0  0  0  0  0  0  0
   -1.2210    9.3470   -1.5280 C   0  0  0  0  0  0  0  0  0  0  0  0
   -2.4950   10.2150   -1.3750 C   0  0  0  0  0  0  0  0  0  0  0  0
   -1.5140    8.3480   -2.6800 C   0  0  0  0  0  0  0  0  0  0  0  0
    1.7350   12.0510   -0.8970 C   0  0  1  0  0  0  0  0  0  0  0  0
    3.0530   11.2450   -0.6850 C   0  0  0  0  0  0  0  0  0  0  0  0
    1.7560   13.2220    0.1560 C   0  0  0  0  0  0  0  0  0  0  0  0
    0.9590   14.4910   -0.2010 C   0  0  0  0  0  0  0  0  0  0  0  0
    1.2930   14.9690   -1.6170 C   0  0  2  0  0  0  0  0  0  0  0  0
    2.8120   15.3520   -1.6470 C   0  0  0  0  0  0  0  0  0  0  0  0
   -0.6373   19.0665   -1.2418 H   0  0  0  0  0  0  0  0  0  0  0  0
    0.3399   19.3571   -2.7207 H   0  0  0  0  0  0  0  0  0  0  0  0
   -0.9345   18.0913   -2.7207 H   0  0  0  0  0  0  0  0  0  0  0  0
    0.8500   17.5611   -0.5391 H   0  0  0  0  0  0  0  0  0  0  0  0
    2.6747   17.0912   -2.7100 H   0  0  0  0  0  0  0  0  0  0  0  0
    2.2298   18.8634   -2.6373 H   0  0  0  0  0  0  0  0  0  0  0  0
    3.5639   17.1536   -0.5209 H   0  0  0  0  0  0  0  0  0  0  0  0
    4.1369   18.6835   -1.3067 H   0  0  0  0  0  0  0  0  0  0  0  0
    1.6445   18.5506   -0.0713 H   0  0  0  0  0  0  0  0  0  0  0  0
    4.8441   18.6427    2.8811 H   0  0  0  0  0  0  0  0  0  0  0  0
    4.8093   17.6940    1.3562 H   0  0  0  0  0  0  0  0  0  0  0  0
    5.4532   19.3709    1.3562 H   0  0  0  0  0  0  0  0  0  0  0  0
    3.0299   19.3541    3.6036 H   0  0  0  0  0  0  0  0  0  0  0  0
    2.2613   20.6664    2.6476 H   0  0  0  0  0  0  0  0  0  0  0  0
    1.5466   19.0184    2.6476 H   0  0  0  0  0  0  0  0  0  0  0  0
   -0.5565   16.1219   -1.7924 H   0  0  0  0  0  0  0  0  0  0  0  0
   -0.3147   16.2384   -4.1921 H   0  0  0  0  0  0  0  0  0  0  0  0
    1.3762   16.7715   -4.0733 H   0  0  0  0  0  0  0  0  0  0  0  0
    0.5088   14.1403   -4.7749 H   0  0  0  0  0  0  0  0  0  0  0  0
    2.1565   14.5433   -4.2992 H   0  0  0  0  0  0  0  0  0  0  0  0
   -0.9970   13.4111   -1.5917 H   0  0  0  0  0  0  0  0  0  0  0  0
   -1.2043   14.2850   -3.1474 H   0  0  0  0  0  0  0  0  0  0  0  0
   -0.7993   12.5349   -3.1474 H   0  0  0  0  0  0  0  0  0  0  0  0
    2.7787   12.9648   -2.5689 H   0  0  0  0  0  0  0  0  0  0  0  0
    1.2773   11.8793   -4.3603 H   0  0  0  0  0  0  0  0  0  0  0  0
    2.5161   10.8878   -3.4266 H   0  0  0  0  0  0  0  0  0  0  0  0
    0.1696    9.7551   -3.8134 H   0  0  0  0  0  0  0  0  0  0  0  0
   -0.3155   11.8508   -0.3960 H   0  0  0  0  0  0  0  0  0  0  0  0
    1.5133    9.5021    0.3993 H   0  0  0  0  0  0  0  0  0  0  0  0
    0.9153   10.8364    1.4820 H   0  0  0  0  0  0  0  0  0  0  0  0
   -0.3383    8.7285    1.8133 H   0  0  0  0  0  0  0  0  0  0  0  0
   -1.3743   10.0778    1.2037 H   0  0  0  0  0  0  0  0  0  0  0  0
   -1.9567    8.0678    0.0276 H   0  0  0  0  0  0  0  0  0  0  0  0
    0.7800    7.7480    0.0840 H   0  0  0  0  0  0  0  0  0  0  0  0
   -2.7119   10.3628   -0.3068 H   0  0  0  0  0  0  0  0  0  0  0  0
   -2.3332   11.1915   -1.8548 H   0  0  0  0  0  0  0  0  0  0  0  0
   -3.3446    9.7070   -1.8548 H   0  0  0  0  0  0  0  0  0  0  0  0
   -1.7997    7.3738   -2.2567 H   0  0  0  0  0  0  0  0  0  0  0  0
   -2.3368    8.7340   -3.2997 H   0  0  0  0  0  0  0  0  0  0  0  0
   -0.6131    8.2285   -3.2997 H   0  0  0  0  0  0  0  0  0  0  0  0
    3.2426   11.1290    0.3923 H   0  0  0  0  0  0  0  0  0  0  0  0
    2.9545   10.2525   -1.1489 H   0  0  0  0  0  0  0  0  0  0  0  0
    3.8916   11.7849   -1.1489 H   0  0  0  0  0  0  0  0  0  0  0  0
    1.3501   12.8285    1.0996 H   0  0  0  0  0  0  0  0  0  0  0  0
    2.8061   13.5459    0.2056 H   0  0  0  0  0  0  0  0  0  0  0  0
   -0.1167   14.2690   -0.1407 H   0  0  0  0  0  0  0  0  0  0  0  0
    1.2290   15.2858    0.5099 H   0  0  0  0  0  0  0  0  0  0  0  0
    3.1867   15.4465   -0.6171 H   0  0  0  0  0  0  0  0  0  0  0  0
    3.3774   14.5683   -2.1725 H   0  0  0  0  0  0  0  0  0  0  0  0
    2.9383   16.3101   -2.1725 H   0  0  0  0  0  0  0  0  0  0  0  0
  1  2  1  0
  2  3  1  0
  3  4  1  0
  4  5  1  0
  5  6  1  0
  6  7  1  0
  7  8  1  0
  7  9  1  0
  2 10  1  0
 10 11  1  0
 11 12  1  0
 12 13  1  0
 13 14  1  1
 13 15  1  0
 15 16  1  0
 16 17  1  0
 17 18  2  0
 18 19  1  0
 19 20  1  0
 20 21  1  0
 21 22  1  0
 22 23  1  0
 22 24  1  0
 24 25  1  0
 24 26  1  0
 19 27  1  0
 27 28  1  1
 27 29  1  0
 29 30  1  0
 30 31  1  0
 31 32  1  1
  7  5  1  0
 31 10  1  0
 31 13  1  0
 27 15  1  0
 24 18  1  0
  1 33  1  0
  1 34  1  0
  1 35  1  0
  2 36  1  1
  3 37  1  0
  3 38  1  0
  4 39  1  0
  4 40  1  0
  5 41  1  1
  8 42  1  0
  8 43  1  0
  8 44  1  0
  9 45  1  0
  9 46  1  0
  9 47  1  0
 10 48  1  6
 11 49  1  0
 11 50  1  0
 12 51  1  0
 12 52  1  0
 14 53  1  0
 14 54  1  0
 14 55  1  0
 15 56  1  6
 16 57  1  0
 16 58  1  0
 17 59  1  0
 19 60  1  1
 20 61  1  0
 20 62  1  0
 21 63  1  0
 21 64  1  0
 22 65  1  1
 23 66  1  0
 25 67  1  0
 25 68  1  0
 25 69  1  0
 26 70  1  0
 26 71  1  0
 26 72  1  0
 28 73  1  0
 28 74  1  0
 28 75  1  0
 29 76  1  0
 29 77  1  0
 30 78  1  0
 30 79  1  0
 32 80  1  0
 32 81  1  0
 32 82  1  0
M  END
>  <meeko>  (2) 
{"is_sidechain": [false], "intermolecular_energy": 2.731, "internal_energy": -0.839}

$$$$
EPH_relaxed_0001_pdb2pqr_Repair_198_r2_0001_out
     RDKit          3D

 82 86  0  0  0  0  0  0  0  0999 V2000
    2.1870   18.0000   -3.2310 C   0  0  0  0  0  0  0  0  0  0  0  0
    0.9480   17.6270   -2.4130 C   0  0  2  0  0  0  0  0  0  0  0  0
    1.1950   17.7520   -0.8960 C   0  0  0  0  0  0  0  0  0  0  0  0
    0.8760   19.1400   -0.3320 C   0  0  0  0  0  0  0  0  0  0  0  0
   -0.5160   19.2070    0.2190 C   0  0  2  0  0  0  0  0  0  0  0  0
   -1.4460   18.3010   -0.3890 O   0  0  0  0  0  0  0  0  0  0  0  0
   -1.7090   19.7010   -0.5780 C   0  0  0  0  0  0  0  0  0  0  0  0
   -1.5640   20.1620   -1.9950 C   0  0  0  0  0  0  0  0  0  0  0  0
   -2.9110   20.1940    0.1650 C   0  0  0  0  0  0  0  0  0  0  0  0
    0.5070   16.2090   -2.7540 C   0  0  1  0  0  0  0  0  0  0  0  0
    0.5760   15.9110   -4.2750 C   0  0  0  0  0  0  0  0  0  0  0  0
    0.9890   14.4240   -4.4220 C   0  0  0  0  0  0  0  0  0  0  0  0
    0.8210   13.8310   -3.0040 C   0  0  1  0  0  0  0  0  0  0  0  0
   -0.7040   13.5250   -2.8750 C   0  0  0  0  0  0  0  0  0  0  0  0
    1.6910   12.5750   -2.6730 C   0  0  2  0  0  0  0  0  0  0  0  0
    1.4050   11.3360   -3.5390 C   0  0  0  0  0  0  0  0  0  0  0  0
    0.3650   10.4090   -3.0020 C   0  0  0  0  0  0  0  0  0  0  0  0
   -0.1080   10.4100   -1.7420 C   0  0  0  0  0  0  0  0  0  0  0  0
    0.4800   11.3480   -0.6800 C   0  0  1  0  0  0  0  0  0  0  0  0
    0.7420   10.5530    0.6260 C   0  0  0  0  0  0  0  0  0  0  0  0
   -0.5000    9.8180    1.1220 C   0  0  0  0  0  0  0  0  0  0  0  0
   -1.0210    8.8520    0.0610 C   0  0  2  0  0  0  0  0  0  0  0  0
   -0.0610    7.8060   -0.1210 O   0  0  0  0  0  0  0  0  0  0  0  0
   -1.3110    9.5380   -1.3040 C   0  0  0  0  0  0  0  0  0  0  0  0
   -2.5520   10.4540   -1.1720 C   0  0  0  0  0  0  0  0  0  0  0  0
   -1.6940    8.4310   -2.3230 C   0  0  0  0  0  0  0  0  0  0  0  0
    1.7390   12.2060   -1.1340 C   0  0  1  0  0  0  0  0  0  0  0  0
    3.0480   11.3890   -0.9120 C   0  0  0  0  0  0  0  0  0  0  0  0
    1.8500   13.4810   -0.2170 C   0  0  0  0  0  0  0  0  0  0  0  0
    1.0610   14.7280   -0.6620 C   0  0  0  0  0  0  0  0  0  0  0  0
    1.3220   15.0440   -2.1380 C   0  0  2  0  0  0  0  0  0  0  0  0
    2.8450   15.3770   -2.2940 C   0  0  0  0  0  0  0  0  0  0  0  0
    3.0144   18.2491   -2.5503 H   0  0  0  0  0  0  0  0  0  0  0  0
    2.4774   17.1494   -3.8652 H   0  0  0  0  0  0  0  0  0  0  0  0
    1.9595   18.8695   -3.8652 H   0  0  0  0  0  0  0  0  0  0  0  0
    0.1508   18.3373   -2.6774 H   0  0  0  0  0  0  0  0  0  0  0  0
    0.5638   17.0139   -0.3795 H   0  0  0  0  0  0  0  0  0  0  0  0
    2.2681   17.5765   -0.7297 H   0  0  0  0  0  0  0  0  0  0  0  0
    1.5896   19.3706    0.4728 H   0  0  0  0  0  0  0  0  0  0  0  0
    0.9565   19.8701   -1.1509 H   0  0  0  0  0  0  0  0  0  0  0  0
   -0.1332   19.4726    1.2154 H   0  0  0  0  0  0  0  0  0  0  0  0
   -1.2340   21.2113   -2.0073 H   0  0  0  0  0  0  0  0  0  0  0  0
   -0.8190   19.5372   -2.5094 H   0  0  0  0  0  0  0  0  0  0  0  0
   -2.5325   20.0762   -2.5094 H   0  0  0  0  0  0  0  0  0  0  0  0
   -2.7291   20.1194    1.2473 H   0  0  0  0  0  0  0  0  0  0  0  0
   -3.1028   21.2434   -0.1031 H   0  0  0  0  0  0  0  0  0  0  0  0
   -3.7845   19.5815   -0.1031 H   0  0  0  0  0  0  0  0  0  0  0  0
   -0.5080   16.2247   -2.3302 H   0  0  0  0  0  0  0  0  0  0  0  0
   -0.4073   16.0785   -4.7387 H   0  0  0  0  0  0  0  0  0  0  0  0
    1.2991   16.5726   -4.7743 H   0  0  0  0  0  0  0  0  0  0  0  0
    0.3336   13.9079   -5.1390 H   0  0  0  0  0  0  0  0  0  0  0  0
    2.0149   14.3115   -4.8025 H   0  0  0  0  0  0  0  0  0  0  0  0
   -0.9782   13.4700   -1.8112 H   0  0  0  0  0  0  0  0  0  0  0  0
   -1.2810   14.3253   -3.3615 H   0  0  0  0  0  0  0  0  0  0  0  0
   -0.9276   12.5641   -3.3615 H   0  0  0  0  0  0  0  0  0  0  0  0
    2.7012   12.9084   -2.9530 H   0  0  0  0  0  0  0  0  0  0  0  0
    1.0731   11.6824   -4.5289 H   0  0  0  0  0  0  0  0  0  0  0  0
    2.3418   10.7601   -3.5651 H   0  0  0  0  0  0  0  0  0  0  0  0
   -0.0497    9.6620   -3.6948 H   0  0  0  0  0  0  0  0  0  0  0  0
   -0.2830   12.1198   -0.5004 H   0  0  0  0  0  0  0  0  0  0  0  0
    1.5362    9.8158    0.4369 H   0  0  0  0  0  0  0  0  0  0  0  0
    1.0361   11.2741    1.4029 H   0  0  0  0  0  0  0  0  0  0  0  0
   -0.2450    9.2522    2.0302 H   0  0  0  0  0  0  0  0  0  0  0  0
   -1.2839   10.5587    1.3384 H   0  0  0  0  0  0  0  0  0  0  0  0
   -1.9807    8.4530    0.4213 H   0  0  0  0  0  0  0  0  0  0  0  0
    0.4910    7.7700    0.6780 H   0  0  0  0  0  0  0  0  0  0  0  0
   -2.7748   10.6184   -0.1074 H   0  0  0  0  0  0  0  0  0  0  0  0
   -2.3481   11.4198   -1.6574 H   0  0  0  0  0  0  0  0  0  0  0  0
   -3.4149    9.9746   -1.6574 H   0  0  0  0  0  0  0  0  0  0  0  0
   -2.0070    7.5263   -1.7812 H   0  0  0  0  0  0  0  0  0  0  0  0
   -2.5220    8.7849   -2.9549 H   0  0  0  0  0  0  0  0  0  0  0  0
   -0.8244    8.1975   -2.9549 H   0  0  0  0  0  0  0  0  0  0  0  0
    3.2306   11.2750    0.1667 H   0  0  0  0  0  0  0  0  0  0  0  0
    2.9430   10.3958   -1.3730 H   0  0  0  0  0  0  0  0  0  0  0  0
    3.8941   11.9197   -1.3730 H   0  0  0  0  0  0  0  0  0  0  0  0
    1.4935   13.2019    0.7855 H   0  0  0  0  0  0  0  0  0  0  0  0
    2.9081   13.7780   -0.2639 H   0  0  0  0  0  0  0  0  0  0  0  0
   -0.0139   14.5441   -0.5180 H   0  0  0  0  0  0  0  0  0  0  0  0
    1.3894   15.5855   -0.0563 H   0  0  0  0  0  0  0  0  0  0  0  0
    3.3023   15.4770   -1.2986 H   0  0  0  0  0  0  0  0  0  0  0  0
    3.3428   14.5665   -2.8465 H   0  0  0  0  0  0  0  0  0  0  0  0
    2.9591   16.3213   -2.8465 H   0  0  0  0  0  0  0  0  0  0  0  0
  1  2  1  0
  2  3  1  0
  3  4  1  0
  4  5  1  0
  5  6  1  0
  6  7  1  0
  7  8  1  0
  7  9  1  0
  2 10  1  0
 10 11  1  0
 11 12  1  0
 12 13  1  0
 13 14  1  1
 13 15  1  0
 15 16  1  0
 16 17  1  0
 17 18  2  0
 18 19  1  0
 19 20  1  0
 20 21  1  0
 21 22  1  0
 22 23  1  0
 22 24  1  0
 24 25  1  0
 24 26  1  0
 19 27  1  0
 27 28  1  6
 27 29  1  0
 29 30  1  0
 30 31  1  0
 31 32  1  1
  7  5  1  0
 31 10  1  0
 31 13  1  0
 27 15  1  0
 24 18  1  0
  1 33  1  0
  1 34  1  0
  1 35  1  0
  2 36  1  6
  3 37  1  0
  3 38  1  0
  4 39  1  0
  4 40  1  0
  5 41  1  1
  8 42  1  0
  8 43  1  0
  8 44  1  0
  9 45  1  0
  9 46  1  0
  9 47  1  0
 10 48  1  1
 11 49  1  0
 11 50  1  0
 12 51  1  0
 12 52  1  0
 14 53  1  0
 14 54  1  0
 14 55  1  0
 15 56  1  6
 16 57  1  0
 16 58  1  0
 17 59  1  0
 19 60  1  1
 20 61  1  0
 20 62  1  0
 21 63  1  0
 21 64  1  0
 22 65  1  1
 23 66  1  0
 25 67  1  0
 25 68  1  0
 25 69  1  0
 26 70  1  0
 26 71  1  0
 26 72  1  0
 28 73  1  0
 28 74  1  0
 28 75  1  0
 29 76  1  0
 29 77  1  0
 30 78  1  0
 30 79  1  0
 32 80  1  0
 32 81  1  0
 32 82  1  0
M  END
>  <meeko>  (3) 
{"is_sidechain": [false], "intermolecular_energy": 2.731, "internal_energy": -0.839}

$$$$
EPH_relaxed_0001_pdb2pqr_Repair_198_r2_0001_out
     RDKit          3D

 82 86  0  0  0  0  0  0  0  0999 V2000
   -5.1710    5.8200   -1.7140 C   0  0  0  0  0  0  0  0  0  0  0  0
   -5.4610    7.3230   -1.7720 C   0  0  2  0  0  0  0  0  0  0  0  0
   -5.2350    8.0100   -0.4110 C   0  0  0  0  0  0  0  0  0  0  0  0
   -4.1810    9.1200   -0.4490 C   0  0  0  0  0  0  0  0  0  0  0  0
   -2.8300    8.5890   -0.8220 C   0  0  2  0  0  0  0  0  0  0  0  0
   -1.7950    8.8640    0.1300 O   0  0  0  0  0  0  0  0  0  0  0  0
   -1.6470    9.4760   -1.1620 C   0  0  0  0  0  0  0  0  0  0  0  0
   -1.7610   10.9680   -1.1440 C   0  0  0  0  0  0  0  0  0  0  0  0
   -0.5320    8.9010   -1.9780 C   0  0  0  0  0  0  0  0  0  0  0  0
   -6.8910    7.5580   -2.2440 C   0  0  1  0  0  0  0  0  0  0  0  0
   -7.1960    6.8600   -3.5960 C   0  0  0  0  0  0  0  0  0  0  0  0
   -8.6750    6.3990   -3.5370 C   0  0  0  0  0  0  0  0  0  0  0  0
   -9.2630    7.1290   -2.3070 C   0  0  1  0  0  0  0  0  0  0  0  0
   -9.6000    8.5660   -2.8170 C   0  0  0  0  0  0  0  0  0  0  0  0
  -10.4980    6.4540   -1.6270 C   0  0  2  0  0  0  0  0  0  0  0  0
  -11.7480    6.3350   -2.5160 C   0  0  0  0  0  0  0  0  0  0  0  0
  -12.6940    7.4880   -2.4440 C   0  0  0  0  0  0  0  0  0  0  0  0
  -12.6950    8.4400   -1.4930 C   0  0  0  0  0  0  0  0  0  0  0  0
  -11.7380    8.3610   -0.2970 C   0  0  1  0  0  0  0  0  0  0  0  0
  -12.5180    8.6510    1.0110 C   0  0  0  0  0  0  0  0  0  0  0  0
  -13.2770    9.9730    0.9590 C   0  0  0  0  0  0  0  0  0  0  0  0
  -14.2610    9.9920   -0.2090 C   0  0  2  0  0  0  0  0  0  0  0  0
  -15.2870    9.0260    0.0380 O   0  0  0  0  0  0  0  0  0  0  0  0
  -13.5890    9.7020   -1.5800 C   0  0  0  0  0  0  0  0  0  0  0  0
  -12.6990   10.9020   -1.9880 C   0  0  0  0  0  0  0  0  0  0  0  0
  -14.7100    9.6090   -2.6500 C   0  0  0  0  0  0  0  0  0  0  0  0
  -10.8560    7.0420   -0.2020 C   0  0  1  0  0  0  0  0  0  0  0  0
  -11.6430    5.9290    0.5540 C   0  0  0  0  0  0  0  0  0  0  0  0
   -9.5730    7.3420    0.6600 C   0  0  0  0  0  0  0  0  0  0  0  0
   -8.3460    7.8960   -0.0890 C   0  0  0  0  0  0  0  0  0  0  0  0
   -8.0340    7.0530   -1.3290 C   0  0  2  0  0  0  0  0  0  0  0  0
   -7.6700    5.6080   -0.8460 C   0  0  0  0  0  0  0  0  0  0  0  0
   -5.1090    5.4988   -0.6638 H   0  0  0  0  0  0  0  0  0  0  0  0
   -5.9797    5.2708   -2.2183 H   0  0  0  0  0  0  0  0  0  0  0  0
   -4.2160    5.6111   -2.2183 H   0  0  0  0  0  0  0  0  0  0  0  0
   -4.7554    7.7696   -2.4880 H   0  0  0  0  0  0  0  0  0  0  0  0
   -6.1885    8.4477   -0.0804 H   0  0  0  0  0  0  0  0  0  0  0  0
   -4.8648    7.2389    0.2806 H   0  0  0  0  0  0  0  0  0  0  0  0
   -4.4844    9.8745   -1.1897 H   0  0  0  0  0  0  0  0  0  0  0  0
   -4.1106    9.5606    0.5564 H   0  0  0  0  0  0  0  0  0  0  0  0
   -3.2844    7.7336   -1.3433 H   0  0  0  0  0  0  0  0  0  0  0  0
   -1.7880   11.3211   -0.1026 H   0  0  0  0  0  0  0  0  0  0  0  0
   -0.8939   11.4082   -1.6581 H   0  0  0  0  0  0  0  0  0  0  0  0
   -2.6849   11.2714   -1.6581 H   0  0  0  0  0  0  0  0  0  0  0  0
    0.2438    8.5009   -1.3086 H   0  0  0  0  0  0  0  0  0  0  0  0
   -0.9218    8.0915   -2.6126 H   0  0  0  0  0  0  0  0  0  0  0  0
   -0.0985    9.6880   -2.6126 H   0  0  0  0  0  0  0  0  0  0  0  0
   -6.8954    8.6574   -2.2786 H   0  0  0  0  0  0  0  0  0  0  0  0
   -7.0519    7.5654   -4.4276 H   0  0  0  0  0  0  0  0  0  0  0  0
   -6.5222    6.0063   -3.7609 H   0  0  0  0  0  0  0  0  0  0  0  0
   -9.2093    6.6902   -4.4534 H   0  0  0  0  0  0  0  0  0  0  0  0
   -8.7681    5.3059   -3.4569 H   0  0  0  0  0  0  0  0  0  0  0  0
   -9.7565    9.2332   -1.9565 H   0  0  0  0  0  0  0  0  0  0  0  0
   -8.7660    8.9436   -3.4269 H   0  0  0  0  0  0  0  0  0  0  0  0
  -10.5149    8.5335   -3.4269 H   0  0  0  0  0  0  0  0  0  0  0  0
  -10.1454    5.4243   -1.4675 H   0  0  0  0  0  0  0  0  0  0  0  0
  -11.4146    6.2335   -3.5593 H   0  0  0  0  0  0  0  0  0  0  0  0
  -12.3039    5.4617   -2.1441 H   0  0  0  0  0  0  0  0  0  0  0  0
  -13.4543    7.5657   -3.2352 H   0  0  0  0  0  0  0  0  0  0  0  0
  -10.9815    9.1426   -0.4606 H   0  0  0  0  0  0  0  0  0  0  0  0
  -13.2386    7.8372    1.1796 H   0  0  0  0  0  0  0  0  0  0  0  0
  -11.7851    8.7189    1.8285 H   0  0  0  0  0  0  0  0  0  0  0  0
  -13.8318   10.1068    1.8993 H   0  0  0  0  0  0  0  0  0  0  0  0
  -12.5521   10.7888    0.8207 H   0  0  0  0  0  0  0  0  0  0  0  0
  -14.6786   11.0076   -0.2731 H   0  0  0  0  0  0  0  0  0  0  0  0
  -16.0770    9.3030   -0.4560 H   0  0  0  0  0  0  0  0  0  0  0  0
  -12.3255   11.4055   -1.0841 H   0  0  0  0  0  0  0  0  0  0  0  0
  -11.8483   10.5414   -2.5848 H   0  0  0  0  0  0  0  0  0  0  0  0
  -13.2911   11.6114   -2.5848 H   0  0  0  0  0  0  0  0  0  0  0  0
  -15.6871    9.5279   -2.1513 H   0  0  0  0  0  0  0  0  0  0  0  0
  -14.6928   10.5117   -3.2784 H   0  0  0  0  0  0  0  0  0  0  0  0
  -14.5443    8.7215   -3.2784 H   0  0  0  0  0  0  0  0  0  0  0  0
  -11.5377    6.0779    1.6388 H   0  0  0  0  0  0  0  0  0  0  0  0
  -12.7067    5.9804    0.2784 H   0  0  0  0  0  0  0  0  0  0  0  0
  -11.2400    4.9433    0.2784 H   0  0  0  0  0  0  0  0  0  0  0  0
   -9.8532    8.0771    1.4288 H   0  0  0  0  0  0  0  0  0  0  0  0
   -9.2541    6.3644    1.0507 H   0  0  0  0  0  0  0  0  0  0  0  0
   -8.5513    8.9310   -0.3998 H   0  0  0  0  0  0  0  0  0  0  0  0
   -7.4781    7.8616    0.5859 H   0  0  0  0  0  0  0  0  0  0  0  0
   -7.6629    5.5799    0.2536 H   0  0  0  0  0  0  0  0  0  0  0  0
   -8.4167    4.8953   -1.2262 H   0  0  0  0  0  0  0  0  0  0  0  0
   -6.6748    5.3341   -1.2262 H   0  0  0  0  0  0  0  0  0  0  0  0
  1  2  1  0
  2  3  1  0
  3  4  1  0
  4  5  1  0
  5  6  1  0
  6  7  1  0
  7  8  1  0
  7  9  1  0
  2 10  1  0
 10 11  1  0
 11 12  1  0
 12 13  1  0
 13 14  1  6
 13 15  1  0
 15 16  1  0
 16 17  1  0
 17 18  2  0
 18 19  1  0
 19 20  1  0
 20 21  1  0
 21 22  1  0
 22 23  1  0
 22 24  1  0
 24 25  1  0
 24 26  1  0
 19 27  1  0
 27 28  1  1
 27 29  1  0
 29 30  1  0
 30 31  1  0
 31 32  1  1
  7  5  1  0
 31 10  1  0
 31 13  1  0
 27 15  1  0
 24 18  1  0
  1 33  1  0
  1 34  1  0
  1 35  1  0
  2 36  1  6
  3 37  1  0
  3 38  1  0
  4 39  1  0
  4 40  1  0
  5 41  1  6
  8 42  1  0
  8 43  1  0
  8 44  1  0
  9 45  1  0
  9 46  1  0
  9 47  1  0
 10 48  1  6
 11 49  1  0
 11 50  1  0
 12 51  1  0
 12 52  1  0
 14 53  1  0
 14 54  1  0
 14 55  1  0
 15 56  1  1
 16 57  1  0
 16 58  1  0
 17 59  1  0
 19 60  1  6
 20 61  1  0
 20 62  1  0
 21 63  1  0
 21 64  1  0
 22 65  1  6
 23 66  1  0
 25 67  1  0
 25 68  1  0
 25 69  1  0
 26 70  1  0
 26 71  1  0
 26 72  1  0
 28 73  1  0
 28 74  1  0
 28 75  1  0
 29 76  1  0
 29 77  1  0
 30 78  1  0
 30 79  1  0
 32 80  1  0
 32 81  1  0
 32 82  1  0
M  END
>  <meeko>  (4) 
{"is_sidechain": [false], "intermolecular_energy": 2.731, "internal_energy": -0.839}

$$$$
EPH_relaxed_0001_pdb2pqr_Repair_198_r2_0001_out
     RDKit          3D

 82 86  0  0  0  0  0  0  0  0999 V2000
    3.1120   18.3380   -2.1750 C   0  0  0  0  0  0  0  0  0  0  0  0
    2.6320   18.1330   -0.7360 C   0  0  2  0  0  0  0  0  0  0  0  0
    3.7960   17.8270    0.2270 C   0  0  0  0  0  0  0  0  0  0  0  0
    3.8230   18.7250    1.4660 C   0  0  0  0  0  0  0  0  0  0  0  0
    5.1710   18.7260    2.1220 C   0  0  2  0  0  0  0  0  0  0  0  0
    5.2320   18.0180    3.3670 O   0  0  0  0  0  0  0  0  0  0  0  0
    5.4650   19.4340    3.4310 C   0  0  0  0  0  0  0  0  0  0  0  0
    4.4020   20.1940    4.1620 C   0  0  0  0  0  0  0  0  0  0  0  0
    6.8820   19.7990    3.7450 C   0  0  0  0  0  0  0  0  0  0  0  0
    1.6040   17.0090   -0.6850 C   0  0  1  0  0  0  0  0  0  0  0  0
    0.1970   17.4630   -1.1580 C   0  0  0  0  0  0  0  0  0  0  0  0
   -0.4410   16.2540   -1.8900 C   0  0  0  0  0  0  0  0  0  0  0  0
    0.4690   15.0560   -1.5300 C   0  0  1  0  0  0  0  0  0  0  0  0
   -0.0030   14.6070   -0.1110 C   0  0  0  0  0  0  0  0  0  0  0  0
    0.4730   13.8630   -2.5410 C   0  0  2  0  0  0  0  0  0  0  0  0
   -0.8810   13.1540   -2.7190 C   0  0  0  0  0  0  0  0  0  0  0  0
   -1.1250   12.0050   -1.7980 C   0  0  0  0  0  0  0  0  0  0  0  0
   -0.1880   11.3800   -1.0610 C   0  0  0  0  0  0  0  0  0  0  0  0
    1.2940   11.7570   -1.1870 C   0  0  1  0  0  0  0  0  0  0  0  0
    2.1480   10.4680   -1.3030 C   0  0  0  0  0  0  0  0  0  0  0  0
    1.8900    9.4910   -0.1600 C   0  0  0  0  0  0  0  0  0  0  0  0
    0.4170    9.0950   -0.1030 C   0  0  2  0  0  0  0  0  0  0  0  0
    0.0990    8.3340   -1.2730 O   0  0  0  0  0  0  0  0  0  0  0  0
   -0.5420   10.3130    0.0040 C   0  0  0  0  0  0  0  0  0  0  0  0
   -0.4060   10.9610    1.4040 C   0  0  0  0  0  0  0  0  0  0  0  0
   -1.9990    9.7850   -0.0910 C   0  0  0  0  0  0  0  0  0  0  0  0
    1.6440   12.8240   -2.3120 C   0  0  1  0  0  0  0  0  0  0  0  0
    1.8730   12.1040   -3.6760 C   0  0  0  0  0  0  0  0  0  0  0  0
    3.0050   13.5270   -1.9470 C   0  0  0  0  0  0  0  0  0  0  0  0
    2.9240   14.7710   -1.0420 C   0  0  0  0  0  0  0  0  0  0  0  0
    1.8750   15.7590   -1.5600 C   0  0  2  0  0  0  0  0  0  0  0  0
    2.3340   16.2450   -2.9770 C   0  0  0  0  0  0  0  0  0  0  0  0
    4.1236   18.7700   -2.1661 H   0  0  0  0  0  0  0  0  0  0  0  0
    3.1314   17.3697   -2.6965 H   0  0  0  0  0  0  0  0  0  0  0  0
    2.4259   19.0216   -2.6965 H   0  0  0  0  0  0  0  0  0  0  0  0
    2.1693   19.0745   -0.4052 H   0  0  0  0  0  0  0  0  0  0  0  0
    3.7071   16.7817    0.5578 H   0  0  0  0  0  0  0  0  0  0  0  0
    4.7281   18.0149   -0.3261 H   0  0  0  0  0  0  0  0  0  0  0  0
    3.5718   19.7532    1.1664 H   0  0  0  0  0  0  0  0  0  0  0  0
    3.0910   18.3343    2.1882 H   0  0  0  0  0  0  0  0  0  0  0  0
    5.6725   18.7471    1.1432 H   0  0  0  0  0  0  0  0  0  0  0  0
    4.5536   20.0856    5.2461 H   0  0  0  0  0  0  0  0  0  0  0  0
    4.4581   21.2580    3.8885 H   0  0  0  0  0  0  0  0  0  0  0  0
    3.4134   19.7967    3.8885 H   0  0  0  0  0  0  0  0  0  0  0  0
    7.0185   19.8341    4.8359 H   0  0  0  0  0  0  0  0  0  0  0  0
    7.5586   19.0458    3.3149 H   0  0  0  0  0  0  0  0  0  0  0  0
    7.1105   20.7853    3.3149 H   0  0  0  0  0  0  0  0  0  0  0  0
    1.6713   16.7453    0.3808 H   0  0  0  0  0  0  0  0  0  0  0  0
   -0.4190   17.7501   -0.2930 H   0  0  0  0  0  0  0  0  0  0  0  0
    0.2669   18.3357   -1.8240 H   0  0  0  0  0  0  0  0  0  0  0  0
   -1.4677   16.0824   -1.5345 H   0  0  0  0  0  0  0  0  0  0  0  0
   -0.5111   16.4133   -2.9761 H   0  0  0  0  0  0  0  0  0  0  0  0
    0.5690   15.1512    0.6549 H   0  0  0  0  0  0  0  0  0  0  0  0
   -1.0743   14.8275    0.0059 H   0  0  0  0  0  0  0  0  0  0  0  0
    0.1637   13.5260    0.0059 H   0  0  0  0  0  0  0  0  0  0  0  0
    0.6748   14.3655   -3.4985 H   0  0  0  0  0  0  0  0  0  0  0  0
   -1.6770   13.8955   -2.5557 H   0  0  0  0  0  0  0  0  0  0  0  0
   -0.8728   12.7330   -3.7352 H   0  0  0  0  0  0  0  0  0  0  0  0
   -2.1585   11.6378   -1.7145 H   0  0  0  0  0  0  0  0  0  0  0  0
    1.5515   12.2930   -0.2616 H   0  0  0  0  0  0  0  0  0  0  0  0
    1.9074    9.9699   -2.2538 H   0  0  0  0  0  0  0  0  0  0  0  0
    3.2066   10.7634   -1.2575 H   0  0  0  0  0  0  0  0  0  0  0  0
    2.4998    8.5884   -0.3133 H   0  0  0  0  0  0  0  0  0  0  0  0
    2.1590    9.9804    0.7877 H   0  0  0  0  0  0  0  0  0  0  0  0
    0.2708    8.5001    0.8106 H   0  0  0  0  0  0  0  0  0  0  0  0
   -0.6940    8.7280   -1.6730 H   0  0  0  0  0  0  0  0  0  0  0  0
   -0.5664   10.1969    2.1789 H   0  0  0  0  0  0  0  0  0  0  0  0
    0.6015   11.3887    1.5138 H   0  0  0  0  0  0  0  0  0  0  0  0
   -1.1565   11.7577    1.5138 H   0  0  0  0  0  0  0  0  0  0  0  0
   -2.4027    9.6387    0.9217 H   0  0  0  0  0  0  0  0  0  0  0  0
   -2.6193   10.5155   -0.6310 H   0  0  0  0  0  0  0  0  0  0  0  0
   -2.0073    8.8267   -0.6310 H   0  0  0  0  0  0  0  0  0  0  0  0
    2.2018   11.0702   -3.4942 H   0  0  0  0  0  0  0  0  0  0  0  0
    0.9335   12.0947   -4.2480 H   0  0  0  0  0  0  0  0  0  0  0  0
    2.6453   12.6392   -4.2480 H   0  0  0  0  0  0  0  0  0  0  0  0
    3.6364   12.7848   -1.4366 H   0  0  0  0  0  0  0  0  0  0  0  0
    3.4053   13.8931   -2.9039 H   0  0  0  0  0  0  0  0  0  0  0  0
    2.6511   14.4577   -0.0235 H   0  0  0  0  0  0  0  0  0  0  0  0
    3.9048   15.2690   -1.0422 H   0  0  0  0  0  0  0  0  0  0  0  0
    3.0854   17.0406   -2.8661 H   0  0  0  0  0  0  0  0  0  0  0  0
    2.7724   15.4011   -3.5299 H   0  0  0  0  0  0  0  0  0  0  0  0
    1.4664   16.6345   -3.5299 H   0  0  0  0  0  0  0  0  0  0  0  0
  1  2  1  0
  2  3  1  0
  3  4  1  0
  4  5  1  0
  5  6  1  0
  6  7  1  0
  7  8  1  0
  7  9  1  0
  2 10  1  0
 10 11  1  0
 11 12  1  0
 12 13  1  0
 13 14  1  1
 13 15  1  0
 15 16  1  0
 16 17  1  0
 17 18  2  0
 18 19  1  0
 19 20  1  0
 20 21  1  0
 21 22  1  0
 22 23  1  0
 22 24  1  0
 24 25  1  0
 24 26  1  0
 19 27  1  0
 27 28  1  6
 27 29  1  0
 29 30  1  0
 30 31  1  0
 31 32  1  6
  7  5  1  0
 31 10  1  0
 31 13  1  0
 27 15  1  0
 24 18  1  0
  1 33  1  0
  1 34  1  0
  1 35  1  0
  2 36  1  1
  3 37  1  0
  3 38  1  0
  4 39  1  0
  4 40  1  0
  5 41  1  6
  8 42  1  0
  8 43  1  0
  8 44  1  0
  9 45  1  0
  9 46  1  0
  9 47  1  0
 10 48  1  1
 11 49  1  0
 11 50  1  0
 12 51  1  0
 12 52  1  0
 14 53  1  0
 14 54  1  0
 14 55  1  0
 15 56  1  6
 16 57  1  0
 16 58  1  0
 17 59  1  0
 19 60  1  1
 20 61  1  0
 20 62  1  0
 21 63  1  0
 21 64  1  0
 22 65  1  1
 23 66  1  0
 25 67  1  0
 25 68  1  0
 25 69  1  0
 26 70  1  0
 26 71  1  0
 26 72  1  0
 28 73  1  0
 28 74  1  0
 28 75  1  0
 29 76  1  0
 29 77  1  0
 30 78  1  0
 30 79  1  0
 32 80  1  0
 32 81  1  0
 32 82  1  0
M  END
>  <meeko>  (5) 
{"is_sidechain": [false], "intermolecular_energy": 2.731, "internal_energy": -0.839}

$$$$
EPH_relaxed_0001_pdb2pqr_Repair_198_r2_0001_out
     RDKit          3D

 82 86  0  0  0  0  0  0  0  0999 V2000
    3.8350   17.9100    0.0740 C   0  0  0  0  0  0  0  0  0  0  0  0
    2.7150   18.3140   -0.8890 C   0  0  2  0  0  0  0  0  0  0  0  0
    2.0150   19.6160   -0.4530 C   0  0  0  0  0  0  0  0  0  0  0  0
    0.9950   19.4200    0.6710 C   0  0  0  0  0  0  0  0  0  0  0  0
   -0.3110   20.0840    0.3560 C   0  0  2  0  0  0  0  0  0  0  0  0
   -1.2240   20.1630    1.4590 O   0  0  0  0  0  0  0  0  0  0  0  0
   -1.6410   19.3530    0.3480 C   0  0  0  0  0  0  0  0  0  0  0  0
   -1.7290   17.8920    0.6590 C   0  0  0  0  0  0  0  0  0  0  0  0
   -2.7750   19.9390   -0.4340 C   0  0  0  0  0  0  0  0  0  0  0  0
    1.6950   17.1870   -1.0010 C   0  0  1  0  0  0  0  0  0  0  0  0
    0.4510   17.5880   -1.8390 C   0  0  0  0  0  0  0  0  0  0  0  0
   -0.0010   16.3180   -2.6040 C   0  0  0  0  0  0  0  0  0  0  0  0
    0.7800   15.1610   -1.9370 C   0  0  1  0  0  0  0  0  0  0  0  0
   -0.0290   14.8240   -0.6450 C   0  0  0  0  0  0  0  0  0  0  0  0
    1.0190   13.8910   -2.8170 C   0  0  2  0  0  0  0  0  0  0  0  0
   -0.2570   13.1570   -3.2630 C   0  0  0  0  0  0  0  0  0  0  0  0
   -0.7310   12.0840   -2.3400 C   0  0  0  0  0  0  0  0  0  0  0  0
   -0.0090   11.5290   -1.3490 C   0  0  0  0  0  0  0  0  0  0  0  0
    1.4620   11.9090   -1.1380 C   0  0  1  0  0  0  0  0  0  0  0  0
    2.3050   10.6230   -0.9370 C   0  0  0  0  0  0  0  0  0  0  0  0
    1.7650    9.7390    0.1840 C   0  0  0  0  0  0  0  0  0  0  0  0
    0.3190    9.3340   -0.0900 C   0  0  2  0  0  0  0  0  0  0  0  0
    0.2890    8.4780   -1.2370 O   0  0  0  0  0  0  0  0  0  0  0  0
   -0.6240   10.5490   -0.3200 C   0  0  0  0  0  0  0  0  0  0  0  0
   -0.8280   11.3080    1.0140 C   0  0  0  0  0  0  0  0  0  0  0  0
   -2.0190   10.0000   -0.7240 C   0  0  0  0  0  0  0  0  0  0  0  0
    2.0880   12.8850   -2.2250 C   0  0  1  0  0  0  0  0  0  0  0  0
    2.6360   12.0590   -3.4290 C   0  0  0  0  0  0  0  0  0  0  0  0
    3.3260   13.6280   -1.5970 C   0  0  0  0  0  0  0  0  0  0  0  0
    3.0390   14.9400   -0.8420 C   0  0  0  0  0  0  0  0  0  0  0  0
    2.1580   15.8730   -1.6790 C   0  0  2  0  0  0  0  0  0  0  0  0
    2.9550   16.2480   -2.9750 C   0  0  0  0  0  0  0  0  0  0  0  0
    3.4897   18.0346    1.1109 H   0  0  0  0  0  0  0  0  0  0  0  0
    4.1052   16.8578   -0.0986 H   0  0  0  0  0  0  0  0  0  0  0  0
    4.7147   18.5475   -0.0986 H   0  0  0  0  0  0  0  0  0  0  0  0
    3.1743   18.4996   -1.8711 H   0  0  0  0  0  0  0  0  0  0  0  0
    2.7825   20.3234   -0.1059 H   0  0  0  0  0  0  0  0  0  0  0  0
    1.4621   19.9916   -1.3266 H   0  0  0  0  0  0  0  0  0  0  0  0
    0.8224   18.3428    0.8120 H   0  0  0  0  0  0  0  0  0  0  0  0
    1.4004   19.8772    1.5857 H   0  0  0  0  0  0  0  0  0  0  0  0
    0.1740   20.7415   -0.3805 H   0  0  0  0  0  0  0  0  0  0  0  0
   -1.7376   17.7492    1.7497 H   0  0  0  0  0  0  0  0  0  0  0  0
   -2.6536   17.4804    0.2280 H   0  0  0  0  0  0  0  0  0  0  0  0
   -0.8605   17.3724    0.2280 H   0  0  0  0  0  0  0  0  0  0  0  0
   -3.5341   20.3312    0.2588 H   0  0  0  0  0  0  0  0  0  0  0  0
   -2.3998   20.7561   -1.0677 H   0  0  0  0  0  0  0  0  0  0  0  0
   -3.2244   19.1603   -1.0677 H   0  0  0  0  0  0  0  0  0  0  0  0
    1.4980   17.0102    0.0667 H   0  0  0  0  0  0  0  0  0  0  0  0
   -0.3547   17.9384   -1.1771 H   0  0  0  0  0  0  0  0  0  0  0  0
    0.6907   18.4046   -2.5359 H   0  0  0  0  0  0  0  0  0  0  0  0
   -1.0853   16.1663   -2.4980 H   0  0  0  0  0  0  0  0  0  0  0  0
    0.1991   16.3882   -3.6834 H   0  0  0  0  0  0  0  0  0  0  0  0
    0.5733   15.0749    0.2406 H   0  0  0  0  0  0  0  0  0  0  0  0
   -0.9605   15.4089   -0.6326 H   0  0  0  0  0  0  0  0  0  0  0  0
   -0.2698   13.7507   -0.6326 H   0  0  0  0  0  0  0  0  0  0  0  0
    1.4539   14.3166   -3.7333 H   0  0  0  0  0  0  0  0  0  0  0  0
   -1.0610   13.9014   -3.3601 H   0  0  0  0  0  0  0  0  0  0  0  0
   -0.0046   12.6552   -4.2088 H   0  0  0  0  0  0  0  0  0  0  0  0
   -1.7577   11.7155   -2.4818 H   0  0  0  0  0  0  0  0  0  0  0  0
    1.4904   12.5205   -0.2241 H   0  0  0  0  0  0  0  0  0  0  0  0
    2.2989   10.0472   -1.8742 H   0  0  0  0  0  0  0  0  0  0  0  0
    3.3234   10.9313   -0.6582 H   0  0  0  0  0  0  0  0  0  0  0  0
    2.3847    8.8332    0.2586 H   0  0  0  0  0  0  0  0  0  0  0  0
    1.7986   10.3062    1.1259 H   0  0  0  0  0  0  0  0  0  0  0  0
   -0.0528    8.8126    0.8044 H   0  0  0  0  0  0  0  0  0  0  0  0
    0.6840    7.6280   -0.9790 H   0  0  0  0  0  0  0  0  0  0  0  0
   -0.6444   10.6248    1.8564 H   0  0  0  0  0  0  0  0  0  0  0  0
   -0.1249   12.1523    1.0667 H   0  0  0  0  0  0  0  0  0  0  0  0
   -1.8596   11.6861    1.0667 H   0  0  0  0  0  0  0  0  0  0  0  0
   -2.5995    9.7715    0.1820 H   0  0  0  0  0  0  0  0  0  0  0  0
   -2.5518   10.7555   -1.3201 H   0  0  0  0  0  0  0  0  0  0  0  0
   -1.8940    9.0840   -1.3201 H   0  0  0  0  0  0  0  0  0  0  0  0
    3.2075   11.1976   -3.0529 H   0  0  0  0  0  0  0  0  0  0  0  0
    1.7951   11.7019   -4.0417 H   0  0  0  0  0  0  0  0  0  0  0  0
    3.2919   12.6949   -4.0417 H   0  0  0  0  0  0  0  0  0  0  0  0
    3.8063   12.9355   -0.8901 H   0  0  0  0  0  0  0  0  0  0  0  0
    3.9515   13.9197   -2.4535 H   0  0  0  0  0  0  0  0  0  0  0  0
    2.5223   14.7070    0.1007 H   0  0  0  0  0  0  0  0  0  0  0  0
    3.9951   15.4460   -0.6423 H   0  0  0  0  0  0  0  0  0  0  0  0
    3.9176   16.7009   -2.6953 H   0  0  0  0  0  0  0  0  0  0  0  0
    3.1358   15.3405   -3.5697 H   0  0  0  0  0  0  0  0  0  0  0  0
    2.3711   16.9658   -3.5697 H   0  0  0  0  0  0  0  0  0  0  0  0
  1  2  1  0
  2  3  1  0
  3  4  1  0
  4  5  1  0
  5  6  1  0
  6  7  1  0
  7  8  1  0
  7  9  1  0
  2 10  1  0
 10 11  1  0
 11 12  1  0
 12 13  1  0
 13 14  1  1
 13 15  1  0
 15 16  1  0
 16 17  1  0
 17 18  2  0
 18 19  1  0
 19 20  1  0
 20 21  1  0
 21 22  1  0
 22 23  1  0
 22 24  1  0
 24 25  1  0
 24 26  1  0
 19 27  1  0
 27 28  1  6
 27 29  1  0
 29 30  1  0
 30 31  1  0
 31 32  1  6
  7  5  1  0
 31 10  1  0
 31 13  1  0
 27 15  1  0
 24 18  1  0
  1 33  1  0
  1 34  1  0
  1 35  1  0
  2 36  1  6
  3 37  1  0
  3 38  1  0
  4 39  1  0
  4 40  1  0
  5 41  1  6
  8 42  1  0
  8 43  1  0
  8 44  1  0
  9 45  1  0
  9 46  1  0
  9 47  1  0
 10 48  1  1
 11 49  1  0
 11 50  1  0
 12 51  1  0
 12 52  1  0
 14 53  1  0
 14 54  1  0
 14 55  1  0
 15 56  1  6
 16 57  1  0
 16 58  1  0
 17 59  1  0
 19 60  1  1
 20 61  1  0
 20 62  1  0
 21 63  1  0
 21 64  1  0
 22 65  1  1
 23 66  1  0
 25 67  1  0
 25 68  1  0
 25 69  1  0
 26 70  1  0
 26 71  1  0
 26 72  1  0
 28 73  1  0
 28 74  1  0
 28 75  1  0
 29 76  1  0
 29 77  1  0
 30 78  1  0
 30 79  1  0
 32 80  1  0
 32 81  1  0
 32 82  1  0
M  END
>  <meeko>  (6) 
{"is_sidechain": [false], "intermolecular_energy": 2.731, "internal_energy": -0.839}

$$$$
EPH_relaxed_0001_pdb2pqr_Repair_198_r2_0001_out
     RDKit          3D

 82 86  0  0  0  0  0  0  0  0999 V2000
   -0.8640   16.3650   -5.8310 C   0  0  0  0  0  0  0  0  0  0  0  0
    0.2180   15.6580   -6.6500 C   0  0  2  0  0  0  0  0  0  0  0  0
   -0.1950   15.4760   -8.1250 C   0  0  0  0  0  0  0  0  0  0  0  0
    0.4410   16.4970   -9.0720 C   0  0  0  0  0  0  0  0  0  0  0  0
    1.8440   16.1160   -9.4370 C   0  0  2  0  0  0  0  0  0  0  0  0
    2.3160   16.6780  -10.6690 O   0  0  0  0  0  0  0  0  0  0  0  0
    2.1910   15.2470  -10.6320 C   0  0  0  0  0  0  0  0  0  0  0  0
    1.1290   14.7060  -11.5380 C   0  0  0  0  0  0  0  0  0  0  0  0
    3.5030   14.5270  -10.6360 C   0  0  0  0  0  0  0  0  0  0  0  0
    0.5380   14.3030   -6.0290 C   0  0  1  0  0  0  0  0  0  0  0  0
    1.7830   13.6310   -6.6680 C   0  0  0  0  0  0  0  0  0  0  0  0
    2.5080   12.8630   -5.5340 C   0  0  0  0  0  0  0  0  0  0  0  0
    1.4930   12.8400   -4.3670 C   0  0  1  0  0  0  0  0  0  0  0  0
    0.5180   11.6700   -4.7070 C   0  0  0  0  0  0  0  0  0  0  0  0
    2.0940   12.6920   -2.9310 C   0  0  2  0  0  0  0  0  0  0  0  0
    2.8570   11.3800   -2.6750 C   0  0  0  0  0  0  0  0  0  0  0  0
    2.0320   10.2560   -2.1410 C   0  0  0  0  0  0  0  0  0  0  0  0
    0.8000   10.3730   -1.6110 C   0  0  0  0  0  0  0  0  0  0  0  0
    0.1540   11.7510   -1.4170 C   0  0  1  0  0  0  0  0  0  0  0  0
   -0.4610   11.8400    0.0040 C   0  0  0  0  0  0  0  0  0  0  0  0
   -1.4270   10.6960    0.2960 C   0  0  0  0  0  0  0  0  0  0  0  0
   -0.7320    9.3440    0.1500 C   0  0  2  0  0  0  0  0  0  0  0  0
    0.2540    9.2200    1.1790 O   0  0  0  0  0  0  0  0  0  0  0  0
   -0.0660    9.1450   -1.2400 C   0  0  0  0  0  0  0  0  0  0  0  0
   -1.1610    8.9780   -2.3230 C   0  0  0  0  0  0  0  0  0  0  0  0
    0.7180    7.8050   -1.2060 C   0  0  0  0  0  0  0  0  0  0  0  0
    1.0710   13.0020   -1.7650 C   0  0  1  0  0  0  0  0  0  0  0  0
    1.9210   13.4010   -0.5200 C   0  0  0  0  0  0  0  0  0  0  0  0
    0.1510   14.2390   -2.0890 C   0  0  0  0  0  0  0  0  0  0  0  0
   -0.3120   14.3960   -3.5500 C   0  0  0  0  0  0  0  0  0  0  0  0
    0.8710   14.2760   -4.5160 C   0  0  2  0  0  0  0  0  0  0  0  0
    1.8590   15.4530   -4.2120 C   0  0  0  0  0  0  0  0  0  0  0  0
   -0.6586   16.2308   -4.7587 H   0  0  0  0  0  0  0  0  0  0  0  0
   -0.8643   17.4381   -6.0728 H   0  0  0  0  0  0  0  0  0  0  0  0
   -1.8469   15.9344   -6.0728 H   0  0  0  0  0  0  0  0  0  0  0  0
    1.1139   16.2960   -6.6340 H   0  0  0  0  0  0  0  0  0  0  0  0
    0.1054   14.4683   -8.4481 H   0  0  0  0  0  0  0  0  0  0  0  0
   -1.2837   15.6253   -8.1751 H   0  0  0  0  0  0  0  0  0  0  0  0
   -0.1625   16.5562   -9.9898 H   0  0  0  0  0  0  0  0  0  0  0  0
    0.4725   17.4687   -8.5575 H   0  0  0  0  0  0  0  0  0  0  0  0
    2.1300   16.0604   -8.3763 H   0  0  0  0  0  0  0  0  0  0  0  0
    0.3097   14.2886  -10.9343 H   0  0  0  0  0  0  0  0  0  0  0  0
    0.7408   15.5162  -12.1727 H   0  0  0  0  0  0  0  0  0  0  0  0
    1.5562   13.9157  -12.1727 H   0  0  0  0  0  0  0  0  0  0  0  0
    3.8269   14.3493   -9.5999 H   0  0  0  0  0  0  0  0  0  0  0  0
    3.3911   13.5639  -11.1555 H   0  0  0  0  0  0  0  0  0  0  0  0
    4.2553   15.1386  -11.1555 H   0  0  0  0  0  0  0  0  0  0  0  0
   -0.4146   13.7854   -6.2149 H   0  0  0  0  0  0  0  0  0  0  0  0
    1.4724   12.9332   -7.4596 H   0  0  0  0  0  0  0  0  0  0  0  0
    2.4462   14.3809   -7.1239 H   0  0  0  0  0  0  0  0  0  0  0  0
    2.7549   11.8400   -5.8541 H   0  0  0  0  0  0  0  0  0  0  0  0
    3.4588   13.3379   -5.2504 H   0  0  0  0  0  0  0  0  0  0  0  0
    0.1443   11.2215   -3.7747 H   0  0  0  0  0  0  0  0  0  0  0  0
   -0.3287   12.0569   -5.2930 H   0  0  0  0  0  0  0  0  0  0  0  0
    1.0512   10.9069   -5.2930 H   0  0  0  0  0  0  0  0  0  0  0  0
    2.8527   13.4882   -2.9099 H   0  0  0  0  0  0  0  0  0  0  0  0
    3.3006   11.0535   -3.6272 H   0  0  0  0  0  0  0  0  0  0  0  0
    3.6010   11.6075   -1.8973 H   0  0  0  0  0  0  0  0  0  0  0  0
    2.4677    9.2469   -2.1843 H   0  0  0  0  0  0  0  0  0  0  0  0
   -0.6421   11.8223   -2.1727 H   0  0  0  0  0  0  0  0  0  0  0  0
    0.3532   11.8113    0.7431 H   0  0  0  0  0  0  0  0  0  0  0  0
   -1.0290   12.7801    0.0637 H   0  0  0  0  0  0  0  0  0  0  0  0
   -1.8048   10.7974    1.3241 H   0  0  0  0  0  0  0  0  0  0  0  0
   -2.2563   10.7441   -0.4250 H   0  0  0  0  0  0  0  0  0  0  0  0
   -1.5025    8.5644    0.2424 H   0  0  0  0  0  0  0  0  0  0  0  0
    1.0840    9.5940    0.8370 H   0  0  0  0  0  0  0  0  0  0  0  0
   -2.1369    8.8292   -1.8378 H   0  0  0  0  0  0  0  0  0  0  0  0
   -1.1972    9.8810   -2.9501 H   0  0  0  0  0  0  0  0  0  0  0  0
   -0.9264    8.1052   -2.9501 H   0  0  0  0  0  0  0  0  0  0  0  0
    0.8917    7.5082   -0.1611 H   0  0  0  0  0  0  0  0  0  0  0  0
    0.1336    7.0252   -1.7164 H   0  0  0  0  0  0  0  0  0  0  0  0
    1.6841    7.9324   -1.7164 H   0  0  0  0  0  0  0  0  0  0  0  0
    1.3713   13.1430    0.3972 H   0  0  0  0  0  0  0  0  0  0  0  0
    2.8773   12.8577   -0.5395 H   0  0  0  0  0  0  0  0  0  0  0  0
    2.1140   14.4838   -0.5395 H   0  0  0  0  0  0  0  0  0  0  0  0
   -0.7488   14.1580   -1.4615 H   0  0  0  0  0  0  0  0  0  0  0  0
    0.7748   15.1224   -1.8880 H   0  0  0  0  0  0  0  0  0  0  0  0
   -1.0464   13.6104   -3.7811 H   0  0  0  0  0  0  0  0  0  0  0  0
   -0.7631   15.3921   -3.6699 H   0  0  0  0  0  0  0  0  0  0  0  0
    1.9609   15.5743   -3.1235 H   0  0  0  0  0  0  0  0  0  0  0  0
    2.8429   15.2281   -4.6495 H   0  0  0  0  0  0  0  0  0  0  0  0
    1.4671   16.3830   -4.6495 H   0  0  0  0  0  0  0  0  0  0  0  0
  1  2  1  0
  2  3  1  0
  3  4  1  0
  4  5  1  0
  5  6  1  0
  6  7  1  0
  7  8  1  0
  7  9  1  0
  2 10  1  0
 10 11  1  0
 11 12  1  0
 12 13  1  0
 13 14  1  6
 13 15  1  0
 15 16  1  0
 16 17  1  0
 17 18  2  0
 18 19  1  0
 19 20  1  0
 20 21  1  0
 21 22  1  0
 22 23  1  0
 22 24  1  0
 24 25  1  0
 24 26  1  0
 19 27  1  0
 27 28  1  1
 27 29  1  0
 29 30  1  0
 30 31  1  0
 31 32  1  6
  7  5  1  0
 31 10  1  0
 31 13  1  0
 27 15  1  0
 24 18  1  0
  1 33  1  0
  1 34  1  0
  1 35  1  0
  2 36  1  6
  3 37  1  0
  3 38  1  0
  4 39  1  0
  4 40  1  0
  5 41  1  1
  8 42  1  0
  8 43  1  0
  8 44  1  0
  9 45  1  0
  9 46  1  0
  9 47  1  0
 10 48  1  1
 11 49  1  0
 11 50  1  0
 12 51  1  0
 12 52  1  0
 14 53  1  0
 14 54  1  0
 14 55  1  0
 15 56  1  6
 16 57  1  0
 16 58  1  0
 17 59  1  0
 19 60  1  6
 20 61  1  0
 20 62  1  0
 21 63  1  0
 21 64  1  0
 22 65  1  1
 23 66  1  0
 25 67  1  0
 25 68  1  0
 25 69  1  0
 26 70  1  0
 26 71  1  0
 26 72  1  0
 28 73  1  0
 28 74  1  0
 28 75  1  0
 29 76  1  0
 29 77  1  0
 30 78  1  0
 30 79  1  0
 32 80  1  0
 32 81  1  0
 32 82  1  0
M  END
>  <meeko>  (7) 
{"is_sidechain": [false], "intermolecular_energy": 2.731, "internal_energy": -0.839}

$$$$
EPH_relaxed_0001_pdb2pqr_Repair_198_r2_0001_out
     RDKit          3D

 82 86  0  0  0  0  0  0  0  0999 V2000
   -0.2900   15.1200   -7.5830 C   0  0  0  0  0  0  0  0  0  0  0  0
    1.0950   15.0720   -6.9320 C   0  0  2  0  0  0  0  0  0  0  0  0
    2.2290   15.1480   -7.9740 C   0  0  0  0  0  0  0  0  0  0  0  0
    2.2620   16.4650   -8.7530 C   0  0  0  0  0  0  0  0  0  0  0  0
    1.8560   16.2740  -10.1830 C   0  0  2  0  0  0  0  0  0  0  0  0
    1.1960   15.0310  -10.4560 O   0  0  0  0  0  0  0  0  0  0  0  0
    2.4680   15.2260  -11.0940 C   0  0  0  0  0  0  0  0  0  0  0  0
    3.5400   14.3010  -10.6090 C   0  0  0  0  0  0  0  0  0  0  0  0
    2.3770   15.4240  -12.5750 C   0  0  0  0  0  0  0  0  0  0  0  0
    1.2350   13.8020   -6.1010 C   0  0  1  0  0  0  0  0  0  0  0  0
    2.6650   13.2030   -6.1620 C   0  0  0  0  0  0  0  0  0  0  0  0
    2.9540   12.5900   -4.7680 C   0  0  0  0  0  0  0  0  0  0  0  0
    1.5770   12.5590   -4.0630 C   0  0  1  0  0  0  0  0  0  0  0  0
    0.8710   11.2830   -4.6170 C   0  0  0  0  0  0  0  0  0  0  0  0
    1.6010   12.5730   -2.4990 C   0  0  2  0  0  0  0  0  0  0  0  0
    2.2860   11.3600   -1.8470 C   0  0  0  0  0  0  0  0  0  0  0  0
    1.3870   10.2070   -1.5430 C   0  0  0  0  0  0  0  0  0  0  0  0
    0.0420   10.2490   -1.5200 C   0  0  0  0  0  0  0  0  0  0  0  0
   -0.7080   11.5720   -1.7210 C   0  0  1  0  0  0  0  0  0  0  0  0
   -1.8170   11.7090   -0.6450 C   0  0  0  0  0  0  0  0  0  0  0  0
   -2.7540   10.5050   -0.6140 C   0  0  0  0  0  0  0  0  0  0  0  0
   -1.9780    9.2160   -0.3540 C   0  0  2  0  0  0  0  0  0  0  0  0
   -1.4460    9.2590    0.9740 O   0  0  0  0  0  0  0  0  0  0  0  0
   -0.8280    8.9770   -1.3710 C   0  0  0  0  0  0  0  0  0  0  0  0
   -1.4240    8.6310   -2.7580 C   0  0  0  0  0  0  0  0  0  0  0  0
   -0.0380    7.7210   -0.9120 C   0  0  0  0  0  0  0  0  0  0  0  0
    0.1980   12.8730   -1.8320 C   0  0  1  0  0  0  0  0  0  0  0  0
    0.4940   13.4390   -0.4090 C   0  0  0  0  0  0  0  0  0  0  0  0
   -0.6010   13.9930   -2.5980 C   0  0  0  0  0  0  0  0  0  0  0  0
   -0.4890   13.9990   -4.1340 C   0  0  0  0  0  0  0  0  0  0  0  0
    0.9750   13.9170   -4.5780 C   0  0  2  0  0  0  0  0  0  0  0  0
    1.7060   15.2000   -4.0530 C   0  0  0  0  0  0  0  0  0  0  0  0
   -1.0624   15.1468   -6.8002 H   0  0  0  0  0  0  0  0  0  0  0  0
   -0.3702   16.0215   -8.2082 H   0  0  0  0  0  0  0  0  0  0  0  0
   -0.4324   14.2263   -8.2082 H   0  0  0  0  0  0  0  0  0  0  0  0
    1.1855   15.9539   -6.2808 H   0  0  0  0  0  0  0  0  0  0  0  0
    3.1895   15.0297   -7.4511 H   0  0  0  0  0  0  0  0  0  0  0  0
    2.0476   14.3466   -8.7053 H   0  0  0  0  0  0  0  0  0  0  0  0
    1.5710   17.1772   -8.2784 H   0  0  0  0  0  0  0  0  0  0  0  0
    3.2936   16.8465   -8.7377 H   0  0  0  0  0  0  0  0  0  0  0  0
    1.6944   17.3550  -10.3065 H   0  0  0  0  0  0  0  0  0  0  0  0
    3.5482   14.2939   -9.5091 H   0  0  0  0  0  0  0  0  0  0  0  0
    3.3431   13.2846  -10.9807 H   0  0  0  0  0  0  0  0  0  0  0  0
    4.5166   14.6446  -10.9807 H   0  0  0  0  0  0  0  0  0  0  0  0
    1.9262   16.4048  -12.7868 H   0  0  0  0  0  0  0  0  0  0  0  0
    3.3850   15.3814  -13.0132 H   0  0  0  0  0  0  0  0  0  0  0  0
    1.7529   14.6313  -13.0132 H   0  0  0  0  0  0  0  0  0  0  0  0
    0.4538   13.1867   -6.5713 H   0  0  0  0  0  0  0  0  0  0  0  0
    2.7162   12.4235   -6.9364 H   0  0  0  0  0  0  0  0  0  0  0  0
    3.4060   13.9757   -6.4145 H   0  0  0  0  0  0  0  0  0  0  0  0
    3.3623   11.5735   -4.8677 H   0  0  0  0  0  0  0  0  0  0  0  0
    3.6991   13.1697   -4.2034 H   0  0  0  0  0  0  0  0  0  0  0  0
    0.5268   10.6608   -3.7777 H   0  0  0  0  0  0  0  0  0  0  0  0
    0.0083   11.5790   -5.2320 H   0  0  0  0  0  0  0  0  0  0  0  0
    1.5801   10.7094   -5.2320 H   0  0  0  0  0  0  0  0  0  0  0  0
    2.2485   13.4349   -2.2802 H   0  0  0  0  0  0  0  0  0  0  0  0
    3.0730   11.0066   -2.5294 H   0  0  0  0  0  0  0  0  0  0  0  0
    2.6687   11.7114   -0.8774 H   0  0  0  0  0  0  0  0  0  0  0  0
    1.8645    9.2417   -1.3189 H   0  0  0  0  0  0  0  0  0  0  0  0
   -1.1636   11.5131   -2.7205 H   0  0  0  0  0  0  0  0  0  0  0  0
   -1.3407   11.8107    0.3413 H   0  0  0  0  0  0  0  0  0  0  0  0
   -2.4192   12.5944   -0.8969 H   0  0  0  0  0  0  0  0  0  0  0  0
   -3.4955   10.6464    0.1861 H   0  0  0  0  0  0  0  0  0  0  0  0
   -3.2530   10.4233   -1.5909 H   0  0  0  0  0  0  0  0  0  0  0  0
   -2.6803    8.3779   -0.4738 H   0  0  0  0  0  0  0  0  0  0  0  0
   -1.3560   10.1940    1.2240 H   0  0  0  0  0  0  0  0  0  0  0  0
   -2.3683    8.0828   -2.6249 H   0  0  0  0  0  0  0  0  0  0  0  0
   -1.6144    9.5590   -3.3171 H   0  0  0  0  0  0  0  0  0  0  0  0
   -0.7126    8.0055   -3.3171 H   0  0  0  0  0  0  0  0  0  0  0  0
   -0.0147    7.6839    0.1871 H   0  0  0  0  0  0  0  0  0  0  0  0
   -0.5302    6.8166   -1.2990 H   0  0  0  0  0  0  0  0  0  0  0  0
    0.9904    7.7730   -1.2990 H   0  0  0  0  0  0  0  0  0  0  0  0
    0.1251   12.7336    0.3502 H   0  0  0  0  0  0  0  0  0  0  0  0
    1.5787   13.5750   -0.2868 H   0  0  0  0  0  0  0  0  0  0  0  0
   -0.0131   14.4075   -0.2868 H   0  0  0  0  0  0  0  0  0  0  0  0
   -1.6646   13.8769   -2.3424 H   0  0  0  0  0  0  0  0  0  0  0  0
   -0.1495   14.9419   -2.2729 H   0  0  0  0  0  0  0  0  0  0  0  0
   -1.0364   13.1346   -4.5380 H   0  0  0  0  0  0  0  0  0  0  0  0
   -0.9181   14.9383   -4.5130 H   0  0  0  0  0  0  0  0  0  0  0  0
    1.7050   15.1983   -2.9530 H   0  0  0  0  0  0  0  0  0  0  0  0
    2.7434   15.2065   -4.4188 H   0  0  0  0  0  0  0  0  0  0  0  0
    1.1827   16.0957   -4.4188 H   0  0  0  0  0  0  0  0  0  0  0  0
  1  2  1  0
  2  3  1  0
  3  4  1  0
  4  5  1  0
  5  6  1  0
  6  7  1  0
  7  8  1  0
  7  9  1  0
  2 10  1  0
 10 11  1  0
 11 12  1  0
 12 13  1  0
 13 14  1  1
 13 15  1  0
 15 16  1  0
 16 17  1  0
 17 18  2  0
 18 19  1  0
 19 20  1  0
 20 21  1  0
 21 22  1  0
 22 23  1  0
 22 24  1  0
 24 25  1  0
 24 26  1  0
 19 27  1  0
 27 28  1  1
 27 29  1  0
 29 30  1  0
 30 31  1  0
 31 32  1  1
  7  5  1  0
 31 10  1  0
 31 13  1  0
 27 15  1  0
 24 18  1  0
  1 33  1  0
  1 34  1  0
  1 35  1  0
  2 36  1  1
  3 37  1  0
  3 38  1  0
  4 39  1  0
  4 40  1  0
  5 41  1  6
  8 42  1  0
  8 43  1  0
  8 44  1  0
  9 45  1  0
  9 46  1  0
  9 47  1  0
 10 48  1  6
 11 49  1  0
 11 50  1  0
 12 51  1  0
 12 52  1  0
 14 53  1  0
 14 54  1  0
 14 55  1  0
 15 56  1  6
 16 57  1  0
 16 58  1  0
 17 59  1  0
 19 60  1  6
 20 61  1  0
 20 62  1  0
 21 63  1  0
 21 64  1  0
 22 65  1  1
 23 66  1  0
 25 67  1  0
 25 68  1  0
 25 69  1  0
 26 70  1  0
 26 71  1  0
 26 72  1  0
 28 73  1  0
 28 74  1  0
 28 75  1  0
 29 76  1  0
 29 77  1  0
 30 78  1  0
 30 79  1  0
 32 80  1  0
 32 81  1  0
 32 82  1  0
M  END
>  <meeko>  (8) 
{"is_sidechain": [false], "intermolecular_energy": 2.731, "internal_energy": -0.839}

$$$$
EPH_relaxed_0001_pdb2pqr_Repair_198_r2_0001_out
     RDKit          3D

 82 86  0  0  0  0  0  0  0  0999 V2000
   -2.2530    7.8410   -2.1530 C   0  0  0  0  0  0  0  0  0  0  0  0
   -2.1860    8.4410   -0.7460 C   0  0  2  0  0  0  0  0  0  0  0  0
   -3.5550    8.4150   -0.0370 C   0  0  0  0  0  0  0  0  0  0  0  0
   -4.7450    8.5040   -0.9950 C   0  0  0  0  0  0  0  0  0  0  0  0
   -5.6200    7.2910   -0.9070 C   0  0  2  0  0  0  0  0  0  0  0  0
   -5.7300    6.5420   -2.1250 O   0  0  0  0  0  0  0  0  0  0  0  0
   -6.9390    7.1540   -1.6450 C   0  0  0  0  0  0  0  0  0  0  0  0
   -7.4580    8.2480   -2.5240 C   0  0  0  0  0  0  0  0  0  0  0  0
   -7.9480    6.1740   -1.1320 C   0  0  0  0  0  0  0  0  0  0  0  0
   -1.6620    9.8710   -0.8160 C   0  0  1  0  0  0  0  0  0  0  0  0
   -1.2200   10.4140    0.5690 C   0  0  0  0  0  0  0  0  0  0  0  0
   -0.0010   11.3390    0.3190 C   0  0  0  0  0  0  0  0  0  0  0  0
    0.0110   11.5620   -1.2120 C   0  0  1  0  0  0  0  0  0  0  0  0
   -1.0490   12.6800   -1.4630 C   0  0  0  0  0  0  0  0  0  0  0  0
    1.3940   11.9240   -1.8460 C   0  0  2  0  0  0  0  0  0  0  0  0
    2.0090   13.2470   -1.3580 C   0  0  0  0  0  0  0  0  0  0  0  0
    1.6430   14.4540   -2.1560 C   0  0  0  0  0  0  0  0  0  0  0  0
    1.0870   14.4410   -3.3820 C   0  0  0  0  0  0  0  0  0  0  0  0
    0.8610   13.1220   -4.1310 C   0  0  1  0  0  0  0  0  0  0  0  0
    1.3500   13.2680   -5.5960 C   0  0  0  0  0  0  0  0  0  0  0  0
    0.7170   14.4590   -6.3080 C   0  0  0  0  0  0  0  0  0  0  0  0
    1.0130   15.7590   -5.5650 C   0  0  2  0  0  0  0  0  0  0  0  0
    2.4160   16.0270   -5.6460 O   0  0  0  0  0  0  0  0  0  0  0  0
    0.5720   15.7270   -4.0750 C   0  0  0  0  0  0  0  0  0  0  0  0
   -0.9740   15.7400   -3.9890 C   0  0  0  0  0  0  0  0  0  0  0  0
    1.0550   17.0420   -3.4060 C   0  0  0  0  0  0  0  0  0  0  0  0
    1.4300   11.8170   -3.4240 C   0  0  1  0  0  0  0  0  0  0  0  0
    2.9230   11.6050   -3.8220 C   0  0  0  0  0  0  0  0  0  0  0  0
    0.6460   10.5600   -3.9580 C   0  0  0  0  0  0  0  0  0  0  0  0
   -0.6490   10.1820   -3.2140 C   0  0  0  0  0  0  0  0  0  0  0  0
   -0.4180   10.1310   -1.7010 C   0  0  2  0  0  0  0  0  0  0  0  0
    0.6280    8.9990   -1.4160 C   0  0  0  0  0  0  0  0  0  0  0  0
   -2.3748    6.7501   -2.0810 H   0  0  0  0  0  0  0  0  0  0  0  0
   -3.1088    8.2706   -2.6944 H   0  0  0  0  0  0  0  0  0  0  0  0
   -1.3236    8.0712   -2.6944 H   0  0  0  0  0  0  0  0  0  0  0  0
   -1.4969    7.8207   -0.1540 H   0  0  0  0  0  0  0  0  0  0  0  0
   -3.6349    7.4757    0.5299 H   0  0  0  0  0  0  0  0  0  0  0  0
   -3.5978    9.3017    0.6125 H   0  0  0  0  0  0  0  0  0  0  0  0
   -5.3413    9.3927   -0.7409 H   0  0  0  0  0  0  0  0  0  0  0  0
   -4.3545    8.5710   -2.0212 H   0  0  0  0  0  0  0  0  0  0  0  0
   -5.3463    7.1419    0.1479 H   0  0  0  0  0  0  0  0  0  0  0  0
   -7.8463    9.0665   -1.9001 H   0  0  0  0  0  0  0  0  0  0  0  0
   -6.6432    8.6258   -3.1590 H   0  0  0  0  0  0  0  0  0  0  0  0
   -8.2661    7.8559   -3.1590 H   0  0  0  0  0  0  0  0  0  0  0  0
   -7.9402    6.1816   -0.0321 H   0  0  0  0  0  0  0  0  0  0  0  0
   -8.9483    6.4545   -1.4935 H   0  0  0  0  0  0  0  0  0  0  0  0
   -7.6968    5.1659   -1.4935 H   0  0  0  0  0  0  0  0  0  0  0  0
   -2.5423   10.3679   -1.2499 H   0  0  0  0  0  0  0  0  0  0  0  0
   -2.0394   10.9839    1.0314 H   0  0  0  0  0  0  0  0  0  0  0  0
   -0.9580    9.5911    1.2504 H   0  0  0  0  0  0  0  0  0  0  0  0
   -0.1232   12.2947    0.8498 H   0  0  0  0  0  0  0  0  0  0  0  0
    0.9387   10.8991    0.6842 H   0  0  0  0  0  0  0  0  0  0  0  0
   -1.4127   13.0636   -0.4984 H   0  0  0  0  0  0  0  0  0  0  0  0
   -0.5889   13.5001   -2.0338 H   0  0  0  0  0  0  0  0  0  0  0  0
   -1.8924   12.2642   -2.0338 H   0  0  0  0  0  0  0  0  0  0  0  0
    2.0480   11.1298   -1.4568 H   0  0  0  0  0  0  0  0  0  0  0  0
    1.6801   13.4125   -0.3215 H   0  0  0  0  0  0  0  0  0  0  0  0
    3.0980   13.1325   -1.4623 H   0  0  0  0  0  0  0  0  0  0  0  0
    1.8445   15.4366   -1.7045 H   0  0  0  0  0  0  0  0  0  0  0  0
   -0.2247   12.9458   -4.1162 H   0  0  0  0  0  0  0  0  0  0  0  0
    2.4421   13.3995   -5.5917 H   0  0  0  0  0  0  0  0  0  0  0  0
    1.0538   12.3584   -6.1390 H   0  0  0  0  0  0  0  0  0  0  0  0
    1.1238   14.5266   -7.3278 H   0  0  0  0  0  0  0  0  0  0  0  0
   -0.3727   14.3118   -6.3376 H   0  0  0  0  0  0  0  0  0  0  0  0
    0.4280   16.5556   -6.0479 H   0  0  0  0  0  0  0  0  0  0  0  0
    2.5360   16.7920   -6.2350 H   0  0  0  0  0  0  0  0  0  0  0  0
   -1.2825   15.7426   -2.9331 H   0  0  0  0  0  0  0  0  0  0  0  0
   -1.3613   16.6414   -4.4864 H   0  0  0  0  0  0  0  0  0  0  0  0
   -1.3764   14.8452   -4.4864 H   0  0  0  0  0  0  0  0  0  0  0  0
    1.0150   16.9331   -2.3121 H   0  0  0  0  0  0  0  0  0  0  0  0
    2.0892   17.2527   -3.7159 H   0  0  0  0  0  0  0  0  0  0  0  0
    0.4030   17.8720   -3.7159 H   0  0  0  0  0  0  0  0  0  0  0  0
    3.5360   11.5180   -2.9128 H   0  0  0  0  0  0  0  0  0  0  0  0
    3.0167   10.6845   -4.4169 H   0  0  0  0  0  0  0  0  0  0  0  0
    3.2693   12.4630   -4.4169 H   0  0  0  0  0  0  0  0  0  0  0  0
    0.3821   10.7537   -5.0082 H   0  0  0  0  0  0  0  0  0  0  0  0
    1.3259    9.7093   -3.8032 H   0  0  0  0  0  0  0  0  0  0  0  0
   -1.4226   10.9322   -3.4346 H   0  0  0  0  0  0  0  0  0  0  0  0
   -0.9700    9.1860   -3.5532 H   0  0  0  0  0  0  0  0  0  0  0  0
    0.7447    8.8727   -0.3295 H   0  0  0  0  0  0  0  0  0  0  0  0
    0.2770    8.0554   -1.8592 H   0  0  0  0  0  0  0  0  0  0  0  0
    1.5963    9.2745   -1.8592 H   0  0  0  0  0  0  0  0  0  0  0  0
  1  2  1  0
  2  3  1  0
  3  4  1  0
  4  5  1  0
  5  6  1  0
  6  7  1  0
  7  8  1  0
  7  9  1  0
  2 10  1  0
 10 11  1  0
 11 12  1  0
 12 13  1  0
 13 14  1  1
 13 15  1  0
 15 16  1  0
 16 17  1  0
 17 18  2  0
 18 19  1  0
 19 20  1  0
 20 21  1  0
 21 22  1  0
 22 23  1  0
 22 24  1  0
 24 25  1  0
 24 26  1  0
 19 27  1  0
 27 28  1  6
 27 29  1  0
 29 30  1  0
 30 31  1  0
 31 32  1  6
  7  5  1  0
 31 10  1  0
 31 13  1  0
 27 15  1  0
 24 18  1  0
  1 33  1  0
  1 34  1  0
  1 35  1  0
  2 36  1  1
  3 37  1  0
  3 38  1  0
  4 39  1  0
  4 40  1  0
  5 41  1  1
  8 42  1  0
  8 43  1  0
  8 44  1  0
  9 45  1  0
  9 46  1  0
  9 47  1  0
 10 48  1  6
 11 49  1  0
 11 50  1  0
 12 51  1  0
 12 52  1  0
 14 53  1  0
 14 54  1  0
 14 55  1  0
 15 56  1  1
 16 57  1  0
 16 58  1  0
 17 59  1  0
 19 60  1  6
 20 61  1  0
 20 62  1  0
 21 63  1  0
 21 64  1  0
 22 65  1  6
 23 66  1  0
 25 67  1  0
 25 68  1  0
 25 69  1  0
 26 70  1  0
 26 71  1  0
 26 72  1  0
 28 73  1  0
 28 74  1  0
 28 75  1  0
 29 76  1  0
 29 77  1  0
 30 78  1  0
 30 79  1  0
 32 80  1  0
 32 81  1  0
 32 82  1  0
M  END
>  <meeko>  (9) 
{"is_sidechain": [false], "intermolecular_energy": 2.731, "internal_energy": -0.839}

$$$$
EPH_relaxed_0001_pdb2pqr_Repair_198_r2_0001_out
     RDKit          3D

 82 86  0  0  0  0  0  0  0  0999 V2000
   -4.0280    6.9930   -3.0940 C   0  0  0  0  0  0  0  0  0  0  0  0
   -4.0980    7.2680   -1.5900 C   0  0  2  0  0  0  0  0  0  0  0  0
   -5.5450    7.2320   -1.0600 C   0  0  0  0  0  0  0  0  0  0  0  0
   -6.5740    7.7990   -2.0420 C   0  0  0  0  0  0  0  0  0  0  0  0
   -7.9610    7.7610   -1.4750 C   0  0  2  0  0  0  0  0  0  0  0  0
   -8.3920    6.4670   -1.0330 O   0  0  0  0  0  0  0  0  0  0  0  0
   -9.1160    7.0340   -2.1370 C   0  0  0  0  0  0  0  0  0  0  0  0
   -8.9370    6.2950   -3.4260 C   0  0  0  0  0  0  0  0  0  0  0  0
  -10.5130    7.4470   -1.7930 C   0  0  0  0  0  0  0  0  0  0  0  0
   -3.4620    8.6170   -1.2780 C   0  0  1  0  0  0  0  0  0  0  0  0
   -4.0150    9.2510    0.0260 C   0  0  0  0  0  0  0  0  0  0  0  0
   -2.8370   10.0080    0.6910 C   0  0  0  0  0  0  0  0  0  0  0  0
   -1.7440   10.0660   -0.4020 C   0  0  1  0  0  0  0  0  0  0  0  0
   -2.1570   11.2590   -1.3190 C   0  0  0  0  0  0  0  0  0  0  0  0
   -0.2700   10.2080    0.1010 C   0  0  2  0  0  0  0  0  0  0  0  0
    0.0320   11.5000    0.8790 C   0  0  0  0  0  0  0  0  0  0  0  0
    0.5010   12.6490    0.0490 C   0  0  0  0  0  0  0  0  0  0  0  0
    0.9450   12.5680   -1.2190 C   0  0  0  0  0  0  0  0  0  0  0  0
    1.0990   11.2090   -1.9150 C   0  0  1  0  0  0  0  0  0  0  0  0
    2.4740   11.1470   -2.6300 C   0  0  0  0  0  0  0  0  0  0  0  0
    2.6920   12.3180   -3.5830 C   0  0  0  0  0  0  0  0  0  0  0  0
    2.5890   13.6490   -2.8430 C   0  0  2  0  0  0  0  0  0  0  0  0
    3.6840   13.7540   -1.9280 O   0  0  0  0  0  0  0  0  0  0  0  0
    1.2480   13.8220   -2.0760 C   0  0  0  0  0  0  0  0  0  0  0  0
    0.0900   14.0110   -3.0880 C   0  0  0  0  0  0  0  0  0  0  0  0
    1.3310   15.1400   -1.2610 C   0  0  0  0  0  0  0  0  0  0  0  0
    0.8230    9.9320   -1.0100 C   0  0  1  0  0  0  0  0  0  0  0  0
    2.1260    9.5200   -0.2600 C   0  0  0  0  0  0  0  0  0  0  0  0
    0.4410    8.7180   -1.9370 C   0  0  0  0  0  0  0  0  0  0  0  0
   -1.0480    8.5630   -2.3010 C   0  0  0  0  0  0  0  0  0  0  0  0
   -1.9290    8.6460   -1.0510 C   0  0  2  0  0  0  0  0  0  0  0  0
   -1.5520    7.4450   -0.1190 C   0  0  0  0  0  0  0  0  0  0  0  0
   -3.7598    5.9395   -3.2620 H   0  0  0  0  0  0  0  0  0  0  0  0
   -5.0073    7.1994   -3.5505 H   0  0  0  0  0  0  0  0  0  0  0  0
   -3.2665    7.6425   -3.5505 H   0  0  0  0  0  0  0  0  0  0  0  0
   -3.5404    6.4680   -1.0811 H   0  0  0  0  0  0  0  0  0  0  0  0
   -5.8100    6.1864   -0.8444 H   0  0  0  0  0  0  0  0  0  0  0  0
   -5.5744    7.8660   -0.1616 H   0  0  0  0  0  0  0  0  0  0  0  0
   -6.3110    8.8422   -2.2711 H   0  0  0  0  0  0  0  0  0  0  0  0
   -6.5580    7.1797   -2.9510 H   0  0  0  0  0  0  0  0  0  0  0  0
   -7.8576    8.7870   -1.0920 H   0  0  0  0  0  0  0  0  0  0  0  0
   -8.6829    5.2458   -3.2149 H   0  0  0  0  0  0  0  0  0  0  0  0
   -9.8712    6.3366   -4.0053 H   0  0  0  0  0  0  0  0  0  0  0  0
   -8.1254    6.7594   -4.0053 H   0  0  0  0  0  0  0  0  0  0  0  0
  -10.6266    7.4806   -0.6994 H   0  0  0  0  0  0  0  0  0  0  0  0
  -10.7149    8.4433   -2.2134 H   0  0  0  0  0  0  0  0  0  0  0  0
  -11.2241    6.7207   -2.2134 H   0  0  0  0  0  0  0  0  0  0  0  0
   -3.7162    9.1580   -2.2014 H   0  0  0  0  0  0  0  0  0  0  0  0
   -4.8302    9.9511   -0.2095 H   0  0  0  0  0  0  0  0  0  0  0  0
   -4.4188    8.4803    0.6990 H   0  0  0  0  0  0  0  0  0  0  0  0
   -3.1445   11.0218    0.9869 H   0  0  0  0  0  0  0  0  0  0  0  0
   -2.4852    9.5104    1.6068 H   0  0  0  0  0  0  0  0  0  0  0  0
   -2.4534   12.1153   -0.6954 H   0  0  0  0  0  0  0  0  0  0  0  0
   -1.3056   11.5452   -1.9540 H   0  0  0  0  0  0  0  0  0  0  0  0
   -3.0031   10.9576   -1.9540 H   0  0  0  0  0  0  0  0  0  0  0  0
   -0.1912    9.3928    0.8353 H   0  0  0  0  0  0  0  0  0  0  0  0
   -0.8883   11.8080    1.3968 H   0  0  0  0  0  0  0  0  0  0  0  0
    0.8610   11.2583    1.5605 H   0  0  0  0  0  0  0  0  0  0  0  0
    0.4821   13.6461    0.5131 H   0  0  0  0  0  0  0  0  0  0  0  0
    0.2895   11.1533   -2.6577 H   0  0  0  0  0  0  0  0  0  0  0  0
    3.2680   11.1595   -1.8688 H   0  0  0  0  0  0  0  0  0  0  0  0
    2.4986   10.2228   -3.2261 H   0  0  0  0  0  0  0  0  0  0  0  0
    3.6914   12.2335   -4.0347 H   0  0  0  0  0  0  0  0  0  0  0  0
    1.9149   12.2874   -4.3609 H   0  0  0  0  0  0  0  0  0  0  0  0
    2.6238   14.4489   -3.5972 H   0  0  0  0  0  0  0  0  0  0  0  0
    3.5880   14.5950   -1.4500 H   0  0  0  0  0  0  0  0  0  0  0  0
   -0.8525   14.1648   -2.5421 H   0  0  0  0  0  0  0  0  0  0  0  0
    0.2949   14.8876   -3.7201 H   0  0  0  0  0  0  0  0  0  0  0  0
    0.0055   13.1148   -3.7201 H   0  0  0  0  0  0  0  0  0  0  0  0
    1.3164   14.9078   -0.1859 H   0  0  0  0  0  0  0  0  0  0  0  0
    2.2641   15.6668   -1.5097 H   0  0  0  0  0  0  0  0  0  0  0  0
    0.4714   15.7797   -1.5097 H   0  0  0  0  0  0  0  0  0  0  0  0
    1.9567    9.5735    0.8256 H   0  0  0  0  0  0  0  0  0  0  0  0
    2.3996    8.4915   -0.5382 H   0  0  0  0  0  0  0  0  0  0  0  0
    2.9411   10.2042   -0.5382 H   0  0  0  0  0  0  0  0  0  0  0  0
    1.0035    8.8266   -2.8760 H   0  0  0  0  0  0  0  0  0  0  0  0
    0.6891    7.8201   -1.3519 H   0  0  0  0  0  0  0  0  0  0  0  0
   -1.3339    9.3656   -2.9967 H   0  0  0  0  0  0  0  0  0  0  0  0
   -1.1942    7.5781   -2.7686 H   0  0  0  0  0  0  0  0  0  0  0  0
   -1.6486    7.7526    0.9327 H   0  0  0  0  0  0  0  0  0  0  0  0
   -2.2282    6.6005   -0.3176 H   0  0  0  0  0  0  0  0  0  0  0  0
   -0.5144    7.1384   -0.3176 H   0  0  0  0  0  0  0  0  0  0  0  0
  1  2  1  0
  2  3  1  0
  3  4  1  0
  4  5  1  0
  5  6  1  0
  6  7  1  0
  7  8  1  0
  7  9  1  0
  2 10  1  0
 10 11  1  0
 11 12  1  0
 12 13  1  0
 13 14  1  6
 13 15  1  0
 15 16  1  0
 16 17  1  0
 17 18  2  0
 18 19  1  0
 19 20  1  0
 20 21  1  0
 21 22  1  0
 22 23  1  0
 22 24  1  0
 24 25  1  0
 24 26  1  0
 19 27  1  0
 27 28  1  1
 27 29  1  0
 29 30  1  0
 30 31  1  0
 31 32  1  1
  7  5  1  0
 31 10  1  0
 31 13  1  0
 27 15  1  0
 24 18  1  0
  1 33  1  0
  1 34  1  0
  1 35  1  0
  2 36  1  1
  3 37  1  0
  3 38  1  0
  4 39  1  0
  4 40  1  0
  5 41  1  1
  8 42  1  0
  8 43  1  0
  8 44  1  0
  9 45  1  0
  9 46  1  0
  9 47  1  0
 10 48  1  6
 11 49  1  0
 11 50  1  0
 12 51  1  0
 12 52  1  0
 14 53  1  0
 14 54  1  0
 14 55  1  0
 15 56  1  1
 16 57  1  0
 16 58  1  0
 17 59  1  0
 19 60  1  6
 20 61  1  0
 20 62  1  0
 21 63  1  0
 21 64  1  0
 22 65  1  6
 23 66  1  0
 25 67  1  0
 25 68  1  0
 25 69  1  0
 26 70  1  0
 26 71  1  0
 26 72  1  0
 28 73  1  0
 28 74  1  0
 28 75  1  0
 29 76  1  0
 29 77  1  0
 30 78  1  0
 30 79  1  0
 32 80  1  0
 32 81  1  0
 32 82  1  0
M  END
>  <meeko>  (10) 
{"is_sidechain": [false], "intermolecular_energy": 2.731, "internal_energy": -0.839}

$$$$
EPH_relaxed_0001_pdb2pqr_Repair_198_r2_0001_out
     RDKit          3D

 82 86  0  0  0  0  0  0  0  0999 V2000
    0.9250   14.8930   -2.6360 C   0  0  0  0  0  0  0  0  0  0  0  0
    1.1840   14.2160   -3.9850 C   0  0  2  0  0  0  0  0  0  0  0  0
    0.4770   14.9440   -5.1450 C   0  0  0  0  0  0  0  0  0  0  0  0
    1.0530   14.6110   -6.5240 C   0  0  0  0  0  0  0  0  0  0  0  0
    0.8280   15.7230   -7.5020 C   0  0  2  0  0  0  0  0  0  0  0  0
    0.3700   15.3010   -8.7940 O   0  0  0  0  0  0  0  0  0  0  0  0
    1.6660   15.9210   -8.7520 C   0  0  0  0  0  0  0  0  0  0  0  0
    2.7940   14.9960   -9.0890 C   0  0  0  0  0  0  0  0  0  0  0  0
    1.7050   17.2790   -9.3800 C   0  0  0  0  0  0  0  0  0  0  0  0
    0.7330   12.7610   -3.9310 C   0  0  1  0  0  0  0  0  0  0  0  0
    1.8660   11.7700   -4.3080 C   0  0  0  0  0  0  0  0  0  0  0  0
    1.6640   10.5050   -3.4340 C   0  0  0  0  0  0  0  0  0  0  0  0
    0.2490   10.6690   -2.8330 C   0  0  1  0  0  0  0  0  0  0  0  0
   -0.7240   10.1990   -3.9600 C   0  0  0  0  0  0  0  0  0  0  0  0
   -0.0220    9.9190   -1.4880 C   0  0  2  0  0  0  0  0  0  0  0  0
    0.0830    8.3860   -1.5630 C   0  0  0  0  0  0  0  0  0  0  0  0
   -1.1880    7.6750   -1.8900 C   0  0  0  0  0  0  0  0  0  0  0  0
   -2.4210    8.2120   -1.8340 C   0  0  0  0  0  0  0  0  0  0  0  0
   -2.6360    9.6400   -1.3150 C   0  0  1  0  0  0  0  0  0  0  0  0
   -3.8190    9.6540   -0.3120 C   0  0  0  0  0  0  0  0  0  0  0  0
   -5.0910    9.0500   -0.8990 C   0  0  0  0  0  0  0  0  0  0  0  0
   -4.8530    7.6110   -1.3500 C   0  0  2  0  0  0  0  0  0  0  0  0
   -4.5980    6.8020   -0.1970 O   0  0  0  0  0  0  0  0  0  0  0  0
   -3.6760    7.4710   -2.3560 C   0  0  0  0  0  0  0  0  0  0  0  0
   -4.0780    8.0930   -3.7160 C   0  0  0  0  0  0  0  0  0  0  0  0
   -3.4520    5.9570   -2.6200 C   0  0  0  0  0  0  0  0  0  0  0  0
   -1.3450   10.3720   -0.7470 C   0  0  1  0  0  0  0  0  0  0  0  0
   -1.1540   10.0210    0.7600 C   0  0  0  0  0  0  0  0  0  0  0  0
   -1.5650   11.9300   -0.8150 C   0  0  0  0  0  0  0  0  0  0  0  0
   -1.1670   12.6310   -2.1280 C   0  0  0  0  0  0  0  0  0  0  0  0
    0.2420   12.2180   -2.5650 C   0  0  2  0  0  0  0  0  0  0  0  0
    1.2440   12.6980   -1.4610 C   0  0  0  0  0  0  0  0  0  0  0  0
    1.1894   14.2018   -1.8221 H   0  0  0  0  0  0  0  0  0  0  0  0
    1.5386   15.8026   -2.5584 H   0  0  0  0  0  0  0  0  0  0  0  0
   -0.1391   15.1608   -2.5584 H   0  0  0  0  0  0  0  0  0  0  0  0
    2.2661   14.2630   -4.1767 H   0  0  0  0  0  0  0  0  0  0  0  0
   -0.5861   14.6616   -5.1355 H   0  0  0  0  0  0  0  0  0  0  0  0
    0.6268   16.0221   -4.9863 H   0  0  0  0  0  0  0  0  0  0  0  0
    2.1346   14.4362   -6.4257 H   0  0  0  0  0  0  0  0  0  0  0  0
    0.5411   13.7136   -6.9017 H   0  0  0  0  0  0  0  0  0  0  0  0
    0.5384   16.4083   -6.6917 H   0  0  0  0  0  0  0  0  0  0  0  0
    3.2508   14.6214   -8.1611 H   0  0  0  0  0  0  0  0  0  0  0  0
    2.4105   14.1490   -9.6768 H   0  0  0  0  0  0  0  0  0  0  0  0
    3.5495   15.5380   -9.6768 H   0  0  0  0  0  0  0  0  0  0  0  0
    1.7270   18.0467   -8.5925 H   0  0  0  0  0  0  0  0  0  0  0  0
    2.6061   17.3684  -10.0045 H   0  0  0  0  0  0  0  0  0  0  0  0
    0.8105   17.4200  -10.0045 H   0  0  0  0  0  0  0  0  0  0  0  0
   -0.1045   12.8017   -4.6431 H   0  0  0  0  0  0  0  0  0  0  0  0
    1.8006   11.5079   -5.3743 H   0  0  0  0  0  0  0  0  0  0  0  0
    2.8557   12.2169   -4.1328 H   0  0  0  0  0  0  0  0  0  0  0  0
    1.7218    9.5947   -4.0489 H   0  0  0  0  0  0  0  0  0  0  0  0
    2.4379   10.4054   -2.6586 H   0  0  0  0  0  0  0  0  0  0  0  0
   -1.6266    9.7630   -3.5069 H   0  0  0  0  0  0  0  0  0  0  0  0
   -1.0061   11.0602   -4.5835 H   0  0  0  0  0  0  0  0  0  0  0  0
   -0.2248    9.4427   -4.5835 H   0  0  0  0  0  0  0  0  0  0  0  0
    0.8216   10.2463   -0.8625 H   0  0  0  0  0  0  0  0  0  0  0  0
    0.8226    8.1335   -2.3371 H   0  0  0  0  0  0  0  0  0  0  0  0
    0.3684    8.0509   -0.5549 H   0  0  0  0  0  0  0  0  0  0  0  0
   -1.1105    6.6234   -2.2032 H   0  0  0  0  0  0  0  0  0  0  0  0
   -2.8870   10.2495   -2.1956 H   0  0  0  0  0  0  0  0  0  0  0  0
   -3.5327    9.0758    0.5789 H   0  0  0  0  0  0  0  0  0  0  0  0
   -4.0324   10.7038   -0.0621 H   0  0  0  0  0  0  0  0  0  0  0  0
   -5.8814    9.0616   -0.1341 H   0  0  0  0  0  0  0  0  0  0  0  0
   -5.3928    9.6467   -1.7724 H   0  0  0  0  0  0  0  0  0  0  0  0
   -5.7587    7.2771   -1.8774 H   0  0  0  0  0  0  0  0  0  0  0  0
   -5.1050    5.9790   -0.2970 H   0  0  0  0  0  0  0  0  0  0  0  0
   -4.6676    9.0052   -3.5420 H   0  0  0  0  0  0  0  0  0  0  0  0
   -3.1717    8.3453   -4.2860 H   0  0  0  0  0  0  0  0  0  0  0  0
   -4.6803    7.3703   -4.2860 H   0  0  0  0  0  0  0  0  0  0  0  0
   -3.3733    5.4252   -1.6603 H   0  0  0  0  0  0  0  0  0  0  0  0
   -4.3005    5.5553   -3.1933 H   0  0  0  0  0  0  0  0  0  0  0  0
   -2.5235    5.8182   -3.1933 H   0  0  0  0  0  0  0  0  0  0  0  0
   -1.5882   10.8190    1.3802 H   0  0  0  0  0  0  0  0  0  0  0  0
   -1.6584    9.0689    0.9815 H   0  0  0  0  0  0  0  0  0  0  0  0
   -0.0806    9.9275    0.9815 H   0  0  0  0  0  0  0  0  0  0  0  0
   -2.6347   12.1228   -0.6458 H   0  0  0  0  0  0  0  0  0  0  0  0
   -0.8945   12.3491   -0.0502 H   0  0  0  0  0  0  0  0  0  0  0  0
   -1.8836   12.3540   -2.9153 H   0  0  0  0  0  0  0  0  0  0  0  0
   -1.1781   13.7184   -1.9623 H   0  0  0  0  0  0  0  0  0  0  0  0
    0.8193   12.4946   -0.4669 H   0  0  0  0  0  0  0  0  0  0  0  0
    2.1962   12.1583   -1.5704 H   0  0  0  0  0  0  0  0  0  0  0  0
    1.4202   13.7783   -1.5704 H   0  0  0  0  0  0  0  0  0  0  0  0
  1  2  1  0
  2  3  1  0
  3  4  1  0
  4  5  1  0
  5  6  1  0
  6  7  1  0
  7  8  1  0
  7  9  1  0
  2 10  1  0
 10 11  1  0
 11 12  1  0
 12 13  1  0
 13 14  1  6
 13 15  1  0
 15 16  1  0
 16 17  1  0
 17 18  2  0
 18 19  1  0
 19 20  1  0
 20 21  1  0
 21 22  1  0
 22 23  1  0
 22 24  1  0
 24 25  1  0
 24 26  1  0
 19 27  1  0
 27 28  1  1
 27 29  1  0
 29 30  1  0
 30 31  1  0
 31 32  1  1
  7  5  1  0
 31 10  1  0
 31 13  1  0
 27 15  1  0
 24 18  1  0
  1 33  1  0
  1 34  1  0
  1 35  1  0
  2 36  1  6
  3 37  1  0
  3 38  1  0
  4 39  1  0
  4 40  1  0
  5 41  1  1
  8 42  1  0
  8 43  1  0
  8 44  1  0
  9 45  1  0
  9 46  1  0
  9 47  1  0
 10 48  1  6
 11 49  1  0
 11 50  1  0
 12 51  1  0
 12 52  1  0
 14 53  1  0
 14 54  1  0
 14 55  1  0
 15 56  1  1
 16 57  1  0
 16 58  1  0
 17 59  1  0
 19 60  1  6
 20 61  1  0
 20 62  1  0
 21 63  1  0
 21 64  1  0
 22 65  1  6
 23 66  1  0
 25 67  1  0
 25 68  1  0
 25 69  1  0
 26 70  1  0
 26 71  1  0
 26 72  1  0
 28 73  1  0
 28 74  1  0
 28 75  1  0
 29 76  1  0
 29 77  1  0
 30 78  1  0
 30 79  1  0
 32 80  1  0
 32 81  1  0
 32 82  1  0
M  END
>  <meeko>  (11) 
{"is_sidechain": [false], "intermolecular_energy": 2.731, "internal_energy": -0.839}

$$$$
EPH_relaxed_0001_pdb2pqr_Repair_198_r2_0001_out
     RDKit          3D

 82 86  0  0  0  0  0  0  0  0999 V2000
    0.3040    8.6600   -2.3550 C   0  0  0  0  0  0  0  0  0  0  0  0
    1.0390    9.7930   -3.0770 C   0  0  2  0  0  0  0  0  0  0  0  0
    2.5450    9.8120   -2.7470 C   0  0  0  0  0  0  0  0  0  0  0  0
    3.4080   10.4320   -3.8490 C   0  0  0  0  0  0  0  0  0  0  0  0
    4.7970   10.7250   -3.3670 C   0  0  2  0  0  0  0  0  0  0  0  0
    5.3510   11.9550   -3.8490 O   0  0  0  0  0  0  0  0  0  0  0  0
    6.0100   10.7530   -4.2770 C   0  0  0  0  0  0  0  0  0  0  0  0
    5.8910   10.4830   -5.7450 C   0  0  0  0  0  0  0  0  0  0  0  0
    7.3650   10.5590   -3.6700 C   0  0  0  0  0  0  0  0  0  0  0  0
    0.4100   11.1340   -2.7160 C   0  0  1  0  0  0  0  0  0  0  0  0
   -0.9040   10.9780   -1.9050 C   0  0  0  0  0  0  0  0  0  0  0  0
   -0.9540   12.1600   -0.9030 C   0  0  0  0  0  0  0  0  0  0  0  0
    0.1480   13.1300   -1.3890 C   0  0  1  0  0  0  0  0  0  0  0  0
   -0.5090   13.9290   -2.5580 C   0  0  0  0  0  0  0  0  0  0  0  0
    0.7550   14.0830   -0.3090 C   0  0  2  0  0  0  0  0  0  0  0  0
   -0.2410   15.0720    0.3240 C   0  0  0  0  0  0  0  0  0  0  0  0
   -0.3570   16.3890   -0.3680 C   0  0  0  0  0  0  0  0  0  0  0  0
    0.5080   16.8740   -1.2780 C   0  0  0  0  0  0  0  0  0  0  0  0
    1.7950   16.1150   -1.6240 C   0  0  1  0  0  0  0  0  0  0  0  0
    2.9920   17.1020   -1.6320 C   0  0  0  0  0  0  0  0  0  0  0  0
    2.7570   18.2990   -2.5480 C   0  0  0  0  0  0  0  0  0  0  0  0
    1.5010   19.0620   -2.1370 C   0  0  2  0  0  0  0  0  0  0  0  0
    1.7230   19.6590   -0.8560 O   0  0  0  0  0  0  0  0  0  0  0  0
    0.2310   18.1680   -2.0830 C   0  0  0  0  0  0  0  0  0  0  0  0
   -0.1840   17.7660   -3.5210 C   0  0  0  0  0  0  0  0  0  0  0  0
   -0.9340   19.0260   -1.5200 C   0  0  0  0  0  0  0  0  0  0  0  0
    2.0850   14.8120   -0.7610 C   0  0  1  0  0  0  0  0  0  0  0  0
    2.8480   15.1960    0.5440 C   0  0  0  0  0  0  0  0  0  0  0  0
    3.0420   13.8610   -1.5720 C   0  0  0  0  0  0  0  0  0  0  0  0
    2.3750   12.8600   -2.5340 C   0  0  0  0  0  0  0  0  0  0  0  0
    1.2450   12.0980   -1.8360 C   0  0  2  0  0  0  0  0  0  0  0  0
    1.8790   11.2670   -0.6690 C   0  0  0  0  0  0  0  0  0  0  0  0
    0.3941    8.7989   -1.2675 H   0  0  0  0  0  0  0  0  0  0  0  0
   -0.7585    8.6724   -2.6394 H   0  0  0  0  0  0  0  0  0  0  0  0
    0.7484    7.6948   -2.6394 H   0  0  0  0  0  0  0  0  0  0  0  0
    0.9403    9.6147   -4.1580 H   0  0  0  0  0  0  0  0  0  0  0  0
    2.6911   10.3919   -1.8238 H   0  0  0  0  0  0  0  0  0  0  0  0
    2.8640    8.7648   -2.6393 H   0  0  0  0  0  0  0  0  0  0  0  0
    3.4646    9.7306   -4.6944 H   0  0  0  0  0  0  0  0  0  0  0  0
    2.9438   11.3813   -4.1546 H   0  0  0  0  0  0  0  0  0  0  0  0
    4.6003   10.2094   -2.4154 H   0  0  0  0  0  0  0  0  0  0  0  0
    5.4518    9.4865   -5.9001 H   0  0  0  0  0  0  0  0  0  0  0  0
    5.2450   11.2443   -6.2067 H   0  0  0  0  0  0  0  0  0  0  0  0
    6.8888   10.5199   -6.2067 H   0  0  0  0  0  0  0  0  0  0  0  0
    7.2806   10.5711   -2.5733 H   0  0  0  0  0  0  0  0  0  0  0  0
    7.7776    9.5926   -3.9954 H   0  0  0  0  0  0  0  0  0  0  0  0
    8.0322   11.3708   -3.9954 H   0  0  0  0  0  0  0  0  0  0  0  0
    0.2862   11.5567   -3.7240 H   0  0  0  0  0  0  0  0  0  0  0  0
   -1.7722   11.0161   -2.5794 H   0  0  0  0  0  0  0  0  0  0  0  0
   -0.9311   10.0125   -1.3786 H   0  0  0  0  0  0  0  0  0  0  0  0
   -1.9394   12.6482   -0.9272 H   0  0  0  0  0  0  0  0  0  0  0  0
   -0.7945   11.8338    0.1353 H   0  0  0  0  0  0  0  0  0  0  0  0
   -1.1566   14.7166   -2.1453 H   0  0  0  0  0  0  0  0  0  0  0  0
    0.2770   14.3872   -3.1762 H   0  0  0  0  0  0  0  0  0  0  0  0
   -1.1104   13.2463   -3.1762 H   0  0  0  0  0  0  0  0  0  0  0  0
    1.0314   13.3831    0.4934 H   0  0  0  0  0  0  0  0  0  0  0  0
   -1.2346   14.5999    0.3255 H   0  0  0  0  0  0  0  0  0  0  0  0
    0.1442   15.2898    1.3311 H   0  0  0  0  0  0  0  0  0  0  0  0
   -1.2233   17.0170   -0.1126 H   0  0  0  0  0  0  0  0  0  0  0  0
    1.6433   15.7036   -2.6328 H   0  0  0  0  0  0  0  0  0  0  0  0
    3.1538   17.4684   -0.6075 H   0  0  0  0  0  0  0  0  0  0  0  0
    3.8702   16.5588   -2.0111 H   0  0  0  0  0  0  0  0  0  0  0  0
    3.6238   18.9737   -2.4883 H   0  0  0  0  0  0  0  0  0  0  0  0
    2.6246   17.9331   -3.5769 H   0  0  0  0  0  0  0  0  0  0  0  0
    1.3138   19.8268   -2.9051 H   0  0  0  0  0  0  0  0  0  0  0  0
    2.6770   19.8210   -0.7680 H   0  0  0  0  0  0  0  0  0  0  0  0
   -0.9734   17.0013   -3.4746 H   0  0  0  0  0  0  0  0  0  0  0  0
   -0.5615   18.6508   -4.0546 H   0  0  0  0  0  0  0  0  0  0  0  0
    0.6883   17.3606   -4.0546 H   0  0  0  0  0  0  0  0  0  0  0  0
   -0.9063   19.0056   -0.4205 H   0  0  0  0  0  0  0  0  0  0  0  0
   -0.8279   20.0633   -1.8703 H   0  0  0  0  0  0  0  0  0  0  0  0
   -1.8932   18.6170   -1.8703 H   0  0  0  0  0  0  0  0  0  0  0  0
    2.2523   14.8962    1.4188 H   0  0  0  0  0  0  0  0  0  0  0  0
    3.8187   14.6791    0.5668 H   0  0  0  0  0  0  0  0  0  0  0  0
    3.0112   16.2836    0.5668 H   0  0  0  0  0  0  0  0  0  0  0  0
    3.7158   14.4954   -2.1666 H   0  0  0  0  0  0  0  0  0  0  0  0
    3.5422   13.2412   -0.8133 H   0  0  0  0  0  0  0  0  0  0  0  0
    1.9619   13.4079   -3.3937 H   0  0  0  0  0  0  0  0  0  0  0  0
    3.1329   12.1356   -2.8669 H   0  0  0  0  0  0  0  0  0  0  0  0
    1.5588   11.6867    0.2960 H   0  0  0  0  0  0  0  0  0  0  0  0
    1.5476   10.2206   -0.7418 H   0  0  0  0  0  0  0  0  0  0  0  0
    2.9757   11.3102   -0.7418 H   0  0  0  0  0  0  0  0  0  0  0  0
  1  2  1  0
  2  3  1  0
  3  4  1  0
  4  5  1  0
  5  6  1  0
  6  7  1  0
  7  8  1  0
  7  9  1  0
  2 10  1  0
 10 11  1  0
 11 12  1  0
 12 13  1  0
 13 14  1  6
 13 15  1  0
 15 16  1  0
 16 17  1  0
 17 18  2  0
 18 19  1  0
 19 20  1  0
 20 21  1  0
 21 22  1  0
 22 23  1  0
 22 24  1  0
 24 25  1  0
 24 26  1  0
 19 27  1  0
 27 28  1  1
 27 29  1  0
 29 30  1  0
 30 31  1  0
 31 32  1  1
  7  5  1  0
 31 10  1  0
 31 13  1  0
 27 15  1  0
 24 18  1  0
  1 33  1  0
  1 34  1  0
  1 35  1  0
  2 36  1  6
  3 37  1  0
  3 38  1  0
  4 39  1  0
  4 40  1  0
  5 41  1  1
  8 42  1  0
  8 43  1  0
  8 44  1  0
  9 45  1  0
  9 46  1  0
  9 47  1  0
 10 48  1  6
 11 49  1  0
 11 50  1  0
 12 51  1  0
 12 52  1  0
 14 53  1  0
 14 54  1  0
 14 55  1  0
 15 56  1  1
 16 57  1  0
 16 58  1  0
 17 59  1  0
 19 60  1  6
 20 61  1  0
 20 62  1  0
 21 63  1  0
 21 64  1  0
 22 65  1  6
 23 66  1  0
 25 67  1  0
 25 68  1  0
 25 69  1  0
 26 70  1  0
 26 71  1  0
 26 72  1  0
 28 73  1  0
 28 74  1  0
 28 75  1  0
 29 76  1  0
 29 77  1  0
 30 78  1  0
 30 79  1  0
 32 80  1  0
 32 81  1  0
 32 82  1  0
M  END
>  <meeko>  (12) 
{"is_sidechain": [false], "intermolecular_energy": 2.731, "internal_energy": -0.839}

$$$$
EPH_relaxed_0001_pdb2pqr_Repair_198_r2_0001_out
     RDKit          3D

 82 86  0  0  0  0  0  0  0  0999 V2000
   -2.4310    7.7710   -0.0680 C   0  0  0  0  0  0  0  0  0  0  0  0
   -3.0500    9.1710   -0.0580 C   0  0  2  0  0  0  0  0  0  0  0  0
   -4.5430    9.1490   -0.4400 C   0  0  0  0  0  0  0  0  0  0  0  0
   -5.1490    7.7430   -0.4740 C   0  0  0  0  0  0  0  0  0  0  0  0
   -5.8480    7.4720   -1.7720 C   0  0  2  0  0  0  0  0  0  0  0  0
   -6.8020    8.4690   -2.1580 O   0  0  0  0  0  0  0  0  0  0  0  0
   -7.3300    7.1630   -1.8750 C   0  0  0  0  0  0  0  0  0  0  0  0
   -8.2020    7.1080   -0.6610 C   0  0  0  0  0  0  0  0  0  0  0  0
   -7.8260    6.4380   -3.0880 C   0  0  0  0  0  0  0  0  0  0  0  0
   -2.2830   10.0850   -1.0070 C   0  0  1  0  0  0  0  0  0  0  0  0
   -2.9290   11.4910   -1.1350 C   0  0  0  0  0  0  0  0  0  0  0  0
   -1.7670   12.5030   -1.3070 C   0  0  0  0  0  0  0  0  0  0  0  0
   -0.5280   11.6270   -1.6040 C   0  0  1  0  0  0  0  0  0  0  0  0
   -0.6280   11.2930   -3.1250 C   0  0  0  0  0  0  0  0  0  0  0  0
    0.8610   12.2480   -1.2400 C   0  0  2  0  0  0  0  0  0  0  0  0
    1.2230   13.5300   -2.0080 C   0  0  0  0  0  0  0  0  0  0  0  0
    1.9670   13.3200   -3.2850 C   0  0  0  0  0  0  0  0  0  0  0  0
    2.5780   12.1790   -3.6560 C   0  0  0  0  0  0  0  0  0  0  0  0
    2.6410   10.9750   -2.7070 C   0  0  1  0  0  0  0  0  0  0  0  0
    4.0840   10.4070   -2.6860 C   0  0  0  0  0  0  0  0  0  0  0  0
    4.6030   10.0770   -4.0830 C   0  0  0  0  0  0  0  0  0  0  0  0
    4.5800   11.3130   -4.9790 C   0  0  2  0  0  0  0  0  0  0  0  0
    5.5310   12.2600   -4.4830 O   0  0  0  0  0  0  0  0  0  0  0  0
    3.1780   11.9780   -5.0690 C   0  0  0  0  0  0  0  0  0  0  0  0
    2.2210   11.0670   -5.8780 C   0  0  0  0  0  0  0  0  0  0  0  0
    3.3240   13.2900   -5.8870 C   0  0  0  0  0  0  0  0  0  0  0  0
    2.0560   11.2110   -1.2480 C   0  0  1  0  0  0  0  0  0  0  0  0
    3.1630   11.8000   -0.3210 C   0  0  0  0  0  0  0  0  0  0  0  0
    1.6490    9.8230   -0.6270 C   0  0  0  0  0  0  0  0  0  0  0  0
    0.2240    9.3200   -0.9240 C   0  0  0  0  0  0  0  0  0  0  0  0
   -0.8130   10.4130   -0.6470 C   0  0  2  0  0  0  0  0  0  0  0  0
   -0.7500   10.7540    0.8810 C   0  0  0  0  0  0  0  0  0  0  0  0
   -2.2800    7.4295    0.9667 H   0  0  0  0  0  0  0  0  0  0  0  0
   -3.1055    7.0756   -0.5889 H   0  0  0  0  0  0  0  0  0  0  0  0
   -1.4627    7.8019   -0.5889 H   0  0  0  0  0  0  0  0  0  0  0  0
   -2.9783    9.5569    0.9696 H   0  0  0  0  0  0  0  0  0  0  0  0
   -5.0986    9.7490    0.2958 H   0  0  0  0  0  0  0  0  0  0  0  0
   -4.6203    9.5571   -1.4586 H   0  0  0  0  0  0  0  0  0  0  0  0
   -4.3444    7.0047   -0.3414 H   0  0  0  0  0  0  0  0  0  0  0  0
   -5.8893    7.6689    0.3362 H   0  0  0  0  0  0  0  0  0  0  0  0
   -4.9585    6.9631   -2.1718 H   0  0  0  0  0  0  0  0  0  0  0  0
   -7.5757    7.1475    0.2424 H   0  0  0  0  0  0  0  0  0  0  0  0
   -8.8923    7.9644   -0.6663 H   0  0  0  0  0  0  0  0  0  0  0  0
   -8.7793    6.1717   -0.6663 H   0  0  0  0  0  0  0  0  0  0  0  0
   -8.4217    5.5672   -2.7767 H   0  0  0  0  0  0  0  0  0  0  0  0
   -8.4516    7.1143   -3.6891 H   0  0  0  0  0  0  0  0  0  0  0  0
   -6.9690    6.1000   -3.6891 H   0  0  0  0  0  0  0  0  0  0  0  0
   -2.3186    9.4728   -1.9202 H   0  0  0  0  0  0  0  0  0  0  0  0
   -3.5932   11.5244   -2.0112 H   0  0  0  0  0  0  0  0  0  0  0  0
   -3.5332   11.7304   -0.2475 H   0  0  0  0  0  0  0  0  0  0  0  0
   -1.9686   13.1872   -2.1444 H   0  0  0  0  0  0  0  0  0  0  0  0
   -1.6281   13.1341   -0.4168 H   0  0  0  0  0  0  0  0  0  0  0  0
   -0.9414   10.2461   -3.2507 H   0  0  0  0  0  0  0  0  0  0  0  0
   -1.3669   11.9563   -3.5983 H   0  0  0  0  0  0  0  0  0  0  0  0
    0.3539   11.4411   -3.5983 H   0  0  0  0  0  0  0  0  0  0  0  0
    0.7152   12.5580   -0.1947 H   0  0  0  0  0  0  0  0  0  0  0  0
    0.2886   14.0610   -2.2424 H   0  0  0  0  0  0  0  0  0  0  0  0
    1.8994   14.0971   -1.3516 H   0  0  0  0  0  0  0  0  0  0  0  0
    2.0206   14.1694   -3.9819 H   0  0  0  0  0  0  0  0  0  0  0  0
    1.9512   10.2248   -3.1210 H   0  0  0  0  0  0  0  0  0  0  0  0
    4.7504   11.1537   -2.2295 H   0  0  0  0  0  0  0  0  0  0  0  0
    4.0667    9.4721   -2.1066 H   0  0  0  0  0  0  0  0  0  0  0  0
    5.6362    9.7077   -4.0054 H   0  0  0  0  0  0  0  0  0  0  0  0
    3.9527    9.3090   -4.5271 H   0  0  0  0  0  0  0  0  0  0  0  0
    4.8385   10.9872   -5.9973 H   0  0  0  0  0  0  0  0  0  0  0  0
    5.9030   12.7310   -5.2470 H   0  0  0  0  0  0  0  0  0  0  0  0
    1.6023   10.4780   -5.1850 H   0  0  0  0  0  0  0  0  0  0  0  0
    1.5714   11.6886   -6.5117 H   0  0  0  0  0  0  0  0  0  0  0  0
    2.8099   10.3876   -6.5117 H   0  0  0  0  0  0  0  0  0  0  0  0
    3.4189   14.1427   -5.1986 H   0  0  0  0  0  0  0  0  0  0  0  0
    4.2209   13.2290   -6.5209 H   0  0  0  0  0  0  0  0  0  0  0  0
    2.4356   13.4276   -6.5209 H   0  0  0  0  0  0  0  0  0  0  0  0
    2.8790   11.6489    0.7309 H   0  0  0  0  0  0  0  0  0  0  0  0
    4.1173   11.2904   -0.5200 H   0  0  0  0  0  0  0  0  0  0  0  0
    3.2736   12.8762   -0.5200 H   0  0  0  0  0  0  0  0  0  0  0  0
    2.3539    9.0689   -1.0071 H   0  0  0  0  0  0  0  0  0  0  0  0
    1.6792    9.9752    0.4620 H   0  0  0  0  0  0  0  0  0  0  0  0
    0.1603    9.0234   -1.9813 H   0  0  0  0  0  0  0  0  0  0  0  0
    0.0118    8.4617   -0.2695 H   0  0  0  0  0  0  0  0  0  0  0  0
   -0.9190    9.8393    1.4681 H   0  0  0  0  0  0  0  0  0  0  0  0
    0.2398   11.1679    1.1238 H   0  0  0  0  0  0  0  0  0  0  0  0
   -1.5266   11.4942    1.1238 H   0  0  0  0  0  0  0  0  0  0  0  0
  1  2  1  0
  2  3  1  0
  3  4  1  0
  4  5  1  0
  5  6  1  0
  6  7  1  0
  7  8  1  0
  7  9  1  0
  2 10  1  0
 10 11  1  0
 11 12  1  0
 12 13  1  0
 13 14  1  6
 13 15  1  0
 15 16  1  0
 16 17  1  0
 17 18  2  0
 18 19  1  0
 19 20  1  0
 20 21  1  0
 21 22  1  0
 22 23  1  0
 22 24  1  0
 24 25  1  0
 24 26  1  0
 19 27  1  0
 27 28  1  1
 27 29  1  0
 29 30  1  0
 30 31  1  0
 31 32  1  1
  7  5  1  0
 31 10  1  0
 31 13  1  0
 27 15  1  0
 24 18  1  0
  1 33  1  0
  1 34  1  0
  1 35  1  0
  2 36  1  1
  3 37  1  0
  3 38  1  0
  4 39  1  0
  4 40  1  0
  5 41  1  6
  8 42  1  0
  8 43  1  0
  8 44  1  0
  9 45  1  0
  9 46  1  0
  9 47  1  0
 10 48  1  6
 11 49  1  0
 11 50  1  0
 12 51  1  0
 12 52  1  0
 14 53  1  0
 14 54  1  0
 14 55  1  0
 15 56  1  1
 16 57  1  0
 16 58  1  0
 17 59  1  0
 19 60  1  6
 20 61  1  0
 20 62  1  0
 21 63  1  0
 21 64  1  0
 22 65  1  6
 23 66  1  0
 25 67  1  0
 25 68  1  0
 25 69  1  0
 26 70  1  0
 26 71  1  0
 26 72  1  0
 28 73  1  0
 28 74  1  0
 28 75  1  0
 29 76  1  0
 29 77  1  0
 30 78  1  0
 30 79  1  0
 32 80  1  0
 32 81  1  0
 32 82  1  0
M  END
>  <meeko>  (13) 
{"is_sidechain": [false], "intermolecular_energy": 2.731, "internal_energy": -0.839}

$$$$
EPH_relaxed_0001_pdb2pqr_Repair_198_r2_0001_out
     RDKit          3D

 82 86  0  0  0  0  0  0  0  0999 V2000
    2.7500   17.6720   -4.3120 C   0  0  0  0  0  0  0  0  0  0  0  0
    1.8330   17.5590   -3.0910 C   0  0  2  0  0  0  0  0  0  0  0  0
    2.0050   18.7470   -2.1230 C   0  0  0  0  0  0  0  0  0  0  0  0
    0.8470   19.7480   -2.1660 C   0  0  0  0  0  0  0  0  0  0  0  0
   -0.3900   19.1920   -1.5270 C   0  0  2  0  0  0  0  0  0  0  0  0
   -1.3340   20.1790   -1.0920 O   0  0  0  0  0  0  0  0  0  0  0  0
   -0.7310   19.3810   -0.0610 C   0  0  0  0  0  0  0  0  0  0  0  0
    0.1670   20.1490    0.8570 C   0  0  0  0  0  0  0  0  0  0  0  0
   -1.6760   18.4150    0.5830 C   0  0  0  0  0  0  0  0  0  0  0  0
    2.1020   16.2490   -2.3590 C   0  0  1  0  0  0  0  0  0  0  0  0
    2.7650   16.4640   -0.9730 C   0  0  0  0  0  0  0  0  0  0  0  0
    2.2060   15.3630   -0.0340 C   0  0  0  0  0  0  0  0  0  0  0  0
    1.5060   14.3610   -0.9820 C   0  0  1  0  0  0  0  0  0  0  0  0
    2.6580   13.4720   -1.5470 C   0  0  0  0  0  0  0  0  0  0  0  0
    0.3650   13.4970   -0.3530 C   0  0  2  0  0  0  0  0  0  0  0  0
    0.8080   12.5580    0.7830 C   0  0  0  0  0  0  0  0  0  0  0  0
    1.2240   11.1900    0.3530 C   0  0  0  0  0  0  0  0  0  0  0  0
    0.9760   10.6380   -0.8490 C   0  0  0  0  0  0  0  0  0  0  0  0
    0.1220   11.3720   -1.8910 C   0  0  1  0  0  0  0  0  0  0  0  0
   -0.9190   10.3910   -2.4910 C   0  0  0  0  0  0  0  0  0  0  0  0
   -0.2760    9.1250   -3.0500 C   0  0  0  0  0  0  0  0  0  0  0  0
    0.5160    8.3930   -1.9700 C   0  0  2  0  0  0  0  0  0  0  0  0
   -0.3960    7.8980   -0.9850 O   0  0  0  0  0  0  0  0  0  0  0  0
    1.5900    9.2850   -1.2860 C   0  0  0  0  0  0  0  0  0  0  0  0
    2.7390    9.5730   -2.2830 C   0  0  0  0  0  0  0  0  0  0  0  0
    2.2180    8.4710   -0.1230 C   0  0  0  0  0  0  0  0  0  0  0  0
   -0.5330   12.7390   -1.4130 C   0  0  1  0  0  0  0  0  0  0  0  0
   -1.9010   12.4590   -0.7190 C   0  0  0  0  0  0  0  0  0  0  0  0
   -0.8480   13.6270   -2.6740 C   0  0  0  0  0  0  0  0  0  0  0  0
    0.2810   14.5480   -3.1760 C   0  0  0  0  0  0  0  0  0  0  0  0
    0.8790   15.3590   -2.0220 C   0  0  2  0  0  0  0  0  0  0  0  0
   -0.2510   16.2800   -1.4490 C   0  0  0  0  0  0  0  0  0  0  0  0
    3.7904   17.8002   -3.9786 H   0  0  0  0  0  0  0  0  0  0  0  0
    2.6690   16.7571   -4.9173 H   0  0  0  0  0  0  0  0  0  0  0  0
    2.4493   18.5399   -4.9173 H   0  0  0  0  0  0  0  0  0  0  0  0
    0.7949   17.5766   -3.4544 H   0  0  0  0  0  0  0  0  0  0  0  0
    2.0851   18.3523   -1.0994 H   0  0  0  0  0  0  0  0  0  0  0  0
    2.9100   19.2884   -2.4358 H   0  0  0  0  0  0  0  0  0  0  0  0
    1.1452   20.6614   -1.6305 H   0  0  0  0  0  0  0  0  0  0  0  0
    0.6205   19.9655   -3.2202 H   0  0  0  0  0  0  0  0  0  0  0  0
   -0.3459   18.2969   -2.1648 H   0  0  0  0  0  0  0  0  0  0  0  0
   -0.0965   19.9237    1.9009 H   0  0  0  0  0  0  0  0  0  0  0  0
    1.2126   19.8614    0.6725 H   0  0  0  0  0  0  0  0  0  0  0  0
    0.0451   21.2265    0.6725 H   0  0  0  0  0  0  0  0  0  0  0  0
   -1.5955   18.4973    1.6770 H   0  0  0  0  0  0  0  0  0  0  0  0
   -2.7055   18.6470    0.2726 H   0  0  0  0  0  0  0  0  0  0  0  0
   -1.4214   17.3909    0.2726 H   0  0  0  0  0  0  0  0  0  0  0  0
    2.7379   15.7487   -3.1041 H   0  0  0  0  0  0  0  0  0  0  0  0
    3.8578   16.3710   -1.0573 H   0  0  0  0  0  0  0  0  0  0  0  0
    2.5437   17.4675   -0.5807 H   0  0  0  0  0  0  0  0  0  0  0  0
    3.0214   14.8716    0.5170 H   0  0  0  0  0  0  0  0  0  0  0  0
    1.5201   15.7695    0.7239 H   0  0  0  0  0  0  0  0  0  0  0  0
    3.2258   13.0338   -0.7129 H   0  0  0  0  0  0  0  0  0  0  0  0
    2.2313   12.6668   -2.1631 H   0  0  0  0  0  0  0  0  0  0  0  0
    3.3287   14.0889   -2.1631 H   0  0  0  0  0  0  0  0  0  0  0  0
   -0.2733   14.2575    0.1205 H   0  0  0  0  0  0  0  0  0  0  0  0
    1.6596   13.0261    1.2985 H   0  0  0  0  0  0  0  0  0  0  0  0
   -0.0739   12.4203    1.4258 H   0  0  0  0  0  0  0  0  0  0  0  0
    1.7807   10.5814    1.0808 H   0  0  0  0  0  0  0  0  0  0  0  0
    0.8183   11.7036   -2.6753 H   0  0  0  0  0  0  0  0  0  0  0  0
   -1.6307   10.1062   -1.7021 H   0  0  0  0  0  0  0  0  0  0  0  0
   -1.4216   10.9056   -3.3232 H   0  0  0  0  0  0  0  0  0  0  0  0
   -1.0641    8.4594   -3.4319 H   0  0  0  0  0  0  0  0  0  0  0  0
    0.4130    9.4090   -3.8591 H   0  0  0  0  0  0  0  0  0  0  0  0
    1.0575    7.5701   -2.4595 H   0  0  0  0  0  0  0  0  0  0  0  0
   -1.2910    7.9500   -1.3610 H   0  0  0  0  0  0  0  0  0  0  0  0
    3.6589    9.8036   -1.7257 H   0  0  0  0  0  0  0  0  0  0  0  0
    2.9056    8.6888   -2.9158 H   0  0  0  0  0  0  0  0  0  0  0  0
    2.4688   10.4312   -2.9158 H   0  0  0  0  0  0  0  0  0  0  0  0
    1.8917    8.8939    0.8386 H   0  0  0  0  0  0  0  0  0  0  0  0
    1.8925    7.4225   -0.1917 H   0  0  0  0  0  0  0  0  0  0  0  0
    3.3148    8.5197   -0.1917 H   0  0  0  0  0  0  0  0  0  0  0  0
   -1.7705   12.4857    0.3729 H   0  0  0  0  0  0  0  0  0  0  0  0
   -2.6289   13.2268   -1.0202 H   0  0  0  0  0  0  0  0  0  0  0  0
   -2.2687   11.4670   -1.0202 H   0  0  0  0  0  0  0  0  0  0  0  0
   -1.1166   12.9503   -3.4986 H   0  0  0  0  0  0  0  0  0  0  0  0
   -1.6519   14.3061   -2.3537 H   0  0  0  0  0  0  0  0  0  0  0  0
    1.0713   13.9334   -3.6317 H   0  0  0  0  0  0  0  0  0  0  0  0
   -0.1378   15.2459   -3.9160 H   0  0  0  0  0  0  0  0  0  0  0  0
   -0.2214   16.2559   -0.3497 H   0  0  0  0  0  0  0  0  0  0  0  0
   -0.0951   17.3116   -1.7975 H   0  0  0  0  0  0  0  0  0  0  0  0
   -1.2300   15.9192   -1.7975 H   0  0  0  0  0  0  0  0  0  0  0  0
  1  2  1  0
  2  3  1  0
  3  4  1  0
  4  5  1  0
  5  6  1  0
  6  7  1  0
  7  8  1  0
  7  9  1  0
  2 10  1  0
 10 11  1  0
 11 12  1  0
 12 13  1  0
 13 14  1  6
 13 15  1  0
 15 16  1  0
 16 17  1  0
 17 18  2  0
 18 19  1  0
 19 20  1  0
 20 21  1  0
 21 22  1  0
 22 23  1  0
 22 24  1  0
 24 25  1  0
 24 26  1  0
 19 27  1  0
 27 28  1  1
 27 29  1  0
 29 30  1  0
 30 31  1  0
 31 32  1  1
  7  5  1  0
 31 10  1  0
 31 13  1  0
 27 15  1  0
 24 18  1  0
  1 33  1  0
  1 34  1  0
  1 35  1  0
  2 36  1  6
  3 37  1  0
  3 38  1  0
  4 39  1  0
  4 40  1  0
  5 41  1  6
  8 42  1  0
  8 43  1  0
  8 44  1  0
  9 45  1  0
  9 46  1  0
  9 47  1  0
 10 48  1  6
 11 49  1  0
 11 50  1  0
 12 51  1  0
 12 52  1  0
 14 53  1  0
 14 54  1  0
 14 55  1  0
 15 56  1  1
 16 57  1  0
 16 58  1  0
 17 59  1  0
 19 60  1  6
 20 61  1  0
 20 62  1  0
 21 63  1  0
 21 64  1  0
 22 65  1  6
 23 66  1  0
 25 67  1  0
 25 68  1  0
 25 69  1  0
 26 70  1  0
 26 71  1  0
 26 72  1  0
 28 73  1  0
 28 74  1  0
 28 75  1  0
 29 76  1  0
 29 77  1  0
 30 78  1  0
 30 79  1  0
 32 80  1  0
 32 81  1  0
 32 82  1  0
M  END
>  <meeko>  (14) 
{"is_sidechain": [false], "intermolecular_energy": 2.731, "internal_energy": -0.839}

$$$$
EPH_relaxed_0001_pdb2pqr_Repair_198_r2_0001_out
     RDKit          3D

 82 86  0  0  0  0  0  0  0  0999 V2000
    0.0740   17.7780   -2.9760 C   0  0  0  0  0  0  0  0  0  0  0  0
   -0.2900   16.9240   -1.7580 C   0  0  2  0  0  0  0  0  0  0  0  0
   -0.4170   17.7690   -0.4740 C   0  0  0  0  0  0  0  0  0  0  0  0
    0.2620   19.1380   -0.5680 C   0  0  0  0  0  0  0  0  0  0  0  0
    1.4420   19.2350    0.3510 C   0  0  2  0  0  0  0  0  0  0  0  0
    2.4310   20.1940   -0.0440 O   0  0  0  0  0  0  0  0  0  0  0  0
    2.8470   18.8190   -0.0450 C   0  0  0  0  0  0  0  0  0  0  0  0
    3.1450   18.2740   -1.4060 C   0  0  0  0  0  0  0  0  0  0  0  0
    3.8250   18.4850    1.0380 C   0  0  0  0  0  0  0  0  0  0  0  0
    0.7530   15.8300   -1.5610 C   0  0  1  0  0  0  0  0  0  0  0  0
    0.7580   15.2640   -0.1160 C   0  0  0  0  0  0  0  0  0  0  0  0
    1.0920   13.7540   -0.2280 C   0  0  0  0  0  0  0  0  0  0  0  0
    1.5910   13.5720   -1.6810 C   0  0  1  0  0  0  0  0  0  0  0  0
    3.0830   14.0290   -1.6530 C   0  0  0  0  0  0  0  0  0  0  0  0
    1.4370   12.1410   -2.2900 C   0  0  2  0  0  0  0  0  0  0  0  0
    2.2330   11.0370   -1.5720 C   0  0  0  0  0  0  0  0  0  0  0  0
    3.6130   10.8050   -2.0930 C   0  0  0  0  0  0  0  0  0  0  0  0
    4.0900   11.2510   -3.2690 C   0  0  0  0  0  0  0  0  0  0  0  0
    3.1810   11.9900   -4.2590 C   0  0  1  0  0  0  0  0  0  0  0  0
    3.3920   11.4160   -5.6850 C   0  0  0  0  0  0  0  0  0  0  0  0
    4.8560   11.4340   -6.1120 C   0  0  0  0  0  0  0  0  0  0  0  0
    5.7200   10.6400   -5.1350 C   0  0  2  0  0  0  0  0  0  0  0  0
    5.3630    9.2580   -5.2230 O   0  0  0  0  0  0  0  0  0  0  0  0
    5.5820   11.1230   -3.6640 C   0  0  0  0  0  0  0  0  0  0  0  0
    6.2470   12.5130   -3.5080 C   0  0  0  0  0  0  0  0  0  0  0  0
    6.3930   10.1510   -2.7650 C   0  0  0  0  0  0  0  0  0  0  0  0
    1.6450   12.0770   -3.8580 C   0  0  1  0  0  0  0  0  0  0  0  0
    0.8920   10.8070   -4.3560 C   0  0  0  0  0  0  0  0  0  0  0  0
    0.9890   13.3020   -4.5980 C   0  0  0  0  0  0  0  0  0  0  0  0
    1.0700   14.6670   -3.8900 C   0  0  0  0  0  0  0  0  0  0  0  0
    0.6190   14.5550   -2.4300 C   0  0  2  0  0  0  0  0  0  0  0  0
   -0.8860   14.1180   -2.4270 C   0  0  0  0  0  0  0  0  0  0  0  0
    0.4846   18.7412   -2.6389 H   0  0  0  0  0  0  0  0  0  0  0  0
    0.8257   17.2509   -3.5820 H   0  0  0  0  0  0  0  0  0  0  0  0
   -0.8268   17.9552   -3.5820 H   0  0  0  0  0  0  0  0  0  0  0  0
   -1.2728   16.4700   -1.9528 H   0  0  0  0  0  0  0  0  0  0  0  0
   -1.4857   17.9251   -0.2654 H   0  0  0  0  0  0  0  0  0  0  0  0
    0.0906   17.2130    0.3280 H   0  0  0  0  0  0  0  0  0  0  0  0
    0.6013   19.2975   -1.6021 H   0  0  0  0  0  0  0  0  0  0  0  0
   -0.4686   19.9046   -0.2706 H   0  0  0  0  0  0  0  0  0  0  0  0
    0.8157   18.9852    1.2201 H   0  0  0  0  0  0  0  0  0  0  0  0
    3.6707   17.3126   -1.3090 H   0  0  0  0  0  0  0  0  0  0  0  0
    2.2037   18.1234   -1.9549 H   0  0  0  0  0  0  0  0  0  0  0  0
    3.7798   18.9852   -1.9549 H   0  0  0  0  0  0  0  0  0  0  0  0
    3.3545   18.6457    2.0192 H   0  0  0  0  0  0  0  0  0  0  0  0
    4.1293   17.4320    0.9453 H   0  0  0  0  0  0  0  0  0  0  0  0
    4.7098   19.1319    0.9453 H   0  0  0  0  0  0  0  0  0  0  0  0
    1.6591   16.3851   -1.8453 H   0  0  0  0  0  0  0  0  0  0  0  0
    1.5203   15.7767    0.4890 H   0  0  0  0  0  0  0  0  0  0  0  0
   -0.2159   15.4179    0.3718 H   0  0  0  0  0  0  0  0  0  0  0  0
    1.8773   13.4756    0.4901 H   0  0  0  0  0  0  0  0  0  0  0  0
    0.2244   13.1167   -0.0017 H   0  0  0  0  0  0  0  0  0  0  0  0
    3.4157   14.1309   -0.6095 H   0  0  0  0  0  0  0  0  0  0  0  0
    3.7055   13.2803   -2.1649 H   0  0  0  0  0  0  0  0  0  0  0  0
    3.1794   14.9979   -2.1649 H   0  0  0  0  0  0  0  0  0  0  0  0
    0.3770   11.9171   -2.0996 H   0  0  0  0  0  0  0  0  0  0  0  0
    2.3123   11.3111   -0.5097 H   0  0  0  0  0  0  0  0  0  0  0  0
    1.6808   10.1016   -1.7453 H   0  0  0  0  0  0  0  0  0  0  0  0
    4.2976   10.2197   -1.4615 H   0  0  0  0  0  0  0  0  0  0  0  0
    3.4950   13.0439   -4.2308 H   0  0  0  0  0  0  0  0  0  0  0  0
    3.0320   10.3767   -5.7036 H   0  0  0  0  0  0  0  0  0  0  0  0
    2.8317   12.0512   -6.3869 H   0  0  0  0  0  0  0  0  0  0  0  0
    4.9441   10.9889   -7.1140 H   0  0  0  0  0  0  0  0  0  0  0  0
    5.2057   12.4769   -6.1219 H   0  0  0  0  0  0  0  0  0  0  0  0
    6.7708   10.7976   -5.4196 H   0  0  0  0  0  0  0  0  0  0  0  0
    5.4440    8.9910   -6.1550 H   0  0  0  0  0  0  0  0  0  0  0  0
    6.3594   12.7478   -2.4393 H   0  0  0  0  0  0  0  0  0  0  0  0
    7.2372   12.5016   -3.9870 H   0  0  0  0  0  0  0  0  0  0  0  0
    5.6168   13.2768   -3.9870 H   0  0  0  0  0  0  0  0  0  0  0  0
    6.1998   10.3825   -1.7071 H   0  0  0  0  0  0  0  0  0  0  0  0
    6.0873    9.1155   -2.9755 H   0  0  0  0  0  0  0  0  0  0  0  0
    7.4665   10.2663   -2.9755 H   0  0  0  0  0  0  0  0  0  0  0  0
    0.5458   10.2230   -3.4905 H   0  0  0  0  0  0  0  0  0  0  0  0
    0.0268   11.1088   -4.9645 H   0  0  0  0  0  0  0  0  0  0  0  0
    1.5719   10.1926   -4.9645 H   0  0  0  0  0  0  0  0  0  0  0  0
    1.4840   13.4043   -5.5750 H   0  0  0  0  0  0  0  0  0  0  0  0
   -0.0845   13.0669   -4.6467 H   0  0  0  0  0  0  0  0  0  0  0  0
    2.1092   15.0264   -3.9191 H   0  0  0  0  0  0  0  0  0  0  0  0
    0.4043   15.3718   -4.4097 H   0  0  0  0  0  0  0  0  0  0  0  0
   -1.2362   14.0163   -1.3892 H   0  0  0  0  0  0  0  0  0  0  0  0
   -1.4895   14.8780   -2.9448 H   0  0  0  0  0  0  0  0  0  0  0  0
   -0.9886   13.1530   -2.9448 H   0  0  0  0  0  0  0  0  0  0  0  0
  1  2  1  0
  2  3  1  0
  3  4  1  0
  4  5  1  0
  5  6  1  0
  6  7  1  0
  7  8  1  0
  7  9  1  0
  2 10  1  0
 10 11  1  0
 11 12  1  0
 12 13  1  0
 13 14  1  1
 13 15  1  0
 15 16  1  0
 16 17  1  0
 17 18  2  0
 18 19  1  0
 19 20  1  0
 20 21  1  0
 21 22  1  0
 22 23  1  0
 22 24  1  0
 24 25  1  0
 24 26  1  0
 19 27  1  0
 27 28  1  6
 27 29  1  0
 29 30  1  0
 30 31  1  0
 31 32  1  6
  7  5  1  0
 31 10  1  0
 31 13  1  0
 27 15  1  0
 24 18  1  0
  1 33  1  0
  1 34  1  0
  1 35  1  0
  2 36  1  6
  3 37  1  0
  3 38  1  0
  4 39  1  0
  4 40  1  0
  5 41  1  1
  8 42  1  0
  8 43  1  0
  8 44  1  0
  9 45  1  0
  9 46  1  0
  9 47  1  0
 10 48  1  6
 11 49  1  0
 11 50  1  0
 12 51  1  0
 12 52  1  0
 14 53  1  0
 14 54  1  0
 14 55  1  0
 15 56  1  6
 16 57  1  0
 16 58  1  0
 17 59  1  0
 19 60  1  6
 20 61  1  0
 20 62  1  0
 21 63  1  0
 21 64  1  0
 22 65  1  6
 23 66  1  0
 25 67  1  0
 25 68  1  0
 25 69  1  0
 26 70  1  0
 26 71  1  0
 26 72  1  0
 28 73  1  0
 28 74  1  0
 28 75  1  0
 29 76  1  0
 29 77  1  0
 30 78  1  0
 30 79  1  0
 32 80  1  0
 32 81  1  0
 32 82  1  0
M  END
>  <meeko>  (15) 
{"is_sidechain": [false], "intermolecular_energy": 2.731, "internal_energy": -0.839}

$$$$
EPH_relaxed_0001_pdb2pqr_Repair_198_r2_0001_out
     RDKit          3D

 82 86  0  0  0  0  0  0  0  0999 V2000
    0.7690   14.7520   -4.9020 C   0  0  0  0  0  0  0  0  0  0  0  0
    0.6040   14.2010   -3.4830 C   0  0  2  0  0  0  0  0  0  0  0  0
    1.8750   14.3960   -2.6320 C   0  0  0  0  0  0  0  0  0  0  0  0
    1.7170   15.4370   -1.5200 C   0  0  0  0  0  0  0  0  0  0  0  0
    1.2660   16.7610   -2.0600 C   0  0  2  0  0  0  0  0  0  0  0  0
    2.1910   17.3880   -2.9590 O   0  0  0  0  0  0  0  0  0  0  0  0
    1.9430   18.0760   -1.7220 C   0  0  0  0  0  0  0  0  0  0  0  0
    3.1270   18.1330   -0.8090 C   0  0  0  0  0  0  0  0  0  0  0  0
    1.1630   19.3440   -1.8850 C   0  0  0  0  0  0  0  0  0  0  0  0
    0.2370   12.7230   -3.5390 C   0  0  1  0  0  0  0  0  0  0  0  0
    1.4560   11.8160   -3.8580 C   0  0  0  0  0  0  0  0  0  0  0  0
    1.2530   10.4990   -3.0670 C   0  0  0  0  0  0  0  0  0  0  0  0
   -0.2170   10.5530   -2.5890 C   0  0  1  0  0  0  0  0  0  0  0  0
   -1.0560   10.0900   -3.8210 C   0  0  0  0  0  0  0  0  0  0  0  0
   -0.5590    9.7200   -1.3110 C   0  0  2  0  0  0  0  0  0  0  0  0
   -0.3580    8.2010   -1.4490 C   0  0  0  0  0  0  0  0  0  0  0  0
   -1.5510    7.4390   -1.9230 C   0  0  0  0  0  0  0  0  0  0  0  0
   -2.8140    7.9040   -1.9550 C   0  0  0  0  0  0  0  0  0  0  0  0
   -3.1570    9.2890   -1.3910 C   0  0  1  0  0  0  0  0  0  0  0  0
   -4.4230    9.1860   -0.5000 C   0  0  0  0  0  0  0  0  0  0  0  0
   -5.6000    8.5440   -1.2280 C   0  0  0  0  0  0  0  0  0  0  0  0
   -5.2380    7.1460   -1.7220 C   0  0  2  0  0  0  0  0  0  0  0  0
   -5.0390    6.2930   -0.5910 O   0  0  0  0  0  0  0  0  0  0  0  0
   -3.9720    7.1230   -2.6230 C   0  0  0  0  0  0  0  0  0  0  0  0
   -4.2880    7.7930   -3.9830 C   0  0  0  0  0  0  0  0  0  0  0  0
   -3.6360    5.6400   -2.9370 C   0  0  0  0  0  0  0  0  0  0  0  0
   -1.9670   10.0600   -0.6730 C   0  0  1  0  0  0  0  0  0  0  0  0
   -1.8890    9.6410    0.8270 C   0  0  0  0  0  0  0  0  0  0  0  0
   -2.2730   11.6050   -0.6880 C   0  0  0  0  0  0  0  0  0  0  0  0
   -1.8030   12.3940   -1.9250 C   0  0  0  0  0  0  0  0  0  0  0  0
   -0.3390   12.0830   -2.2510 C   0  0  2  0  0  0  0  0  0  0  0  0
    0.5320   12.5580   -1.0380 C   0  0  0  0  0  0  0  0  0  0  0  0
    1.0842   15.8047   -4.8522 H   0  0  0  0  0  0  0  0  0  0  0  0
    1.5310   14.1659   -5.4366 H   0  0  0  0  0  0  0  0  0  0  0  0
   -0.1897   14.6812   -5.4366 H   0  0  0  0  0  0  0  0  0  0  0  0
   -0.2060   14.7677   -3.0006 H   0  0  0  0  0  0  0  0  0  0  0  0
    2.1356   13.4319   -2.1708 H   0  0  0  0  0  0  0  0  0  0  0  0
    2.6612   14.7639   -3.3077 H   0  0  0  0  0  0  0  0  0  0  0  0
    0.9723   15.0749   -0.7959 H   0  0  0  0  0  0  0  0  0  0  0  0
    2.6969   15.5780   -1.0405 H   0  0  0  0  0  0  0  0  0  0  0  0
    0.2136   16.4428   -2.0268 H   0  0  0  0  0  0  0  0  0  0  0  0
    2.7850   18.1165    0.2364 H   0  0  0  0  0  0  0  0  0  0  0  0
    3.7764   17.2651   -0.9961 H   0  0  0  0  0  0  0  0  0  0  0  0
    3.6900   19.0593   -0.9961 H   0  0  0  0  0  0  0  0  0  0  0  0
    0.9129   19.7506   -0.8940 H   0  0  0  0  0  0  0  0  0  0  0  0
    1.7666   20.0770   -2.4404 H   0  0  0  0  0  0  0  0  0  0  0  0
    0.2366   19.1358   -2.4404 H   0  0  0  0  0  0  0  0  0  0  0  0
   -0.5355   12.7554   -4.3214 H   0  0  0  0  0  0  0  0  0  0  0  0
    1.5003   11.6067   -4.9370 H   0  0  0  0  0  0  0  0  0  0  0  0
    2.3984   12.3065   -3.5729 H   0  0  0  0  0  0  0  0  0  0  0  0
    1.4183    9.6267   -3.7164 H   0  0  0  0  0  0  0  0  0  0  0  0
    1.9603   10.4020   -2.2301 H   0  0  0  0  0  0  0  0  0  0  0  0
   -1.9698    9.5857   -3.4737 H   0  0  0  0  0  0  0  0  0  0  0  0
   -1.3287   10.9653   -4.4288 H   0  0  0  0  0  0  0  0  0  0  0  0
   -0.4608    9.3926   -4.4288 H   0  0  0  0  0  0  0  0  0  0  0  0
    0.2060   10.0595   -0.5972 H   0  0  0  0  0  0  0  0  0  0  0  0
    0.4602    8.0303   -2.1642 H   0  0  0  0  0  0  0  0  0  0  0  0
   -0.1434    7.8298   -0.4360 H   0  0  0  0  0  0  0  0  0  0  0  0
   -1.3840    6.4106   -2.2760 H   0  0  0  0  0  0  0  0  0  0  0  0
   -3.3637    9.9289   -2.2615 H   0  0  0  0  0  0  0  0  0  0  0  0
   -4.1826    8.5792    0.3854 H   0  0  0  0  0  0  0  0  0  0  0  0
   -4.7197   10.2081   -0.2219 H   0  0  0  0  0  0  0  0  0  0  0  0
   -6.4541    8.4724   -0.5386 H   0  0  0  0  0  0  0  0  0  0  0  0
   -5.8584    9.1676   -2.0965 H   0  0  0  0  0  0  0  0  0  0  0  0
   -6.0725    6.7909   -2.3445 H   0  0  0  0  0  0  0  0  0  0  0  0
   -4.9030    5.3900   -0.9230 H   0  0  0  0  0  0  0  0  0  0  0  0
   -4.7513    8.7754   -3.8089 H   0  0  0  0  0  0  0  0  0  0  0  0
   -3.3562    7.9229   -4.5530 H   0  0  0  0  0  0  0  0  0  0  0  0
   -4.9809    7.1566   -4.5530 H   0  0  0  0  0  0  0  0  0  0  0  0
   -3.5103    5.0852   -1.9955 H   0  0  0  0  0  0  0  0  0  0  0  0
   -4.4558    5.1936   -3.5190 H   0  0  0  0  0  0  0  0  0  0  0  0
   -2.7039    5.5905   -3.5190 H   0  0  0  0  0  0  0  0  0  0  0  0
   -2.0532   10.5232    1.4632 H   0  0  0  0  0  0  0  0  0  0  0  0
   -2.6623    8.8877    1.0380 H   0  0  0  0  0  0  0  0  0  0  0  0
   -0.8964    9.2165    1.0380 H   0  0  0  0  0  0  0  0  0  0  0  0
   -3.3631   11.7292   -0.6084 H   0  0  0  0  0  0  0  0  0  0  0  0
   -1.6992   12.0204    0.1536 H   0  0  0  0  0  0  0  0  0  0  0  0
   -2.4295   12.1191   -2.7863 H   0  0  0  0  0  0  0  0  0  0  0  0
   -1.8934   13.4690   -1.7101 H   0  0  0  0  0  0  0  0  0  0  0  0
    0.0310   12.2848   -0.0976 H   0  0  0  0  0  0  0  0  0  0  0  0
    1.5182   12.0728   -1.0825 H   0  0  0  0  0  0  0  0  0  0  0  0
    0.6582   13.6498   -1.0825 H   0  0  0  0  0  0  0  0  0  0  0  0
  1  2  1  0
  2  3  1  0
  3  4  1  0
  4  5  1  0
  5  6  1  0
  6  7  1  0
  7  8  1  0
  7  9  1  0
  2 10  1  0
 10 11  1  0
 11 12  1  0
 12 13  1  0
 13 14  1  6
 13 15  1  0
 15 16  1  0
 16 17  1  0
 17 18  2  0
 18 19  1  0
 19 20  1  0
 20 21  1  0
 21 22  1  0
 22 23  1  0
 22 24  1  0
 24 25  1  0
 24 26  1  0
 19 27  1  0
 27 28  1  1
 27 29  1  0
 29 30  1  0
 30 31  1  0
 31 32  1  1
  7  5  1  0
 31 10  1  0
 31 13  1  0
 27 15  1  0
 24 18  1  0
  1 33  1  0
  1 34  1  0
  1 35  1  0
  2 36  1  1
  3 37  1  0
  3 38  1  0
  4 39  1  0
  4 40  1  0
  5 41  1  6
  8 42  1  0
  8 43  1  0
  8 44  1  0
  9 45  1  0
  9 46  1  0
  9 47  1  0
 10 48  1  6
 11 49  1  0
 11 50  1  0
 12 51  1  0
 12 52  1  0
 14 53  1  0
 14 54  1  0
 14 55  1  0
 15 56  1  1
 16 57  1  0
 16 58  1  0
 17 59  1  0
 19 60  1  6
 20 61  1  0
 20 62  1  0
 21 63  1  0
 21 64  1  0
 22 65  1  6
 23 66  1  0
 25 67  1  0
 25 68  1  0
 25 69  1  0
 26 70  1  0
 26 71  1  0
 26 72  1  0
 28 73  1  0
 28 74  1  0
 28 75  1  0
 29 76  1  0
 29 77  1  0
 30 78  1  0
 30 79  1  0
 32 80  1  0
 32 81  1  0
 32 82  1  0
M  END
>  <meeko>  (16) 
{"is_sidechain": [false], "intermolecular_energy": 2.731, "internal_energy": -0.839}

$$$$
EPH_relaxed_0001_pdb2pqr_Repair_198_r2_0001_out
     RDKit          3D

 82 86  0  0  0  0  0  0  0  0999 V2000
    0.2310   15.8860   -8.3030 C   0  0  0  0  0  0  0  0  0  0  0  0
    1.4600   16.0400   -7.4040 C   0  0  2  0  0  0  0  0  0  0  0  0
    2.6400   15.1670   -7.8770 C   0  0  0  0  0  0  0  0  0  0  0  0
    2.3900   14.4690   -9.2170 C   0  0  0  0  0  0  0  0  0  0  0  0
    2.8710   15.2950  -10.3710 C   0  0  2  0  0  0  0  0  0  0  0  0
    1.9840   16.3510  -10.7620 O   0  0  0  0  0  0  0  0  0  0  0  0
    2.1960   15.3090  -11.7290 C   0  0  0  0  0  0  0  0  0  0  0  0
    0.9810   14.4800  -12.0050 C   0  0  0  0  0  0  0  0  0  0  0  0
    2.9920   15.7440  -12.9200 C   0  0  0  0  0  0  0  0  0  0  0  0
    1.0980   15.6910   -5.9650 C   0  0  1  0  0  0  0  0  0  0  0  0
   -0.2530   16.3120   -5.5210 C   0  0  0  0  0  0  0  0  0  0  0  0
   -0.9200   15.2930   -4.5610 C   0  0  0  0  0  0  0  0  0  0  0  0
    0.2020   14.2830   -4.2240 C   0  0  1  0  0  0  0  0  0  0  0  0
    1.0430   14.9760   -3.1070 C   0  0  0  0  0  0  0  0  0  0  0  0
   -0.2620   12.8530   -3.7950 C   0  0  2  0  0  0  0  0  0  0  0  0
   -1.0970   12.7990   -2.5030 C   0  0  0  0  0  0  0  0  0  0  0  0
   -0.3140   12.6170   -1.2450 C   0  0  0  0  0  0  0  0  0  0  0  0
    0.9700   12.2180   -1.1740 C   0  0  0  0  0  0  0  0  0  0  0  0
    1.7390   11.8090   -2.4370 C   0  0  1  0  0  0  0  0  0  0  0  0
    2.4980   10.4820   -2.1740 C   0  0  0  0  0  0  0  0  0  0  0  0
    3.3950   10.5550   -0.9420 C   0  0  0  0  0  0  0  0  0  0  0  0
    2.5850   10.9060    0.3030 C   0  0  2  0  0  0  0  0  0  0  0  0
    1.6990    9.8220    0.5970 O   0  0  0  0  0  0  0  0  0  0  0  0
    1.7700   12.2210    0.1520 C   0  0  0  0  0  0  0  0  0  0  0  0
    2.7340   13.4330    0.1350 C   0  0  0  0  0  0  0  0  0  0  0  0
    0.8900   12.3850    1.4210 C   0  0  0  0  0  0  0  0  0  0  0  0
    0.8940   11.7730   -3.7820 C   0  0  1  0  0  0  0  0  0  0  0  0
    0.2060   10.3830   -3.9410 C   0  0  0  0  0  0  0  0  0  0  0  0
    1.8700   11.9270   -5.0070 C   0  0  0  0  0  0  0  0  0  0  0  0
    2.1960   13.3640   -5.4590 C   0  0  0  0  0  0  0  0  0  0  0  0
    0.9180   14.1910   -5.6210 C   0  0  2  0  0  0  0  0  0  0  0  0
    0.0610   13.5310   -6.7550 C   0  0  0  0  0  0  0  0  0  0  0  0
   -0.6679   15.7734   -7.6791 H   0  0  0  0  0  0  0  0  0  0  0  0
    0.1271   16.7782   -8.9380 H   0  0  0  0  0  0  0  0  0  0  0  0
    0.3505   14.9958   -8.9380 H   0  0  0  0  0  0  0  0  0  0  0  0
    1.7828   17.0900   -7.4625 H   0  0  0  0  0  0  0  0  0  0  0  0
    3.5276   15.8086   -7.9798 H   0  0  0  0  0  0  0  0  0  0  0  0
    2.7784   14.3774   -7.1237 H   0  0  0  0  0  0  0  0  0  0  0  0
    2.9217   13.5060   -9.2219 H   0  0  0  0  0  0  0  0  0  0  0  0
    1.3058   14.3215   -9.3295 H   0  0  0  0  0  0  0  0  0  0  0  0
    3.9187   15.1477  -10.0698 H   0  0  0  0  0  0  0  0  0  0  0  0
    0.5253   14.1691  -11.0533 H   0  0  0  0  0  0  0  0  0  0  0  0
    0.2561   15.0727  -12.5823 H   0  0  0  0  0  0  0  0  0  0  0  0
    1.2685   13.5889  -12.5823 H   0  0  0  0  0  0  0  0  0  0  0  0
    3.9109   16.2462  -12.5833 H   0  0  0  0  0  0  0  0  0  0  0  0
    3.2557   14.8646  -13.5259 H   0  0  0  0  0  0  0  0  0  0  0  0
    2.3943   16.4409  -13.5259 H   0  0  0  0  0  0  0  0  0  0  0  0
    1.9835   16.0916   -5.4499 H   0  0  0  0  0  0  0  0  0  0  0  0
   -0.0788   17.2651   -5.0001 H   0  0  0  0  0  0  0  0  0  0  0  0
   -0.8973   16.5173   -6.3886 H   0  0  0  0  0  0  0  0  0  0  0  0
   -1.2777   15.7946   -3.6497 H   0  0  0  0  0  0  0  0  0  0  0  0
   -1.7974   14.8068   -5.0125 H   0  0  0  0  0  0  0  0  0  0  0  0
    0.6677   14.6668   -2.1203 H   0  0  0  0  0  0  0  0  0  0  0  0
    2.0982   14.6817   -3.2067 H   0  0  0  0  0  0  0  0  0  0  0  0
    0.9559   16.0680   -3.2067 H   0  0  0  0  0  0  0  0  0  0  0  0
   -0.9493   12.5739   -4.6072 H   0  0  0  0  0  0  0  0  0  0  0  0
   -1.6577   13.7418   -2.4210 H   0  0  0  0  0  0  0  0  0  0  0  0
   -1.7396   11.9107   -2.5928 H   0  0  0  0  0  0  0  0  0  0  0  0
   -0.8295   12.8265   -0.2961 H   0  0  0  0  0  0  0  0  0  0  0  0
    2.4585   12.6182   -2.6305 H   0  0  0  0  0  0  0  0  0  0  0  0
    1.7619    9.6780   -2.0270 H   0  0  0  0  0  0  0  0  0  0  0  0
    3.1417   10.2875   -3.0445 H   0  0  0  0  0  0  0  0  0  0  0  0
    3.8807    9.5795   -0.7922 H   0  0  0  0  0  0  0  0  0  0  0  0
    4.1489   11.3397   -1.1029 H   0  0  0  0  0  0  0  0  0  0  0  0
    3.2972   11.0707    1.1250 H   0  0  0  0  0  0  0  0  0  0  0  0
    1.0180   10.1550    1.2060 H   0  0  0  0  0  0  0  0  0  0  0  0
    2.9693   13.7289    1.1680 H   0  0  0  0  0  0  0  0  0  0  0  0
    3.6616   13.1564   -0.3875 H   0  0  0  0  0  0  0  0  0  0  0  0
    2.2558   14.2746   -0.3875 H   0  0  0  0  0  0  0  0  0  0  0  0
    1.5153   12.2685    2.3184 H   0  0  0  0  0  0  0  0  0  0  0  0
    0.4302   13.3843    1.4217 H   0  0  0  0  0  0  0  0  0  0  0  0
    0.1011   11.6184    1.4217 H   0  0  0  0  0  0  0  0  0  0  0  0
   -0.0027    9.9613   -2.9467 H   0  0  0  0  0  0  0  0  0  0  0  0
   -0.7373   10.5019   -4.4942 H   0  0  0  0  0  0  0  0  0  0  0  0
    0.8726    9.7051   -4.4942 H   0  0  0  0  0  0  0  0  0  0  0  0
    2.8188   11.4387   -4.7400 H   0  0  0  0  0  0  0  0  0  0  0  0
    1.3402   11.4711   -5.8564 H   0  0  0  0  0  0  0  0  0  0  0  0
    2.8400   13.8408   -4.7054 H   0  0  0  0  0  0  0  0  0  0  0  0
    2.7093   13.3179   -6.4308 H   0  0  0  0  0  0  0  0  0  0  0  0
   -0.7341   12.9187   -6.3045 H   0  0  0  0  0  0  0  0  0  0  0  0
   -0.3902   14.3171   -7.3782 H   0  0  0  0  0  0  0  0  0  0  0  0
    0.7058   12.8939   -7.3782 H   0  0  0  0  0  0  0  0  0  0  0  0
  1  2  1  0
  2  3  1  0
  3  4  1  0
  4  5  1  0
  5  6  1  0
  6  7  1  0
  7  8  1  0
  7  9  1  0
  2 10  1  0
 10 11  1  0
 11 12  1  0
 12 13  1  0
 13 14  1  1
 13 15  1  0
 15 16  1  0
 16 17  1  0
 17 18  2  0
 18 19  1  0
 19 20  1  0
 20 21  1  0
 21 22  1  0
 22 23  1  0
 22 24  1  0
 24 25  1  0
 24 26  1  0
 19 27  1  0
 27 28  1  6
 27 29  1  0
 29 30  1  0
 30 31  1  0
 31 32  1  6
  7  5  1  0
 31 10  1  0
 31 13  1  0
 27 15  1  0
 24 18  1  0
  1 33  1  0
  1 34  1  0
  1 35  1  0
  2 36  1  1
  3 37  1  0
  3 38  1  0
  4 39  1  0
  4 40  1  0
  5 41  1  6
  8 42  1  0
  8 43  1  0
  8 44  1  0
  9 45  1  0
  9 46  1  0
  9 47  1  0
 10 48  1  1
 11 49  1  0
 11 50  1  0
 12 51  1  0
 12 52  1  0
 14 53  1  0
 14 54  1  0
 14 55  1  0
 15 56  1  6
 16 57  1  0
 16 58  1  0
 17 59  1  0
 19 60  1  6
 20 61  1  0
 20 62  1  0
 21 63  1  0
 21 64  1  0
 22 65  1  1
 23 66  1  0
 25 67  1  0
 25 68  1  0
 25 69  1  0
 26 70  1  0
 26 71  1  0
 26 72  1  0
 28 73  1  0
 28 74  1  0
 28 75  1  0
 29 76  1  0
 29 77  1  0
 30 78  1  0
 30 79  1  0
 32 80  1  0
 32 81  1  0
 32 82  1  0
M  END
>  <meeko>  (17) 
{"is_sidechain": [false], "intermolecular_energy": 2.731, "internal_energy": -0.839}

$$$$
EPH_relaxed_0001_pdb2pqr_Repair_198_r2_0001_out
     RDKit          3D

 82 86  0  0  0  0  0  0  0  0999 V2000
  -15.1550    8.8900    0.6590 C   0  0  0  0  0  0  0  0  0  0  0  0
  -14.2770    9.1200   -0.5740 C   0  0  2  0  0  0  0  0  0  0  0  0
  -14.6180    8.1460   -1.7190 C   0  0  0  0  0  0  0  0  0  0  0  0
  -14.6310    8.8020   -3.1030 C   0  0  0  0  0  0  0  0  0  0  0  0
  -15.2860   10.1490   -3.0720 C   0  0  2  0  0  0  0  0  0  0  0  0
  -14.9300   11.0130   -4.1580 O   0  0  0  0  0  0  0  0  0  0  0  0
  -14.5270   11.4440   -2.8480 C   0  0  0  0  0  0  0  0  0  0  0  0
  -13.0460   11.4540   -2.6400 C   0  0  0  0  0  0  0  0  0  0  0  0
  -15.2800   12.6370   -2.3480 C   0  0  0  0  0  0  0  0  0  0  0  0
  -12.8060    8.9870   -0.1980 C   0  0  1  0  0  0  0  0  0  0  0  0
  -12.5810    8.9750    1.3380 C   0  0  0  0  0  0  0  0  0  0  0  0
  -11.3920    8.0170    1.6080 C   0  0  0  0  0  0  0  0  0  0  0  0
  -10.7640    7.7730    0.2160 C   0  0  1  0  0  0  0  0  0  0  0  0
   -9.8640    9.0210   -0.0430 C   0  0  0  0  0  0  0  0  0  0  0  0
   -9.9670    6.4390    0.0420 C   0  0  2  0  0  0  0  0  0  0  0  0
   -8.7290    6.2970    0.9460 C   0  0  0  0  0  0  0  0  0  0  0  0
   -7.4530    6.8080    0.3630 C   0  0  0  0  0  0  0  0  0  0  0  0
   -7.2460    7.0980   -0.9350 C   0  0  0  0  0  0  0  0  0  0  0  0
   -8.3290    6.8220   -1.9850 C   0  0  1  0  0  0  0  0  0  0  0  0
   -7.6930    6.1190   -3.2130 C   0  0  0  0  0  0  0  0  0  0  0  0
   -6.5100    6.8950   -3.7840 C   0  0  0  0  0  0  0  0  0  0  0  0
   -5.4290    7.0980   -2.7260 C   0  0  2  0  0  0  0  0  0  0  0  0
   -4.8660    5.8260   -2.3930 O   0  0  0  0  0  0  0  0  0  0  0  0
   -5.9550    7.7900   -1.4370 C   0  0  0  0  0  0  0  0  0  0  0  0
   -6.2850    9.2720   -1.7410 C   0  0  0  0  0  0  0  0  0  0  0  0
   -4.8010    7.8060   -0.3990 C   0  0  0  0  0  0  0  0  0  0  0  0
   -9.6300    6.0760   -1.4610 C   0  0  1  0  0  0  0  0  0  0  0  0
   -9.4140    4.5320   -1.5080 C   0  0  0  0  0  0  0  0  0  0  0  0
  -10.8290    6.3860   -2.4340 C   0  0  0  0  0  0  0  0  0  0  0  0
  -11.6530    7.6540   -2.1390 C   0  0  0  0  0  0  0  0  0  0  0  0
  -12.0650    7.7090   -0.6650 C   0  0  2  0  0  0  0  0  0  0  0  0
  -12.9910    6.4780   -0.3800 C   0  0  0  0  0  0  0  0  0  0  0  0
  -14.5573    9.0466    1.5691 H   0  0  0  0  0  0  0  0  0  0  0  0
  -15.9968    9.5979    0.6469 H   0  0  0  0  0  0  0  0  0  0  0  0
  -15.5416    7.8603    0.6469 H   0  0  0  0  0  0  0  0  0  0  0  0
  -14.4768   10.1392   -0.9365 H   0  0  0  0  0  0  0  0  0  0  0  0
  -13.8693    7.3402   -1.7238 H   0  0  0  0  0  0  0  0  0  0  0  0
  -15.6355    7.7729   -1.5309 H   0  0  0  0  0  0  0  0  0  0  0  0
  -13.5944    8.9177   -3.4523 H   0  0  0  0  0  0  0  0  0  0  0  0
  -15.2066    8.1566   -3.7828 H   0  0  0  0  0  0  0  0  0  0  0  0
  -16.1829    9.7275   -2.5946 H   0  0  0  0  0  0  0  0  0  0  0  0
  -12.8271   11.4555   -1.5620 H   0  0  0  0  0  0  0  0  0  0  0  0
  -12.6047   10.5588   -3.1025 H   0  0  0  0  0  0  0  0  0  0  0  0
  -12.6169   12.3551   -3.1025 H   0  0  0  0  0  0  0  0  0  0  0  0
  -15.2795   12.6363   -1.2480 H   0  0  0  0  0  0  0  0  0  0  0  0
  -14.7974   13.5551   -2.7143 H   0  0  0  0  0  0  0  0  0  0  0  0
  -16.3164   12.5964   -2.7143 H   0  0  0  0  0  0  0  0  0  0  0  0
  -12.4021    9.8674   -0.7193 H   0  0  0  0  0  0  0  0  0  0  0  0
  -12.3399    9.9877    1.6935 H   0  0  0  0  0  0  0  0  0  0  0  0
  -13.4856    8.6410    1.8673 H   0  0  0  0  0  0  0  0  0  0  0  0
  -10.6630    8.4843    2.2864 H   0  0  0  0  0  0  0  0  0  0  0  0
  -11.7111    7.0819    2.0915 H   0  0  0  0  0  0  0  0  0  0  0  0
   -9.5518    9.4539    0.9188 H   0  0  0  0  0  0  0  0  0  0  0  0
   -8.9744    8.7191   -0.6152 H   0  0  0  0  0  0  0  0  0  0  0  0
  -10.4313    9.7698   -0.6152 H   0  0  0  0  0  0  0  0  0  0  0  0
  -10.6857    5.6862    0.3979 H   0  0  0  0  0  0  0  0  0  0  0  0
   -8.9227    6.8495    1.8773 H   0  0  0  0  0  0  0  0  0  0  0  0
   -8.5842    5.2171    1.0971 H   0  0  0  0  0  0  0  0  0  0  0  0
   -6.6101    6.9605    1.0531 H   0  0  0  0  0  0  0  0  0  0  0  0
   -8.7227    7.8058   -2.2803 H   0  0  0  0  0  0  0  0  0  0  0  0
   -7.3455    5.1211   -2.9072 H   0  0  0  0  0  0  0  0  0  0  0  0
   -8.4617    6.0574   -3.9975 H   0  0  0  0  0  0  0  0  0  0  0  0
   -6.0855    6.3336   -4.6293 H   0  0  0  0  0  0  0  0  0  0  0  0
   -6.8650    7.8815   -4.1169 H   0  0  0  0  0  0  0  0  0  0  0  0
   -4.6699    7.7689   -3.1545 H   0  0  0  0  0  0  0  0  0  0  0  0
   -5.4240    5.1410   -2.7980 H   0  0  0  0  0  0  0  0  0  0  0  0
   -6.4074    9.8217   -0.7961 H   0  0  0  0  0  0  0  0  0  0  0  0
   -5.4643    9.7188   -2.3214 H   0  0  0  0  0  0  0  0  0  0  0  0
   -7.2177    9.3284   -2.3214 H   0  0  0  0  0  0  0  0  0  0  0  0
   -5.2219    7.8002    0.6173 H   0  0  0  0  0  0  0  0  0  0  0  0
   -4.1692    6.9165   -0.5394 H   0  0  0  0  0  0  0  0  0  0  0  0
   -4.1941    8.7126   -0.5394 H   0  0  0  0  0  0  0  0  0  0  0  0
   -9.3589    4.1381   -0.4824 H   0  0  0  0  0  0  0  0  0  0  0  0
  -10.2549    4.0601   -2.0374 H   0  0  0  0  0  0  0  0  0  0  0  0
   -8.4759    4.3089   -2.0374 H   0  0  0  0  0  0  0  0  0  0  0  0
  -10.4167    6.4857   -3.4489 H   0  0  0  0  0  0  0  0  0  0  0  0
  -11.5308    5.5494   -2.3016 H   0  0  0  0  0  0  0  0  0  0  0  0
  -11.0467    8.5406   -2.3766 H   0  0  0  0  0  0  0  0  0  0  0  0
  -12.5627    7.6330   -2.7571 H   0  0  0  0  0  0  0  0  0  0  0  0
  -13.0943    6.3407    0.7065 H   0  0  0  0  0  0  0  0  0  0  0  0
  -13.9822    6.6544   -0.8232 H   0  0  0  0  0  0  0  0  0  0  0  0
  -12.5467    5.5746   -0.8232 H   0  0  0  0  0  0  0  0  0  0  0  0
  1  2  1  0
  2  3  1  0
  3  4  1  0
  4  5  1  0
  5  6  1  0
  6  7  1  0
  7  8  1  0
  7  9  1  0
  2 10  1  0
 10 11  1  0
 11 12  1  0
 12 13  1  0
 13 14  1  6
 13 15  1  0
 15 16  1  0
 16 17  1  0
 17 18  2  0
 18 19  1  0
 19 20  1  0
 20 21  1  0
 21 22  1  0
 22 23  1  0
 22 24  1  0
 24 25  1  0
 24 26  1  0
 19 27  1  0
 27 28  1  1
 27 29  1  0
 29 30  1  0
 30 31  1  0
 31 32  1  1
  7  5  1  0
 31 10  1  0
 31 13  1  0
 27 15  1  0
 24 18  1  0
  1 33  1  0
  1 34  1  0
  1 35  1  0
  2 36  1  6
  3 37  1  0
  3 38  1  0
  4 39  1  0
  4 40  1  0
  5 41  1  1
  8 42  1  0
  8 43  1  0
  8 44  1  0
  9 45  1  0
  9 46  1  0
  9 47  1  0
 10 48  1  6
 11 49  1  0
 11 50  1  0
 12 51  1  0
 12 52  1  0
 14 53  1  0
 14 54  1  0
 14 55  1  0
 15 56  1  1
 16 57  1  0
 16 58  1  0
 17 59  1  0
 19 60  1  6
 20 61  1  0
 20 62  1  0
 21 63  1  0
 21 64  1  0
 22 65  1  6
 23 66  1  0
 25 67  1  0
 25 68  1  0
 25 69  1  0
 26 70  1  0
 26 71  1  0
 26 72  1  0
 28 73  1  0
 28 74  1  0
 28 75  1  0
 29 76  1  0
 29 77  1  0
 30 78  1  0
 30 79  1  0
 32 80  1  0
 32 81  1  0
 32 82  1  0
M  END
>  <meeko>  (18) 
{"is_sidechain": [false], "intermolecular_energy": 2.731, "internal_energy": -0.839}

$$$$
EPH_relaxed_0001_pdb2pqr_Repair_198_r2_0001_out
     RDKit          3D

 82 86  0  0  0  0  0  0  0  0999 V2000
    0.2630   10.6560   -4.2840 C   0  0  0  0  0  0  0  0  0  0  0  0
    0.9870   10.2740   -2.9900 C   0  0  2  0  0  0  0  0  0  0  0  0
    0.3020    9.0970   -2.2670 C   0  0  0  0  0  0  0  0  0  0  0  0
    0.0350    9.3570   -0.7820 C   0  0  0  0  0  0  0  0  0  0  0  0
   -1.3390    8.9120   -0.3800 C   0  0  2  0  0  0  0  0  0  0  0  0
   -2.2740    8.8060   -1.4610 O   0  0  0  0  0  0  0  0  0  0  0  0
   -2.5650    9.8020   -0.4670 C   0  0  0  0  0  0  0  0  0  0  0  0
   -2.4750   11.2080   -0.9700 C   0  0  0  0  0  0  0  0  0  0  0  0
   -3.7490    9.4730    0.3870 C   0  0  0  0  0  0  0  0  0  0  0  0
    1.0630   11.4810   -2.0620 C   0  0  1  0  0  0  0  0  0  0  0  0
    2.1460   11.3210   -0.9620 C   0  0  0  0  0  0  0  0  0  0  0  0
    2.7420   12.7310   -0.7120 C   0  0  0  0  0  0  0  0  0  0  0  0
    1.7670   13.6980   -1.4240 C   0  0  1  0  0  0  0  0  0  0  0  0
    0.5830   13.8830   -0.4230 C   0  0  0  0  0  0  0  0  0  0  0  0
    2.3620   15.0710   -1.8740 C   0  0  2  0  0  0  0  0  0  0  0  0
    2.8730   15.9670   -0.7320 C   0  0  0  0  0  0  0  0  0  0  0  0
    1.8660   16.9090   -0.1610 C   0  0  0  0  0  0  0  0  0  0  0  0
    0.6900   17.2360   -0.7290 C   0  0  0  0  0  0  0  0  0  0  0  0
    0.3160   16.7120   -2.1220 C   0  0  1  0  0  0  0  0  0  0  0  0
   -0.2390   17.8780   -2.9810 C   0  0  0  0  0  0  0  0  0  0  0  0
   -1.3940   18.6070   -2.3020 C   0  0  0  0  0  0  0  0  0  0  0  0
   -0.9660   19.1630   -0.9460 C   0  0  2  0  0  0  0  0  0  0  0  0
    0.0030   20.1950   -1.1570 O   0  0  0  0  0  0  0  0  0  0  0  0
   -0.3810   18.0810    0.0030 C   0  0  0  0  0  0  0  0  0  0  0  0
   -1.5120   17.1320    0.4710 C   0  0  0  0  0  0  0  0  0  0  0  0
    0.1410   18.7960    1.2780 C   0  0  0  0  0  0  0  0  0  0  0  0
    1.4410   15.8800   -2.8750 C   0  0  1  0  0  0  0  0  0  0  0  0
    2.3790   16.8460   -3.6620 C   0  0  0  0  0  0  0  0  0  0  0  0
    0.7610   14.9490   -3.9470 C   0  0  0  0  0  0  0  0  0  0  0  0
    0.3020   13.5590   -3.4690 C   0  0  0  0  0  0  0  0  0  0  0  0
    1.4190   12.8470   -2.7000 C   0  0  2  0  0  0  0  0  0  0  0  0
    2.6160   12.6270   -3.6870 C   0  0  0  0  0  0  0  0  0  0  0  0
   -0.6855   11.1565   -4.0394 H   0  0  0  0  0  0  0  0  0  0  0  0
    0.8963   11.3373   -4.8711 H   0  0  0  0  0  0  0  0  0  0  0  0
    0.0581    9.7486   -4.8711 H   0  0  0  0  0  0  0  0  0  0  0  0
    2.0020    9.9488   -3.2622 H   0  0  0  0  0  0  0  0  0  0  0  0
   -0.6594    8.8974   -2.7628 H   0  0  0  0  0  0  0  0  0  0  0  0
    0.9902    8.2408   -2.3243 H   0  0  0  0  0  0  0  0  0  0  0  0
    0.7770    8.8069   -0.1846 H   0  0  0  0  0  0  0  0  0  0  0  0
    0.1107   10.4399   -0.6042 H   0  0  0  0  0  0  0  0  0  0  0  0
   -0.9278    8.3001    0.4364 H   0  0  0  0  0  0  0  0  0  0  0  0
   -2.4307   11.9006   -0.1166 H   0  0  0  0  0  0  0  0  0  0  0  0
   -1.5678   11.3212   -1.5816 H   0  0  0  0  0  0  0  0  0  0  0  0
   -3.3604   11.4360   -1.5816 H   0  0  0  0  0  0  0  0  0  0  0  0
   -3.4689    9.5508    1.4479 H   0  0  0  0  0  0  0  0  0  0  0  0
   -4.5647   10.1785    0.1704 H   0  0  0  0  0  0  0  0  0  0  0  0
   -4.0838    8.4478    0.1704 H   0  0  0  0  0  0  0  0  0  0  0  0
    0.0266   11.4964   -1.6938 H   0  0  0  0  0  0  0  0  0  0  0  0
    1.6930   10.9321   -0.0382 H   0  0  0  0  0  0  0  0  0  0  0  0
    2.9265   10.6125   -1.2764 H   0  0  0  0  0  0  0  0  0  0  0  0
    2.7869   12.9483    0.3654 H   0  0  0  0  0  0  0  0  0  0  0  0
    3.7709   12.8223   -1.0902 H   0  0  0  0  0  0  0  0  0  0  0  0
    0.9619   13.8238    0.6080 H   0  0  0  0  0  0  0  0  0  0  0  0
    0.1152   14.8651   -0.5859 H   0  0  0  0  0  0  0  0  0  0  0  0
   -0.1621   13.0904   -0.5859 H   0  0  0  0  0  0  0  0  0  0  0  0
    3.2562   14.7665   -2.4377 H   0  0  0  0  0  0  0  0  0  0  0  0
    3.2264   15.3143    0.0798 H   0  0  0  0  0  0  0  0  0  0  0  0
    3.6636   16.5949   -1.1686 H   0  0  0  0  0  0  0  0  0  0  0  0
    2.1049   17.3757    0.8060 H   0  0  0  0  0  0  0  0  0  0  0  0
   -0.4695   15.9585   -1.9633 H   0  0  0  0  0  0  0  0  0  0  0  0
    0.5724   18.5975   -3.1651 H   0  0  0  0  0  0  0  0  0  0  0  0
   -0.6206   17.4490   -3.9192 H   0  0  0  0  0  0  0  0  0  0  0  0
   -1.7228   19.4374   -2.9441 H   0  0  0  0  0  0  0  0  0  0  0  0
   -2.2162   17.8933   -2.1453 H   0  0  0  0  0  0  0  0  0  0  0  0
   -1.8658   19.5582   -0.4518 H   0  0  0  0  0  0  0  0  0  0  0  0
   -0.4020   20.8670   -1.7300 H   0  0  0  0  0  0  0  0  0  0  0  0
   -1.5397   17.1088    1.5704 H   0  0  0  0  0  0  0  0  0  0  0  0
   -2.4771   17.4946    0.0875 H   0  0  0  0  0  0  0  0  0  0  0  0
   -1.3225   16.1186    0.0875 H   0  0  0  0  0  0  0  0  0  0  0  0
   -0.2380   18.2769    2.1707 H   0  0  0  0  0  0  0  0  0  0  0  0
    1.2409   18.7793    1.2834 H   0  0  0  0  0  0  0  0  0  0  0  0
   -0.2099   19.8385    1.2834 H   0  0  0  0  0  0  0  0  0  0  0  0
    2.9641   17.4486   -2.9517 H   0  0  0  0  0  0  0  0  0  0  0  0
    3.0616   16.2597   -4.2947 H   0  0  0  0  0  0  0  0  0  0  0  0
    1.7729   17.5111   -4.2947 H   0  0  0  0  0  0  0  0  0  0  0  0
   -0.1235   15.4769   -4.3330 H   0  0  0  0  0  0  0  0  0  0  0  0
    1.5434   14.7521   -4.6947 H   0  0  0  0  0  0  0  0  0  0  0  0
   -0.5710   13.6753   -2.8099 H   0  0  0  0  0  0  0  0  0  0  0  0
    0.0417   12.9536   -4.3498 H   0  0  0  0  0  0  0  0  0  0  0  0
    3.5386   12.4574   -3.1125 H   0  0  0  0  0  0  0  0  0  0  0  0
    2.4125   11.7512   -4.3207 H   0  0  0  0  0  0  0  0  0  0  0  0
    2.7372   13.5179   -4.3207 H   0  0  0  0  0  0  0  0  0  0  0  0
  1  2  1  0
  2  3  1  0
  3  4  1  0
  4  5  1  0
  5  6  1  0
  6  7  1  0
  7  8  1  0
  7  9  1  0
  2 10  1  0
 10 11  1  0
 11 12  1  0
 12 13  1  0
 13 14  1  1
 13 15  1  0
 15 16  1  0
 16 17  1  0
 17 18  2  0
 18 19  1  0
 19 20  1  0
 20 21  1  0
 21 22  1  0
 22 23  1  0
 22 24  1  0
 24 25  1  0
 24 26  1  0
 19 27  1  0
 27 28  1  6
 27 29  1  0
 29 30  1  0
 30 31  1  0
 31 32  1  6
  7  5  1  0
 31 10  1  0
 31 13  1  0
 27 15  1  0
 24 18  1  0
  1 33  1  0
  1 34  1  0
  1 35  1  0
  2 36  1  6
  3 37  1  0
  3 38  1  0
  4 39  1  0
  4 40  1  0
  5 41  1  1
  8 42  1  0
  8 43  1  0
  8 44  1  0
  9 45  1  0
  9 46  1  0
  9 47  1  0
 10 48  1  1
 11 49  1  0
 11 50  1  0
 12 51  1  0
 12 52  1  0
 14 53  1  0
 14 54  1  0
 14 55  1  0
 15 56  1  6
 16 57  1  0
 16 58  1  0
 17 59  1  0
 19 60  1  1
 20 61  1  0
 20 62  1  0
 21 63  1  0
 21 64  1  0
 22 65  1  1
 23 66  1  0
 25 67  1  0
 25 68  1  0
 25 69  1  0
 26 70  1  0
 26 71  1  0
 26 72  1  0
 28 73  1  0
 28 74  1  0
 28 75  1  0
 29 76  1  0
 29 77  1  0
 30 78  1  0
 30 79  1  0
 32 80  1  0
 32 81  1  0
 32 82  1  0
M  END
>  <meeko>  (19) 
{"is_sidechain": [false], "intermolecular_energy": 2.731, "internal_energy": -0.839}

$$$$
