EPH_relaxed_0001_pdb2pqr_Repair_165_r2_0001_out
     RDKit          3D

 82 86  0  0  0  0  0  0  0  0999 V2000
    4.7120   17.1890   -0.6580 C   0  0  0  0  0  0  0  0  0  0  0  0
    3.3600   17.8840   -0.4760 C   0  0  2  0  0  0  0  0  0  0  0  0
    3.3000   18.7060    0.8270 C   0  0  0  0  0  0  0  0  0  0  0  0
    4.4360   18.3920    1.8050 C   0  0  0  0  0  0  0  0  0  0  0  0
    4.2290   19.0650    3.1280 C   0  0  2  0  0  0  0  0  0  0  0  0
    5.1300   20.1480    3.3970 O   0  0  0  0  0  0  0  0  0  0  0  0
    5.2350   19.0060    4.2630 C   0  0  0  0  0  0  0  0  0  0  0  0
    6.5220   18.2550    4.1260 C   0  0  0  0  0  0  0  0  0  0  0  0
    4.7560   19.2620    5.6580 C   0  0  0  0  0  0  0  0  0  0  0  0
    2.2380   16.8530   -0.4930 C   0  0  1  0  0  0  0  0  0  0  0  0
    0.8600   17.4750   -0.8430 C   0  0  0  0  0  0  0  0  0  0  0  0
    0.0860   16.4120   -1.6650 C   0  0  0  0  0  0  0  0  0  0  0  0
    0.8970   15.1090   -1.4800 C   0  0  1  0  0  0  0  0  0  0  0  0
    0.4450   14.5480   -0.0950 C   0  0  0  0  0  0  0  0  0  0  0  0
    0.7520   14.0380   -2.6110 C   0  0  2  0  0  0  0  0  0  0  0  0
   -0.6660   13.4710   -2.7940 C   0  0  0  0  0  0  0  0  0  0  0  0
   -0.9760   12.2530   -1.9890 C   0  0  0  0  0  0  0  0  0  0  0  0
   -0.0690   11.4730   -1.3710 C   0  0  0  0  0  0  0  0  0  0  0  0
    1.4340   11.7340   -1.5310 C   0  0  1  0  0  0  0  0  0  0  0  0
    2.1630   10.3970   -1.8250 C   0  0  0  0  0  0  0  0  0  0  0  0
    1.8650    9.3260   -0.7800 C   0  0  0  0  0  0  0  0  0  0  0  0
    0.3650    9.0530   -0.6910 C   0  0  2  0  0  0  0  0  0  0  0  0
   -0.0680    8.4550   -1.9170 O   0  0  0  0  0  0  0  0  0  0  0  0
   -0.4740   10.3300   -0.4080 C   0  0  0  0  0  0  0  0  0  0  0  0
   -0.2230   10.8060    1.0450 C   0  0  0  0  0  0  0  0  0  0  0  0
   -1.9750    9.9420   -0.4830 C   0  0  0  0  0  0  0  0  0  0  0  0
    1.8330   12.8840   -2.5530 C   0  0  1  0  0  0  0  0  0  0  0  0
    1.9390   12.3010   -3.9950 C   0  0  0  0  0  0  0  0  0  0  0  0
    3.2660   13.4240   -2.1850 C   0  0  0  0  0  0  0  0  0  0  0  0
    3.3350   14.5630   -1.1500 C   0  0  0  0  0  0  0  0  0  0  0  0
    2.3580   15.6880   -1.5070 C   0  0  2  0  0  0  0  0  0  0  0  0
    2.8010   16.2860   -2.8860 C   0  0  0  0  0  0  0  0  0  0  0  0
    5.1454   16.9662    0.3282 H   0  0  0  0  0  0  0  0  0  0  0  0
    4.5704   16.2519   -1.2165 H   0  0  0  0  0  0  0  0  0  0  0  0
    5.3916   17.8495   -1.2165 H   0  0  0  0  0  0  0  0  0  0  0  0
    3.2335   18.5845   -1.3146 H   0  0  0  0  0  0  0  0  0  0  0  0
    3.3506   19.7736    0.5669 H   0  0  0  0  0  0  0  0  0  0  0  0
    2.3589   18.4415    1.3313 H   0  0  0  0  0  0  0  0  0  0  0  0
    4.4815   17.3041    1.9615 H   0  0  0  0  0  0  0  0  0  0  0  0
    5.3752   18.7671    1.3722 H   0  0  0  0  0  0  0  0  0  0  0  0
    3.1484   18.8630    3.0882 H   0  0  0  0  0  0  0  0  0  0  0  0
    6.9194   18.0231    5.1252 H   0  0  0  0  0  0  0  0  0  0  0  0
    6.3437   17.3192    3.5761 H   0  0  0  0  0  0  0  0  0  0  0  0
    7.2490   18.8706    3.5761 H   0  0  0  0  0  0  0  0  0  0  0  0
    5.4910   18.8692    6.3759 H   0  0  0  0  0  0  0  0  0  0  0  0
    4.6358   20.3446    5.8116 H   0  0  0  0  0  0  0  0  0  0  0  0
    3.7892   18.7604    5.8116 H   0  0  0  0  0  0  0  0  0  0  0  0
    2.3257   16.4685    0.5339 H   0  0  0  0  0  0  0  0  0  0  0  0
    0.3088   17.7173    0.0776 H   0  0  0  0  0  0  0  0  0  0  0  0
    0.9807   18.4065   -1.4156 H   0  0  0  0  0  0  0  0  0  0  0  0
   -0.9366   16.2911   -1.2782 H   0  0  0  0  0  0  0  0  0  0  0  0
   -0.0134   16.6946   -2.7234 H   0  0  0  0  0  0  0  0  0  0  0  0
    0.9161   15.1327    0.7089 H   0  0  0  0  0  0  0  0  0  0  0  0
   -0.6492   14.6215   -0.0090 H   0  0  0  0  0  0  0  0  0  0  0  0
    0.7496   13.4945   -0.0090 H   0  0  0  0  0  0  0  0  0  0  0  0
    0.9590   14.6237   -3.5188 H   0  0  0  0  0  0  0  0  0  0  0  0
   -1.3842   14.2554   -2.5133 H   0  0  0  0  0  0  0  0  0  0  0  0
   -0.7367   13.1644   -3.8480 H   0  0  0  0  0  0  0  0  0  0  0  0
   -2.0342   11.9687   -1.8925 H   0  0  0  0  0  0  0  0  0  0  0  0
    1.7761   12.1420   -0.5684 H   0  0  0  0  0  0  0  0  0  0  0  0
    1.8399   10.0284   -2.8098 H   0  0  0  0  0  0  0  0  0  0  0  0
    3.2449   10.5944   -1.8016 H   0  0  0  0  0  0  0  0  0  0  0  0
    2.3841    8.3970   -1.0584 H   0  0  0  0  0  0  0  0  0  0  0  0
    2.2156    9.6837    0.1994 H   0  0  0  0  0  0  0  0  0  0  0  0
    0.2027    8.3759    0.1606 H   0  0  0  0  0  0  0  0  0  0  0  0
   -1.0390    8.4080   -1.8950 H   0  0  0  0  0  0  0  0  0  0  0  0
   -0.6172   10.0584    1.7490 H   0  0  0  0  0  0  0  0  0  0  0  0
    0.8577   10.9298    1.2088 H   0  0  0  0  0  0  0  0  0  0  0  0
   -0.7312   11.7677    1.2088 H   0  0  0  0  0  0  0  0  0  0  0  0
   -2.3781    9.8378    0.5352 H   0  0  0  0  0  0  0  0  0  0  0  0
   -2.5301   10.7262   -1.0187 H   0  0  0  0  0  0  0  0  0  0  0  0
   -2.0805    8.9870   -1.0187 H   0  0  0  0  0  0  0  0  0  0  0  0
    2.1355   11.2201   -3.9400 H   0  0  0  0  0  0  0  0  0  0  0  0
    0.9945   12.4751   -4.5312 H   0  0  0  0  0  0  0  0  0  0  0  0
    2.7618   12.7964   -4.5312 H   0  0  0  0  0  0  0  0  0  0  0  0
    3.8484   12.5790   -1.7891 H   0  0  0  0  0  0  0  0  0  0  0  0
    3.6578   13.8580   -3.1167 H   0  0  0  0  0  0  0  0  0  0  0  0
    3.0773   14.1639   -0.1579 H   0  0  0  0  0  0  0  0  0  0  0  0
    4.3558   14.9727   -1.1467 H   0  0  0  0  0  0  0  0  0  0  0  0
    3.4479   17.1593   -2.7161 H   0  0  0  0  0  0  0  0  0  0  0  0
    3.3547   15.5246   -3.4549 H   0  0  0  0  0  0  0  0  0  0  0  0
    1.9113   16.5939   -3.4549 H   0  0  0  0  0  0  0  0  0  0  0  0
  1  2  1  0
  2  3  1  0
  3  4  1  0
  4  5  1  0
  5  6  1  0
  6  7  1  0
  7  8  1  0
  7  9  1  0
  2 10  1  0
 10 11  1  0
 11 12  1  0
 12 13  1  0
 13 14  1  1
 13 15  1  0
 15 16  1  0
 16 17  1  0
 17 18  2  0
 18 19  1  0
 19 20  1  0
 20 21  1  0
 21 22  1  0
 22 23  1  0
 22 24  1  0
 24 25  1  0
 24 26  1  0
 19 27  1  0
 27 28  1  6
 27 29  1  0
 29 30  1  0
 30 31  1  0
 31 32  1  6
  7  5  1  0
 31 10  1  0
 31 13  1  0
 27 15  1  0
 24 18  1  0
  1 33  1  0
  1 34  1  0
  1 35  1  0
  2 36  1  6
  3 37  1  0
  3 38  1  0
  4 39  1  0
  4 40  1  0
  5 41  1  1
  8 42  1  0
  8 43  1  0
  8 44  1  0
  9 45  1  0
  9 46  1  0
  9 47  1  0
 10 48  1  1
 11 49  1  0
 11 50  1  0
 12 51  1  0
 12 52  1  0
 14 53  1  0
 14 54  1  0
 14 55  1  0
 15 56  1  6
 16 57  1  0
 16 58  1  0
 17 59  1  0
 19 60  1  1
 20 61  1  0
 20 62  1  0
 21 63  1  0
 21 64  1  0
 22 65  1  1
 23 66  1  0
 25 67  1  0
 25 68  1  0
 25 69  1  0
 26 70  1  0
 26 71  1  0
 26 72  1  0
 28 73  1  0
 28 74  1  0
 28 75  1  0
 29 76  1  0
 29 77  1  0
 30 78  1  0
 30 79  1  0
 32 80  1  0
 32 81  1  0
 32 82  1  0
M  END
>  <meeko>  (1) 
{"is_sidechain": [false], "intermolecular_energy": 2.731, "internal_energy": -0.839}

$$$$
EPH_relaxed_0001_pdb2pqr_Repair_165_r2_0001_out
     RDKit          3D

 82 86  0  0  0  0  0  0  0  0999 V2000
    3.8890   17.9420    0.6540 C   0  0  0  0  0  0  0  0  0  0  0  0
    2.9900   18.3520   -0.5160 C   0  0  2  0  0  0  0  0  0  0  0  0
    2.2530   19.6780   -0.2440 C   0  0  0  0  0  0  0  0  0  0  0  0
    1.1930   19.5800    0.8570 C   0  0  0  0  0  0  0  0  0  0  0  0
   -0.1190   20.1550    0.4170 C   0  0  2  0  0  0  0  0  0  0  0  0
   -1.1270   20.1940    1.4350 O   0  0  0  0  0  0  0  0  0  0  0  0
   -1.3950   19.3410    0.3110 C   0  0  0  0  0  0  0  0  0  0  0  0
   -1.4210   17.8830    0.6460 C   0  0  0  0  0  0  0  0  0  0  0  0
   -2.4910   19.8420   -0.5780 C   0  0  0  0  0  0  0  0  0  0  0  0
    1.9830   17.2460   -0.8090 C   0  0  1  0  0  0  0  0  0  0  0  0
    0.8380   17.7140   -1.7470 C   0  0  0  0  0  0  0  0  0  0  0  0
    0.4650   16.5010   -2.6370 C   0  0  0  0  0  0  0  0  0  0  0  0
    1.1640   15.2950   -1.9660 C   0  0  1  0  0  0  0  0  0  0  0  0
    0.2190   14.8850   -0.7940 C   0  0  0  0  0  0  0  0  0  0  0  0
    1.4910   14.0810   -2.8960 C   0  0  2  0  0  0  0  0  0  0  0  0
    0.2670   13.3920   -3.5230 C   0  0  0  0  0  0  0  0  0  0  0  0
   -0.3100   12.2680   -2.7280 C   0  0  0  0  0  0  0  0  0  0  0  0
    0.2990   11.6430   -1.7020 C   0  0  0  0  0  0  0  0  0  0  0  0
    1.7410   11.9910   -1.3120 C   0  0  1  0  0  0  0  0  0  0  0  0
    2.5520   10.6850   -1.1050 C   0  0  0  0  0  0  0  0  0  0  0  0
    1.8900    9.7380   -0.1080 C   0  0  0  0  0  0  0  0  0  0  0  0
    0.4800    9.3680   -0.5610 C   0  0  2  0  0  0  0  0  0  0  0  0
    0.5690    8.5880   -1.7570 O   0  0  0  0  0  0  0  0  0  0  0  0
   -0.4270   10.6050   -0.8110 C   0  0  0  0  0  0  0  0  0  0  0  0
   -0.7700   11.2810    0.5400 C   0  0  0  0  0  0  0  0  0  0  0  0
   -1.7730   10.1000   -1.3980 C   0  0  0  0  0  0  0  0  0  0  0  0
    2.4850   13.0270   -2.2600 C   0  0  1  0  0  0  0  0  0  0  0  0
    3.1550   12.2740   -3.4490 C   0  0  0  0  0  0  0  0  0  0  0  0
    3.6510   13.7140   -1.4560 C   0  0  0  0  0  0  0  0  0  0  0  0
    3.2910   14.9790   -0.6530 C   0  0  0  0  0  0  0  0  0  0  0  0
    2.5100   15.9730   -1.5170 C   0  0  2  0  0  0  0  0  0  0  0  0
    3.4430   16.4200   -2.6930 C   0  0  0  0  0  0  0  0  0  0  0  0
    3.3833   18.1726    1.6033 H   0  0  0  0  0  0  0  0  0  0  0  0
    4.0920   16.8623    0.5996 H   0  0  0  0  0  0  0  0  0  0  0  0
    4.8374   18.4966    0.5996 H   0  0  0  0  0  0  0  0  0  0  0  0
    3.6363   18.5078   -1.3924 H   0  0  0  0  0  0  0  0  0  0  0  0
    2.9953   20.4326    0.0551 H   0  0  0  0  0  0  0  0  0  0  0  0
    1.7280   19.9495   -1.1717 H   0  0  0  0  0  0  0  0  0  0  0  0
    1.0482   18.5215    1.1191 H   0  0  0  0  0  0  0  0  0  0  0  0
    1.5460   20.1566    1.7247 H   0  0  0  0  0  0  0  0  0  0  0  0
    0.3866   20.8301   -0.2891 H   0  0  0  0  0  0  0  0  0  0  0  0
   -1.4232   17.7579    1.7389 H   0  0  0  0  0  0  0  0  0  0  0  0
   -2.3274   17.4256    0.2227 H   0  0  0  0  0  0  0  0  0  0  0  0
   -0.5314   17.3936    0.2227 H   0  0  0  0  0  0  0  0  0  0  0  0
   -3.3193   20.2206    0.0389 H   0  0  0  0  0  0  0  0  0  0  0  0
   -2.1060   20.6535   -1.2130 H   0  0  0  0  0  0  0  0  0  0  0  0
   -2.8528   19.0198   -1.2130 H   0  0  0  0  0  0  0  0  0  0  0  0
    1.6719   17.0034    0.2178 H   0  0  0  0  0  0  0  0  0  0  0  0
   -0.0325   18.0303   -1.1535 H   0  0  0  0  0  0  0  0  0  0  0  0
    1.1547   18.5709   -2.3597 H   0  0  0  0  0  0  0  0  0  0  0  0
   -0.6251   16.3555   -2.6581 H   0  0  0  0  0  0  0  0  0  0  0  0
    0.7805   16.6376   -3.6819 H   0  0  0  0  0  0  0  0  0  0  0  0
    0.7115   15.0987    0.1661 H   0  0  0  0  0  0  0  0  0  0  0  0
   -0.7178   15.4576   -0.8609 H   0  0  0  0  0  0  0  0  0  0  0  0
   -0.0029   13.8097   -0.8609 H   0  0  0  0  0  0  0  0  0  0  0  0
    2.0245   14.5595   -3.7305 H   0  0  0  0  0  0  0  0  0  0  0  0
   -0.5179   14.1507   -3.6578 H   0  0  0  0  0  0  0  0  0  0  0  0
    0.6181   12.9482   -4.4662 H   0  0  0  0  0  0  0  0  0  0  0  0
   -1.3169   11.9211   -3.0031 H   0  0  0  0  0  0  0  0  0  0  0  0
    1.6737   12.5427   -0.3627 H   0  0  0  0  0  0  0  0  0  0  0  0
    2.6446   10.1701   -2.0726 H   0  0  0  0  0  0  0  0  0  0  0  0
    3.5358   10.9632   -0.6992 H   0  0  0  0  0  0  0  0  0  0  0  0
    2.4937    8.8222   -0.0259 H   0  0  0  0  0  0  0  0  0  0  0  0
    1.8244   10.2439    0.8666 H   0  0  0  0  0  0  0  0  0  0  0  0
    0.0123    8.7947    0.2530 H   0  0  0  0  0  0  0  0  0  0  0  0
   -0.0650    8.9550   -2.3960 H   0  0  0  0  0  0  0  0  0  0  0  0
   -0.4419   10.6344    1.3672 H   0  0  0  0  0  0  0  0  0  0  0  0
   -0.2549   12.2507    0.6060 H   0  0  0  0  0  0  0  0  0  0  0  0
   -1.8568   11.4379    0.6060 H   0  0  0  0  0  0  0  0  0  0  0  0
   -2.4579    9.8430   -0.5765 H   0  0  0  0  0  0  0  0  0  0  0  0
   -2.2228   10.8905   -2.0167 H   0  0  0  0  0  0  0  0  0  0  0  0
   -1.5918    9.2087   -2.0167 H   0  0  0  0  0  0  0  0  0  0  0  0
    3.8385   11.5059   -3.0581 H   0  0  0  0  0  0  0  0  0  0  0  0
    2.3787   11.7953   -4.0640 H   0  0  0  0  0  0  0  0  0  0  0  0
    3.7207   12.9894   -4.0640 H   0  0  0  0  0  0  0  0  0  0  0  0
    4.0486   12.9723   -0.7476 H   0  0  0  0  0  0  0  0  0  0  0  0
    4.3665   14.0523   -2.2199 H   0  0  0  0  0  0  0  0  0  0  0  0
    2.6750   14.6928    0.2122 H   0  0  0  0  0  0  0  0  0  0  0  0
    4.2226   15.4600   -0.3202 H   0  0  0  0  0  0  0  0  0  0  0  0
    4.3636   16.8611   -2.2833 H   0  0  0  0  0  0  0  0  0  0  0  0
    3.6984   15.5464   -3.3108 H   0  0  0  0  0  0  0  0  0  0  0  0
    2.9222   17.1664   -3.3108 H   0  0  0  0  0  0  0  0  0  0  0  0
  1  2  1  0
  2  3  1  0
  3  4  1  0
  4  5  1  0
  5  6  1  0
  6  7  1  0
  7  8  1  0
  7  9  1  0
  2 10  1  0
 10 11  1  0
 11 12  1  0
 12 13  1  0
 13 14  1  1
 13 15  1  0
 15 16  1  0
 16 17  1  0
 17 18  2  0
 18 19  1  0
 19 20  1  0
 20 21  1  0
 21 22  1  0
 22 23  1  0
 22 24  1  0
 24 25  1  0
 24 26  1  0
 19 27  1  0
 27 28  1  6
 27 29  1  0
 29 30  1  0
 30 31  1  0
 31 32  1  6
  7  5  1  0
 31 10  1  0
 31 13  1  0
 27 15  1  0
 24 18  1  0
  1 33  1  0
  1 34  1  0
  1 35  1  0
  2 36  1  6
  3 37  1  0
  3 38  1  0
  4 39  1  0
  4 40  1  0
  5 41  1  6
  8 42  1  0
  8 43  1  0
  8 44  1  0
  9 45  1  0
  9 46  1  0
  9 47  1  0
 10 48  1  1
 11 49  1  0
 11 50  1  0
 12 51  1  0
 12 52  1  0
 14 53  1  0
 14 54  1  0
 14 55  1  0
 15 56  1  6
 16 57  1  0
 16 58  1  0
 17 59  1  0
 19 60  1  1
 20 61  1  0
 20 62  1  0
 21 63  1  0
 21 64  1  0
 22 65  1  1
 23 66  1  0
 25 67  1  0
 25 68  1  0
 25 69  1  0
 26 70  1  0
 26 71  1  0
 26 72  1  0
 28 73  1  0
 28 74  1  0
 28 75  1  0
 29 76  1  0
 29 77  1  0
 30 78  1  0
 30 79  1  0
 32 80  1  0
 32 81  1  0
 32 82  1  0
M  END
>  <meeko>  (2) 
{"is_sidechain": [false], "intermolecular_energy": 2.731, "internal_energy": -0.839}

$$$$
EPH_relaxed_0001_pdb2pqr_Repair_165_r2_0001_out
     RDKit          3D

 82 86  0  0  0  0  0  0  0  0999 V2000
    2.4660   18.3000   -1.7950 C   0  0  0  0  0  0  0  0  0  0  0  0
    2.1540   17.3030   -0.6760 C   0  0  2  0  0  0  0  0  0  0  0  0
    3.4340   16.7570   -0.0120 C   0  0  0  0  0  0  0  0  0  0  0  0
    4.3920   17.8490    0.4700 C   0  0  0  0  0  0  0  0  0  0  0  0
    3.9220   18.4760    1.7480 C   0  0  2  0  0  0  0  0  0  0  0  0
    4.1030   19.8960    1.8200 O   0  0  0  0  0  0  0  0  0  0  0  0
    4.8550   19.1120    2.7610 C   0  0  0  0  0  0  0  0  0  0  0  0
    6.3350   19.1520    2.5410 C   0  0  0  0  0  0  0  0  0  0  0  0
    4.3860   19.2530    4.1750 C   0  0  0  0  0  0  0  0  0  0  0  0
    1.3190   16.1520   -1.2230 C   0  0  1  0  0  0  0  0  0  0  0  0
    0.7310   16.4550   -2.6270 C   0  0  0  0  0  0  0  0  0  0  0  0
    0.7210   15.1150   -3.4070 C   0  0  0  0  0  0  0  0  0  0  0  0
    0.9860   14.0360   -2.3310 C   0  0  1  0  0  0  0  0  0  0  0  0
   -0.3990   13.7970   -1.6520 C   0  0  0  0  0  0  0  0  0  0  0  0
    1.6210   12.6990   -2.8350 C   0  0  2  0  0  0  0  0  0  0  0  0
    0.7610   11.9050   -3.8340 C   0  0  0  0  0  0  0  0  0  0  0  0
   -0.1670   10.9070   -3.2240 C   0  0  0  0  0  0  0  0  0  0  0  0
   -0.1070   10.4550   -1.9580 C   0  0  0  0  0  0  0  0  0  0  0  0
    1.0340   10.8790   -1.0230 C   0  0  1  0  0  0  0  0  0  0  0  0
    1.5970    9.6310   -0.2940 C   0  0  0  0  0  0  0  0  0  0  0  0
    0.5140    8.8380    0.4300 C   0  0  0  0  0  0  0  0  0  0  0  0
   -0.5720    8.3840   -0.5420 C   0  0  2  0  0  0  0  0  0  0  0  0
   -0.0090    7.4310   -1.4490 O   0  0  0  0  0  0  0  0  0  0  0  0
   -1.2070    9.5550   -1.3420 C   0  0  0  0  0  0  0  0  0  0  0  0
   -2.0710   10.4240   -0.3940 C   0  0  0  0  0  0  0  0  0  0  0  0
   -2.1840    8.9480   -2.3840 C   0  0  0  0  0  0  0  0  0  0  0  0
    2.1750   11.7680   -1.6820 C   0  0  1  0  0  0  0  0  0  0  0  0
    3.2570   10.8520   -2.3300 C   0  0  0  0  0  0  0  0  0  0  0  0
    2.9050   12.5860   -0.5520 C   0  0  0  0  0  0  0  0  0  0  0  0
    2.2980   13.9530   -0.1810 C   0  0  0  0  0  0  0  0  0  0  0  0
    2.0330   14.7930   -1.4350 C   0  0  2  0  0  0  0  0  0  0  0  0
    3.4110   15.0690   -2.1270 C   0  0  0  0  0  0  0  0  0  0  0  0
    2.7671   19.2623   -1.3553 H   0  0  0  0  0  0  0  0  0  0  0  0
    3.2847   17.9088   -2.4169 H   0  0  0  0  0  0  0  0  0  0  0  0
    1.5704   18.4453   -2.4169 H   0  0  0  0  0  0  0  0  0  0  0  0
    1.5845   17.8401    0.0968 H   0  0  0  0  0  0  0  0  0  0  0  0
    3.1418   16.1447    0.8538 H   0  0  0  0  0  0  0  0  0  0  0  0
    3.9692   16.1750   -0.7768 H   0  0  0  0  0  0  0  0  0  0  0  0
    5.3846   17.4046    0.6352 H   0  0  0  0  0  0  0  0  0  0  0  0
    4.4336   18.6327   -0.3008 H   0  0  0  0  0  0  0  0  0  0  0  0
    3.1240   17.7258    1.8497 H   0  0  0  0  0  0  0  0  0  0  0  0
    6.8499   19.1659    3.5129 H   0  0  0  0  0  0  0  0  0  0  0  0
    6.6456   18.2619    1.9742 H   0  0  0  0  0  0  0  0  0  0  0  0
    6.5971   20.0576    1.9742 H   0  0  0  0  0  0  0  0  0  0  0  0
    5.2096   19.0054    4.8609 H   0  0  0  0  0  0  0  0  0  0  0  0
    4.0604   20.2887    4.3518 H   0  0  0  0  0  0  0  0  0  0  0  0
    3.5433   18.5685    4.3518 H   0  0  0  0  0  0  0  0  0  0  0  0
    0.5752   16.0649   -0.4173 H   0  0  0  0  0  0  0  0  0  0  0  0
   -0.2929   16.8458   -2.5325 H   0  0  0  0  0  0  0  0  0  0  0  0
    1.3318   17.2126   -3.1515 H   0  0  0  0  0  0  0  0  0  0  0  0
   -0.2550   14.9527   -3.8878 H   0  0  0  0  0  0  0  0  0  0  0  0
    1.4706   15.0949   -4.2118 H   0  0  0  0  0  0  0  0  0  0  0  0
   -0.2798   13.8176   -0.5587 H   0  0  0  0  0  0  0  0  0  0  0  0
   -1.0994   14.5876   -1.9594 H   0  0  0  0  0  0  0  0  0  0  0  0
   -0.7939   12.8174   -1.9594 H   0  0  0  0  0  0  0  0  0  0  0  0
    2.4929   13.0526   -3.4050 H   0  0  0  0  0  0  0  0  0  0  0  0
    0.1578   12.6230   -4.4090 H   0  0  0  0  0  0  0  0  0  0  0  0
    1.4656   11.3281   -4.4510 H   0  0  0  0  0  0  0  0  0  0  0  0
   -0.9676   10.5074   -3.8638 H   0  0  0  0  0  0  0  0  0  0  0  0
    0.5880   11.5684   -0.2910 H   0  0  0  0  0  0  0  0  0  0  0  0
    2.0770    8.9760   -1.0360 H   0  0  0  0  0  0  0  0  0  0  0  0
    2.3153    9.9817    0.4617 H   0  0  0  0  0  0  0  0  0  0  0  0
    0.9689    7.9537    0.9001 H   0  0  0  0  0  0  0  0  0  0  0  0
    0.0550    9.4853    1.1917 H   0  0  0  0  0  0  0  0  0  0  0  0
   -1.3815    7.9363    0.0532 H   0  0  0  0  0  0  0  0  0  0  0  0
    0.6760    6.9360   -0.9690 H   0  0  0  0  0  0  0  0  0  0  0  0
   -1.8281   10.1796    0.6506 H   0  0  0  0  0  0  0  0  0  0  0  0
   -1.8623   11.4879   -0.5798 H   0  0  0  0  0  0  0  0  0  0  0  0
   -3.1361   10.2214   -0.5798 H   0  0  0  0  0  0  0  0  0  0  0  0
   -3.0063    8.4371   -1.8616 H   0  0  0  0  0  0  0  0  0  0  0  0
   -2.5931    9.7512   -3.0145 H   0  0  0  0  0  0  0  0  0  0  0  0
   -1.6451    8.2254   -3.0145 H   0  0  0  0  0  0  0  0  0  0  0  0
    3.8406   10.3580   -1.5392 H   0  0  0  0  0  0  0  0  0  0  0  0
    2.7667   10.0903   -2.9540 H   0  0  0  0  0  0  0  0  0  0  0  0
    3.9273   11.4613   -2.9540 H   0  0  0  0  0  0  0  0  0  0  0  0
    2.9100   11.9664    0.3569 H   0  0  0  0  0  0  0  0  0  0  0  0
    3.9008   12.8145   -0.9598 H   0  0  0  0  0  0  0  0  0  0  0  0
    1.3493   13.7929    0.3522 H   0  0  0  0  0  0  0  0  0  0  0  0
    3.0122   14.4924    0.4585 H   0  0  0  0  0  0  0  0  0  0  0  0
    4.1828   15.2236   -1.3586 H   0  0  0  0  0  0  0  0  0  0  0  0
    3.6853   14.2080   -2.7542 H   0  0  0  0  0  0  0  0  0  0  0  0
    3.3326   15.9693   -2.7542 H   0  0  0  0  0  0  0  0  0  0  0  0
  1  2  1  0
  2  3  1  0
  3  4  1  0
  4  5  1  0
  5  6  1  0
  6  7  1  0
  7  8  1  0
  7  9  1  0
  2 10  1  0
 10 11  1  0
 11 12  1  0
 12 13  1  0
 13 14  1  1
 13 15  1  0
 15 16  1  0
 16 17  1  0
 17 18  2  0
 18 19  1  0
 19 20  1  0
 20 21  1  0
 21 22  1  0
 22 23  1  0
 22 24  1  0
 24 25  1  0
 24 26  1  0
 19 27  1  0
 27 28  1  6
 27 29  1  0
 29 30  1  0
 30 31  1  0
 31 32  1  6
  7  5  1  0
 31 10  1  0
 31 13  1  0
 27 15  1  0
 24 18  1  0
  1 33  1  0
  1 34  1  0
  1 35  1  0
  2 36  1  1
  3 37  1  0
  3 38  1  0
  4 39  1  0
  4 40  1  0
  5 41  1  1
  8 42  1  0
  8 43  1  0
  8 44  1  0
  9 45  1  0
  9 46  1  0
  9 47  1  0
 10 48  1  1
 11 49  1  0
 11 50  1  0
 12 51  1  0
 12 52  1  0
 14 53  1  0
 14 54  1  0
 14 55  1  0
 15 56  1  6
 16 57  1  0
 16 58  1  0
 17 59  1  0
 19 60  1  1
 20 61  1  0
 20 62  1  0
 21 63  1  0
 21 64  1  0
 22 65  1  1
 23 66  1  0
 25 67  1  0
 25 68  1  0
 25 69  1  0
 26 70  1  0
 26 71  1  0
 26 72  1  0
 28 73  1  0
 28 74  1  0
 28 75  1  0
 29 76  1  0
 29 77  1  0
 30 78  1  0
 30 79  1  0
 32 80  1  0
 32 81  1  0
 32 82  1  0
M  END
>  <meeko>  (3) 
{"is_sidechain": [false], "intermolecular_energy": 2.731, "internal_energy": -0.839}

$$$$
EPH_relaxed_0001_pdb2pqr_Repair_165_r2_0001_out
     RDKit          3D

 82 86  0  0  0  0  0  0  0  0999 V2000
   -1.6110    8.7280   -1.8760 C   0  0  0  0  0  0  0  0  0  0  0  0
   -2.0290    9.1920   -0.4780 C   0  0  2  0  0  0  0  0  0  0  0  0
   -3.5390    9.4910   -0.3920 C   0  0  0  0  0  0  0  0  0  0  0  0
   -4.4100    8.2350   -0.2950 C   0  0  0  0  0  0  0  0  0  0  0  0
   -5.1240    7.9550   -1.5820 C   0  0  2  0  0  0  0  0  0  0  0  0
   -6.3250    8.7140   -1.7780 O   0  0  0  0  0  0  0  0  0  0  0  0
   -6.4870    7.2910   -1.6560 C   0  0  0  0  0  0  0  0  0  0  0  0
   -7.2150    6.8660   -0.4200 C   0  0  0  0  0  0  0  0  0  0  0  0
   -6.8870    6.6180   -2.9320 C   0  0  0  0  0  0  0  0  0  0  0  0
   -1.2300   10.4280   -0.0800 C   0  0  1  0  0  0  0  0  0  0  0  0
   -0.2800   10.1650    1.1190 C   0  0  0  0  0  0  0  0  0  0  0  0
    0.9900   11.0220    0.8800 C   0  0  0  0  0  0  0  0  0  0  0  0
    0.5970   11.9910   -0.2600 C   0  0  1  0  0  0  0  0  0  0  0  0
   -0.1960   13.1370    0.4440 C   0  0  0  0  0  0  0  0  0  0  0  0
    1.7720   12.5510   -1.1260 C   0  0  2  0  0  0  0  0  0  0  0  0
    2.7980   13.4060   -0.3610 C   0  0  0  0  0  0  0  0  0  0  0  0
    2.5040   14.8690   -0.3190 C   0  0  0  0  0  0  0  0  0  0  0  0
    1.6210   15.5120   -1.1060 C   0  0  0  0  0  0  0  0  0  0  0  0
    0.8790   14.7720   -2.2260 C   0  0  1  0  0  0  0  0  0  0  0  0
    0.9290   15.6160   -3.5270 C   0  0  0  0  0  0  0  0  0  0  0  0
    0.4110   17.0370   -3.3220 C   0  0  0  0  0  0  0  0  0  0  0  0
    1.2110   17.7590   -2.2420 C   0  0  2  0  0  0  0  0  0  0  0  0
    2.5480   17.9550   -2.7120 O   0  0  0  0  0  0  0  0  0  0  0  0
    1.2400   16.9970   -0.8880 C   0  0  0  0  0  0  0  0  0  0  0  0
   -0.1620   17.0470   -0.2320 C   0  0  0  0  0  0  0  0  0  0  0  0
    2.1950   17.7600    0.0700 C   0  0  0  0  0  0  0  0  0  0  0  0
    1.3110   13.2610   -2.4630 C   0  0  1  0  0  0  0  0  0  0  0  0
    2.5240   13.2010   -3.4410 C   0  0  0  0  0  0  0  0  0  0  0  0
    0.1310   12.4940   -3.1710 C   0  0  0  0  0  0  0  0  0  0  0  0
   -0.9340   11.8610   -2.2560 C   0  0  0  0  0  0  0  0  0  0  0  0
   -0.2810   11.0340   -1.1450 C   0  0  2  0  0  0  0  0  0  0  0  0
    0.5060    9.8610   -1.8220 C   0  0  0  0  0  0  0  0  0  0  0  0
   -0.8771    7.9134   -1.7878 H   0  0  0  0  0  0  0  0  0  0  0  0
   -2.4951    8.3675   -2.4223 H   0  0  0  0  0  0  0  0  0  0  0  0
   -1.1605    9.5698   -2.4223 H   0  0  0  0  0  0  0  0  0  0  0  0
   -1.8153    8.3698    0.2207 H   0  0  0  0  0  0  0  0  0  0  0  0
   -3.7205   10.1093    0.4995 H   0  0  0  0  0  0  0  0  0  0  0  0
   -3.8187   10.0054   -1.3232 H   0  0  0  0  0  0  0  0  0  0  0  0
   -3.7696    7.3753   -0.0483 H   0  0  0  0  0  0  0  0  0  0  0  0
   -5.1655    8.4012    0.4871 H   0  0  0  0  0  0  0  0  0  0  0  0
   -4.1721    7.7443   -2.0914 H   0  0  0  0  0  0  0  0  0  0  0  0
   -6.6535    7.1938    0.4673 H   0  0  0  0  0  0  0  0  0  0  0  0
   -8.2162    7.3215   -0.4093 H   0  0  0  0  0  0  0  0  0  0  0  0
   -7.3106    5.7702   -0.4093 H   0  0  0  0  0  0  0  0  0  0  0  0
   -7.4366    5.6933   -2.7022 H   0  0  0  0  0  0  0  0  0  0  0  0
   -7.5312    7.2920   -3.5157 H   0  0  0  0  0  0  0  0  0  0  0  0
   -5.9871    6.3742   -3.5157 H   0  0  0  0  0  0  0  0  0  0  0  0
   -2.0567   11.1234    0.1275 H   0  0  0  0  0  0  0  0  0  0  0  0
   -0.7662   10.4625    2.0598 H   0  0  0  0  0  0  0  0  0  0  0  0
   -0.0272    9.0972    1.1957 H   0  0  0  0  0  0  0  0  0  0  0  0
    1.2587   11.5802    1.7890 H   0  0  0  0  0  0  0  0  0  0  0  0
    1.8657   10.4080    0.6227 H   0  0  0  0  0  0  0  0  0  0  0  0
   -0.1161   13.0216    1.5350 H   0  0  0  0  0  0  0  0  0  0  0  0
    0.2233   14.1095    0.1465 H   0  0  0  0  0  0  0  0  0  0  0  0
   -1.2538   13.0873    0.1465 H   0  0  0  0  0  0  0  0  0  0  0  0
    2.3058   11.6347   -1.4183 H   0  0  0  0  0  0  0  0  0  0  0  0
    2.8420   13.0383    0.6748 H   0  0  0  0  0  0  0  0  0  0  0  0
    3.7477   13.3020   -0.9062 H   0  0  0  0  0  0  0  0  0  0  0  0
    3.0553   15.4725    0.4171 H   0  0  0  0  0  0  0  0  0  0  0  0
   -0.1623   14.6720   -1.8858 H   0  0  0  0  0  0  0  0  0  0  0  0
    1.9714   15.6672   -3.8745 H   0  0  0  0  0  0  0  0  0  0  0  0
    0.2794   15.1270   -4.2679 H   0  0  0  0  0  0  0  0  0  0  0  0
    0.4997   17.5923   -4.2674 H   0  0  0  0  0  0  0  0  0  0  0  0
   -0.6406   16.9846   -3.0037 H   0  0  0  0  0  0  0  0  0  0  0  0
    0.7122   18.7204   -2.0500 H   0  0  0  0  0  0  0  0  0  0  0  0
    2.7760   17.1960   -3.2750 H   0  0  0  0  0  0  0  0  0  0  0  0
   -0.0549   17.0432    0.8628 H   0  0  0  0  0  0  0  0  0  0  0  0
   -0.6814   17.9642   -0.5464 H   0  0  0  0  0  0  0  0  0  0  0  0
   -0.7455   16.1691   -0.5464 H   0  0  0  0  0  0  0  0  0  0  0  0
    1.9207   17.5408    1.1124 H   0  0  0  0  0  0  0  0  0  0  0  0
    3.2310   17.4381   -0.1120 H   0  0  0  0  0  0  0  0  0  0  0  0
    2.1098   18.8415   -0.1120 H   0  0  0  0  0  0  0  0  0  0  0  0
    3.4589   13.1548   -2.8632 H   0  0  0  0  0  0  0  0  0  0  0  0
    2.4400   12.3059   -4.0748 H   0  0  0  0  0  0  0  0  0  0  0  0
    2.5288   14.1000   -4.0748 H   0  0  0  0  0  0  0  0  0  0  0  0
   -0.3808   13.2085   -3.8325 H   0  0  0  0  0  0  0  0  0  0  0  0
    0.6070   11.6472   -3.6871 H   0  0  0  0  0  0  0  0  0  0  0  0
   -1.5388   12.6597   -1.8018 H   0  0  0  0  0  0  0  0  0  0  0  0
   -1.5667   11.1961   -2.8623 H   0  0  0  0  0  0  0  0  0  0  0  0
    0.9400    9.2142   -1.0452 H   0  0  0  0  0  0  0  0  0  0  0  0
   -0.1805    9.2721   -2.4481 H   0  0  0  0  0  0  0  0  0  0  0  0
    1.3112   10.2729   -2.4481 H   0  0  0  0  0  0  0  0  0  0  0  0
  1  2  1  0
  2  3  1  0
  3  4  1  0
  4  5  1  0
  5  6  1  0
  6  7  1  0
  7  8  1  0
  7  9  1  0
  2 10  1  0
 10 11  1  0
 11 12  1  0
 12 13  1  0
 13 14  1  1
 13 15  1  0
 15 16  1  0
 16 17  1  0
 17 18  2  0
 18 19  1  0
 19 20  1  0
 20 21  1  0
 21 22  1  0
 22 23  1  0
 22 24  1  0
 24 25  1  0
 24 26  1  0
 19 27  1  0
 27 28  1  6
 27 29  1  0
 29 30  1  0
 30 31  1  0
 31 32  1  6
  7  5  1  0
 31 10  1  0
 31 13  1  0
 27 15  1  0
 24 18  1  0
  1 33  1  0
  1 34  1  0
  1 35  1  0
  2 36  1  1
  3 37  1  0
  3 38  1  0
  4 39  1  0
  4 40  1  0
  5 41  1  6
  8 42  1  0
  8 43  1  0
  8 44  1  0
  9 45  1  0
  9 46  1  0
  9 47  1  0
 10 48  1  1
 11 49  1  0
 11 50  1  0
 12 51  1  0
 12 52  1  0
 14 53  1  0
 14 54  1  0
 14 55  1  0
 15 56  1  6
 16 57  1  0
 16 58  1  0
 17 59  1  0
 19 60  1  1
 20 61  1  0
 20 62  1  0
 21 63  1  0
 21 64  1  0
 22 65  1  1
 23 66  1  0
 25 67  1  0
 25 68  1  0
 25 69  1  0
 26 70  1  0
 26 71  1  0
 26 72  1  0
 28 73  1  0
 28 74  1  0
 28 75  1  0
 29 76  1  0
 29 77  1  0
 30 78  1  0
 30 79  1  0
 32 80  1  0
 32 81  1  0
 32 82  1  0
M  END
>  <meeko>  (4) 
{"is_sidechain": [false], "intermolecular_energy": 2.731, "internal_energy": -0.839}

$$$$
EPH_relaxed_0001_pdb2pqr_Repair_165_r2_0001_out
     RDKit          3D

 82 86  0  0  0  0  0  0  0  0999 V2000
    2.3650   19.2990   -0.2600 C   0  0  0  0  0  0  0  0  0  0  0  0
    3.0140   17.9190   -0.3870 C   0  0  2  0  0  0  0  0  0  0  0  0
    3.8840   17.8000   -1.6550 C   0  0  0  0  0  0  0  0  0  0  0  0
    5.3180   17.3440   -1.3770 C   0  0  0  0  0  0  0  0  0  0  0  0
    6.2370   17.6790   -2.5130 C   0  0  2  0  0  0  0  0  0  0  0  0
    5.6750   17.4770   -3.8160 O   0  0  0  0  0  0  0  0  0  0  0  0
    6.7940   16.6440   -3.4720 C   0  0  0  0  0  0  0  0  0  0  0  0
    6.4530   15.1930   -3.3380 C   0  0  0  0  0  0  0  0  0  0  0  0
    8.0440   16.9690   -4.2290 C   0  0  0  0  0  0  0  0  0  0  0  0
    1.9400   16.8370   -0.3890 C   0  0  1  0  0  0  0  0  0  0  0  0
    0.5300   17.3970   -0.7180 C   0  0  0  0  0  0  0  0  0  0  0  0
   -0.2080   16.3010   -1.5300 C   0  0  0  0  0  0  0  0  0  0  0  0
    0.6640   15.0350   -1.3600 C   0  0  1  0  0  0  0  0  0  0  0  0
    0.2590   14.4540    0.0310 C   0  0  0  0  0  0  0  0  0  0  0  0
    0.5510   13.9610   -2.4900 C   0  0  2  0  0  0  0  0  0  0  0  0
   -0.8430   13.3310   -2.6540 C   0  0  0  0  0  0  0  0  0  0  0  0
   -1.0850   12.0990   -1.8460 C   0  0  0  0  0  0  0  0  0  0  0  0
   -0.1350   11.3600   -1.2430 C   0  0  0  0  0  0  0  0  0  0  0  0
    1.3530   11.6890   -1.4250 C   0  0  1  0  0  0  0  0  0  0  0  0
    2.1370   10.3860   -1.7320 C   0  0  0  0  0  0  0  0  0  0  0  0
    1.9030    9.3010   -0.6850 C   0  0  0  0  0  0  0  0  0  0  0  0
    0.4190    8.9610   -0.5750 C   0  0  2  0  0  0  0  0  0  0  0  0
   -0.0050    8.3460   -1.7950 O   0  0  0  0  0  0  0  0  0  0  0  0
   -0.4730   10.1990   -0.2760 C   0  0  0  0  0  0  0  0  0  0  0  0
   -0.2220   10.6840    1.1730 C   0  0  0  0  0  0  0  0  0  0  0  0
   -1.9560    9.7420   -0.3300 C   0  0  0  0  0  0  0  0  0  0  0  0
    1.6840   12.8570   -2.4500 C   0  0  1  0  0  0  0  0  0  0  0  0
    1.7950   12.2810   -3.8950 C   0  0  0  0  0  0  0  0  0  0  0  0
    3.0960   13.4600   -2.1030 C   0  0  0  0  0  0  0  0  0  0  0  0
    3.1290   14.6000   -1.0670 C   0  0  0  0  0  0  0  0  0  0  0  0
    2.0970   15.6800   -1.4080 C   0  0  2  0  0  0  0  0  0  0  0  0
    2.4920   16.2990   -2.7920 C   0  0  0  0  0  0  0  0  0  0  0  0
    2.2461   19.5518    0.8039 H   0  0  0  0  0  0  0  0  0  0  0  0
    3.0039   20.0508   -0.7463 H   0  0  0  0  0  0  0  0  0  0  0  0
    1.3784   19.2864   -0.7463 H   0  0  0  0  0  0  0  0  0  0  0  0
    3.6759   17.7843    0.4812 H   0  0  0  0  0  0  0  0  0  0  0  0
    3.4132   17.0720   -2.3320 H   0  0  0  0  0  0  0  0  0  0  0  0
    3.9465   18.8052   -2.0972 H   0  0  0  0  0  0  0  0  0  0  0  0
    5.6805   17.8432   -0.4663 H   0  0  0  0  0  0  0  0  0  0  0  0
    5.3119   16.2511   -1.2520 H   0  0  0  0  0  0  0  0  0  0  0  0
    6.7194   18.4704   -1.9206 H   0  0  0  0  0  0  0  0  0  0  0  0
    6.3907   14.9279   -2.2722 H   0  0  0  0  0  0  0  0  0  0  0  0
    5.4845   14.9978   -3.8216 H   0  0  0  0  0  0  0  0  0  0  0  0
    7.2332   14.5868   -3.8216 H   0  0  0  0  0  0  0  0  0  0  0  0
    8.8577   17.1806   -3.5197 H   0  0  0  0  0  0  0  0  0  0  0  0
    8.3224   16.1134   -4.8618 H   0  0  0  0  0  0  0  0  0  0  0  0
    7.8704   17.8519   -4.8618 H   0  0  0  0  0  0  0  0  0  0  0  0
    2.0609   16.4548    0.6354 H   0  0  0  0  0  0  0  0  0  0  0  0
   -0.0178   17.6137    0.2109 H   0  0  0  0  0  0  0  0  0  0  0  0
    0.6006   18.3332   -1.2911 H   0  0  0  0  0  0  0  0  0  0  0  0
   -1.2180   16.1336   -1.1276 H   0  0  0  0  0  0  0  0  0  0  0  0
   -0.3364   16.5801   -2.5862 H   0  0  0  0  0  0  0  0  0  0  0  0
    0.6924   15.0757    0.8283 H   0  0  0  0  0  0  0  0  0  0  0  0
   -0.8372   14.4520    0.1225 H   0  0  0  0  0  0  0  0  0  0  0  0
    0.6364   13.4248    0.1225 H   0  0  0  0  0  0  0  0  0  0  0  0
    0.7180   14.5565   -3.3997 H   0  0  0  0  0  0  0  0  0  0  0  0
   -1.5919   14.0818   -2.3616 H   0  0  0  0  0  0  0  0  0  0  0  0
   -0.9159   13.0232   -3.7075 H   0  0  0  0  0  0  0  0  0  0  0  0
   -2.1277   11.7671   -1.7340 H   0  0  0  0  0  0  0  0  0  0  0  0
    1.6913   12.1110   -0.4671 H   0  0  0  0  0  0  0  0  0  0  0  0
    1.8164   10.0045   -2.7127 H   0  0  0  0  0  0  0  0  0  0  0  0
    3.2091   10.6320   -1.7236 H   0  0  0  0  0  0  0  0  0  0  0  0
    2.4592    8.3967   -0.9729 H   0  0  0  0  0  0  0  0  0  0  0  0
    2.2516    9.6725    0.2899 H   0  0  0  0  0  0  0  0  0  0  0  0
    0.3002    8.2758    0.2773 H   0  0  0  0  0  0  0  0  0  0  0  0
   -0.8040    8.8100   -2.0970 H   0  0  0  0  0  0  0  0  0  0  0  0
   -0.6086    9.9370    1.8819 H   0  0  0  0  0  0  0  0  0  0  0  0
    0.8581   10.8170    1.3332 H   0  0  0  0  0  0  0  0  0  0  0  0
   -0.7372   11.6426    1.3332 H   0  0  0  0  0  0  0  0  0  0  0  0
   -2.3407    9.6235    0.6937 H   0  0  0  0  0  0  0  0  0  0  0  0
   -2.5535   10.4977   -0.8610 H   0  0  0  0  0  0  0  0  0  0  0  0
   -2.0245    8.7811   -0.8610 H   0  0  0  0  0  0  0  0  0  0  0  0
    2.0029   11.2020   -3.8446 H   0  0  0  0  0  0  0  0  0  0  0  0
    0.8483   12.4474   -4.4298 H   0  0  0  0  0  0  0  0  0  0  0  0
    2.6121   12.7873   -4.4298 H   0  0  0  0  0  0  0  0  0  0  0  0
    3.7217   12.6416   -1.7173 H   0  0  0  0  0  0  0  0  0  0  0  0
    3.4541   13.9119   -3.0398 H   0  0  0  0  0  0  0  0  0  0  0  0
    2.9042   14.1887   -0.0719 H   0  0  0  0  0  0  0  0  0  0  0  0
    4.1303   15.0553   -1.0778 H   0  0  0  0  0  0  0  0  0  0  0  0
    3.0773   17.2162   -2.6298 H   0  0  0  0  0  0  0  0  0  0  0  0
    3.0952   15.5746   -3.3589 H   0  0  0  0  0  0  0  0  0  0  0  0
    1.5809   16.5409   -3.3589 H   0  0  0  0  0  0  0  0  0  0  0  0
  1  2  1  0
  2  3  1  0
  3  4  1  0
  4  5  1  0
  5  6  1  0
  6  7  1  0
  7  8  1  0
  7  9  1  0
  2 10  1  0
 10 11  1  0
 11 12  1  0
 12 13  1  0
 13 14  1  1
 13 15  1  0
 15 16  1  0
 16 17  1  0
 17 18  2  0
 18 19  1  0
 19 20  1  0
 20 21  1  0
 21 22  1  0
 22 23  1  0
 22 24  1  0
 24 25  1  0
 24 26  1  0
 19 27  1  0
 27 28  1  6
 27 29  1  0
 29 30  1  0
 30 31  1  0
 31 32  1  6
  7  5  1  0
 31 10  1  0
 31 13  1  0
 27 15  1  0
 24 18  1  0
  1 33  1  0
  1 34  1  0
  1 35  1  0
  2 36  1  1
  3 37  1  0
  3 38  1  0
  4 39  1  0
  4 40  1  0
  5 41  1  1
  8 42  1  0
  8 43  1  0
  8 44  1  0
  9 45  1  0
  9 46  1  0
  9 47  1  0
 10 48  1  1
 11 49  1  0
 11 50  1  0
 12 51  1  0
 12 52  1  0
 14 53  1  0
 14 54  1  0
 14 55  1  0
 15 56  1  6
 16 57  1  0
 16 58  1  0
 17 59  1  0
 19 60  1  1
 20 61  1  0
 20 62  1  0
 21 63  1  0
 21 64  1  0
 22 65  1  1
 23 66  1  0
 25 67  1  0
 25 68  1  0
 25 69  1  0
 26 70  1  0
 26 71  1  0
 26 72  1  0
 28 73  1  0
 28 74  1  0
 28 75  1  0
 29 76  1  0
 29 77  1  0
 30 78  1  0
 30 79  1  0
 32 80  1  0
 32 81  1  0
 32 82  1  0
M  END
>  <meeko>  (5) 
{"is_sidechain": [false], "intermolecular_energy": 2.731, "internal_energy": -0.839}

$$$$
EPH_relaxed_0001_pdb2pqr_Repair_165_r2_0001_out
     RDKit          3D

 82 86  0  0  0  0  0  0  0  0999 V2000
   -0.8000    7.8970   -0.4910 C   0  0  0  0  0  0  0  0  0  0  0  0
   -1.2010    9.2690    0.0580 C   0  0  2  0  0  0  0  0  0  0  0  0
   -2.4510    9.8330   -0.6460 C   0  0  0  0  0  0  0  0  0  0  0  0
   -3.7700    9.3300   -0.0550 C   0  0  0  0  0  0  0  0  0  0  0  0
   -4.1060    7.9530   -0.5420 C   0  0  2  0  0  0  0  0  0  0  0  0
   -4.2240    7.8330   -1.9660 O   0  0  0  0  0  0  0  0  0  0  0  0
   -5.4220    7.5990   -1.2090 C   0  0  0  0  0  0  0  0  0  0  0  0
   -6.4890    8.6270   -1.4240 C   0  0  0  0  0  0  0  0  0  0  0  0
   -5.8640    6.1690   -1.2070 C   0  0  0  0  0  0  0  0  0  0  0  0
   -0.0380   10.2440   -0.0820 C   0  0  1  0  0  0  0  0  0  0  0  0
    1.3430    9.5390   -0.0360 C   0  0  0  0  0  0  0  0  0  0  0  0
    2.2750   10.3170   -1.0000 C   0  0  0  0  0  0  0  0  0  0  0  0
    1.5110   11.6250   -1.3100 C   0  0  1  0  0  0  0  0  0  0  0  0
    1.7920   12.5540   -0.0870 C   0  0  0  0  0  0  0  0  0  0  0  0
    1.8640   12.3280   -2.6610 C   0  0  2  0  0  0  0  0  0  0  0  0
    3.3200   12.8090   -2.7860 C   0  0  0  0  0  0  0  0  0  0  0  0
    3.5740   14.2040   -2.3180 C   0  0  0  0  0  0  0  0  0  0  0  0
    2.6290   15.1340   -2.0840 C   0  0  0  0  0  0  0  0  0  0  0  0
    1.1520   14.8490   -2.3850 C   0  0  1  0  0  0  0  0  0  0  0  0
    0.5370   16.0530   -3.1470 C   0  0  0  0  0  0  0  0  0  0  0  0
    0.7390   17.3750   -2.4120 C   0  0  0  0  0  0  0  0  0  0  0  0
    2.2230   17.6510   -2.1830 C   0  0  2  0  0  0  0  0  0  0  0  0
    2.8510   17.8720   -3.4500 O   0  0  0  0  0  0  0  0  0  0  0  0
    2.9510   16.5010   -1.4320 C   0  0  0  0  0  0  0  0  0  0  0  0
    2.4770   16.4610    0.0420 C   0  0  0  0  0  0  0  0  0  0  0  0
    4.4660   16.8410   -1.3920 C   0  0  0  0  0  0  0  0  0  0  0  0
    0.8430   13.4590   -3.0900 C   0  0  1  0  0  0  0  0  0  0  0  0
    0.9670   13.6080   -4.6370 C   0  0  0  0  0  0  0  0  0  0  0  0
   -0.6510   13.0570   -2.8010 C   0  0  0  0  0  0  0  0  0  0  0  0
   -0.9190   12.2600   -1.5100 C   0  0  0  0  0  0  0  0  0  0  0  0
    0.0410   11.0730   -1.3890 C   0  0  2  0  0  0  0  0  0  0  0  0
   -0.2340   10.1100   -2.5940 C   0  0  0  0  0  0  0  0  0  0  0  0
   -0.5997    7.2116    0.3457 H   0  0  0  0  0  0  0  0  0  0  0  0
   -1.6182    7.4949   -1.1065 H   0  0  0  0  0  0  0  0  0  0  0  0
    0.1059    7.9989   -1.1065 H   0  0  0  0  0  0  0  0  0  0  0  0
   -1.4519    9.1405    1.1213 H   0  0  0  0  0  0  0  0  0  0  0  0
   -2.4300   10.9298   -0.5648 H   0  0  0  0  0  0  0  0  0  0  0  0
   -2.4146    9.4885   -1.6900 H   0  0  0  0  0  0  0  0  0  0  0  0
   -3.6845    9.3094    1.0415 H   0  0  0  0  0  0  0  0  0  0  0  0
   -4.5715   10.0121   -0.3750 H   0  0  0  0  0  0  0  0  0  0  0  0
   -3.5574    7.4979    0.2958 H   0  0  0  0  0  0  0  0  0  0  0  0
   -6.8576    8.9821   -0.4503 H   0  0  0  0  0  0  0  0  0  0  0  0
   -6.0735    9.4739   -1.9898 H   0  0  0  0  0  0  0  0  0  0  0  0
   -7.3198    8.1803   -1.9898 H   0  0  0  0  0  0  0  0  0  0  0  0
   -5.9719    5.8200   -0.1694 H   0  0  0  0  0  0  0  0  0  0  0  0
   -6.8306    6.0833   -1.7251 H   0  0  0  0  0  0  0  0  0  0  0  0
   -5.1144    5.5528   -1.7251 H   0  0  0  0  0  0  0  0  0  0  0  0
   -0.2486   10.9053    0.7714 H   0  0  0  0  0  0  0  0  0  0  0  0
    1.7481    9.5658    0.9863 H   0  0  0  0  0  0  0  0  0  0  0  0
    1.2578    8.4838   -0.3350 H   0  0  0  0  0  0  0  0  0  0  0  0
    3.2387   10.5354   -0.5166 H   0  0  0  0  0  0  0  0  0  0  0  0
    2.5067    9.7436   -1.9097 H   0  0  0  0  0  0  0  0  0  0  0  0
    1.6228   11.9946    0.8449 H   0  0  0  0  0  0  0  0  0  0  0  0
    2.8353   12.9009   -0.1221 H   0  0  0  0  0  0  0  0  0  0  0  0
    1.1159   13.4210   -0.1221 H   0  0  0  0  0  0  0  0  0  0  0  0
    1.7568   11.5088   -3.3872 H   0  0  0  0  0  0  0  0  0  0  0  0
    3.9536   12.1316   -2.1946 H   0  0  0  0  0  0  0  0  0  0  0  0
    3.5511   12.8023   -3.8614 H   0  0  0  0  0  0  0  0  0  0  0  0
    4.6211   14.4964   -2.1503 H   0  0  0  0  0  0  0  0  0  0  0  0
    0.6598   14.7342   -1.4080 H   0  0  0  0  0  0  0  0  0  0  0  0
    1.0117   16.1236   -4.1368 H   0  0  0  0  0  0  0  0  0  0  0  0
   -0.5460   15.8785   -3.2291 H   0  0  0  0  0  0  0  0  0  0  0  0
    0.3098   18.1902   -3.0130 H   0  0  0  0  0  0  0  0  0  0  0  0
    0.2385   17.3131   -1.4344 H   0  0  0  0  0  0  0  0  0  0  0  0
    2.2985   18.5413   -1.5414 H   0  0  0  0  0  0  0  0  0  0  0  0
    3.0460   17.0020   -3.8370 H   0  0  0  0  0  0  0  0  0  0  0  0
    3.3483   16.5345    0.7095 H   0  0  0  0  0  0  0  0  0  0  0  0
    1.7975   17.3050    0.2317 H   0  0  0  0  0  0  0  0  0  0  0  0
    1.9486   15.5151    0.2317 H   0  0  0  0  0  0  0  0  0  0  0  0
    4.7976   16.9154   -0.3458 H   0  0  0  0  0  0  0  0  0  0  0  0
    5.0334   16.0478   -1.9009 H   0  0  0  0  0  0  0  0  0  0  0  0
    4.6400   17.8005   -1.9009 H   0  0  0  0  0  0  0  0  0  0  0  0
    1.6544   14.4340   -4.8719 H   0  0  0  0  0  0  0  0  0  0  0  0
    1.3574   12.6730   -5.0653 H   0  0  0  0  0  0  0  0  0  0  0  0
   -0.0233   13.8221   -5.0653 H   0  0  0  0  0  0  0  0  0  0  0  0
   -1.2407   13.9841   -2.7482 H   0  0  0  0  0  0  0  0  0  0  0  0
   -0.9302   12.3789   -3.6209 H   0  0  0  0  0  0  0  0  0  0  0  0
   -0.7824   12.9230   -0.6430 H   0  0  0  0  0  0  0  0  0  0  0  0
   -1.9492   11.8758   -1.5426 H   0  0  0  0  0  0  0  0  0  0  0  0
   -0.5174    9.1177   -2.2131 H   0  0  0  0  0  0  0  0  0  0  0  0
   -1.0525   10.5147   -3.2074 H   0  0  0  0  0  0  0  0  0  0  0  0
    0.6748   10.0215   -3.2074 H   0  0  0  0  0  0  0  0  0  0  0  0
  1  2  1  0
  2  3  1  0
  3  4  1  0
  4  5  1  0
  5  6  1  0
  6  7  1  0
  7  8  1  0
  7  9  1  0
  2 10  1  0
 10 11  1  0
 11 12  1  0
 12 13  1  0
 13 14  1  1
 13 15  1  0
 15 16  1  0
 16 17  1  0
 17 18  2  0
 18 19  1  0
 19 20  1  0
 20 21  1  0
 21 22  1  0
 22 23  1  0
 22 24  1  0
 24 25  1  0
 24 26  1  0
 19 27  1  0
 27 28  1  6
 27 29  1  0
 29 30  1  0
 30 31  1  0
 31 32  1  6
  7  5  1  0
 31 10  1  0
 31 13  1  0
 27 15  1  0
 24 18  1  0
  1 33  1  0
  1 34  1  0
  1 35  1  0
  2 36  1  1
  3 37  1  0
  3 38  1  0
  4 39  1  0
  4 40  1  0
  5 41  1  1
  8 42  1  0
  8 43  1  0
  8 44  1  0
  9 45  1  0
  9 46  1  0
  9 47  1  0
 10 48  1  1
 11 49  1  0
 11 50  1  0
 12 51  1  0
 12 52  1  0
 14 53  1  0
 14 54  1  0
 14 55  1  0
 15 56  1  6
 16 57  1  0
 16 58  1  0
 17 59  1  0
 19 60  1  1
 20 61  1  0
 20 62  1  0
 21 63  1  0
 21 64  1  0
 22 65  1  1
 23 66  1  0
 25 67  1  0
 25 68  1  0
 25 69  1  0
 26 70  1  0
 26 71  1  0
 26 72  1  0
 28 73  1  0
 28 74  1  0
 28 75  1  0
 29 76  1  0
 29 77  1  0
 30 78  1  0
 30 79  1  0
 32 80  1  0
 32 81  1  0
 32 82  1  0
M  END
>  <meeko>  (6) 
{"is_sidechain": [false], "intermolecular_energy": 2.731, "internal_energy": -0.839}

$$$$
EPH_relaxed_0001_pdb2pqr_Repair_165_r2_0001_out
     RDKit          3D

 82 86  0  0  0  0  0  0  0  0999 V2000
    1.1700   18.2130   -0.2280 C   0  0  0  0  0  0  0  0  0  0  0  0
    2.0940   17.0810   -0.6880 C   0  0  2  0  0  0  0  0  0  0  0  0
    3.1170   17.5580   -1.7380 C   0  0  0  0  0  0  0  0  0  0  0  0
    4.5670   17.2210   -1.3810 C   0  0  0  0  0  0  0  0  0  0  0  0
    5.5270   17.7460   -2.4060 C   0  0  2  0  0  0  0  0  0  0  0  0
    5.1830   17.4360   -3.7620 O   0  0  0  0  0  0  0  0  0  0  0  0
    6.4000   16.8550   -3.2680 C   0  0  0  0  0  0  0  0  0  0  0  0
    6.3560   15.3640   -3.1450 C   0  0  0  0  0  0  0  0  0  0  0  0
    7.6380   17.4380   -3.8770 C   0  0  0  0  0  0  0  0  0  0  0  0
    1.2660   15.9320   -1.2520 C   0  0  1  0  0  0  0  0  0  0  0  0
    0.7240   16.2280   -2.6760 C   0  0  0  0  0  0  0  0  0  0  0  0
    0.7270   14.8820   -3.4450 C   0  0  0  0  0  0  0  0  0  0  0  0
    0.9500   13.8100   -2.3520 C   0  0  1  0  0  0  0  0  0  0  0  0
   -0.4580   13.5870   -1.7150 C   0  0  0  0  0  0  0  0  0  0  0  0
    1.5880   12.4630   -2.8260 C   0  0  2  0  0  0  0  0  0  0  0  0
    0.7530   11.6670   -3.8440 C   0  0  0  0  0  0  0  0  0  0  0  0
   -0.2020   10.6830   -3.2550 C   0  0  0  0  0  0  0  0  0  0  0  0
   -0.1850   10.2410   -1.9840 C   0  0  0  0  0  0  0  0  0  0  0  0
    0.9300   10.6630   -1.0180 C   0  0  1  0  0  0  0  0  0  0  0  0
    1.4590    9.4170   -0.2610 C   0  0  0  0  0  0  0  0  0  0  0  0
    0.3470    8.6390    0.4360 C   0  0  0  0  0  0  0  0  0  0  0  0
   -0.7110    8.1860   -0.5660 C   0  0  2  0  0  0  0  0  0  0  0  0
   -0.1290    7.2210   -1.4480 O   0  0  0  0  0  0  0  0  0  0  0  0
   -1.3110    9.3560   -1.3950 C   0  0  0  0  0  0  0  0  0  0  0  0
   -2.1970   10.2400   -0.4830 C   0  0  0  0  0  0  0  0  0  0  0  0
   -2.2600    8.7470   -2.4630 C   0  0  0  0  0  0  0  0  0  0  0  0
    2.0980   11.5380   -1.6470 C   0  0  1  0  0  0  0  0  0  0  0  0
    3.1920   10.6070   -2.2540 C   0  0  0  0  0  0  0  0  0  0  0  0
    2.7990   12.3600   -0.5020 C   0  0  0  0  0  0  0  0  0  0  0  0
    2.1930   13.7350   -0.1620 C   0  0  0  0  0  0  0  0  0  0  0  0
    1.9740   14.5660   -1.4300 C   0  0  2  0  0  0  0  0  0  0  0  0
    3.3760   14.8240   -2.0810 C   0  0  0  0  0  0  0  0  0  0  0  0
    1.1458   18.2427    0.8713 H   0  0  0  0  0  0  0  0  0  0  0  0
    1.5462   19.1725   -0.6125 H   0  0  0  0  0  0  0  0  0  0  0  0
    0.1546   18.0366   -0.6125 H   0  0  0  0  0  0  0  0  0  0  0  0
    2.6589   16.7362    0.1906 H   0  0  0  0  0  0  0  0  0  0  0  0
    2.8761   17.0810   -2.6995 H   0  0  0  0  0  0  0  0  0  0  0  0
    3.0435   18.6546   -1.7838 H   0  0  0  0  0  0  0  0  0  0  0  0
    4.8072   17.6687   -0.4054 H   0  0  0  0  0  0  0  0  0  0  0  0
    4.6662   16.1260   -1.3475 H   0  0  0  0  0  0  0  0  0  0  0  0
    5.7574   18.6188   -1.7774 H   0  0  0  0  0  0  0  0  0  0  0  0
    6.3477   15.0839   -2.0813 H   0  0  0  0  0  0  0  0  0  0  0  0
    5.4462   14.9826   -3.6317 H   0  0  0  0  0  0  0  0  0  0  0  0
    7.2417   14.9296   -3.6317 H   0  0  0  0  0  0  0  0  0  0  0  0
    8.3226   17.7604   -3.0786 H   0  0  0  0  0  0  0  0  0  0  0  0
    8.1330   16.6783   -4.4998 H   0  0  0  0  0  0  0  0  0  0  0  0
    7.3677   18.3034   -4.4998 H   0  0  0  0  0  0  0  0  0  0  0  0
    0.4966   15.8582   -0.4693 H   0  0  0  0  0  0  0  0  0  0  0  0
   -0.2990   16.6278   -2.6163 H   0  0  0  0  0  0  0  0  0  0  0  0
    1.3469   16.9764   -3.1878 H   0  0  0  0  0  0  0  0  0  0  0  0
   -0.2350   14.7233   -3.9543 H   0  0  0  0  0  0  0  0  0  0  0  0
    1.5007   14.8491   -4.2263 H   0  0  0  0  0  0  0  0  0  0  0  0
   -0.3707   13.6008   -0.6186 H   0  0  0  0  0  0  0  0  0  0  0  0
   -1.1381   14.3886   -2.0388 H   0  0  0  0  0  0  0  0  0  0  0  0
   -0.8571   12.6145   -2.0388 H   0  0  0  0  0  0  0  0  0  0  0  0
    2.4790   12.8039   -3.3736 H   0  0  0  0  0  0  0  0  0  0  0  0
    0.1745   12.3846   -4.4442 H   0  0  0  0  0  0  0  0  0  0  0  0
    1.4717   11.0783   -4.4330 H   0  0  0  0  0  0  0  0  0  0  0  0
   -0.9863   10.2853   -3.9158 H   0  0  0  0  0  0  0  0  0  0  0  0
    0.4671   11.3623   -0.3062 H   0  0  0  0  0  0  0  0  0  0  0  0
    1.9563    8.7515   -0.9819 H   0  0  0  0  0  0  0  0  0  0  0  0
    2.1562    9.7686    0.5138 H   0  0  0  0  0  0  0  0  0  0  0  0
    0.7794    7.7550    0.9276 H   0  0  0  0  0  0  0  0  0  0  0  0
   -0.1301    9.2962    1.1779 H   0  0  0  0  0  0  0  0  0  0  0  0
   -1.5418    7.7494    0.0077 H   0  0  0  0  0  0  0  0  0  0  0  0
    0.2310    6.5020   -0.9010 H   0  0  0  0  0  0  0  0  0  0  0  0
   -1.9744   10.0179    0.5711 H   0  0  0  0  0  0  0  0  0  0  0  0
   -1.9886   11.3008   -0.6861 H   0  0  0  0  0  0  0  0  0  0  0  0
   -3.2573   10.0292   -0.6861 H   0  0  0  0  0  0  0  0  0  0  0  0
   -3.0843    8.2181   -1.9622 H   0  0  0  0  0  0  0  0  0  0  0  0
   -2.6690    9.5517   -3.0916 H   0  0  0  0  0  0  0  0  0  0  0  0
   -1.6989    8.0399   -3.0916 H   0  0  0  0  0  0  0  0  0  0  0  0
    3.7566   10.1265   -1.4414 H   0  0  0  0  0  0  0  0  0  0  0  0
    2.7134    9.8349   -2.8744 H   0  0  0  0  0  0  0  0  0  0  0  0
    3.8776   11.2029   -2.8744 H   0  0  0  0  0  0  0  0  0  0  0  0
    2.7701   11.7486    0.4120 H   0  0  0  0  0  0  0  0  0  0  0  0
    3.8089   12.5766   -0.8805 H   0  0  0  0  0  0  0  0  0  0  0  0
    1.2270   13.5876    0.3430 H   0  0  0  0  0  0  0  0  0  0  0  0
    2.8921   14.2740    0.4943 H   0  0  0  0  0  0  0  0  0  0  0  0
    4.1277   14.9623   -1.2899 H   0  0  0  0  0  0  0  0  0  0  0  0
    3.6547   13.9621   -2.7050 H   0  0  0  0  0  0  0  0  0  0  0  0
    3.3296   15.7287   -2.7050 H   0  0  0  0  0  0  0  0  0  0  0  0
  1  2  1  0
  2  3  1  0
  3  4  1  0
  4  5  1  0
  5  6  1  0
  6  7  1  0
  7  8  1  0
  7  9  1  0
  2 10  1  0
 10 11  1  0
 11 12  1  0
 12 13  1  0
 13 14  1  1
 13 15  1  0
 15 16  1  0
 16 17  1  0
 17 18  2  0
 18 19  1  0
 19 20  1  0
 20 21  1  0
 21 22  1  0
 22 23  1  0
 22 24  1  0
 24 25  1  0
 24 26  1  0
 19 27  1  0
 27 28  1  6
 27 29  1  0
 29 30  1  0
 30 31  1  0
 31 32  1  6
  7  5  1  0
 31 10  1  0
 31 13  1  0
 27 15  1  0
 24 18  1  0
  1 33  1  0
  1 34  1  0
  1 35  1  0
  2 36  1  1
  3 37  1  0
  3 38  1  0
  4 39  1  0
  4 40  1  0
  5 41  1  6
  8 42  1  0
  8 43  1  0
  8 44  1  0
  9 45  1  0
  9 46  1  0
  9 47  1  0
 10 48  1  1
 11 49  1  0
 11 50  1  0
 12 51  1  0
 12 52  1  0
 14 53  1  0
 14 54  1  0
 14 55  1  0
 15 56  1  6
 16 57  1  0
 16 58  1  0
 17 59  1  0
 19 60  1  1
 20 61  1  0
 20 62  1  0
 21 63  1  0
 21 64  1  0
 22 65  1  1
 23 66  1  0
 25 67  1  0
 25 68  1  0
 25 69  1  0
 26 70  1  0
 26 71  1  0
 26 72  1  0
 28 73  1  0
 28 74  1  0
 28 75  1  0
 29 76  1  0
 29 77  1  0
 30 78  1  0
 30 79  1  0
 32 80  1  0
 32 81  1  0
 32 82  1  0
M  END
>  <meeko>  (7) 
{"is_sidechain": [false], "intermolecular_energy": 2.731, "internal_energy": -0.839}

$$$$
EPH_relaxed_0001_pdb2pqr_Repair_165_r2_0001_out
     RDKit          3D

 82 86  0  0  0  0  0  0  0  0999 V2000
    3.6970   17.8950   -1.4040 C   0  0  0  0  0  0  0  0  0  0  0  0
    2.6460   17.4310   -2.4160 C   0  0  2  0  0  0  0  0  0  0  0  0
    1.2340   17.9370   -2.0590 C   0  0  0  0  0  0  0  0  0  0  0  0
    1.1990   18.8500   -0.8300 C   0  0  0  0  0  0  0  0  0  0  0  0
   -0.0460   19.6830   -0.7930 C   0  0  2  0  0  0  0  0  0  0  0  0
   -0.3910   20.1870    0.5040 O   0  0  0  0  0  0  0  0  0  0  0  0
   -1.3170   19.2580   -0.0830 C   0  0  0  0  0  0  0  0  0  0  0  0
   -1.4070   17.9500    0.6390 C   0  0  0  0  0  0  0  0  0  0  0  0
   -2.6130   19.8810   -0.5000 C   0  0  0  0  0  0  0  0  0  0  0  0
    2.6470   15.9100   -2.5060 C   0  0  1  0  0  0  0  0  0  0  0  0
    4.0720   15.3230   -2.6920 C   0  0  0  0  0  0  0  0  0  0  0  0
    4.1050   13.9780   -1.9230 C   0  0  0  0  0  0  0  0  0  0  0  0
    2.6220   13.6740   -1.6040 C   0  0  1  0  0  0  0  0  0  0  0  0
    2.0480   13.0540   -2.9160 C   0  0  0  0  0  0  0  0  0  0  0  0
    2.3560   12.7550   -0.3670 C   0  0  2  0  0  0  0  0  0  0  0  0
    2.9250   11.3300   -0.4780 C   0  0  0  0  0  0  0  0  0  0  0  0
    2.0010   10.3200   -1.0740 C   0  0  0  0  0  0  0  0  0  0  0  0
    0.6740   10.4750   -1.2400 C   0  0  0  0  0  0  0  0  0  0  0  0
   -0.0440   11.7270   -0.7200 C   0  0  1  0  0  0  0  0  0  0  0  0
   -1.3340   11.3090    0.0330 C   0  0  0  0  0  0  0  0  0  0  0  0
   -2.2440   10.4240   -0.8140 C   0  0  0  0  0  0  0  0  0  0  0  0
   -1.5130    9.1620   -1.2630 C   0  0  2  0  0  0  0  0  0  0  0  0
   -1.2360    8.3560   -0.1140 O   0  0  0  0  0  0  0  0  0  0  0  0
   -0.1910    9.4580   -2.0250 C   0  0  0  0  0  0  0  0  0  0  0  0
   -0.5140   10.0650   -3.4130 C   0  0  0  0  0  0  0  0  0  0  0  0
    0.5170    8.1040   -2.2970 C   0  0  0  0  0  0  0  0  0  0  0  0
    0.8500   12.7410    0.1170 C   0  0  1  0  0  0  0  0  0  0  0  0
    0.8680   12.3190    1.6190 C   0  0  0  0  0  0  0  0  0  0  0  0
    0.1910   14.1700    0.0660 C   0  0  0  0  0  0  0  0  0  0  0  0
    0.5860   15.0750   -1.1160 C   0  0  0  0  0  0  0  0  0  0  0  0
    2.1070   15.1250   -1.2840 C   0  0  2  0  0  0  0  0  0  0  0  0
    2.7110   15.7640    0.0120 C   0  0  0  0  0  0  0  0  0  0  0  0
    3.3216   17.7293   -0.3834 H   0  0  0  0  0  0  0  0  0  0  0  0
    4.6250   17.3229   -1.5507 H   0  0  0  0  0  0  0  0  0  0  0  0
    3.8995   18.9662   -1.5507 H   0  0  0  0  0  0  0  0  0  0  0  0
    2.9139   17.8609   -3.3924 H   0  0  0  0  0  0  0  0  0  0  0  0
    0.8382   18.4972   -2.9190 H   0  0  0  0  0  0  0  0  0  0  0  0
    0.6268   17.0518   -1.8189 H   0  0  0  0  0  0  0  0  0  0  0  0
    1.2391   18.2286    0.0768 H   0  0  0  0  0  0  0  0  0  0  0  0
    2.0636   19.5281   -0.8821 H   0  0  0  0  0  0  0  0  0  0  0  0
    0.1415   20.0496   -1.8130 H   0  0  0  0  0  0  0  0  0  0  0  0
   -1.3947   18.1287    1.7243 H   0  0  0  0  0  0  0  0  0  0  0  0
   -2.3422   17.4417    0.3616 H   0  0  0  0  0  0  0  0  0  0  0  0
   -0.5502   17.3184    0.3616 H   0  0  0  0  0  0  0  0  0  0  0  0
   -3.1907   20.1587    0.3939 H   0  0  0  0  0  0  0  0  0  0  0  0
   -2.4111   20.7805   -1.1002 H   0  0  0  0  0  0  0  0  0  0  0  0
   -3.1893   19.1615   -1.1002 H   0  0  0  0  0  0  0  0  0  0  0  0
    1.9747   15.7758   -3.3663 H   0  0  0  0  0  0  0  0  0  0  0  0
    4.2758   15.1541   -3.7597 H   0  0  0  0  0  0  0  0  0  0  0  0
    4.8373   16.0150   -2.3106 H   0  0  0  0  0  0  0  0  0  0  0  0
    4.5383   13.1837   -2.5485 H   0  0  0  0  0  0  0  0  0  0  0  0
    4.7243   14.0316   -1.0155 H   0  0  0  0  0  0  0  0  0  0  0  0
    1.3208   12.2685   -2.6628 H   0  0  0  0  0  0  0  0  0  0  0  0
    1.5502   13.8384   -3.5050 H   0  0  0  0  0  0  0  0  0  0  0  0
    2.8684   12.6181   -3.5050 H   0  0  0  0  0  0  0  0  0  0  0  0
    2.9407   13.2480    0.4236 H   0  0  0  0  0  0  0  0  0  0  0  0
    3.8300   11.3728   -1.1018 H   0  0  0  0  0  0  0  0  0  0  0  0
    3.1164   10.9971    0.5528 H   0  0  0  0  0  0  0  0  0  0  0  0
    2.4419    9.3684   -1.4057 H   0  0  0  0  0  0  0  0  0  0  0  0
   -0.3065   12.3188   -1.6093 H   0  0  0  0  0  0  0  0  0  0  0  0
   -1.0494   10.7562    0.9404 H   0  0  0  0  0  0  0  0  0  0  0  0
   -1.8912   12.2258    0.2761 H   0  0  0  0  0  0  0  0  0  0  0  0
   -3.1237   10.1380   -0.2187 H   0  0  0  0  0  0  0  0  0  0  0  0
   -2.5509   10.9885   -1.7068 H   0  0  0  0  0  0  0  0  0  0  0  0
   -2.1704    8.6338   -1.9693 H   0  0  0  0  0  0  0  0  0  0  0  0
   -1.7400    8.7230    0.6310 H   0  0  0  0  0  0  0  0  0  0  0  0
   -1.0270   11.0291   -3.2812 H   0  0  0  0  0  0  0  0  0  0  0  0
    0.4207   10.2204   -3.9717 H   0  0  0  0  0  0  0  0  0  0  0  0
   -1.1651    9.3766   -3.9717 H   0  0  0  0  0  0  0  0  0  0  0  0
    0.7685    7.6230   -1.3402 H   0  0  0  0  0  0  0  0  0  0  0  0
   -0.1537    7.4485   -2.8718 H   0  0  0  0  0  0  0  0  0  0  0  0
    1.4381    8.2808   -2.8718 H   0  0  0  0  0  0  0  0  0  0  0  0
    0.8297   13.2173    2.2527 H   0  0  0  0  0  0  0  0  0  0  0  0
   -0.0038   11.6828    1.8316 H   0  0  0  0  0  0  0  0  0  0  0  0
    1.7908   11.7594    1.8316 H   0  0  0  0  0  0  0  0  0  0  0  0
   -0.8998   14.0324    0.0298 H   0  0  0  0  0  0  0  0  0  0  0  0
    0.5605   14.6896    0.9624 H   0  0  0  0  0  0  0  0  0  0  0  0
    0.1350   14.6797   -2.0381 H   0  0  0  0  0  0  0  0  0  0  0  0
    0.2218   16.0933   -0.9148 H   0  0  0  0  0  0  0  0  0  0  0  0
    2.2629   15.2899    0.8977 H   0  0  0  0  0  0  0  0  0  0  0  0
    3.7999   15.6085    0.0243 H   0  0  0  0  0  0  0  0  0  0  0  0
    2.4945   16.8424    0.0243 H   0  0  0  0  0  0  0  0  0  0  0  0
  1  2  1  0
  2  3  1  0
  3  4  1  0
  4  5  1  0
  5  6  1  0
  6  7  1  0
  7  8  1  0
  7  9  1  0
  2 10  1  0
 10 11  1  0
 11 12  1  0
 12 13  1  0
 13 14  1  6
 13 15  1  0
 15 16  1  0
 16 17  1  0
 17 18  2  0
 18 19  1  0
 19 20  1  0
 20 21  1  0
 21 22  1  0
 22 23  1  0
 22 24  1  0
 24 25  1  0
 24 26  1  0
 19 27  1  0
 27 28  1  1
 27 29  1  0
 29 30  1  0
 30 31  1  0
 31 32  1  1
  7  5  1  0
 31 10  1  0
 31 13  1  0
 27 15  1  0
 24 18  1  0
  1 33  1  0
  1 34  1  0
  1 35  1  0
  2 36  1  6
  3 37  1  0
  3 38  1  0
  4 39  1  0
  4 40  1  0
  5 41  1  6
  8 42  1  0
  8 43  1  0
  8 44  1  0
  9 45  1  0
  9 46  1  0
  9 47  1  0
 10 48  1  6
 11 49  1  0
 11 50  1  0
 12 51  1  0
 12 52  1  0
 14 53  1  0
 14 54  1  0
 14 55  1  0
 15 56  1  1
 16 57  1  0
 16 58  1  0
 17 59  1  0
 19 60  1  6
 20 61  1  0
 20 62  1  0
 21 63  1  0
 21 64  1  0
 22 65  1  6
 23 66  1  0
 25 67  1  0
 25 68  1  0
 25 69  1  0
 26 70  1  0
 26 71  1  0
 26 72  1  0
 28 73  1  0
 28 74  1  0
 28 75  1  0
 29 76  1  0
 29 77  1  0
 30 78  1  0
 30 79  1  0
 32 80  1  0
 32 81  1  0
 32 82  1  0
M  END
>  <meeko>  (8) 
{"is_sidechain": [false], "intermolecular_energy": 2.731, "internal_energy": -0.839}

$$$$
EPH_relaxed_0001_pdb2pqr_Repair_165_r2_0001_out
     RDKit          3D

 82 86  0  0  0  0  0  0  0  0999 V2000
   -2.5280    7.5970   -3.0640 C   0  0  0  0  0  0  0  0  0  0  0  0
   -2.8510    7.8620   -1.5910 C   0  0  2  0  0  0  0  0  0  0  0  0
   -4.3670    7.8170   -1.3110 C   0  0  0  0  0  0  0  0  0  0  0  0
   -5.0880    6.6620   -2.0110 C   0  0  0  0  0  0  0  0  0  0  0  0
   -6.3140    7.1320   -2.7350 C   0  0  2  0  0  0  0  0  0  0  0  0
   -6.8540    8.3710   -2.2570 O   0  0  0  0  0  0  0  0  0  0  0  0
   -7.6860    7.2110   -2.0910 C   0  0  0  0  0  0  0  0  0  0  0  0
   -7.9030    6.8160   -0.6640 C   0  0  0  0  0  0  0  0  0  0  0  0
   -8.8930    7.2040   -2.9770 C   0  0  0  0  0  0  0  0  0  0  0  0
   -2.2830    9.2110   -1.1690 C   0  0  1  0  0  0  0  0  0  0  0  0
   -2.8180    9.6800    0.2110 C   0  0  0  0  0  0  0  0  0  0  0  0
   -1.6590   10.4400    0.9060 C   0  0  0  0  0  0  0  0  0  0  0  0
   -0.6180   10.6720   -0.2150 C   0  0  1  0  0  0  0  0  0  0  0  0
   -1.1380   11.9210   -0.9930 C   0  0  0  0  0  0  0  0  0  0  0  0
    0.8640   10.8560    0.2470 C   0  0  2  0  0  0  0  0  0  0  0  0
    1.1230   12.0830    1.1390 C   0  0  0  0  0  0  0  0  0  0  0  0
    1.4890   13.3350    0.4110 C   0  0  0  0  0  0  0  0  0  0  0  0
    1.8830   13.4050   -0.8730 C   0  0  0  0  0  0  0  0  0  0  0  0
    2.0880   12.1330   -1.7060 C   0  0  1  0  0  0  0  0  0  0  0  0
    3.4330   12.2260   -2.4720 C   0  0  0  0  0  0  0  0  0  0  0  0
    3.5430   13.4960   -3.3110 C   0  0  0  0  0  0  0  0  0  0  0  0
    3.3920   14.7400   -2.4390 C   0  0  2  0  0  0  0  0  0  0  0  0
    4.5160   14.8230   -1.5570 O   0  0  0  0  0  0  0  0  0  0  0  0
    2.0760   14.7530   -1.6120 C   0  0  0  0  0  0  0  0  0  0  0  0
    0.8690   14.9670   -2.5570 C   0  0  0  0  0  0  0  0  0  0  0  0
    2.1160   15.9880   -0.6720 C   0  0  0  0  0  0  0  0  0  0  0  0
    1.9250   10.7590   -0.9240 C   0  0  1  0  0  0  0  0  0  0  0  0
    3.2800   10.3580   -0.2650 C   0  0  0  0  0  0  0  0  0  0  0  0
    1.5770    9.6200   -1.9530 C   0  0  0  0  0  0  0  0  0  0  0  0
    0.0860    9.4080   -2.2770 C   0  0  0  0  0  0  0  0  0  0  0  0
   -0.7470    9.3140   -0.9950 C   0  0  2  0  0  0  0  0  0  0  0  0
   -0.2610    8.0530   -0.2010 C   0  0  0  0  0  0  0  0  0  0  0  0
   -1.6793    6.9007   -3.1338 H   0  0  0  0  0  0  0  0  0  0  0  0
   -3.4060    7.1556   -3.5583 H   0  0  0  0  0  0  0  0  0  0  0  0
   -2.2666    8.5443   -3.5583 H   0  0  0  0  0  0  0  0  0  0  0  0
   -2.3829    7.0606   -1.0005 H   0  0  0  0  0  0  0  0  0  0  0  0
   -4.5169    7.7134   -0.2262 H   0  0  0  0  0  0  0  0  0  0  0  0
   -4.7948    8.7500   -1.7066 H   0  0  0  0  0  0  0  0  0  0  0  0
   -4.4013    6.1997   -2.7354 H   0  0  0  0  0  0  0  0  0  0  0  0
   -5.3988    5.9367   -1.2447 H   0  0  0  0  0  0  0  0  0  0  0  0
   -5.9639    6.6762   -3.6729 H   0  0  0  0  0  0  0  0  0  0  0  0
   -7.4800    7.5860   -0.0020 H   0  0  0  0  0  0  0  0  0  0  0  0
   -8.9814    6.7183   -0.4705 H   0  0  0  0  0  0  0  0  0  0  0  0
   -7.4071    5.8534   -0.4705 H   0  0  0  0  0  0  0  0  0  0  0  0
   -9.8022    7.1987   -2.3579 H   0  0  0  0  0  0  0  0  0  0  0  0
   -8.8870    8.1022   -3.6120 H   0  0  0  0  0  0  0  0  0  0  0  0
   -8.8765    6.3059   -3.6120 H   0  0  0  0  0  0  0  0  0  0  0  0
   -2.6067    9.8219   -2.0246 H   0  0  0  0  0  0  0  0  0  0  0  0
   -3.6813   10.3481    0.0753 H   0  0  0  0  0  0  0  0  0  0  0  0
   -3.1486    8.8241    0.8178 H   0  0  0  0  0  0  0  0  0  0  0  0
   -2.0121   11.3991    1.3128 H   0  0  0  0  0  0  0  0  0  0  0  0
   -1.2409    9.8783    1.7543 H   0  0  0  0  0  0  0  0  0  0  0  0
   -1.4589   12.6917   -0.2767 H   0  0  0  0  0  0  0  0  0  0  0  0
   -0.3317   12.3210   -1.6253 H   0  0  0  0  0  0  0  0  0  0  0  0
   -1.9900   11.6306   -1.6253 H   0  0  0  0  0  0  0  0  0  0  0  0
    1.0194    9.9793    0.8929 H   0  0  0  0  0  0  0  0  0  0  0  0
    0.2090   12.2813    1.7181 H   0  0  0  0  0  0  0  0  0  0  0  0
    1.9927   11.8280    1.7624 H   0  0  0  0  0  0  0  0  0  0  0  0
    1.4314   14.2792    0.9724 H   0  0  0  0  0  0  0  0  0  0  0  0
    1.2531   12.1006   -2.4215 H   0  0  0  0  0  0  0  0  0  0  0  0
    4.2559   12.2134   -1.7421 H   0  0  0  0  0  0  0  0  0  0  0  0
    3.4863   11.3676   -3.1578 H   0  0  0  0  0  0  0  0  0  0  0  0
    4.5265   13.5184   -3.8031 H   0  0  0  0  0  0  0  0  0  0  0  0
    2.7381   13.4926   -4.0607 H   0  0  0  0  0  0  0  0  0  0  0  0
    3.3482   15.6104   -3.1102 H   0  0  0  0  0  0  0  0  0  0  0  0
    5.3150   14.9050   -2.1050 H   0  0  0  0  0  0  0  0  0  0  0  0
   -0.0404   15.1282   -1.9595 H   0  0  0  0  0  0  0  0  0  0  0  0
    1.0516   15.8468   -3.1915 H   0  0  0  0  0  0  0  0  0  0  0  0
    0.7380   14.0781   -3.1915 H   0  0  0  0  0  0  0  0  0  0  0  0
    2.1051   15.6521    0.3754 H   0  0  0  0  0  0  0  0  0  0  0  0
    3.0333   16.5644   -0.8627 H   0  0  0  0  0  0  0  0  0  0  0  0
    1.2379   16.6225   -0.8627 H   0  0  0  0  0  0  0  0  0  0  0  0
    3.1783   10.3881    0.8299 H   0  0  0  0  0  0  0  0  0  0  0  0
    3.5539    9.3403   -0.5800 H   0  0  0  0  0  0  0  0  0  0  0  0
    4.0637   11.0627   -0.5800 H   0  0  0  0  0  0  0  0  0  0  0  0
    2.0923    9.8548   -2.8961 H   0  0  0  0  0  0  0  0  0  0  0  0
    1.9019    8.6867   -1.4699 H   0  0  0  0  0  0  0  0  0  0  0  0
   -0.2751   10.2548   -2.8792 H   0  0  0  0  0  0  0  0  0  0  0  0
   -0.0208    8.4654   -2.8339 H   0  0  0  0  0  0  0  0  0  0  0  0
   -0.3362    8.2482    0.8789 H   0  0  0  0  0  0  0  0  0  0  0  0
   -0.8909    7.1899   -0.4623 H   0  0  0  0  0  0  0  0  0  0  0  0
    0.7852    7.8359   -0.4623 H   0  0  0  0  0  0  0  0  0  0  0  0
  1  2  1  0
  2  3  1  0
  3  4  1  0
  4  5  1  0
  5  6  1  0
  6  7  1  0
  7  8  1  0
  7  9  1  0
  2 10  1  0
 10 11  1  0
 11 12  1  0
 12 13  1  0
 13 14  1  6
 13 15  1  0
 15 16  1  0
 16 17  1  0
 17 18  2  0
 18 19  1  0
 19 20  1  0
 20 21  1  0
 21 22  1  0
 22 23  1  0
 22 24  1  0
 24 25  1  0
 24 26  1  0
 19 27  1  0
 27 28  1  1
 27 29  1  0
 29 30  1  0
 30 31  1  0
 31 32  1  1
  7  5  1  0
 31 10  1  0
 31 13  1  0
 27 15  1  0
 24 18  1  0
  1 33  1  0
  1 34  1  0
  1 35  1  0
  2 36  1  1
  3 37  1  0
  3 38  1  0
  4 39  1  0
  4 40  1  0
  5 41  1  6
  8 42  1  0
  8 43  1  0
  8 44  1  0
  9 45  1  0
  9 46  1  0
  9 47  1  0
 10 48  1  6
 11 49  1  0
 11 50  1  0
 12 51  1  0
 12 52  1  0
 14 53  1  0
 14 54  1  0
 14 55  1  0
 15 56  1  1
 16 57  1  0
 16 58  1  0
 17 59  1  0
 19 60  1  6
 20 61  1  0
 20 62  1  0
 21 63  1  0
 21 64  1  0
 22 65  1  6
 23 66  1  0
 25 67  1  0
 25 68  1  0
 25 69  1  0
 26 70  1  0
 26 71  1  0
 26 72  1  0
 28 73  1  0
 28 74  1  0
 28 75  1  0
 29 76  1  0
 29 77  1  0
 30 78  1  0
 30 79  1  0
 32 80  1  0
 32 81  1  0
 32 82  1  0
M  END
>  <meeko>  (9) 
{"is_sidechain": [false], "intermolecular_energy": 2.731, "internal_energy": -0.839}

$$$$
EPH_relaxed_0001_pdb2pqr_Repair_165_r2_0001_out
     RDKit          3D

 82 86  0  0  0  0  0  0  0  0999 V2000
    4.4960   17.4440   -2.6100 C   0  0  0  0  0  0  0  0  0  0  0  0
    3.0860   17.0080   -2.2010 C   0  0  2  0  0  0  0  0  0  0  0  0
    2.7420   17.4320   -0.7590 C   0  0  0  0  0  0  0  0  0  0  0  0
    3.9130   18.0750   -0.0110 C   0  0  0  0  0  0  0  0  0  0  0  0
    3.4660   18.7320    1.2600 C   0  0  2  0  0  0  0  0  0  0  0  0
    3.8380   20.1110    1.3840 O   0  0  0  0  0  0  0  0  0  0  0  0
    4.4230   19.2080    2.3370 C   0  0  0  0  0  0  0  0  0  0  0  0
    5.9030   19.0460    2.1920 C   0  0  0  0  0  0  0  0  0  0  0  0
    3.9030   19.3810    3.7300 C   0  0  0  0  0  0  0  0  0  0  0  0
    2.9450   15.4980   -2.3480 C   0  0  1  0  0  0  0  0  0  0  0  0
    4.3040   14.7930   -2.5980 C   0  0  0  0  0  0  0  0  0  0  0  0
    4.2350   13.4200   -1.8810 C   0  0  0  0  0  0  0  0  0  0  0  0
    2.7390   13.2390   -1.5290 C   0  0  1  0  0  0  0  0  0  0  0  0
    2.0770   12.7260   -2.8460 C   0  0  0  0  0  0  0  0  0  0  0  0
    2.4230   12.3000   -0.3200 C   0  0  2  0  0  0  0  0  0  0  0  0
    2.8550   10.8340   -0.5020 C   0  0  0  0  0  0  0  0  0  0  0  0
    1.8270    9.9360   -1.1070 C   0  0  0  0  0  0  0  0  0  0  0  0
    0.5170   10.2180   -1.2270 C   0  0  0  0  0  0  0  0  0  0  0  0
   -0.0700   11.5080   -0.6390 C   0  0  1  0  0  0  0  0  0  0  0  0
   -1.3730   11.1790    0.1350 C   0  0  0  0  0  0  0  0  0  0  0  0
   -2.3820   10.4140   -0.7160 C   0  0  0  0  0  0  0  0  0  0  0  0
   -1.7820    9.1100   -1.2350 C   0  0  2  0  0  0  0  0  0  0  0  0
   -1.5500    8.2370   -0.1250 O   0  0  0  0  0  0  0  0  0  0  0  0
   -0.4580    9.3160   -2.0230 C   0  0  0  0  0  0  0  0  0  0  0  0
   -0.7610   10.0030   -3.3780 C   0  0  0  0  0  0  0  0  0  0  0  0
    0.1150    7.9140   -2.3670 C   0  0  0  0  0  0  0  0  0  0  0  0
    0.9340   12.4020    0.2080 C   0  0  1  0  0  0  0  0  0  0  0  0
    0.9540   11.9210    1.6910 C   0  0  0  0  0  0  0  0  0  0  0  0
    0.4080   13.8860    0.2290 C   0  0  0  0  0  0  0  0  0  0  0  0
    0.8530   14.7980   -0.9300 C   0  0  0  0  0  0  0  0  0  0  0  0
    2.3680   14.7170   -1.1410 C   0  0  2  0  0  0  0  0  0  0  0  0
    3.0620   15.2470    0.1600 C   0  0  0  0  0  0  0  0  0  0  0  0
    5.0982   17.6302   -1.7085 H   0  0  0  0  0  0  0  0  0  0  0  0
    4.9666   16.6494   -3.2076 H   0  0  0  0  0  0  0  0  0  0  0  0
    4.4359   18.3655   -3.2076 H   0  0  0  0  0  0  0  0  0  0  0  0
    2.3761   17.5141   -2.8717 H   0  0  0  0  0  0  0  0  0  0  0  0
    1.9150   18.1562   -0.7978 H   0  0  0  0  0  0  0  0  0  0  0  0
    2.4732   16.5173   -0.2103 H   0  0  0  0  0  0  0  0  0  0  0  0
    4.6518   17.2968    0.2308 H   0  0  0  0  0  0  0  0  0  0  0  0
    4.3516   18.8473   -0.6601 H   0  0  0  0  0  0  0  0  0  0  0  0
    2.5673   18.0989    1.2990 H   0  0  0  0  0  0  0  0  0  0  0  0
    6.3657   18.9954    3.1887 H   0  0  0  0  0  0  0  0  0  0  0  0
    6.1181   18.1189    1.6404 H   0  0  0  0  0  0  0  0  0  0  0  0
    6.3135   19.9046    1.6404 H   0  0  0  0  0  0  0  0  0  0  0  0
    4.6914   19.1187    4.4509 H   0  0  0  0  0  0  0  0  0  0  0  0
    3.6013   20.4279    3.8814 H   0  0  0  0  0  0  0  0  0  0  0  0
    3.0342   18.7235    3.8814 H   0  0  0  0  0  0  0  0  0  0  0  0
    2.2407   15.4597   -3.1921 H   0  0  0  0  0  0  0  0  0  0  0  0
    4.4632   14.6492   -3.6769 H   0  0  0  0  0  0  0  0  0  0  0  0
    5.1388   15.3975   -2.2136 H   0  0  0  0  0  0  0  0  0  0  0  0
    4.5771   12.6155   -2.5487 H   0  0  0  0  0  0  0  0  0  0  0  0
    4.8809   13.3807   -0.9914 H   0  0  0  0  0  0  0  0  0  0  0  0
    1.2297   12.0694   -2.5989 H   0  0  0  0  0  0  0  0  0  0  0  0
    1.7172   13.5834   -3.4337 H   0  0  0  0  0  0  0  0  0  0  0  0
    2.8175   12.1636   -3.4337 H   0  0  0  0  0  0  0  0  0  0  0  0
    3.0710   12.7068    0.4703 H   0  0  0  0  0  0  0  0  0  0  0  0
    3.7431   10.8195   -1.1510 H   0  0  0  0  0  0  0  0  0  0  0  0
    3.0417   10.4442    0.5095 H   0  0  0  0  0  0  0  0  0  0  0  0
    2.1695    8.9620   -1.4865 H   0  0  0  0  0  0  0  0  0  0  0  0
   -0.3004   12.1563   -1.4972 H   0  0  0  0  0  0  0  0  0  0  0  0
   -1.1168   10.5676    1.0128 H   0  0  0  0  0  0  0  0  0  0  0  0
   -1.8375   12.1324    0.4270 H   0  0  0  0  0  0  0  0  0  0  0  0
   -3.2674   10.1845   -0.1049 H   0  0  0  0  0  0  0  0  0  0  0  0
   -2.6599   11.0393   -1.5772 H   0  0  0  0  0  0  0  0  0  0  0  0
   -2.5026    8.6726   -1.9416 H   0  0  0  0  0  0  0  0  0  0  0  0
   -2.3500    8.2420    0.4260 H   0  0  0  0  0  0  0  0  0  0  0  0
   -1.1988   10.9956   -3.1960 H   0  0  0  0  0  0  0  0  0  0  0  0
    0.1721   10.1131   -3.9501 H   0  0  0  0  0  0  0  0  0  0  0  0
   -1.4715    9.3882   -3.9501 H   0  0  0  0  0  0  0  0  0  0  0  0
    0.3372    7.3704   -1.4369 H   0  0  0  0  0  0  0  0  0  0  0  0
   -0.6246    7.3495   -2.9539 H   0  0  0  0  0  0  0  0  0  0  0  0
    1.0382    8.0291   -2.9539 H   0  0  0  0  0  0  0  0  0  0  0  0
    0.9177   12.7935    2.3600 H   0  0  0  0  0  0  0  0  0  0  0  0
    0.0818   11.2778    1.8796 H   0  0  0  0  0  0  0  0  0  0  0  0
    1.8766   11.3524    1.8796 H   0  0  0  0  0  0  0  0  0  0  0  0
   -0.6914   13.8494    0.2202 H   0  0  0  0  0  0  0  0  0  0  0  0
    0.8476   14.3340    1.1324 H   0  0  0  0  0  0  0  0  0  0  0  0
    0.3438   14.4819   -1.8524 H   0  0  0  0  0  0  0  0  0  0  0  0
    0.5887   15.8362   -0.6806 H   0  0  0  0  0  0  0  0  0  0  0  0
    2.5400   14.8484    1.0424 H   0  0  0  0  0  0  0  0  0  0  0  0
    4.1117   14.9185    0.1755 H   0  0  0  0  0  0  0  0  0  0  0  0
    3.0215   16.3461    0.1755 H   0  0  0  0  0  0  0  0  0  0  0  0
  1  2  1  0
  2  3  1  0
  3  4  1  0
  4  5  1  0
  5  6  1  0
  6  7  1  0
  7  8  1  0
  7  9  1  0
  2 10  1  0
 10 11  1  0
 11 12  1  0
 12 13  1  0
 13 14  1  6
 13 15  1  0
 15 16  1  0
 16 17  1  0
 17 18  2  0
 18 19  1  0
 19 20  1  0
 20 21  1  0
 21 22  1  0
 22 23  1  0
 22 24  1  0
 24 25  1  0
 24 26  1  0
 19 27  1  0
 27 28  1  1
 27 29  1  0
 29 30  1  0
 30 31  1  0
 31 32  1  1
  7  5  1  0
 31 10  1  0
 31 13  1  0
 27 15  1  0
 24 18  1  0
  1 33  1  0
  1 34  1  0
  1 35  1  0
  2 36  1  6
  3 37  1  0
  3 38  1  0
  4 39  1  0
  4 40  1  0
  5 41  1  1
  8 42  1  0
  8 43  1  0
  8 44  1  0
  9 45  1  0
  9 46  1  0
  9 47  1  0
 10 48  1  6
 11 49  1  0
 11 50  1  0
 12 51  1  0
 12 52  1  0
 14 53  1  0
 14 54  1  0
 14 55  1  0
 15 56  1  1
 16 57  1  0
 16 58  1  0
 17 59  1  0
 19 60  1  6
 20 61  1  0
 20 62  1  0
 21 63  1  0
 21 64  1  0
 22 65  1  6
 23 66  1  0
 25 67  1  0
 25 68  1  0
 25 69  1  0
 26 70  1  0
 26 71  1  0
 26 72  1  0
 28 73  1  0
 28 74  1  0
 28 75  1  0
 29 76  1  0
 29 77  1  0
 30 78  1  0
 30 79  1  0
 32 80  1  0
 32 81  1  0
 32 82  1  0
M  END
>  <meeko>  (10) 
{"is_sidechain": [false], "intermolecular_energy": 2.731, "internal_energy": -0.839}

$$$$
EPH_relaxed_0001_pdb2pqr_Repair_165_r2_0001_out
     RDKit          3D

 82 86  0  0  0  0  0  0  0  0999 V2000
    0.1030   10.3000   -3.4630 C   0  0  0  0  0  0  0  0  0  0  0  0
    1.1240   10.1290   -2.3340 C   0  0  2  0  0  0  0  0  0  0  0  0
    0.8210    8.8970   -1.4580 C   0  0  0  0  0  0  0  0  0  0  0  0
    0.0670    9.2290   -0.1680 C   0  0  0  0  0  0  0  0  0  0  0  0
   -1.3630    8.7830   -0.2300 C   0  0  2  0  0  0  0  0  0  0  0  0
   -1.9410    8.8090   -1.5420 O   0  0  0  0  0  0  0  0  0  0  0  0
   -2.5130    9.7090   -0.5790 C   0  0  0  0  0  0  0  0  0  0  0  0
   -2.2850   11.1550   -0.8880 C   0  0  0  0  0  0  0  0  0  0  0  0
   -3.8950    9.3280   -0.1450 C   0  0  0  0  0  0  0  0  0  0  0  0
    1.1590   11.3860   -1.4720 C   0  0  1  0  0  0  0  0  0  0  0  0
    2.0450   11.2190   -0.2090 C   0  0  0  0  0  0  0  0  0  0  0  0
    2.7110   12.5930    0.0550 C   0  0  0  0  0  0  0  0  0  0  0  0
    1.9400   13.5810   -0.8510 C   0  0  1  0  0  0  0  0  0  0  0  0
    0.6370   13.9180   -0.0590 C   0  0  0  0  0  0  0  0  0  0  0  0
    2.7080   14.8750   -1.2750 C   0  0  2  0  0  0  0  0  0  0  0  0
    3.1130   15.8030   -0.1170 C   0  0  0  0  0  0  0  0  0  0  0  0
    2.1130   16.8520    0.2390 C   0  0  0  0  0  0  0  0  0  0  0  0
    1.0680   17.2270   -0.5230 C   0  0  0  0  0  0  0  0  0  0  0  0
    0.8670   16.6420   -1.9270 C   0  0  1  0  0  0  0  0  0  0  0  0
    0.5470   17.7870   -2.9240 C   0  0  0  0  0  0  0  0  0  0  0  0
   -0.6330   18.6430   -2.4730 C   0  0  0  0  0  0  0  0  0  0  0  0
   -0.3710   19.2530   -1.0990 C   0  0  2  0  0  0  0  0  0  0  0  0
    0.7020   20.1940   -1.2100 O   0  0  0  0  0  0  0  0  0  0  0  0
   -0.0280   18.1950   -0.0140 C   0  0  0  0  0  0  0  0  0  0  0  0
   -1.2920   17.3660    0.3220 C   0  0  0  0  0  0  0  0  0  0  0  0
    0.3520   18.9520    1.2880 C   0  0  0  0  0  0  0  0  0  0  0  0
    2.0200   15.6820   -2.4500 C   0  0  1  0  0  0  0  0  0  0  0  0
    3.1430   16.5220   -3.1310 C   0  0  0  0  0  0  0  0  0  0  0  0
    1.4350   14.7350   -3.5640 C   0  0  0  0  0  0  0  0  0  0  0  0
    0.7950   13.4170   -3.0900 C   0  0  0  0  0  0  0  0  0  0  0  0
    1.7200   12.6770   -2.1180 C   0  0  2  0  0  0  0  0  0  0  0  0
    3.0290   12.3050   -2.8930 C   0  0  0  0  0  0  0  0  0  0  0  0
   -0.8953   10.4672   -3.0324 H   0  0  0  0  0  0  0  0  0  0  0  0
    0.3839   11.1636   -4.0837 H   0  0  0  0  0  0  0  0  0  0  0  0
    0.0872    9.3920   -4.0837 H   0  0  0  0  0  0  0  0  0  0  0  0
    2.1081    9.9685   -2.7985 H   0  0  0  0  0  0  0  0  0  0  0  0
    0.2114    8.1947   -2.0455 H   0  0  0  0  0  0  0  0  0  0  0  0
    1.7894    8.4670   -1.1625 H   0  0  0  0  0  0  0  0  0  0  0  0
    0.5618    8.7231    0.6742 H   0  0  0  0  0  0  0  0  0  0  0  0
    0.0798   10.3209   -0.0352 H   0  0  0  0  0  0  0  0  0  0  0  0
   -1.2064    8.0832    0.6041 H   0  0  0  0  0  0  0  0  0  0  0  0
   -2.1958   11.7210    0.0510 H   0  0  0  0  0  0  0  0  0  0  0  0
   -1.3586   11.2637   -1.4711 H   0  0  0  0  0  0  0  0  0  0  0  0
   -3.1330   11.5435   -1.4711 H   0  0  0  0  0  0  0  0  0  0  0  0
   -3.9436    9.3146    0.9538 H   0  0  0  0  0  0  0  0  0  0  0  0
   -4.6169   10.0606   -0.5351 H   0  0  0  0  0  0  0  0  0  0  0  0
   -4.1395    8.3290   -0.5351 H   0  0  0  0  0  0  0  0  0  0  0  0
    0.0835   11.5024   -1.2728 H   0  0  0  0  0  0  0  0  0  0  0  0
    1.4260   10.9265    0.6519 H   0  0  0  0  0  0  0  0  0  0  0  0
    2.8023   10.4354   -0.3587 H   0  0  0  0  0  0  0  0  0  0  0  0
    2.6100   12.8766    1.1130 H   0  0  0  0  0  0  0  0  0  0  0  0
    3.7893   12.5824   -0.1623 H   0  0  0  0  0  0  0  0  0  0  0  0
    0.8403   13.8654    1.0208 H   0  0  0  0  0  0  0  0  0  0  0  0
    0.3013   14.9325   -0.3199 H   0  0  0  0  0  0  0  0  0  0  0  0
   -0.1484   13.1934   -0.3199 H   0  0  0  0  0  0  0  0  0  0  0  0
    3.6491   14.4696   -1.6750 H   0  0  0  0  0  0  0  0  0  0  0  0
    3.2841   15.1804    0.7736 H   0  0  0  0  0  0  0  0  0  0  0  0
    4.0100   16.3409   -0.4576 H   0  0  0  0  0  0  0  0  0  0  0  0
    2.2403   17.3619    1.2054 H   0  0  0  0  0  0  0  0  0  0  0  0
    0.0066   15.9607   -1.8521 H   0  0  0  0  0  0  0  0  0  0  0  0
    1.4340   18.4307   -3.0181 H   0  0  0  0  0  0  0  0  0  0  0  0
    0.2770   17.3265   -3.8858 H   0  0  0  0  0  0  0  0  0  0  0  0
   -0.7903   19.4518   -3.2018 H   0  0  0  0  0  0  0  0  0  0  0  0
   -1.5260   18.0039   -2.4088 H   0  0  0  0  0  0  0  0  0  0  0  0
   -1.2995   19.7451   -0.7739 H   0  0  0  0  0  0  0  0  0  0  0  0
    0.8590   20.3510   -2.1560 H   0  0  0  0  0  0  0  0  0  0  0  0
   -1.4031   17.2931    1.4139 H   0  0  0  0  0  0  0  0  0  0  0  0
   -2.1780   17.8590   -0.1046 H   0  0  0  0  0  0  0  0  0  0  0  0
   -1.1928   16.3570   -0.1046 H   0  0  0  0  0  0  0  0  0  0  0  0
    0.0517   18.3538    2.1609 H   0  0  0  0  0  0  0  0  0  0  0  0
    1.4394   19.1162    1.3126 H   0  0  0  0  0  0  0  0  0  0  0  0
   -0.1660   19.9221    1.3126 H   0  0  0  0  0  0  0  0  0  0  0  0
    3.7699   16.9909   -2.3582 H   0  0  0  0  0  0  0  0  0  0  0  0
    3.7637   15.8647   -3.7576 H   0  0  0  0  0  0  0  0  0  0  0  0
    2.6878   17.3031   -3.7576 H   0  0  0  0  0  0  0  0  0  0  0  0
    0.6661   15.3003   -4.1110 H   0  0  0  0  0  0  0  0  0  0  0  0
    2.3026   14.4322   -4.1686 H   0  0  0  0  0  0  0  0  0  0  0  0
   -0.1553   13.6403   -2.5830 H   0  0  0  0  0  0  0  0  0  0  0  0
    0.6220   12.7757   -3.9668 H   0  0  0  0  0  0  0  0  0  0  0  0
    3.8292   12.0776   -2.1733 H   0  0  0  0  0  0  0  0  0  0  0  0
    2.8431   11.4241   -3.5251 H   0  0  0  0  0  0  0  0  0  0  0  0
    3.3342   13.1520   -3.5251 H   0  0  0  0  0  0  0  0  0  0  0  0
  1  2  1  0
  2  3  1  0
  3  4  1  0
  4  5  1  0
  5  6  1  0
  6  7  1  0
  7  8  1  0
  7  9  1  0
  2 10  1  0
 10 11  1  0
 11 12  1  0
 12 13  1  0
 13 14  1  1
 13 15  1  0
 15 16  1  0
 16 17  1  0
 17 18  2  0
 18 19  1  0
 19 20  1  0
 20 21  1  0
 21 22  1  0
 22 23  1  0
 22 24  1  0
 24 25  1  0
 24 26  1  0
 19 27  1  0
 27 28  1  6
 27 29  1  0
 29 30  1  0
 30 31  1  0
 31 32  1  6
  7  5  1  0
 31 10  1  0
 31 13  1  0
 27 15  1  0
 24 18  1  0
  1 33  1  0
  1 34  1  0
  1 35  1  0
  2 36  1  6
  3 37  1  0
  3 38  1  0
  4 39  1  0
  4 40  1  0
  5 41  1  1
  8 42  1  0
  8 43  1  0
  8 44  1  0
  9 45  1  0
  9 46  1  0
  9 47  1  0
 10 48  1  1
 11 49  1  0
 11 50  1  0
 12 51  1  0
 12 52  1  0
 14 53  1  0
 14 54  1  0
 14 55  1  0
 15 56  1  6
 16 57  1  0
 16 58  1  0
 17 59  1  0
 19 60  1  1
 20 61  1  0
 20 62  1  0
 21 63  1  0
 21 64  1  0
 22 65  1  1
 23 66  1  0
 25 67  1  0
 25 68  1  0
 25 69  1  0
 26 70  1  0
 26 71  1  0
 26 72  1  0
 28 73  1  0
 28 74  1  0
 28 75  1  0
 29 76  1  0
 29 77  1  0
 30 78  1  0
 30 79  1  0
 32 80  1  0
 32 81  1  0
 32 82  1  0
M  END
>  <meeko>  (11) 
{"is_sidechain": [false], "intermolecular_energy": 2.731, "internal_energy": -0.839}

$$$$
EPH_relaxed_0001_pdb2pqr_Repair_165_r2_0001_out
     RDKit          3D

 82 86  0  0  0  0  0  0  0  0999 V2000
    0.9000    8.6500   -0.3990 C   0  0  0  0  0  0  0  0  0  0  0  0
   -0.1400    9.4510   -1.1880 C   0  0  2  0  0  0  0  0  0  0  0  0
   -0.8720    8.5830   -2.2310 C   0  0  0  0  0  0  0  0  0  0  0  0
   -2.3520    8.3560   -1.9140 C   0  0  0  0  0  0  0  0  0  0  0  0
   -2.9040    7.1780   -2.6570 C   0  0  2  0  0  0  0  0  0  0  0  0
   -3.9410    7.4930   -3.5950 O   0  0  0  0  0  0  0  0  0  0  0  0
   -4.3230    6.6680   -2.4830 C   0  0  0  0  0  0  0  0  0  0  0  0
   -5.2770    7.3260   -1.5360 C   0  0  0  0  0  0  0  0  0  0  0  0
   -4.6250    5.2510   -2.8590 C   0  0  0  0  0  0  0  0  0  0  0  0
    0.5280   10.6370   -1.8730 C   0  0  1  0  0  0  0  0  0  0  0  0
    0.1650   10.7400   -3.3780 C   0  0  0  0  0  0  0  0  0  0  0  0
    0.0930   12.2500   -3.7200 C   0  0  0  0  0  0  0  0  0  0  0  0
    0.7350   12.9560   -2.5020 C   0  0  1  0  0  0  0  0  0  0  0  0
    2.2740   12.8470   -2.7400 C   0  0  0  0  0  0  0  0  0  0  0  0
    0.2940   14.4340   -2.2490 C   0  0  2  0  0  0  0  0  0  0  0  0
    0.6470   15.4230   -3.3740 C   0  0  0  0  0  0  0  0  0  0  0  0
    1.9750   16.0920   -3.2410 C   0  0  0  0  0  0  0  0  0  0  0  0
    2.7250   16.1270   -2.1240 C   0  0  0  0  0  0  0  0  0  0  0  0
    2.2060   15.5340   -0.8080 C   0  0  1  0  0  0  0  0  0  0  0  0
    2.4650   16.5340    0.3490 C   0  0  0  0  0  0  0  0  0  0  0  0
    3.9270   16.9610    0.4380 C   0  0  0  0  0  0  0  0  0  0  0  0
    4.3890   17.5990   -0.8690 C   0  0  2  0  0  0  0  0  0  0  0  0
    3.6900   18.8340   -1.0510 O   0  0  0  0  0  0  0  0  0  0  0  0
    4.1690   16.6870   -2.1080 C   0  0  0  0  0  0  0  0  0  0  0  0
    5.1520   15.4910   -2.0550 C   0  0  0  0  0  0  0  0  0  0  0  0
    4.5450   17.5020   -3.3740 C   0  0  0  0  0  0  0  0  0  0  0  0
    0.7090   15.0000   -0.8300 C   0  0  1  0  0  0  0  0  0  0  0  0
   -0.2760   16.1660   -0.5110 C   0  0  0  0  0  0  0  0  0  0  0  0
    0.5250   13.9370    0.3160 C   0  0  0  0  0  0  0  0  0  0  0  0
    0.8640   12.4750   -0.0320 C   0  0  0  0  0  0  0  0  0  0  0  0
    0.1870   12.0510   -1.3390 C   0  0  2  0  0  0  0  0  0  0  0  0
   -1.3630   12.1300   -1.1230 C   0  0  0  0  0  0  0  0  0  0  0  0
    0.7257    8.7842    0.6788 H   0  0  0  0  0  0  0  0  0  0  0  0
    0.8126    7.5837   -0.6546 H   0  0  0  0  0  0  0  0  0  0  0  0
    1.9087    9.0068   -0.6546 H   0  0  0  0  0  0  0  0  0  0  0  0
   -0.8932    9.8116   -0.4720 H   0  0  0  0  0  0  0  0  0  0  0  0
   -0.7989    9.0804   -3.2094 H   0  0  0  0  0  0  0  0  0  0  0  0
   -0.3871    7.5957   -2.2244 H   0  0  0  0  0  0  0  0  0  0  0  0
   -2.4621    8.1796   -0.8338 H   0  0  0  0  0  0  0  0  0  0  0  0
   -2.9105    9.2506   -2.2265 H   0  0  0  0  0  0  0  0  0  0  0  0
   -1.9283    6.6711   -2.6238 H   0  0  0  0  0  0  0  0  0  0  0  0
   -4.9705    7.1146   -0.5009 H   0  0  0  0  0  0  0  0  0  0  0  0
   -5.2709    8.4128   -1.7055 H   0  0  0  0  0  0  0  0  0  0  0  0
   -6.2908    6.9342   -1.7055 H   0  0  0  0  0  0  0  0  0  0  0  0
   -4.7533    4.6491   -1.9473 H   0  0  0  0  0  0  0  0  0  0  0  0
   -5.5502    5.2185   -3.4530 H   0  0  0  0  0  0  0  0  0  0  0  0
   -3.7934    4.8441   -3.4530 H   0  0  0  0  0  0  0  0  0  0  0  0
    1.5819   10.4000   -1.6654 H   0  0  0  0  0  0  0  0  0  0  0  0
    0.9381   10.2501   -3.9882 H   0  0  0  0  0  0  0  0  0  0  0  0
   -0.7933   10.2422   -3.5874 H   0  0  0  0  0  0  0  0  0  0  0  0
    0.6586   12.4678   -4.6379 H   0  0  0  0  0  0  0  0  0  0  0  0
   -0.9376   12.5880   -3.9031 H   0  0  0  0  0  0  0  0  0  0  0  0
    2.7932   12.8102   -1.7709 H   0  0  0  0  0  0  0  0  0  0  0  0
    2.4932   11.9311   -3.3084 H   0  0  0  0  0  0  0  0  0  0  0  0
    2.6201   13.7229   -3.3084 H   0  0  0  0  0  0  0  0  0  0  0  0
   -0.8033   14.3566   -2.2539 H   0  0  0  0  0  0  0  0  0  0  0  0
    0.6376   14.8723   -4.3262 H   0  0  0  0  0  0  0  0  0  0  0  0
   -0.1044   16.2247   -3.3215 H   0  0  0  0  0  0  0  0  0  0  0  0
    2.3744   16.5994   -4.1315 H   0  0  0  0  0  0  0  0  0  0  0  0
    2.7840   14.6131   -0.6414 H   0  0  0  0  0  0  0  0  0  0  0  0
    1.8458   17.4286    0.1869 H   0  0  0  0  0  0  0  0  0  0  0  0
    2.2073   16.0280    1.2911 H   0  0  0  0  0  0  0  0  0  0  0  0
    4.0402   17.6898    1.2541 H   0  0  0  0  0  0  0  0  0  0  0  0
    4.5422   16.0696    0.6304 H   0  0  0  0  0  0  0  0  0  0  0  0
    5.4737   17.7638   -0.7900 H   0  0  0  0  0  0  0  0  0  0  0  0
    4.2430   19.4050   -1.6120 H   0  0  0  0  0  0  0  0  0  0  0  0
    5.3621   15.2353   -1.0060 H   0  0  0  0  0  0  0  0  0  0  0  0
    4.7021   14.6239   -2.5607 H   0  0  0  0  0  0  0  0  0  0  0  0
    6.0898   15.7645   -2.5607 H   0  0  0  0  0  0  0  0  0  0  0  0
    4.9883   18.4628   -3.0733 H   0  0  0  0  0  0  0  0  0  0  0  0
    5.2722   16.9342   -3.9730 H   0  0  0  0  0  0  0  0  0  0  0  0
    3.6411   17.6867   -3.9730 H   0  0  0  0  0  0  0  0  0  0  0  0
   -0.3707   16.2781    0.5792 H   0  0  0  0  0  0  0  0  0  0  0  0
    0.1100   17.1008   -0.9436 H   0  0  0  0  0  0  0  0  0  0  0  0
   -1.2622   15.9416   -0.9436 H   0  0  0  0  0  0  0  0  0  0  0  0
    1.1696   14.2374    1.1552 H   0  0  0  0  0  0  0  0  0  0  0  0
   -0.5522   13.9376    0.5390 H   0  0  0  0  0  0  0  0  0  0  0  0
    1.9539   12.3749   -0.1424 H   0  0  0  0  0  0  0  0  0  0  0  0
    0.4978   11.8277    0.7785 H   0  0  0  0  0  0  0  0  0  0  0  0
   -1.5829   12.1412   -0.0453 H   0  0  0  0  0  0  0  0  0  0  0  0
   -1.7514   13.0491   -1.5861 H   0  0  0  0  0  0  0  0  0  0  0  0
   -1.8428   11.2551   -1.5861 H   0  0  0  0  0  0  0  0  0  0  0  0
  1  2  1  0
  2  3  1  0
  3  4  1  0
  4  5  1  0
  5  6  1  0
  6  7  1  0
  7  8  1  0
  7  9  1  0
  2 10  1  0
 10 11  1  0
 11 12  1  0
 12 13  1  0
 13 14  1  6
 13 15  1  0
 15 16  1  0
 16 17  1  0
 17 18  2  0
 18 19  1  0
 19 20  1  0
 20 21  1  0
 21 22  1  0
 22 23  1  0
 22 24  1  0
 24 25  1  0
 24 26  1  0
 19 27  1  0
 27 28  1  1
 27 29  1  0
 29 30  1  0
 30 31  1  0
 31 32  1  1
  7  5  1  0
 31 10  1  0
 31 13  1  0
 27 15  1  0
 24 18  1  0
  1 33  1  0
  1 34  1  0
  1 35  1  0
  2 36  1  1
  3 37  1  0
  3 38  1  0
  4 39  1  0
  4 40  1  0
  5 41  1  6
  8 42  1  0
  8 43  1  0
  8 44  1  0
  9 45  1  0
  9 46  1  0
  9 47  1  0
 10 48  1  6
 11 49  1  0
 11 50  1  0
 12 51  1  0
 12 52  1  0
 14 53  1  0
 14 54  1  0
 14 55  1  0
 15 56  1  1
 16 57  1  0
 16 58  1  0
 17 59  1  0
 19 60  1  1
 20 61  1  0
 20 62  1  0
 21 63  1  0
 21 64  1  0
 22 65  1  1
 23 66  1  0
 25 67  1  0
 25 68  1  0
 25 69  1  0
 26 70  1  0
 26 71  1  0
 26 72  1  0
 28 73  1  0
 28 74  1  0
 28 75  1  0
 29 76  1  0
 29 77  1  0
 30 78  1  0
 30 79  1  0
 32 80  1  0
 32 81  1  0
 32 82  1  0
M  END
>  <meeko>  (12) 
{"is_sidechain": [false], "intermolecular_energy": 2.731, "internal_energy": -0.839}

$$$$
EPH_relaxed_0001_pdb2pqr_Repair_165_r2_0001_out
     RDKit          3D

 82 86  0  0  0  0  0  0  0  0999 V2000
    0.5220    8.9850   -2.5170 C   0  0  0  0  0  0  0  0  0  0  0  0
    1.2910   10.1560   -3.1350 C   0  0  2  0  0  0  0  0  0  0  0  0
    2.7800   10.1480   -2.7360 C   0  0  0  0  0  0  0  0  0  0  0  0
    3.7190   10.6170   -3.8510 C   0  0  0  0  0  0  0  0  0  0  0  0
    5.1000   10.8870   -3.3360 C   0  0  2  0  0  0  0  0  0  0  0  0
    5.6930   12.1000   -3.8190 O   0  0  0  0  0  0  0  0  0  0  0  0
    6.3370   10.8780   -4.2150 C   0  0  0  0  0  0  0  0  0  0  0  0
    6.2500   10.5910   -5.6810 C   0  0  0  0  0  0  0  0  0  0  0  0
    7.6710   10.6640   -3.5710 C   0  0  0  0  0  0  0  0  0  0  0  0
    0.6480   11.4750   -2.7210 C   0  0  1  0  0  0  0  0  0  0  0  0
   -0.5910   11.2750   -1.8090 C   0  0  0  0  0  0  0  0  0  0  0  0
   -0.6010   12.4550   -0.8030 C   0  0  0  0  0  0  0  0  0  0  0  0
    0.4260   13.4620   -1.3720 C   0  0  1  0  0  0  0  0  0  0  0  0
   -0.3470   14.2380   -2.4840 C   0  0  0  0  0  0  0  0  0  0  0  0
    1.0860   14.4340   -0.3410 C   0  0  2  0  0  0  0  0  0  0  0  0
    0.1110   15.3890    0.3710 C   0  0  0  0  0  0  0  0  0  0  0  0
   -0.1040   16.7020   -0.3050 C   0  0  0  0  0  0  0  0  0  0  0  0
    0.6700   17.2160   -1.2800 C   0  0  0  0  0  0  0  0  0  0  0  0
    1.9500   16.5000   -1.7290 C   0  0  1  0  0  0  0  0  0  0  0  0
    3.1090   17.5260   -1.8290 C   0  0  0  0  0  0  0  0  0  0  0  0
    2.7620   18.7140   -2.7210 C   0  0  0  0  0  0  0  0  0  0  0  0
    1.5180   19.4350   -2.2090 C   0  0  2  0  0  0  0  0  0  0  0  0
    1.8210   20.0390   -0.9470 O   0  0  0  0  0  0  0  0  0  0  0  0
    0.2870   18.4990   -2.0570 C   0  0  0  0  0  0  0  0  0  0  0  0
   -0.2270   18.0840   -3.4580 C   0  0  0  0  0  0  0  0  0  0  0  0
   -0.8580   19.3180   -1.4010 C   0  0  0  0  0  0  0  0  0  0  0  0
    2.3500   15.2070   -0.8950 C   0  0  1  0  0  0  0  0  0  0  0  0
    3.2010   15.6160    0.3460 C   0  0  0  0  0  0  0  0  0  0  0  0
    3.2720   14.2880   -1.7820 C   0  0  0  0  0  0  0  0  0  0  0  0
    2.5640   13.2660   -2.6910 C   0  0  0  0  0  0  0  0  0  0  0  0
    1.5190   12.4660   -1.9080 C   0  0  2  0  0  0  0  0  0  0  0  0
    2.2700   11.6570   -0.7960 C   0  0  0  0  0  0  0  0  0  0  0  0
    0.5676    9.0545   -1.4201 H   0  0  0  0  0  0  0  0  0  0  0  0
   -0.5278    9.0227   -2.8434 H   0  0  0  0  0  0  0  0  0  0  0  0
    0.9737    8.0366   -2.8434 H   0  0  0  0  0  0  0  0  0  0  0  0
    1.2419   10.0446   -4.2282 H   0  0  0  0  0  0  0  0  0  0  0  0
    2.9108   10.8127   -1.8694 H   0  0  0  0  0  0  0  0  0  0  0  0
    3.0463    9.1051   -2.5092 H   0  0  0  0  0  0  0  0  0  0  0  0
    3.7731    9.8358   -4.6235 H   0  0  0  0  0  0  0  0  0  0  0  0
    3.3183   11.5540   -4.2650 H   0  0  0  0  0  0  0  0  0  0  0  0
    4.8678   10.3881   -2.3835 H   0  0  0  0  0  0  0  0  0  0  0  0
    5.9339    9.5483   -5.8324 H   0  0  0  0  0  0  0  0  0  0  0  0
    5.5165   11.2674   -6.1442 H   0  0  0  0  0  0  0  0  0  0  0  0
    7.2356   10.7463   -6.1442 H   0  0  0  0  0  0  0  0  0  0  0  0
    7.5572   10.6823   -2.4771 H   0  0  0  0  0  0  0  0  0  0  0  0
    8.0759    9.6894   -3.8813 H   0  0  0  0  0  0  0  0  0  0  0  0
    8.3604   11.4630   -3.8813 H   0  0  0  0  0  0  0  0  0  0  0  0
    0.4293   11.8938   -3.7144 H   0  0  0  0  0  0  0  0  0  0  0  0
   -1.5108   11.2837   -2.4123 H   0  0  0  0  0  0  0  0  0  0  0  0
   -0.5437   10.3092   -1.2846 H   0  0  0  0  0  0  0  0  0  0  0  0
   -1.6011   12.9097   -0.7478 H   0  0  0  0  0  0  0  0  0  0  0  0
   -0.3486   12.1343    0.2185 H   0  0  0  0  0  0  0  0  0  0  0  0
   -1.0500   14.9438   -2.0175 H   0  0  0  0  0  0  0  0  0  0  0  0
    0.3684   14.7924   -3.1091 H   0  0  0  0  0  0  0  0  0  0  0  0
   -0.9042   13.5247   -3.1091 H   0  0  0  0  0  0  0  0  0  0  0  0
    1.4495   13.7436    0.4344 H   0  0  0  0  0  0  0  0  0  0  0  0
   -0.8629   14.8838    0.4495 H   0  0  0  0  0  0  0  0  0  0  0  0
    0.5679   15.6196    1.3447 H   0  0  0  0  0  0  0  0  0  0  0  0
   -0.9676   17.3005    0.0206 H   0  0  0  0  0  0  0  0  0  0  0  0
    1.7329   16.0838   -2.7238 H   0  0  0  0  0  0  0  0  0  0  0  0
    3.3390   17.8980   -0.8197 H   0  0  0  0  0  0  0  0  0  0  0  0
    3.9724   17.0124   -2.2771 H   0  0  0  0  0  0  0  0  0  0  0  0
    3.6079   19.4172   -2.7294 H   0  0  0  0  0  0  0  0  0  0  0  0
    2.5601   18.3434   -3.7368 H   0  0  0  0  0  0  0  0  0  0  0  0
    1.2455   20.1937   -2.9574 H   0  0  0  0  0  0  0  0  0  0  0  0
    1.0810   20.6260   -0.7170 H   0  0  0  0  0  0  0  0  0  0  0  0
   -1.0785   17.3965   -3.3473 H   0  0  0  0  0  0  0  0  0  0  0  0
   -0.5480   18.9792   -4.0108 H   0  0  0  0  0  0  0  0  0  0  0  0
    0.5805   17.5816   -4.0108 H   0  0  0  0  0  0  0  0  0  0  0  0
   -0.7720   19.2565   -0.3061 H   0  0  0  0  0  0  0  0  0  0  0  0
   -0.7839   20.3693   -1.7161 H   0  0  0  0  0  0  0  0  0  0  0  0
   -1.8290   18.9083   -1.7161 H   0  0  0  0  0  0  0  0  0  0  0  0
    2.6572   15.3546    1.2658 H   0  0  0  0  0  0  0  0  0  0  0  0
    4.1621   15.0814    0.3238 H   0  0  0  0  0  0  0  0  0  0  0  0
    3.3840   16.7004    0.3238 H   0  0  0  0  0  0  0  0  0  0  0  0
    3.8755   14.9445   -2.4261 H   0  0  0  0  0  0  0  0  0  0  0  0
    3.8512   13.6851   -1.0671 H   0  0  0  0  0  0  0  0  0  0  0  0
    2.0658   13.8005   -3.5133 H   0  0  0  0  0  0  0  0  0  0  0  0
    3.3167   12.5674   -3.0854 H   0  0  0  0  0  0  0  0  0  0  0  0
    1.9450   12.0071    0.1949 H   0  0  0  0  0  0  0  0  0  0  0  0
    2.0379   10.5869   -0.9011 H   0  0  0  0  0  0  0  0  0  0  0  0
    3.3544   11.8090   -0.9011 H   0  0  0  0  0  0  0  0  0  0  0  0
  1  2  1  0
  2  3  1  0
  3  4  1  0
  4  5  1  0
  5  6  1  0
  6  7  1  0
  7  8  1  0
  7  9  1  0
  2 10  1  0
 10 11  1  0
 11 12  1  0
 12 13  1  0
 13 14  1  6
 13 15  1  0
 15 16  1  0
 16 17  1  0
 17 18  2  0
 18 19  1  0
 19 20  1  0
 20 21  1  0
 21 22  1  0
 22 23  1  0
 22 24  1  0
 24 25  1  0
 24 26  1  0
 19 27  1  0
 27 28  1  1
 27 29  1  0
 29 30  1  0
 30 31  1  0
 31 32  1  1
  7  5  1  0
 31 10  1  0
 31 13  1  0
 27 15  1  0
 24 18  1  0
  1 33  1  0
  1 34  1  0
  1 35  1  0
  2 36  1  6
  3 37  1  0
  3 38  1  0
  4 39  1  0
  4 40  1  0
  5 41  1  1
  8 42  1  0
  8 43  1  0
  8 44  1  0
  9 45  1  0
  9 46  1  0
  9 47  1  0
 10 48  1  6
 11 49  1  0
 11 50  1  0
 12 51  1  0
 12 52  1  0
 14 53  1  0
 14 54  1  0
 14 55  1  0
 15 56  1  1
 16 57  1  0
 16 58  1  0
 17 59  1  0
 19 60  1  6
 20 61  1  0
 20 62  1  0
 21 63  1  0
 21 64  1  0
 22 65  1  6
 23 66  1  0
 25 67  1  0
 25 68  1  0
 25 69  1  0
 26 70  1  0
 26 71  1  0
 26 72  1  0
 28 73  1  0
 28 74  1  0
 28 75  1  0
 29 76  1  0
 29 77  1  0
 30 78  1  0
 30 79  1  0
 32 80  1  0
 32 81  1  0
 32 82  1  0
M  END
>  <meeko>  (13) 
{"is_sidechain": [false], "intermolecular_energy": 2.731, "internal_energy": -0.839}

$$$$
EPH_relaxed_0001_pdb2pqr_Repair_165_r2_0001_out
     RDKit          3D

 82 86  0  0  0  0  0  0  0  0999 V2000
    5.0540   17.3720   -2.5970 C   0  0  0  0  0  0  0  0  0  0  0  0
    5.4960   15.9750   -2.1500 C   0  0  2  0  0  0  0  0  0  0  0  0
    5.9080   15.0880   -3.3420 C   0  0  0  0  0  0  0  0  0  0  0  0
    6.2260   13.6420   -2.9510 C   0  0  0  0  0  0  0  0  0  0  0  0
    5.6950   12.6660   -3.9580 C   0  0  2  0  0  0  0  0  0  0  0  0
    5.1490   11.4650   -3.3970 O   0  0  0  0  0  0  0  0  0  0  0  0
    6.3190   11.3080   -4.2160 C   0  0  0  0  0  0  0  0  0  0  0  0
    7.5300   10.8500   -3.4650 C   0  0  0  0  0  0  0  0  0  0  0  0
    6.0520   10.6350   -5.5260 C   0  0  0  0  0  0  0  0  0  0  0  0
    4.3770   15.3030   -1.3630 C   0  0  1  0  0  0  0  0  0  0  0  0
    3.7890   16.2220   -0.2590 C   0  0  0  0  0  0  0  0  0  0  0  0
    2.2740   15.9020   -0.1710 C   0  0  0  0  0  0  0  0  0  0  0  0
    2.1040   14.5950   -0.9800 C   0  0  1  0  0  0  0  0  0  0  0  0
    2.5290   13.4580    0.0010 C   0  0  0  0  0  0  0  0  0  0  0  0
    0.6850   14.3360   -1.5840 C   0  0  2  0  0  0  0  0  0  0  0  0
   -0.4460   14.1850   -0.5520 C   0  0  0  0  0  0  0  0  0  0  0  0
   -0.6990   12.7910   -0.0820 C   0  0  0  0  0  0  0  0  0  0  0  0
   -0.2450   11.6710   -0.6760 C   0  0  0  0  0  0  0  0  0  0  0  0
    0.5280   11.7390   -1.9990 C   0  0  1  0  0  0  0  0  0  0  0  0
   -0.0290   10.6740   -2.9800 C   0  0  0  0  0  0  0  0  0  0  0  0
   -0.0350    9.2720   -2.3780 C   0  0  0  0  0  0  0  0  0  0  0  0
   -0.8620    9.2320   -1.0960 C   0  0  2  0  0  0  0  0  0  0  0  0
   -2.2350    9.4600   -1.4250 O   0  0  0  0  0  0  0  0  0  0  0  0
   -0.3990   10.2700   -0.0360 C   0  0  0  0  0  0  0  0  0  0  0  0
    0.9750    9.8460    0.5420 C   0  0  0  0  0  0  0  0  0  0  0  0
   -1.4010   10.2220    1.1490 C   0  0  0  0  0  0  0  0  0  0  0  0
    0.6410   13.1790   -2.6630 C   0  0  1  0  0  0  0  0  0  0  0  0
   -0.6060   13.4520   -3.5580 C   0  0  0  0  0  0  0  0  0  0  0  0
    1.8910   13.2060   -3.6210 C   0  0  0  0  0  0  0  0  0  0  0  0
    3.2430   13.5860   -2.9880 C   0  0  0  0  0  0  0  0  0  0  0  0
    3.1180   14.8620   -2.1510 C   0  0  2  0  0  0  0  0  0  0  0  0
    2.7130   16.0290   -3.1160 C   0  0  0  0  0  0  0  0  0  0  0  0
    4.8569   17.9949   -1.7120 H   0  0  0  0  0  0  0  0  0  0  0  0
    5.8502   17.8330   -3.2000 H   0  0  0  0  0  0  0  0  0  0  0  0
    4.1375   17.2912   -3.2000 H   0  0  0  0  0  0  0  0  0  0  0  0
    6.3806   16.0971   -1.5077 H   0  0  0  0  0  0  0  0  0  0  0  0
    5.0827   15.0778   -4.0692 H   0  0  0  0  0  0  0  0  0  0  0  0
    6.8298   15.5186   -3.7602 H   0  0  0  0  0  0  0  0  0  0  0  0
    7.3173   13.5234   -2.8806 H   0  0  0  0  0  0  0  0  0  0  0  0
    5.7439   13.4340   -1.9844 H   0  0  0  0  0  0  0  0  0  0  0  0
    5.4041   13.4844   -4.6330 H   0  0  0  0  0  0  0  0  0  0  0  0
    7.3399   10.9219   -2.3839 H   0  0  0  0  0  0  0  0  0  0  0  0
    7.7523    9.8057   -3.7296 H   0  0  0  0  0  0  0  0  0  0  0  0
    8.3877   11.4858   -3.7296 H   0  0  0  0  0  0  0  0  0  0  0  0
    5.6519    9.6264   -5.3452 H   0  0  0  0  0  0  0  0  0  0  0  0
    5.3191   11.2232   -6.0978 H   0  0  0  0  0  0  0  0  0  0  0  0
    6.9888   10.5608   -6.0978 H   0  0  0  0  0  0  0  0  0  0  0  0
    4.9170   14.4192   -0.9926 H   0  0  0  0  0  0  0  0  0  0  0  0
    4.2765   16.0155    0.7052 H   0  0  0  0  0  0  0  0  0  0  0  0
    3.9556   17.2828   -0.4978 H   0  0  0  0  0  0  0  0  0  0  0  0
    1.9685   15.7537    0.8753 H   0  0  0  0  0  0  0  0  0  0  0  0
    1.6514   16.7196   -0.5634 H   0  0  0  0  0  0  0  0  0  0  0  0
    2.4006   13.8015    1.0381 H   0  0  0  0  0  0  0  0  0  0  0  0
    1.9017   12.5711   -0.1718 H   0  0  0  0  0  0  0  0  0  0  0  0
    3.5843   13.2000   -0.1718 H   0  0  0  0  0  0  0  0  0  0  0  0
    0.4802   15.2768   -2.1160 H   0  0  0  0  0  0  0  0  0  0  0  0
   -0.1901   14.7980    0.3248 H   0  0  0  0  0  0  0  0  0  0  0  0
   -1.3668   14.5062   -1.0608 H   0  0  0  0  0  0  0  0  0  0  0  0
   -1.3076   12.6683    0.8261 H   0  0  0  0  0  0  0  0  0  0  0  0
    1.5745   11.5078   -1.7513 H   0  0  0  0  0  0  0  0  0  0  0  0
   -1.0601   10.9470   -3.2488 H   0  0  0  0  0  0  0  0  0  0  0  0
    0.6276   10.6562   -3.8624 H   0  0  0  0  0  0  0  0  0  0  0  0
   -0.4660    8.5694   -3.1064 H   0  0  0  0  0  0  0  0  0  0  0  0
    1.0003    8.9893   -2.1367 H   0  0  0  0  0  0  0  0  0  0  0  0
   -0.7221    8.2388   -0.6444 H   0  0  0  0  0  0  0  0  0  0  0  0
   -2.2800    9.6680   -2.3740 H   0  0  0  0  0  0  0  0  0  0  0  0
    0.9305    9.8597    1.6410 H   0  0  0  0  0  0  0  0  0  0  0  0
    1.2201    8.8304    0.1976 H   0  0  0  0  0  0  0  0  0  0  0  0
    1.7497   10.5469    0.1976 H   0  0  0  0  0  0  0  0  0  0  0  0
   -0.8470   10.2485    2.0989 H   0  0  0  0  0  0  0  0  0  0  0  0
   -2.0759   11.0888    1.0938 H   0  0  0  0  0  0  0  0  0  0  0  0
   -1.9900    9.2946    1.0938 H   0  0  0  0  0  0  0  0  0  0  0  0
   -1.4809   13.6435   -2.9193 H   0  0  0  0  0  0  0  0  0  0  0  0
   -0.4164   14.3299   -4.1931 H   0  0  0  0  0  0  0  0  0  0  0  0
   -0.8006   12.5752   -4.1931 H   0  0  0  0  0  0  0  0  0  0  0  0
    1.9981   12.2017   -4.0567 H   0  0  0  0  0  0  0  0  0  0  0  0
    1.6792   14.0037   -4.3482 H   0  0  0  0  0  0  0  0  0  0  0  0
    3.5812   12.7632   -2.3410 H   0  0  0  0  0  0  0  0  0  0  0  0
    3.9692   13.7657   -3.7944 H   0  0  0  0  0  0  0  0  0  0  0  0
    2.4089   16.9051   -2.5245 H   0  0  0  0  0  0  0  0  0  0  0  0
    3.5714   16.2949   -3.7504 H   0  0  0  0  0  0  0  0  0  0  0  0
    1.8744   15.7059   -3.7504 H   0  0  0  0  0  0  0  0  0  0  0  0
  1  2  1  0
  2  3  1  0
  3  4  1  0
  4  5  1  0
  5  6  1  0
  6  7  1  0
  7  8  1  0
  7  9  1  0
  2 10  1  0
 10 11  1  0
 11 12  1  0
 12 13  1  0
 13 14  1  1
 13 15  1  0
 15 16  1  0
 16 17  1  0
 17 18  2  0
 18 19  1  0
 19 20  1  0
 20 21  1  0
 21 22  1  0
 22 23  1  0
 22 24  1  0
 24 25  1  0
 24 26  1  0
 19 27  1  0
 27 28  1  6
 27 29  1  0
 29 30  1  0
 30 31  1  0
 31 32  1  6
  7  5  1  0
 31 10  1  0
 31 13  1  0
 27 15  1  0
 24 18  1  0
  1 33  1  0
  1 34  1  0
  1 35  1  0
  2 36  1  1
  3 37  1  0
  3 38  1  0
  4 39  1  0
  4 40  1  0
  5 41  1  6
  8 42  1  0
  8 43  1  0
  8 44  1  0
  9 45  1  0
  9 46  1  0
  9 47  1  0
 10 48  1  1
 11 49  1  0
 11 50  1  0
 12 51  1  0
 12 52  1  0
 14 53  1  0
 14 54  1  0
 14 55  1  0
 15 56  1  6
 16 57  1  0
 16 58  1  0
 17 59  1  0
 19 60  1  1
 20 61  1  0
 20 62  1  0
 21 63  1  0
 21 64  1  0
 22 65  1  1
 23 66  1  0
 25 67  1  0
 25 68  1  0
 25 69  1  0
 26 70  1  0
 26 71  1  0
 26 72  1  0
 28 73  1  0
 28 74  1  0
 28 75  1  0
 29 76  1  0
 29 77  1  0
 30 78  1  0
 30 79  1  0
 32 80  1  0
 32 81  1  0
 32 82  1  0
M  END
>  <meeko>  (14) 
{"is_sidechain": [false], "intermolecular_energy": 2.731, "internal_energy": -0.839}

$$$$
EPH_relaxed_0001_pdb2pqr_Repair_165_r2_0001_out
     RDKit          3D

 82 86  0  0  0  0  0  0  0  0999 V2000
    2.4790   17.6300   -3.3070 C   0  0  0  0  0  0  0  0  0  0  0  0
    3.1440   16.9060   -2.1330 C   0  0  2  0  0  0  0  0  0  0  0  0
    4.6400   17.2580   -2.0060 C   0  0  0  0  0  0  0  0  0  0  0  0
    5.2450   17.8470   -3.2840 C   0  0  0  0  0  0  0  0  0  0  0  0
    6.2580   16.9260   -3.8930 C   0  0  2  0  0  0  0  0  0  0  0  0
    7.1760   16.3440   -2.9580 O   0  0  0  0  0  0  0  0  0  0  0  0
    7.7440   17.2290   -3.9370 C   0  0  0  0  0  0  0  0  0  0  0  0
    8.3000   18.4950   -3.3620 C   0  0  0  0  0  0  0  0  0  0  0  0
    8.5860   16.5350   -4.9610 C   0  0  0  0  0  0  0  0  0  0  0  0
    2.9750   15.3990   -2.2890 C   0  0  1  0  0  0  0  0  0  0  0  0
    4.3210   14.6690   -2.5400 C   0  0  0  0  0  0  0  0  0  0  0  0
    4.2240   13.2940   -1.8300 C   0  0  0  0  0  0  0  0  0  0  0  0
    2.7240   13.1410   -1.4820 C   0  0  1  0  0  0  0  0  0  0  0  0
    2.0550   12.6480   -2.8040 C   0  0  0  0  0  0  0  0  0  0  0  0
    2.3870   12.2010   -0.2790 C   0  0  2  0  0  0  0  0  0  0  0  0
    2.7910   10.7280   -0.4680 C   0  0  0  0  0  0  0  0  0  0  0  0
    1.7480    9.8540   -1.0800 C   0  0  0  0  0  0  0  0  0  0  0  0
    0.4430   10.1610   -1.2020 C   0  0  0  0  0  0  0  0  0  0  0  0
   -0.1190   11.4590   -0.6080 C   0  0  1  0  0  0  0  0  0  0  0  0
   -1.4300   11.1510    0.1620 C   0  0  0  0  0  0  0  0  0  0  0  0
   -2.4520   10.4110   -0.6960 C   0  0  0  0  0  0  0  0  0  0  0  0
   -1.8760    9.0980   -1.2200 C   0  0  2  0  0  0  0  0  0  0  0  0
   -1.6630    8.2140   -0.1150 O   0  0  0  0  0  0  0  0  0  0  0  0
   -0.5470    9.2820   -2.0050 C   0  0  0  0  0  0  0  0  0  0  0  0
   -0.8340    9.9830   -3.3560 C   0  0  0  0  0  0  0  0  0  0  0  0
    0.0000    7.8720   -2.3550 C   0  0  0  0  0  0  0  0  0  0  0  0
    0.9000   12.3290    0.2460 C   0  0  1  0  0  0  0  0  0  0  0  0
    0.9070   11.8400    1.7270 C   0  0  0  0  0  0  0  0  0  0  0  0
    0.4020   13.8230    0.2750 C   0  0  0  0  0  0  0  0  0  0  0  0
    0.8670   14.7320   -0.8780 C   0  0  0  0  0  0  0  0  0  0  0  0
    2.3800   14.6230   -1.0870 C   0  0  2  0  0  0  0  0  0  0  0  0
    3.0820   15.1330    0.2180 C   0  0  0  0  0  0  0  0  0  0  0  0
    1.7819   18.3890   -2.9223 H   0  0  0  0  0  0  0  0  0  0  0  0
    3.2502   18.1181   -3.9210 H   0  0  0  0  0  0  0  0  0  0  0  0
    1.9272   16.9030   -3.9210 H   0  0  0  0  0  0  0  0  0  0  0  0
    2.6463   17.2427   -1.2116 H   0  0  0  0  0  0  0  0  0  0  0  0
    4.7562   17.9932   -1.1960 H   0  0  0  0  0  0  0  0  0  0  0  0
    5.1747   16.3189   -1.8006 H   0  0  0  0  0  0  0  0  0  0  0  0
    4.4392   18.0221   -4.0120 H   0  0  0  0  0  0  0  0  0  0  0  0
    5.7508   18.7880   -3.0219 H   0  0  0  0  0  0  0  0  0  0  0  0
    5.5446   16.6172   -4.6713 H   0  0  0  0  0  0  0  0  0  0  0  0
    8.2760   18.4404   -2.2636 H   0  0  0  0  0  0  0  0  0  0  0  0
    9.3385   18.6261   -3.7000 H   0  0  0  0  0  0  0  0  0  0  0  0
    7.6939   19.3484   -3.7000 H   0  0  0  0  0  0  0  0  0  0  0  0
    9.3400   15.9136   -4.4557 H   0  0  0  0  0  0  0  0  0  0  0  0
    7.9473   15.8976   -5.5900 H   0  0  0  0  0  0  0  0  0  0  0  0
    9.0897   17.2837   -5.5900 H   0  0  0  0  0  0  0  0  0  0  0  0
    2.2727   15.3786   -3.1354 H   0  0  0  0  0  0  0  0  0  0  0  0
    4.4796   14.5276   -3.6193 H   0  0  0  0  0  0  0  0  0  0  0  0
    5.1666   15.2553   -2.1510 H   0  0  0  0  0  0  0  0  0  0  0  0
    4.5516   12.4862   -2.5010 H   0  0  0  0  0  0  0  0  0  0  0  0
    4.8673   13.2374   -0.9395 H   0  0  0  0  0  0  0  0  0  0  0  0
    1.1911   12.0114   -2.5625 H   0  0  0  0  0  0  0  0  0  0  0  0
    1.7185   13.5157   -3.3904 H   0  0  0  0  0  0  0  0  0  0  0  0
    2.7841   12.0696   -3.3904 H   0  0  0  0  0  0  0  0  0  0  0  0
    3.0412   12.5905    0.5149 H   0  0  0  0  0  0  0  0  0  0  0  0
    3.6802   10.6999   -1.1149 H   0  0  0  0  0  0  0  0  0  0  0  0
    2.9676   10.3292    0.5418 H   0  0  0  0  0  0  0  0  0  0  0  0
    2.0730    8.8758   -1.4641 H   0  0  0  0  0  0  0  0  0  0  0  0
   -0.3340   12.1165   -1.4633 H   0  0  0  0  0  0  0  0  0  0  0  0
   -1.1876   10.5294    1.0366 H   0  0  0  0  0  0  0  0  0  0  0  0
   -1.8763   12.1114    0.4593 H   0  0  0  0  0  0  0  0  0  0  0  0
   -3.3436   10.1960   -0.0887 H   0  0  0  0  0  0  0  0  0  0  0  0
   -2.7154   11.0463   -1.5545 H   0  0  0  0  0  0  0  0  0  0  0  0
   -2.6043    8.6786   -1.9297 H   0  0  0  0  0  0  0  0  0  0  0  0
   -2.4160    7.5990   -0.0800 H   0  0  0  0  0  0  0  0  0  0  0  0
   -1.2447   10.9861   -3.1686 H   0  0  0  0  0  0  0  0  0  0  0  0
    0.1006   10.0707   -3.9294 H   0  0  0  0  0  0  0  0  0  0  0  0
   -1.5618    9.3901   -3.9294 H   0  0  0  0  0  0  0  0  0  0  0  0
    0.2138    7.3210   -1.4273 H   0  0  0  0  0  0  0  0  0  0  0  0
   -0.7504    7.3231   -2.9429 H   0  0  0  0  0  0  0  0  0  0  0  0
    0.9243    7.9728   -2.9429 H   0  0  0  0  0  0  0  0  0  0  0  0
    0.8945   12.7097    2.4004 H   0  0  0  0  0  0  0  0  0  0  0  0
    0.0176   11.2198    1.9126 H   0  0  0  0  0  0  0  0  0  0  0  0
    1.8137   11.2456    1.9126 H   0  0  0  0  0  0  0  0  0  0  0  0
   -0.6978   13.8075    0.2639 H   0  0  0  0  0  0  0  0  0  0  0  0
    0.8475   14.2576    1.1820 H   0  0  0  0  0  0  0  0  0  0  0  0
    0.3535   14.4308   -1.8030 H   0  0  0  0  0  0  0  0  0  0  0  0
    0.6227   15.7738   -0.6232 H   0  0  0  0  0  0  0  0  0  0  0  0
    2.5476   14.7447    1.0976 H   0  0  0  0  0  0  0  0  0  0  0  0
    4.1235   14.7795    0.2362 H   0  0  0  0  0  0  0  0  0  0  0  0
    3.0677   16.2328    0.2362 H   0  0  0  0  0  0  0  0  0  0  0  0
  1  2  1  0
  2  3  1  0
  3  4  1  0
  4  5  1  0
  5  6  1  0
  6  7  1  0
  7  8  1  0
  7  9  1  0
  2 10  1  0
 10 11  1  0
 11 12  1  0
 12 13  1  0
 13 14  1  6
 13 15  1  0
 15 16  1  0
 16 17  1  0
 17 18  2  0
 18 19  1  0
 19 20  1  0
 20 21  1  0
 21 22  1  0
 22 23  1  0
 22 24  1  0
 24 25  1  0
 24 26  1  0
 19 27  1  0
 27 28  1  1
 27 29  1  0
 29 30  1  0
 30 31  1  0
 31 32  1  1
  7  5  1  0
 31 10  1  0
 31 13  1  0
 27 15  1  0
 24 18  1  0
  1 33  1  0
  1 34  1  0
  1 35  1  0
  2 36  1  1
  3 37  1  0
  3 38  1  0
  4 39  1  0
  4 40  1  0
  5 41  1  6
  8 42  1  0
  8 43  1  0
  8 44  1  0
  9 45  1  0
  9 46  1  0
  9 47  1  0
 10 48  1  6
 11 49  1  0
 11 50  1  0
 12 51  1  0
 12 52  1  0
 14 53  1  0
 14 54  1  0
 14 55  1  0
 15 56  1  1
 16 57  1  0
 16 58  1  0
 17 59  1  0
 19 60  1  6
 20 61  1  0
 20 62  1  0
 21 63  1  0
 21 64  1  0
 22 65  1  6
 23 66  1  0
 25 67  1  0
 25 68  1  0
 25 69  1  0
 26 70  1  0
 26 71  1  0
 26 72  1  0
 28 73  1  0
 28 74  1  0
 28 75  1  0
 29 76  1  0
 29 77  1  0
 30 78  1  0
 30 79  1  0
 32 80  1  0
 32 81  1  0
 32 82  1  0
M  END
>  <meeko>  (15) 
{"is_sidechain": [false], "intermolecular_energy": 2.731, "internal_energy": -0.839}

$$$$
EPH_relaxed_0001_pdb2pqr_Repair_165_r2_0001_out
     RDKit          3D

 82 86  0  0  0  0  0  0  0  0999 V2000
   -5.2520    5.7770   -1.3710 C   0  0  0  0  0  0  0  0  0  0  0  0
   -5.4390    7.2680   -1.6640 C   0  0  2  0  0  0  0  0  0  0  0  0
   -5.1490    8.1440   -0.4280 C   0  0  0  0  0  0  0  0  0  0  0  0
   -4.1780    9.2950   -0.7030 C   0  0  0  0  0  0  0  0  0  0  0  0
   -2.7650    8.9180   -0.3740 C   0  0  2  0  0  0  0  0  0  0  0  0
   -2.1800    9.6670    0.6990 O   0  0  0  0  0  0  0  0  0  0  0  0
   -1.5810    9.8410   -0.5950 C   0  0  0  0  0  0  0  0  0  0  0  0
   -1.7560   11.2120   -1.1680 C   0  0  0  0  0  0  0  0  0  0  0  0
   -0.2160    9.2370   -0.7140 C   0  0  0  0  0  0  0  0  0  0  0  0
   -6.8550    7.5260   -2.1640 C   0  0  1  0  0  0  0  0  0  0  0  0
   -7.1360    6.8530   -3.5340 C   0  0  0  0  0  0  0  0  0  0  0  0
   -8.6210    6.4060   -3.5170 C   0  0  0  0  0  0  0  0  0  0  0  0
   -9.2290    7.1220   -2.2880 C   0  0  1  0  0  0  0  0  0  0  0  0
   -9.5410    8.5700   -2.7820 C   0  0  0  0  0  0  0  0  0  0  0  0
  -10.4860    6.4480   -1.6480 C   0  0  2  0  0  0  0  0  0  0  0  0
  -11.7170    6.3560   -2.5670 C   0  0  0  0  0  0  0  0  0  0  0  0
  -12.6530    7.5170   -2.4980 C   0  0  0  0  0  0  0  0  0  0  0  0
  -12.6660    8.4540   -1.5310 C   0  0  0  0  0  0  0  0  0  0  0  0
  -11.7370    8.3450   -0.3150 C   0  0  1  0  0  0  0  0  0  0  0  0
  -12.5450    8.6220    0.9800 C   0  0  0  0  0  0  0  0  0  0  0  0
  -13.2900    9.9520    0.9320 C   0  0  0  0  0  0  0  0  0  0  0  0
  -14.2460   10.0000   -0.2570 C   0  0  2  0  0  0  0  0  0  0  0  0
  -15.2870    9.0400   -0.0490 O   0  0  0  0  0  0  0  0  0  0  0  0
  -13.5460    9.7250   -1.6170 C   0  0  0  0  0  0  0  0  0  0  0  0
  -12.6360   10.9230   -1.9850 C   0  0  0  0  0  0  0  0  0  0  0  0
  -14.6430    9.6620   -2.7140 C   0  0  0  0  0  0  0  0  0  0  0  0
  -10.8710    7.0160   -0.2220 C   0  0  1  0  0  0  0  0  0  0  0  0
  -11.6860    5.8990    0.4980 C   0  0  0  0  0  0  0  0  0  0  0  0
   -9.6050    7.2900    0.6740 C   0  0  0  0  0  0  0  0  0  0  0  0
   -8.3560    7.8430   -0.0380 C   0  0  0  0  0  0  0  0  0  0  0  0
   -8.0240    7.0170   -1.2840 C   0  0  2  0  0  0  0  0  0  0  0  0
   -7.6850    5.5610   -0.8170 C   0  0  0  0  0  0  0  0  0  0  0  0
   -5.2319    5.6168   -0.2829 H   0  0  0  0  0  0  0  0  0  0  0  0
   -6.0860    5.2097   -1.8098 H   0  0  0  0  0  0  0  0  0  0  0  0
   -4.3037    5.4332   -1.8098 H   0  0  0  0  0  0  0  0  0  0  0  0
   -4.7134    7.5453   -2.4428 H   0  0  0  0  0  0  0  0  0  0  0  0
   -6.0994    8.5689   -0.0729 H   0  0  0  0  0  0  0  0  0  0  0  0
   -4.6733    7.4945    0.3216 H   0  0  0  0  0  0  0  0  0  0  0  0
   -4.2365    9.5642   -1.7679 H   0  0  0  0  0  0  0  0  0  0  0  0
   -4.4638   10.1448   -0.0657 H   0  0  0  0  0  0  0  0  0  0  0  0
   -2.9507    7.8732   -0.6638 H   0  0  0  0  0  0  0  0  0  0  0  0
   -1.8492   11.9420   -0.3504 H   0  0  0  0  0  0  0  0  0  0  0  0
   -0.8828   11.4647   -1.7874 H   0  0  0  0  0  0  0  0  0  0  0  0
   -2.6647   11.2373   -1.7874 H   0  0  0  0  0  0  0  0  0  0  0  0
    0.1936    9.0558    0.2907 H   0  0  0  0  0  0  0  0  0  0  0  0
   -0.2829    8.2844   -1.2600 H   0  0  0  0  0  0  0  0  0  0  0  0
    0.4440    9.9271   -1.2600 H   0  0  0  0  0  0  0  0  0  0  0  0
   -6.8476    8.6259   -2.1799 H   0  0  0  0  0  0  0  0  0  0  0  0
   -6.9657    7.5703   -4.3504 H   0  0  0  0  0  0  0  0  0  0  0  0
   -6.4672    5.9950   -3.6970 H   0  0  0  0  0  0  0  0  0  0  0  0
   -9.1312    6.7181   -4.4402 H   0  0  0  0  0  0  0  0  0  0  0  0
   -8.7273    5.3127   -3.4581 H   0  0  0  0  0  0  0  0  0  0  0  0
   -9.6834    9.2308   -1.9142 H   0  0  0  0  0  0  0  0  0  0  0  0
   -8.7017    8.9388   -3.3899 H   0  0  0  0  0  0  0  0  0  0  0  0
  -10.4577    8.5605   -3.3899 H   0  0  0  0  0  0  0  0  0  0  0  0
  -10.1469    5.4123   -1.4985 H   0  0  0  0  0  0  0  0  0  0  0  0
  -11.3610    6.2677   -3.6040 H   0  0  0  0  0  0  0  0  0  0  0  0
  -12.2897    5.4827   -2.2217 H   0  0  0  0  0  0  0  0  0  0  0  0
  -13.3942    7.6153   -3.3048 H   0  0  0  0  0  0  0  0  0  0  0  0
  -10.9685    9.1207   -0.4481 H   0  0  0  0  0  0  0  0  0  0  0  0
  -13.2770    7.8127    1.1186 H   0  0  0  0  0  0  0  0  0  0  0  0
  -11.8307    8.6697    1.8152 H   0  0  0  0  0  0  0  0  0  0  0  0
  -13.8651   10.0761    1.8614 H   0  0  0  0  0  0  0  0  0  0  0  0
  -12.5542   10.7625    0.8235 H   0  0  0  0  0  0  0  0  0  0  0  0
  -14.6517   11.0208   -0.3141 H   0  0  0  0  0  0  0  0  0  0  0  0
  -15.3850    8.5300   -0.8710 H   0  0  0  0  0  0  0  0  0  0  0  0
  -12.2715   11.4028   -1.0647 H   0  0  0  0  0  0  0  0  0  0  0  0
  -11.7799   10.5652   -2.5758 H   0  0  0  0  0  0  0  0  0  0  0  0
  -13.2103   11.6518   -2.5758 H   0  0  0  0  0  0  0  0  0  0  0  0
  -15.6336    9.6051   -2.2391 H   0  0  0  0  0  0  0  0  0  0  0  0
  -14.5878   10.5648   -3.3400 H   0  0  0  0  0  0  0  0  0  0  0  0
  -14.4848    8.7715   -3.3400 H   0  0  0  0  0  0  0  0  0  0  0  0
  -11.5954    6.0232    1.5872 H   0  0  0  0  0  0  0  0  0  0  0  0
  -12.7444    5.9722    0.2074 H   0  0  0  0  0  0  0  0  0  0  0  0
  -11.2933    4.9134    0.2074 H   0  0  0  0  0  0  0  0  0  0  0  0
   -9.8957    8.0160    1.4475 H   0  0  0  0  0  0  0  0  0  0  0  0
   -9.3046    6.3035    1.0568 H   0  0  0  0  0  0  0  0  0  0  0  0
   -8.5439    8.8849   -0.3366 H   0  0  0  0  0  0  0  0  0  0  0  0
   -7.5041    7.7887    0.6558 H   0  0  0  0  0  0  0  0  0  0  0  0
   -7.6758    5.5213    0.2822 H   0  0  0  0  0  0  0  0  0  0  0  0
   -8.4453    4.8659   -1.2026 H   0  0  0  0  0  0  0  0  0  0  0  0
   -6.6958    5.2732   -1.2026 H   0  0  0  0  0  0  0  0  0  0  0  0
  1  2  1  0
  2  3  1  0
  3  4  1  0
  4  5  1  0
  5  6  1  0
  6  7  1  0
  7  8  1  0
  7  9  1  0
  2 10  1  0
 10 11  1  0
 11 12  1  0
 12 13  1  0
 13 14  1  6
 13 15  1  0
 15 16  1  0
 16 17  1  0
 17 18  2  0
 18 19  1  0
 19 20  1  0
 20 21  1  0
 21 22  1  0
 22 23  1  0
 22 24  1  0
 24 25  1  0
 24 26  1  0
 19 27  1  0
 27 28  1  1
 27 29  1  0
 29 30  1  0
 30 31  1  0
 31 32  1  1
  7  5  1  0
 31 10  1  0
 31 13  1  0
 27 15  1  0
 24 18  1  0
  1 33  1  0
  1 34  1  0
  1 35  1  0
  2 36  1  6
  3 37  1  0
  3 38  1  0
  4 39  1  0
  4 40  1  0
  5 41  1  1
  8 42  1  0
  8 43  1  0
  8 44  1  0
  9 45  1  0
  9 46  1  0
  9 47  1  0
 10 48  1  6
 11 49  1  0
 11 50  1  0
 12 51  1  0
 12 52  1  0
 14 53  1  0
 14 54  1  0
 14 55  1  0
 15 56  1  1
 16 57  1  0
 16 58  1  0
 17 59  1  0
 19 60  1  6
 20 61  1  0
 20 62  1  0
 21 63  1  0
 21 64  1  0
 22 65  1  6
 23 66  1  0
 25 67  1  0
 25 68  1  0
 25 69  1  0
 26 70  1  0
 26 71  1  0
 26 72  1  0
 28 73  1  0
 28 74  1  0
 28 75  1  0
 29 76  1  0
 29 77  1  0
 30 78  1  0
 30 79  1  0
 32 80  1  0
 32 81  1  0
 32 82  1  0
M  END
>  <meeko>  (16) 
{"is_sidechain": [false], "intermolecular_energy": 2.731, "internal_energy": -0.839}

$$$$
EPH_relaxed_0001_pdb2pqr_Repair_165_r2_0001_out
     RDKit          3D

 82 86  0  0  0  0  0  0  0  0999 V2000
   -1.3280   10.4410    1.6600 C   0  0  0  0  0  0  0  0  0  0  0  0
   -1.9580   10.1380    0.2970 C   0  0  2  0  0  0  0  0  0  0  0  0
   -2.7690    8.8270    0.3120 C   0  0  0  0  0  0  0  0  0  0  0  0
   -4.1190    8.9310   -0.4020 C   0  0  0  0  0  0  0  0  0  0  0  0
   -4.6270    7.5860   -0.8270 C   0  0  2  0  0  0  0  0  0  0  0  0
   -4.7820    7.4250   -2.2430 O   0  0  0  0  0  0  0  0  0  0  0  0
   -5.9870    7.3680   -1.4630 C   0  0  0  0  0  0  0  0  0  0  0  0
   -6.9260    8.5070   -1.7080 C   0  0  0  0  0  0  0  0  0  0  0  0
   -6.5970    6.0030   -1.3960 C   0  0  0  0  0  0  0  0  0  0  0  0
   -0.8740   10.0680   -0.7720 C   0  0  1  0  0  0  0  0  0  0  0  0
   -1.2900    9.1970   -1.9880 C   0  0  0  0  0  0  0  0  0  0  0  0
   -0.6610    9.8540   -3.2440 C   0  0  0  0  0  0  0  0  0  0  0  0
    0.3570   10.8740   -2.6820 C   0  0  1  0  0  0  0  0  0  0  0  0
    1.6230   10.0280   -2.3370 C   0  0  0  0  0  0  0  0  0  0  0  0
    0.7070   12.0830   -3.6090 C   0  0  2  0  0  0  0  0  0  0  0  0
    1.3780   11.7110   -4.9430 C   0  0  0  0  0  0  0  0  0  0  0  0
    2.8700   11.6630   -4.9150 C   0  0  0  0  0  0  0  0  0  0  0  0
    3.6510   12.1810   -3.9490 C   0  0  0  0  0  0  0  0  0  0  0  0
    3.0430   12.9840   -2.7910 C   0  0  1  0  0  0  0  0  0  0  0  0
    3.8630   14.2830   -2.5760 C   0  0  0  0  0  0  0  0  0  0  0  0
    5.3510   14.0100   -2.3790 C   0  0  0  0  0  0  0  0  0  0  0  0
    5.9310   13.2620   -3.5770 C   0  0  2  0  0  0  0  0  0  0  0  0
    5.8970   14.1230   -4.7190 O   0  0  0  0  0  0  0  0  0  0  0  0
    5.1790   11.9400   -3.8960 C   0  0  0  0  0  0  0  0  0  0  0  0
    5.4690   10.8960   -2.7890 C   0  0  0  0  0  0  0  0  0  0  0  0
    5.7730   11.3580   -5.2070 C   0  0  0  0  0  0  0  0  0  0  0  0
    1.4800   13.2560   -2.8810 C   0  0  1  0  0  0  0  0  0  0  0  0
    1.2120   14.5490   -3.7110 C   0  0  0  0  0  0  0  0  0  0  0  0
    0.9220   13.5330   -1.4350 C   0  0  0  0  0  0  0  0  0  0  0  0
    0.4820   12.3070   -0.6130 C   0  0  0  0  0  0  0  0  0  0  0  0
   -0.4400   11.4000   -1.4340 C   0  0  2  0  0  0  0  0  0  0  0  0
   -1.7320   12.2170   -1.7770 C   0  0  0  0  0  0  0  0  0  0  0  0
   -2.0088   10.1136    2.4596 H   0  0  0  0  0  0  0  0  0  0  0  0
   -0.3721    9.9041    1.7496 H   0  0  0  0  0  0  0  0  0  0  0  0
   -1.1507   11.5229    1.7496 H   0  0  0  0  0  0  0  0  0  0  0  0
   -2.6563   10.9557    0.0651 H   0  0  0  0  0  0  0  0  0  0  0  0
   -2.1740    8.0448   -0.1821 H   0  0  0  0  0  0  0  0  0  0  0  0
   -2.9796    8.5911    1.3656 H   0  0  0  0  0  0  0  0  0  0  0  0
   -4.8495    9.3882    0.2817 H   0  0  0  0  0  0  0  0  0  0  0  0
   -3.9834    9.5467   -1.3034 H   0  0  0  0  0  0  0  0  0  0  0  0
   -4.1236    7.1012    0.0225 H   0  0  0  0  0  0  0  0  0  0  0  0
   -7.2641    8.9171   -0.7449 H   0  0  0  0  0  0  0  0  0  0  0  0
   -6.4091    9.2919   -2.2796 H   0  0  0  0  0  0  0  0  0  0  0  0
   -7.7951    8.1493   -2.2796 H   0  0  0  0  0  0  0  0  0  0  0  0
   -6.7275    5.7110   -0.3435 H   0  0  0  0  0  0  0  0  0  0  0  0
   -7.5759    6.0138   -1.8976 H   0  0  0  0  0  0  0  0  0  0  0  0
   -5.9359    5.2809   -1.8976 H   0  0  0  0  0  0  0  0  0  0  0  0
   -0.0479    9.6609   -0.1705 H   0  0  0  0  0  0  0  0  0  0  0  0
   -0.9111    8.1715   -1.8668 H   0  0  0  0  0  0  0  0  0  0  0  0
   -2.3849    9.1407   -2.0777 H   0  0  0  0  0  0  0  0  0  0  0  0
   -0.1536    9.1001   -3.8638 H   0  0  0  0  0  0  0  0  0  0  0  0
   -1.4153   10.3291   -3.8884 H   0  0  0  0  0  0  0  0  0  0  0  0
    1.7298    9.9566   -1.2445 H   0  0  0  0  0  0  0  0  0  0  0  0
    1.5166    9.0189   -2.7617 H   0  0  0  0  0  0  0  0  0  0  0  0
    2.5146   10.5124   -2.7617 H   0  0  0  0  0  0  0  0  0  0  0  0
   -0.2875   12.4716   -3.8734 H   0  0  0  0  0  0  0  0  0  0  0  0
    1.0116   10.7180   -5.2425 H   0  0  0  0  0  0  0  0  0  0  0  0
    1.1125   12.5104   -5.6504 H   0  0  0  0  0  0  0  0  0  0  0  0
    3.3735   11.1619   -5.7549 H   0  0  0  0  0  0  0  0  0  0  0  0
    3.1208   12.3419   -1.9013 H   0  0  0  0  0  0  0  0  0  0  0  0
    3.7368   14.9295   -3.4570 H   0  0  0  0  0  0  0  0  0  0  0  0
    3.4885   14.7666   -1.6618 H   0  0  0  0  0  0  0  0  0  0  0  0
    5.8803   14.9671   -2.2614 H   0  0  0  0  0  0  0  0  0  0  0  0
    5.4782   13.3877   -1.4809 H   0  0  0  0  0  0  0  0  0  0  0  0
    6.9637   12.9815   -3.3223 H   0  0  0  0  0  0  0  0  0  0  0  0
    6.6540   13.8940   -5.2840 H   0  0  0  0  0  0  0  0  0  0  0  0
    5.3393   11.3630   -1.8015 H   0  0  0  0  0  0  0  0  0  0  0  0
    4.7714   10.0514   -2.8897 H   0  0  0  0  0  0  0  0  0  0  0  0
    6.5022   10.5322   -2.8897 H   0  0  0  0  0  0  0  0  0  0  0  0
    6.5388   10.6076   -4.9611 H   0  0  0  0  0  0  0  0  0  0  0  0
    4.9719   10.8855   -5.7944 H   0  0  0  0  0  0  0  0  0  0  0  0
    6.2291   12.1685   -5.7944 H   0  0  0  0  0  0  0  0  0  0  0  0
    1.0370   15.3934   -3.0281 H   0  0  0  0  0  0  0  0  0  0  0  0
    2.0845   14.7651   -4.3451 H   0  0  0  0  0  0  0  0  0  0  0  0
    0.3255   14.4005   -4.3451 H   0  0  0  0  0  0  0  0  0  0  0  0
    1.7106   14.0485   -0.8673 H   0  0  0  0  0  0  0  0  0  0  0  0
    0.0048   14.1205   -1.5884 H   0  0  0  0  0  0  0  0  0  0  0  0
    1.3731   11.7367   -0.3119 H   0  0  0  0  0  0  0  0  0  0  0  0
   -0.0679   12.6572    0.2730 H   0  0  0  0  0  0  0  0  0  0  0  0
   -2.2263   12.5296   -0.8453 H   0  0  0  0  0  0  0  0  0  0  0  0
   -1.4584   13.1066   -2.3632 H   0  0  0  0  0  0  0  0  0  0  0  0
   -2.4185   11.5884   -2.3632 H   0  0  0  0  0  0  0  0  0  0  0  0
  1  2  1  0
  2  3  1  0
  3  4  1  0
  4  5  1  0
  5  6  1  0
  6  7  1  0
  7  8  1  0
  7  9  1  0
  2 10  1  0
 10 11  1  0
 11 12  1  0
 12 13  1  0
 13 14  1  1
 13 15  1  0
 15 16  1  0
 16 17  1  0
 17 18  2  0
 18 19  1  0
 19 20  1  0
 20 21  1  0
 21 22  1  0
 22 23  1  0
 22 24  1  0
 24 25  1  0
 24 26  1  0
 19 27  1  0
 27 28  1  6
 27 29  1  0
 29 30  1  0
 30 31  1  0
 31 32  1  6
  7  5  1  0
 31 10  1  0
 31 13  1  0
 27 15  1  0
 24 18  1  0
  1 33  1  0
  1 34  1  0
  1 35  1  0
  2 36  1  6
  3 37  1  0
  3 38  1  0
  4 39  1  0
  4 40  1  0
  5 41  1  1
  8 42  1  0
  8 43  1  0
  8 44  1  0
  9 45  1  0
  9 46  1  0
  9 47  1  0
 10 48  1  1
 11 49  1  0
 11 50  1  0
 12 51  1  0
 12 52  1  0
 14 53  1  0
 14 54  1  0
 14 55  1  0
 15 56  1  6
 16 57  1  0
 16 58  1  0
 17 59  1  0
 19 60  1  1
 20 61  1  0
 20 62  1  0
 21 63  1  0
 21 64  1  0
 22 65  1  1
 23 66  1  0
 25 67  1  0
 25 68  1  0
 25 69  1  0
 26 70  1  0
 26 71  1  0
 26 72  1  0
 28 73  1  0
 28 74  1  0
 28 75  1  0
 29 76  1  0
 29 77  1  0
 30 78  1  0
 30 79  1  0
 32 80  1  0
 32 81  1  0
 32 82  1  0
M  END
>  <meeko>  (17) 
{"is_sidechain": [false], "intermolecular_energy": 2.731, "internal_energy": -0.839}

$$$$
EPH_relaxed_0001_pdb2pqr_Repair_165_r2_0001_out
     RDKit          3D

 82 86  0  0  0  0  0  0  0  0999 V2000
   -0.5910   10.5960   -2.0910 C   0  0  0  0  0  0  0  0  0  0  0  0
    0.4040   10.3520   -0.9540 C   0  0  2  0  0  0  0  0  0  0  0  0
   -0.2970   10.2110    0.4120 C   0  0  0  0  0  0  0  0  0  0  0  0
    0.5250   10.7540    1.5840 C   0  0  0  0  0  0  0  0  0  0  0  0
   -0.1960   11.8520    2.3050 C   0  0  2  0  0  0  0  0  0  0  0  0
    0.4800   13.1160    2.3000 O   0  0  0  0  0  0  0  0  0  0  0  0
    0.3150   12.4910    3.5830 C   0  0  0  0  0  0  0  0  0  0  0  0
    1.5990   12.0510    4.2160 C   0  0  0  0  0  0  0  0  0  0  0  0
   -0.6630   13.1910    4.4740 C   0  0  0  0  0  0  0  0  0  0  0  0
    1.4230   11.4840   -0.9020 C   0  0  1  0  0  0  0  0  0  0  0  0
    2.7470   11.1300   -1.6300 C   0  0  0  0  0  0  0  0  0  0  0  0
    3.2650   12.4400   -2.2780 C   0  0  0  0  0  0  0  0  0  0  0  0
    2.4140   13.5580   -1.6320 C   0  0  1  0  0  0  0  0  0  0  0  0
    3.0870   13.8270   -0.2500 C   0  0  0  0  0  0  0  0  0  0  0  0
    2.2560   14.8730   -2.4630 C   0  0  2  0  0  0  0  0  0  0  0  0
    3.5650   15.6320   -2.7390 C   0  0  0  0  0  0  0  0  0  0  0  0
    3.9370   16.6550   -1.7170 C   0  0  0  0  0  0  0  0  0  0  0  0
    3.1160   17.1540   -0.7760 C   0  0  0  0  0  0  0  0  0  0  0  0
    1.6330   16.7620   -0.7350 C   0  0  1  0  0  0  0  0  0  0  0  0
    0.7660   18.0340   -0.5510 C   0  0  0  0  0  0  0  0  0  0  0  0
    1.1850   18.8580    0.6630 C   0  0  0  0  0  0  0  0  0  0  0  0
    2.6480   19.2780    0.5580 C   0  0  2  0  0  0  0  0  0  0  0  0
    2.7880   20.1940   -0.5320 O   0  0  0  0  0  0  0  0  0  0  0  0
    3.6170   18.0790    0.3610 C   0  0  0  0  0  0  0  0  0  0  0  0
    3.6920   17.2490    1.6660 C   0  0  0  0  0  0  0  0  0  0  0  0
    5.0420   18.6510    0.1280 C   0  0  0  0  0  0  0  0  0  0  0  0
    1.1260   15.8450   -1.9300 C   0  0  1  0  0  0  0  0  0  0  0  0
    0.6960   16.7330   -3.1370 C   0  0  0  0  0  0  0  0  0  0  0  0
   -0.1630   15.0670   -1.4690 C   0  0  0  0  0  0  0  0  0  0  0  0
    0.0550   13.7170   -0.7600 C   0  0  0  0  0  0  0  0  0  0  0  0
    1.0220   12.8320   -1.5530 C   0  0  2  0  0  0  0  0  0  0  0  0
    0.3620   12.5260   -2.9410 C   0  0  0  0  0  0  0  0  0  0  0  0
   -1.5777   10.8380   -1.6692 H   0  0  0  0  0  0  0  0  0  0  0  0
   -0.2413   11.4350   -2.7105 H   0  0  0  0  0  0  0  0  0  0  0  0
   -0.6691    9.6904   -2.7105 H   0  0  0  0  0  0  0  0  0  0  0  0
    0.9157    9.4007   -1.1619 H   0  0  0  0  0  0  0  0  0  0  0  0
   -1.2495   10.7598    0.3720 H   0  0  0  0  0  0  0  0  0  0  0  0
   -0.4401    9.1351    0.5906 H   0  0  0  0  0  0  0  0  0  0  0  0
    0.7237    9.9343    2.2901 H   0  0  0  0  0  0  0  0  0  0  0  0
    1.4633   11.1653    1.1833 H   0  0  0  0  0  0  0  0  0  0  0  0
   -1.1712   11.4208    2.0346 H   0  0  0  0  0  0  0  0  0  0  0  0
    1.4987   12.0854    5.3109 H   0  0  0  0  0  0  0  0  0  0  0  0
    1.8295   11.0226    3.9010 H   0  0  0  0  0  0  0  0  0  0  0  0
    2.4119   12.7219    3.9010 H   0  0  0  0  0  0  0  0  0  0  0  0
   -0.4006   13.0032    5.5256 H   0  0  0  0  0  0  0  0  0  0  0  0
   -0.6308   14.2725    4.2756 H   0  0  0  0  0  0  0  0  0  0  0  0
   -1.6763   12.8118    4.2756 H   0  0  0  0  0  0  0  0  0  0  0  0
    1.5106   11.6033    0.1880 H   0  0  0  0  0  0  0  0  0  0  0  0
    3.4845   10.7463   -0.9097 H   0  0  0  0  0  0  0  0  0  0  0  0
    2.5842   10.3511   -2.3895 H   0  0  0  0  0  0  0  0  0  0  0  0
    4.3323   12.5872   -2.0563 H   0  0  0  0  0  0  0  0  0  0  0  0
    3.1742   12.4274   -3.3742 H   0  0  0  0  0  0  0  0  0  0  0  0
    2.3923   13.5493    0.5564 H   0  0  0  0  0  0  0  0  0  0  0  0
    4.0049   13.2267   -0.1661 H   0  0  0  0  0  0  0  0  0  0  0  0
    3.3382   14.8946   -0.1661 H   0  0  0  0  0  0  0  0  0  0  0  0
    1.9183   14.4952   -3.4393 H   0  0  0  0  0  0  0  0  0  0  0  0
    4.3799   14.8952   -2.7945 H   0  0  0  0  0  0  0  0  0  0  0  0
    3.4048   16.1835   -3.6772 H   0  0  0  0  0  0  0  0  0  0  0  0
    4.9701   17.0325   -1.7353 H   0  0  0  0  0  0  0  0  0  0  0  0
    1.5164   16.1023    0.1375 H   0  0  0  0  0  0  0  0  0  0  0  0
    0.8615   18.6589   -1.4512 H   0  0  0  0  0  0  0  0  0  0  0  0
   -0.2728   17.7094   -0.3914 H   0  0  0  0  0  0  0  0  0  0  0  0
    0.5554   19.7580    0.7219 H   0  0  0  0  0  0  0  0  0  0  0  0
    1.0604   18.2418    1.5657 H   0  0  0  0  0  0  0  0  0  0  0  0
    2.9244   19.7510    1.5119 H   0  0  0  0  0  0  0  0  0  0  0  0
    2.0910   20.8660   -0.4430 H   0  0  0  0  0  0  0  0  0  0  0  0
    3.6311   17.9230    2.5332 H   0  0  0  0  0  0  0  0  0  0  0  0
    2.8546   16.5364    1.6959 H   0  0  0  0  0  0  0  0  0  0  0  0
    4.6436   16.6980    1.6959 H   0  0  0  0  0  0  0  0  0  0  0  0
    5.5228   18.8440    1.0983 H   0  0  0  0  0  0  0  0  0  0  0  0
    5.6408   17.9236   -0.4397 H   0  0  0  0  0  0  0  0  0  0  0  0
    4.9717   19.5906   -0.4397 H   0  0  0  0  0  0  0  0  0  0  0  0
    0.2449   17.6645   -2.7645 H   0  0  0  0  0  0  0  0  0  0  0  0
    1.5782   16.9720   -3.7491 H   0  0  0  0  0  0  0  0  0  0  0  0
   -0.0385   16.1891   -3.7491 H   0  0  0  0  0  0  0  0  0  0  0  0
   -0.7161   15.7200   -0.7778 H   0  0  0  0  0  0  0  0  0  0  0  0
   -0.6971   14.8202   -2.3984 H   0  0  0  0  0  0  0  0  0  0  0  0
    0.4726   13.8995    0.2411 H   0  0  0  0  0  0  0  0  0  0  0  0
   -0.9128   13.1997   -0.6846 H   0  0  0  0  0  0  0  0  0  0  0  0
   -0.6258   12.0680   -2.7843 H   0  0  0  0  0  0  0  0  0  0  0  0
    0.2465   13.4624   -3.5065 H   0  0  0  0  0  0  0  0  0  0  0  0
    1.0020   11.8328   -3.5065 H   0  0  0  0  0  0  0  0  0  0  0  0
  1  2  1  0
  2  3  1  0
  3  4  1  0
  4  5  1  0
  5  6  1  0
  6  7  1  0
  7  8  1  0
  7  9  1  0
  2 10  1  0
 10 11  1  0
 11 12  1  0
 12 13  1  0
 13 14  1  1
 13 15  1  0
 15 16  1  0
 16 17  1  0
 17 18  2  0
 18 19  1  0
 19 20  1  0
 20 21  1  0
 21 22  1  0
 22 23  1  0
 22 24  1  0
 24 25  1  0
 24 26  1  0
 19 27  1  0
 27 28  1  6
 27 29  1  0
 29 30  1  0
 30 31  1  0
 31 32  1  6
  7  5  1  0
 31 10  1  0
 31 13  1  0
 27 15  1  0
 24 18  1  0
  1 33  1  0
  1 34  1  0
  1 35  1  0
  2 36  1  6
  3 37  1  0
  3 38  1  0
  4 39  1  0
  4 40  1  0
  5 41  1  1
  8 42  1  0
  8 43  1  0
  8 44  1  0
  9 45  1  0
  9 46  1  0
  9 47  1  0
 10 48  1  1
 11 49  1  0
 11 50  1  0
 12 51  1  0
 12 52  1  0
 14 53  1  0
 14 54  1  0
 14 55  1  0
 15 56  1  6
 16 57  1  0
 16 58  1  0
 17 59  1  0
 19 60  1  1
 20 61  1  0
 20 62  1  0
 21 63  1  0
 21 64  1  0
 22 65  1  1
 23 66  1  0
 25 67  1  0
 25 68  1  0
 25 69  1  0
 26 70  1  0
 26 71  1  0
 26 72  1  0
 28 73  1  0
 28 74  1  0
 28 75  1  0
 29 76  1  0
 29 77  1  0
 30 78  1  0
 30 79  1  0
 32 80  1  0
 32 81  1  0
 32 82  1  0
M  END
>  <meeko>  (18) 
{"is_sidechain": [false], "intermolecular_energy": 2.731, "internal_energy": -0.839}

$$$$
EPH_relaxed_0001_pdb2pqr_Repair_165_r2_0001_out
     RDKit          3D

 82 86  0  0  0  0  0  0  0  0999 V2000
    0.8570    9.4870    0.7260 C   0  0  0  0  0  0  0  0  0  0  0  0
    0.7140   10.2430   -0.5980 C   0  0  2  0  0  0  0  0  0  0  0  0
    0.9580    9.3300   -1.8170 C   0  0  0  0  0  0  0  0  0  0  0  0
   -0.3270    8.8950   -2.5270 C   0  0  0  0  0  0  0  0  0  0  0  0
   -1.3870    8.4830   -1.5510 C   0  0  2  0  0  0  0  0  0  0  0  0
   -2.7300    8.6110   -2.0370 O   0  0  0  0  0  0  0  0  0  0  0  0
   -2.3740    9.4530   -0.9290 C   0  0  0  0  0  0  0  0  0  0  0  0
   -2.3460   10.9130   -1.2580 C   0  0  0  0  0  0  0  0  0  0  0  0
   -3.0390    9.0710    0.3570 C   0  0  0  0  0  0  0  0  0  0  0  0
    1.6790   11.4230   -0.6300 C   0  0  1  0  0  0  0  0  0  0  0  0
    2.9870   11.1050   -1.4020 C   0  0  0  0  0  0  0  0  0  0  0  0
    3.4140   12.4130   -2.1160 C   0  0  0  0  0  0  0  0  0  0  0  0
    2.5370   13.5130   -1.4730 C   0  0  1  0  0  0  0  0  0  0  0  0
    3.2540   13.8620   -0.1310 C   0  0  0  0  0  0  0  0  0  0  0  0
    2.2820   14.7880   -2.3400 C   0  0  2  0  0  0  0  0  0  0  0  0
    3.5410   15.5960   -2.6990 C   0  0  0  0  0  0  0  0  0  0  0  0
    3.9060   16.6720   -1.7290 C   0  0  0  0  0  0  0  0  0  0  0  0
    3.1010   17.1660   -0.7700 C   0  0  0  0  0  0  0  0  0  0  0  0
    1.6420   16.7070   -0.6520 C   0  0  1  0  0  0  0  0  0  0  0  0
    0.7230   17.9440   -0.4740 C   0  0  0  0  0  0  0  0  0  0  0  0
    1.1530   18.8290    0.6920 C   0  0  0  0  0  0  0  0  0  0  0  0
    2.5890   19.3130    0.5090 C   0  0  2  0  0  0  0  0  0  0  0  0
    2.6380   20.1950   -0.6170 O   0  0  0  0  0  0  0  0  0  0  0  0
    3.6050   18.1540    0.3110 C   0  0  0  0  0  0  0  0  0  0  0  0
    3.7740   17.3760    1.6390 C   0  0  0  0  0  0  0  0  0  0  0  0
    4.9900   18.7820   -0.0030 C   0  0  0  0  0  0  0  0  0  0  0  0
    1.1300   15.7250   -1.7910 C   0  0  1  0  0  0  0  0  0  0  0  0
    0.6080   16.5480   -3.0080 C   0  0  0  0  0  0  0  0  0  0  0  0
   -0.1000   14.9050   -1.2490 C   0  0  0  0  0  0  0  0  0  0  0  0
    0.2130   13.5930   -0.5040 C   0  0  0  0  0  0  0  0  0  0  0  0
    1.1860   12.7260   -1.3080 C   0  0  2  0  0  0  0  0  0  0  0  0
    0.4840   12.3400   -2.6540 C   0  0  0  0  0  0  0  0  0  0  0  0
    0.7246   10.1870    1.5641 H   0  0  0  0  0  0  0  0  0  0  0  0
    0.0921    8.6985    0.7825 H   0  0  0  0  0  0  0  0  0  0  0  0
    1.8571    9.0324    0.7825 H   0  0  0  0  0  0  0  0  0  0  0  0
   -0.3218   10.6080   -0.6604 H   0  0  0  0  0  0  0  0  0  0  0  0
    1.5861    9.8737   -2.5380 H   0  0  0  0  0  0  0  0  0  0  0  0
    1.4435    8.4167   -1.4426 H   0  0  0  0  0  0  0  0  0  0  0  0
   -0.7037    9.7351   -3.1289 H   0  0  0  0  0  0  0  0  0  0  0  0
   -0.0912    8.0291   -3.1631 H   0  0  0  0  0  0  0  0  0  0  0  0
   -0.7220    7.7245   -1.1124 H   0  0  0  0  0  0  0  0  0  0  0  0
   -2.3348   11.4985   -0.3269 H   0  0  0  0  0  0  0  0  0  0  0  0
   -1.4433   11.1395   -1.8445 H   0  0  0  0  0  0  0  0  0  0  0  0
   -3.2393   11.1739   -1.8445 H   0  0  0  0  0  0  0  0  0  0  0  0
   -2.4295    9.4211    1.2031 H   0  0  0  0  0  0  0  0  0  0  0  0
   -4.0354    9.5344    0.4063 H   0  0  0  0  0  0  0  0  0  0  0  0
   -3.1407    7.9768    0.4063 H   0  0  0  0  0  0  0  0  0  0  0  0
    1.8069   11.5859    0.4503 H   0  0  0  0  0  0  0  0  0  0  0  0
    3.7714   10.7823   -0.7016 H   0  0  0  0  0  0  0  0  0  0  0  0
    2.8304   10.2924   -2.1267 H   0  0  0  0  0  0  0  0  0  0  0  0
    4.4812   12.6180   -1.9452 H   0  0  0  0  0  0  0  0  0  0  0  0
    3.2790   12.3562   -3.2062 H   0  0  0  0  0  0  0  0  0  0  0  0
    2.6208   13.5538    0.7140 H   0  0  0  0  0  0  0  0  0  0  0  0
    4.2163   13.3315   -0.0807 H   0  0  0  0  0  0  0  0  0  0  0  0
    3.4302   14.9466   -0.0807 H   0  0  0  0  0  0  0  0  0  0  0  0
    1.9220   14.3609   -3.2876 H   0  0  0  0  0  0  0  0  0  0  0  0
    4.3870   14.8960   -2.7646 H   0  0  0  0  0  0  0  0  0  0  0  0
    3.3161   16.1048   -3.6480 H   0  0  0  0  0  0  0  0  0  0  0  0
    4.9180   17.0964   -1.8049 H   0  0  0  0  0  0  0  0  0  0  0  0
    1.5939   16.0741    0.2464 H   0  0  0  0  0  0  0  0  0  0  0  0
    0.7509   18.5400   -1.3981 H   0  0  0  0  0  0  0  0  0  0  0  0
   -0.2918   17.5780   -0.2590 H   0  0  0  0  0  0  0  0  0  0  0  0
    0.4839   19.7003    0.7485 H   0  0  0  0  0  0  0  0  0  0  0  0
    1.0966   18.2399    1.6193 H   0  0  0  0  0  0  0  0  0  0  0  0
    2.8830   19.8325    1.4329 H   0  0  0  0  0  0  0  0  0  0  0  0
    2.1380   20.9950   -0.3850 H   0  0  0  0  0  0  0  0  0  0  0  0
    3.6252   18.0610    2.4867 H   0  0  0  0  0  0  0  0  0  0  0  0
    3.0308   16.5665    1.6869 H   0  0  0  0  0  0  0  0  0  0  0  0
    4.7861   16.9478    1.6869 H   0  0  0  0  0  0  0  0  0  0  0  0
    5.5080   19.0169    0.9385 H   0  0  0  0  0  0  0  0  0  0  0  0
    5.5924   18.0690   -0.5850 H   0  0  0  0  0  0  0  0  0  0  0  0
    4.8506   19.7050   -0.5850 H   0  0  0  0  0  0  0  0  0  0  0  0
    0.0517   17.4251   -2.6459 H   0  0  0  0  0  0  0  0  0  0  0  0
    1.4605   16.8808   -3.6183 H   0  0  0  0  0  0  0  0  0  0  0  0
   -0.0564   15.9187   -3.6183 H   0  0  0  0  0  0  0  0  0  0  0  0
   -0.6551   15.5559   -0.5575 H   0  0  0  0  0  0  0  0  0  0  0  0
   -0.6600   14.6002   -2.1454 H   0  0  0  0  0  0  0  0  0  0  0  0
    0.6640   13.8312    0.4706 H   0  0  0  0  0  0  0  0  0  0  0  0
   -0.7247   13.0343   -0.3676 H   0  0  0  0  0  0  0  0  0  0  0  0
   -0.4612   11.8203   -2.4387 H   0  0  0  0  0  0  0  0  0  0  0  0
    0.2774   13.2514   -3.2343 H   0  0  0  0  0  0  0  0  0  0  0  0
    1.1429   11.6773   -3.2343 H   0  0  0  0  0  0  0  0  0  0  0  0
  1  2  1  0
  2  3  1  0
  3  4  1  0
  4  5  1  0
  5  6  1  0
  6  7  1  0
  7  8  1  0
  7  9  1  0
  2 10  1  0
 10 11  1  0
 11 12  1  0
 12 13  1  0
 13 14  1  1
 13 15  1  0
 15 16  1  0
 16 17  1  0
 17 18  2  0
 18 19  1  0
 19 20  1  0
 20 21  1  0
 21 22  1  0
 22 23  1  0
 22 24  1  0
 24 25  1  0
 24 26  1  0
 19 27  1  0
 27 28  1  6
 27 29  1  0
 29 30  1  0
 30 31  1  0
 31 32  1  6
  7  5  1  0
 31 10  1  0
 31 13  1  0
 27 15  1  0
 24 18  1  0
  1 33  1  0
  1 34  1  0
  1 35  1  0
  2 36  1  6
  3 37  1  0
  3 38  1  0
  4 39  1  0
  4 40  1  0
  5 41  1  1
  8 42  1  0
  8 43  1  0
  8 44  1  0
  9 45  1  0
  9 46  1  0
  9 47  1  0
 10 48  1  1
 11 49  1  0
 11 50  1  0
 12 51  1  0
 12 52  1  0
 14 53  1  0
 14 54  1  0
 14 55  1  0
 15 56  1  6
 16 57  1  0
 16 58  1  0
 17 59  1  0
 19 60  1  1
 20 61  1  0
 20 62  1  0
 21 63  1  0
 21 64  1  0
 22 65  1  1
 23 66  1  0
 25 67  1  0
 25 68  1  0
 25 69  1  0
 26 70  1  0
 26 71  1  0
 26 72  1  0
 28 73  1  0
 28 74  1  0
 28 75  1  0
 29 76  1  0
 29 77  1  0
 30 78  1  0
 30 79  1  0
 32 80  1  0
 32 81  1  0
 32 82  1  0
M  END
>  <meeko>  (19) 
{"is_sidechain": [false], "intermolecular_energy": 2.731, "internal_energy": -0.839}

$$$$
