EPH_relaxed_0001_pdb2pqr_Repair_350_r2_0001_out
     RDKit          3D

 82 86  0  0  0  0  0  0  0  0999 V2000
   -1.6810    8.5900   -1.8940 C   0  0  0  0  0  0  0  0  0  0  0  0
   -2.0660    9.0930   -0.5000 C   0  0  2  0  0  0  0  0  0  0  0  0
   -3.5660    9.4370   -0.4010 C   0  0  0  0  0  0  0  0  0  0  0  0
   -4.4740    8.2090   -0.2950 C   0  0  0  0  0  0  0  0  0  0  0  0
   -5.1640    7.9170   -1.5930 C   0  0  2  0  0  0  0  0  0  0  0  0
   -6.3470    8.6920   -1.8290 O   0  0  0  0  0  0  0  0  0  0  0  0
   -6.5360    7.2750   -1.6850 C   0  0  0  0  0  0  0  0  0  0  0  0
   -7.2980    6.8840   -0.4580 C   0  0  0  0  0  0  0  0  0  0  0  0
   -6.9190    6.5850   -2.9570 C   0  0  0  0  0  0  0  0  0  0  0  0
   -1.2270   10.3120   -0.1370 C   0  0  1  0  0  0  0  0  0  0  0  0
   -0.2160   10.0230    1.0050 C   0  0  0  0  0  0  0  0  0  0  0  0
    1.0520   10.8620    0.7030 C   0  0  0  0  0  0  0  0  0  0  0  0
    0.6120   11.8490   -0.4040 C   0  0  1  0  0  0  0  0  0  0  0  0
   -0.1220   13.0000    0.3530 C   0  0  0  0  0  0  0  0  0  0  0  0
    1.7450   12.3990   -1.3300 C   0  0  2  0  0  0  0  0  0  0  0  0
    2.8260   13.2300   -0.6170 C   0  0  0  0  0  0  0  0  0  0  0  0
    2.5580   14.6970   -0.5450 C   0  0  0  0  0  0  0  0  0  0  0  0
    1.6430   15.3610   -1.2760 C   0  0  0  0  0  0  0  0  0  0  0  0
    0.8280   14.6440   -2.3590 C   0  0  1  0  0  0  0  0  0  0  0  0
    0.8190   15.5000   -3.6530 C   0  0  0  0  0  0  0  0  0  0  0  0
    0.3350   16.9260   -3.4070 C   0  0  0  0  0  0  0  0  0  0  0  0
    1.2060   17.6260   -2.3670 C   0  0  2  0  0  0  0  0  0  0  0  0
    2.5180   17.8060   -2.9100 O   0  0  0  0  0  0  0  0  0  0  0  0
    1.2980   16.8500   -1.0230 C   0  0  0  0  0  0  0  0  0  0  0  0
   -0.0640   16.9160   -0.2890 C   0  0  0  0  0  0  0  0  0  0  0  0
    2.3170   17.5890   -0.1140 C   0  0  0  0  0  0  0  0  0  0  0  0
    1.2210   13.1290   -2.6330 C   0  0  1  0  0  0  0  0  0  0  0  0
    2.3770   13.0590   -3.6780 C   0  0  0  0  0  0  0  0  0  0  0  0
   -0.0080   12.3870   -3.2800 C   0  0  0  0  0  0  0  0  0  0  0  0
   -1.0310   11.7620   -2.3130 C   0  0  0  0  0  0  0  0  0  0  0  0
   -0.3300   10.9140   -1.2470 C   0  0  2  0  0  0  0  0  0  0  0  0
    0.4000    9.7350   -1.9770 C   0  0  0  0  0  0  0  0  0  0  0  0
   -1.0149    7.7198   -1.7988 H   0  0  0  0  0  0  0  0  0  0  0  0
   -2.5889    8.2985   -2.4423 H   0  0  0  0  0  0  0  0  0  0  0  0
   -1.1625    9.3903   -2.4423 H   0  0  0  0  0  0  0  0  0  0  0  0
   -1.8661    8.2791    0.2124 H   0  0  0  0  0  0  0  0  0  0  0  0
   -3.7208   10.0613    0.4914 H   0  0  0  0  0  0  0  0  0  0  0  0
   -3.8380    9.9583   -1.3307 H   0  0  0  0  0  0  0  0  0  0  0  0
   -3.8646    7.3383   -0.0113 H   0  0  0  0  0  0  0  0  0  0  0  0
   -5.2432    8.4154    0.4638 H   0  0  0  0  0  0  0  0  0  0  0  0
   -4.2050    7.6809   -2.0774 H   0  0  0  0  0  0  0  0  0  0  0  0
   -6.7281    7.1764    0.4363 H   0  0  0  0  0  0  0  0  0  0  0  0
   -8.2731    7.3932   -0.4541 H   0  0  0  0  0  0  0  0  0  0  0  0
   -7.4530    5.7950   -0.4541 H   0  0  0  0  0  0  0  0  0  0  0  0
   -7.4405    5.6455   -2.7218 H   0  0  0  0  0  0  0  0  0  0  0  0
   -7.5842    7.2371   -3.5419 H   0  0  0  0  0  0  0  0  0  0  0  0
   -6.0137    6.3654   -3.5419 H   0  0  0  0  0  0  0  0  0  0  0  0
   -2.0300   11.0178    0.1219 H   0  0  0  0  0  0  0  0  0  0  0  0
   -0.6443   10.3192    1.9739 H   0  0  0  0  0  0  0  0  0  0  0  0
    0.0235    8.9507    1.0584 H   0  0  0  0  0  0  0  0  0  0  0  0
    1.3803   11.4064    1.6007 H   0  0  0  0  0  0  0  0  0  0  0  0
    1.9015   10.2367    0.3910 H   0  0  0  0  0  0  0  0  0  0  0  0
   -0.0240   12.8463    1.4378 H   0  0  0  0  0  0  0  0  0  0  0  0
    0.3276   13.9653    0.0773 H   0  0  0  0  0  0  0  0  0  0  0  0
   -1.1869   12.9995    0.0773 H   0  0  0  0  0  0  0  0  0  0  0  0
    2.2464   11.4772   -1.6600 H   0  0  0  0  0  0  0  0  0  0  0  0
    2.9229   12.8512    0.4112 H   0  0  0  0  0  0  0  0  0  0  0  0
    3.7416   13.1168   -1.2161 H   0  0  0  0  0  0  0  0  0  0  0  0
    3.1586   15.2846    0.1649 H   0  0  0  0  0  0  0  0  0  0  0  0
   -0.1942   14.5569   -1.9621 H   0  0  0  0  0  0  0  0  0  0  0  0
    1.8413   15.5393   -4.0571 H   0  0  0  0  0  0  0  0  0  0  0  0
    0.1220   15.0280   -4.3611 H   0  0  0  0  0  0  0  0  0  0  0  0
    0.3789   17.4889   -4.3510 H   0  0  0  0  0  0  0  0  0  0  0  0
   -0.6978   16.8862   -3.0305 H   0  0  0  0  0  0  0  0  0  0  0  0
    0.7348   18.5934   -2.1389 H   0  0  0  0  0  0  0  0  0  0  0  0
    2.4170   18.1590   -3.8100 H   0  0  0  0  0  0  0  0  0  0  0  0
    0.1045   16.9078    0.7980 H   0  0  0  0  0  0  0  0  0  0  0  0
   -0.5885   17.8406   -0.5718 H   0  0  0  0  0  0  0  0  0  0  0  0
   -0.6754   16.0464   -0.5718 H   0  0  0  0  0  0  0  0  0  0  0  0
    2.0661   17.4071    0.9414 H   0  0  0  0  0  0  0  0  0  0  0  0
    3.3307   17.2147   -0.3197 H   0  0  0  0  0  0  0  0  0  0  0  0
    2.2761   18.6688   -0.3197 H   0  0  0  0  0  0  0  0  0  0  0  0
    3.3422   13.0006   -3.1537 H   0  0  0  0  0  0  0  0  0  0  0  0
    2.2477   12.1670   -4.3086 H   0  0  0  0  0  0  0  0  0  0  0  0
    2.3563   13.9600   -4.3086 H   0  0  0  0  0  0  0  0  0  0  0  0
   -0.5442   13.1153   -3.9062 H   0  0  0  0  0  0  0  0  0  0  0  0
    0.4254   11.5375   -3.8282 H   0  0  0  0  0  0  0  0  0  0  0  0
   -1.5968   12.5656   -1.8189 H   0  0  0  0  0  0  0  0  0  0  0  0
   -1.7073   11.1131   -2.8888 H   0  0  0  0  0  0  0  0  0  0  0  0
    0.8251    9.0484   -1.2301 H   0  0  0  0  0  0  0  0  0  0  0  0
   -0.3200    9.1917   -2.6067 H   0  0  0  0  0  0  0  0  0  0  0  0
    1.2073   10.1373   -2.6067 H   0  0  0  0  0  0  0  0  0  0  0  0
  1  2  1  0
  2  3  1  0
  3  4  1  0
  4  5  1  0
  5  6  1  0
  6  7  1  0
  7  8  1  0
  7  9  1  0
  2 10  1  0
 10 11  1  0
 11 12  1  0
 12 13  1  0
 13 14  1  1
 13 15  1  0
 15 16  1  0
 16 17  1  0
 17 18  2  0
 18 19  1  0
 19 20  1  0
 20 21  1  0
 21 22  1  0
 22 23  1  0
 22 24  1  0
 24 25  1  0
 24 26  1  0
 19 27  1  0
 27 28  1  6
 27 29  1  0
 29 30  1  0
 30 31  1  0
 31 32  1  6
  7  5  1  0
 31 10  1  0
 31 13  1  0
 27 15  1  0
 24 18  1  0
  1 33  1  0
  1 34  1  0
  1 35  1  0
  2 36  1  1
  3 37  1  0
  3 38  1  0
  4 39  1  0
  4 40  1  0
  5 41  1  6
  8 42  1  0
  8 43  1  0
  8 44  1  0
  9 45  1  0
  9 46  1  0
  9 47  1  0
 10 48  1  1
 11 49  1  0
 11 50  1  0
 12 51  1  0
 12 52  1  0
 14 53  1  0
 14 54  1  0
 14 55  1  0
 15 56  1  6
 16 57  1  0
 16 58  1  0
 17 59  1  0
 19 60  1  1
 20 61  1  0
 20 62  1  0
 21 63  1  0
 21 64  1  0
 22 65  1  1
 23 66  1  0
 25 67  1  0
 25 68  1  0
 25 69  1  0
 26 70  1  0
 26 71  1  0
 26 72  1  0
 28 73  1  0
 28 74  1  0
 28 75  1  0
 29 76  1  0
 29 77  1  0
 30 78  1  0
 30 79  1  0
 32 80  1  0
 32 81  1  0
 32 82  1  0
M  END
>  <meeko>  (1) 
{"is_sidechain": [false], "intermolecular_energy": 2.731, "internal_energy": -0.839}

$$$$
EPH_relaxed_0001_pdb2pqr_Repair_350_r2_0001_out
     RDKit          3D

 82 86  0  0  0  0  0  0  0  0999 V2000
    1.9930   19.6030   -0.5990 C   0  0  0  0  0  0  0  0  0  0  0  0
    2.3950   18.3730    0.2210 C   0  0  2  0  0  0  0  0  0  0  0  0
    3.8410   17.9260   -0.0740 C   0  0  0  0  0  0  0  0  0  0  0  0
    4.8600   18.4230    0.9540 C   0  0  0  0  0  0  0  0  0  0  0  0
    4.2040   18.7990    2.2480 C   0  0  2  0  0  0  0  0  0  0  0  0
    4.2950   20.1900    2.5830 O   0  0  0  0  0  0  0  0  0  0  0  0
    4.9710   19.2800    3.4660 C   0  0  0  0  0  0  0  0  0  0  0  0
    6.4620   19.4100    3.4480 C   0  0  0  0  0  0  0  0  0  0  0  0
    4.3280   19.1560    4.8120 C   0  0  0  0  0  0  0  0  0  0  0  0
    1.4290   17.2270   -0.0540 C   0  0  1  0  0  0  0  0  0  0  0  0
    0.1560   17.6870   -0.8130 C   0  0  0  0  0  0  0  0  0  0  0  0
   -0.2450   16.5270   -1.7590 C   0  0  0  0  0  0  0  0  0  0  0  0
    0.6000   15.3230   -1.2800 C   0  0  1  0  0  0  0  0  0  0  0  0
   -0.1740   14.7540   -0.0500 C   0  0  0  0  0  0  0  0  0  0  0  0
    0.8880   14.2140   -2.3440 C   0  0  2  0  0  0  0  0  0  0  0  0
   -0.3580   13.4930   -2.8890 C   0  0  0  0  0  0  0  0  0  0  0  0
   -0.7670   12.2700   -2.1360 C   0  0  0  0  0  0  0  0  0  0  0  0
   -0.0050   11.6090   -1.2450 C   0  0  0  0  0  0  0  0  0  0  0  0
    1.4490   12.0260   -0.9890 C   0  0  1  0  0  0  0  0  0  0  0  0
    2.3560   10.7670   -0.9900 C   0  0  0  0  0  0  0  0  0  0  0  0
    1.8750    9.6980   -0.0130 C   0  0  0  0  0  0  0  0  0  0  0  0
    0.4460    9.2680   -0.3360 C   0  0  2  0  0  0  0  0  0  0  0  0
    0.4410    8.5950   -1.5990 O   0  0  0  0  0  0  0  0  0  0  0  0
   -0.5570   10.4550   -0.3720 C   0  0  0  0  0  0  0  0  0  0  0  0
   -0.7790   10.9930    1.0630 C   0  0  0  0  0  0  0  0  0  0  0  0
   -1.9300    9.9050   -0.8470 C   0  0  0  0  0  0  0  0  0  0  0  0
    2.0120   13.1850   -1.9190 C   0  0  1  0  0  0  0  0  0  0  0  0
    2.5820   12.5790   -3.2380 C   0  0  0  0  0  0  0  0  0  0  0  0
    3.2210   13.8850   -1.1930 C   0  0  0  0  0  0  0  0  0  0  0  0
    2.8810   15.0520   -0.2460 C   0  0  0  0  0  0  0  0  0  0  0  0
    1.9450   16.0550   -0.9270 C   0  0  2  0  0  0  0  0  0  0  0  0
    2.7050   16.6610   -2.1560 C   0  0  0  0  0  0  0  0  0  0  0  0
    1.7243   20.4250    0.0808 H   0  0  0  0  0  0  0  0  0  0  0  0
    2.8367   19.9126   -1.2333 H   0  0  0  0  0  0  0  0  0  0  0  0
    1.1293   19.3546   -1.2333 H   0  0  0  0  0  0  0  0  0  0  0  0
    2.3465   18.6530    1.2836 H   0  0  0  0  0  0  0  0  0  0  0  0
    3.8688   16.8264   -0.0871 H   0  0  0  0  0  0  0  0  0  0  0  0
    4.1218   18.3643   -1.0430 H   0  0  0  0  0  0  0  0  0  0  0  0
    5.5925   17.6248    1.1445 H   0  0  0  0  0  0  0  0  0  0  0  0
    5.3503   19.3188    0.5452 H   0  0  0  0  0  0  0  0  0  0  0  0
    3.4430   18.0155    2.1173 H   0  0  0  0  0  0  0  0  0  0  0  0
    6.8397   19.4429    4.4806 H   0  0  0  0  0  0  0  0  0  0  0  0
    6.8991   18.5466    2.9251 H   0  0  0  0  0  0  0  0  0  0  0  0
    6.7430   20.3361    2.9251 H   0  0  0  0  0  0  0  0  0  0  0  0
    5.0862   19.3022    5.5954 H   0  0  0  0  0  0  0  0  0  0  0  0
    3.5426   19.9192    4.9149 H   0  0  0  0  0  0  0  0  0  0  0  0
    3.8827   18.1554    4.9149 H   0  0  0  0  0  0  0  0  0  0  0  0
    1.2559   16.8818    0.9760 H   0  0  0  0  0  0  0  0  0  0  0  0
   -0.6563   17.8925   -0.1003 H   0  0  0  0  0  0  0  0  0  0  0  0
    0.3464   18.6105   -1.3796 H   0  0  0  0  0  0  0  0  0  0  0  0
   -1.3192   16.3073   -1.6704 H   0  0  0  0  0  0  0  0  0  0  0  0
   -0.0637   16.7695   -2.8165 H   0  0  0  0  0  0  0  0  0  0  0  0
    0.3027   15.1044    0.8773 H   0  0  0  0  0  0  0  0  0  0  0  0
   -1.2171   15.1019   -0.0802 H   0  0  0  0  0  0  0  0  0  0  0  0
   -0.1531   13.6546   -0.0802 H   0  0  0  0  0  0  0  0  0  0  0  0
    1.2895   14.7947   -3.1876 H   0  0  0  0  0  0  0  0  0  0  0  0
   -1.1982   14.2026   -2.8671 H   0  0  0  0  0  0  0  0  0  0  0  0
   -0.0948   13.1534   -3.9016 H   0  0  0  0  0  0  0  0  0  0  0  0
   -1.7764   11.8761   -2.3256 H   0  0  0  0  0  0  0  0  0  0  0  0
    1.4608   12.4939    0.0064 H   0  0  0  0  0  0  0  0  0  0  0  0
    2.3650   10.3398   -2.0036 H   0  0  0  0  0  0  0  0  0  0  0  0
    3.3619   11.0801   -0.6734 H   0  0  0  0  0  0  0  0  0  0  0  0
    2.5384    8.8232   -0.0810 H   0  0  0  0  0  0  0  0  0  0  0  0
    1.8946   10.1169    1.0039 H   0  0  0  0  0  0  0  0  0  0  0  0
    0.1121    8.5994    0.4711 H   0  0  0  0  0  0  0  0  0  0  0  0
    0.8020    9.2090   -2.2610 H   0  0  0  0  0  0  0  0  0  0  0  0
   -0.4650   10.2320    1.7926 H   0  0  0  0  0  0  0  0  0  0  0  0
   -0.1846   11.9072    1.2079 H   0  0  0  0  0  0  0  0  0  0  0  0
   -1.8451   11.2220    1.2079 H   0  0  0  0  0  0  0  0  0  0  0  0
   -2.5484    9.6573    0.0283 H   0  0  0  0  0  0  0  0  0  0  0  0
   -2.4409   10.6679   -1.4528 H   0  0  0  0  0  0  0  0  0  0  0  0
   -1.7729    9.0004   -1.4528 H   0  0  0  0  0  0  0  0  0  0  0  0
    3.3170   11.7976   -2.9949 H   0  0  0  0  0  0  0  0  0  0  0  0
    1.7613   12.1406   -3.8248 H   0  0  0  0  0  0  0  0  0  0  0  0
    3.0697   13.3713   -3.8248 H   0  0  0  0  0  0  0  0  0  0  0  0
    3.7435   13.1183   -0.6021 H   0  0  0  0  0  0  0  0  0  0  0  0
    3.8203   14.3335   -1.9990 H   0  0  0  0  0  0  0  0  0  0  0  0
    2.3889   14.6539    0.6536 H   0  0  0  0  0  0  0  0  0  0  0  0
    3.8139   15.5691    0.0228 H   0  0  0  0  0  0  0  0  0  0  0  0
    3.5188   17.3099   -1.8002 H   0  0  0  0  0  0  0  0  0  0  0  0
    3.1248   15.8470   -2.7653 H   0  0  0  0  0  0  0  0  0  0  0  0
    2.0049   17.2515   -2.7653 H   0  0  0  0  0  0  0  0  0  0  0  0
  1  2  1  0
  2  3  1  0
  3  4  1  0
  4  5  1  0
  5  6  1  0
  6  7  1  0
  7  8  1  0
  7  9  1  0
  2 10  1  0
 10 11  1  0
 11 12  1  0
 12 13  1  0
 13 14  1  1
 13 15  1  0
 15 16  1  0
 16 17  1  0
 17 18  2  0
 18 19  1  0
 19 20  1  0
 20 21  1  0
 21 22  1  0
 22 23  1  0
 22 24  1  0
 24 25  1  0
 24 26  1  0
 19 27  1  0
 27 28  1  6
 27 29  1  0
 29 30  1  0
 30 31  1  0
 31 32  1  6
  7  5  1  0
 31 10  1  0
 31 13  1  0
 27 15  1  0
 24 18  1  0
  1 33  1  0
  1 34  1  0
  1 35  1  0
  2 36  1  1
  3 37  1  0
  3 38  1  0
  4 39  1  0
  4 40  1  0
  5 41  1  1
  8 42  1  0
  8 43  1  0
  8 44  1  0
  9 45  1  0
  9 46  1  0
  9 47  1  0
 10 48  1  1
 11 49  1  0
 11 50  1  0
 12 51  1  0
 12 52  1  0
 14 53  1  0
 14 54  1  0
 14 55  1  0
 15 56  1  6
 16 57  1  0
 16 58  1  0
 17 59  1  0
 19 60  1  1
 20 61  1  0
 20 62  1  0
 21 63  1  0
 21 64  1  0
 22 65  1  1
 23 66  1  0
 25 67  1  0
 25 68  1  0
 25 69  1  0
 26 70  1  0
 26 71  1  0
 26 72  1  0
 28 73  1  0
 28 74  1  0
 28 75  1  0
 29 76  1  0
 29 77  1  0
 30 78  1  0
 30 79  1  0
 32 80  1  0
 32 81  1  0
 32 82  1  0
M  END
>  <meeko>  (2) 
{"is_sidechain": [false], "intermolecular_energy": 2.731, "internal_energy": -0.839}

$$$$
EPH_relaxed_0001_pdb2pqr_Repair_350_r2_0001_out
     RDKit          3D

 82 86  0  0  0  0  0  0  0  0999 V2000
    2.4610   18.0380   -2.5500 C   0  0  0  0  0  0  0  0  0  0  0  0
    1.1190   17.6710   -1.9100 C   0  0  2  0  0  0  0  0  0  0  0  0
    1.1750   17.7330   -0.3700 C   0  0  0  0  0  0  0  0  0  0  0  0
    0.8140   19.1060    0.2030 C   0  0  0  0  0  0  0  0  0  0  0  0
   -0.6420   19.1970    0.5500 C   0  0  2  0  0  0  0  0  0  0  0  0
   -1.4840   18.2780   -0.1570 O   0  0  0  0  0  0  0  0  0  0  0  0
   -1.7050   19.6730   -0.4210 C   0  0  0  0  0  0  0  0  0  0  0  0
   -1.3580   20.0910   -1.8160 C   0  0  0  0  0  0  0  0  0  0  0  0
   -2.9960   20.1930    0.1300 C   0  0  0  0  0  0  0  0  0  0  0  0
    0.6930   16.2780   -2.3600 C   0  0  1  0  0  0  0  0  0  0  0  0
    0.8400   16.0740   -3.8910 C   0  0  0  0  0  0  0  0  0  0  0  0
    1.2550   14.5960   -4.1070 C   0  0  0  0  0  0  0  0  0  0  0  0
    1.0120   13.9180   -2.7390 C   0  0  1  0  0  0  0  0  0  0  0  0
   -0.5190   13.6150   -2.7080 C   0  0  0  0  0  0  0  0  0  0  0  0
    1.8600   12.6390   -2.4410 C   0  0  2  0  0  0  0  0  0  0  0  0
    1.6150   11.4570   -3.3950 C   0  0  0  0  0  0  0  0  0  0  0  0
    0.5460   10.5060   -2.9700 C   0  0  0  0  0  0  0  0  0  0  0  0
    0.0080   10.4320   -1.7390 C   0  0  0  0  0  0  0  0  0  0  0  0
    0.5430   11.3000   -0.5930 C   0  0  1  0  0  0  0  0  0  0  0  0
    0.7330   10.4260    0.6740 C   0  0  0  0  0  0  0  0  0  0  0  0
   -0.5340    9.6690    1.0590 C   0  0  0  0  0  0  0  0  0  0  0  0
   -1.0020    8.7730   -0.0850 C   0  0  2  0  0  0  0  0  0  0  0  0
   -0.0380    7.7340   -0.2810 O   0  0  0  0  0  0  0  0  0  0  0  0
   -1.2190    9.5430   -1.4180 C   0  0  0  0  0  0  0  0  0  0  0  0
   -2.4630   10.4570   -1.2950 C   0  0  0  0  0  0  0  0  0  0  0  0
   -1.5520    8.5030   -2.5220 C   0  0  0  0  0  0  0  0  0  0  0  0
    1.8260   12.1770   -0.9280 C   0  0  1  0  0  0  0  0  0  0  0  0
    3.1190   11.3400   -0.6890 C   0  0  0  0  0  0  0  0  0  0  0  0
    1.8930   13.3920    0.0710 C   0  0  0  0  0  0  0  0  0  0  0  0
    1.1330   14.6690   -0.3370 C   0  0  0  0  0  0  0  0  0  0  0  0
    1.4700   15.0730   -1.7750 C   0  0  2  0  0  0  0  0  0  0  0  0
    3.0000   15.4050   -1.8320 C   0  0  0  0  0  0  0  0  0  0  0  0
    3.2004   18.2402   -1.7610 H   0  0  0  0  0  0  0  0  0  0  0  0
    2.8102   17.2024   -3.1743 H   0  0  0  0  0  0  0  0  0  0  0  0
    2.3364   18.9350   -3.1743 H   0  0  0  0  0  0  0  0  0  0  0  0
    0.3783   18.4125   -2.2439 H   0  0  0  0  0  0  0  0  0  0  0  0
    0.4696   16.9917    0.0335 H   0  0  0  0  0  0  0  0  0  0  0  0
    2.2147   17.5251   -0.0770 H   0  0  0  0  0  0  0  0  0  0  0  0
    1.4086   19.2805    1.1118 H   0  0  0  0  0  0  0  0  0  0  0  0
    1.0320   19.8651   -0.5626 H   0  0  0  0  0  0  0  0  0  0  0  0
   -0.4017   19.4905    1.5825 H   0  0  0  0  0  0  0  0  0  0  0  0
   -0.6557   20.9369   -1.7813 H   0  0  0  0  0  0  0  0  0  0  0  0
   -0.8906   19.2479   -2.3458 H   0  0  0  0  0  0  0  0  0  0  0  0
   -2.2727   20.3953   -2.3458 H   0  0  0  0  0  0  0  0  0  0  0  0
   -2.9581   20.1777    1.2292 H   0  0  0  0  0  0  0  0  0  0  0  0
   -3.1537   21.2248   -0.2172 H   0  0  0  0  0  0  0  0  0  0  0  0
   -3.8249   19.5586   -0.2172 H   0  0  0  0  0  0  0  0  0  0  0  0
   -0.3425   16.2732   -1.9890 H   0  0  0  0  0  0  0  0  0  0  0  0
   -0.1173   16.2761   -4.3938 H   0  0  0  0  0  0  0  0  0  0  0  0
    1.5900   16.7604   -4.3109 H   0  0  0  0  0  0  0  0  0  0  0  0
    0.6359   14.1290   -4.8871 H   0  0  0  0  0  0  0  0  0  0  0  0
    2.2991   14.5006   -4.4399 H   0  0  0  0  0  0  0  0  0  0  0  0
   -0.8584   13.5478   -1.6638 H   0  0  0  0  0  0  0  0  0  0  0  0
   -1.0631   14.4229   -3.2192 H   0  0  0  0  0  0  0  0  0  0  0  0
   -0.7144   12.6608   -3.2192 H   0  0  0  0  0  0  0  0  0  0  0  0
    2.8846   12.9819   -2.6472 H   0  0  0  0  0  0  0  0  0  0  0  0
    1.3358   11.8654   -4.3775 H   0  0  0  0  0  0  0  0  0  0  0  0
    2.5500   10.8777   -3.4084 H   0  0  0  0  0  0  0  0  0  0  0  0
    0.1654    9.8057   -3.7281 H   0  0  0  0  0  0  0  0  0  0  0  0
   -0.2255   12.0646   -0.4066 H   0  0  0  0  0  0  0  0  0  0  0  0
    1.5345    9.6973    0.4825 H   0  0  0  0  0  0  0  0  0  0  0  0
    0.9864   11.0976    1.5075 H   0  0  0  0  0  0  0  0  0  0  0  0
   -0.3275    9.0469    1.9424 H   0  0  0  0  0  0  0  0  0  0  0  0
   -1.3263   10.3993    1.2802 H   0  0  0  0  0  0  0  0  0  0  0  0
   -1.9803    8.3587    0.2002 H   0  0  0  0  0  0  0  0  0  0  0  0
    0.1690    7.6990   -1.2300 H   0  0  0  0  0  0  0  0  0  0  0  0
   -2.6912   10.6246   -0.2321 H   0  0  0  0  0  0  0  0  0  0  0  0
   -2.2590   11.4216   -1.7828 H   0  0  0  0  0  0  0  0  0  0  0  0
   -3.3225    9.9740   -1.7828 H   0  0  0  0  0  0  0  0  0  0  0  0
   -1.8555    7.5552   -2.0534 H   0  0  0  0  0  0  0  0  0  0  0  0
   -2.3736    8.8824   -3.1473 H   0  0  0  0  0  0  0  0  0  0  0  0
   -0.6628    8.3346   -3.1473 H   0  0  0  0  0  0  0  0  0  0  0  0
    3.2897   11.2295    0.3920 H   0  0  0  0  0  0  0  0  0  0  0  0
    3.0018   10.3459   -1.1452 H   0  0  0  0  0  0  0  0  0  0  0  0
    3.9780   11.8539   -1.1452 H   0  0  0  0  0  0  0  0  0  0  0  0
    1.4830   13.0540    1.0342 H   0  0  0  0  0  0  0  0  0  0  0  0
    2.9531   13.6841    0.0986 H   0  0  0  0  0  0  0  0  0  0  0  0
    0.0514   14.4840   -0.2595 H   0  0  0  0  0  0  0  0  0  0  0  0
    1.4338   15.4856    0.3358 H   0  0  0  0  0  0  0  0  0  0  0  0
    3.3950   15.4907   -0.8089 H   0  0  0  0  0  0  0  0  0  0  0  0
    3.5301   14.6010   -2.3635 H   0  0  0  0  0  0  0  0  0  0  0  0
    3.1492   16.3564   -2.3635 H   0  0  0  0  0  0  0  0  0  0  0  0
  1  2  1  0
  2  3  1  0
  3  4  1  0
  4  5  1  0
  5  6  1  0
  6  7  1  0
  7  8  1  0
  7  9  1  0
  2 10  1  0
 10 11  1  0
 11 12  1  0
 12 13  1  0
 13 14  1  1
 13 15  1  0
 15 16  1  0
 16 17  1  0
 17 18  2  0
 18 19  1  0
 19 20  1  0
 20 21  1  0
 21 22  1  0
 22 23  1  0
 22 24  1  0
 24 25  1  0
 24 26  1  0
 19 27  1  0
 27 28  1  1
 27 29  1  0
 29 30  1  0
 30 31  1  0
 31 32  1  1
  7  5  1  0
 31 10  1  0
 31 13  1  0
 27 15  1  0
 24 18  1  0
  1 33  1  0
  1 34  1  0
  1 35  1  0
  2 36  1  6
  3 37  1  0
  3 38  1  0
  4 39  1  0
  4 40  1  0
  5 41  1  1
  8 42  1  0
  8 43  1  0
  8 44  1  0
  9 45  1  0
  9 46  1  0
  9 47  1  0
 10 48  1  6
 11 49  1  0
 11 50  1  0
 12 51  1  0
 12 52  1  0
 14 53  1  0
 14 54  1  0
 14 55  1  0
 15 56  1  6
 16 57  1  0
 16 58  1  0
 17 59  1  0
 19 60  1  1
 20 61  1  0
 20 62  1  0
 21 63  1  0
 21 64  1  0
 22 65  1  1
 23 66  1  0
 25 67  1  0
 25 68  1  0
 25 69  1  0
 26 70  1  0
 26 71  1  0
 26 72  1  0
 28 73  1  0
 28 74  1  0
 28 75  1  0
 29 76  1  0
 29 77  1  0
 30 78  1  0
 30 79  1  0
 32 80  1  0
 32 81  1  0
 32 82  1  0
M  END
>  <meeko>  (3) 
{"is_sidechain": [false], "intermolecular_energy": 2.731, "internal_energy": -0.839}

$$$$
EPH_relaxed_0001_pdb2pqr_Repair_350_r2_0001_out
     RDKit          3D

 82 86  0  0  0  0  0  0  0  0999 V2000
    2.1900   18.0330   -2.6500 C   0  0  0  0  0  0  0  0  0  0  0  0
    0.6690   17.8570   -2.6560 C   0  0  2  0  0  0  0  0  0  0  0  0
    0.0280   18.2940   -1.3240 C   0  0  0  0  0  0  0  0  0  0  0  0
    0.8370   17.8880   -0.0890 C   0  0  0  0  0  0  0  0  0  0  0  0
    1.3420   19.0840    0.6600 C   0  0  2  0  0  0  0  0  0  0  0  0
    2.2710   19.8980   -0.0670 O   0  0  0  0  0  0  0  0  0  0  0  0
    2.7830   19.2450    1.1060 C   0  0  0  0  0  0  0  0  0  0  0  0
    3.8110   18.1950    0.8190 C   0  0  0  0  0  0  0  0  0  0  0  0
    3.0830   20.1810    2.2350 C   0  0  0  0  0  0  0  0  0  0  0  0
    0.3160   16.4040   -2.9520 C   0  0  1  0  0  0  0  0  0  0  0  0
    0.3970   16.0650   -4.4650 C   0  0  0  0  0  0  0  0  0  0  0  0
    0.9010   14.6030   -4.5690 C   0  0  0  0  0  0  0  0  0  0  0  0
    0.7760   14.0430   -3.1330 C   0  0  1  0  0  0  0  0  0  0  0  0
   -0.7270   13.6480   -2.9860 C   0  0  0  0  0  0  0  0  0  0  0  0
    1.7240   12.8540   -2.7700 C   0  0  2  0  0  0  0  0  0  0  0  0
    1.5110   11.5740   -3.5970 C   0  0  0  0  0  0  0  0  0  0  0  0
    0.5330   10.6010   -3.0260 C   0  0  0  0  0  0  0  0  0  0  0  0
    0.0670   10.6110   -1.7630 C   0  0  0  0  0  0  0  0  0  0  0  0
    0.6000   11.6160   -0.7340 C   0  0  1  0  0  0  0  0  0  0  0  0
    0.9160   10.8780    0.5940 C   0  0  0  0  0  0  0  0  0  0  0  0
   -0.2750   10.0820    1.1190 C   0  0  0  0  0  0  0  0  0  0  0  0
   -0.7400    9.0540    0.0900 C   0  0  2  0  0  0  0  0  0  0  0  0
    0.2820    8.0650   -0.0660 O   0  0  0  0  0  0  0  0  0  0  0  0
   -1.0780    9.6800   -1.2920 C   0  0  0  0  0  0  0  0  0  0  0  0
   -2.3730   10.5210   -1.1800 C   0  0  0  0  0  0  0  0  0  0  0  0
   -1.3960    8.5210   -2.2760 C   0  0  0  0  0  0  0  0  0  0  0  0
    1.8010   12.5360   -1.2210 C   0  0  1  0  0  0  0  0  0  0  0  0
    3.1590   11.8090   -0.9830 C   0  0  0  0  0  0  0  0  0  0  0  0
    1.8360   13.8420   -0.3430 C   0  0  0  0  0  0  0  0  0  0  0  0
    0.9700   15.0240   -0.8200 C   0  0  0  0  0  0  0  0  0  0  0  0
    1.2040   15.3100   -2.3060 C   0  0  2  0  0  0  0  0  0  0  0  0
    2.7030   15.7320   -2.4820 C   0  0  0  0  0  0  0  0  0  0  0  0
    2.5502   18.0747   -1.6115 H   0  0  0  0  0  0  0  0  0  0  0  0
    2.6595   17.1832   -3.1671 H   0  0  0  0  0  0  0  0  0  0  0  0
    2.4530   18.9676   -3.1671 H   0  0  0  0  0  0  0  0  0  0  0  0
    0.2637   18.5070   -3.4455 H   0  0  0  0  0  0  0  0  0  0  0  0
   -0.0713   19.3895   -1.3293 H   0  0  0  0  0  0  0  0  0  0  0  0
   -0.9444   17.7847   -1.2529 H   0  0  0  0  0  0  0  0  0  0  0  0
    0.1951   17.2942    0.5784 H   0  0  0  0  0  0  0  0  0  0  0  0
    1.7051   17.3018   -0.4249 H   0  0  0  0  0  0  0  0  0  0  0  0
    0.3879   19.1777    1.1994 H   0  0  0  0  0  0  0  0  0  0  0  0
    4.2018   17.7958    1.7666 H   0  0  0  0  0  0  0  0  0  0  0  0
    3.3514   17.3806    0.2398 H   0  0  0  0  0  0  0  0  0  0  0  0
    4.6350   18.6372    0.2398 H   0  0  0  0  0  0  0  0  0  0  0  0
    2.9177   19.6654    3.1925 H   0  0  0  0  0  0  0  0  0  0  0  0
    4.1311   20.5086    2.1711 H   0  0  0  0  0  0  0  0  0  0  0  0
    2.4206   21.0568    2.1711 H   0  0  0  0  0  0  0  0  0  0  0  0
   -0.6961   16.3696   -2.5225 H   0  0  0  0  0  0  0  0  0  0  0  0
   -0.5968   16.1570   -4.9276 H   0  0  0  0  0  0  0  0  0  0  0  0
    1.0751   16.7549   -4.9887 H   0  0  0  0  0  0  0  0  0  0  0  0
    0.2762   14.0258   -5.2665 H   0  0  0  0  0  0  0  0  0  0  0  0
    1.9307   14.5434   -4.9513 H   0  0  0  0  0  0  0  0  0  0  0  0
   -0.9856   13.5800   -1.9190 H   0  0  0  0  0  0  0  0  0  0  0  0
   -1.3556   14.4115   -3.4677 H   0  0  0  0  0  0  0  0  0  0  0  0
   -0.8990   12.6742   -3.4677 H   0  0  0  0  0  0  0  0  0  0  0  0
    2.7107   13.2398   -3.0659 H   0  0  0  0  0  0  0  0  0  0  0  0
    1.1536   11.8694   -4.5945 H   0  0  0  0  0  0  0  0  0  0  0  0
    2.4815   11.0565   -3.6121 H   0  0  0  0  0  0  0  0  0  0  0  0
    0.1620    9.8093   -3.6935 H   0  0  0  0  0  0  0  0  0  0  0  0
   -0.2081   12.3449   -0.5736 H   0  0  0  0  0  0  0  0  0  0  0  0
    1.7541   10.1865    0.4223 H   0  0  0  0  0  0  0  0  0  0  0  0
    1.1669   11.6393    1.3474 H   0  0  0  0  0  0  0  0  0  0  0  0
    0.0191    9.5603    2.0417 H   0  0  0  0  0  0  0  0  0  0  0  0
   -1.1027   10.7786    1.3185 H   0  0  0  0  0  0  0  0  0  0  0  0
   -1.6716    8.6068    0.4670 H   0  0  0  0  0  0  0  0  0  0  0  0
    0.0340    7.5030   -0.8200 H   0  0  0  0  0  0  0  0  0  0  0  0
   -2.6168   10.6793   -0.1191 H   0  0  0  0  0  0  0  0  0  0  0  0
   -2.2220   11.4939   -1.6707 H   0  0  0  0  0  0  0  0  0  0  0  0
   -3.2003    9.9874   -1.6707 H   0  0  0  0  0  0  0  0  0  0  0  0
   -1.6449    7.6138   -1.7058 H   0  0  0  0  0  0  0  0  0  0  0  0
   -2.2503    8.8018   -2.9095 H   0  0  0  0  0  0  0  0  0  0  0  0
   -0.5180    8.3266   -2.9095 H   0  0  0  0  0  0  0  0  0  0  0  0
    3.3389   11.7127    0.0979 H   0  0  0  0  0  0  0  0  0  0  0  0
    3.1244   10.8088   -1.4395 H   0  0  0  0  0  0  0  0  0  0  0  0
    3.9722   12.3924   -1.4395 H   0  0  0  0  0  0  0  0  0  0  0  0
    1.5011   13.5714    0.6692 H   0  0  0  0  0  0  0  0  0  0  0  0
    2.8735   14.2023   -0.4047 H   0  0  0  0  0  0  0  0  0  0  0  0
   -0.0909   14.7791   -0.6633 H   0  0  0  0  0  0  0  0  0  0  0  0
    1.2480   15.9181   -0.2426 H   0  0  0  0  0  0  0  0  0  0  0  0
    3.1658   15.8623   -1.4926 H   0  0  0  0  0  0  0  0  0  0  0  0
    3.2410   14.9504   -3.0384 H   0  0  0  0  0  0  0  0  0  0  0  0
    2.7543   16.6795   -3.0384 H   0  0  0  0  0  0  0  0  0  0  0  0
  1  2  1  0
  2  3  1  0
  3  4  1  0
  4  5  1  0
  5  6  1  0
  6  7  1  0
  7  8  1  0
  7  9  1  0
  2 10  1  0
 10 11  1  0
 11 12  1  0
 12 13  1  0
 13 14  1  1
 13 15  1  0
 15 16  1  0
 16 17  1  0
 17 18  2  0
 18 19  1  0
 19 20  1  0
 20 21  1  0
 21 22  1  0
 22 23  1  0
 22 24  1  0
 24 25  1  0
 24 26  1  0
 19 27  1  0
 27 28  1  6
 27 29  1  0
 29 30  1  0
 30 31  1  0
 31 32  1  1
  7  5  1  0
 31 10  1  0
 31 13  1  0
 27 15  1  0
 24 18  1  0
  1 33  1  0
  1 34  1  0
  1 35  1  0
  2 36  1  6
  3 37  1  0
  3 38  1  0
  4 39  1  0
  4 40  1  0
  5 41  1  1
  8 42  1  0
  8 43  1  0
  8 44  1  0
  9 45  1  0
  9 46  1  0
  9 47  1  0
 10 48  1  1
 11 49  1  0
 11 50  1  0
 12 51  1  0
 12 52  1  0
 14 53  1  0
 14 54  1  0
 14 55  1  0
 15 56  1  6
 16 57  1  0
 16 58  1  0
 17 59  1  0
 19 60  1  1
 20 61  1  0
 20 62  1  0
 21 63  1  0
 21 64  1  0
 22 65  1  1
 23 66  1  0
 25 67  1  0
 25 68  1  0
 25 69  1  0
 26 70  1  0
 26 71  1  0
 26 72  1  0
 28 73  1  0
 28 74  1  0
 28 75  1  0
 29 76  1  0
 29 77  1  0
 30 78  1  0
 30 79  1  0
 32 80  1  0
 32 81  1  0
 32 82  1  0
M  END
>  <meeko>  (4) 
{"is_sidechain": [false], "intermolecular_energy": 2.731, "internal_energy": -0.839}

$$$$
EPH_relaxed_0001_pdb2pqr_Repair_350_r2_0001_out
     RDKit          3D

 82 86  0  0  0  0  0  0  0  0999 V2000
    3.6780   17.9340    0.8510 C   0  0  0  0  0  0  0  0  0  0  0  0
    2.7150   18.3270   -0.2730 C   0  0  2  0  0  0  0  0  0  0  0  0
    1.9800   19.6490    0.0280 C   0  0  0  0  0  0  0  0  0  0  0  0
    0.8260   19.4990    1.0230 C   0  0  0  0  0  0  0  0  0  0  0  0
   -0.4400   20.1060    0.4980 C   0  0  2  0  0  0  0  0  0  0  0  0
   -1.5030   20.1940    1.4560 O   0  0  0  0  0  0  0  0  0  0  0  0
   -1.7330   19.3300    0.3320 C   0  0  0  0  0  0  0  0  0  0  0  0
   -1.8240   17.8790    0.6890 C   0  0  0  0  0  0  0  0  0  0  0  0
   -2.7600   19.8470   -0.6260 C   0  0  0  0  0  0  0  0  0  0  0  0
    1.7040   17.2100   -0.5050 C   0  0  1  0  0  0  0  0  0  0  0  0
    0.5040   17.6630   -1.3780 C   0  0  0  0  0  0  0  0  0  0  0  0
    0.0930   16.4420   -2.2420 C   0  0  0  0  0  0  0  0  0  0  0  0
    0.8420   15.2470   -1.6080 C   0  0  1  0  0  0  0  0  0  0  0  0
   -0.0310   14.8310   -0.3820 C   0  0  0  0  0  0  0  0  0  0  0  0
    1.1280   14.0320   -2.5500 C   0  0  2  0  0  0  0  0  0  0  0  0
   -0.1230   13.3280   -3.1050 C   0  0  0  0  0  0  0  0  0  0  0  0
   -0.6410   12.2010   -2.2740 C   0  0  0  0  0  0  0  0  0  0  0  0
    0.0310   11.5860   -1.2830 C   0  0  0  0  0  0  0  0  0  0  0  0
    1.4890   11.9510   -0.9760 C   0  0  1  0  0  0  0  0  0  0  0  0
    2.3240   10.6540   -0.8110 C   0  0  0  0  0  0  0  0  0  0  0  0
    1.7290    9.7040    0.2240 C   0  0  0  0  0  0  0  0  0  0  0  0
    0.3000    9.3180   -0.1460 C   0  0  2  0  0  0  0  0  0  0  0  0
    0.3290    8.5340   -1.3430 O   0  0  0  0  0  0  0  0  0  0  0  0
   -0.6330   10.5450   -0.3490 C   0  0  0  0  0  0  0  0  0  0  0  0
   -0.9060   11.2220    1.0170 C   0  0  0  0  0  0  0  0  0  0  0  0
   -2.0040   10.0240   -0.8560 C   0  0  0  0  0  0  0  0  0  0  0  0
    2.1670   12.9910   -1.9680 C   0  0  1  0  0  0  0  0  0  0  0  0
    2.7770   12.2400   -3.1910 C   0  0  0  0  0  0  0  0  0  0  0  0
    3.3700   13.6930   -1.2340 C   0  0  0  0  0  0  0  0  0  0  0  0
    3.0420   14.9570   -0.4160 C   0  0  0  0  0  0  0  0  0  0  0  0
    2.2030   15.9400   -1.2380 C   0  0  2  0  0  0  0  0  0  0  0  0
    3.0640   16.3920   -2.4660 C   0  0  0  0  0  0  0  0  0  0  0  0
    3.2038   18.1275    1.8245 H   0  0  0  0  0  0  0  0  0  0  0  0
    3.9216   16.8645    0.7679 H   0  0  0  0  0  0  0  0  0  0  0  0
    4.6003   18.5277    0.7679 H   0  0  0  0  0  0  0  0  0  0  0  0
    3.3134   18.4818   -1.1829 H   0  0  0  0  0  0  0  0  0  0  0  0
    2.7061   20.3632    0.4435 H   0  0  0  0  0  0  0  0  0  0  0  0
    1.5439   19.9973   -0.9199 H   0  0  0  0  0  0  0  0  0  0  0  0
    0.6562   18.4290    1.2136 H   0  0  0  0  0  0  0  0  0  0  0  0
    1.1007   20.0252    1.9491 H   0  0  0  0  0  0  0  0  0  0  0  0
    0.1261   20.7522   -0.1890 H   0  0  0  0  0  0  0  0  0  0  0  0
   -1.8308   17.7704    1.7836 H   0  0  0  0  0  0  0  0  0  0  0  0
   -2.7504   17.4564    0.2729 H   0  0  0  0  0  0  0  0  0  0  0  0
   -0.9576   17.3440    0.2729 H   0  0  0  0  0  0  0  0  0  0  0  0
   -3.6046   20.2722   -0.0639 H   0  0  0  0  0  0  0  0  0  0  0  0
   -2.3113   20.6266   -1.2591 H   0  0  0  0  0  0  0  0  0  0  0  0
   -3.1190   19.0222   -1.2591 H   0  0  0  0  0  0  0  0  0  0  0  0
    1.4537   16.9681    0.5385 H   0  0  0  0  0  0  0  0  0  0  0  0
   -0.3347   17.9733   -0.7374 H   0  0  0  0  0  0  0  0  0  0  0  0
    0.7772   18.5204   -2.0106 H   0  0  0  0  0  0  0  0  0  0  0  0
   -0.9949   16.2850   -2.2001 H   0  0  0  0  0  0  0  0  0  0  0  0
    0.3462   16.5777   -3.3038 H   0  0  0  0  0  0  0  0  0  0  0  0
    0.4991   15.0836    0.5482 H   0  0  0  0  0  0  0  0  0  0  0  0
   -0.9899   15.3690   -0.4153 H   0  0  0  0  0  0  0  0  0  0  0  0
   -0.2172   13.7474   -0.4153 H   0  0  0  0  0  0  0  0  0  0  0  0
    1.6087   14.5123   -3.4150 H   0  0  0  0  0  0  0  0  0  0  0  0
   -0.9224   14.0779   -3.1972 H   0  0  0  0  0  0  0  0  0  0  0  0
    0.1778   12.8849   -4.0658 H   0  0  0  0  0  0  0  0  0  0  0  0
   -1.6584   11.8427   -2.4900 H   0  0  0  0  0  0  0  0  0  0  0  0
    1.4699   12.5059   -0.0264 H   0  0  0  0  0  0  0  0  0  0  0  0
    2.3676   10.1367   -1.7808 H   0  0  0  0  0  0  0  0  0  0  0  0
    3.3261   10.9437   -0.4618 H   0  0  0  0  0  0  0  0  0  0  0  0
    2.3458    8.7946    0.2741 H   0  0  0  0  0  0  0  0  0  0  0  0
    1.7133   10.2131    1.1990 H   0  0  0  0  0  0  0  0  0  0  0  0
   -0.1145    8.7436    0.6956 H   0  0  0  0  0  0  0  0  0  0  0  0
    1.0890    8.8310   -1.8710 H   0  0  0  0  0  0  0  0  0  0  0  0
   -0.6286   10.5340    1.8292 H   0  0  0  0  0  0  0  0  0  0  0  0
   -0.3087   12.1423    1.0960 H   0  0  0  0  0  0  0  0  0  0  0  0
   -1.9746   11.4705    1.0960 H   0  0  0  0  0  0  0  0  0  0  0  0
   -2.6447    9.7805    0.0044 H   0  0  0  0  0  0  0  0  0  0  0  0
   -2.4886   10.8006   -1.4659 H   0  0  0  0  0  0  0  0  0  0  0  0
   -1.8505    9.1215   -1.4659 H   0  0  0  0  0  0  0  0  0  0  0  0
    3.4332   11.4321   -2.8351 H   0  0  0  0  0  0  0  0  0  0  0  0
    1.9669   11.8128   -3.8003 H   0  0  0  0  0  0  0  0  0  0  0  0
    3.3612   12.9453   -3.8003 H   0  0  0  0  0  0  0  0  0  0  0  0
    3.8153   12.9582   -0.5471 H   0  0  0  0  0  0  0  0  0  0  0  0
    4.0377   14.0356   -2.0382 H   0  0  0  0  0  0  0  0  0  0  0  0
    2.4785   14.6674    0.4832 H   0  0  0  0  0  0  0  0  0  0  0  0
    3.9856   15.4490   -0.1375 H   0  0  0  0  0  0  0  0  0  0  0  0
    3.9854   16.8757   -2.1096 H   0  0  0  0  0  0  0  0  0  0  0  0
    3.3231   15.5136   -3.0754 H   0  0  0  0  0  0  0  0  0  0  0  0
    2.4881   17.1041   -3.0754 H   0  0  0  0  0  0  0  0  0  0  0  0
  1  2  1  0
  2  3  1  0
  3  4  1  0
  4  5  1  0
  5  6  1  0
  6  7  1  0
  7  8  1  0
  7  9  1  0
  2 10  1  0
 10 11  1  0
 11 12  1  0
 12 13  1  0
 13 14  1  1
 13 15  1  0
 15 16  1  0
 16 17  1  0
 17 18  2  0
 18 19  1  0
 19 20  1  0
 20 21  1  0
 21 22  1  0
 22 23  1  0
 22 24  1  0
 24 25  1  0
 24 26  1  0
 19 27  1  0
 27 28  1  6
 27 29  1  0
 29 30  1  0
 30 31  1  0
 31 32  1  6
  7  5  1  0
 31 10  1  0
 31 13  1  0
 27 15  1  0
 24 18  1  0
  1 33  1  0
  1 34  1  0
  1 35  1  0
  2 36  1  6
  3 37  1  0
  3 38  1  0
  4 39  1  0
  4 40  1  0
  5 41  1  6
  8 42  1  0
  8 43  1  0
  8 44  1  0
  9 45  1  0
  9 46  1  0
  9 47  1  0
 10 48  1  1
 11 49  1  0
 11 50  1  0
 12 51  1  0
 12 52  1  0
 14 53  1  0
 14 54  1  0
 14 55  1  0
 15 56  1  6
 16 57  1  0
 16 58  1  0
 17 59  1  0
 19 60  1  1
 20 61  1  0
 20 62  1  0
 21 63  1  0
 21 64  1  0
 22 65  1  1
 23 66  1  0
 25 67  1  0
 25 68  1  0
 25 69  1  0
 26 70  1  0
 26 71  1  0
 26 72  1  0
 28 73  1  0
 28 74  1  0
 28 75  1  0
 29 76  1  0
 29 77  1  0
 30 78  1  0
 30 79  1  0
 32 80  1  0
 32 81  1  0
 32 82  1  0
M  END
>  <meeko>  (5) 
{"is_sidechain": [false], "intermolecular_energy": 2.731, "internal_energy": -0.839}

$$$$
EPH_relaxed_0001_pdb2pqr_Repair_350_r2_0001_out
     RDKit          3D

 82 86  0  0  0  0  0  0  0  0999 V2000
   -5.1930    5.8270   -1.5440 C   0  0  0  0  0  0  0  0  0  0  0  0
   -5.4390    7.3270   -1.7300 C   0  0  2  0  0  0  0  0  0  0  0  0
   -5.1870    8.1220   -0.4340 C   0  0  0  0  0  0  0  0  0  0  0  0
   -4.0800    9.1720   -0.5620 C   0  0  0  0  0  0  0  0  0  0  0  0
   -2.7790    8.5580   -0.9820 C   0  0  2  0  0  0  0  0  0  0  0  0
   -1.7190    8.6890   -0.0260 O   0  0  0  0  0  0  0  0  0  0  0  0
   -1.5300    9.3670   -1.2780 C   0  0  0  0  0  0  0  0  0  0  0  0
   -1.5210   10.8590   -1.1670 C   0  0  0  0  0  0  0  0  0  0  0  0
   -0.4690    8.7550   -2.1410 C   0  0  0  0  0  0  0  0  0  0  0  0
   -6.8640    7.5630   -2.2180 C   0  0  1  0  0  0  0  0  0  0  0  0
   -7.1530    6.8710   -3.5760 C   0  0  0  0  0  0  0  0  0  0  0  0
   -8.6320    6.4080   -3.5360 C   0  0  0  0  0  0  0  0  0  0  0  0
   -9.2350    7.1320   -2.3090 C   0  0  1  0  0  0  0  0  0  0  0  0
   -9.5680    8.5700   -2.8160 C   0  0  0  0  0  0  0  0  0  0  0  0
  -10.4770    6.4510   -1.6460 C   0  0  2  0  0  0  0  0  0  0  0  0
  -11.7170    6.3360   -2.5500 C   0  0  0  0  0  0  0  0  0  0  0  0
  -12.6640    7.4870   -2.4830 C   0  0  0  0  0  0  0  0  0  0  0  0
  -12.6770    8.4350   -1.5270 C   0  0  0  0  0  0  0  0  0  0  0  0
  -11.7330    8.3500   -0.3210 C   0  0  1  0  0  0  0  0  0  0  0  0
  -12.5290    8.6330    0.9800 C   0  0  0  0  0  0  0  0  0  0  0  0
  -13.2890    9.9550    0.9260 C   0  0  0  0  0  0  0  0  0  0  0  0
  -14.2590    9.9780   -0.2530 C   0  0  2  0  0  0  0  0  0  0  0  0
  -15.2870    9.0100   -0.0220 O   0  0  0  0  0  0  0  0  0  0  0  0
  -13.5720    9.6960   -1.6180 C   0  0  0  0  0  0  0  0  0  0  0  0
  -12.6790   10.8990   -2.0100 C   0  0  0  0  0  0  0  0  0  0  0  0
  -14.6810    9.6070   -2.7010 C   0  0  0  0  0  0  0  0  0  0  0  0
  -10.8510    7.0320   -0.2230 C   0  0  1  0  0  0  0  0  0  0  0  0
  -11.6450    5.9140    0.5190 C   0  0  0  0  0  0  0  0  0  0  0  0
   -9.5780    7.3300    0.6550 C   0  0  0  0  0  0  0  0  0  0  0  0
   -8.3440    7.8890   -0.0770 C   0  0  0  0  0  0  0  0  0  0  0  0
   -8.0170    7.0520   -1.3180 C   0  0  2  0  0  0  0  0  0  0  0  0
   -7.6560    5.6050   -0.8380 C   0  0  0  0  0  0  0  0  0  0  0  0
   -5.1545    5.5922   -0.4701 H   0  0  0  0  0  0  0  0  0  0  0  0
   -6.0102    5.2603   -2.0142 H   0  0  0  0  0  0  0  0  0  0  0  0
   -4.2376    5.5510   -2.0142 H   0  0  0  0  0  0  0  0  0  0  0  0
   -4.7234    7.6890   -2.4829 H   0  0  0  0  0  0  0  0  0  0  0  0
   -6.1197    8.6330   -0.1531 H   0  0  0  0  0  0  0  0  0  0  0  0
   -4.8586    7.3996    0.3278 H   0  0  0  0  0  0  0  0  0  0  0  0
   -4.3810    9.9176   -1.3127 H   0  0  0  0  0  0  0  0  0  0  0  0
   -3.9360    9.6400    0.4230 H   0  0  0  0  0  0  0  0  0  0  0  0
   -3.3040    7.7762   -1.5505 H   0  0  0  0  0  0  0  0  0  0  0  0
   -1.5193   11.1477   -0.1056 H   0  0  0  0  0  0  0  0  0  0  0  0
   -0.6204   11.2577   -1.6569 H   0  0  0  0  0  0  0  0  0  0  0  0
   -2.4167   11.2685   -1.6569 H   0  0  0  0  0  0  0  0  0  0  0  0
    0.3081    8.3068   -1.5044 H   0  0  0  0  0  0  0  0  0  0  0  0
   -0.9168    7.9765   -2.7761 H   0  0  0  0  0  0  0  0  0  0  0  0
   -0.0193    9.5325   -2.7761 H   0  0  0  0  0  0  0  0  0  0  0  0
   -6.8689    8.6626   -2.2482 H   0  0  0  0  0  0  0  0  0  0  0  0
   -7.0003    7.5804   -4.4027 H   0  0  0  0  0  0  0  0  0  0  0  0
   -6.4765    6.0187   -3.7369 H   0  0  0  0  0  0  0  0  0  0  0  0
   -9.1562    6.7028   -4.4571 H   0  0  0  0  0  0  0  0  0  0  0  0
   -8.7247    5.3144   -3.4620 H   0  0  0  0  0  0  0  0  0  0  0  0
   -9.7222    9.2361   -1.9543 H   0  0  0  0  0  0  0  0  0  0  0  0
   -8.7332    8.9464   -3.4255 H   0  0  0  0  0  0  0  0  0  0  0  0
  -10.4832    8.5411   -3.4255 H   0  0  0  0  0  0  0  0  0  0  0  0
  -10.1259    5.4206   -1.4877 H   0  0  0  0  0  0  0  0  0  0  0  0
  -11.3716    6.2402   -3.5900 H   0  0  0  0  0  0  0  0  0  0  0  0
  -12.2765    5.4604   -2.1889 H   0  0  0  0  0  0  0  0  0  0  0  0
  -13.4153    7.5679   -3.2824 H   0  0  0  0  0  0  0  0  0  0  0  0
  -10.9746    9.1324   -0.4719 H   0  0  0  0  0  0  0  0  0  0  0  0
  -13.2507    7.8177    1.1360 H   0  0  0  0  0  0  0  0  0  0  0  0
  -11.8057    8.6976    1.8062 H   0  0  0  0  0  0  0  0  0  0  0  0
  -13.8549   10.0836    1.8605 H   0  0  0  0  0  0  0  0  0  0  0  0
  -12.5638   10.7725    0.8005 H   0  0  0  0  0  0  0  0  0  0  0  0
  -14.6765   10.9937   -0.3172 H   0  0  0  0  0  0  0  0  0  0  0  0
  -15.7300    8.8430   -0.8710 H   0  0  0  0  0  0  0  0  0  0  0  0
  -12.3111   11.3946   -1.0995 H   0  0  0  0  0  0  0  0  0  0  0  0
  -11.8246   10.5431   -2.6045 H   0  0  0  0  0  0  0  0  0  0  0  0
  -13.2670   11.6138   -2.6045 H   0  0  0  0  0  0  0  0  0  0  0  0
  -15.6640    9.5281   -2.2136 H   0  0  0  0  0  0  0  0  0  0  0  0
  -14.6542   10.5102   -3.3283 H   0  0  0  0  0  0  0  0  0  0  0  0
  -14.5105    8.7196   -3.3283 H   0  0  0  0  0  0  0  0  0  0  0  0
  -11.5459    6.0535    1.6056 H   0  0  0  0  0  0  0  0  0  0  0  0
  -12.7069    5.9699    0.2374 H   0  0  0  0  0  0  0  0  0  0  0  0
  -11.2424    4.9298    0.2374 H   0  0  0  0  0  0  0  0  0  0  0  0
   -9.8681    8.0611    1.4240 H   0  0  0  0  0  0  0  0  0  0  0  0
   -9.2620    6.3511    1.0447 H   0  0  0  0  0  0  0  0  0  0  0  0
   -8.5471    8.9253   -0.3851 H   0  0  0  0  0  0  0  0  0  0  0  0
   -7.4837    7.8525    0.6075 H   0  0  0  0  0  0  0  0  0  0  0  0
   -7.6484    5.5746    0.2616 H   0  0  0  0  0  0  0  0  0  0  0  0
   -8.4045    4.8948   -1.2193 H   0  0  0  0  0  0  0  0  0  0  0  0
   -6.6616    5.3296   -1.2193 H   0  0  0  0  0  0  0  0  0  0  0  0
  1  2  1  0
  2  3  1  0
  3  4  1  0
  4  5  1  0
  5  6  1  0
  6  7  1  0
  7  8  1  0
  7  9  1  0
  2 10  1  0
 10 11  1  0
 11 12  1  0
 12 13  1  0
 13 14  1  6
 13 15  1  0
 15 16  1  0
 16 17  1  0
 17 18  2  0
 18 19  1  0
 19 20  1  0
 20 21  1  0
 21 22  1  0
 22 23  1  0
 22 24  1  0
 24 25  1  0
 24 26  1  0
 19 27  1  0
 27 28  1  1
 27 29  1  0
 29 30  1  0
 30 31  1  0
 31 32  1  1
  7  5  1  0
 31 10  1  0
 31 13  1  0
 27 15  1  0
 24 18  1  0
  1 33  1  0
  1 34  1  0
  1 35  1  0
  2 36  1  6
  3 37  1  0
  3 38  1  0
  4 39  1  0
  4 40  1  0
  5 41  1  6
  8 42  1  0
  8 43  1  0
  8 44  1  0
  9 45  1  0
  9 46  1  0
  9 47  1  0
 10 48  1  6
 11 49  1  0
 11 50  1  0
 12 51  1  0
 12 52  1  0
 14 53  1  0
 14 54  1  0
 14 55  1  0
 15 56  1  1
 16 57  1  0
 16 58  1  0
 17 59  1  0
 19 60  1  6
 20 61  1  0
 20 62  1  0
 21 63  1  0
 21 64  1  0
 22 65  1  6
 23 66  1  0
 25 67  1  0
 25 68  1  0
 25 69  1  0
 26 70  1  0
 26 71  1  0
 26 72  1  0
 28 73  1  0
 28 74  1  0
 28 75  1  0
 29 76  1  0
 29 77  1  0
 30 78  1  0
 30 79  1  0
 32 80  1  0
 32 81  1  0
 32 82  1  0
M  END
>  <meeko>  (6) 
{"is_sidechain": [false], "intermolecular_energy": 2.731, "internal_energy": -0.839}

$$$$
EPH_relaxed_0001_pdb2pqr_Repair_350_r2_0001_out
     RDKit          3D

 82 86  0  0  0  0  0  0  0  0999 V2000
    0.4020    8.8690   -2.6000 C   0  0  0  0  0  0  0  0  0  0  0  0
    1.1720   10.0260   -3.2420 C   0  0  2  0  0  0  0  0  0  0  0  0
    2.6660   10.0130   -2.8580 C   0  0  0  0  0  0  0  0  0  0  0  0
    3.5750   10.6680   -3.9020 C   0  0  0  0  0  0  0  0  0  0  0  0
    4.9630   10.8740   -3.3760 C   0  0  2  0  0  0  0  0  0  0  0  0
    5.6070   12.0690   -3.8350 O   0  0  0  0  0  0  0  0  0  0  0  0
    6.2040   10.8300   -4.2490 C   0  0  0  0  0  0  0  0  0  0  0  0
    6.1130   10.5720   -5.7200 C   0  0  0  0  0  0  0  0  0  0  0  0
    7.5250   10.5520   -3.6020 C   0  0  0  0  0  0  0  0  0  0  0  0
    0.5430   11.3550   -2.8420 C   0  0  1  0  0  0  0  0  0  0  0  0
   -0.8620   11.1840   -2.2060 C   0  0  0  0  0  0  0  0  0  0  0  0
   -0.9970   12.2810   -1.1180 C   0  0  0  0  0  0  0  0  0  0  0  0
    0.1830   13.2440   -1.3870 C   0  0  1  0  0  0  0  0  0  0  0  0
   -0.3070   14.1620   -2.5520 C   0  0  0  0  0  0  0  0  0  0  0  0
    0.6840   14.0810   -0.1650 C   0  0  2  0  0  0  0  0  0  0  0  0
   -0.3510   15.0520    0.4300 C   0  0  0  0  0  0  0  0  0  0  0  0
   -0.3470   16.4250   -0.1550 C   0  0  0  0  0  0  0  0  0  0  0  0
    0.6340   16.9500   -0.9120 C   0  0  0  0  0  0  0  0  0  0  0  0
    1.9310   16.1730   -1.1710 C   0  0  1  0  0  0  0  0  0  0  0  0
    3.1480   17.1100   -0.9550 C   0  0  0  0  0  0  0  0  0  0  0  0
    3.0580   18.3870   -1.7850 C   0  0  0  0  0  0  0  0  0  0  0  0
    1.7840   19.1610   -1.4580 C   0  0  2  0  0  0  0  0  0  0  0  0
    1.8690   19.6420   -0.1130 O   0  0  0  0  0  0  0  0  0  0  0  0
    0.4910   18.3150   -1.6300 C   0  0  0  0  0  0  0  0  0  0  0  0
    0.2400   18.0490   -3.1350 C   0  0  0  0  0  0  0  0  0  0  0  0
   -0.7070   19.1680   -1.1330 C   0  0  0  0  0  0  0  0  0  0  0  0
    2.0790   14.7930   -0.3960 C   0  0  1  0  0  0  0  0  0  0  0  0
    2.6920   15.0390    1.0170 C   0  0  0  0  0  0  0  0  0  0  0  0
    3.0980   13.8750   -1.1690 C   0  0  0  0  0  0  0  0  0  0  0  0
    2.5220   12.9840   -2.2850 C   0  0  0  0  0  0  0  0  0  0  0  0
    1.2960   12.2100   -1.7920 C   0  0  2  0  0  0  0  0  0  0  0  0
    1.7620   11.2630   -0.6340 C   0  0  0  0  0  0  0  0  0  0  0  0
    0.4585    8.9540   -1.5047 H   0  0  0  0  0  0  0  0  0  0  0  0
   -0.6506    8.9085   -2.9170 H   0  0  0  0  0  0  0  0  0  0  0  0
    0.8448    7.9133   -2.9170 H   0  0  0  0  0  0  0  0  0  0  0  0
    1.1102    9.8994   -4.3329 H   0  0  0  0  0  0  0  0  0  0  0  0
    2.7849   10.5522   -1.9066 H   0  0  0  0  0  0  0  0  0  0  0  0
    2.9698    8.9584   -2.7831 H   0  0  0  0  0  0  0  0  0  0  0  0
    3.6226   10.0205   -4.7900 H   0  0  0  0  0  0  0  0  0  0  0  0
    3.1540   11.6524   -4.1545 H   0  0  0  0  0  0  0  0  0  0  0  0
    4.7053   10.3692   -2.4333 H   0  0  0  0  0  0  0  0  0  0  0  0
    5.7515    9.5472   -5.8909 H   0  0  0  0  0  0  0  0  0  0  0  0
    5.4133   11.2883   -6.1753 H   0  0  0  0  0  0  0  0  0  0  0  0
    7.1073   10.6908   -6.1753 H   0  0  0  0  0  0  0  0  0  0  0  0
    7.4099   10.5762   -2.5083 H   0  0  0  0  0  0  0  0  0  0  0  0
    7.8829    9.5589   -3.9111 H   0  0  0  0  0  0  0  0  0  0  0  0
    8.2528   11.3166   -3.9111 H   0  0  0  0  0  0  0  0  0  0  0  0
    0.5509   11.8639   -3.8172 H   0  0  0  0  0  0  0  0  0  0  0  0
   -1.6421   11.3111   -2.9710 H   0  0  0  0  0  0  0  0  0  0  0  0
   -0.9795   10.1803   -1.7716 H   0  0  0  0  0  0  0  0  0  0  0  0
   -1.9579   12.8076   -1.2146 H   0  0  0  0  0  0  0  0  0  0  0  0
   -0.9721   11.8646   -0.1002 H   0  0  0  0  0  0  0  0  0  0  0  0
   -0.7862   15.0598   -2.1346 H   0  0  0  0  0  0  0  0  0  0  0  0
    0.5524   14.4592   -3.1709 H   0  0  0  0  0  0  0  0  0  0  0  0
   -1.0322   13.6134   -3.1709 H   0  0  0  0  0  0  0  0  0  0  0  0
    0.8425   13.3080    0.6014 H   0  0  0  0  0  0  0  0  0  0  0  0
   -1.3507   14.6197    0.2757 H   0  0  0  0  0  0  0  0  0  0  0  0
   -0.0817   15.1720    1.4898 H   0  0  0  0  0  0  0  0  0  0  0  0
   -1.2201   17.0619    0.0500 H   0  0  0  0  0  0  0  0  0  0  0  0
    1.8884   15.8525   -2.2224 H   0  0  0  0  0  0  0  0  0  0  0  0
    3.1976   17.3839    0.1092 H   0  0  0  0  0  0  0  0  0  0  0  0
    4.0489   16.5663   -1.2756 H   0  0  0  0  0  0  0  0  0  0  0  0
    3.9303   19.0206   -1.5666 H   0  0  0  0  0  0  0  0  0  0  0  0
    3.0389   18.1130   -2.8502 H   0  0  0  0  0  0  0  0  0  0  0  0
    1.7112   19.9932   -2.1737 H   0  0  0  0  0  0  0  0  0  0  0  0
    1.0060   20.0250    0.1180 H   0  0  0  0  0  0  0  0  0  0  0  0
   -0.5111   17.2531   -3.2464 H   0  0  0  0  0  0  0  0  0  0  0  0
   -0.1268   18.9689   -3.6137 H   0  0  0  0  0  0  0  0  0  0  0  0
    1.1796   17.7361   -3.6137 H   0  0  0  0  0  0  0  0  0  0  0  0
   -0.7195   19.1769   -0.0331 H   0  0  0  0  0  0  0  0  0  0  0  0
   -0.6043   20.1974   -1.5069 H   0  0  0  0  0  0  0  0  0  0  0  0
   -1.6461   18.7341   -1.5069 H   0  0  0  0  0  0  0  0  0  0  0  0
    1.9642   14.7469    1.7883 H   0  0  0  0  0  0  0  0  0  0  0  0
    3.6066   14.4383    1.1296 H   0  0  0  0  0  0  0  0  0  0  0  0
    2.9376   16.1053    1.1296 H   0  0  0  0  0  0  0  0  0  0  0  0
    3.8564   14.5292   -1.6237 H   0  0  0  0  0  0  0  0  0  0  0  0
    3.4853   13.1755   -0.4136 H   0  0  0  0  0  0  0  0  0  0  0  0
    2.2295   13.6171   -3.1357 H   0  0  0  0  0  0  0  0  0  0  0  0
    3.2934   12.2613   -2.5895 H   0  0  0  0  0  0  0  0  0  0  0  0
    1.5326   11.7291    0.3356 H   0  0  0  0  0  0  0  0  0  0  0  0
    1.2344   10.3010   -0.7123 H   0  0  0  0  0  0  0  0  0  0  0  0
    2.8461   11.0941   -0.7123 H   0  0  0  0  0  0  0  0  0  0  0  0
  1  2  1  0
  2  3  1  0
  3  4  1  0
  4  5  1  0
  5  6  1  0
  6  7  1  0
  7  8  1  0
  7  9  1  0
  2 10  1  0
 10 11  1  0
 11 12  1  0
 12 13  1  0
 13 14  1  6
 13 15  1  0
 15 16  1  0
 16 17  1  0
 17 18  2  0
 18 19  1  0
 19 20  1  0
 20 21  1  0
 21 22  1  0
 22 23  1  0
 22 24  1  0
 24 25  1  0
 24 26  1  0
 19 27  1  0
 27 28  1  1
 27 29  1  0
 29 30  1  0
 30 31  1  0
 31 32  1  1
  7  5  1  0
 31 10  1  0
 31 13  1  0
 27 15  1  0
 24 18  1  0
  1 33  1  0
  1 34  1  0
  1 35  1  0
  2 36  1  6
  3 37  1  0
  3 38  1  0
  4 39  1  0
  4 40  1  0
  5 41  1  1
  8 42  1  0
  8 43  1  0
  8 44  1  0
  9 45  1  0
  9 46  1  0
  9 47  1  0
 10 48  1  6
 11 49  1  0
 11 50  1  0
 12 51  1  0
 12 52  1  0
 14 53  1  0
 14 54  1  0
 14 55  1  0
 15 56  1  1
 16 57  1  0
 16 58  1  0
 17 59  1  0
 19 60  1  6
 20 61  1  0
 20 62  1  0
 21 63  1  0
 21 64  1  0
 22 65  1  6
 23 66  1  0
 25 67  1  0
 25 68  1  0
 25 69  1  0
 26 70  1  0
 26 71  1  0
 26 72  1  0
 28 73  1  0
 28 74  1  0
 28 75  1  0
 29 76  1  0
 29 77  1  0
 30 78  1  0
 30 79  1  0
 32 80  1  0
 32 81  1  0
 32 82  1  0
M  END
>  <meeko>  (7) 
{"is_sidechain": [false], "intermolecular_energy": 2.731, "internal_energy": -0.839}

$$$$
EPH_relaxed_0001_pdb2pqr_Repair_350_r2_0001_out
     RDKit          3D

 82 86  0  0  0  0  0  0  0  0999 V2000
   -1.2020   16.4990   -5.9650 C   0  0  0  0  0  0  0  0  0  0  0  0
    0.0100   15.7650   -6.5440 C   0  0  2  0  0  0  0  0  0  0  0  0
   -0.2000   15.3730   -8.0210 C   0  0  0  0  0  0  0  0  0  0  0  0
    0.3870   16.3800   -9.0140 C   0  0  0  0  0  0  0  0  0  0  0  0
    1.8030   16.0440   -9.3730 C   0  0  2  0  0  0  0  0  0  0  0  0
    2.2860   16.6800  -10.5630 O   0  0  0  0  0  0  0  0  0  0  0  0
    2.1870   15.2480  -10.6060 C   0  0  0  0  0  0  0  0  0  0  0  0
    1.1520   14.7380  -11.5590 C   0  0  0  0  0  0  0  0  0  0  0  0
    3.5120   14.5520  -10.6250 C   0  0  0  0  0  0  0  0  0  0  0  0
    0.3110   14.5230   -5.7140 C   0  0  1  0  0  0  0  0  0  0  0  0
    1.3510   13.5900   -6.3900 C   0  0  0  0  0  0  0  0  0  0  0  0
    2.1970   12.9630   -5.2520 C   0  0  0  0  0  0  0  0  0  0  0  0
    1.4140   13.2900   -3.9590 C   0  0  1  0  0  0  0  0  0  0  0  0
    0.2880   12.2110   -3.8870 C   0  0  0  0  0  0  0  0  0  0  0  0
    2.2500   13.3410   -2.6390 C   0  0  2  0  0  0  0  0  0  0  0  0
    2.9220   12.0150   -2.2410 C   0  0  0  0  0  0  0  0  0  0  0  0
    2.1080   11.1260   -1.3600 C   0  0  0  0  0  0  0  0  0  0  0  0
    1.0100   11.4970   -0.6750 C   0  0  0  0  0  0  0  0  0  0  0  0
    0.5400   12.9580   -0.6720 C   0  0  1  0  0  0  0  0  0  0  0  0
    0.2050   13.3910    0.7800 C   0  0  0  0  0  0  0  0  0  0  0  0
   -0.7930   12.4550    1.4540 C   0  0  0  0  0  0  0  0  0  0  0  0
   -0.2650   11.0230    1.4830 C   0  0  2  0  0  0  0  0  0  0  0  0
    0.8770   10.9710    2.3440 O   0  0  0  0  0  0  0  0  0  0  0  0
    0.1150   10.4810    0.0770 C   0  0  0  0  0  0  0  0  0  0  0  0
   -1.1690   10.2540   -0.7580 C   0  0  0  0  0  0  0  0  0  0  0  0
    0.7650    9.0840    0.2630 C   0  0  0  0  0  0  0  0  0  0  0  0
    1.4890   13.9930   -1.4140 C   0  0  1  0  0  0  0  0  0  0  0  0
    2.5860   14.5080   -0.4320 C   0  0  0  0  0  0  0  0  0  0  0  0
    0.6450   15.2530   -1.8370 C   0  0  0  0  0  0  0  0  0  0  0  0
   -0.0600   15.1900   -3.2050 C   0  0  0  0  0  0  0  0  0  0  0  0
    0.9100   14.7400   -4.3020 C   0  0  2  0  0  0  0  0  0  0  0  0
    2.0410   15.8180   -4.4120 C   0  0  0  0  0  0  0  0  0  0  0  0
   -1.1568   16.4716   -4.8663 H   0  0  0  0  0  0  0  0  0  0  0  0
   -1.1949   17.5447   -6.3063 H   0  0  0  0  0  0  0  0  0  0  0  0
   -2.1254   16.0082   -6.3063 H   0  0  0  0  0  0  0  0  0  0  0  0
    0.8653   16.4555   -6.5035 H   0  0  0  0  0  0  0  0  0  0  0  0
    0.2776   14.3971   -8.1927 H   0  0  0  0  0  0  0  0  0  0  0  0
   -1.2858   15.3450   -8.1952 H   0  0  0  0  0  0  0  0  0  0  0  0
   -0.2234   16.3754   -9.9291 H   0  0  0  0  0  0  0  0  0  0  0  0
    0.3798   17.3727   -8.5402 H   0  0  0  0  0  0  0  0  0  0  0  0
    2.0711   15.9357   -8.3117 H   0  0  0  0  0  0  0  0  0  0  0  0
    0.3060   14.3211  -10.9929 H   0  0  0  0  0  0  0  0  0  0  0  0
    0.7976   15.5646  -12.1923 H   0  0  0  0  0  0  0  0  0  0  0  0
    1.5916   13.9534  -12.1923 H   0  0  0  0  0  0  0  0  0  0  0  0
    3.8482   14.3754   -9.5926 H   0  0  0  0  0  0  0  0  0  0  0  0
    3.4131   13.5894  -11.1482 H   0  0  0  0  0  0  0  0  0  0  0  0
    4.2484   15.1797  -11.1482 H   0  0  0  0  0  0  0  0  0  0  0  0
   -0.7033   14.1051   -5.6329 H   0  0  0  0  0  0  0  0  0  0  0  0
    0.8381   12.8009   -6.9594 H   0  0  0  0  0  0  0  0  0  0  0  0
    1.9866   14.1503   -7.0915 H   0  0  0  0  0  0  0  0  0  0  0  0
    2.2854   11.8750   -5.3879 H   0  0  0  0  0  0  0  0  0  0  0  0
    3.2236   13.3574   -5.2293 H   0  0  0  0  0  0  0  0  0  0  0  0
    0.0581   11.9907   -2.8341 H   0  0  0  0  0  0  0  0  0  0  0  0
   -0.6151   12.5895   -4.3881 H   0  0  0  0  0  0  0  0  0  0  0  0
    0.6277   11.2926   -4.3881 H   0  0  0  0  0  0  0  0  0  0  0  0
    3.0699   14.0241   -2.9056 H   0  0  0  0  0  0  0  0  0  0  0  0
    3.1526   11.4609   -3.1628 H   0  0  0  0  0  0  0  0  0  0  0  0
    3.8128   12.2890   -1.6567 H   0  0  0  0  0  0  0  0  0  0  0  0
    2.4328   10.0796   -1.2624 H   0  0  0  0  0  0  0  0  0  0  0  0
   -0.3701   12.9861   -1.2892 H   0  0  0  0  0  0  0  0  0  0  0  0
    1.1341   13.3989    1.3688 H   0  0  0  0  0  0  0  0  0  0  0  0
   -0.2532   14.3899    0.7332 H   0  0  0  0  0  0  0  0  0  0  0  0
   -0.9660   12.7957    2.4855 H   0  0  0  0  0  0  0  0  0  0  0  0
   -1.7317   12.4713    0.8807 H   0  0  0  0  0  0  0  0  0  0  0  0
   -1.0751   10.3800    1.8576 H   0  0  0  0  0  0  0  0  0  0  0  0
    1.6630   10.8560    1.7830 H   0  0  0  0  0  0  0  0  0  0  0  0
   -2.0238   10.1029   -0.0824 H   0  0  0  0  0  0  0  0  0  0  0  0
   -1.3541   11.1334   -1.3924 H   0  0  0  0  0  0  0  0  0  0  0  0
   -1.0413    9.3645   -1.3924 H   0  0  0  0  0  0  0  0  0  0  0  0
    0.8661    8.8666    1.3366 H   0  0  0  0  0  0  0  0  0  0  0  0
    0.1305    8.3187   -0.2079 H   0  0  0  0  0  0  0  0  0  0  0  0
    1.7591    9.0765   -0.2079 H   0  0  0  0  0  0  0  0  0  0  0  0
    2.2528   14.3516    0.6046 H   0  0  0  0  0  0  0  0  0  0  0  0
    3.5211   13.9548   -0.6040 H   0  0  0  0  0  0  0  0  0  0  0  0
    2.7577   15.5808   -0.6040 H   0  0  0  0  0  0  0  0  0  0  0  0
   -0.1289   15.4075   -1.0707 H   0  0  0  0  0  0  0  0  0  0  0  0
    1.3749   16.0710   -1.9270 H   0  0  0  0  0  0  0  0  0  0  0  0
   -0.8943   14.4754   -3.1472 H   0  0  0  0  0  0  0  0  0  0  0  0
   -0.4303   16.1951   -3.4552 H   0  0  0  0  0  0  0  0  0  0  0  0
    2.3585   16.1206   -3.4032 H   0  0  0  0  0  0  0  0  0  0  0  0
    2.8991   15.3951   -4.9550 H   0  0  0  0  0  0  0  0  0  0  0  0
    1.6597   16.6954   -4.9550 H   0  0  0  0  0  0  0  0  0  0  0  0
  1  2  1  0
  2  3  1  0
  3  4  1  0
  4  5  1  0
  5  6  1  0
  6  7  1  0
  7  8  1  0
  7  9  1  0
  2 10  1  0
 10 11  1  0
 11 12  1  0
 12 13  1  0
 13 14  1  1
 13 15  1  0
 15 16  1  0
 16 17  1  0
 17 18  2  0
 18 19  1  0
 19 20  1  0
 20 21  1  0
 21 22  1  0
 22 23  1  0
 22 24  1  0
 24 25  1  0
 24 26  1  0
 19 27  1  0
 27 28  1  1
 27 29  1  0
 29 30  1  0
 30 31  1  0
 31 32  1  6
  7  5  1  0
 31 10  1  0
 31 13  1  0
 27 15  1  0
 24 18  1  0
  1 33  1  0
  1 34  1  0
  1 35  1  0
  2 36  1  6
  3 37  1  0
  3 38  1  0
  4 39  1  0
  4 40  1  0
  5 41  1  1
  8 42  1  0
  8 43  1  0
  8 44  1  0
  9 45  1  0
  9 46  1  0
  9 47  1  0
 10 48  1  1
 11 49  1  0
 11 50  1  0
 12 51  1  0
 12 52  1  0
 14 53  1  0
 14 54  1  0
 14 55  1  0
 15 56  1  6
 16 57  1  0
 16 58  1  0
 17 59  1  0
 19 60  1  6
 20 61  1  0
 20 62  1  0
 21 63  1  0
 21 64  1  0
 22 65  1  1
 23 66  1  0
 25 67  1  0
 25 68  1  0
 25 69  1  0
 26 70  1  0
 26 71  1  0
 26 72  1  0
 28 73  1  0
 28 74  1  0
 28 75  1  0
 29 76  1  0
 29 77  1  0
 30 78  1  0
 30 79  1  0
 32 80  1  0
 32 81  1  0
 32 82  1  0
M  END
>  <meeko>  (8) 
{"is_sidechain": [false], "intermolecular_energy": 2.731, "internal_energy": -0.839}

$$$$
EPH_relaxed_0001_pdb2pqr_Repair_350_r2_0001_out
     RDKit          3D

 82 86  0  0  0  0  0  0  0  0999 V2000
   -0.2620   10.4960   -3.9870 C   0  0  0  0  0  0  0  0  0  0  0  0
    0.9620   10.3380   -3.0800 C   0  0  2  0  0  0  0  0  0  0  0  0
    0.9390    9.0090   -2.3000 C   0  0  0  0  0  0  0  0  0  0  0  0
   -0.4340    8.6580   -1.7220 C   0  0  0  0  0  0  0  0  0  0  0  0
   -0.5690    9.1090   -0.2990 C   0  0  2  0  0  0  0  0  0  0  0  0
   -1.9150    9.1490    0.1910 O   0  0  0  0  0  0  0  0  0  0  0  0
   -1.2340   10.4110    0.1060 C   0  0  0  0  0  0  0  0  0  0  0  0
   -1.8080   11.3450   -0.9140 C   0  0  0  0  0  0  0  0  0  0  0  0
   -0.8950   11.0050    1.4380 C   0  0  0  0  0  0  0  0  0  0  0  0
    1.0440   11.5110   -2.1100 C   0  0  1  0  0  0  0  0  0  0  0  0
    2.1220   11.3030   -1.0120 C   0  0  0  0  0  0  0  0  0  0  0  0
    2.7270   12.6980   -0.7100 C   0  0  0  0  0  0  0  0  0  0  0  0
    1.7620   13.6980   -1.3910 C   0  0  1  0  0  0  0  0  0  0  0  0
    0.5760   13.8560   -0.3880 C   0  0  0  0  0  0  0  0  0  0  0  0
    2.3700   15.0820   -1.7900 C   0  0  2  0  0  0  0  0  0  0  0  0
    2.8830   15.9320   -0.6140 C   0  0  0  0  0  0  0  0  0  0  0  0
    1.8810   16.8610   -0.0130 C   0  0  0  0  0  0  0  0  0  0  0  0
    0.7100   17.2170   -0.5740 C   0  0  0  0  0  0  0  0  0  0  0  0
    0.3370   16.7460   -1.9850 C   0  0  1  0  0  0  0  0  0  0  0  0
   -0.2060   17.9460   -2.8050 C   0  0  0  0  0  0  0  0  0  0  0  0
   -1.3580   18.6600   -2.1040 C   0  0  0  0  0  0  0  0  0  0  0  0
   -0.9310   19.1640   -0.7280 C   0  0  2  0  0  0  0  0  0  0  0  0
    0.0470   20.1940   -0.8980 O   0  0  0  0  0  0  0  0  0  0  0  0
   -0.3580   18.0440    0.1840 C   0  0  0  0  0  0  0  0  0  0  0  0
   -1.4980   17.0880    0.6140 C   0  0  0  0  0  0  0  0  0  0  0  0
    0.1650   18.7090    1.4860 C   0  0  0  0  0  0  0  0  0  0  0  0
    1.4590   15.9330   -2.7640 C   0  0  1  0  0  0  0  0  0  0  0  0
    2.4070   16.9190   -3.5130 C   0  0  0  0  0  0  0  0  0  0  0  0
    0.7760   15.0460   -3.8710 C   0  0  0  0  0  0  0  0  0  0  0  0
    0.3040   13.6430   -3.4450 C   0  0  0  0  0  0  0  0  0  0  0  0
    1.4130   12.8960   -2.6970 C   0  0  2  0  0  0  0  0  0  0  0  0
    2.6110   12.7020   -3.6880 C   0  0  0  0  0  0  0  0  0  0  0  0
   -1.1641   10.6125   -3.3685 H   0  0  0  0  0  0  0  0  0  0  0  0
   -0.1355   11.3853   -4.6220 H   0  0  0  0  0  0  0  0  0  0  0  0
   -0.3655    9.6038   -4.6220 H   0  0  0  0  0  0  0  0  0  0  0  0
    1.8530   10.3259   -3.7249 H   0  0  0  0  0  0  0  0  0  0  0  0
    1.2458    8.2014   -2.9810 H   0  0  0  0  0  0  0  0  0  0  0  0
    1.6260    9.1242   -1.4487 H   0  0  0  0  0  0  0  0  0  0  0  0
   -1.2111    9.1485   -2.3265 H   0  0  0  0  0  0  0  0  0  0  0  0
   -0.5467    7.5641   -1.7468 H   0  0  0  0  0  0  0  0  0  0  0  0
    0.4046    8.6665   -0.0415 H   0  0  0  0  0  0  0  0  0  0  0  0
   -2.3184   12.1756   -0.4045 H   0  0  0  0  0  0  0  0  0  0  0  0
   -0.9984   11.7430   -1.5434 H   0  0  0  0  0  0  0  0  0  0  0  0
   -2.5288   10.8025   -1.5434 H   0  0  0  0  0  0  0  0  0  0  0  0
   -1.2693   10.3492    2.2379 H   0  0  0  0  0  0  0  0  0  0  0  0
    0.1967   11.1059    1.5273 H   0  0  0  0  0  0  0  0  0  0  0  0
   -1.3634   11.9963    1.5273 H   0  0  0  0  0  0  0  0  0  0  0  0
    0.0060   11.5220   -1.7460 H   0  0  0  0  0  0  0  0  0  0  0  0
    1.6625   10.8847   -0.1043 H   0  0  0  0  0  0  0  0  0  0  0  0
    2.8983   10.6000   -1.3485 H   0  0  0  0  0  0  0  0  0  0  0  0
    2.7692   12.8764    0.3746 H   0  0  0  0  0  0  0  0  0  0  0  0
    3.7580   12.7947   -1.0811 H   0  0  0  0  0  0  0  0  0  0  0  0
    0.9579   13.8051    0.6423 H   0  0  0  0  0  0  0  0  0  0  0  0
    0.0859   14.8274   -0.5498 H   0  0  0  0  0  0  0  0  0  0  0  0
   -0.1513   13.0468   -0.5498 H   0  0  0  0  0  0  0  0  0  0  0  0
    3.2640   14.7918   -2.3615 H   0  0  0  0  0  0  0  0  0  0  0  0
    3.2277   15.2475    0.1750 H   0  0  0  0  0  0  0  0  0  0  0  0
    3.6803   16.5691   -1.0244 H   0  0  0  0  0  0  0  0  0  0  0  0
    2.1194   17.2909    0.9710 H   0  0  0  0  0  0  0  0  0  0  0  0
   -0.4549   15.9937   -1.8548 H   0  0  0  0  0  0  0  0  0  0  0  0
    0.6116   18.6651   -2.9614 H   0  0  0  0  0  0  0  0  0  0  0  0
   -0.5876   17.5532   -3.7590 H   0  0  0  0  0  0  0  0  0  0  0  0
   -1.6779   19.5153   -2.7173 H   0  0  0  0  0  0  0  0  0  0  0  0
   -2.1863   17.9476   -1.9755 H   0  0  0  0  0  0  0  0  0  0  0  0
   -1.8297   19.5489   -0.2239 H   0  0  0  0  0  0  0  0  0  0  0  0
    0.8140   19.9650   -0.3460 H   0  0  0  0  0  0  0  0  0  0  0  0
   -1.5473   17.0467    1.7121 H   0  0  0  0  0  0  0  0  0  0  0  0
   -2.4553   17.4573    0.2177 H   0  0  0  0  0  0  0  0  0  0  0  0
   -1.3011   16.0810    0.2177 H   0  0  0  0  0  0  0  0  0  0  0  0
   -0.2491   18.1825    2.3585 H   0  0  0  0  0  0  0  0  0  0  0  0
    1.2633   18.6526    1.5109 H   0  0  0  0  0  0  0  0  0  0  0  0
   -0.1487   19.7630    1.5109 H   0  0  0  0  0  0  0  0  0  0  0  0
    2.9751   17.5099   -2.7795 H   0  0  0  0  0  0  0  0  0  0  0  0
    3.1047   16.3488   -4.1439 H   0  0  0  0  0  0  0  0  0  0  0  0
    1.8098   17.5938   -4.1439 H   0  0  0  0  0  0  0  0  0  0  0  0
   -0.1028   15.5944   -4.2411 H   0  0  0  0  0  0  0  0  0  0  0  0
    1.5601   14.8696   -4.6220 H   0  0  0  0  0  0  0  0  0  0  0  0
   -0.5711   13.7423   -2.7859 H   0  0  0  0  0  0  0  0  0  0  0  0
    0.0427   13.0713   -4.3477 H   0  0  0  0  0  0  0  0  0  0  0  0
    3.5389   12.5517   -3.1166 H   0  0  0  0  0  0  0  0  0  0  0  0
    2.4240   11.8224   -4.3216 H   0  0  0  0  0  0  0  0  0  0  0  0
    2.7112   13.5956   -4.3216 H   0  0  0  0  0  0  0  0  0  0  0  0
  1  2  1  0
  2  3  1  0
  3  4  1  0
  4  5  1  0
  5  6  1  0
  6  7  1  0
  7  8  1  0
  7  9  1  0
  2 10  1  0
 10 11  1  0
 11 12  1  0
 12 13  1  0
 13 14  1  1
 13 15  1  0
 15 16  1  0
 16 17  1  0
 17 18  2  0
 18 19  1  0
 19 20  1  0
 20 21  1  0
 21 22  1  0
 22 23  1  0
 22 24  1  0
 24 25  1  0
 24 26  1  0
 19 27  1  0
 27 28  1  6
 27 29  1  0
 29 30  1  0
 30 31  1  0
 31 32  1  6
  7  5  1  0
 31 10  1  0
 31 13  1  0
 27 15  1  0
 24 18  1  0
  1 33  1  0
  1 34  1  0
  1 35  1  0
  2 36  1  6
  3 37  1  0
  3 38  1  0
  4 39  1  0
  4 40  1  0
  5 41  1  1
  8 42  1  0
  8 43  1  0
  8 44  1  0
  9 45  1  0
  9 46  1  0
  9 47  1  0
 10 48  1  1
 11 49  1  0
 11 50  1  0
 12 51  1  0
 12 52  1  0
 14 53  1  0
 14 54  1  0
 14 55  1  0
 15 56  1  6
 16 57  1  0
 16 58  1  0
 17 59  1  0
 19 60  1  1
 20 61  1  0
 20 62  1  0
 21 63  1  0
 21 64  1  0
 22 65  1  1
 23 66  1  0
 25 67  1  0
 25 68  1  0
 25 69  1  0
 26 70  1  0
 26 71  1  0
 26 72  1  0
 28 73  1  0
 28 74  1  0
 28 75  1  0
 29 76  1  0
 29 77  1  0
 30 78  1  0
 30 79  1  0
 32 80  1  0
 32 81  1  0
 32 82  1  0
M  END
>  <meeko>  (9) 
{"is_sidechain": [false], "intermolecular_energy": 2.731, "internal_energy": -0.839}

$$$$
EPH_relaxed_0001_pdb2pqr_Repair_350_r2_0001_out
     RDKit          3D

 82 86  0  0  0  0  0  0  0  0999 V2000
    2.5920   19.1280   -1.0790 C   0  0  0  0  0  0  0  0  0  0  0  0
    2.3380   18.1100   -2.1930 C   0  0  2  0  0  0  0  0  0  0  0  0
    0.8980   18.1900   -2.7370 C   0  0  0  0  0  0  0  0  0  0  0  0
    0.1350   19.4350   -2.2770 C   0  0  0  0  0  0  0  0  0  0  0  0
   -1.1490   19.0760   -1.5920 C   0  0  2  0  0  0  0  0  0  0  0  0
   -1.9820   20.1940   -1.2570 O   0  0  0  0  0  0  0  0  0  0  0  0
   -1.4590   19.4400   -0.1520 C   0  0  0  0  0  0  0  0  0  0  0  0
   -0.4790   20.1940    0.6910 C   0  0  0  0  0  0  0  0  0  0  0  0
   -2.4960   18.6460    0.5800 C   0  0  0  0  0  0  0  0  0  0  0  0
    2.6260   16.7010   -1.6860 C   0  0  1  0  0  0  0  0  0  0  0  0
    3.5510   16.6930   -0.4400 C   0  0  0  0  0  0  0  0  0  0  0  0
    3.0860   15.5150    0.4550 C   0  0  0  0  0  0  0  0  0  0  0  0
    2.1390   14.6900   -0.4480 C   0  0  1  0  0  0  0  0  0  0  0  0
    3.0860   13.8130   -1.3260 C   0  0  0  0  0  0  0  0  0  0  0  0
    1.0660   13.8230    0.2870 C   0  0  2  0  0  0  0  0  0  0  0  0
    1.6310   12.7180    1.1970 C   0  0  0  0  0  0  0  0  0  0  0  0
    1.8420   11.3950    0.5390 C   0  0  0  0  0  0  0  0  0  0  0  0
    1.3280   11.0210   -0.6470 C   0  0  0  0  0  0  0  0  0  0  0  0
    0.3610   11.9350   -1.4100 C   0  0  1  0  0  0  0  0  0  0  0  0
   -0.8530   11.1060   -1.9060 C   0  0  0  0  0  0  0  0  0  0  0  0
   -0.4350    9.8870   -2.7230 C   0  0  0  0  0  0  0  0  0  0  0  0
    0.4790    8.9730   -1.9100 C   0  0  2  0  0  0  0  0  0  0  0  0
   -0.2730    8.4110   -0.8310 O   0  0  0  0  0  0  0  0  0  0  0  0
    1.7330    9.7020   -1.3500 C   0  0  0  0  0  0  0  0  0  0  0  0
    2.6970   10.0460   -2.5120 C   0  0  0  0  0  0  0  0  0  0  0  0
    2.4950    8.7050   -0.4350 C   0  0  0  0  0  0  0  0  0  0  0  0
   -0.0750   13.2650   -0.6580 C   0  0  1  0  0  0  0  0  0  0  0  0
   -1.3080   12.9820    0.2530 C   0  0  0  0  0  0  0  0  0  0  0  0
   -0.5430   14.3280   -1.7220 C   0  0  0  0  0  0  0  0  0  0  0  0
    0.5470   15.2350   -2.3230 C   0  0  0  0  0  0  0  0  0  0  0  0
    1.4160   15.8510   -1.2230 C   0  0  2  0  0  0  0  0  0  0  0  0
    0.4950   16.7570   -0.3360 C   0  0  0  0  0  0  0  0  0  0  0  0
    2.4701   18.6394   -0.1010 H   0  0  0  0  0  0  0  0  0  0  0  0
    3.6157   19.5207   -1.1676 H   0  0  0  0  0  0  0  0  0  0  0  0
    1.8728   19.9556   -1.1676 H   0  0  0  0  0  0  0  0  0  0  0  0
    3.0177   18.3527   -3.0231 H   0  0  0  0  0  0  0  0  0  0  0  0
    0.9417   18.1958   -3.8361 H   0  0  0  0  0  0  0  0  0  0  0  0
    0.3565   17.3172   -2.3433 H   0  0  0  0  0  0  0  0  0  0  0  0
    0.7664   20.0017   -1.5768 H   0  0  0  0  0  0  0  0  0  0  0  0
   -0.1066   20.0371   -3.1653 H   0  0  0  0  0  0  0  0  0  0  0  0
   -1.2030   18.1241   -2.1406 H   0  0  0  0  0  0  0  0  0  0  0  0
   -0.7019   20.0225    1.7544 H   0  0  0  0  0  0  0  0  0  0  0  0
    0.5403   19.8450    0.4691 H   0  0  0  0  0  0  0  0  0  0  0  0
   -0.5551   21.2687    0.4691 H   0  0  0  0  0  0  0  0  0  0  0  0
   -2.3474   18.7598    1.6640 H   0  0  0  0  0  0  0  0  0  0  0  0
   -3.4973   19.0105    0.3069 H   0  0  0  0  0  0  0  0  0  0  0  0
   -2.4052   17.5843    0.3069 H   0  0  0  0  0  0  0  0  0  0  0  0
    3.0671   16.2639   -2.5940 H   0  0  0  0  0  0  0  0  0  0  0  0
    4.5973   16.5462   -0.7460 H   0  0  0  0  0  0  0  0  0  0  0  0
    3.4915   17.6483    0.1021 H   0  0  0  0  0  0  0  0  0  0  0  0
    3.9453   14.9072    0.7745 H   0  0  0  0  0  0  0  0  0  0  0  0
    2.5906   15.8597    1.3746 H   0  0  0  0  0  0  0  0  0  0  0  0
    3.7364   13.2107   -0.6747 H   0  0  0  0  0  0  0  0  0  0  0  0
    2.4842   13.1462   -1.9610 H   0  0  0  0  0  0  0  0  0  0  0  0
    3.7047   14.4641   -1.9610 H   0  0  0  0  0  0  0  0  0  0  0  0
    0.5946   14.5535    0.9609 H   0  0  0  0  0  0  0  0  0  0  0  0
    2.6003   13.0618    1.5872 H   0  0  0  0  0  0  0  0  0  0  0  0
    0.8749   12.5517    1.9785 H   0  0  0  0  0  0  0  0  0  0  0  0
    2.4708   10.6640    1.0683 H   0  0  0  0  0  0  0  0  0  0  0  0
    0.9250   12.3227   -2.2711 H   0  0  0  0  0  0  0  0  0  0  0  0
   -1.4275   10.7647   -1.0322 H   0  0  0  0  0  0  0  0  0  0  0  0
   -1.4557   11.7546   -2.5588 H   0  0  0  0  0  0  0  0  0  0  0  0
   -1.3340    9.3264   -3.0189 H   0  0  0  0  0  0  0  0  0  0  0  0
    0.1134   10.2313   -3.6122 H   0  0  0  0  0  0  0  0  0  0  0  0
    0.8486    8.1887   -2.5870 H   0  0  0  0  0  0  0  0  0  0  0  0
   -0.4350    7.4760   -1.0410 H   0  0  0  0  0  0  0  0  0  0  0  0
    3.6582   10.3890   -2.1016 H   0  0  0  0  0  0  0  0  0  0  0  0
    2.8606    9.1508   -3.1299 H   0  0  0  0  0  0  0  0  0  0  0  0
    2.2569   10.8426   -3.1299 H   0  0  0  0  0  0  0  0  0  0  0  0
    2.3039    8.9551    0.6190 H   0  0  0  0  0  0  0  0  0  0  0  0
    2.1468    7.6815   -0.6380 H   0  0  0  0  0  0  0  0  0  0  0  0
    3.5740    8.7723   -0.6380 H   0  0  0  0  0  0  0  0  0  0  0  0
   -1.0073   13.0510    1.3089 H   0  0  0  0  0  0  0  0  0  0  0  0
   -2.0943   13.7230    0.0465 H   0  0  0  0  0  0  0  0  0  0  0  0
   -1.6924   11.9723    0.0465 H   0  0  0  0  0  0  0  0  0  0  0  0
   -1.0166   13.7824   -2.5515 H   0  0  0  0  0  0  0  0  0  0  0  0
   -1.2133   15.0072   -1.1748 H   0  0  0  0  0  0  0  0  0  0  0  0
    1.1836   14.6375   -2.9921 H   0  0  0  0  0  0  0  0  0  0  0  0
    0.0586   16.0479   -2.8803 H   0  0  0  0  0  0  0  0  0  0  0  0
    0.6980   16.5573    0.7265 H   0  0  0  0  0  0  0  0  0  0  0  0
    0.7001   17.8151   -0.5560 H   0  0  0  0  0  0  0  0  0  0  0  0
   -0.5596   16.5345   -0.5560 H   0  0  0  0  0  0  0  0  0  0  0  0
  1  2  1  0
  2  3  1  0
  3  4  1  0
  4  5  1  0
  5  6  1  0
  6  7  1  0
  7  8  1  0
  7  9  1  0
  2 10  1  0
 10 11  1  0
 11 12  1  0
 12 13  1  0
 13 14  1  6
 13 15  1  0
 15 16  1  0
 16 17  1  0
 17 18  2  0
 18 19  1  0
 19 20  1  0
 20 21  1  0
 21 22  1  0
 22 23  1  0
 22 24  1  0
 24 25  1  0
 24 26  1  0
 19 27  1  0
 27 28  1  1
 27 29  1  0
 29 30  1  0
 30 31  1  0
 31 32  1  1
  7  5  1  0
 31 10  1  0
 31 13  1  0
 27 15  1  0
 24 18  1  0
  1 33  1  0
  1 34  1  0
  1 35  1  0
  2 36  1  6
  3 37  1  0
  3 38  1  0
  4 39  1  0
  4 40  1  0
  5 41  1  6
  8 42  1  0
  8 43  1  0
  8 44  1  0
  9 45  1  0
  9 46  1  0
  9 47  1  0
 10 48  1  6
 11 49  1  0
 11 50  1  0
 12 51  1  0
 12 52  1  0
 14 53  1  0
 14 54  1  0
 14 55  1  0
 15 56  1  1
 16 57  1  0
 16 58  1  0
 17 59  1  0
 19 60  1  6
 20 61  1  0
 20 62  1  0
 21 63  1  0
 21 64  1  0
 22 65  1  6
 23 66  1  0
 25 67  1  0
 25 68  1  0
 25 69  1  0
 26 70  1  0
 26 71  1  0
 26 72  1  0
 28 73  1  0
 28 74  1  0
 28 75  1  0
 29 76  1  0
 29 77  1  0
 30 78  1  0
 30 79  1  0
 32 80  1  0
 32 81  1  0
 32 82  1  0
M  END
>  <meeko>  (10) 
{"is_sidechain": [false], "intermolecular_energy": 2.731, "internal_energy": -0.839}

$$$$
EPH_relaxed_0001_pdb2pqr_Repair_350_r2_0001_out
     RDKit          3D

 82 86  0  0  0  0  0  0  0  0999 V2000
    0.0970   17.7220   -2.5170 C   0  0  0  0  0  0  0  0  0  0  0  0
   -0.0890   16.8740   -1.2560 C   0  0  2  0  0  0  0  0  0  0  0  0
   -0.0760   17.7300    0.0260 C   0  0  0  0  0  0  0  0  0  0  0  0
    0.5590   19.1100   -0.1610 C   0  0  0  0  0  0  0  0  0  0  0  0
    1.6820   19.3390    0.8050 C   0  0  2  0  0  0  0  0  0  0  0  0
    2.7250   20.1940    0.3190 O   0  0  0  0  0  0  0  0  0  0  0  0
    3.0940   18.8310    0.5820 C   0  0  0  0  0  0  0  0  0  0  0  0
    3.4590   18.0520   -0.6420 C   0  0  0  0  0  0  0  0  0  0  0  0
    3.9920   18.6670    1.7690 C   0  0  0  0  0  0  0  0  0  0  0  0
    0.9980   15.8080   -1.1820 C   0  0  1  0  0  0  0  0  0  0  0  0
    1.2240   15.2850    0.2620 C   0  0  0  0  0  0  0  0  0  0  0  0
    1.5770   13.7800    0.1420 C   0  0  0  0  0  0  0  0  0  0  0  0
    1.8670   13.5660   -1.3620 C   0  0  1  0  0  0  0  0  0  0  0  0
    3.3360   14.0550   -1.5610 C   0  0  0  0  0  0  0  0  0  0  0  0
    1.6630   12.1140   -1.9050 C   0  0  2  0  0  0  0  0  0  0  0  0
    2.5810   11.0490   -1.2800 C   0  0  0  0  0  0  0  0  0  0  0  0
    3.8780   10.8300   -1.9870 C   0  0  0  0  0  0  0  0  0  0  0  0
    4.1710   11.2510   -3.2310 C   0  0  0  0  0  0  0  0  0  0  0  0
    3.1110   11.9420   -4.0990 C   0  0  1  0  0  0  0  0  0  0  0  0
    3.1300   11.3300   -5.5250 C   0  0  0  0  0  0  0  0  0  0  0  0
    4.5170   11.3670   -6.1580 C   0  0  0  0  0  0  0  0  0  0  0  0
    5.5310   10.6210   -5.2950 C   0  0  2  0  0  0  0  0  0  0  0  0
    5.2000    9.2290   -5.2950 O   0  0  0  0  0  0  0  0  0  0  0  0
    5.5940   11.1430   -3.8330 C   0  0  0  0  0  0  0  0  0  0  0  0
    6.2390   12.5510   -3.8110 C   0  0  0  0  0  0  0  0  0  0  0  0
    6.5490   10.2160   -3.0340 C   0  0  0  0  0  0  0  0  0  0  0  0
    1.6470   12.0090   -3.4840 C   0  0  1  0  0  0  0  0  0  0  0  0
    0.8620   10.7080   -3.8350 C   0  0  0  0  0  0  0  0  0  0  0  0
    0.8610   13.1970   -4.1550 C   0  0  0  0  0  0  0  0  0  0  0  0
    1.0080   14.5840   -3.5010 C   0  0  0  0  0  0  0  0  0  0  0  0
    0.7730   14.5050   -1.9890 C   0  0  2  0  0  0  0  0  0  0  0  0
   -0.7040   14.0370   -1.7580 C   0  0  0  0  0  0  0  0  0  0  0  0
    0.3246   18.7595   -2.2309 H   0  0  0  0  0  0  0  0  0  0  0  0
    0.9273   17.3155   -3.1131 H   0  0  0  0  0  0  0  0  0  0  0  0
   -0.8272   17.7003   -3.1131 H   0  0  0  0  0  0  0  0  0  0  0  0
   -1.0765   16.3939   -1.3222 H   0  0  0  0  0  0  0  0  0  0  0  0
   -1.1144   17.8683    0.3616 H   0  0  0  0  0  0  0  0  0  0  0  0
    0.5363   17.1923    0.7649 H   0  0  0  0  0  0  0  0  0  0  0  0
    0.9496   19.1867   -1.1864 H   0  0  0  0  0  0  0  0  0  0  0  0
   -0.2134   19.8709    0.0245 H   0  0  0  0  0  0  0  0  0  0  0  0
    0.9946   19.2567    1.6598 H   0  0  0  0  0  0  0  0  0  0  0  0
    3.9085   17.0928   -0.3456 H   0  0  0  0  0  0  0  0  0  0  0  0
    2.5552   17.8642   -1.2402 H   0  0  0  0  0  0  0  0  0  0  0  0
    4.1818   18.6263   -1.2402 H   0  0  0  0  0  0  0  0  0  0  0  0
    3.4032   18.7745    2.6919 H   0  0  0  0  0  0  0  0  0  0  0  0
    4.4549   17.6695    1.7435 H   0  0  0  0  0  0  0  0  0  0  0  0
    4.7776   19.4365    1.7435 H   0  0  0  0  0  0  0  0  0  0  0  0
    1.8399   16.3734   -1.6081 H   0  0  0  0  0  0  0  0  0  0  0  0
    2.0516   15.8315    0.7377 H   0  0  0  0  0  0  0  0  0  0  0  0
    0.3264   15.4323    0.8806 H   0  0  0  0  0  0  0  0  0  0  0  0
    2.4640   13.5398    0.7465 H   0  0  0  0  0  0  0  0  0  0  0  0
    0.7672   13.1312    0.5071 H   0  0  0  0  0  0  0  0  0  0  0  0
    3.8065   14.2116   -0.5791 H   0  0  0  0  0  0  0  0  0  0  0  0
    3.9020   13.2968   -2.1221 H   0  0  0  0  0  0  0  0  0  0  0  0
    3.3347   15.0012   -2.1221 H   0  0  0  0  0  0  0  0  0  0  0  0
    0.6471   11.8729   -1.5589 H   0  0  0  0  0  0  0  0  0  0  0  0
    2.8043   11.3564   -0.2477 H   0  0  0  0  0  0  0  0  0  0  0  0
    2.0332   10.0975   -1.3479 H   0  0  0  0  0  0  0  0  0  0  0  0
    4.6599   10.2779   -1.4450 H   0  0  0  0  0  0  0  0  0  0  0  0
    3.3992   13.0026   -4.1436 H   0  0  0  0  0  0  0  0  0  0  0  0
    2.7979   10.2831   -5.4640 H   0  0  0  0  0  0  0  0  0  0  0  0
    2.4586   11.9312   -6.1557 H   0  0  0  0  0  0  0  0  0  0  0  0
    4.4724   10.8947   -7.1504 H   0  0  0  0  0  0  0  0  0  0  0  0
    4.8351   12.4164   -6.2452 H   0  0  0  0  0  0  0  0  0  0  0  0
    6.5257   10.7933   -5.7319 H   0  0  0  0  0  0  0  0  0  0  0  0
    4.3140    9.1370   -4.9050 H   0  0  0  0  0  0  0  0  0  0  0  0
    6.3856   12.8709   -2.7688 H   0  0  0  0  0  0  0  0  0  0  0  0
    7.2113   12.5170   -4.3243 H   0  0  0  0  0  0  0  0  0  0  0  0
    5.5782   13.2651   -4.3243 H   0  0  0  0  0  0  0  0  0  0  0  0
    6.3915   10.3688   -1.9561 H   0  0  0  0  0  0  0  0  0  0  0  0
    6.3405    9.1667   -3.2899 H   0  0  0  0  0  0  0  0  0  0  0  0
    7.5917   10.4556   -3.2899 H   0  0  0  0  0  0  0  0  0  0  0  0
    0.5568   10.2023   -2.9070 H   0  0  0  0  0  0  0  0  0  0  0  0
   -0.0313   10.9660   -4.4228 H   0  0  0  0  0  0  0  0  0  0  0  0
    1.5067   10.0380   -4.4228 H   0  0  0  0  0  0  0  0  0  0  0  0
    1.2090   13.2809   -5.1951 H   0  0  0  0  0  0  0  0  0  0  0  0
   -0.2022   12.9377   -4.0443 H   0  0  0  0  0  0  0  0  0  0  0  0
    2.0231   14.9643   -3.6880 H   0  0  0  0  0  0  0  0  0  0  0  0
    0.2574   15.2591   -3.9378 H   0  0  0  0  0  0  0  0  0  0  0  0
   -0.9039   13.9737   -0.6782 H   0  0  0  0  0  0  0  0  0  0  0  0
   -1.3939   14.7606   -2.2168 H   0  0  0  0  0  0  0  0  0  0  0  0
   -0.8513   13.0482   -2.2168 H   0  0  0  0  0  0  0  0  0  0  0  0
  1  2  1  0
  2  3  1  0
  3  4  1  0
  4  5  1  0
  5  6  1  0
  6  7  1  0
  7  8  1  0
  7  9  1  0
  2 10  1  0
 10 11  1  0
 11 12  1  0
 12 13  1  0
 13 14  1  1
 13 15  1  0
 15 16  1  0
 16 17  1  0
 17 18  2  0
 18 19  1  0
 19 20  1  0
 20 21  1  0
 21 22  1  0
 22 23  1  0
 22 24  1  0
 24 25  1  0
 24 26  1  0
 19 27  1  0
 27 28  1  1
 27 29  1  0
 29 30  1  0
 30 31  1  0
 31 32  1  6
  7  5  1  0
 31 10  1  0
 31 13  1  0
 27 15  1  0
 24 18  1  0
  1 33  1  0
  1 34  1  0
  1 35  1  0
  2 36  1  6
  3 37  1  0
  3 38  1  0
  4 39  1  0
  4 40  1  0
  5 41  1  1
  8 42  1  0
  8 43  1  0
  8 44  1  0
  9 45  1  0
  9 46  1  0
  9 47  1  0
 10 48  1  6
 11 49  1  0
 11 50  1  0
 12 51  1  0
 12 52  1  0
 14 53  1  0
 14 54  1  0
 14 55  1  0
 15 56  1  1
 16 57  1  0
 16 58  1  0
 17 59  1  0
 19 60  1  6
 20 61  1  0
 20 62  1  0
 21 63  1  0
 21 64  1  0
 22 65  1  6
 23 66  1  0
 25 67  1  0
 25 68  1  0
 25 69  1  0
 26 70  1  0
 26 71  1  0
 26 72  1  0
 28 73  1  0
 28 74  1  0
 28 75  1  0
 29 76  1  0
 29 77  1  0
 30 78  1  0
 30 79  1  0
 32 80  1  0
 32 81  1  0
 32 82  1  0
M  END
>  <meeko>  (11) 
{"is_sidechain": [false], "intermolecular_energy": 2.731, "internal_energy": -0.839}

$$$$
EPH_relaxed_0001_pdb2pqr_Repair_350_r2_0001_out
     RDKit          3D

 82 86  0  0  0  0  0  0  0  0999 V2000
    0.1800    9.2990   -2.1790 C   0  0  0  0  0  0  0  0  0  0  0  0
    1.2040   10.3250   -2.6710 C   0  0  2  0  0  0  0  0  0  0  0  0
    2.6210    9.7260   -2.7770 C   0  0  0  0  0  0  0  0  0  0  0  0
    3.5080   10.4220   -3.8140 C   0  0  0  0  0  0  0  0  0  0  0  0
    4.8960   10.6470   -3.2950 C   0  0  2  0  0  0  0  0  0  0  0  0
    5.4770   11.9030   -3.6670 O   0  0  0  0  0  0  0  0  0  0  0  0
    6.1190   10.7280   -4.1890 C   0  0  0  0  0  0  0  0  0  0  0  0
    6.0120   10.5840   -5.6740 C   0  0  0  0  0  0  0  0  0  0  0  0
    7.4640   10.4580   -3.5870 C   0  0  0  0  0  0  0  0  0  0  0  0
    1.2170   11.5330   -1.7430 C   0  0  1  0  0  0  0  0  0  0  0  0
    2.2890   11.4190   -0.6270 C   0  0  0  0  0  0  0  0  0  0  0  0
    2.8220   12.8520   -0.3690 C   0  0  0  0  0  0  0  0  0  0  0  0
    1.8180   13.7770   -1.0950 C   0  0  1  0  0  0  0  0  0  0  0  0
    0.6130   13.9120   -0.1120 C   0  0  0  0  0  0  0  0  0  0  0  0
    2.3620   15.1750   -1.5370 C   0  0  2  0  0  0  0  0  0  0  0  0
    2.8180   16.0910   -0.3880 C   0  0  0  0  0  0  0  0  0  0  0  0
    1.7640   16.9890    0.1680 C   0  0  0  0  0  0  0  0  0  0  0  0
    0.5840   17.2670   -0.4170 C   0  0  0  0  0  0  0  0  0  0  0  0
    0.2520   16.7290   -1.8150 C   0  0  1  0  0  0  0  0  0  0  0  0
   -0.3390   17.8710   -2.6830 C   0  0  0  0  0  0  0  0  0  0  0  0
   -1.5330   18.5510   -2.0200 C   0  0  0  0  0  0  0  0  0  0  0  0
   -1.1490   19.1240   -0.6590 C   0  0  2  0  0  0  0  0  0  0  0  0
   -0.2200   20.1940   -0.8550 O   0  0  0  0  0  0  0  0  0  0  0  0
   -0.5320   18.0660    0.2990 C   0  0  0  0  0  0  0  0  0  0  0  0
   -1.6290   17.0710    0.7510 C   0  0  0  0  0  0  0  0  0  0  0  0
   -0.0590   18.8020    1.5820 C   0  0  0  0  0  0  0  0  0  0  0  0
    1.4220   15.9450   -2.5520 C   0  0  1  0  0  0  0  0  0  0  0  0
    2.3300   16.9490   -3.3250 C   0  0  0  0  0  0  0  0  0  0  0  0
    0.7970   14.9870   -3.6340 C   0  0  0  0  0  0  0  0  0  0  0  0
    0.3900   13.5780   -3.1620 C   0  0  0  0  0  0  0  0  0  0  0  0
    1.5240   12.9140   -2.3760 C   0  0  2  0  0  0  0  0  0  0  0  0
    2.7430   12.7440   -3.3460 C   0  0  0  0  0  0  0  0  0  0  0  0
    0.1702    9.2892   -1.0791 H   0  0  0  0  0  0  0  0  0  0  0  0
   -0.8187    9.5697   -2.5522 H   0  0  0  0  0  0  0  0  0  0  0  0
    0.4527    8.3008   -2.5522 H   0  0  0  0  0  0  0  0  0  0  0  0
    0.9009   10.6365   -3.6815 H   0  0  0  0  0  0  0  0  0  0  0  0
    3.1070    9.8077   -1.7936 H   0  0  0  0  0  0  0  0  0  0  0  0
    2.5049    8.6817   -3.1025 H   0  0  0  0  0  0  0  0  0  0  0  0
    3.5620    9.7942   -4.7157 H   0  0  0  0  0  0  0  0  0  0  0  0
    3.0642   11.4023   -4.0420 H   0  0  0  0  0  0  0  0  0  0  0  0
    4.6802   10.0576   -2.3916 H   0  0  0  0  0  0  0  0  0  0  0  0
    5.3717    9.7223   -5.9136 H   0  0  0  0  0  0  0  0  0  0  0  0
    5.5719   11.4976   -6.1002 H   0  0  0  0  0  0  0  0  0  0  0  0
    7.0137   10.4262   -6.1002 H   0  0  0  0  0  0  0  0  0  0  0  0
    7.3846   10.4739   -2.4900 H   0  0  0  0  0  0  0  0  0  0  0  0
    7.8207    9.4703   -3.9145 H   0  0  0  0  0  0  0  0  0  0  0  0
    8.1743   11.2315   -3.9145 H   0  0  0  0  0  0  0  0  0  0  0  0
    0.1756   11.5039   -1.3901 H   0  0  0  0  0  0  0  0  0  0  0  0
    1.8388   11.0117    0.2903 H   0  0  0  0  0  0  0  0  0  0  0  0
    3.1030   10.7438   -0.9294 H   0  0  0  0  0  0  0  0  0  0  0  0
    2.8424   13.0707    0.7088 H   0  0  0  0  0  0  0  0  0  0  0  0
    3.8515   12.9863   -0.7323 H   0  0  0  0  0  0  0  0  0  0  0  0
    0.9790   13.8710    0.9245 H   0  0  0  0  0  0  0  0  0  0  0  0
    0.1054   14.8726   -0.2839 H   0  0  0  0  0  0  0  0  0  0  0  0
   -0.0946   13.0875   -0.2839 H   0  0  0  0  0  0  0  0  0  0  0  0
    3.2764   14.9089   -2.0874 H   0  0  0  0  0  0  0  0  0  0  0  0
    3.1869   15.4534    0.4290 H   0  0  0  0  0  0  0  0  0  0  0  0
    3.5877   16.7520   -0.8130 H   0  0  0  0  0  0  0  0  0  0  0  0
    1.9687   17.4643    1.1386 H   0  0  0  0  0  0  0  0  0  0  0  0
   -0.5040   15.9438   -1.6669 H   0  0  0  0  0  0  0  0  0  0  0  0
    0.4442   18.6237   -2.8563 H   0  0  0  0  0  0  0  0  0  0  0  0
   -0.6890   17.4267   -3.6265 H   0  0  0  0  0  0  0  0  0  0  0  0
   -1.8873   19.3670   -2.6670 H   0  0  0  0  0  0  0  0  0  0  0  0
   -2.3262   17.8029   -1.8744 H   0  0  0  0  0  0  0  0  0  0  0  0
   -2.0720   19.4818   -0.1794 H   0  0  0  0  0  0  0  0  0  0  0  0
   -0.1820   20.3800   -1.8090 H   0  0  0  0  0  0  0  0  0  0  0  0
   -1.6645   17.0388    1.8500 H   0  0  0  0  0  0  0  0  0  0  0  0
   -2.6043   17.3990    0.3621 H   0  0  0  0  0  0  0  0  0  0  0  0
   -1.3975   16.0684    0.3621 H   0  0  0  0  0  0  0  0  0  0  0  0
   -0.4106   18.2550    2.4692 H   0  0  0  0  0  0  0  0  0  0  0  0
    1.0399   18.8506    1.5928 H   0  0  0  0  0  0  0  0  0  0  0  0
   -0.4713   19.8218    1.5928 H   0  0  0  0  0  0  0  0  0  0  0  0
    2.8885   17.5666   -2.6062 H   0  0  0  0  0  0  0  0  0  0  0  0
    3.0372   16.3920   -3.9571 H   0  0  0  0  0  0  0  0  0  0  0  0
    1.7050   17.5969   -3.9571 H   0  0  0  0  0  0  0  0  0  0  0  0
   -0.1033   15.4775   -4.0325 H   0  0  0  0  0  0  0  0  0  0  0  0
    1.5973   14.8238   -4.3708 H   0  0  0  0  0  0  0  0  0  0  0  0
   -0.4970   13.6571   -2.5163 H   0  0  0  0  0  0  0  0  0  0  0  0
    0.1690   12.9623   -4.0463 H   0  0  0  0  0  0  0  0  0  0  0  0
    3.6640   12.6156   -2.7584 H   0  0  0  0  0  0  0  0  0  0  0  0
    2.5863   11.8590   -3.9802 H   0  0  0  0  0  0  0  0  0  0  0  0
    2.8344   13.6381   -3.9802 H   0  0  0  0  0  0  0  0  0  0  0  0
  1  2  1  0
  2  3  1  0
  3  4  1  0
  4  5  1  0
  5  6  1  0
  6  7  1  0
  7  8  1  0
  7  9  1  0
  2 10  1  0
 10 11  1  0
 11 12  1  0
 12 13  1  0
 13 14  1  1
 13 15  1  0
 15 16  1  0
 16 17  1  0
 17 18  2  0
 18 19  1  0
 19 20  1  0
 20 21  1  0
 21 22  1  0
 22 23  1  0
 22 24  1  0
 24 25  1  0
 24 26  1  0
 19 27  1  0
 27 28  1  6
 27 29  1  0
 29 30  1  0
 30 31  1  0
 31 32  1  6
  7  5  1  0
 31 10  1  0
 31 13  1  0
 27 15  1  0
 24 18  1  0
  1 33  1  0
  1 34  1  0
  1 35  1  0
  2 36  1  6
  3 37  1  0
  3 38  1  0
  4 39  1  0
  4 40  1  0
  5 41  1  1
  8 42  1  0
  8 43  1  0
  8 44  1  0
  9 45  1  0
  9 46  1  0
  9 47  1  0
 10 48  1  1
 11 49  1  0
 11 50  1  0
 12 51  1  0
 12 52  1  0
 14 53  1  0
 14 54  1  0
 14 55  1  0
 15 56  1  6
 16 57  1  0
 16 58  1  0
 17 59  1  0
 19 60  1  1
 20 61  1  0
 20 62  1  0
 21 63  1  0
 21 64  1  0
 22 65  1  1
 23 66  1  0
 25 67  1  0
 25 68  1  0
 25 69  1  0
 26 70  1  0
 26 71  1  0
 26 72  1  0
 28 73  1  0
 28 74  1  0
 28 75  1  0
 29 76  1  0
 29 77  1  0
 30 78  1  0
 30 79  1  0
 32 80  1  0
 32 81  1  0
 32 82  1  0
M  END
>  <meeko>  (12) 
{"is_sidechain": [false], "intermolecular_energy": 2.731, "internal_energy": -0.839}

$$$$
EPH_relaxed_0001_pdb2pqr_Repair_350_r2_0001_out
     RDKit          3D

 82 86  0  0  0  0  0  0  0  0999 V2000
   -2.2700    7.8620   -2.2060 C   0  0  0  0  0  0  0  0  0  0  0  0
   -2.1650    8.4490   -0.7960 C   0  0  2  0  0  0  0  0  0  0  0  0
   -3.5130    8.4090   -0.0480 C   0  0  0  0  0  0  0  0  0  0  0  0
   -4.7320    8.4990   -0.9710 C   0  0  0  0  0  0  0  0  0  0  0  0
   -5.6030    7.2850   -0.8600 C   0  0  2  0  0  0  0  0  0  0  0  0
   -5.6760    6.4900   -2.0510 O   0  0  0  0  0  0  0  0  0  0  0  0
   -6.9000    7.1120   -1.6280 C   0  0  0  0  0  0  0  0  0  0  0  0
   -7.4000    8.1690   -2.5630 C   0  0  0  0  0  0  0  0  0  0  0  0
   -7.9180    6.1470   -1.1050 C   0  0  0  0  0  0  0  0  0  0  0  0
   -1.6510    9.8820   -0.8660 C   0  0  1  0  0  0  0  0  0  0  0  0
   -1.2170   10.4290    0.5200 C   0  0  0  0  0  0  0  0  0  0  0  0
   -0.0030   11.3620    0.2730 C   0  0  0  0  0  0  0  0  0  0  0  0
    0.0130   11.5820   -1.2580 C   0  0  1  0  0  0  0  0  0  0  0  0
   -1.0530   12.6930   -1.5150 C   0  0  0  0  0  0  0  0  0  0  0  0
    1.3960   11.9520   -1.8880 C   0  0  2  0  0  0  0  0  0  0  0  0
    2.0010   13.2800   -1.3990 C   0  0  0  0  0  0  0  0  0  0  0  0
    1.6300   14.4830   -2.2010 C   0  0  0  0  0  0  0  0  0  0  0  0
    1.0790   14.4660   -3.4290 C   0  0  0  0  0  0  0  0  0  0  0  0
    0.8640   13.1440   -4.1770 C   0  0  1  0  0  0  0  0  0  0  0  0
    1.3570   13.2910   -5.6400 C   0  0  0  0  0  0  0  0  0  0  0  0
    0.7190   14.4770   -6.3560 C   0  0  0  0  0  0  0  0  0  0  0  0
    1.0040   15.7800   -5.6140 C   0  0  2  0  0  0  0  0  0  0  0  0
    2.4060   16.0570   -5.6900 O   0  0  0  0  0  0  0  0  0  0  0  0
    0.5580   15.7470   -4.1250 C   0  0  0  0  0  0  0  0  0  0  0  0
   -0.9880   15.7500   -4.0450 C   0  0  0  0  0  0  0  0  0  0  0  0
    1.0300   17.0660   -3.4560 C   0  0  0  0  0  0  0  0  0  0  0  0
    1.4390   11.8440   -3.4660 C   0  0  1  0  0  0  0  0  0  0  0  0
    2.9350   11.6410   -3.8580 C   0  0  0  0  0  0  0  0  0  0  0  0
    0.6650   10.5810   -4.0000 C   0  0  0  0  0  0  0  0  0  0  0  0
   -0.6310   10.1960   -3.2610 C   0  0  0  0  0  0  0  0  0  0  0  0
   -0.4050   10.1480   -1.7470 C   0  0  2  0  0  0  0  0  0  0  0  0
    0.6470    9.0240   -1.4560 C   0  0  0  0  0  0  0  0  0  0  0  0
   -2.4633    6.7812   -2.1397 H   0  0  0  0  0  0  0  0  0  0  0  0
   -3.0952    8.3497   -2.7457 H   0  0  0  0  0  0  0  0  0  0  0  0
   -1.3269    8.0334   -2.7457 H   0  0  0  0  0  0  0  0  0  0  0  0
   -1.4553    7.8267   -0.2311 H   0  0  0  0  0  0  0  0  0  0  0  0
   -3.5711    7.4645    0.5129 H   0  0  0  0  0  0  0  0  0  0  0  0
   -3.5420    9.2902    0.6098 H   0  0  0  0  0  0  0  0  0  0  0  0
   -5.3213    9.3866   -0.6974 H   0  0  0  0  0  0  0  0  0  0  0  0
   -4.3720    8.5686   -2.0081 H   0  0  0  0  0  0  0  0  0  0  0  0
   -5.3577    7.1778    0.2069 H   0  0  0  0  0  0  0  0  0  0  0  0
   -7.7994    9.0133   -1.9820 H   0  0  0  0  0  0  0  0  0  0  0  0
   -6.5721    8.5192   -3.1970 H   0  0  0  0  0  0  0  0  0  0  0  0
   -8.1959    7.7511   -3.1970 H   0  0  0  0  0  0  0  0  0  0  0  0
   -7.9044    6.1599   -0.0052 H   0  0  0  0  0  0  0  0  0  0  0  0
   -8.9167    6.4378   -1.4628 H   0  0  0  0  0  0  0  0  0  0  0  0
   -7.6809    5.1342   -1.4628 H   0  0  0  0  0  0  0  0  0  0  0  0
   -2.5327   10.3733   -1.3032 H   0  0  0  0  0  0  0  0  0  0  0  0
   -2.0415   10.9939    0.9793 H   0  0  0  0  0  0  0  0  0  0  0  0
   -0.9518    9.6084    1.2029 H   0  0  0  0  0  0  0  0  0  0  0  0
   -0.1336   12.3178    0.8016 H   0  0  0  0  0  0  0  0  0  0  0  0
    0.9384   10.9294    0.6427 H   0  0  0  0  0  0  0  0  0  0  0  0
   -1.4216   13.0772   -0.5524 H   0  0  0  0  0  0  0  0  0  0  0  0
   -0.5962   13.5142   -2.0868 H   0  0  0  0  0  0  0  0  0  0  0  0
   -1.8924   12.2705   -2.0868 H   0  0  0  0  0  0  0  0  0  0  0  0
    2.0530   11.1617   -1.4960 H   0  0  0  0  0  0  0  0  0  0  0  0
    1.6668   13.4451   -0.3641 H   0  0  0  0  0  0  0  0  0  0  0  0
    3.0913   13.1725   -1.4980 H   0  0  0  0  0  0  0  0  0  0  0  0
    1.8234   15.4675   -1.7500 H   0  0  0  0  0  0  0  0  0  0  0  0
   -0.2206   12.9606   -4.1658 H   0  0  0  0  0  0  0  0  0  0  0  0
    2.4482   13.4294   -5.6321 H   0  0  0  0  0  0  0  0  0  0  0  0
    1.0684   12.3788   -6.1828 H   0  0  0  0  0  0  0  0  0  0  0  0
    1.1290   14.5456   -7.3744 H   0  0  0  0  0  0  0  0  0  0  0  0
   -0.3696   14.3228   -6.3891 H   0  0  0  0  0  0  0  0  0  0  0  0
    0.4158   16.5720   -6.1005 H   0  0  0  0  0  0  0  0  0  0  0  0
    2.5300   16.7670   -6.3430 H   0  0  0  0  0  0  0  0  0  0  0  0
   -1.3006   15.7506   -2.9903 H   0  0  0  0  0  0  0  0  0  0  0  0
   -1.3792   16.6489   -4.5439 H   0  0  0  0  0  0  0  0  0  0  0  0
   -1.3827   14.8526   -4.5439 H   0  0  0  0  0  0  0  0  0  0  0  0
    0.9909   16.9567   -2.3621 H   0  0  0  0  0  0  0  0  0  0  0  0
    2.0624   17.2853   -3.7659 H   0  0  0  0  0  0  0  0  0  0  0  0
    0.3711   17.8905   -3.7659 H   0  0  0  0  0  0  0  0  0  0  0  0
    3.5449   11.5582   -2.9463 H   0  0  0  0  0  0  0  0  0  0  0  0
    3.0368   10.7208   -4.4521 H   0  0  0  0  0  0  0  0  0  0  0  0
    3.2783   12.5008   -4.4521 H   0  0  0  0  0  0  0  0  0  0  0  0
    0.4045   10.7706   -5.0517 H   0  0  0  0  0  0  0  0  0  0  0  0
    1.3496    9.7351   -3.8396 H   0  0  0  0  0  0  0  0  0  0  0  0
   -1.4082   10.9414   -3.4854 H   0  0  0  0  0  0  0  0  0  0  0  0
   -0.9452    9.1980   -3.6006 H   0  0  0  0  0  0  0  0  0  0  0  0
    0.7616    8.9016   -0.3689 H   0  0  0  0  0  0  0  0  0  0  0  0
    0.3033    8.0769   -1.8974 H   0  0  0  0  0  0  0  0  0  0  0  0
    1.6148    9.3044   -1.8974 H   0  0  0  0  0  0  0  0  0  0  0  0
  1  2  1  0
  2  3  1  0
  3  4  1  0
  4  5  1  0
  5  6  1  0
  6  7  1  0
  7  8  1  0
  7  9  1  0
  2 10  1  0
 10 11  1  0
 11 12  1  0
 12 13  1  0
 13 14  1  1
 13 15  1  0
 15 16  1  0
 16 17  1  0
 17 18  2  0
 18 19  1  0
 19 20  1  0
 20 21  1  0
 21 22  1  0
 22 23  1  0
 22 24  1  0
 24 25  1  0
 24 26  1  0
 19 27  1  0
 27 28  1  6
 27 29  1  0
 29 30  1  0
 30 31  1  0
 31 32  1  6
  7  5  1  0
 31 10  1  0
 31 13  1  0
 27 15  1  0
 24 18  1  0
  1 33  1  0
  1 34  1  0
  1 35  1  0
  2 36  1  1
  3 37  1  0
  3 38  1  0
  4 39  1  0
  4 40  1  0
  5 41  1  1
  8 42  1  0
  8 43  1  0
  8 44  1  0
  9 45  1  0
  9 46  1  0
  9 47  1  0
 10 48  1  6
 11 49  1  0
 11 50  1  0
 12 51  1  0
 12 52  1  0
 14 53  1  0
 14 54  1  0
 14 55  1  0
 15 56  1  1
 16 57  1  0
 16 58  1  0
 17 59  1  0
 19 60  1  6
 20 61  1  0
 20 62  1  0
 21 63  1  0
 21 64  1  0
 22 65  1  6
 23 66  1  0
 25 67  1  0
 25 68  1  0
 25 69  1  0
 26 70  1  0
 26 71  1  0
 26 72  1  0
 28 73  1  0
 28 74  1  0
 28 75  1  0
 29 76  1  0
 29 77  1  0
 30 78  1  0
 30 79  1  0
 32 80  1  0
 32 81  1  0
 32 82  1  0
M  END
>  <meeko>  (13) 
{"is_sidechain": [false], "intermolecular_energy": 2.731, "internal_energy": -0.839}

$$$$
EPH_relaxed_0001_pdb2pqr_Repair_350_r2_0001_out
     RDKit          3D

 82 86  0  0  0  0  0  0  0  0999 V2000
   -0.2920   18.7630   -2.4750 C   0  0  0  0  0  0  0  0  0  0  0  0
    0.2360   17.9190   -1.3110 C   0  0  2  0  0  0  0  0  0  0  0  0
    1.4970   18.5330   -0.6730 C   0  0  0  0  0  0  0  0  0  0  0  0
    1.1990   19.4740    0.4970 C   0  0  0  0  0  0  0  0  0  0  0  0
    2.3930   19.6470    1.3880 C   0  0  2  0  0  0  0  0  0  0  0  0
    3.5490   20.1940    0.7390 O   0  0  0  0  0  0  0  0  0  0  0  0
    3.6740   18.8500    1.2330 C   0  0  0  0  0  0  0  0  0  0  0  0
    3.8270   17.8190    0.1590 C   0  0  0  0  0  0  0  0  0  0  0  0
    4.5860   18.7250    2.4140 C   0  0  0  0  0  0  0  0  0  0  0  0
    0.5310   16.5020   -1.7890 C   0  0  1  0  0  0  0  0  0  0  0  0
    1.8170   16.4190   -2.6550 C   0  0  0  0  0  0  0  0  0  0  0  0
    2.4820   15.0550   -2.3390 C   0  0  0  0  0  0  0  0  0  0  0  0
    1.4010   14.2640   -1.5650 C   0  0  1  0  0  0  0  0  0  0  0  0
    0.4580   13.6910   -2.6690 C   0  0  0  0  0  0  0  0  0  0  0  0
    1.9190   13.1420   -0.6080 C   0  0  2  0  0  0  0  0  0  0  0  0
    2.6780   11.9940   -1.2980 C   0  0  0  0  0  0  0  0  0  0  0  0
    1.8330   10.8430   -1.7340 C   0  0  0  0  0  0  0  0  0  0  0  0
    0.5720   10.6010   -1.3310 C   0  0  0  0  0  0  0  0  0  0  0  0
   -0.0970   11.4810   -0.2660 C   0  0  1  0  0  0  0  0  0  0  0  0
   -0.7940   10.5800    0.7870 C   0  0  0  0  0  0  0  0  0  0  0  0
   -1.7650    9.5870    0.1560 C   0  0  0  0  0  0  0  0  0  0  0  0
   -1.0510    8.6920   -0.8530 C   0  0  2  0  0  0  0  0  0  0  0  0
   -0.1240    7.8560   -0.1530 O   0  0  0  0  0  0  0  0  0  0  0  0
   -0.3040    9.4890   -1.9590 C   0  0  0  0  0  0  0  0  0  0  0  0
   -1.3330   10.1560   -2.9050 C   0  0  0  0  0  0  0  0  0  0  0  0
    0.4890    8.4740   -2.8260 C   0  0  0  0  0  0  0  0  0  0  0  0
    0.8270   12.5910    0.3960 C   0  0  1  0  0  0  0  0  0  0  0  0
    1.6010   11.9860    1.6070 C   0  0  0  0  0  0  0  0  0  0  0  0
   -0.0830   13.7370    0.9780 C   0  0  0  0  0  0  0  0  0  0  0  0
   -0.4620   14.8790    0.0150 C   0  0  0  0  0  0  0  0  0  0  0  0
    0.7760   15.4220   -0.7060 C   0  0  2  0  0  0  0  0  0  0  0  0
    1.7340   16.0260    0.3770 C   0  0  0  0  0  0  0  0  0  0  0  0
   -0.8364   19.6332   -2.0796 H   0  0  0  0  0  0  0  0  0  0  0  0
    0.5520   19.1073   -3.0907 H   0  0  0  0  0  0  0  0  0  0  0  0
   -0.9708   18.1546   -3.0907 H   0  0  0  0  0  0  0  0  0  0  0  0
   -0.5462   17.8957   -0.5379 H   0  0  0  0  0  0  0  0  0  0  0  0
    2.1345   17.7147   -0.3068 H   0  0  0  0  0  0  0  0  0  0  0  0
    1.9907   19.1339   -1.4510 H   0  0  0  0  0  0  0  0  0  0  0  0
    0.9063   20.4566    0.0985 H   0  0  0  0  0  0  0  0  0  0  0  0
    0.3871   19.0327    1.0937 H   0  0  0  0  0  0  0  0  0  0  0  0
    1.7470   19.8431    2.2564 H   0  0  0  0  0  0  0  0  0  0  0  0
    3.9737   16.8302    0.6181 H   0  0  0  0  0  0  0  0  0  0  0  0
    2.9214   17.8027   -0.4653 H   0  0  0  0  0  0  0  0  0  0  0  0
    4.6983   18.0663   -0.4653 H   0  0  0  0  0  0  0  0  0  0  0  0
    3.9989   18.8055    3.3408 H   0  0  0  0  0  0  0  0  0  0  0  0
    5.0926   17.7490    2.3844 H   0  0  0  0  0  0  0  0  0  0  0  0
    5.3365   19.5287    2.3844 H   0  0  0  0  0  0  0  0  0  0  0  0
   -0.4053   16.2907   -2.3263 H   0  0  0  0  0  0  0  0  0  0  0  0
    1.5589   16.4762   -3.7228 H   0  0  0  0  0  0  0  0  0  0  0  0
    2.4990   17.2523   -2.4301 H   0  0  0  0  0  0  0  0  0  0  0  0
    2.7558   14.5321   -3.2672 H   0  0  0  0  0  0  0  0  0  0  0  0
    3.4108   15.1677   -1.7605 H   0  0  0  0  0  0  0  0  0  0  0  0
   -0.3904   13.1755   -2.1952 H   0  0  0  0  0  0  0  0  0  0  0  0
    0.0835   14.5144   -3.2949 H   0  0  0  0  0  0  0  0  0  0  0  0
    1.0163   12.9793   -3.2949 H   0  0  0  0  0  0  0  0  0  0  0  0
    2.6681   13.6751   -0.0041 H   0  0  0  0  0  0  0  0  0  0  0  0
    3.1792   12.4039   -2.1872 H   0  0  0  0  0  0  0  0  0  0  0  0
    3.3737   11.5935   -0.5459 H   0  0  0  0  0  0  0  0  0  0  0  0
    2.2791   10.1322   -2.4452 H   0  0  0  0  0  0  0  0  0  0  0  0
   -0.8485   12.0835   -0.7973 H   0  0  0  0  0  0  0  0  0  0  0  0
   -0.0236   10.0192    1.3366 H   0  0  0  0  0  0  0  0  0  0  0  0
   -1.3728   11.2341    1.4557 H   0  0  0  0  0  0  0  0  0  0  0  0
   -2.2031    8.9600    0.9466 H   0  0  0  0  0  0  0  0  0  0  0  0
   -2.5512   10.1498   -0.3686 H   0  0  0  0  0  0  0  0  0  0  0  0
   -1.8193    8.0928   -1.3635 H   0  0  0  0  0  0  0  0  0  0  0  0
   -0.4310    7.7820    0.7660 H   0  0  0  0  0  0  0  0  0  0  0  0
   -2.1082   10.6585   -2.3078 H   0  0  0  0  0  0  0  0  0  0  0  0
   -0.8223   10.8953   -3.5395 H   0  0  0  0  0  0  0  0  0  0  0  0
   -1.7994    9.3880   -3.5395 H   0  0  0  0  0  0  0  0  0  0  0  0
    1.0328    7.7780   -2.1704 H   0  0  0  0  0  0  0  0  0  0  0  0
   -0.2097    7.9095   -3.4609 H   0  0  0  0  0  0  0  0  0  0  0  0
    1.2058    9.0154   -3.4609 H   0  0  0  0  0  0  0  0  0  0  0  0
    1.1484   12.3397    2.5451 H   0  0  0  0  0  0  0  0  0  0  0  0
    1.5472   10.8881    1.5651 H   0  0  0  0  0  0  0  0  0  0  0  0
    2.6534   12.3034    1.5651 H   0  0  0  0  0  0  0  0  0  0  0  0
   -1.0169   13.2743    1.3297 H   0  0  0  0  0  0  0  0  0  0  0  0
    0.5204   14.2123    1.7654 H   0  0  0  0  0  0  0  0  0  0  0  0
   -1.1751   14.4987   -0.7312 H   0  0  0  0  0  0  0  0  0  0  0  0
   -0.9138   15.6946    0.5987 H   0  0  0  0  0  0  0  0  0  0  0  0
    1.3518   15.7851    1.3799 H   0  0  0  0  0  0  0  0  0  0  0  0
    2.7403   15.5987    0.2556 H   0  0  0  0  0  0  0  0  0  0  0  0
    1.7823   17.1182    0.2556 H   0  0  0  0  0  0  0  0  0  0  0  0
  1  2  1  0
  2  3  1  0
  3  4  1  0
  4  5  1  0
  5  6  1  0
  6  7  1  0
  7  8  1  0
  7  9  1  0
  2 10  1  0
 10 11  1  0
 11 12  1  0
 12 13  1  0
 13 14  1  6
 13 15  1  0
 15 16  1  0
 16 17  1  0
 17 18  2  0
 18 19  1  0
 19 20  1  0
 20 21  1  0
 21 22  1  0
 22 23  1  0
 22 24  1  0
 24 25  1  0
 24 26  1  0
 19 27  1  0
 27 28  1  1
 27 29  1  0
 29 30  1  0
 30 31  1  0
 31 32  1  1
  7  5  1  0
 31 10  1  0
 31 13  1  0
 27 15  1  0
 24 18  1  0
  1 33  1  0
  1 34  1  0
  1 35  1  0
  2 36  1  1
  3 37  1  0
  3 38  1  0
  4 39  1  0
  4 40  1  0
  5 41  1  1
  8 42  1  0
  8 43  1  0
  8 44  1  0
  9 45  1  0
  9 46  1  0
  9 47  1  0
 10 48  1  6
 11 49  1  0
 11 50  1  0
 12 51  1  0
 12 52  1  0
 14 53  1  0
 14 54  1  0
 14 55  1  0
 15 56  1  1
 16 57  1  0
 16 58  1  0
 17 59  1  0
 19 60  1  6
 20 61  1  0
 20 62  1  0
 21 63  1  0
 21 64  1  0
 22 65  1  6
 23 66  1  0
 25 67  1  0
 25 68  1  0
 25 69  1  0
 26 70  1  0
 26 71  1  0
 26 72  1  0
 28 73  1  0
 28 74  1  0
 28 75  1  0
 29 76  1  0
 29 77  1  0
 30 78  1  0
 30 79  1  0
 32 80  1  0
 32 81  1  0
 32 82  1  0
M  END
>  <meeko>  (14) 
{"is_sidechain": [false], "intermolecular_energy": 2.731, "internal_energy": -0.839}

$$$$
EPH_relaxed_0001_pdb2pqr_Repair_350_r2_0001_out
     RDKit          3D

 82 86  0  0  0  0  0  0  0  0999 V2000
   -4.1500    7.3280   -3.7180 C   0  0  0  0  0  0  0  0  0  0  0  0
   -3.7110    7.1960   -2.2570 C   0  0  2  0  0  0  0  0  0  0  0  0
   -4.8400    6.6520   -1.3580 C   0  0  0  0  0  0  0  0  0  0  0  0
   -6.1340    6.3410   -2.1160 C   0  0  0  0  0  0  0  0  0  0  0  0
   -7.3080    6.2420   -1.1910 C   0  0  2  0  0  0  0  0  0  0  0  0
   -8.4530    5.5790   -1.7440 O   0  0  0  0  0  0  0  0  0  0  0  0
   -8.6190    6.9700   -1.4230 C   0  0  0  0  0  0  0  0  0  0  0  0
   -8.8230    7.8500   -2.6160 C   0  0  0  0  0  0  0  0  0  0  0  0
   -9.5190    7.2140   -0.2510 C   0  0  0  0  0  0  0  0  0  0  0  0
   -3.2330    8.5450   -1.7330 C   0  0  1  0  0  0  0  0  0  0  0  0
   -3.9640    8.9750   -0.4330 C   0  0  0  0  0  0  0  0  0  0  0  0
   -2.9280    9.7380    0.4310 C   0  0  0  0  0  0  0  0  0  0  0  0
   -1.7460   10.0120   -0.5290 C   0  0  1  0  0  0  0  0  0  0  0  0
   -2.1770   11.2690   -1.3480 C   0  0  0  0  0  0  0  0  0  0  0  0
   -0.3460   10.2100    0.1390 C   0  0  2  0  0  0  0  0  0  0  0  0
   -0.2380   11.4220    1.0810 C   0  0  0  0  0  0  0  0  0  0  0  0
    0.2020   12.6940    0.4360 C   0  0  0  0  0  0  0  0  0  0  0  0
    0.7700   12.8000   -0.7790 C   0  0  0  0  0  0  0  0  0  0  0  0
    1.1120   11.5490   -1.6000 C   0  0  1  0  0  0  0  0  0  0  0  0
    2.5490   11.6810   -2.1690 C   0  0  0  0  0  0  0  0  0  0  0  0
    2.7490   12.9710   -2.9590 C   0  0  0  0  0  0  0  0  0  0  0  0
    2.4550   14.1930   -2.0930 C   0  0  2  0  0  0  0  0  0  0  0  0
    3.4440   14.2750   -1.0620 O   0  0  0  0  0  0  0  0  0  0  0  0
    1.0370   14.1660   -1.4570 C   0  0  0  0  0  0  0  0  0  0  0  0
   -0.0310   14.3800   -2.5580 C   0  0  0  0  0  0  0  0  0  0  0  0
    0.9220   15.3810   -0.4970 C   0  0  0  0  0  0  0  0  0  0  0  0
    0.8690   10.1560   -0.8740 C   0  0  1  0  0  0  0  0  0  0  0  0
    2.1270    9.7630   -0.0410 C   0  0  0  0  0  0  0  0  0  0  0  0
    0.6890    9.0340   -1.9640 C   0  0  0  0  0  0  0  0  0  0  0  0
   -0.7380    8.8050   -2.4970 C   0  0  0  0  0  0  0  0  0  0  0  0
   -1.7380    8.6690   -1.3450 C   0  0  2  0  0  0  0  0  0  0  0  0
   -1.3430    7.3990   -0.5160 C   0  0  0  0  0  0  0  0  0  0  0  0
   -5.2027    7.6445   -3.7574 H   0  0  0  0  0  0  0  0  0  0  0  0
   -3.5227    8.0772   -4.2231 H   0  0  0  0  0  0  0  0  0  0  0  0
   -4.0399    6.3570   -4.2231 H   0  0  0  0  0  0  0  0  0  0  0  0
   -2.8845    6.4709   -2.2248 H   0  0  0  0  0  0  0  0  0  0  0  0
   -4.4872    5.7269   -0.8788 H   0  0  0  0  0  0  0  0  0  0  0  0
   -5.0766    7.4391   -0.6269 H   0  0  0  0  0  0  0  0  0  0  0  0
   -6.3214    7.1429   -2.8453 H   0  0  0  0  0  0  0  0  0  0  0  0
   -6.0116    5.3707   -2.6196 H   0  0  0  0  0  0  0  0  0  0  0  0
   -6.6435    6.1788   -0.3167 H   0  0  0  0  0  0  0  0  0  0  0  0
   -9.0597    8.8711   -2.2823 H   0  0  0  0  0  0  0  0  0  0  0  0
   -7.9047    7.8657   -3.2214 H   0  0  0  0  0  0  0  0  0  0  0  0
   -9.6546    7.4601   -3.2214 H   0  0  0  0  0  0  0  0  0  0  0  0
   -8.9561    7.0614    0.6816 H   0  0  0  0  0  0  0  0  0  0  0  0
   -9.8960    8.2468   -0.2869 H   0  0  0  0  0  0  0  0  0  0  0  0
  -10.3660    6.5131   -0.2869 H   0  0  0  0  0  0  0  0  0  0  0  0
   -3.4462    9.1695   -2.6131 H   0  0  0  0  0  0  0  0  0  0  0  0
   -4.8125    9.6318   -0.6751 H   0  0  0  0  0  0  0  0  0  0  0  0
   -4.3599    8.1011    0.1050 H   0  0  0  0  0  0  0  0  0  0  0  0
   -3.3527   10.6819    0.8034 H   0  0  0  0  0  0  0  0  0  0  0  0
   -2.6209    9.1644    1.3179 H   0  0  0  0  0  0  0  0  0  0  0  0
   -2.4547   12.0790   -0.6575 H   0  0  0  0  0  0  0  0  0  0  0  0
   -1.3404   11.5982   -1.9818 H   0  0  0  0  0  0  0  0  0  0  0  0
   -3.0396   11.0156   -1.9818 H   0  0  0  0  0  0  0  0  0  0  0  0
   -0.2646    9.3222    0.7834 H   0  0  0  0  0  0  0  0  0  0  0  0
   -1.2277   11.5931    1.5295 H   0  0  0  0  0  0  0  0  0  0  0  0
    0.5407   11.1681    1.8152 H   0  0  0  0  0  0  0  0  0  0  0  0
    0.0488   13.6244    1.0025 H   0  0  0  0  0  0  0  0  0  0  0  0
    0.3850   11.5176   -2.4249 H   0  0  0  0  0  0  0  0  0  0  0  0
    3.2625   11.6659   -1.3319 H   0  0  0  0  0  0  0  0  0  0  0  0
    2.7144   10.8389   -2.8571 H   0  0  0  0  0  0  0  0  0  0  0  0
    3.7905   13.0205   -3.3095 H   0  0  0  0  0  0  0  0  0  0  0  0
    2.0551   12.9708   -3.8125 H   0  0  0  0  0  0  0  0  0  0  0  0
    2.4882   15.0772   -2.7466 H   0  0  0  0  0  0  0  0  0  0  0  0
    4.2400   14.6760   -1.4490 H   0  0  0  0  0  0  0  0  0  0  0  0
   -1.0067   14.5755   -2.0893 H   0  0  0  0  0  0  0  0  0  0  0  0
    0.2541   15.2389   -3.1834 H   0  0  0  0  0  0  0  0  0  0  0  0
   -0.0989   13.4776   -3.1834 H   0  0  0  0  0  0  0  0  0  0  0  0
    0.9553   15.0296    0.5448 H   0  0  0  0  0  0  0  0  0  0  0  0
    1.7588   16.0717   -0.6779 H   0  0  0  0  0  0  0  0  0  0  0  0
   -0.0295   15.9024   -0.6779 H   0  0  0  0  0  0  0  0  0  0  0  0
    1.8940    9.8358    1.0316 H   0  0  0  0  0  0  0  0  0  0  0  0
    2.4195    8.7307   -0.2834 H   0  0  0  0  0  0  0  0  0  0  0  0
    2.9551   10.4453   -0.2834 H   0  0  0  0  0  0  0  0  0  0  0  0
    1.3259    9.2978   -2.8212 H   0  0  0  0  0  0  0  0  0  0  0  0
    0.9611    8.0957   -1.4584 H   0  0  0  0  0  0  0  0  0  0  0  0
   -1.0283    9.6590   -3.1267 H   0  0  0  0  0  0  0  0  0  0  0  0
   -0.7486    7.8738   -3.0825 H   0  0  0  0  0  0  0  0  0  0  0  0
   -1.4135    7.6257    0.5581 H   0  0  0  0  0  0  0  0  0  0  0  0
   -2.0267    6.5732   -0.7621 H   0  0  0  0  0  0  0  0  0  0  0  0
   -0.3115    7.1067   -0.7621 H   0  0  0  0  0  0  0  0  0  0  0  0
  1  2  1  0
  2  3  1  0
  3  4  1  0
  4  5  1  0
  5  6  1  0
  6  7  1  0
  7  8  1  0
  7  9  1  0
  2 10  1  0
 10 11  1  0
 11 12  1  0
 12 13  1  0
 13 14  1  6
 13 15  1  0
 15 16  1  0
 16 17  1  0
 17 18  2  0
 18 19  1  0
 19 20  1  0
 20 21  1  0
 21 22  1  0
 22 23  1  0
 22 24  1  0
 24 25  1  0
 24 26  1  0
 19 27  1  0
 27 28  1  1
 27 29  1  0
 29 30  1  0
 30 31  1  0
 31 32  1  1
  7  5  1  0
 31 10  1  0
 31 13  1  0
 27 15  1  0
 24 18  1  0
  1 33  1  0
  1 34  1  0
  1 35  1  0
  2 36  1  6
  3 37  1  0
  3 38  1  0
  4 39  1  0
  4 40  1  0
  5 41  1  1
  8 42  1  0
  8 43  1  0
  8 44  1  0
  9 45  1  0
  9 46  1  0
  9 47  1  0
 10 48  1  6
 11 49  1  0
 11 50  1  0
 12 51  1  0
 12 52  1  0
 14 53  1  0
 14 54  1  0
 14 55  1  0
 15 56  1  1
 16 57  1  0
 16 58  1  0
 17 59  1  0
 19 60  1  6
 20 61  1  0
 20 62  1  0
 21 63  1  0
 21 64  1  0
 22 65  1  6
 23 66  1  0
 25 67  1  0
 25 68  1  0
 25 69  1  0
 26 70  1  0
 26 71  1  0
 26 72  1  0
 28 73  1  0
 28 74  1  0
 28 75  1  0
 29 76  1  0
 29 77  1  0
 30 78  1  0
 30 79  1  0
 32 80  1  0
 32 81  1  0
 32 82  1  0
M  END
>  <meeko>  (15) 
{"is_sidechain": [false], "intermolecular_energy": 2.731, "internal_energy": -0.839}

$$$$
EPH_relaxed_0001_pdb2pqr_Repair_350_r2_0001_out
     RDKit          3D

 82 86  0  0  0  0  0  0  0  0999 V2000
    2.1370   10.9260   -5.1660 C   0  0  0  0  0  0  0  0  0  0  0  0
    1.4720   10.8220   -3.7910 C   0  0  2  0  0  0  0  0  0  0  0  0
    0.3230    9.7930   -3.7780 C   0  0  0  0  0  0  0  0  0  0  0  0
    0.1910    9.0350   -2.4550 C   0  0  0  0  0  0  0  0  0  0  0  0
   -1.2390    8.9230   -2.0200 C   0  0  2  0  0  0  0  0  0  0  0  0
   -1.9160   10.1760   -1.8620 O   0  0  0  0  0  0  0  0  0  0  0  0
   -1.7420    9.3950   -0.6690 C   0  0  0  0  0  0  0  0  0  0  0  0
   -0.8200   10.0140    0.3340 C   0  0  0  0  0  0  0  0  0  0  0  0
   -3.0150    8.8150   -0.1360 C   0  0  0  0  0  0  0  0  0  0  0  0
    0.9510   12.1890   -3.3610 C   0  0  1  0  0  0  0  0  0  0  0  0
   -0.5780   12.1890   -3.0950 C   0  0  0  0  0  0  0  0  0  0  0  0
   -0.8270   13.1730   -1.9230 C   0  0  0  0  0  0  0  0  0  0  0  0
    0.5030   13.9480   -1.7740 C   0  0  1  0  0  0  0  0  0  0  0  0
    0.4490   15.0520   -2.8770 C   0  0  0  0  0  0  0  0  0  0  0  0
    0.7940   14.5560   -0.3640 C   0  0  2  0  0  0  0  0  0  0  0  0
   -0.2130   15.6180    0.1100 C   0  0  0  0  0  0  0  0  0  0  0  0
    0.1250   17.0260   -0.2560 C   0  0  0  0  0  0  0  0  0  0  0  0
    1.3260   17.4550   -0.6860 C   0  0  0  0  0  0  0  0  0  0  0  0
    2.5270   16.5030   -0.7480 C   0  0  1  0  0  0  0  0  0  0  0  0
    3.7690   17.1960   -0.1280 C   0  0  0  0  0  0  0  0  0  0  0  0
    4.0640   18.5490   -0.7660 C   0  0  0  0  0  0  0  0  0  0  0  0
    2.8670   19.4870   -0.6330 C   0  0  2  0  0  0  0  0  0  0  0  0
    2.6800   19.8030    0.7500 O   0  0  0  0  0  0  0  0  0  0  0  0
    1.5550   18.8920   -1.2160 C   0  0  0  0  0  0  0  0  0  0  0  0
    1.6510   18.8320   -2.7600 C   0  0  0  0  0  0  0  0  0  0  0  0
    0.3990   19.8770   -0.8910 C   0  0  0  0  0  0  0  0  0  0  0  0
    2.2860   15.0450   -0.1640 C   0  0  1  0  0  0  0  0  0  0  0  0
    2.5560   15.0350    1.3710 C   0  0  0  0  0  0  0  0  0  0  0  0
    3.3300   14.0560   -0.8050 C   0  0  0  0  0  0  0  0  0  0  0  0
    2.9330   13.3950   -2.1390 C   0  0  0  0  0  0  0  0  0  0  0  0
    1.5290   12.7910   -2.0550 C   0  0  2  0  0  0  0  0  0  0  0  0
    1.5570   11.6620   -0.9690 C   0  0  0  0  0  0  0  0  0  0  0  0
    3.2166   11.0948   -5.0394 H   0  0  0  0  0  0  0  0  0  0  0  0
    1.9749    9.9916   -5.7233 H   0  0  0  0  0  0  0  0  0  0  0  0
    1.6974   11.7663   -5.7233 H   0  0  0  0  0  0  0  0  0  0  0  0
    2.2354   10.4740   -3.0796 H   0  0  0  0  0  0  0  0  0  0  0  0
   -0.6210   10.3241   -3.9696 H   0  0  0  0  0  0  0  0  0  0  0  0
    0.5502    9.0476   -4.5543 H   0  0  0  0  0  0  0  0  0  0  0  0
    0.6055    8.0239   -2.5807 H   0  0  0  0  0  0  0  0  0  0  0  0
    0.7411    9.5938   -1.6835 H   0  0  0  0  0  0  0  0  0  0  0  0
   -1.3524    7.9699   -2.5574 H   0  0  0  0  0  0  0  0  0  0  0  0
   -1.1712    9.7782    1.3494 H   0  0  0  0  0  0  0  0  0  0  0  0
    0.1951    9.6137    0.1949 H   0  0  0  0  0  0  0  0  0  0  0  0
   -0.8061   11.1051    0.1949 H   0  0  0  0  0  0  0  0  0  0  0  0
   -2.9908    8.8260    0.9637 H   0  0  0  0  0  0  0  0  0  0  0  0
   -3.8672    9.4137   -0.4900 H   0  0  0  0  0  0  0  0  0  0  0  0
   -3.1224    7.7791   -0.4900 H   0  0  0  0  0  0  0  0  0  0  0  0
    1.2706   12.7892   -4.2257 H   0  0  0  0  0  0  0  0  0  0  0  0
   -1.1188   12.5239   -3.9924 H   0  0  0  0  0  0  0  0  0  0  0  0
   -0.9361   11.1791   -2.8462 H   0  0  0  0  0  0  0  0  0  0  0  0
   -1.6521   13.8602   -2.1617 H   0  0  0  0  0  0  0  0  0  0  0  0
   -1.1130   12.6538   -0.9964 H   0  0  0  0  0  0  0  0  0  0  0  0
    0.4005   16.0429   -2.4019 H   0  0  0  0  0  0  0  0  0  0  0  0
    1.3513   14.9893   -3.5031 H   0  0  0  0  0  0  0  0  0  0  0  0
   -0.4429   14.9015   -3.5031 H   0  0  0  0  0  0  0  0  0  0  0  0
    0.6495   13.6905    0.2994 H   0  0  0  0  0  0  0  0  0  0  0  0
   -1.1922   15.3782   -0.3300 H   0  0  0  0  0  0  0  0  0  0  0  0
   -0.2022   15.5784    1.2092 H   0  0  0  0  0  0  0  0  0  0  0  0
   -0.6751   17.7756   -0.1666 H   0  0  0  0  0  0  0  0  0  0  0  0
    2.7044   16.3050   -1.8154 H   0  0  0  0  0  0  0  0  0  0  0  0
    3.5896   17.3449    0.9470 H   0  0  0  0  0  0  0  0  0  0  0  0
    4.6380   16.5460   -0.3077 H   0  0  0  0  0  0  0  0  0  0  0  0
    4.9331   19.0011   -0.2658 H   0  0  0  0  0  0  0  0  0  0  0  0
    4.2727   18.3953   -1.8350 H   0  0  0  0  0  0  0  0  0  0  0  0
    3.0890   20.3906   -1.2198 H   0  0  0  0  0  0  0  0  0  0  0  0
    3.3810   20.4260    1.0070 H   0  0  0  0  0  0  0  0  0  0  0  0
    2.5508   18.2696   -3.0498 H   0  0  0  0  0  0  0  0  0  0  0  0
    0.7592   18.3303   -3.1636 H   0  0  0  0  0  0  0  0  0  0  0  0
    1.7112   19.8535   -3.1636 H   0  0  0  0  0  0  0  0  0  0  0  0
    0.2913   19.9688    0.1999 H   0  0  0  0  0  0  0  0  0  0  0  0
    0.6260   20.8636   -1.3213 H   0  0  0  0  0  0  0  0  0  0  0  0
   -0.5390   19.4963   -1.3213 H   0  0  0  0  0  0  0  0  0  0  0  0
    1.5988   15.0705    1.9119 H   0  0  0  0  0  0  0  0  0  0  0  0
    3.0966   14.1162    1.6422 H   0  0  0  0  0  0  0  0  0  0  0  0
    3.1631   15.9113    1.6422 H   0  0  0  0  0  0  0  0  0  0  0  0
    4.2596   14.6186   -0.9761 H   0  0  0  0  0  0  0  0  0  0  0  0
    3.4183   13.2265   -0.0880 H   0  0  0  0  0  0  0  0  0  0  0  0
    2.9514   14.1532   -2.9357 H   0  0  0  0  0  0  0  0  0  0  0  0
    3.6489   12.5890   -2.3577 H   0  0  0  0  0  0  0  0  0  0  0  0
    1.5457   12.1164    0.0327 H   0  0  0  0  0  0  0  0  0  0  0  0
    0.6746   11.0162   -1.0886 H   0  0  0  0  0  0  0  0  0  0  0  0
    2.4703   11.0607   -1.0886 H   0  0  0  0  0  0  0  0  0  0  0  0
  1  2  1  0
  2  3  1  0
  3  4  1  0
  4  5  1  0
  5  6  1  0
  6  7  1  0
  7  8  1  0
  7  9  1  0
  2 10  1  0
 10 11  1  0
 11 12  1  0
 12 13  1  0
 13 14  1  6
 13 15  1  0
 15 16  1  0
 16 17  1  0
 17 18  2  0
 18 19  1  0
 19 20  1  0
 20 21  1  0
 21 22  1  0
 22 23  1  0
 22 24  1  0
 24 25  1  0
 24 26  1  0
 19 27  1  0
 27 28  1  1
 27 29  1  0
 29 30  1  0
 30 31  1  0
 31 32  1  1
  7  5  1  0
 31 10  1  0
 31 13  1  0
 27 15  1  0
 24 18  1  0
  1 33  1  0
  1 34  1  0
  1 35  1  0
  2 36  1  1
  3 37  1  0
  3 38  1  0
  4 39  1  0
  4 40  1  0
  5 41  1  6
  8 42  1  0
  8 43  1  0
  8 44  1  0
  9 45  1  0
  9 46  1  0
  9 47  1  0
 10 48  1  6
 11 49  1  0
 11 50  1  0
 12 51  1  0
 12 52  1  0
 14 53  1  0
 14 54  1  0
 14 55  1  0
 15 56  1  1
 16 57  1  0
 16 58  1  0
 17 59  1  0
 19 60  1  6
 20 61  1  0
 20 62  1  0
 21 63  1  0
 21 64  1  0
 22 65  1  6
 23 66  1  0
 25 67  1  0
 25 68  1  0
 25 69  1  0
 26 70  1  0
 26 71  1  0
 26 72  1  0
 28 73  1  0
 28 74  1  0
 28 75  1  0
 29 76  1  0
 29 77  1  0
 30 78  1  0
 30 79  1  0
 32 80  1  0
 32 81  1  0
 32 82  1  0
M  END
>  <meeko>  (16) 
{"is_sidechain": [false], "intermolecular_energy": 2.731, "internal_energy": -0.839}

$$$$
EPH_relaxed_0001_pdb2pqr_Repair_350_r2_0001_out
     RDKit          3D

 82 86  0  0  0  0  0  0  0  0999 V2000
    0.6130    7.9790   -2.4440 C   0  0  0  0  0  0  0  0  0  0  0  0
   -0.8070    8.3000   -1.9680 C   0  0  2  0  0  0  0  0  0  0  0  0
   -1.8800    7.7250   -2.9150 C   0  0  0  0  0  0  0  0  0  0  0  0
   -3.1530    7.2700   -2.1970 C   0  0  0  0  0  0  0  0  0  0  0  0
   -4.1180    6.6170   -3.1400 C   0  0  2  0  0  0  0  0  0  0  0  0
   -4.9720    7.5260   -3.8470 O   0  0  0  0  0  0  0  0  0  0  0  0
   -5.6210    6.6240   -2.9370 C   0  0  0  0  0  0  0  0  0  0  0  0
   -6.2460    7.2960   -1.7550 C   0  0  0  0  0  0  0  0  0  0  0  0
   -6.4400    5.5690   -3.6140 C   0  0  0  0  0  0  0  0  0  0  0  0
   -0.9820    9.8080   -1.8370 C   0  0  1  0  0  0  0  0  0  0  0  0
   -2.4330   10.2100   -1.4610 C   0  0  0  0  0  0  0  0  0  0  0  0
   -2.3280   11.4540   -0.5410 C   0  0  0  0  0  0  0  0  0  0  0  0
   -0.8610   11.9230   -0.6850 C   0  0  1  0  0  0  0  0  0  0  0  0
   -0.8320   12.7460   -2.0110 C   0  0  0  0  0  0  0  0  0  0  0  0
   -0.2760   12.7390    0.5140 C   0  0  2  0  0  0  0  0  0  0  0  0
   -0.9800   14.0770    0.7980 C   0  0  0  0  0  0  0  0  0  0  0  0
   -0.4150   15.2590    0.0820 C   0  0  0  0  0  0  0  0  0  0  0  0
    0.7830   15.3040   -0.5290 C   0  0  0  0  0  0  0  0  0  0  0  0
    1.7500   14.1160   -0.4560 C   0  0  1  0  0  0  0  0  0  0  0  0
    3.1740   14.6270   -0.1160 C   0  0  0  0  0  0  0  0  0  0  0  0
    3.6520   15.7100   -1.0800 C   0  0  0  0  0  0  0  0  0  0  0  0
    2.6960   16.8990   -1.0810 C   0  0  2  0  0  0  0  0  0  0  0  0
    2.7540   17.5390    0.1970 O   0  0  0  0  0  0  0  0  0  0  0  0
    1.2270   16.5040   -1.4020 C   0  0  0  0  0  0  0  0  0  0  0  0
    1.1120   16.0920   -2.8900 C   0  0  0  0  0  0  0  0  0  0  0  0
    0.3440   17.7700   -1.2320 C   0  0  0  0  0  0  0  0  0  0  0  0
    1.2970   12.9100    0.4750 C   0  0  1  0  0  0  0  0  0  0  0  0
    1.7530   13.1700    1.9430 C   0  0  0  0  0  0  0  0  0  0  0  0
    2.0300   11.5970    0.0090 C   0  0  0  0  0  0  0  0  0  0  0  0
    1.3420   10.7710   -1.0950 C   0  0  0  0  0  0  0  0  0  0  0  0
   -0.1340   10.5310   -0.7610 C   0  0  2  0  0  0  0  0  0  0  0  0
   -0.1950    9.6870    0.5570 C   0  0  0  0  0  0  0  0  0  0  0  0
    1.2673    7.8311   -1.5722 H   0  0  0  0  0  0  0  0  0  0  0  0
    0.5977    7.0616   -3.0508 H   0  0  0  0  0  0  0  0  0  0  0  0
    0.9938    8.8137   -3.0508 H   0  0  0  0  0  0  0  0  0  0  0  0
   -0.9434    7.8233   -0.9861 H   0  0  0  0  0  0  0  0  0  0  0  0
   -2.1516    8.5019   -3.6449 H   0  0  0  0  0  0  0  0  0  0  0  0
   -1.4442    6.8350   -3.3926 H   0  0  0  0  0  0  0  0  0  0  0  0
   -2.8810    6.5506   -1.4105 H   0  0  0  0  0  0  0  0  0  0  0  0
   -3.6405    8.1577   -1.7677 H   0  0  0  0  0  0  0  0  0  0  0  0
   -3.4050    5.8046   -3.3440 H   0  0  0  0  0  0  0  0  0  0  0  0
   -5.8413    6.8608   -0.8294 H   0  0  0  0  0  0  0  0  0  0  0  0
   -6.0204    8.3722   -1.7834 H   0  0  0  0  0  0  0  0  0  0  0  0
   -7.3358    7.1489   -1.7834 H   0  0  0  0  0  0  0  0  0  0  0  0
   -6.9281    4.9403   -2.8547 H   0  0  0  0  0  0  0  0  0  0  0  0
   -7.2062    6.0466   -4.2423 H   0  0  0  0  0  0  0  0  0  0  0  0
   -5.7873    4.9451   -4.2423 H   0  0  0  0  0  0  0  0  0  0  0  0
   -0.6600   10.1195   -2.8416 H   0  0  0  0  0  0  0  0  0  0  0  0
   -3.0049   10.4565   -2.3677 H   0  0  0  0  0  0  0  0  0  0  0  0
   -2.9523    9.3847   -0.9519 H   0  0  0  0  0  0  0  0  0  0  0  0
   -3.0216   12.2412   -0.8716 H   0  0  0  0  0  0  0  0  0  0  0  0
   -2.5923   11.2251    0.5019 H   0  0  0  0  0  0  0  0  0  0  0  0
   -0.7942   13.8198   -1.7753 H   0  0  0  0  0  0  0  0  0  0  0  0
    0.0569   12.4675   -2.5961 H   0  0  0  0  0  0  0  0  0  0  0  0
   -1.7383   12.5307   -2.5961 H   0  0  0  0  0  0  0  0  0  0  0  0
   -0.5058   12.0927    1.3739 H   0  0  0  0  0  0  0  0  0  0  0  0
   -2.0354   13.9747    0.5052 H   0  0  0  0  0  0  0  0  0  0  0  0
   -0.8377   14.2742    1.8708 H   0  0  0  0  0  0  0  0  0  0  0  0
   -1.0302   16.1703    0.0514 H   0  0  0  0  0  0  0  0  0  0  0  0
    1.7464   13.6595   -1.4568 H   0  0  0  0  0  0  0  0  0  0  0  0
    3.1664   15.0404    0.9033 H   0  0  0  0  0  0  0  0  0  0  0  0
    3.8643   13.7748   -0.2017 H   0  0  0  0  0  0  0  0  0  0  0  0
    4.6510   16.0515   -0.7712 H   0  0  0  0  0  0  0  0  0  0  0  0
    3.6871   15.2866   -2.0946 H   0  0  0  0  0  0  0  0  0  0  0  0
    3.0192   17.5810   -1.8812 H   0  0  0  0  0  0  0  0  0  0  0  0
    1.9310   18.0450    0.3110 H   0  0  0  0  0  0  0  0  0  0  0  0
    0.8168   15.0344   -2.9559 H   0  0  0  0  0  0  0  0  0  0  0  0
    0.3537   16.7159   -3.3857 H   0  0  0  0  0  0  0  0  0  0  0  0
    2.0838   16.2330   -3.3857 H   0  0  0  0  0  0  0  0  0  0  0  0
    0.2005   17.9758   -0.1610 H   0  0  0  0  0  0  0  0  0  0  0  0
    0.8397   18.6293   -1.7073 H   0  0  0  0  0  0  0  0  0  0  0  0
   -0.6336   17.6017   -1.7073 H   0  0  0  0  0  0  0  0  0  0  0  0
    1.0119   12.7475    2.6374 H   0  0  0  0  0  0  0  0  0  0  0  0
    2.7293   12.6928    2.1137 H   0  0  0  0  0  0  0  0  0  0  0  0
    1.8395   14.2532    2.1137 H   0  0  0  0  0  0  0  0  0  0  0  0
    3.0246   11.8851   -0.3621 H   0  0  0  0  0  0  0  0  0  0  0  0
    2.0392   10.9434    0.8937 H   0  0  0  0  0  0  0  0  0  0  0  0
    1.4113   11.3158   -2.0481 H   0  0  0  0  0  0  0  0  0  0  0  0
    1.8474    9.7969   -1.1707 H   0  0  0  0  0  0  0  0  0  0  0  0
   -0.1464   10.3599    1.4259 H   0  0  0  0  0  0  0  0  0  0  0  0
   -1.1365    9.1189    0.5854 H   0  0  0  0  0  0  0  0  0  0  0  0
    0.6551    8.9895    0.5854 H   0  0  0  0  0  0  0  0  0  0  0  0
  1  2  1  0
  2  3  1  0
  3  4  1  0
  4  5  1  0
  5  6  1  0
  6  7  1  0
  7  8  1  0
  7  9  1  0
  2 10  1  0
 10 11  1  0
 11 12  1  0
 12 13  1  0
 13 14  1  6
 13 15  1  0
 15 16  1  0
 16 17  1  0
 17 18  2  0
 18 19  1  0
 19 20  1  0
 20 21  1  0
 21 22  1  0
 22 23  1  0
 22 24  1  0
 24 25  1  0
 24 26  1  0
 19 27  1  0
 27 28  1  1
 27 29  1  0
 29 30  1  0
 30 31  1  0
 31 32  1  1
  7  5  1  0
 31 10  1  0
 31 13  1  0
 27 15  1  0
 24 18  1  0
  1 33  1  0
  1 34  1  0
  1 35  1  0
  2 36  1  1
  3 37  1  0
  3 38  1  0
  4 39  1  0
  4 40  1  0
  5 41  1  6
  8 42  1  0
  8 43  1  0
  8 44  1  0
  9 45  1  0
  9 46  1  0
  9 47  1  0
 10 48  1  6
 11 49  1  0
 11 50  1  0
 12 51  1  0
 12 52  1  0
 14 53  1  0
 14 54  1  0
 14 55  1  0
 15 56  1  1
 16 57  1  0
 16 58  1  0
 17 59  1  0
 19 60  1  6
 20 61  1  0
 20 62  1  0
 21 63  1  0
 21 64  1  0
 22 65  1  6
 23 66  1  0
 25 67  1  0
 25 68  1  0
 25 69  1  0
 26 70  1  0
 26 71  1  0
 26 72  1  0
 28 73  1  0
 28 74  1  0
 28 75  1  0
 29 76  1  0
 29 77  1  0
 30 78  1  0
 30 79  1  0
 32 80  1  0
 32 81  1  0
 32 82  1  0
M  END
>  <meeko>  (17) 
{"is_sidechain": [false], "intermolecular_energy": 2.731, "internal_energy": -0.839}

$$$$
EPH_relaxed_0001_pdb2pqr_Repair_350_r2_0001_out
     RDKit          3D

 82 86  0  0  0  0  0  0  0  0999 V2000
   -0.0580    9.3350   -4.2380 C   0  0  0  0  0  0  0  0  0  0  0  0
    0.1390    9.5280   -2.7320 C   0  0  2  0  0  0  0  0  0  0  0  0
   -0.6260    8.4740   -1.9070 C   0  0  0  0  0  0  0  0  0  0  0  0
   -2.1470    8.5620   -2.0540 C   0  0  0  0  0  0  0  0  0  0  0  0
   -2.7210    7.3090   -2.6410 C   0  0  2  0  0  0  0  0  0  0  0  0
   -3.7380    7.5210   -3.6280 O   0  0  0  0  0  0  0  0  0  0  0  0
   -4.1540    6.8610   -2.4210 C   0  0  0  0  0  0  0  0  0  0  0  0
   -5.1020    7.6620   -1.5850 C   0  0  0  0  0  0  0  0  0  0  0  0
   -4.4880    5.4140   -2.6100 C   0  0  0  0  0  0  0  0  0  0  0  0
   -0.3030   10.9290   -2.3260 C   0  0  1  0  0  0  0  0  0  0  0  0
   -1.5100   10.9150   -1.3500 C   0  0  0  0  0  0  0  0  0  0  0  0
   -1.3130   12.1070   -0.3780 C   0  0  0  0  0  0  0  0  0  0  0  0
   -0.1930   12.9570   -1.0240 C   0  0  1  0  0  0  0  0  0  0  0  0
   -0.9140   13.8050   -2.1190 C   0  0  0  0  0  0  0  0  0  0  0  0
    0.6400   13.8550   -0.0530 C   0  0  2  0  0  0  0  0  0  0  0  0
   -0.1640   14.9460    0.6770 C   0  0  0  0  0  0  0  0  0  0  0  0
   -0.2390   16.2610   -0.0250 C   0  0  0  0  0  0  0  0  0  0  0  0
    0.5450   16.6460   -1.0500 C   0  0  0  0  0  0  0  0  0  0  0  0
    1.6960   15.7580   -1.5390 C   0  0  1  0  0  0  0  0  0  0  0  0
    2.9720   16.6190   -1.7240 C   0  0  0  0  0  0  0  0  0  0  0  0
    2.7390   17.8240   -2.6310 C   0  0  0  0  0  0  0  0  0  0  0  0
    1.6280   18.7140   -2.0800 C   0  0  2  0  0  0  0  0  0  0  0  0
    2.0720   19.2990   -0.8530 O   0  0  0  0  0  0  0  0  0  0  0  0
    0.2940   17.9520   -1.8440 C   0  0  0  0  0  0  0  0  0  0  0  0
   -0.3410   17.5780   -3.2060 C   0  0  0  0  0  0  0  0  0  0  0  0
   -0.6980   18.9290   -1.1560 C   0  0  0  0  0  0  0  0  0  0  0  0
    1.9650   14.4420   -0.6890 C   0  0  1  0  0  0  0  0  0  0  0  0
    2.9240   14.7620    0.4970 C   0  0  0  0  0  0  0  0  0  0  0  0
    2.7110   13.3900   -1.5930 C   0  0  0  0  0  0  0  0  0  0  0  0
    1.8300   12.4510   -2.4380 C   0  0  0  0  0  0  0  0  0  0  0  0
    0.7300   11.8140   -1.5830 C   0  0  2  0  0  0  0  0  0  0  0  0
    1.4250   10.9360   -0.4870 C   0  0  0  0  0  0  0  0  0  0  0  0
   -0.8339    8.5749   -4.4119 H   0  0  0  0  0  0  0  0  0  0  0  0
   -0.3694   10.2873   -4.6921 H   0  0  0  0  0  0  0  0  0  0  0  0
    0.8877    9.0042   -4.6921 H   0  0  0  0  0  0  0  0  0  0  0  0
    1.2105    9.3998   -2.5187 H   0  0  0  0  0  0  0  0  0  0  0  0
   -0.3028    7.4750   -2.2349 H   0  0  0  0  0  0  0  0  0  0  0  0
   -0.3941    8.6642   -0.8487 H   0  0  0  0  0  0  0  0  0  0  0  0
   -2.5920    8.7270   -1.0616 H   0  0  0  0  0  0  0  0  0  0  0  0
   -2.3779    9.3957   -2.7335 H   0  0  0  0  0  0  0  0  0  0  0  0
   -1.7593    6.7875   -2.5260 H   0  0  0  0  0  0  0  0  0  0  0  0
   -4.8917    7.4843   -0.5200 H   0  0  0  0  0  0  0  0  0  0  0  0
   -4.9759    8.7313   -1.8102 H   0  0  0  0  0  0  0  0  0  0  0  0
   -6.1352    7.3592   -1.8102 H   0  0  0  0  0  0  0  0  0  0  0  0
   -4.5993    4.9320   -1.6275 H   0  0  0  0  0  0  0  0  0  0  0  0
   -5.4302    5.3254   -3.1707 H   0  0  0  0  0  0  0  0  0  0  0  0
   -3.6799    4.9214   -3.1707 H   0  0  0  0  0  0  0  0  0  0  0  0
   -0.5142   11.3508   -3.3197 H   0  0  0  0  0  0  0  0  0  0  0  0
   -2.4502   11.0331   -1.9086 H   0  0  0  0  0  0  0  0  0  0  0  0
   -1.5636    9.9629   -0.8017 H   0  0  0  0  0  0  0  0  0  0  0  0
   -2.2405   12.6914   -0.2873 H   0  0  0  0  0  0  0  0  0  0  0  0
   -1.0525   11.7774    0.6386 H   0  0  0  0  0  0  0  0  0  0  0  0
   -1.5544   14.5582   -1.6368 H   0  0  0  0  0  0  0  0  0  0  0  0
   -0.1635   14.3089   -2.7458 H   0  0  0  0  0  0  0  0  0  0  0  0
   -1.5320   13.1453   -2.7458 H   0  0  0  0  0  0  0  0  0  0  0  0
    0.9486   13.1400    0.7239 H   0  0  0  0  0  0  0  0  0  0  0  0
   -1.1905   14.5760    0.8158 H   0  0  0  0  0  0  0  0  0  0  0  0
    0.3680   15.1353    1.6210 H   0  0  0  0  0  0  0  0  0  0  0  0
   -0.9986   16.9758    0.3243 H   0  0  0  0  0  0  0  0  0  0  0  0
    1.3761   15.3527   -2.5103 H   0  0  0  0  0  0  0  0  0  0  0  0
    3.3008   16.9785   -0.7377 H   0  0  0  0  0  0  0  0  0  0  0  0
    3.7356   15.9860   -2.1997 H   0  0  0  0  0  0  0  0  0  0  0  0
    3.6683   18.4086   -2.6990 H   0  0  0  0  0  0  0  0  0  0  0  0
    2.4388   17.4624   -3.6255 H   0  0  0  0  0  0  0  0  0  0  0  0
    1.4186   19.4864   -2.8346 H   0  0  0  0  0  0  0  0  0  0  0  0
    2.5440   18.6120   -0.3520 H   0  0  0  0  0  0  0  0  0  0  0  0
   -1.2773   17.0265   -3.0349 H   0  0  0  0  0  0  0  0  0  0  0  0
   -0.5542   18.4948   -3.7753 H   0  0  0  0  0  0  0  0  0  0  0  0
    0.3574   16.9470   -3.7753 H   0  0  0  0  0  0  0  0  0  0  0  0
   -0.6049   18.8373   -0.0638 H   0  0  0  0  0  0  0  0  0  0  0  0
   -0.4656   19.9608   -1.4585 H   0  0  0  0  0  0  0  0  0  0  0  0
   -1.7261   18.6810   -1.4585 H   0  0  0  0  0  0  0  0  0  0  0  0
    2.4010   14.5875    1.4488 H   0  0  0  0  0  0  0  0  0  0  0  0
    3.8083   14.1102    0.4397 H   0  0  0  0  0  0  0  0  0  0  0  0
    3.2397   15.8142    0.4397 H   0  0  0  0  0  0  0  0  0  0  0  0
    3.3616   13.9467   -2.2836 H   0  0  0  0  0  0  0  0  0  0  0  0
    3.2414   12.7312   -0.8897 H   0  0  0  0  0  0  0  0  0  0  0  0
    1.3651   13.0284   -3.2507 H   0  0  0  0  0  0  0  0  0  0  0  0
    2.4634   11.6505   -2.8479 H   0  0  0  0  0  0  0  0  0  0  0  0
    1.1374   11.2993    0.5106 H   0  0  0  0  0  0  0  0  0  0  0  0
    1.1085    9.8887   -0.6011 H   0  0  0  0  0  0  0  0  0  0  0  0
    2.5170   11.0036   -0.6011 H   0  0  0  0  0  0  0  0  0  0  0  0
  1  2  1  0
  2  3  1  0
  3  4  1  0
  4  5  1  0
  5  6  1  0
  6  7  1  0
  7  8  1  0
  7  9  1  0
  2 10  1  0
 10 11  1  0
 11 12  1  0
 12 13  1  0
 13 14  1  6
 13 15  1  0
 15 16  1  0
 16 17  1  0
 17 18  2  0
 18 19  1  0
 19 20  1  0
 20 21  1  0
 21 22  1  0
 22 23  1  0
 22 24  1  0
 24 25  1  0
 24 26  1  0
 19 27  1  0
 27 28  1  1
 27 29  1  0
 29 30  1  0
 30 31  1  0
 31 32  1  1
  7  5  1  0
 31 10  1  0
 31 13  1  0
 27 15  1  0
 24 18  1  0
  1 33  1  0
  1 34  1  0
  1 35  1  0
  2 36  1  6
  3 37  1  0
  3 38  1  0
  4 39  1  0
  4 40  1  0
  5 41  1  6
  8 42  1  0
  8 43  1  0
  8 44  1  0
  9 45  1  0
  9 46  1  0
  9 47  1  0
 10 48  1  6
 11 49  1  0
 11 50  1  0
 12 51  1  0
 12 52  1  0
 14 53  1  0
 14 54  1  0
 14 55  1  0
 15 56  1  1
 16 57  1  0
 16 58  1  0
 17 59  1  0
 19 60  1  6
 20 61  1  0
 20 62  1  0
 21 63  1  0
 21 64  1  0
 22 65  1  6
 23 66  1  0
 25 67  1  0
 25 68  1  0
 25 69  1  0
 26 70  1  0
 26 71  1  0
 26 72  1  0
 28 73  1  0
 28 74  1  0
 28 75  1  0
 29 76  1  0
 29 77  1  0
 30 78  1  0
 30 79  1  0
 32 80  1  0
 32 81  1  0
 32 82  1  0
M  END
>  <meeko>  (18) 
{"is_sidechain": [false], "intermolecular_energy": 2.731, "internal_energy": -0.839}

$$$$
EPH_relaxed_0001_pdb2pqr_Repair_350_r2_0001_out
     RDKit          3D

 82 86  0  0  0  0  0  0  0  0999 V2000
   -1.8430   14.1430    0.7180 C   0  0  0  0  0  0  0  0  0  0  0  0
   -0.5450   14.9410    0.5680 C   0  0  2  0  0  0  0  0  0  0  0  0
   -0.6590   16.0390   -0.5080 C   0  0  0  0  0  0  0  0  0  0  0  0
    0.3880   17.1470   -0.3710 C   0  0  0  0  0  0  0  0  0  0  0  0
    0.1850   18.2310   -1.3860 C   0  0  2  0  0  0  0  0  0  0  0  0
    0.7460   19.5010   -1.0270 O   0  0  0  0  0  0  0  0  0  0  0  0
   -0.6850   19.4500   -1.1450 C   0  0  0  0  0  0  0  0  0  0  0  0
   -1.4100   19.6480    0.1500 C   0  0  0  0  0  0  0  0  0  0  0  0
   -1.2190   20.1940   -2.3290 C   0  0  0  0  0  0  0  0  0  0  0  0
    0.6070   14.0010    0.2330 C   0  0  1  0  0  0  0  0  0  0  0  0
    0.8400   12.9270    1.3280 C   0  0  0  0  0  0  0  0  0  0  0  0
    1.2910   11.6350    0.5990 C   0  0  0  0  0  0  0  0  0  0  0  0
    1.6220   12.0950   -0.8400 C   0  0  1  0  0  0  0  0  0  0  0  0
    3.0600   12.6950   -0.7480 C   0  0  0  0  0  0  0  0  0  0  0  0
    1.5230   11.0030   -1.9550 C   0  0  2  0  0  0  0  0  0  0  0  0
    2.4960    9.8210   -1.7990 C   0  0  0  0  0  0  0  0  0  0  0  0
    3.8170    9.9890   -2.4740 C   0  0  0  0  0  0  0  0  0  0  0  0
    4.1050   10.9130   -3.4090 C   0  0  0  0  0  0  0  0  0  0  0  0
    3.0190   11.8520   -3.9500 C   0  0  1  0  0  0  0  0  0  0  0  0
    3.1040   11.9060   -5.4980 C   0  0  0  0  0  0  0  0  0  0  0  0
    4.4980   12.2790   -5.9940 C   0  0  0  0  0  0  0  0  0  0  0  0
    5.5410   11.2890   -5.4840 C   0  0  2  0  0  0  0  0  0  0  0  0
    5.3010   10.0130   -6.0870 O   0  0  0  0  0  0  0  0  0  0  0  0
    5.5430   11.1430   -3.9360 C   0  0  0  0  0  0  0  0  0  0  0  0
    6.0950   12.4390   -3.2920 C   0  0  0  0  0  0  0  0  0  0  0  0
    6.5410   10.0140   -3.5640 C   0  0  0  0  0  0  0  0  0  0  0  0
    1.5430   11.5770   -3.4290 C   0  0  1  0  0  0  0  0  0  0  0  0
    0.8500   10.5120   -4.3320 C   0  0  0  0  0  0  0  0  0  0  0  0
    0.6940   12.8970   -3.5690 C   0  0  0  0  0  0  0  0  0  0  0  0
    0.7390   13.8800   -2.3840 C   0  0  0  0  0  0  0  0  0  0  0  0
    0.4820   13.1550   -1.0590 C   0  0  2  0  0  0  0  0  0  0  0  0
   -0.9660   12.5590   -1.1130 C   0  0  0  0  0  0  0  0  0  0  0  0
   -2.0673   14.0051    1.7860 H   0  0  0  0  0  0  0  0  0  0  0  0
   -2.6675   14.6904    0.2379 H   0  0  0  0  0  0  0  0  0  0  0  0
   -1.7267   13.1602    0.2379 H   0  0  0  0  0  0  0  0  0  0  0  0
   -0.3506   15.4399    1.5289 H   0  0  0  0  0  0  0  0  0  0  0  0
   -0.5411   15.5703   -1.4961 H   0  0  0  0  0  0  0  0  0  0  0  0
   -1.6445   16.5111   -0.3818 H   0  0  0  0  0  0  0  0  0  0  0  0
    0.3152   17.5836    0.6360 H   0  0  0  0  0  0  0  0  0  0  0  0
    1.3805   16.7030   -0.5377 H   0  0  0  0  0  0  0  0  0  0  0  0
    0.2205   17.5005   -2.2076 H   0  0  0  0  0  0  0  0  0  0  0  0
   -0.7223   19.4602    0.9877 H   0  0  0  0  0  0  0  0  0  0  0  0
   -1.7836   20.6811    0.2069 H   0  0  0  0  0  0  0  0  0  0  0  0
   -2.2568   18.9482    0.2069 H   0  0  0  0  0  0  0  0  0  0  0  0
   -1.8281   21.0427   -1.9845 H   0  0  0  0  0  0  0  0  0  0  0  0
   -0.3810   20.5667   -2.9363 H   0  0  0  0  0  0  0  0  0  0  0  0
   -1.8403   19.5193   -2.9363 H   0  0  0  0  0  0  0  0  0  0  0  0
    1.4184   14.7358    0.1245 H   0  0  0  0  0  0  0  0  0  0  0  0
    1.6222   13.2609    2.0257 H   0  0  0  0  0  0  0  0  0  0  0  0
   -0.0764   12.7521    1.9108 H   0  0  0  0  0  0  0  0  0  0  0  0
    2.1802   11.2057    1.0838 H   0  0  0  0  0  0  0  0  0  0  0  0
    0.5180   10.8526    0.6197 H   0  0  0  0  0  0  0  0  0  0  0  0
    3.3414   12.8124    0.3089 H   0  0  0  0  0  0  0  0  0  0  0  0
    3.7719   12.0188   -1.2440 H   0  0  0  0  0  0  0  0  0  0  0  0
    3.0802   13.6766   -1.2440 H   0  0  0  0  0  0  0  0  0  0  0  0
    0.5183   10.5873   -1.7885 H   0  0  0  0  0  0  0  0  0  0  0  0
    2.6798    9.6716   -0.7248 H   0  0  0  0  0  0  0  0  0  0  0  0
    2.0120    8.9621   -2.2869 H   0  0  0  0  0  0  0  0  0  0  0  0
    4.6228    9.2993   -2.1825 H   0  0  0  0  0  0  0  0  0  0  0  0
    3.2388   12.8446   -3.5300 H   0  0  0  0  0  0  0  0  0  0  0  0
    2.8392   10.9171   -5.9005 H   0  0  0  0  0  0  0  0  0  0  0  0
    2.4070   12.6834   -5.8441 H   0  0  0  0  0  0  0  0  0  0  0  0
    4.5026   12.2721   -7.0940 H   0  0  0  0  0  0  0  0  0  0  0  0
    4.7494   13.2805   -5.6147 H   0  0  0  0  0  0  0  0  0  0  0  0
    6.5302   11.6805   -5.7635 H   0  0  0  0  0  0  0  0  0  0  0  0
    5.7140    9.3380   -5.5220 H   0  0  0  0  0  0  0  0  0  0  0  0
    6.0567   12.3491   -2.1964 H   0  0  0  0  0  0  0  0  0  0  0  0
    7.1365   12.5922   -3.6111 H   0  0  0  0  0  0  0  0  0  0  0  0
    5.4838   13.2961   -3.6111 H   0  0  0  0  0  0  0  0  0  0  0  0
    6.6121    9.9335   -2.4693 H   0  0  0  0  0  0  0  0  0  0  0  0
    6.1862    9.0593   -3.9796 H   0  0  0  0  0  0  0  0  0  0  0  0
    7.5320   10.2490   -3.9796 H   0  0  0  0  0  0  0  0  0  0  0  0
    0.3593    9.7579   -3.6990 H   0  0  0  0  0  0  0  0  0  0  0  0
    0.0980   11.0031   -4.9671 H   0  0  0  0  0  0  0  0  0  0  0  0
    1.6036   10.0234   -4.9671 H   0  0  0  0  0  0  0  0  0  0  0  0
    1.0553   13.4323   -4.4595 H   0  0  0  0  0  0  0  0  0  0  0  0
   -0.3522   12.5620   -3.6258 H   0  0  0  0  0  0  0  0  0  0  0  0
    1.7307   14.3547   -2.3479 H   0  0  0  0  0  0  0  0  0  0  0  0
   -0.0458   14.6374   -2.5270 H   0  0  0  0  0  0  0  0  0  0  0  0
   -1.3379   12.4059   -0.0892 H   0  0  0  0  0  0  0  0  0  0  0  0
   -1.6302   13.2569   -1.6439 H   0  0  0  0  0  0  0  0  0  0  0  0
   -0.9465   11.5958   -1.6439 H   0  0  0  0  0  0  0  0  0  0  0  0
  1  2  1  0
  2  3  1  0
  3  4  1  0
  4  5  1  0
  5  6  1  0
  6  7  1  0
  7  8  1  0
  7  9  1  0
  2 10  1  0
 10 11  1  0
 11 12  1  0
 12 13  1  0
 13 14  1  1
 13 15  1  0
 15 16  1  0
 16 17  1  0
 17 18  2  0
 18 19  1  0
 19 20  1  0
 20 21  1  0
 21 22  1  0
 22 23  1  0
 22 24  1  0
 24 25  1  0
 24 26  1  0
 19 27  1  0
 27 28  1  6
 27 29  1  0
 29 30  1  0
 30 31  1  0
 31 32  1  6
  7  5  1  0
 31 10  1  0
 31 13  1  0
 27 15  1  0
 24 18  1  0
  1 33  1  0
  1 34  1  0
  1 35  1  0
  2 36  1  1
  3 37  1  0
  3 38  1  0
  4 39  1  0
  4 40  1  0
  5 41  1  6
  8 42  1  0
  8 43  1  0
  8 44  1  0
  9 45  1  0
  9 46  1  0
  9 47  1  0
 10 48  1  6
 11 49  1  0
 11 50  1  0
 12 51  1  0
 12 52  1  0
 14 53  1  0
 14 54  1  0
 14 55  1  0
 15 56  1  1
 16 57  1  0
 16 58  1  0
 17 59  1  0
 19 60  1  1
 20 61  1  0
 20 62  1  0
 21 63  1  0
 21 64  1  0
 22 65  1  6
 23 66  1  0
 25 67  1  0
 25 68  1  0
 25 69  1  0
 26 70  1  0
 26 71  1  0
 26 72  1  0
 28 73  1  0
 28 74  1  0
 28 75  1  0
 29 76  1  0
 29 77  1  0
 30 78  1  0
 30 79  1  0
 32 80  1  0
 32 81  1  0
 32 82  1  0
M  END
>  <meeko>  (19) 
{"is_sidechain": [false], "intermolecular_energy": 2.731, "internal_energy": -0.839}

$$$$
