EPH_relaxed_0001_pdb2pqr_Repair_392_r2_0001_out
     RDKit          3D

 82 86  0  0  0  0  0  0  0  0999 V2000
   -1.4160    8.5160   -1.7650 C   0  0  0  0  0  0  0  0  0  0  0  0
   -1.8440    9.1110   -0.4200 C   0  0  2  0  0  0  0  0  0  0  0  0
   -3.3380    9.4910   -0.4030 C   0  0  0  0  0  0  0  0  0  0  0  0
   -4.2800    8.2840   -0.3750 C   0  0  0  0  0  0  0  0  0  0  0  0
   -4.8430    7.9890   -1.7330 C   0  0  2  0  0  0  0  0  0  0  0  0
   -6.2500    8.2280   -1.8620 O   0  0  0  0  0  0  0  0  0  0  0  0
   -5.8230    6.8640   -2.0050 C   0  0  0  0  0  0  0  0  0  0  0  0
   -6.2960    5.9590   -0.9110 C   0  0  0  0  0  0  0  0  0  0  0  0
   -5.9400    6.3390   -3.4030 C   0  0  0  0  0  0  0  0  0  0  0  0
   -0.9920   10.3340   -0.0980 C   0  0  1  0  0  0  0  0  0  0  0  0
    0.1050   10.0360    0.9590 C   0  0  0  0  0  0  0  0  0  0  0  0
    1.3380   10.8950    0.5790 C   0  0  0  0  0  0  0  0  0  0  0  0
    0.8060   11.8960   -0.4730 C   0  0  1  0  0  0  0  0  0  0  0  0
    0.1190   13.0240    0.3580 C   0  0  0  0  0  0  0  0  0  0  0  0
    1.8610   12.4760   -1.4710 C   0  0  2  0  0  0  0  0  0  0  0  0
    2.9830   13.3060   -0.8250 C   0  0  0  0  0  0  0  0  0  0  0  0
    2.7070   14.7690   -0.7060 C   0  0  0  0  0  0  0  0  0  0  0  0
    1.7330   15.4360   -1.3530 C   0  0  0  0  0  0  0  0  0  0  0  0
    0.8460   14.7280   -2.3860 C   0  0  1  0  0  0  0  0  0  0  0  0
    0.7310   15.6080   -3.6580 C   0  0  0  0  0  0  0  0  0  0  0  0
    0.2530   17.0230   -3.3500 C   0  0  0  0  0  0  0  0  0  0  0  0
    1.1920   17.7140   -2.3650 C   0  0  2  0  0  0  0  0  0  0  0  0
    2.4580   17.9190   -3.0010 O   0  0  0  0  0  0  0  0  0  0  0  0
    1.3930   16.9150   -1.0470 C   0  0  0  0  0  0  0  0  0  0  0  0
    0.0890   16.9520   -0.2120 C   0  0  0  0  0  0  0  0  0  0  0  0
    2.4700   17.6500   -0.2030 C   0  0  0  0  0  0  0  0  0  0  0  0
    1.2330   13.2230   -2.7170 C   0  0  1  0  0  0  0  0  0  0  0  0
    2.3080   13.1860   -3.8460 C   0  0  0  0  0  0  0  0  0  0  0  0
   -0.0330   12.4800   -3.2850 C   0  0  0  0  0  0  0  0  0  0  0  0
   -0.9740   11.8250   -2.2550 C   0  0  0  0  0  0  0  0  0  0  0  0
   -0.1870   10.9660   -1.2610 C   0  0  2  0  0  0  0  0  0  0  0  0
    0.4980    9.8090   -2.0660 C   0  0  0  0  0  0  0  0  0  0  0  0
   -0.7818    7.6343   -1.5907 H   0  0  0  0  0  0  0  0  0  0  0  0
   -2.3085    8.2187   -2.3351 H   0  0  0  0  0  0  0  0  0  0  0  0
   -0.8503    9.2677   -2.3351 H   0  0  0  0  0  0  0  0  0  0  0  0
   -1.6907    8.3383    0.3478 H   0  0  0  0  0  0  0  0  0  0  0  0
   -3.5306   10.1026    0.4908 H   0  0  0  0  0  0  0  0  0  0  0  0
   -3.5417   10.0361   -1.3365 H   0  0  0  0  0  0  0  0  0  0  0  0
   -3.7221    7.4044   -0.0215 H   0  0  0  0  0  0  0  0  0  0  0  0
   -5.1166    8.5172    0.3000 H   0  0  0  0  0  0  0  0  0  0  0  0
   -3.8960    8.2750   -2.2141 H   0  0  0  0  0  0  0  0  0  0  0  0
   -6.0607    6.4092    0.0647 H   0  0  0  0  0  0  0  0  0  0  0  0
   -7.3835    5.8173   -0.9968 H   0  0  0  0  0  0  0  0  0  0  0  0
   -5.7915    4.9853   -0.9968 H   0  0  0  0  0  0  0  0  0  0  0  0
   -6.1792    5.2657   -3.3728 H   0  0  0  0  0  0  0  0  0  0  0  0
   -6.7400    6.8782   -3.9314 H   0  0  0  0  0  0  0  0  0  0  0  0
   -4.9867    6.4875   -3.9314 H   0  0  0  0  0  0  0  0  0  0  0  0
   -1.7802   11.0259    0.2337 H   0  0  0  0  0  0  0  0  0  0  0  0
   -0.2521   10.3094    1.9629 H   0  0  0  0  0  0  0  0  0  0  0  0
    0.3588    8.9658    0.9735 H   0  0  0  0  0  0  0  0  0  0  0  0
    1.7270   11.4271    1.4596 H   0  0  0  0  0  0  0  0  0  0  0  0
    2.1683   10.2855    0.1928 H   0  0  0  0  0  0  0  0  0  0  0  0
    0.2449   12.8174    1.4311 H   0  0  0  0  0  0  0  0  0  0  0  0
    0.5810   13.9921    0.1144 H   0  0  0  0  0  0  0  0  0  0  0  0
   -0.9532   13.0577    0.1144 H   0  0  0  0  0  0  0  0  0  0  0  0
    2.3461   11.5667   -1.8555 H   0  0  0  0  0  0  0  0  0  0  0  0
    3.1596   12.9101    0.1860 H   0  0  0  0  0  0  0  0  0  0  0  0
    3.8525   13.2138   -1.4925 H   0  0  0  0  0  0  0  0  0  0  0  0
    3.3542   15.3505   -0.0329 H   0  0  0  0  0  0  0  0  0  0  0  0
   -0.1427   14.6202   -1.9160 H   0  0  0  0  0  0  0  0  0  0  0  0
    1.7196   15.6663   -4.1368 H   0  0  0  0  0  0  0  0  0  0  0  0
   -0.0131   15.1414   -4.3202 H   0  0  0  0  0  0  0  0  0  0  0  0
    0.2206   17.6033   -4.2839 H   0  0  0  0  0  0  0  0  0  0  0  0
   -0.7483   16.9647   -2.8983 H   0  0  0  0  0  0  0  0  0  0  0  0
    0.7288   18.6714   -2.0840 H   0  0  0  0  0  0  0  0  0  0  0  0
    2.9540   17.0850   -2.9440 H   0  0  0  0  0  0  0  0  0  0  0  0
    0.3392   16.9449    0.8591 H   0  0  0  0  0  0  0  0  0  0  0  0
   -0.4737   17.8665   -0.4511 H   0  0  0  0  0  0  0  0  0  0  0  0
   -0.5246   16.0709   -0.4511 H   0  0  0  0  0  0  0  0  0  0  0  0
    2.2588   17.5058    0.8669 H   0  0  0  0  0  0  0  0  0  0  0  0
    3.4633   17.2405   -0.4391 H   0  0  0  0  0  0  0  0  0  0  0  0
    2.4507   18.7242   -0.4391 H   0  0  0  0  0  0  0  0  0  0  0  0
    3.3112   13.1515   -3.3961 H   0  0  0  0  0  0  0  0  0  0  0  0
    2.1547   12.2926   -4.4692 H   0  0  0  0  0  0  0  0  0  0  0  0
    2.2165   14.0878   -4.4692 H   0  0  0  0  0  0  0  0  0  0  0  0
   -0.6221   13.2139   -3.8546 H   0  0  0  0  0  0  0  0  0  0  0  0
    0.3658   11.6465   -3.8818 H   0  0  0  0  0  0  0  0  0  0  0  0
   -1.5092   12.6129   -1.7046 H   0  0  0  0  0  0  0  0  0  0  0  0
   -1.6846   11.1786   -2.7909 H   0  0  0  0  0  0  0  0  0  0  0  0
    0.9297    9.0799   -1.3645 H   0  0  0  0  0  0  0  0  0  0  0  0
   -0.2503    9.3099   -2.6993 H   0  0  0  0  0  0  0  0  0  0  0  0
    1.2954   10.2251   -2.6993 H   0  0  0  0  0  0  0  0  0  0  0  0
  1  2  1  0
  2  3  1  0
  3  4  1  0
  4  5  1  0
  5  6  1  0
  6  7  1  0
  7  8  1  0
  7  9  1  0
  2 10  1  0
 10 11  1  0
 11 12  1  0
 12 13  1  0
 13 14  1  1
 13 15  1  0
 15 16  1  0
 16 17  1  0
 17 18  2  0
 18 19  1  0
 19 20  1  0
 20 21  1  0
 21 22  1  0
 22 23  1  0
 22 24  1  0
 24 25  1  0
 24 26  1  0
 19 27  1  0
 27 28  1  6
 27 29  1  0
 29 30  1  0
 30 31  1  0
 31 32  1  6
  7  5  1  0
 31 10  1  0
 31 13  1  0
 27 15  1  0
 24 18  1  0
  1 33  1  0
  1 34  1  0
  1 35  1  0
  2 36  1  1
  3 37  1  0
  3 38  1  0
  4 39  1  0
  4 40  1  0
  5 41  1  6
  8 42  1  0
  8 43  1  0
  8 44  1  0
  9 45  1  0
  9 46  1  0
  9 47  1  0
 10 48  1  1
 11 49  1  0
 11 50  1  0
 12 51  1  0
 12 52  1  0
 14 53  1  0
 14 54  1  0
 14 55  1  0
 15 56  1  6
 16 57  1  0
 16 58  1  0
 17 59  1  0
 19 60  1  1
 20 61  1  0
 20 62  1  0
 21 63  1  0
 21 64  1  0
 22 65  1  1
 23 66  1  0
 25 67  1  0
 25 68  1  0
 25 69  1  0
 26 70  1  0
 26 71  1  0
 26 72  1  0
 28 73  1  0
 28 74  1  0
 28 75  1  0
 29 76  1  0
 29 77  1  0
 30 78  1  0
 30 79  1  0
 32 80  1  0
 32 81  1  0
 32 82  1  0
M  END
>  <meeko>  (1) 
{"is_sidechain": [false], "intermolecular_energy": 2.731, "internal_energy": -0.839}

$$$$
EPH_relaxed_0001_pdb2pqr_Repair_392_r2_0001_out
     RDKit          3D

 82 86  0  0  0  0  0  0  0  0999 V2000
   -5.6560    5.8140   -4.4730 C   0  0  0  0  0  0  0  0  0  0  0  0
   -5.6010    6.8590   -3.3540 C   0  0  2  0  0  0  0  0  0  0  0  0
   -4.3750    6.6650   -2.4400 C   0  0  0  0  0  0  0  0  0  0  0  0
   -3.2280    7.6360   -2.7340 C   0  0  0  0  0  0  0  0  0  0  0  0
   -2.4960    8.0240   -1.4850 C   0  0  2  0  0  0  0  0  0  0  0  0
   -2.5570    9.4200   -1.1640 O   0  0  0  0  0  0  0  0  0  0  0  0
   -1.2560    8.8990   -1.4800 C   0  0  0  0  0  0  0  0  0  0  0  0
   -0.6760    9.4380   -2.7490 C   0  0  0  0  0  0  0  0  0  0  0  0
   -0.3340    8.8260   -0.3020 C   0  0  0  0  0  0  0  0  0  0  0  0
   -6.8810    6.8050   -2.5280 C   0  0  1  0  0  0  0  0  0  0  0  0
   -6.6850    6.0790   -1.1700 C   0  0  0  0  0  0  0  0  0  0  0  0
   -7.5990    6.7970   -0.1440 C   0  0  0  0  0  0  0  0  0  0  0  0
   -8.5280    7.6850   -1.0040 C   0  0  1  0  0  0  0  0  0  0  0  0
   -9.6450    6.7210   -1.5130 C   0  0  0  0  0  0  0  0  0  0  0  0
   -9.1300    8.9440   -0.2970 C   0  0  2  0  0  0  0  0  0  0  0  0
  -10.0470    8.6430    0.9020 C   0  0  0  0  0  0  0  0  0  0  0  0
  -11.4940    8.4830    0.5730 C   0  0  0  0  0  0  0  0  0  0  0  0
  -12.0800    8.8550   -0.5800 C   0  0  0  0  0  0  0  0  0  0  0  0
  -11.2860    9.5930   -1.6650 C   0  0  1  0  0  0  0  0  0  0  0  0
  -12.1090   10.8040   -2.1760 C   0  0  0  0  0  0  0  0  0  0  0  0
  -13.5060   10.4060   -2.6440 C   0  0  0  0  0  0  0  0  0  0  0  0
  -14.2850    9.7270   -1.5210 C   0  0  2  0  0  0  0  0  0  0  0  0
  -14.5380   10.6870   -0.4900 O   0  0  0  0  0  0  0  0  0  0  0  0
  -13.5480    8.4980   -0.9200 C   0  0  0  0  0  0  0  0  0  0  0  0
  -13.5410    7.3410   -1.9500 C   0  0  0  0  0  0  0  0  0  0  0  0
  -14.3730    7.9930    0.2940 C   0  0  0  0  0  0  0  0  0  0  0  0
   -9.7930    9.9870   -1.2850 C   0  0  1  0  0  0  0  0  0  0  0  0
   -9.7760   11.3650   -0.5550 C   0  0  0  0  0  0  0  0  0  0  0  0
   -8.9590   10.1740   -2.6070 C   0  0  0  0  0  0  0  0  0  0  0  0
   -8.2900    8.9150   -3.1900 C   0  0  0  0  0  0  0  0  0  0  0  0
   -7.5140    8.1550   -2.1100 C   0  0  2  0  0  0  0  0  0  0  0  0
   -6.3700    9.0920   -1.5940 C   0  0  0  0  0  0  0  0  0  0  0  0
   -5.7090    4.8075   -4.0324 H   0  0  0  0  0  0  0  0  0  0  0  0
   -6.5462    5.9893   -5.0950 H   0  0  0  0  0  0  0  0  0  0  0  0
   -4.7524    5.8949   -5.0950 H   0  0  0  0  0  0  0  0  0  0  0  0
   -5.5070    7.8472   -3.8279 H   0  0  0  0  0  0  0  0  0  0  0  0
   -4.6932    6.8091   -1.3969 H   0  0  0  0  0  0  0  0  0  0  0  0
   -3.9928    5.6504   -2.6260 H   0  0  0  0  0  0  0  0  0  0  0  0
   -2.5216    7.1542   -3.4260 H   0  0  0  0  0  0  0  0  0  0  0  0
   -3.6555    8.5472   -3.1779 H   0  0  0  0  0  0  0  0  0  0  0  0
   -2.7123    7.0477   -1.0267 H   0  0  0  0  0  0  0  0  0  0  0  0
    0.1107   10.1691   -2.5111 H   0  0  0  0  0  0  0  0  0  0  0  0
   -0.2447    8.6127   -3.3346 H   0  0  0  0  0  0  0  0  0  0  0  0
   -1.4675    9.9286   -3.3346 H   0  0  0  0  0  0  0  0  0  0  0  0
   -0.9214    8.8725    0.6268 H   0  0  0  0  0  0  0  0  0  0  0  0
    0.2274    7.8806   -0.3338 H   0  0  0  0  0  0  0  0  0  0  0  0
    0.3692    9.6713   -0.3338 H   0  0  0  0  0  0  0  0  0  0  0  0
   -7.5392    6.2858   -3.2402 H   0  0  0  0  0  0  0  0  0  0  0  0
   -6.9743    5.0216   -1.2604 H   0  0  0  0  0  0  0  0  0  0  0  0
   -5.6323    6.1118   -0.8525 H   0  0  0  0  0  0  0  0  0  0  0  0
   -8.1849    6.0660    0.4324 H   0  0  0  0  0  0  0  0  0  0  0  0
   -7.0243    7.3818    0.5892 H   0  0  0  0  0  0  0  0  0  0  0  0
  -10.1635    6.2736   -0.6522 H   0  0  0  0  0  0  0  0  0  0  0  0
  -10.3662    7.2850   -2.1228 H   0  0  0  0  0  0  0  0  0  0  0  0
   -9.1926    5.9251   -2.1228 H   0  0  0  0  0  0  0  0  0  0  0  0
   -8.2366    9.4278    0.1247 H   0  0  0  0  0  0  0  0  0  0  0  0
   -9.6996    7.7101    1.3700 H   0  0  0  0  0  0  0  0  0  0  0  0
   -9.9803    9.5191    1.5639 H   0  0  0  0  0  0  0  0  0  0  0  0
  -12.1360    8.0218    1.3379 H   0  0  0  0  0  0  0  0  0  0  0  0
  -11.1412    8.8692   -2.4806 H   0  0  0  0  0  0  0  0  0  0  0  0
  -12.2054   11.5347   -1.3594 H   0  0  0  0  0  0  0  0  0  0  0  0
  -11.5762   11.2297   -3.0391 H   0  0  0  0  0  0  0  0  0  0  0  0
  -14.0487   11.3076   -2.9645 H   0  0  0  0  0  0  0  0  0  0  0  0
  -13.4076    9.6984   -3.4804 H   0  0  0  0  0  0  0  0  0  0  0  0
  -15.2239    9.3496   -1.9524 H   0  0  0  0  0  0  0  0  0  0  0  0
  -14.1020   10.3720    0.3190 H   0  0  0  0  0  0  0  0  0  0  0  0
  -13.5352    6.3776   -1.4192 H   0  0  0  0  0  0  0  0  0  0  0  0
  -14.4396    7.4065   -2.5811 H   0  0  0  0  0  0  0  0  0  0  0  0
  -12.6433    7.4174   -2.5811 H   0  0  0  0  0  0  0  0  0  0  0  0
  -13.8761    8.2972    1.2270 H   0  0  0  0  0  0  0  0  0  0  0  0
  -15.3827    8.4280    0.2576 H   0  0  0  0  0  0  0  0  0  0  0  0
  -14.4449    6.8960    0.2576 H   0  0  0  0  0  0  0  0  0  0  0  0
   -9.7780   11.2036    0.5331 H   0  0  0  0  0  0  0  0  0  0  0  0
   -8.8709   11.9206   -0.8416 H   0  0  0  0  0  0  0  0  0  0  0  0
  -10.6671   11.9428   -0.8416 H   0  0  0  0  0  0  0  0  0  0  0  0
   -9.6371   10.5761   -3.3742 H   0  0  0  0  0  0  0  0  0  0  0  0
   -8.1281   10.8400   -2.3314 H   0  0  0  0  0  0  0  0  0  0  0  0
   -9.0658    8.2557   -3.6066 H   0  0  0  0  0  0  0  0  0  0  0  0
   -7.5848    9.2249   -3.9753 H   0  0  0  0  0  0  0  0  0  0  0  0
   -6.3665    9.0949   -0.4940 H   0  0  0  0  0  0  0  0  0  0  0  0
   -5.4009    8.7248   -1.9628 H   0  0  0  0  0  0  0  0  0  0  0  0
   -6.5391   10.1144   -1.9628 H   0  0  0  0  0  0  0  0  0  0  0  0
  1  2  1  0
  2  3  1  0
  3  4  1  0
  4  5  1  0
  5  6  1  0
  6  7  1  0
  7  8  1  0
  7  9  1  0
  2 10  1  0
 10 11  1  0
 11 12  1  0
 12 13  1  0
 13 14  1  6
 13 15  1  0
 15 16  1  0
 16 17  1  0
 17 18  2  0
 18 19  1  0
 19 20  1  0
 20 21  1  0
 21 22  1  0
 22 23  1  0
 22 24  1  0
 24 25  1  0
 24 26  1  0
 19 27  1  0
 27 28  1  1
 27 29  1  0
 29 30  1  0
 30 31  1  0
 31 32  1  1
  7  5  1  0
 31 10  1  0
 31 13  1  0
 27 15  1  0
 24 18  1  0
  1 33  1  0
  1 34  1  0
  1 35  1  0
  2 36  1  6
  3 37  1  0
  3 38  1  0
  4 39  1  0
  4 40  1  0
  5 41  1  1
  8 42  1  0
  8 43  1  0
  8 44  1  0
  9 45  1  0
  9 46  1  0
  9 47  1  0
 10 48  1  6
 11 49  1  0
 11 50  1  0
 12 51  1  0
 12 52  1  0
 14 53  1  0
 14 54  1  0
 14 55  1  0
 15 56  1  1
 16 57  1  0
 16 58  1  0
 17 59  1  0
 19 60  1  6
 20 61  1  0
 20 62  1  0
 21 63  1  0
 21 64  1  0
 22 65  1  6
 23 66  1  0
 25 67  1  0
 25 68  1  0
 25 69  1  0
 26 70  1  0
 26 71  1  0
 26 72  1  0
 28 73  1  0
 28 74  1  0
 28 75  1  0
 29 76  1  0
 29 77  1  0
 30 78  1  0
 30 79  1  0
 32 80  1  0
 32 81  1  0
 32 82  1  0
M  END
>  <meeko>  (2) 
{"is_sidechain": [false], "intermolecular_energy": 2.731, "internal_energy": -0.839}

$$$$
EPH_relaxed_0001_pdb2pqr_Repair_392_r2_0001_out
     RDKit          3D

 82 86  0  0  0  0  0  0  0  0999 V2000
    2.5600   17.9430   -2.6260 C   0  0  0  0  0  0  0  0  0  0  0  0
    1.2270   17.6140   -1.9480 C   0  0  2  0  0  0  0  0  0  0  0  0
    1.3250   17.6850   -0.4110 C   0  0  0  0  0  0  0  0  0  0  0  0
    1.0000   19.0680    0.1620 C   0  0  0  0  0  0  0  0  0  0  0  0
   -0.4400   19.1780    0.5630 C   0  0  2  0  0  0  0  0  0  0  0  0
   -1.3160   18.2540   -0.0950 O   0  0  0  0  0  0  0  0  0  0  0  0
   -1.5360   19.6460   -0.3760 C   0  0  0  0  0  0  0  0  0  0  0  0
   -1.2380   20.0350   -1.7910 C   0  0  0  0  0  0  0  0  0  0  0  0
   -2.8000   20.1880    0.2130 C   0  0  0  0  0  0  0  0  0  0  0  0
    0.7550   16.2290   -2.3760 C   0  0  1  0  0  0  0  0  0  0  0  0
    0.8510   16.0130   -3.9100 C   0  0  0  0  0  0  0  0  0  0  0  0
    1.2250   14.5240   -4.1290 C   0  0  0  0  0  0  0  0  0  0  0  0
    1.0070   13.8600   -2.7490 C   0  0  1  0  0  0  0  0  0  0  0  0
   -0.5290   13.5940   -2.6710 C   0  0  0  0  0  0  0  0  0  0  0  0
    1.8320   12.5630   -2.4680 C   0  0  2  0  0  0  0  0  0  0  0  0
    1.5320   11.3810   -3.4070 C   0  0  0  0  0  0  0  0  0  0  0  0
    0.4530   10.4580   -2.9440 C   0  0  0  0  0  0  0  0  0  0  0  0
   -0.0490   10.4050   -1.6970 C   0  0  0  0  0  0  0  0  0  0  0  0
    0.5400   11.2670   -0.5730 C   0  0  1  0  0  0  0  0  0  0  0  0
    0.7470   10.3950    0.6940 C   0  0  0  0  0  0  0  0  0  0  0  0
   -0.5260    9.6710    1.1200 C   0  0  0  0  0  0  0  0  0  0  0  0
   -1.0490    8.7790   -0.0030 C   0  0  2  0  0  0  0  0  0  0  0  0
   -0.1160    7.7170   -0.2210 O   0  0  0  0  0  0  0  0  0  0  0  0
   -1.2860    9.5470   -1.3340 C   0  0  0  0  0  0  0  0  0  0  0  0
   -2.5040   10.4910   -1.1800 C   0  0  0  0  0  0  0  0  0  0  0  0
   -1.6760    8.5090   -2.4210 C   0  0  0  0  0  0  0  0  0  0  0  0
    1.8330   12.1100   -0.9510 C   0  0  1  0  0  0  0  0  0  0  0  0
    3.1130   11.2440   -0.7450 C   0  0  0  0  0  0  0  0  0  0  0  0
    1.9580   13.3300    0.0370 C   0  0  0  0  0  0  0  0  0  0  0  0
    1.2160   14.6220   -0.3560 C   0  0  0  0  0  0  0  0  0  0  0  0
    1.5210   15.0090   -1.8070 C   0  0  2  0  0  0  0  0  0  0  0  0
    3.0560   15.3040   -1.9110 C   0  0  0  0  0  0  0  0  0  0  0  0
    3.3250   18.1318   -1.8585 H   0  0  0  0  0  0  0  0  0  0  0  0
    2.8715   17.0948   -3.2533 H   0  0  0  0  0  0  0  0  0  0  0  0
    2.4411   18.8387   -3.2533 H   0  0  0  0  0  0  0  0  0  0  0  0
    0.4964   18.3716   -2.2679 H   0  0  0  0  0  0  0  0  0  0  0  0
    0.6195   16.9572    0.0162 H   0  0  0  0  0  0  0  0  0  0  0  0
    2.3688   17.4629   -0.1442 H   0  0  0  0  0  0  0  0  0  0  0  0
    1.6306   19.2448    1.0458 H   0  0  0  0  0  0  0  0  0  0  0  0
    1.1965   19.8173   -0.6190 H   0  0  0  0  0  0  0  0  0  0  0  0
   -0.1581   19.4877    1.5802 H   0  0  0  0  0  0  0  0  0  0  0  0
   -0.5691   20.9082   -1.7981 H   0  0  0  0  0  0  0  0  0  0  0  0
   -0.7500   19.1951   -2.3072 H   0  0  0  0  0  0  0  0  0  0  0  0
   -2.1760   20.2875   -2.3072 H   0  0  0  0  0  0  0  0  0  0  0  0
   -2.7345   20.1599    1.3107 H   0  0  0  0  0  0  0  0  0  0  0  0
   -2.9434   21.2267   -0.1193 H   0  0  0  0  0  0  0  0  0  0  0  0
   -3.6514   19.5758   -0.1193 H   0  0  0  0  0  0  0  0  0  0  0  0
   -0.2686   16.2507   -1.9739 H   0  0  0  0  0  0  0  0  0  0  0  0
   -0.1160   16.2346   -4.3851 H   0  0  0  0  0  0  0  0  0  0  0  0
    1.6037   16.6793   -4.3566 H   0  0  0  0  0  0  0  0  0  0  0  0
    0.5721   14.0671   -4.8873 H   0  0  0  0  0  0  0  0  0  0  0  0
    2.2560   14.4019   -4.4925 H   0  0  0  0  0  0  0  0  0  0  0  0
   -0.8388   13.5404   -1.6169 H   0  0  0  0  0  0  0  0  0  0  0  0
   -1.0686   14.4121   -3.1706 H   0  0  0  0  0  0  0  0  0  0  0  0
   -0.7621   12.6421   -3.1706 H   0  0  0  0  0  0  0  0  0  0  0  0
    2.8575   12.8812   -2.7069 H   0  0  0  0  0  0  0  0  0  0  0  0
    1.2340   11.7897   -4.3838 H   0  0  0  0  0  0  0  0  0  0  0  0
    2.4524   10.7798   -3.4440 H   0  0  0  0  0  0  0  0  0  0  0  0
    0.0331    9.7625   -3.6856 H   0  0  0  0  0  0  0  0  0  0  0  0
   -0.2041   12.0511   -0.3693 H   0  0  0  0  0  0  0  0  0  0  0  0
    1.5249    9.6463    0.4835 H   0  0  0  0  0  0  0  0  0  0  0  0
    1.0413   11.0645    1.5157 H   0  0  0  0  0  0  0  0  0  0  0  0
   -0.3089    9.0498    2.0015 H   0  0  0  0  0  0  0  0  0  0  0  0
   -1.2938   10.4220    1.3579 H   0  0  0  0  0  0  0  0  0  0  0  0
   -2.0275    8.3890    0.3138 H   0  0  0  0  0  0  0  0  0  0  0  0
   -0.6210    6.9330   -0.4960 H   0  0  0  0  0  0  0  0  0  0  0  0
   -2.7109   10.6513   -0.1116 H   0  0  0  0  0  0  0  0  0  0  0  0
   -2.2829   11.4560   -1.6595 H   0  0  0  0  0  0  0  0  0  0  0  0
   -3.3833   10.0362   -1.6595 H   0  0  0  0  0  0  0  0  0  0  0  0
   -2.0234    7.5843   -1.9371 H   0  0  0  0  0  0  0  0  0  0  0  0
   -2.4812    8.9196   -3.0480 H   0  0  0  0  0  0  0  0  0  0  0  0
   -0.7997    8.2878   -3.0480 H   0  0  0  0  0  0  0  0  0  0  0  0
    3.3005   11.1171    0.3314 H   0  0  0  0  0  0  0  0  0  0  0  0
    2.9675   10.2581   -1.2106 H   0  0  0  0  0  0  0  0  0  0  0  0
    3.9741   11.7458   -1.2106 H   0  0  0  0  0  0  0  0  0  0  0  0
    1.5698   13.0076    1.0144 H   0  0  0  0  0  0  0  0  0  0  0  0
    3.0249   13.5976    0.0298 H   0  0  0  0  0  0  0  0  0  0  0  0
    0.1331   14.4629   -0.2459 H   0  0  0  0  0  0  0  0  0  0  0  0
    1.5543   15.4354    0.3028 H   0  0  0  0  0  0  0  0  0  0  0  0
    3.4829   15.3860   -0.9005 H   0  0  0  0  0  0  0  0  0  0  0  0
    3.5510   14.4845   -2.4527 H   0  0  0  0  0  0  0  0  0  0  0  0
    3.2120   16.2486   -2.4527 H   0  0  0  0  0  0  0  0  0  0  0  0
  1  2  1  0
  2  3  1  0
  3  4  1  0
  4  5  1  0
  5  6  1  0
  6  7  1  0
  7  8  1  0
  7  9  1  0
  2 10  1  0
 10 11  1  0
 11 12  1  0
 12 13  1  0
 13 14  1  1
 13 15  1  0
 15 16  1  0
 16 17  1  0
 17 18  2  0
 18 19  1  0
 19 20  1  0
 20 21  1  0
 21 22  1  0
 22 23  1  0
 22 24  1  0
 24 25  1  0
 24 26  1  0
 19 27  1  0
 27 28  1  6
 27 29  1  0
 29 30  1  0
 30 31  1  0
 31 32  1  1
  7  5  1  0
 31 10  1  0
 31 13  1  0
 27 15  1  0
 24 18  1  0
  1 33  1  0
  1 34  1  0
  1 35  1  0
  2 36  1  6
  3 37  1  0
  3 38  1  0
  4 39  1  0
  4 40  1  0
  5 41  1  1
  8 42  1  0
  8 43  1  0
  8 44  1  0
  9 45  1  0
  9 46  1  0
  9 47  1  0
 10 48  1  1
 11 49  1  0
 11 50  1  0
 12 51  1  0
 12 52  1  0
 14 53  1  0
 14 54  1  0
 14 55  1  0
 15 56  1  6
 16 57  1  0
 16 58  1  0
 17 59  1  0
 19 60  1  1
 20 61  1  0
 20 62  1  0
 21 63  1  0
 21 64  1  0
 22 65  1  1
 23 66  1  0
 25 67  1  0
 25 68  1  0
 25 69  1  0
 26 70  1  0
 26 71  1  0
 26 72  1  0
 28 73  1  0
 28 74  1  0
 28 75  1  0
 29 76  1  0
 29 77  1  0
 30 78  1  0
 30 79  1  0
 32 80  1  0
 32 81  1  0
 32 82  1  0
M  END
>  <meeko>  (3) 
{"is_sidechain": [false], "intermolecular_energy": 2.731, "internal_energy": -0.839}

$$$$
EPH_relaxed_0001_pdb2pqr_Repair_392_r2_0001_out
     RDKit          3D

 82 86  0  0  0  0  0  0  0  0999 V2000
    4.2050   17.5900   -0.0270 C   0  0  0  0  0  0  0  0  0  0  0  0
    2.7920   18.1730   -0.1160 C   0  0  2  0  0  0  0  0  0  0  0  0
    2.4920   19.1480    1.0390 C   0  0  0  0  0  0  0  0  0  0  0  0
    3.7280   19.8900    1.5560 C   0  0  0  0  0  0  0  0  0  0  0  0
    4.2390   19.2930    2.8330 C   0  0  2  0  0  0  0  0  0  0  0  0
    4.9900   20.1940    3.6560 O   0  0  0  0  0  0  0  0  0  0  0  0
    5.7120   19.0730    3.1230 C   0  0  0  0  0  0  0  0  0  0  0  0
    6.7670   19.4450    2.1290 C   0  0  0  0  0  0  0  0  0  0  0  0
    6.0940   18.0560    4.1530 C   0  0  0  0  0  0  0  0  0  0  0  0
    1.7650   17.0470   -0.1280 C   0  0  1  0  0  0  0  0  0  0  0  0
    0.3330   17.5480   -0.4520 C   0  0  0  0  0  0  0  0  0  0  0  0
   -0.3570   16.4290   -1.2740 C   0  0  0  0  0  0  0  0  0  0  0  0
    0.5680   15.2000   -1.1140 C   0  0  1  0  0  0  0  0  0  0  0  0
    0.1890   14.5900    0.2720 C   0  0  0  0  0  0  0  0  0  0  0  0
    0.5020   14.1310   -2.2530 C   0  0  2  0  0  0  0  0  0  0  0  0
   -0.8640   13.4430   -2.4220 C   0  0  0  0  0  0  0  0  0  0  0  0
   -1.0530   12.1950   -1.6240 C   0  0  0  0  0  0  0  0  0  0  0  0
   -0.0720   11.4930   -1.0270 C   0  0  0  0  0  0  0  0  0  0  0  0
    1.4000   11.8860   -1.2060 C   0  0  1  0  0  0  0  0  0  0  0  0
    2.2390   10.6210   -1.5240 C   0  0  0  0  0  0  0  0  0  0  0  0
    2.0520    9.5190   -0.4860 C   0  0  0  0  0  0  0  0  0  0  0  0
    0.5840    9.1140   -0.3780 C   0  0  2  0  0  0  0  0  0  0  0  0
    0.1870    8.4910   -1.6040 O   0  0  0  0  0  0  0  0  0  0  0  0
   -0.3600   10.3100   -0.0700 C   0  0  0  0  0  0  0  0  0  0  0  0
   -0.1300   10.7930    1.3830 C   0  0  0  0  0  0  0  0  0  0  0  0
   -1.8220    9.7910   -0.1290 C   0  0  0  0  0  0  0  0  0  0  0  0
    1.6810   13.0760   -2.2220 C   0  0  1  0  0  0  0  0  0  0  0  0
    1.8160   12.5180   -3.6710 C   0  0  0  0  0  0  0  0  0  0  0  0
    3.0660   13.7370   -1.8690 C   0  0  0  0  0  0  0  0  0  0  0  0
    3.0490   14.8690   -0.8240 C   0  0  0  0  0  0  0  0  0  0  0  0
    1.9720   15.9060   -1.1560 C   0  0  2  0  0  0  0  0  0  0  0  0
    2.3400   16.5530   -2.5350 C   0  0  0  0  0  0  0  0  0  0  0  0
    4.4876   17.4734    1.0297 H   0  0  0  0  0  0  0  0  0  0  0  0
    4.2287   16.6086   -0.5234 H   0  0  0  0  0  0  0  0  0  0  0  0
    4.9138   18.2691   -0.5234 H   0  0  0  0  0  0  0  0  0  0  0  0
    2.7283   18.7440   -1.0540 H   0  0  0  0  0  0  0  0  0  0  0  0
    1.7633   19.8920    0.6848 H   0  0  0  0  0  0  0  0  0  0  0  0
    2.1055   18.5464    1.8749 H   0  0  0  0  0  0  0  0  0  0  0  0
    4.5205   19.8361    0.7950 H   0  0  0  0  0  0  0  0  0  0  0  0
    3.4433   20.9337    1.7551 H   0  0  0  0  0  0  0  0  0  0  0  0
    3.3665   18.6263    2.8981 H   0  0  0  0  0  0  0  0  0  0  0  0
    7.6752   19.7652    2.6607 H   0  0  0  0  0  0  0  0  0  0  0  0
    6.9993   18.5746    1.4978 H   0  0  0  0  0  0  0  0  0  0  0  0
    6.4020   20.2686    1.4978 H   0  0  0  0  0  0  0  0  0  0  0  0
    5.9367   18.4749    5.1579 H   0  0  0  0  0  0  0  0  0  0  0  0
    5.4722   17.1571    4.0290 H   0  0  0  0  0  0  0  0  0  0  0  0
    7.1538   17.7887    4.0290 H   0  0  0  0  0  0  0  0  0  0  0  0
    1.9017   16.6624    0.8935 H   0  0  0  0  0  0  0  0  0  0  0  0
   -0.2235   17.7323    0.4788 H   0  0  0  0  0  0  0  0  0  0  0  0
    0.3630   18.4916   -1.0166 H   0  0  0  0  0  0  0  0  0  0  0  0
   -1.3592   16.2153   -0.8741 H   0  0  0  0  0  0  0  0  0  0  0  0
   -0.4966   16.7115   -2.3279 H   0  0  0  0  0  0  0  0  0  0  0  0
    0.5859   15.2289    1.0747 H   0  0  0  0  0  0  0  0  0  0  0  0
   -0.9059   14.5296    0.3590 H   0  0  0  0  0  0  0  0  0  0  0  0
    0.6199   13.5816    0.3590 H   0  0  0  0  0  0  0  0  0  0  0  0
    0.6443   14.7405   -3.1576 H   0  0  0  0  0  0  0  0  0  0  0  0
   -1.6442   14.1587   -2.1235 H   0  0  0  0  0  0  0  0  0  0  0  0
   -0.9238   13.1408   -3.4780 H   0  0  0  0  0  0  0  0  0  0  0  0
   -2.0805   11.8177   -1.5149 H   0  0  0  0  0  0  0  0  0  0  0  0
    1.7197   12.3135   -0.2442 H   0  0  0  0  0  0  0  0  0  0  0  0
    1.9347   10.2341   -2.5077 H   0  0  0  0  0  0  0  0  0  0  0  0
    3.2996   10.9126   -1.5141 H   0  0  0  0  0  0  0  0  0  0  0  0
    2.6466    8.6419   -0.7812 H   0  0  0  0  0  0  0  0  0  0  0  0
    2.3843    9.8979    0.4918 H   0  0  0  0  0  0  0  0  0  0  0  0
    0.4946    8.4178    0.4689 H   0  0  0  0  0  0  0  0  0  0  0  0
    0.8780    7.8520   -1.8460 H   0  0  0  0  0  0  0  0  0  0  0  0
   -0.4940   10.0287    2.0854 H   0  0  0  0  0  0  0  0  0  0  0  0
    0.9446   10.9606    1.5479 H   0  0  0  0  0  0  0  0  0  0  0  0
   -0.6772   11.7329    1.5479 H   0  0  0  0  0  0  0  0  0  0  0  0
   -2.2044    9.6552    0.8934 H   0  0  0  0  0  0  0  0  0  0  0  0
   -2.4492   10.5214   -0.6611 H   0  0  0  0  0  0  0  0  0  0  0  0
   -1.8483    8.8286   -0.6611 H   0  0  0  0  0  0  0  0  0  0  0  0
    2.0745   11.4496   -3.6299 H   0  0  0  0  0  0  0  0  0  0  0  0
    0.8614   12.6441   -4.2029 H   0  0  0  0  0  0  0  0  0  0  0  0
    2.6074   13.0665   -4.2029 H   0  0  0  0  0  0  0  0  0  0  0  0
    3.7264   12.9434   -1.4893 H   0  0  0  0  0  0  0  0  0  0  0  0
    3.4047   14.2114   -2.8019 H   0  0  0  0  0  0  0  0  0  0  0  0
    2.8420   14.4402    0.1676 H   0  0  0  0  0  0  0  0  0  0  0  0
    4.0296   15.3674   -0.8311 H   0  0  0  0  0  0  0  0  0  0  0  0
    2.8773   17.4977   -2.3651 H   0  0  0  0  0  0  0  0  0  0  0  0
    2.9812   15.8637   -3.1040 H   0  0  0  0  0  0  0  0  0  0  0  0
    1.4198   16.7518   -3.1040 H   0  0  0  0  0  0  0  0  0  0  0  0
  1  2  1  0
  2  3  1  0
  3  4  1  0
  4  5  1  0
  5  6  1  0
  6  7  1  0
  7  8  1  0
  7  9  1  0
  2 10  1  0
 10 11  1  0
 11 12  1  0
 12 13  1  0
 13 14  1  1
 13 15  1  0
 15 16  1  0
 16 17  1  0
 17 18  2  0
 18 19  1  0
 19 20  1  0
 20 21  1  0
 21 22  1  0
 22 23  1  0
 22 24  1  0
 24 25  1  0
 24 26  1  0
 19 27  1  0
 27 28  1  6
 27 29  1  0
 29 30  1  0
 30 31  1  0
 31 32  1  6
  7  5  1  0
 31 10  1  0
 31 13  1  0
 27 15  1  0
 24 18  1  0
  1 33  1  0
  1 34  1  0
  1 35  1  0
  2 36  1  6
  3 37  1  0
  3 38  1  0
  4 39  1  0
  4 40  1  0
  5 41  1  1
  8 42  1  0
  8 43  1  0
  8 44  1  0
  9 45  1  0
  9 46  1  0
  9 47  1  0
 10 48  1  1
 11 49  1  0
 11 50  1  0
 12 51  1  0
 12 52  1  0
 14 53  1  0
 14 54  1  0
 14 55  1  0
 15 56  1  6
 16 57  1  0
 16 58  1  0
 17 59  1  0
 19 60  1  1
 20 61  1  0
 20 62  1  0
 21 63  1  0
 21 64  1  0
 22 65  1  1
 23 66  1  0
 25 67  1  0
 25 68  1  0
 25 69  1  0
 26 70  1  0
 26 71  1  0
 26 72  1  0
 28 73  1  0
 28 74  1  0
 28 75  1  0
 29 76  1  0
 29 77  1  0
 30 78  1  0
 30 79  1  0
 32 80  1  0
 32 81  1  0
 32 82  1  0
M  END
>  <meeko>  (4) 
{"is_sidechain": [false], "intermolecular_energy": 2.731, "internal_energy": -0.839}

$$$$
EPH_relaxed_0001_pdb2pqr_Repair_392_r2_0001_out
     RDKit          3D

 82 86  0  0  0  0  0  0  0  0999 V2000
    0.3850   18.4820   -0.1860 C   0  0  0  0  0  0  0  0  0  0  0  0
    1.4620   17.4030   -0.3320 C   0  0  2  0  0  0  0  0  0  0  0  0
    2.7120   17.9250   -1.0690 C   0  0  0  0  0  0  0  0  0  0  0  0
    3.9300   18.1100   -0.1600 C   0  0  0  0  0  0  0  0  0  0  0  0
    3.5360   18.5980    1.2020 C   0  0  2  0  0  0  0  0  0  0  0  0
    3.7410   20.0000    1.4180 O   0  0  0  0  0  0  0  0  0  0  0  0
    4.5300   19.1120    2.2260 C   0  0  0  0  0  0  0  0  0  0  0  0
    5.9970   19.1640    1.9320 C   0  0  0  0  0  0  0  0  0  0  0  0
    4.1390   19.1030    3.6710 C   0  0  0  0  0  0  0  0  0  0  0  0
    0.8910   16.1950   -1.0650 C   0  0  1  0  0  0  0  0  0  0  0  0
    0.7600   16.4310   -2.5940 C   0  0  0  0  0  0  0  0  0  0  0  0
    1.0530   15.0730   -3.2830 C   0  0  0  0  0  0  0  0  0  0  0  0
    1.0150   14.0370   -2.1350 C   0  0  1  0  0  0  0  0  0  0  0  0
   -0.5020   13.7400   -1.9140 C   0  0  0  0  0  0  0  0  0  0  0  0
    1.8330   12.7240   -2.3620 C   0  0  2  0  0  0  0  0  0  0  0  0
    1.3650   11.8600   -3.5460 C   0  0  0  0  0  0  0  0  0  0  0  0
    0.3360   10.8300   -3.2160 C   0  0  0  0  0  0  0  0  0  0  0  0
    0.0160   10.4120   -1.9770 C   0  0  0  0  0  0  0  0  0  0  0  0
    0.7870   10.9210   -0.7520 C   0  0  1  0  0  0  0  0  0  0  0  0
    1.1470    9.7230    0.1670 C   0  0  0  0  0  0  0  0  0  0  0  0
   -0.0740    8.8910    0.5480 C   0  0  0  0  0  0  0  0  0  0  0  0
   -0.7790    8.3550   -0.6950 C   0  0  2  0  0  0  0  0  0  0  0  0
    0.0810    7.4120   -1.3420 O   0  0  0  0  0  0  0  0  0  0  0  0
   -1.1820    9.4710   -1.7000 C   0  0  0  0  0  0  0  0  0  0  0  0
   -2.3360   10.3150   -1.1050 C   0  0  0  0  0  0  0  0  0  0  0  0
   -1.7550    8.7860   -2.9700 C   0  0  0  0  0  0  0  0  0  0  0  0
    2.0370   11.8540   -1.0560 C   0  0  1  0  0  0  0  0  0  0  0  0
    3.3060   10.9810   -1.2970 C   0  0  0  0  0  0  0  0  0  0  0  0
    2.3390   12.7380    0.2110 C   0  0  0  0  0  0  0  0  0  0  0  0
    1.5890   14.0790    0.3180 C   0  0  0  0  0  0  0  0  0  0  0  0
    1.6930   14.8720   -0.9890 C   0  0  2  0  0  0  0  0  0  0  0  0
    3.2060   15.2040   -1.2260 C   0  0  0  0  0  0  0  0  0  0  0  0
    0.1970   18.6704    0.8813 H   0  0  0  0  0  0  0  0  0  0  0  0
    0.7279   19.4098   -0.6672 H   0  0  0  0  0  0  0  0  0  0  0  0
   -0.5434   18.1408   -0.6672 H   0  0  0  0  0  0  0  0  0  0  0  0
    1.7755   17.1094    0.6807 H   0  0  0  0  0  0  0  0  0  0  0  0
    2.9745   17.2064   -1.8594 H   0  0  0  0  0  0  0  0  0  0  0  0
    2.4574   18.9167   -1.4711 H   0  0  0  0  0  0  0  0  0  0  0  0
    4.4479   17.1450   -0.0570 H   0  0  0  0  0  0  0  0  0  0  0  0
    4.5881   18.8635   -0.6173 H   0  0  0  0  0  0  0  0  0  0  0  0
    2.7336   17.8482    1.2644 H   0  0  0  0  0  0  0  0  0  0  0  0
    6.5598   19.1840    2.8769 H   0  0  0  0  0  0  0  0  0  0  0  0
    6.2863   18.2755    1.3515 H   0  0  0  0  0  0  0  0  0  0  0  0
    6.2227   20.0707    1.3515 H   0  0  0  0  0  0  0  0  0  0  0  0
    5.0440   19.1238    4.2959 H   0  0  0  0  0  0  0  0  0  0  0  0
    3.5222   19.9872    3.8895 H   0  0  0  0  0  0  0  0  0  0  0  0
    3.5635   18.1914    3.8895 H   0  0  0  0  0  0  0  0  0  0  0  0
   -0.0631   16.0881   -0.5281 H   0  0  0  0  0  0  0  0  0  0  0  0
   -0.2578   16.7684   -2.8394 H   0  0  0  0  0  0  0  0  0  0  0  0
    1.4614   17.2066   -2.9354 H   0  0  0  0  0  0  0  0  0  0  0  0
    0.2845   14.8460   -4.0365 H   0  0  0  0  0  0  0  0  0  0  0  0
    2.0170   15.0734   -3.8129 H   0  0  0  0  0  0  0  0  0  0  0  0
   -0.7142   13.6985   -0.8355 H   0  0  0  0  0  0  0  0  0  0  0  0
   -1.1028   14.5376   -2.3754 H   0  0  0  0  0  0  0  0  0  0  0  0
   -0.7577   12.7747   -2.3754 H   0  0  0  0  0  0  0  0  0  0  0  0
    2.8232   13.1090   -2.6469 H   0  0  0  0  0  0  0  0  0  0  0  0
    0.9428   12.5298   -4.3097 H   0  0  0  0  0  0  0  0  0  0  0  0
    2.2517   11.3059   -3.8877 H   0  0  0  0  0  0  0  0  0  0  0  0
   -0.2070   10.3738   -4.0569 H   0  0  0  0  0  0  0  0  0  0  0  0
    0.1042   11.6044   -0.2258 H   0  0  0  0  0  0  0  0  0  0  0  0
    1.8636    9.0765   -0.3607 H   0  0  0  0  0  0  0  0  0  0  0  0
    1.5763   10.1304    1.0942 H   0  0  0  0  0  0  0  0  0  0  0  0
    0.2479    8.0445    1.1723 H   0  0  0  0  0  0  0  0  0  0  0  0
   -0.7766    9.5318    1.1009 H   0  0  0  0  0  0  0  0  0  0  0  0
   -1.7137    7.8784   -0.3647 H   0  0  0  0  0  0  0  0  0  0  0  0
    0.0000    7.5510   -2.3010 H   0  0  0  0  0  0  0  0  0  0  0  0
   -2.2876   10.2796   -0.0066 H   0  0  0  0  0  0  0  0  0  0  0  0
   -2.2399   11.3574   -1.4429 H   0  0  0  0  0  0  0  0  0  0  0  0
   -3.3003    9.9075   -1.4429 H   0  0  0  0  0  0  0  0  0  0  0  0
   -2.4346    7.9735   -2.6734 H   0  0  0  0  0  0  0  0  0  0  0  0
   -2.3071    9.5258   -3.5682 H   0  0  0  0  0  0  0  0  0  0  0  0
   -0.9293    8.3733   -3.5682 H   0  0  0  0  0  0  0  0  0  0  0  0
    3.7365   10.6848   -0.3291 H   0  0  0  0  0  0  0  0  0  0  0  0
    3.0294   10.0812   -1.8660 H   0  0  0  0  0  0  0  0  0  0  0  0
    4.0475   11.5611   -1.8660 H   0  0  0  0  0  0  0  0  0  0  0  0
    2.0845   12.1427    1.1003 H   0  0  0  0  0  0  0  0  0  0  0  0
    3.4017   13.0090    0.1257 H   0  0  0  0  0  0  0  0  0  0  0  0
    0.5289   13.8819    0.5358 H   0  0  0  0  0  0  0  0  0  0  0  0
    2.0444   14.6719    1.1249 H   0  0  0  0  0  0  0  0  0  0  0  0
    3.7132   15.3153   -0.2563 H   0  0  0  0  0  0  0  0  0  0  0  0
    3.6759   14.3876   -1.7940 H   0  0  0  0  0  0  0  0  0  0  0  0
    3.2909   16.1421   -1.7940 H   0  0  0  0  0  0  0  0  0  0  0  0
  1  2  1  0
  2  3  1  0
  3  4  1  0
  4  5  1  0
  5  6  1  0
  6  7  1  0
  7  8  1  0
  7  9  1  0
  2 10  1  0
 10 11  1  0
 11 12  1  0
 12 13  1  0
 13 14  1  1
 13 15  1  0
 15 16  1  0
 16 17  1  0
 17 18  2  0
 18 19  1  0
 19 20  1  0
 20 21  1  0
 21 22  1  0
 22 23  1  0
 22 24  1  0
 24 25  1  0
 24 26  1  0
 19 27  1  0
 27 28  1  6
 27 29  1  0
 29 30  1  0
 30 31  1  0
 31 32  1  6
  7  5  1  0
 31 10  1  0
 31 13  1  0
 27 15  1  0
 24 18  1  0
  1 33  1  0
  1 34  1  0
  1 35  1  0
  2 36  1  1
  3 37  1  0
  3 38  1  0
  4 39  1  0
  4 40  1  0
  5 41  1  1
  8 42  1  0
  8 43  1  0
  8 44  1  0
  9 45  1  0
  9 46  1  0
  9 47  1  0
 10 48  1  1
 11 49  1  0
 11 50  1  0
 12 51  1  0
 12 52  1  0
 14 53  1  0
 14 54  1  0
 14 55  1  0
 15 56  1  6
 16 57  1  0
 16 58  1  0
 17 59  1  0
 19 60  1  1
 20 61  1  0
 20 62  1  0
 21 63  1  0
 21 64  1  0
 22 65  1  1
 23 66  1  0
 25 67  1  0
 25 68  1  0
 25 69  1  0
 26 70  1  0
 26 71  1  0
 26 72  1  0
 28 73  1  0
 28 74  1  0
 28 75  1  0
 29 76  1  0
 29 77  1  0
 30 78  1  0
 30 79  1  0
 32 80  1  0
 32 81  1  0
 32 82  1  0
M  END
>  <meeko>  (5) 
{"is_sidechain": [false], "intermolecular_energy": 2.731, "internal_energy": -0.839}

$$$$
EPH_relaxed_0001_pdb2pqr_Repair_392_r2_0001_out
     RDKit          3D

 82 86  0  0  0  0  0  0  0  0999 V2000
    3.7830   17.7660    0.8320 C   0  0  0  0  0  0  0  0  0  0  0  0
    2.8430   18.1520   -0.3140 C   0  0  2  0  0  0  0  0  0  0  0  0
    2.1450   19.5030   -0.0620 C   0  0  0  0  0  0  0  0  0  0  0  0
    1.0190   19.4310    0.9720 C   0  0  0  0  0  0  0  0  0  0  0  0
   -0.2400   20.0670    0.4670 C   0  0  2  0  0  0  0  0  0  0  0  0
   -1.2820   20.1920    1.4430 O   0  0  0  0  0  0  0  0  0  0  0  0
   -1.5570   19.3250    0.3310 C   0  0  0  0  0  0  0  0  0  0  0  0
   -1.6800   17.8810    0.7010 C   0  0  0  0  0  0  0  0  0  0  0  0
   -2.5870   19.8630   -0.6120 C   0  0  0  0  0  0  0  0  0  0  0  0
    1.8020   17.0590   -0.5230 C   0  0  1  0  0  0  0  0  0  0  0  0
    0.5710   17.5520   -1.3290 C   0  0  0  0  0  0  0  0  0  0  0  0
    0.0990   16.3590   -2.1990 C   0  0  0  0  0  0  0  0  0  0  0  0
    0.8530   15.1360   -1.6270 C   0  0  1  0  0  0  0  0  0  0  0  0
    0.0300   14.7090   -0.3710 C   0  0  0  0  0  0  0  0  0  0  0  0
    1.0730   13.9380   -2.6070 C   0  0  2  0  0  0  0  0  0  0  0  0
   -0.2150   13.2690   -3.1180 C   0  0  0  0  0  0  0  0  0  0  0  0
   -0.7160   12.1330   -2.2890 C   0  0  0  0  0  0  0  0  0  0  0  0
   -0.0100   11.4840   -1.3440 C   0  0  0  0  0  0  0  0  0  0  0  0
    1.4670   11.8160   -1.0970 C   0  0  1  0  0  0  0  0  0  0  0  0
    2.2840   10.5010   -0.9980 C   0  0  0  0  0  0  0  0  0  0  0  0
    1.7200    9.5390    0.0430 C   0  0  0  0  0  0  0  0  0  0  0  0
    0.2680    9.1870   -0.2700 C   0  0  2  0  0  0  0  0  0  0  0  0
    0.2270    8.4290   -1.4830 O   0  0  0  0  0  0  0  0  0  0  0  0
   -0.6500   10.4350   -0.4020 C   0  0  0  0  0  0  0  0  0  0  0  0
   -0.8470   11.0860    0.9890 C   0  0  0  0  0  0  0  0  0  0  0  0
   -2.0530    9.9490   -0.8570 C   0  0  0  0  0  0  0  0  0  0  0  0
    2.1180   12.8660   -2.0970 C   0  0  1  0  0  0  0  0  0  0  0  0
    2.6570   12.1310   -3.3620 C   0  0  0  0  0  0  0  0  0  0  0  0
    3.3670   13.5300   -1.4040 C   0  0  0  0  0  0  0  0  0  0  0  0
    3.1010   14.7800   -0.5440 C   0  0  0  0  0  0  0  0  0  0  0  0
    2.2430   15.7960   -1.3050 C   0  0  2  0  0  0  0  0  0  0  0  0
    3.0550   16.2610   -2.5620 C   0  0  0  0  0  0  0  0  0  0  0  0
    3.2902   17.9684    1.7944 H   0  0  0  0  0  0  0  0  0  0  0  0
    4.0258   16.6954    0.7623 H   0  0  0  0  0  0  0  0  0  0  0  0
    4.7081   18.3570    0.7623 H   0  0  0  0  0  0  0  0  0  0  0  0
    3.4550   18.2608   -1.2216 H   0  0  0  0  0  0  0  0  0  0  0  0
    2.8979   20.2216    0.2941 H   0  0  0  0  0  0  0  0  0  0  0  0
    1.6877   19.8108   -1.0139 H   0  0  0  0  0  0  0  0  0  0  0  0
    0.8162   18.3753    1.2050 H   0  0  0  0  0  0  0  0  0  0  0  0
    1.3429   19.9782    1.8696 H   0  0  0  0  0  0  0  0  0  0  0  0
    0.3308   20.6921   -0.2355 H   0  0  0  0  0  0  0  0  0  0  0  0
   -1.6884   17.7826    1.7966 H   0  0  0  0  0  0  0  0  0  0  0  0
   -2.6159   17.4754    0.2893 H   0  0  0  0  0  0  0  0  0  0  0  0
   -0.8261   17.3230    0.2893 H   0  0  0  0  0  0  0  0  0  0  0  0
   -3.4186   20.2974   -0.0377 H   0  0  0  0  0  0  0  0  0  0  0  0
   -2.1339   20.6396   -1.2457 H   0  0  0  0  0  0  0  0  0  0  0  0
   -2.9656   19.0475   -1.2457 H   0  0  0  0  0  0  0  0  0  0  0  0
    1.5957   16.7990    0.5257 H   0  0  0  0  0  0  0  0  0  0  0  0
   -0.2315   17.8616   -0.6433 H   0  0  0  0  0  0  0  0  0  0  0  0
    0.8300   18.4189   -1.9546 H   0  0  0  0  0  0  0  0  0  0  0  0
   -0.9887   16.2206   -2.1108 H   0  0  0  0  0  0  0  0  0  0  0  0
    0.3070   16.5145   -3.2679 H   0  0  0  0  0  0  0  0  0  0  0  0
    0.5773   14.9930    0.5399 H   0  0  0  0  0  0  0  0  0  0  0  0
   -0.9472   15.2138   -0.3840 H   0  0  0  0  0  0  0  0  0  0  0  0
   -0.1200   13.6193   -0.3840 H   0  0  0  0  0  0  0  0  0  0  0  0
    1.5227   14.4292   -3.4825 H   0  0  0  0  0  0  0  0  0  0  0  0
   -1.0035   14.0350   -3.1568 H   0  0  0  0  0  0  0  0  0  0  0  0
    0.0333   12.8420   -4.1008 H   0  0  0  0  0  0  0  0  0  0  0  0
   -1.7489   11.7980   -2.4651 H   0  0  0  0  0  0  0  0  0  0  0  0
    1.5023   12.3499   -0.1359 H   0  0  0  0  0  0  0  0  0  0  0  0
    2.2732   10.0044   -1.9795 H   0  0  0  0  0  0  0  0  0  0  0  0
    3.3062   10.7654   -0.6893 H   0  0  0  0  0  0  0  0  0  0  0  0
    2.3213    8.6179    0.0453 H   0  0  0  0  0  0  0  0  0  0  0  0
    1.7588   10.0259    1.0286 H   0  0  0  0  0  0  0  0  0  0  0  0
   -0.1186    8.6009    0.5768 H   0  0  0  0  0  0  0  0  0  0  0  0
   -0.2500    7.6030   -1.2980 H   0  0  0  0  0  0  0  0  0  0  0  0
   -0.6238   10.3484    1.7740 H   0  0  0  0  0  0  0  0  0  0  0  0
   -0.1689   11.9462    1.0906 H   0  0  0  0  0  0  0  0  0  0  0  0
   -1.8882   11.4259    1.0906 H   0  0  0  0  0  0  0  0  0  0  0  0
   -2.6714    9.7348    0.0271 H   0  0  0  0  0  0  0  0  0  0  0  0
   -2.5347   10.7326   -1.4602 H   0  0  0  0  0  0  0  0  0  0  0  0
   -1.9467    9.0353   -1.4602 H   0  0  0  0  0  0  0  0  0  0  0  0
    3.2813   11.2796   -3.0532 H   0  0  0  0  0  0  0  0  0  0  0  0
    1.8107   11.7663   -3.9626 H   0  0  0  0  0  0  0  0  0  0  0  0
    3.2592   12.8285   -3.9626 H   0  0  0  0  0  0  0  0  0  0  0  0
    3.8297   12.7719   -0.7551 H   0  0  0  0  0  0  0  0  0  0  0  0
    4.0031   13.8793   -2.2307 H   0  0  0  0  0  0  0  0  0  0  0  0
    2.5743   14.4800    0.3739 H   0  0  0  0  0  0  0  0  0  0  0  0
    4.0653   15.2489   -0.2985 H   0  0  0  0  0  0  0  0  0  0  0  0
    3.9669   16.7832   -2.2368 H   0  0  0  0  0  0  0  0  0  0  0  0
    3.3304   15.3837   -3.1658 H   0  0  0  0  0  0  0  0  0  0  0  0
    2.4377   16.9425   -3.1658 H   0  0  0  0  0  0  0  0  0  0  0  0
  1  2  1  0
  2  3  1  0
  3  4  1  0
  4  5  1  0
  5  6  1  0
  6  7  1  0
  7  8  1  0
  7  9  1  0
  2 10  1  0
 10 11  1  0
 11 12  1  0
 12 13  1  0
 13 14  1  1
 13 15  1  0
 15 16  1  0
 16 17  1  0
 17 18  2  0
 18 19  1  0
 19 20  1  0
 20 21  1  0
 21 22  1  0
 22 23  1  0
 22 24  1  0
 24 25  1  0
 24 26  1  0
 19 27  1  0
 27 28  1  6
 27 29  1  0
 29 30  1  0
 30 31  1  0
 31 32  1  6
  7  5  1  0
 31 10  1  0
 31 13  1  0
 27 15  1  0
 24 18  1  0
  1 33  1  0
  1 34  1  0
  1 35  1  0
  2 36  1  6
  3 37  1  0
  3 38  1  0
  4 39  1  0
  4 40  1  0
  5 41  1  6
  8 42  1  0
  8 43  1  0
  8 44  1  0
  9 45  1  0
  9 46  1  0
  9 47  1  0
 10 48  1  1
 11 49  1  0
 11 50  1  0
 12 51  1  0
 12 52  1  0
 14 53  1  0
 14 54  1  0
 14 55  1  0
 15 56  1  6
 16 57  1  0
 16 58  1  0
 17 59  1  0
 19 60  1  1
 20 61  1  0
 20 62  1  0
 21 63  1  0
 21 64  1  0
 22 65  1  1
 23 66  1  0
 25 67  1  0
 25 68  1  0
 25 69  1  0
 26 70  1  0
 26 71  1  0
 26 72  1  0
 28 73  1  0
 28 74  1  0
 28 75  1  0
 29 76  1  0
 29 77  1  0
 30 78  1  0
 30 79  1  0
 32 80  1  0
 32 81  1  0
 32 82  1  0
M  END
>  <meeko>  (6) 
{"is_sidechain": [false], "intermolecular_energy": 2.731, "internal_energy": -0.839}

$$$$
EPH_relaxed_0001_pdb2pqr_Repair_392_r2_0001_out
     RDKit          3D

 82 86  0  0  0  0  0  0  0  0999 V2000
  -12.8860    8.9380    2.1560 C   0  0  0  0  0  0  0  0  0  0  0  0
  -13.0580    9.0540    0.6390 C   0  0  2  0  0  0  0  0  0  0  0  0
  -14.4710    8.6390    0.1810 C   0  0  0  0  0  0  0  0  0  0  0  0
  -15.2450    9.7600   -0.5180 C   0  0  0  0  0  0  0  0  0  0  0  0
  -15.1010    9.6870   -2.0080 C   0  0  2  0  0  0  0  0  0  0  0  0
  -13.8170   10.0870   -2.5060 O   0  0  0  0  0  0  0  0  0  0  0  0
  -14.9310   10.9080   -2.8930 C   0  0  0  0  0  0  0  0  0  0  0  0
  -14.8980   12.2900   -2.3180 C   0  0  0  0  0  0  0  0  0  0  0  0
  -15.2870   10.7970   -4.3430 C   0  0  0  0  0  0  0  0  0  0  0  0
  -12.0110    8.2030   -0.0700 C   0  0  1  0  0  0  0  0  0  0  0  0
  -12.6180    7.3200   -1.1920 C   0  0  0  0  0  0  0  0  0  0  0  0
  -11.5590    7.2390   -2.3210 C   0  0  0  0  0  0  0  0  0  0  0  0
  -10.2640    7.7920   -1.6800 C   0  0  1  0  0  0  0  0  0  0  0  0
   -9.6750    6.5950   -0.8700 C   0  0  0  0  0  0  0  0  0  0  0  0
   -9.2100    8.3970   -2.6640 C   0  0  2  0  0  0  0  0  0  0  0  0
   -8.6260    7.4050   -3.6850 C   0  0  0  0  0  0  0  0  0  0  0  0
   -7.3900    6.6910   -3.2450 C   0  0  0  0  0  0  0  0  0  0  0  0
   -6.6140    7.0410   -2.2030 C   0  0  0  0  0  0  0  0  0  0  0  0
   -6.8990    8.3180   -1.4030 C   0  0  1  0  0  0  0  0  0  0  0  0
   -5.5770    9.1020   -1.1900 C   0  0  0  0  0  0  0  0  0  0  0  0
   -4.4850    8.2470   -0.5550 C   0  0  0  0  0  0  0  0  0  0  0  0
   -4.1890    7.0170   -1.4100 C   0  0  2  0  0  0  0  0  0  0  0  0
   -3.6050    7.4430   -2.6440 O   0  0  0  0  0  0  0  0  0  0  0  0
   -5.4490    6.1540   -1.6980 C   0  0  0  0  0  0  0  0  0  0  0  0
   -5.9050    5.4470   -0.3980 C   0  0  0  0  0  0  0  0  0  0  0  0
   -5.0400    5.0270   -2.6840 C   0  0  0  0  0  0  0  0  0  0  0  0
   -8.0710    9.2370   -1.9570 C   0  0  1  0  0  0  0  0  0  0  0  0
   -7.5130   10.2220   -3.0300 C   0  0  0  0  0  0  0  0  0  0  0  0
   -8.6250   10.1280   -0.7830 C   0  0  0  0  0  0  0  0  0  0  0  0
   -9.7490    9.5200    0.0790 C   0  0  0  0  0  0  0  0  0  0  0  0
  -10.8650    8.9470   -0.7990 C   0  0  2  0  0  0  0  0  0  0  0  0
  -11.4910   10.1320   -1.6110 C   0  0  0  0  0  0  0  0  0  0  0  0
  -13.6967    9.4848    2.6598 H   0  0  0  0  0  0  0  0  0  0  0  0
  -12.9211    7.8783    2.4490 H   0  0  0  0  0  0  0  0  0  0  0  0
  -11.9167    9.3676    2.4490 H   0  0  0  0  0  0  0  0  0  0  0  0
  -12.9210   10.1121    0.3712 H   0  0  0  0  0  0  0  0  0  0  0  0
  -14.3757    7.7947   -0.5176 H   0  0  0  0  0  0  0  0  0  0  0  0
  -15.0372    8.3729    1.0858 H   0  0  0  0  0  0  0  0  0  0  0  0
  -16.3103    9.6735   -0.2581 H   0  0  0  0  0  0  0  0  0  0  0  0
  -14.8340   10.7229   -0.1804 H   0  0  0  0  0  0  0  0  0  0  0  0
  -15.7900    8.8309   -2.0562 H   0  0  0  0  0  0  0  0  0  0  0  0
  -14.8994   12.2303   -1.2196 H   0  0  0  0  0  0  0  0  0  0  0  0
  -13.9873   12.8061   -2.6560 H   0  0  0  0  0  0  0  0  0  0  0  0
  -15.7831   12.8490   -2.6560 H   0  0  0  0  0  0  0  0  0  0  0  0
  -16.3331   10.4708   -4.4398 H   0  0  0  0  0  0  0  0  0  0  0  0
  -15.1621   11.7767   -4.8273 H   0  0  0  0  0  0  0  0  0  0  0  0
  -14.6274   10.0619   -4.8273 H   0  0  0  0  0  0  0  0  0  0  0  0
  -11.6113    7.6479    0.7914 H   0  0  0  0  0  0  0  0  0  0  0  0
  -12.8368    6.3138   -0.8052 H   0  0  0  0  0  0  0  0  0  0  0  0
  -13.5602    7.7482   -1.5648 H   0  0  0  0  0  0  0  0  0  0  0  0
  -11.4173    6.1980   -2.6469 H   0  0  0  0  0  0  0  0  0  0  0  0
  -11.8575    7.8060   -3.2151 H   0  0  0  0  0  0  0  0  0  0  0  0
   -9.7743    6.7967    0.2068 H   0  0  0  0  0  0  0  0  0  0  0  0
  -10.2237    5.6758   -1.1229 H   0  0  0  0  0  0  0  0  0  0  0  0
   -8.6119    6.4688   -1.1229 H   0  0  0  0  0  0  0  0  0  0  0  0
   -9.8133    9.1068   -3.2490 H   0  0  0  0  0  0  0  0  0  0  0  0
   -9.3953    6.6498   -3.9037 H   0  0  0  0  0  0  0  0  0  0  0  0
   -8.3361    8.0044   -4.5606 H   0  0  0  0  0  0  0  0  0  0  0  0
   -7.0887    5.8040   -3.8216 H   0  0  0  0  0  0  0  0  0  0  0  0
   -7.2965    7.9858   -0.4326 H   0  0  0  0  0  0  0  0  0  0  0  0
   -5.2197    9.4624   -2.1660 H   0  0  0  0  0  0  0  0  0  0  0  0
   -5.7899    9.9349   -0.5038 H   0  0  0  0  0  0  0  0  0  0  0  0
   -3.5683    8.8473   -0.4582 H   0  0  0  0  0  0  0  0  0  0  0  0
   -4.8315    7.9122    0.4339 H   0  0  0  0  0  0  0  0  0  0  0  0
   -3.4955    6.3794   -0.8421 H   0  0  0  0  0  0  0  0  0  0  0  0
   -2.6710    7.1730   -2.6370 H   0  0  0  0  0  0  0  0  0  0  0  0
   -5.5411    6.0113    0.4733 H   0  0  0  0  0  0  0  0  0  0  0  0
   -7.0037    5.4006   -0.3719 H   0  0  0  0  0  0  0  0  0  0  0  0
   -5.4942    4.4269   -0.3719 H   0  0  0  0  0  0  0  0  0  0  0  0
   -4.7187    4.1416   -2.1159 H   0  0  0  0  0  0  0  0  0  0  0  0
   -5.9000    4.7640   -3.3174 H   0  0  0  0  0  0  0  0  0  0  0  0
   -4.2115    5.3768   -3.3174 H   0  0  0  0  0  0  0  0  0  0  0  0
   -7.0302   11.0743   -2.5295 H   0  0  0  0  0  0  0  0  0  0  0  0
   -6.7762    9.7005   -3.6586 H   0  0  0  0  0  0  0  0  0  0  0  0
   -8.3391   10.5859   -3.6586 H   0  0  0  0  0  0  0  0  0  0  0  0
   -7.7823   10.3607   -0.1154 H   0  0  0  0  0  0  0  0  0  0  0  0
   -9.0787   11.0018   -1.2737 H   0  0  0  0  0  0  0  0  0  0  0  0
   -9.3303    8.7143    0.6999 H   0  0  0  0  0  0  0  0  0  0  0  0
  -10.1734   10.3133    0.7118 H   0  0  0  0  0  0  0  0  0  0  0  0
  -11.8885   10.8845   -0.9140 H   0  0  0  0  0  0  0  0  0  0  0  0
  -10.7178   10.5912   -2.2445 H   0  0  0  0  0  0  0  0  0  0  0  0
  -12.3061    9.7522   -2.2445 H   0  0  0  0  0  0  0  0  0  0  0  0
  1  2  1  0
  2  3  1  0
  3  4  1  0
  4  5  1  0
  5  6  1  0
  6  7  1  0
  7  8  1  0
  7  9  1  0
  2 10  1  0
 10 11  1  0
 11 12  1  0
 12 13  1  0
 13 14  1  1
 13 15  1  0
 15 16  1  0
 16 17  1  0
 17 18  2  0
 18 19  1  0
 19 20  1  0
 20 21  1  0
 21 22  1  0
 22 23  1  0
 22 24  1  0
 24 25  1  0
 24 26  1  0
 19 27  1  0
 27 28  1  6
 27 29  1  0
 29 30  1  0
 30 31  1  0
 31 32  1  6
  7  5  1  0
 31 10  1  0
 31 13  1  0
 27 15  1  0
 24 18  1  0
  1 33  1  0
  1 34  1  0
  1 35  1  0
  2 36  1  6
  3 37  1  0
  3 38  1  0
  4 39  1  0
  4 40  1  0
  5 41  1  6
  8 42  1  0
  8 43  1  0
  8 44  1  0
  9 45  1  0
  9 46  1  0
  9 47  1  0
 10 48  1  1
 11 49  1  0
 11 50  1  0
 12 51  1  0
 12 52  1  0
 14 53  1  0
 14 54  1  0
 14 55  1  0
 15 56  1  6
 16 57  1  0
 16 58  1  0
 17 59  1  0
 19 60  1  1
 20 61  1  0
 20 62  1  0
 21 63  1  0
 21 64  1  0
 22 65  1  1
 23 66  1  0
 25 67  1  0
 25 68  1  0
 25 69  1  0
 26 70  1  0
 26 71  1  0
 26 72  1  0
 28 73  1  0
 28 74  1  0
 28 75  1  0
 29 76  1  0
 29 77  1  0
 30 78  1  0
 30 79  1  0
 32 80  1  0
 32 81  1  0
 32 82  1  0
M  END
>  <meeko>  (7) 
{"is_sidechain": [false], "intermolecular_energy": 2.731, "internal_energy": -0.839}

$$$$
EPH_relaxed_0001_pdb2pqr_Repair_392_r2_0001_out
     RDKit          3D

 82 86  0  0  0  0  0  0  0  0999 V2000
   -5.0760    5.9740   -1.8320 C   0  0  0  0  0  0  0  0  0  0  0  0
   -5.3970    7.4710   -1.8410 C   0  0  2  0  0  0  0  0  0  0  0  0
   -5.1650    8.1230   -0.4630 C   0  0  0  0  0  0  0  0  0  0  0  0
   -4.0800    9.2040   -0.4690 C   0  0  0  0  0  0  0  0  0  0  0  0
   -2.7380    8.6400   -0.8250 C   0  0  2  0  0  0  0  0  0  0  0  0
   -1.6950    8.9390    0.1120 O   0  0  0  0  0  0  0  0  0  0  0  0
   -1.5440    9.4960   -1.2040 C   0  0  0  0  0  0  0  0  0  0  0  0
   -1.6380   10.9890   -1.2470 C   0  0  0  0  0  0  0  0  0  0  0  0
   -0.4400    8.8730   -2.0000 C   0  0  0  0  0  0  0  0  0  0  0  0
   -6.8390    7.6910   -2.2840 C   0  0  1  0  0  0  0  0  0  0  0  0
   -7.1640    6.9860   -3.6290 C   0  0  0  0  0  0  0  0  0  0  0  0
   -8.6360    6.5090   -3.5390 C   0  0  0  0  0  0  0  0  0  0  0  0
   -9.2070    7.2360   -2.2990 C   0  0  1  0  0  0  0  0  0  0  0  0
   -9.5700    8.6670   -2.8040 C   0  0  0  0  0  0  0  0  0  0  0  0
  -10.4210    6.5480   -1.5930 C   0  0  2  0  0  0  0  0  0  0  0  0
  -11.6870    6.4140   -2.4560 C   0  0  0  0  0  0  0  0  0  0  0  0
  -12.6440    7.5570   -2.3680 C   0  0  0  0  0  0  0  0  0  0  0  0
  -12.6360    8.5110   -1.4180 C   0  0  0  0  0  0  0  0  0  0  0  0
  -11.6540    8.4440   -0.2420 C   0  0  1  0  0  0  0  0  0  0  0  0
  -12.4120    8.7280    1.0820 C   0  0  0  0  0  0  0  0  0  0  0  0
  -13.1860   10.0420    1.0420 C   0  0  0  0  0  0  0  0  0  0  0  0
  -14.1930   10.0470   -0.1050 C   0  0  2  0  0  0  0  0  0  0  0  0
  -15.2030    9.0710    0.1640 O   0  0  0  0  0  0  0  0  0  0  0  0
  -13.5460    9.7620   -1.4890 C   0  0  0  0  0  0  0  0  0  0  0  0
  -12.6770   10.9710   -1.9170 C   0  0  0  0  0  0  0  0  0  0  0  0
  -14.6870    9.6550   -2.5360 C   0  0  0  0  0  0  0  0  0  0  0  0
  -10.7560    7.1350   -0.1620 C   0  0  1  0  0  0  0  0  0  0  0  0
  -11.5160    6.0150    0.6120 C   0  0  0  0  0  0  0  0  0  0  0  0
   -9.4600    7.4510    0.6740 C   0  0  0  0  0  0  0  0  0  0  0  0
   -8.2540    8.0170   -0.1010 C   0  0  0  0  0  0  0  0  0  0  0  0
   -7.9580    7.1750   -1.3460 C   0  0  2  0  0  0  0  0  0  0  0  0
   -7.5680    5.7350   -0.8670 C   0  0  0  0  0  0  0  0  0  0  0  0
   -5.0004    5.6215   -0.7928 H   0  0  0  0  0  0  0  0  0  0  0  0
   -5.8767    5.4242   -2.3484 H   0  0  0  0  0  0  0  0  0  0  0  0
   -4.1203    5.8008   -2.3484 H   0  0  0  0  0  0  0  0  0  0  0  0
   -4.7111    7.9518   -2.5540 H   0  0  0  0  0  0  0  0  0  0  0  0
   -6.1090    8.5801   -0.1316 H   0  0  0  0  0  0  0  0  0  0  0  0
   -4.8232    7.3278    0.2158 H   0  0  0  0  0  0  0  0  0  0  0  0
   -4.3493    9.9754   -1.2055 H   0  0  0  0  0  0  0  0  0  0  0  0
   -4.0153    9.6307    0.5428 H   0  0  0  0  0  0  0  0  0  0  0  0
   -3.2062    7.7708   -1.3101 H   0  0  0  0  0  0  0  0  0  0  0  0
   -1.6629   11.3845   -0.2209 H   0  0  0  0  0  0  0  0  0  0  0  0
   -0.7637   11.3964   -1.7759 H   0  0  0  0  0  0  0  0  0  0  0  0
   -2.5565   11.2835   -1.7759 H   0  0  0  0  0  0  0  0  0  0  0  0
    0.3107    8.4493   -1.3167 H   0  0  0  0  0  0  0  0  0  0  0  0
   -0.8511    8.0737   -2.6341 H   0  0  0  0  0  0  0  0  0  0  0  0
    0.0317    9.6381   -2.6341 H   0  0  0  0  0  0  0  0  0  0  0  0
   -6.8556    8.7903   -2.3196 H   0  0  0  0  0  0  0  0  0  0  0  0
   -7.0446    7.6910   -4.4649 H   0  0  0  0  0  0  0  0  0  0  0  0
   -6.4843    6.1393   -3.8057 H   0  0  0  0  0  0  0  0  0  0  0  0
   -9.1919    6.7918   -4.4451 H   0  0  0  0  0  0  0  0  0  0  0  0
   -8.7154    5.4151   -3.4544 H   0  0  0  0  0  0  0  0  0  0  0  0
   -9.7378    9.3286   -1.9414 H   0  0  0  0  0  0  0  0  0  0  0  0
   -8.7435    9.0614   -3.4133 H   0  0  0  0  0  0  0  0  0  0  0  0
  -10.4846    8.6198   -3.4133 H   0  0  0  0  0  0  0  0  0  0  0  0
  -10.0546    5.5222   -1.4394 H   0  0  0  0  0  0  0  0  0  0  0  0
  -11.3736    6.3134   -3.5056 H   0  0  0  0  0  0  0  0  0  0  0  0
  -12.2260    5.5360   -2.0705 H   0  0  0  0  0  0  0  0  0  0  0  0
  -13.4204    7.6252   -3.1443 H   0  0  0  0  0  0  0  0  0  0  0  0
  -10.9089    9.2328   -0.4226 H   0  0  0  0  0  0  0  0  0  0  0  0
  -13.1204    7.9068    1.2660 H   0  0  0  0  0  0  0  0  0  0  0  0
  -11.6643    8.8049    1.8852 H   0  0  0  0  0  0  0  0  0  0  0  0
  -13.7230   10.1726    1.9931 H   0  0  0  0  0  0  0  0  0  0  0  0
  -12.4729   10.8650    0.8868 H   0  0  0  0  0  0  0  0  0  0  0  0
  -14.6231   11.0578   -0.1620 H   0  0  0  0  0  0  0  0  0  0  0  0
  -15.2880    8.9940    1.1300 H   0  0  0  0  0  0  0  0  0  0  0  0
  -12.3041   11.4898   -1.0216 H   0  0  0  0  0  0  0  0  0  0  0  0
  -11.8256   10.6166   -2.5167 H   0  0  0  0  0  0  0  0  0  0  0  0
  -13.2842   11.6650   -2.5167 H   0  0  0  0  0  0  0  0  0  0  0  0
  -15.6530    9.5644   -2.0177 H   0  0  0  0  0  0  0  0  0  0  0  0
  -14.6921   10.5566   -3.1661 H   0  0  0  0  0  0  0  0  0  0  0  0
  -14.5244    8.7682   -3.1661 H   0  0  0  0  0  0  0  0  0  0  0  0
  -11.4056    6.1776    1.6943 H   0  0  0  0  0  0  0  0  0  0  0  0
  -12.5825    6.0429    0.3439 H   0  0  0  0  0  0  0  0  0  0  0  0
  -11.0961    5.0343    0.3439 H   0  0  0  0  0  0  0  0  0  0  0  0
   -9.7331    8.1847    1.4467 H   0  0  0  0  0  0  0  0  0  0  0  0
   -9.1227    6.4781    1.0608 H   0  0  0  0  0  0  0  0  0  0  0  0
   -8.4767    9.0492   -0.4093 H   0  0  0  0  0  0  0  0  0  0  0  0
   -7.3723    7.9931    0.5563 H   0  0  0  0  0  0  0  0  0  0  0  0
   -7.5596    5.7040    0.2325 H   0  0  0  0  0  0  0  0  0  0  0  0
   -8.3022    5.0102   -1.2486 H   0  0  0  0  0  0  0  0  0  0  0  0
   -6.5684    5.4798   -1.2486 H   0  0  0  0  0  0  0  0  0  0  0  0
  1  2  1  0
  2  3  1  0
  3  4  1  0
  4  5  1  0
  5  6  1  0
  6  7  1  0
  7  8  1  0
  7  9  1  0
  2 10  1  0
 10 11  1  0
 11 12  1  0
 12 13  1  0
 13 14  1  6
 13 15  1  0
 15 16  1  0
 16 17  1  0
 17 18  2  0
 18 19  1  0
 19 20  1  0
 20 21  1  0
 21 22  1  0
 22 23  1  0
 22 24  1  0
 24 25  1  0
 24 26  1  0
 19 27  1  0
 27 28  1  1
 27 29  1  0
 29 30  1  0
 30 31  1  0
 31 32  1  1
  7  5  1  0
 31 10  1  0
 31 13  1  0
 27 15  1  0
 24 18  1  0
  1 33  1  0
  1 34  1  0
  1 35  1  0
  2 36  1  6
  3 37  1  0
  3 38  1  0
  4 39  1  0
  4 40  1  0
  5 41  1  6
  8 42  1  0
  8 43  1  0
  8 44  1  0
  9 45  1  0
  9 46  1  0
  9 47  1  0
 10 48  1  6
 11 49  1  0
 11 50  1  0
 12 51  1  0
 12 52  1  0
 14 53  1  0
 14 54  1  0
 14 55  1  0
 15 56  1  1
 16 57  1  0
 16 58  1  0
 17 59  1  0
 19 60  1  6
 20 61  1  0
 20 62  1  0
 21 63  1  0
 21 64  1  0
 22 65  1  6
 23 66  1  0
 25 67  1  0
 25 68  1  0
 25 69  1  0
 26 70  1  0
 26 71  1  0
 26 72  1  0
 28 73  1  0
 28 74  1  0
 28 75  1  0
 29 76  1  0
 29 77  1  0
 30 78  1  0
 30 79  1  0
 32 80  1  0
 32 81  1  0
 32 82  1  0
M  END
>  <meeko>  (8) 
{"is_sidechain": [false], "intermolecular_energy": 2.731, "internal_energy": -0.839}

$$$$
EPH_relaxed_0001_pdb2pqr_Repair_392_r2_0001_out
     RDKit          3D

 82 86  0  0  0  0  0  0  0  0999 V2000
   -5.2790    6.6780   -0.4610 C   0  0  0  0  0  0  0  0  0  0  0  0
   -5.1690    8.1300   -0.9330 C   0  0  2  0  0  0  0  0  0  0  0  0
   -4.0920    8.9130   -0.1550 C   0  0  0  0  0  0  0  0  0  0  0  0
   -2.6870    8.7830   -0.7490 C   0  0  0  0  0  0  0  0  0  0  0  0
   -1.8000    9.9150   -0.3260 C   0  0  2  0  0  0  0  0  0  0  0  0
   -1.7840   11.0310   -1.2250 O   0  0  0  0  0  0  0  0  0  0  0  0
   -0.5450   10.3190   -1.0770 C   0  0  0  0  0  0  0  0  0  0  0  0
   -0.1070    9.5960   -2.3120 C   0  0  0  0  0  0  0  0  0  0  0  0
    0.5100   11.0900   -0.3450 C   0  0  0  0  0  0  0  0  0  0  0  0
   -6.5180    8.8250   -0.7970 C   0  0  1  0  0  0  0  0  0  0  0  0
   -6.5160   10.2570   -1.3960 C   0  0  0  0  0  0  0  0  0  0  0  0
   -7.9230   10.4900   -2.0040 C   0  0  0  0  0  0  0  0  0  0  0  0
   -8.7840    9.3310   -1.4500 C   0  0  1  0  0  0  0  0  0  0  0  0
   -9.1920    9.7850   -0.0130 C   0  0  0  0  0  0  0  0  0  0  0  0
  -10.0300    8.9270   -2.3030 C   0  0  2  0  0  0  0  0  0  0  0  0
  -11.0950   10.0260   -2.4630 C   0  0  0  0  0  0  0  0  0  0  0  0
  -12.1630   10.0360   -1.4200 C   0  0  0  0  0  0  0  0  0  0  0  0
  -12.4290    9.0320   -0.5630 C   0  0  0  0  0  0  0  0  0  0  0  0
  -11.6790    7.6970   -0.6570 C   0  0  1  0  0  0  0  0  0  0  0  0
  -12.6930    6.5260   -0.5650 C   0  0  0  0  0  0  0  0  0  0  0  0
  -13.5760    6.6130    0.6750 C   0  0  0  0  0  0  0  0  0  0  0  0
  -14.3500    7.9290    0.7030 C   0  0  2  0  0  0  0  0  0  0  0  0
  -15.2870    7.9360   -0.3780 O   0  0  0  0  0  0  0  0  0  0  0  0
  -13.4330    9.1810    0.6070 C   0  0  0  0  0  0  0  0  0  0  0  0
  -12.6280    9.3390    1.9210 C   0  0  0  0  0  0  0  0  0  0  0  0
  -14.3440   10.4330    0.5020 C   0  0  0  0  0  0  0  0  0  0  0  0
  -10.6820    7.5470   -1.8850 C   0  0  1  0  0  0  0  0  0  0  0  0
  -11.4530    7.0220   -3.1350 C   0  0  0  0  0  0  0  0  0  0  0  0
   -9.6010    6.4550   -1.5400 C   0  0  0  0  0  0  0  0  0  0  0  0
   -8.3380    6.9370   -0.8020 C   0  0  0  0  0  0  0  0  0  0  0  0
   -7.7330    8.1620   -1.4940 C   0  0  2  0  0  0  0  0  0  0  0  0
   -7.2930    7.7300   -2.9340 C   0  0  0  0  0  0  0  0  0  0  0  0
   -5.2812    6.6491    0.6386 H   0  0  0  0  0  0  0  0  0  0  0  0
   -6.2130    6.2386   -0.8412 H   0  0  0  0  0  0  0  0  0  0  0  0
   -4.4218    6.1029   -0.8412 H   0  0  0  0  0  0  0  0  0  0  0  0
   -4.8656    8.1120   -1.9902 H   0  0  0  0  0  0  0  0  0  0  0  0
   -4.3706    9.9771   -0.1519 H   0  0  0  0  0  0  0  0  0  0  0  0
   -4.0534    8.4863    0.8581 H   0  0  0  0  0  0  0  0  0  0  0  0
   -2.2426    7.8357   -0.4096 H   0  0  0  0  0  0  0  0  0  0  0  0
   -2.7743    8.8066   -1.8453 H   0  0  0  0  0  0  0  0  0  0  0  0
   -1.9864    9.6959    0.7357 H   0  0  0  0  0  0  0  0  0  0  0  0
    0.4437    8.6869   -2.0288 H   0  0  0  0  0  0  0  0  0  0  0  0
   -0.9896    9.3195   -2.9075 H   0  0  0  0  0  0  0  0  0  0  0  0
    0.5468   10.2502   -2.9075 H   0  0  0  0  0  0  0  0  0  0  0  0
    0.3590   10.9797    0.7390 H   0  0  0  0  0  0  0  0  0  0  0  0
    1.5028   10.7031   -0.6182 H   0  0  0  0  0  0  0  0  0  0  0  0
    0.4430   12.1534   -0.6182 H   0  0  0  0  0  0  0  0  0  0  0  0
   -6.6393    8.7795    0.2953 H   0  0  0  0  0  0  0  0  0  0  0  0
   -6.3170   10.9972   -0.6070 H   0  0  0  0  0  0  0  0  0  0  0  0
   -5.7328   10.3638   -2.1609 H   0  0  0  0  0  0  0  0  0  0  0  0
   -8.3280   11.4616   -1.6847 H   0  0  0  0  0  0  0  0  0  0  0  0
   -7.9046   10.5074   -3.1037 H   0  0  0  0  0  0  0  0  0  0  0  0
   -8.6498    9.1816    0.7299 H   0  0  0  0  0  0  0  0  0  0  0  0
   -8.9388   10.8470    0.1218 H   0  0  0  0  0  0  0  0  0  0  0  0
  -10.2749    9.6463    0.1218 H   0  0  0  0  0  0  0  0  0  0  0  0
   -9.5949    8.7844   -3.3032 H   0  0  0  0  0  0  0  0  0  0  0  0
  -10.5848   11.0001   -2.4363 H   0  0  0  0  0  0  0  0  0  0  0  0
  -11.6031    9.8206   -3.4167 H   0  0  0  0  0  0  0  0  0  0  0  0
  -12.7853   10.9400   -1.3452 H   0  0  0  0  0  0  0  0  0  0  0  0
  -10.9977    7.6690    0.2062 H   0  0  0  0  0  0  0  0  0  0  0  0
  -13.3357    6.5452   -1.4575 H   0  0  0  0  0  0  0  0  0  0  0  0
  -12.1178    5.5906   -0.5002 H   0  0  0  0  0  0  0  0  0  0  0  0
  -14.2895    5.7758    0.6682 H   0  0  0  0  0  0  0  0  0  0  0  0
  -12.9342    6.5643    1.5670 H   0  0  0  0  0  0  0  0  0  0  0  0
  -14.8632    7.9891    1.6741 H   0  0  0  0  0  0  0  0  0  0  0  0
  -15.9520    8.6190   -0.1860 H   0  0  0  0  0  0  0  0  0  0  0  0
  -13.3007    9.2070    2.7813 H   0  0  0  0  0  0  0  0  0  0  0  0
  -11.8328    8.5798    1.9574 H   0  0  0  0  0  0  0  0  0  0  0  0
  -12.1788   10.3424    1.9574 H   0  0  0  0  0  0  0  0  0  0  0  0
  -14.6005   10.7855    1.5119 H   0  0  0  0  0  0  0  0  0  0  0  0
  -13.8124   11.2289   -0.0402 H   0  0  0  0  0  0  0  0  0  0  0  0
  -15.2648   10.1720   -0.0402 H   0  0  0  0  0  0  0  0  0  0  0  0
  -12.3213    6.4308   -2.8086 H   0  0  0  0  0  0  0  0  0  0  0  0
  -11.7963    7.8749   -3.7390 H   0  0  0  0  0  0  0  0  0  0  0  0
  -10.7852    6.3901   -3.7390 H   0  0  0  0  0  0  0  0  0  0  0  0
  -10.0853    5.6949   -0.9093 H   0  0  0  0  0  0  0  0  0  0  0  0
   -9.2431    6.0869   -2.5128 H   0  0  0  0  0  0  0  0  0  0  0  0
   -8.6045    7.2026    0.2317 H   0  0  0  0  0  0  0  0  0  0  0  0
   -7.5950    6.1259   -0.8117 H   0  0  0  0  0  0  0  0  0  0  0  0
   -6.5097    6.9610   -2.8628 H   0  0  0  0  0  0  0  0  0  0  0  0
   -8.1594    7.3220   -3.4752 H   0  0  0  0  0  0  0  0  0  0  0  0
   -6.9009    8.6037   -3.4752 H   0  0  0  0  0  0  0  0  0  0  0  0
  1  2  1  0
  2  3  1  0
  3  4  1  0
  4  5  1  0
  5  6  1  0
  6  7  1  0
  7  8  1  0
  7  9  1  0
  2 10  1  0
 10 11  1  0
 11 12  1  0
 12 13  1  0
 13 14  1  1
 13 15  1  0
 15 16  1  0
 16 17  1  0
 17 18  2  0
 18 19  1  0
 19 20  1  0
 20 21  1  0
 21 22  1  0
 22 23  1  0
 22 24  1  0
 24 25  1  0
 24 26  1  0
 19 27  1  0
 27 28  1  6
 27 29  1  0
 29 30  1  0
 30 31  1  0
 31 32  1  6
  7  5  1  0
 31 10  1  0
 31 13  1  0
 27 15  1  0
 24 18  1  0
  1 33  1  0
  1 34  1  0
  1 35  1  0
  2 36  1  6
  3 37  1  0
  3 38  1  0
  4 39  1  0
  4 40  1  0
  5 41  1  1
  8 42  1  0
  8 43  1  0
  8 44  1  0
  9 45  1  0
  9 46  1  0
  9 47  1  0
 10 48  1  1
 11 49  1  0
 11 50  1  0
 12 51  1  0
 12 52  1  0
 14 53  1  0
 14 54  1  0
 14 55  1  0
 15 56  1  6
 16 57  1  0
 16 58  1  0
 17 59  1  0
 19 60  1  1
 20 61  1  0
 20 62  1  0
 21 63  1  0
 21 64  1  0
 22 65  1  1
 23 66  1  0
 25 67  1  0
 25 68  1  0
 25 69  1  0
 26 70  1  0
 26 71  1  0
 26 72  1  0
 28 73  1  0
 28 74  1  0
 28 75  1  0
 29 76  1  0
 29 77  1  0
 30 78  1  0
 30 79  1  0
 32 80  1  0
 32 81  1  0
 32 82  1  0
M  END
>  <meeko>  (9) 
{"is_sidechain": [false], "intermolecular_energy": 2.731, "internal_energy": -0.839}

$$$$
EPH_relaxed_0001_pdb2pqr_Repair_392_r2_0001_out
     RDKit          3D

 82 86  0  0  0  0  0  0  0  0999 V2000
    0.4410    8.8310   -2.3840 C   0  0  0  0  0  0  0  0  0  0  0  0
    1.1860    9.9770   -3.0760 C   0  0  2  0  0  0  0  0  0  0  0  0
    2.6840    9.9980   -2.7140 C   0  0  0  0  0  0  0  0  0  0  0  0
    3.5740   10.5930   -3.8090 C   0  0  0  0  0  0  0  0  0  0  0  0
    4.9720   10.8250   -3.3220 C   0  0  2  0  0  0  0  0  0  0  0  0
    5.5710   12.0450   -3.7790 O   0  0  0  0  0  0  0  0  0  0  0  0
    6.1850   10.8280   -4.2330 C   0  0  0  0  0  0  0  0  0  0  0  0
    6.0560   10.5930   -5.7060 C   0  0  0  0  0  0  0  0  0  0  0  0
    7.5320   10.5730   -3.6320 C   0  0  0  0  0  0  0  0  0  0  0  0
    0.5430   11.3100   -2.7100 C   0  0  1  0  0  0  0  0  0  0  0  0
   -0.8260   11.1380   -2.0000 C   0  0  0  0  0  0  0  0  0  0  0  0
   -0.9380   12.2830   -0.9610 C   0  0  0  0  0  0  0  0  0  0  0  0
    0.2020   13.2590   -1.3320 C   0  0  1  0  0  0  0  0  0  0  0  0
   -0.3630   14.1070   -2.5140 C   0  0  0  0  0  0  0  0  0  0  0  0
    0.7390   14.1650   -0.1760 C   0  0  2  0  0  0  0  0  0  0  0  0
   -0.2910   15.1400    0.4210 C   0  0  0  0  0  0  0  0  0  0  0  0
   -0.3490   16.4830   -0.2280 C   0  0  0  0  0  0  0  0  0  0  0  0
    0.5820   16.9930   -1.0560 C   0  0  0  0  0  0  0  0  0  0  0  0
    1.8850   16.2330   -1.3380 C   0  0  1  0  0  0  0  0  0  0  0  0
    3.0870   17.2080   -1.2260 C   0  0  0  0  0  0  0  0  0  0  0  0
    2.9260   18.4400   -2.1110 C   0  0  0  0  0  0  0  0  0  0  0  0
    1.6500   19.2000   -1.7610 C   0  0  2  0  0  0  0  0  0  0  0  0
    1.7850   19.7480   -0.4460 O   0  0  0  0  0  0  0  0  0  0  0  0
    0.3720   18.3170   -1.8300 C   0  0  0  0  0  0  0  0  0  0  0  0
    0.0580   17.9720   -3.3070 C   0  0  0  0  0  0  0  0  0  0  0  0
   -0.8230   19.1660   -1.3190 C   0  0  0  0  0  0  0  0  0  0  0  0
    2.1030   14.8970   -0.5060 C   0  0  1  0  0  0  0  0  0  0  0  0
    2.7750   15.2250    0.8620 C   0  0  0  0  0  0  0  0  0  0  0  0
    3.1080   13.9660   -1.2830 C   0  0  0  0  0  0  0  0  0  0  0  0
    2.5040   13.0080   -2.3270 C   0  0  0  0  0  0  0  0  0  0  0  0
    1.3210   12.2320   -1.7390 C   0  0  2  0  0  0  0  0  0  0  0  0
    1.8640   11.3530   -0.5610 C   0  0  0  0  0  0  0  0  0  0  0  0
    0.5180    8.9495   -1.2931 H   0  0  0  0  0  0  0  0  0  0  0  0
   -0.6180    8.8499   -2.6810 H   0  0  0  0  0  0  0  0  0  0  0  0
    0.8881    7.8708   -2.6810 H   0  0  0  0  0  0  0  0  0  0  0  0
    1.1112    9.8131   -4.1611 H   0  0  0  0  0  0  0  0  0  0  0  0
    2.8119   10.5959   -1.7996 H   0  0  0  0  0  0  0  0  0  0  0  0
    2.9966    8.9520   -2.5789 H   0  0  0  0  0  0  0  0  0  0  0  0
    3.6041    9.8977   -4.6609 H   0  0  0  0  0  0  0  0  0  0  0  0
    3.1492   11.5631   -4.1066 H   0  0  0  0  0  0  0  0  0  0  0  0
    4.7570   10.2972   -2.3812 H   0  0  0  0  0  0  0  0  0  0  0  0
    5.5334    9.6410   -5.8810 H   0  0  0  0  0  0  0  0  0  0  0  0
    5.4826   11.4149   -6.1596 H   0  0  0  0  0  0  0  0  0  0  0  0
    7.0572   10.5505   -6.1596 H   0  0  0  0  0  0  0  0  0  0  0  0
    7.4528   10.5880   -2.5350 H   0  0  0  0  0  0  0  0  0  0  0  0
    7.8995    9.5893   -3.9597 H   0  0  0  0  0  0  0  0  0  0  0  0
    8.2336   11.3543   -3.9597 H   0  0  0  0  0  0  0  0  0  0  0  0
    0.4935   11.7706   -3.7077 H   0  0  0  0  0  0  0  0  0  0  0  0
   -1.6440   11.2094   -2.7320 H   0  0  0  0  0  0  0  0  0  0  0  0
   -0.8974   10.1543   -1.5129 H   0  0  0  0  0  0  0  0  0  0  0  0
   -1.9157   12.7814   -1.0362 H   0  0  0  0  0  0  0  0  0  0  0  0
   -0.8543   11.9176    0.0732 H   0  0  0  0  0  0  0  0  0  0  0  0
   -0.9313   14.9599   -2.1145 H   0  0  0  0  0  0  0  0  0  0  0  0
    0.4695   14.4774   -3.1303 H   0  0  0  0  0  0  0  0  0  0  0  0
   -1.0254   13.4814   -3.1303 H   0  0  0  0  0  0  0  0  0  0  0  0
    0.9528   13.4331    0.6168 H   0  0  0  0  0  0  0  0  0  0  0  0
   -1.2856   14.6780    0.3354 H   0  0  0  0  0  0  0  0  0  0  0  0
    0.0247   15.3175    1.4597 H   0  0  0  0  0  0  0  0  0  0  0  0
   -1.2270   17.1092   -0.0113 H   0  0  0  0  0  0  0  0  0  0  0  0
    1.8021   15.8590   -2.3691 H   0  0  0  0  0  0  0  0  0  0  0  0
    3.1793   17.5351   -0.1798 H   0  0  0  0  0  0  0  0  0  0  0  0
    3.9854   16.6702   -1.5631 H   0  0  0  0  0  0  0  0  0  0  0  0
    3.7914   19.1033   -1.9656 H   0  0  0  0  0  0  0  0  0  0  0  0
    2.8636   18.1133   -3.1595 H   0  0  0  0  0  0  0  0  0  0  0  0
    1.5236   19.9943   -2.5114 H   0  0  0  0  0  0  0  0  0  0  0  0
    0.9120   19.7090   -0.0200 H   0  0  0  0  0  0  0  0  0  0  0  0
   -0.6820   17.1590   -3.3443 H   0  0  0  0  0  0  0  0  0  0  0  0
   -0.3477   18.8606   -3.8128 H   0  0  0  0  0  0  0  0  0  0  0  0
    0.9807   17.6515   -3.8128 H   0  0  0  0  0  0  0  0  0  0  0  0
   -0.8270   19.1688   -0.2190 H   0  0  0  0  0  0  0  0  0  0  0  0
   -0.7242   20.1976   -1.6880 H   0  0  0  0  0  0  0  0  0  0  0  0
   -1.7646   18.7332   -1.6880 H   0  0  0  0  0  0  0  0  0  0  0  0
    2.1152   14.9030    1.6812 H   0  0  0  0  0  0  0  0  0  0  0  0
    3.7359   14.6946    0.9350 H   0  0  0  0  0  0  0  0  0  0  0  0
    2.9480   16.3089    0.9350 H   0  0  0  0  0  0  0  0  0  0  0  0
    3.8273   14.6149   -1.8041 H   0  0  0  0  0  0  0  0  0  0  0  0
    3.5474   13.3131   -0.5145 H   0  0  0  0  0  0  0  0  0  0  0  0
    2.1572   13.5914   -3.1927 H   0  0  0  0  0  0  0  0  0  0  0  0
    3.2782   12.2889   -2.6328 H   0  0  0  0  0  0  0  0  0  0  0  0
    1.5813   11.8106    0.3985 H   0  0  0  0  0  0  0  0  0  0  0  0
    1.4318   10.3436   -0.6273 H   0  0  0  0  0  0  0  0  0  0  0  0
    2.9601   11.2877   -0.6273 H   0  0  0  0  0  0  0  0  0  0  0  0
  1  2  1  0
  2  3  1  0
  3  4  1  0
  4  5  1  0
  5  6  1  0
  6  7  1  0
  7  8  1  0
  7  9  1  0
  2 10  1  0
 10 11  1  0
 11 12  1  0
 12 13  1  0
 13 14  1  6
 13 15  1  0
 15 16  1  0
 16 17  1  0
 17 18  2  0
 18 19  1  0
 19 20  1  0
 20 21  1  0
 21 22  1  0
 22 23  1  0
 22 24  1  0
 24 25  1  0
 24 26  1  0
 19 27  1  0
 27 28  1  1
 27 29  1  0
 29 30  1  0
 30 31  1  0
 31 32  1  1
  7  5  1  0
 31 10  1  0
 31 13  1  0
 27 15  1  0
 24 18  1  0
  1 33  1  0
  1 34  1  0
  1 35  1  0
  2 36  1  6
  3 37  1  0
  3 38  1  0
  4 39  1  0
  4 40  1  0
  5 41  1  1
  8 42  1  0
  8 43  1  0
  8 44  1  0
  9 45  1  0
  9 46  1  0
  9 47  1  0
 10 48  1  6
 11 49  1  0
 11 50  1  0
 12 51  1  0
 12 52  1  0
 14 53  1  0
 14 54  1  0
 14 55  1  0
 15 56  1  1
 16 57  1  0
 16 58  1  0
 17 59  1  0
 19 60  1  6
 20 61  1  0
 20 62  1  0
 21 63  1  0
 21 64  1  0
 22 65  1  6
 23 66  1  0
 25 67  1  0
 25 68  1  0
 25 69  1  0
 26 70  1  0
 26 71  1  0
 26 72  1  0
 28 73  1  0
 28 74  1  0
 28 75  1  0
 29 76  1  0
 29 77  1  0
 30 78  1  0
 30 79  1  0
 32 80  1  0
 32 81  1  0
 32 82  1  0
M  END
>  <meeko>  (10) 
{"is_sidechain": [false], "intermolecular_energy": 2.731, "internal_energy": -0.839}

$$$$
EPH_relaxed_0001_pdb2pqr_Repair_392_r2_0001_out
     RDKit          3D

 82 86  0  0  0  0  0  0  0  0999 V2000
   -0.8950   16.3730   -5.8350 C   0  0  0  0  0  0  0  0  0  0  0  0
    0.1950   15.6750   -6.6540 C   0  0  2  0  0  0  0  0  0  0  0  0
   -0.2110   15.5030   -8.1320 C   0  0  0  0  0  0  0  0  0  0  0  0
    0.4380   16.5230   -9.0720 C   0  0  0  0  0  0  0  0  0  0  0  0
    1.8370   16.1280   -9.4360 C   0  0  2  0  0  0  0  0  0  0  0  0
    2.3220   16.7050  -10.6560 O   0  0  0  0  0  0  0  0  0  0  0  0
    2.1780   15.2750  -10.6440 C   0  0  0  0  0  0  0  0  0  0  0  0
    1.1130   14.7640  -11.5630 C   0  0  0  0  0  0  0  0  0  0  0  0
    3.4800   14.5370  -10.6540 C   0  0  0  0  0  0  0  0  0  0  0  0
    0.5180   14.3180   -6.0410 C   0  0  1  0  0  0  0  0  0  0  0  0
    1.7770   13.6630   -6.6680 C   0  0  0  0  0  0  0  0  0  0  0  0
    2.4930   12.8910   -5.5310 C   0  0  0  0  0  0  0  0  0  0  0  0
    1.4610   12.8470   -4.3790 C   0  0  1  0  0  0  0  0  0  0  0  0
    0.5020   11.6720   -4.7450 C   0  0  0  0  0  0  0  0  0  0  0  0
    2.0420   12.6900   -2.9360 C   0  0  2  0  0  0  0  0  0  0  0  0
    2.8130   11.3830   -2.6820 C   0  0  0  0  0  0  0  0  0  0  0  0
    1.9910   10.2470   -2.1710 C   0  0  0  0  0  0  0  0  0  0  0  0
    0.7510   10.3480   -1.6570 C   0  0  0  0  0  0  0  0  0  0  0  0
    0.0890   11.7180   -1.4600 C   0  0  1  0  0  0  0  0  0  0  0  0
   -0.5480   11.7880   -0.0470 C   0  0  0  0  0  0  0  0  0  0  0  0
   -1.5080   10.6320    0.2190 C   0  0  0  0  0  0  0  0  0  0  0  0
   -0.7980    9.2890    0.0710 C   0  0  2  0  0  0  0  0  0  0  0  0
    0.1740    9.1630    1.1130 O   0  0  0  0  0  0  0  0  0  0  0  0
   -0.1100    9.1080   -1.3110 C   0  0  0  0  0  0  0  0  0  0  0  0
   -1.1880    8.9420   -2.4110 C   0  0  0  0  0  0  0  0  0  0  0  0
    0.6850    7.7760   -1.2780 C   0  0  0  0  0  0  0  0  0  0  0  0
    0.9990   12.9800   -1.7820 C   0  0  1  0  0  0  0  0  0  0  0  0
    1.8280   13.3740   -0.5220 C   0  0  0  0  0  0  0  0  0  0  0  0
    0.0740   14.2120   -2.1080 C   0  0  0  0  0  0  0  0  0  0  0  0
   -0.3690   14.3800   -3.5740 C   0  0  0  0  0  0  0  0  0  0  0  0
    0.8280   14.2790   -4.5240 C   0  0  2  0  0  0  0  0  0  0  0  0
    1.8010   15.4620   -4.1940 C   0  0  0  0  0  0  0  0  0  0  0  0
   -0.6889   16.2410   -4.7626 H   0  0  0  0  0  0  0  0  0  0  0  0
   -0.9051   17.4460   -6.0771 H   0  0  0  0  0  0  0  0  0  0  0  0
   -1.8738   15.9333   -6.0771 H   0  0  0  0  0  0  0  0  0  0  0  0
    1.0890   16.3154   -6.6291 H   0  0  0  0  0  0  0  0  0  0  0  0
    0.0832   14.4944   -8.4577 H   0  0  0  0  0  0  0  0  0  0  0  0
   -1.2981   15.6617   -8.1870 H   0  0  0  0  0  0  0  0  0  0  0  0
   -0.1629   16.5943   -9.9906 H   0  0  0  0  0  0  0  0  0  0  0  0
    0.4789   17.4915   -8.5522 H   0  0  0  0  0  0  0  0  0  0  0  0
    2.1171   16.0495   -8.3752 H   0  0  0  0  0  0  0  0  0  0  0  0
    0.2779   14.3633  -10.9696 H   0  0  0  0  0  0  0  0  0  0  0  0
    0.7506   15.5863  -12.1974 H   0  0  0  0  0  0  0  0  0  0  0  0
    1.5277   13.9668  -12.1974 H   0  0  0  0  0  0  0  0  0  0  0  0
    3.8050   14.3528   -9.6194 H   0  0  0  0  0  0  0  0  0  0  0  0
    3.3531   13.5765  -11.1750 H   0  0  0  0  0  0  0  0  0  0  0  0
    4.2389   15.1393  -11.1750 H   0  0  0  0  0  0  0  0  0  0  0  0
   -0.4273   13.7940   -6.2455 H   0  0  0  0  0  0  0  0  0  0  0  0
    1.4836   12.9698   -7.4701 H   0  0  0  0  0  0  0  0  0  0  0  0
    2.4399   14.4228   -7.1076 H   0  0  0  0  0  0  0  0  0  0  0  0
    2.7544   11.8735   -5.8572 H   0  0  0  0  0  0  0  0  0  0  0  0
    3.4350   13.3721   -5.2290 H   0  0  0  0  0  0  0  0  0  0  0  0
    0.1228   11.2074   -3.8229 H   0  0  0  0  0  0  0  0  0  0  0  0
   -0.3423   12.0580   -5.3351 H   0  0  0  0  0  0  0  0  0  0  0  0
    1.0493   10.9222   -5.3351 H   0  0  0  0  0  0  0  0  0  0  0  0
    2.7932   13.4925   -2.8955 H   0  0  0  0  0  0  0  0  0  0  0  0
    3.2730   11.0699   -3.6309 H   0  0  0  0  0  0  0  0  0  0  0  0
    3.5438   11.6095   -1.8917 H   0  0  0  0  0  0  0  0  0  0  0  0
    2.4361    9.2422   -2.2184 H   0  0  0  0  0  0  0  0  0  0  0  0
   -0.6964   11.7888   -2.2269 H   0  0  0  0  0  0  0  0  0  0  0  0
    0.2553   11.7594    0.7039 H   0  0  0  0  0  0  0  0  0  0  0  0
   -1.1251   12.7225    0.0136 H   0  0  0  0  0  0  0  0  0  0  0  0
   -1.9027   10.7198    1.2420 H   0  0  0  0  0  0  0  0  0  0  0  0
   -2.3266   10.6793   -0.5142 H   0  0  0  0  0  0  0  0  0  0  0  0
   -1.5632    8.5023    0.1453 H   0  0  0  0  0  0  0  0  0  0  0  0
    0.2880    8.2150    1.2960 H   0  0  0  0  0  0  0  0  0  0  0  0
   -2.1710    8.7906   -1.9412 H   0  0  0  0  0  0  0  0  0  0  0  0
   -1.2159    9.8464   -3.0365 H   0  0  0  0  0  0  0  0  0  0  0  0
   -0.9425    8.0711   -3.0365 H   0  0  0  0  0  0  0  0  0  0  0  0
    0.8616    7.4802   -0.2333 H   0  0  0  0  0  0  0  0  0  0  0  0
    0.1073    6.9914   -1.7886 H   0  0  0  0  0  0  0  0  0  0  0  0
    1.6498    7.9121   -1.7886 H   0  0  0  0  0  0  0  0  0  0  0  0
    1.2659   13.1068    0.3850 H   0  0  0  0  0  0  0  0  0  0  0  0
    2.7871   12.8354   -0.5310 H   0  0  0  0  0  0  0  0  0  0  0  0
    2.0160   14.4578   -0.5310 H   0  0  0  0  0  0  0  0  0  0  0  0
   -0.8343   14.1175   -1.4947 H   0  0  0  0  0  0  0  0  0  0  0  0
    0.6879   15.0983   -1.8897 H   0  0  0  0  0  0  0  0  0  0  0  0
   -1.0938   13.5910   -3.8234 H   0  0  0  0  0  0  0  0  0  0  0  0
   -0.8259   15.3738   -3.6904 H   0  0  0  0  0  0  0  0  0  0  0  0
    1.8899   15.5701   -3.1029 H   0  0  0  0  0  0  0  0  0  0  0  0
    2.7917   15.2527   -4.6237 H   0  0  0  0  0  0  0  0  0  0  0  0
    1.4044   16.3937   -4.6237 H   0  0  0  0  0  0  0  0  0  0  0  0
  1  2  1  0
  2  3  1  0
  3  4  1  0
  4  5  1  0
  5  6  1  0
  6  7  1  0
  7  8  1  0
  7  9  1  0
  2 10  1  0
 10 11  1  0
 11 12  1  0
 12 13  1  0
 13 14  1  6
 13 15  1  0
 15 16  1  0
 16 17  1  0
 17 18  2  0
 18 19  1  0
 19 20  1  0
 20 21  1  0
 21 22  1  0
 22 23  1  0
 22 24  1  0
 24 25  1  0
 24 26  1  0
 19 27  1  0
 27 28  1  1
 27 29  1  0
 29 30  1  0
 30 31  1  0
 31 32  1  1
  7  5  1  0
 31 10  1  0
 31 13  1  0
 27 15  1  0
 24 18  1  0
  1 33  1  0
  1 34  1  0
  1 35  1  0
  2 36  1  6
  3 37  1  0
  3 38  1  0
  4 39  1  0
  4 40  1  0
  5 41  1  1
  8 42  1  0
  8 43  1  0
  8 44  1  0
  9 45  1  0
  9 46  1  0
  9 47  1  0
 10 48  1  1
 11 49  1  0
 11 50  1  0
 12 51  1  0
 12 52  1  0
 14 53  1  0
 14 54  1  0
 14 55  1  0
 15 56  1  6
 16 57  1  0
 16 58  1  0
 17 59  1  0
 19 60  1  6
 20 61  1  0
 20 62  1  0
 21 63  1  0
 21 64  1  0
 22 65  1  1
 23 66  1  0
 25 67  1  0
 25 68  1  0
 25 69  1  0
 26 70  1  0
 26 71  1  0
 26 72  1  0
 28 73  1  0
 28 74  1  0
 28 75  1  0
 29 76  1  0
 29 77  1  0
 30 78  1  0
 30 79  1  0
 32 80  1  0
 32 81  1  0
 32 82  1  0
M  END
>  <meeko>  (11) 
{"is_sidechain": [false], "intermolecular_energy": 2.731, "internal_energy": -0.839}

$$$$
EPH_relaxed_0001_pdb2pqr_Repair_392_r2_0001_out
     RDKit          3D

 82 86  0  0  0  0  0  0  0  0999 V2000
   -5.3520    5.7730   -2.0010 C   0  0  0  0  0  0  0  0  0  0  0  0
   -5.6190    7.2770   -2.1090 C   0  0  2  0  0  0  0  0  0  0  0  0
   -5.2920    8.0210   -0.7990 C   0  0  0  0  0  0  0  0  0  0  0  0
   -5.4490    9.5400   -0.8980 C   0  0  0  0  0  0  0  0  0  0  0  0
   -6.8630    9.9320   -1.2070 C   0  0  2  0  0  0  0  0  0  0  0  0
   -7.0460   10.5500   -2.4880 O   0  0  0  0  0  0  0  0  0  0  0  0
   -7.3210   11.3720   -1.3420 C   0  0  0  0  0  0  0  0  0  0  0  0
   -6.3690   12.5140   -1.1690 C   0  0  0  0  0  0  0  0  0  0  0  0
   -8.7740   11.6810   -1.1560 C   0  0  0  0  0  0  0  0  0  0  0  0
   -7.0720    7.5200   -2.4980 C   0  0  1  0  0  0  0  0  0  0  0  0
   -7.4720    6.7850   -3.8050 C   0  0  0  0  0  0  0  0  0  0  0  0
   -8.9500    6.3480   -3.6390 C   0  0  0  0  0  0  0  0  0  0  0  0
   -9.4490    7.1250   -2.3980 C   0  0  1  0  0  0  0  0  0  0  0  0
   -9.7990    8.5500   -2.9300 C   0  0  0  0  0  0  0  0  0  0  0  0
  -10.6480    6.4890   -1.6200 C   0  0  2  0  0  0  0  0  0  0  0  0
  -11.9530    6.3620   -2.4250 C   0  0  0  0  0  0  0  0  0  0  0  0
  -12.8770    7.5310   -2.3300 C   0  0  0  0  0  0  0  0  0  0  0  0
  -12.8050    8.5120   -1.4110 C   0  0  0  0  0  0  0  0  0  0  0  0
  -11.7750    8.4540   -0.2760 C   0  0  1  0  0  0  0  0  0  0  0  0
  -12.4680    8.7960    1.0700 C   0  0  0  0  0  0  0  0  0  0  0  0
  -13.2110   10.1280    1.0240 C   0  0  0  0  0  0  0  0  0  0  0  0
  -14.2660   10.1260   -0.0800 C   0  0  2  0  0  0  0  0  0  0  0  0
  -15.2870    9.1840    0.2620 O   0  0  0  0  0  0  0  0  0  0  0  0
  -13.6870    9.7840   -1.4810 C   0  0  0  0  0  0  0  0  0  0  0  0
  -12.8080   10.9570   -1.9810 C   0  0  0  0  0  0  0  0  0  0  0  0
  -14.8740    9.6760   -2.4750 C   0  0  0  0  0  0  0  0  0  0  0  0
  -10.9060    7.1260   -0.1950 C   0  0  1  0  0  0  0  0  0  0  0  0
  -11.6590    6.0480    0.6440 C   0  0  0  0  0  0  0  0  0  0  0  0
   -9.5680    7.4330    0.5750 C   0  0  0  0  0  0  0  0  0  0  0  0
   -8.3840    7.9450   -0.2670 C   0  0  0  0  0  0  0  0  0  0  0  0
   -8.1620    7.0600   -1.4970 C   0  0  2  0  0  0  0  0  0  0  0  0
   -7.7870    5.6250   -0.9930 C   0  0  0  0  0  0  0  0  0  0  0  0
   -5.3009    5.4849   -0.9406 H   0  0  0  0  0  0  0  0  0  0  0  0
   -6.1660    5.2199   -2.4924 H   0  0  0  0  0  0  0  0  0  0  0  0
   -4.3974    5.5339   -2.4924 H   0  0  0  0  0  0  0  0  0  0  0  0
   -4.9538    7.6759   -2.8890 H   0  0  0  0  0  0  0  0  0  0  0  0
   -5.9673    7.6527   -0.0127 H   0  0  0  0  0  0  0  0  0  0  0  0
   -4.2344    7.8215   -0.5717 H   0  0  0  0  0  0  0  0  0  0  0  0
   -5.1551    9.9921    0.0608 H   0  0  0  0  0  0  0  0  0  0  0  0
   -4.8070    9.8987   -1.7160 H   0  0  0  0  0  0  0  0  0  0  0  0
   -7.2511    9.0864   -0.6203 H   0  0  0  0  0  0  0  0  0  0  0  0
   -6.2125   12.7017   -0.0965 H   0  0  0  0  0  0  0  0  0  0  0  0
   -5.4075   12.2647   -1.6417 H   0  0  0  0  0  0  0  0  0  0  0  0
   -6.7873   13.4149   -1.6417 H   0  0  0  0  0  0  0  0  0  0  0  0
   -9.0038   11.7299   -0.0814 H   0  0  0  0  0  0  0  0  0  0  0  0
   -9.0061   12.6486   -1.6250 H   0  0  0  0  0  0  0  0  0  0  0  0
   -9.3797   10.8916   -1.6250 H   0  0  0  0  0  0  0  0  0  0  0  0
   -7.0632    8.6178   -2.5677 H   0  0  0  0  0  0  0  0  0  0  0  0
   -7.3718    7.4621   -4.6661 H   0  0  0  0  0  0  0  0  0  0  0  0
   -6.8214    5.9163   -3.9841 H   0  0  0  0  0  0  0  0  0  0  0  0
   -9.5374    6.6187   -4.5288 H   0  0  0  0  0  0  0  0  0  0  0  0
   -9.0524    5.2594   -3.5188 H   0  0  0  0  0  0  0  0  0  0  0  0
   -9.9655    9.2280   -2.0800 H   0  0  0  0  0  0  0  0  0  0  0  0
   -8.9668    8.9273   -3.5425 H   0  0  0  0  0  0  0  0  0  0  0  0
  -10.7113    8.4989   -3.5425 H   0  0  0  0  0  0  0  0  0  0  0  0
  -10.3010    5.4591   -1.4502 H   0  0  0  0  0  0  0  0  0  0  0  0
  -11.6874    6.2238   -3.4835 H   0  0  0  0  0  0  0  0  0  0  0  0
  -12.4959    5.5089   -1.9921 H   0  0  0  0  0  0  0  0  0  0  0  0
  -13.6848    7.5961   -3.0738 H   0  0  0  0  0  0  0  0  0  0  0  0
  -11.0194    9.2179   -0.5117 H   0  0  0  0  0  0  0  0  0  0  0  0
  -13.1876    7.9990    1.3086 H   0  0  0  0  0  0  0  0  0  0  0  0
  -11.6844    8.8772    1.8377 H   0  0  0  0  0  0  0  0  0  0  0  0
  -13.7036   10.2992    1.9925 H   0  0  0  0  0  0  0  0  0  0  0  0
  -12.4854   10.9280    0.8151 H   0  0  0  0  0  0  0  0  0  0  0  0
  -14.6726   11.1457   -0.1503 H   0  0  0  0  0  0  0  0  0  0  0  0
  -14.8570    8.3250    0.4120 H   0  0  0  0  0  0  0  0  0  0  0  0
  -12.3991   11.5026   -1.1178 H   0  0  0  0  0  0  0  0  0  0  0  0
  -11.9815   10.5622   -2.5902 H   0  0  0  0  0  0  0  0  0  0  0  0
  -13.4190   11.6393   -2.5902 H   0  0  0  0  0  0  0  0  0  0  0  0
  -15.8159    9.5903   -1.9134 H   0  0  0  0  0  0  0  0  0  0  0  0
  -14.9051   10.5750   -3.1081 H   0  0  0  0  0  0  0  0  0  0  0  0
  -14.7423    8.7861   -3.1081 H   0  0  0  0  0  0  0  0  0  0  0  0
  -11.5166    6.2519    1.7155 H   0  0  0  0  0  0  0  0  0  0  0  0
  -12.7320    6.0803    0.4041 H   0  0  0  0  0  0  0  0  0  0  0  0
  -11.2594    5.0516    0.4041 H   0  0  0  0  0  0  0  0  0  0  0  0
   -9.7895    8.1956    1.3361 H   0  0  0  0  0  0  0  0  0  0  0  0
   -9.2379    6.4635    0.9764 H   0  0  0  0  0  0  0  0  0  0  0  0
   -8.5951    8.9729   -0.5968 H   0  0  0  0  0  0  0  0  0  0  0  0
   -7.4756    7.9180    0.3528 H   0  0  0  0  0  0  0  0  0  0  0  0
   -7.7836    5.6119    0.1069 H   0  0  0  0  0  0  0  0  0  0  0  0
   -8.5260    4.9006   -1.3660 H   0  0  0  0  0  0  0  0  0  0  0  0
   -6.7881    5.3548   -1.3660 H   0  0  0  0  0  0  0  0  0  0  0  0
  1  2  1  0
  2  3  1  0
  3  4  1  0
  4  5  1  0
  5  6  1  0
  6  7  1  0
  7  8  1  0
  7  9  1  0
  2 10  1  0
 10 11  1  0
 11 12  1  0
 12 13  1  0
 13 14  1  6
 13 15  1  0
 15 16  1  0
 16 17  1  0
 17 18  2  0
 18 19  1  0
 19 20  1  0
 20 21  1  0
 21 22  1  0
 22 23  1  0
 22 24  1  0
 24 25  1  0
 24 26  1  0
 19 27  1  0
 27 28  1  1
 27 29  1  0
 29 30  1  0
 30 31  1  0
 31 32  1  1
  7  5  1  0
 31 10  1  0
 31 13  1  0
 27 15  1  0
 24 18  1  0
  1 33  1  0
  1 34  1  0
  1 35  1  0
  2 36  1  6
  3 37  1  0
  3 38  1  0
  4 39  1  0
  4 40  1  0
  5 41  1  6
  8 42  1  0
  8 43  1  0
  8 44  1  0
  9 45  1  0
  9 46  1  0
  9 47  1  0
 10 48  1  6
 11 49  1  0
 11 50  1  0
 12 51  1  0
 12 52  1  0
 14 53  1  0
 14 54  1  0
 14 55  1  0
 15 56  1  1
 16 57  1  0
 16 58  1  0
 17 59  1  0
 19 60  1  6
 20 61  1  0
 20 62  1  0
 21 63  1  0
 21 64  1  0
 22 65  1  6
 23 66  1  0
 25 67  1  0
 25 68  1  0
 25 69  1  0
 26 70  1  0
 26 71  1  0
 26 72  1  0
 28 73  1  0
 28 74  1  0
 28 75  1  0
 29 76  1  0
 29 77  1  0
 30 78  1  0
 30 79  1  0
 32 80  1  0
 32 81  1  0
 32 82  1  0
M  END
>  <meeko>  (12) 
{"is_sidechain": [false], "intermolecular_energy": 2.731, "internal_energy": -0.839}

$$$$
EPH_relaxed_0001_pdb2pqr_Repair_392_r2_0001_out
     RDKit          3D

 82 86  0  0  0  0  0  0  0  0999 V2000
  -13.9100   11.5910   -2.4830 C   0  0  0  0  0  0  0  0  0  0  0  0
  -13.4330   10.2190   -1.9980 C   0  0  2  0  0  0  0  0  0  0  0  0
  -13.7840    9.9730   -0.5170 C   0  0  0  0  0  0  0  0  0  0  0  0
  -15.1360    9.2850   -0.3110 C   0  0  0  0  0  0  0  0  0  0  0  0
  -15.0190    8.0890    0.5840 C   0  0  2  0  0  0  0  0  0  0  0  0
  -13.7590    7.4090    0.5130 O   0  0  0  0  0  0  0  0  0  0  0  0
  -14.9060    6.6660    0.0690 C   0  0  0  0  0  0  0  0  0  0  0  0
  -14.9060    6.3650   -1.3970 C   0  0  0  0  0  0  0  0  0  0  0  0
  -15.2870    5.5430    0.9820 C   0  0  0  0  0  0  0  0  0  0  0  0
  -11.9280   10.0890   -2.2050 C   0  0  1  0  0  0  0  0  0  0  0  0
  -11.1930   11.4530   -2.1180 C   0  0  0  0  0  0  0  0  0  0  0  0
   -9.8120   11.1760   -1.4690 C   0  0  0  0  0  0  0  0  0  0  0  0
   -9.6640    9.6370   -1.5090 C   0  0  1  0  0  0  0  0  0  0  0  0
   -9.1870    9.3180   -2.9610 C   0  0  0  0  0  0  0  0  0  0  0  0
   -8.7170    9.0050   -0.4380 C   0  0  2  0  0  0  0  0  0  0  0  0
   -7.2440    9.4390   -0.5330 C   0  0  0  0  0  0  0  0  0  0  0  0
   -6.3800    8.5790   -1.3960 C   0  0  0  0  0  0  0  0  0  0  0  0
   -6.6960    7.3470   -1.8380 C   0  0  0  0  0  0  0  0  0  0  0  0
   -7.9920    6.6590   -1.3920 C   0  0  1  0  0  0  0  0  0  0  0  0
   -7.6850    5.1950   -0.9780 C   0  0  0  0  0  0  0  0  0  0  0  0
   -6.9580    4.4190   -2.0720 C   0  0  0  0  0  0  0  0  0  0  0  0
   -5.6460    5.1030   -2.4470 C   0  0  2  0  0  0  0  0  0  0  0  0
   -4.7520    5.0290   -1.3320 O   0  0  0  0  0  0  0  0  0  0  0  0
   -5.8290    6.5870   -2.8720 C   0  0  0  0  0  0  0  0  0  0  0  0
   -6.5430    6.6510   -4.2450 C   0  0  0  0  0  0  0  0  0  0  0  0
   -4.4190    7.2000   -3.0870 C   0  0  0  0  0  0  0  0  0  0  0  0
   -8.8490    7.4340   -0.3010 C   0  0  1  0  0  0  0  0  0  0  0  0
   -8.3470    7.0680    1.1290 C   0  0  0  0  0  0  0  0  0  0  0  0
  -10.3450    6.9500   -0.3840 C   0  0  0  0  0  0  0  0  0  0  0  0
  -11.2620    7.6930   -1.3750 C   0  0  0  0  0  0  0  0  0  0  0  0
  -11.1450    9.2100   -1.1990 C   0  0  2  0  0  0  0  0  0  0  0  0
  -11.6400    9.5630    0.2450 C   0  0  0  0  0  0  0  0  0  0  0  0
  -14.1321   12.2297   -1.6154 H   0  0  0  0  0  0  0  0  0  0  0  0
  -13.1219   12.0593   -3.0910 H   0  0  0  0  0  0  0  0  0  0  0  0
  -14.8186   11.4694   -3.0910 H   0  0  0  0  0  0  0  0  0  0  0  0
  -13.9574    9.4567   -2.5929 H   0  0  0  0  0  0  0  0  0  0  0  0
  -13.0010    9.3393   -0.0752 H   0  0  0  0  0  0  0  0  0  0  0  0
  -13.8482   10.9591   -0.0338 H   0  0  0  0  0  0  0  0  0  0  0  0
  -15.8356   10.0025    0.1426 H   0  0  0  0  0  0  0  0  0  0  0  0
  -15.5004    8.9449   -1.2916 H   0  0  0  0  0  0  0  0  0  0  0  0
  -15.6810    8.5532    1.3298 H   0  0  0  0  0  0  0  0  0  0  0  0
  -13.8689    6.2913   -1.7562 H   0  0  0  0  0  0  0  0  0  0  0  0
  -15.4245    5.4115   -1.5755 H   0  0  0  0  0  0  0  0  0  0  0  0
  -15.4245    7.1710   -1.9368 H   0  0  0  0  0  0  0  0  0  0  0  0
  -15.1771    5.8670    2.0274 H   0  0  0  0  0  0  0  0  0  0  0  0
  -16.3325    5.2569    0.7948 H   0  0  0  0  0  0  0  0  0  0  0  0
  -14.6314    4.6797    0.7948 H   0  0  0  0  0  0  0  0  0  0  0  0
  -11.9188    9.6201   -3.2000 H   0  0  0  0  0  0  0  0  0  0  0  0
  -11.0605   11.8768   -3.1244 H   0  0  0  0  0  0  0  0  0  0  0  0
  -11.7710   12.1761   -1.5238 H   0  0  0  0  0  0  0  0  0  0  0  0
   -9.0085   11.6585   -2.0448 H   0  0  0  0  0  0  0  0  0  0  0  0
   -9.7440   11.5752   -0.4463 H   0  0  0  0  0  0  0  0  0  0  0  0
   -8.2732    8.7069   -2.9208 H   0  0  0  0  0  0  0  0  0  0  0  0
   -9.9751    8.7646   -3.4926 H   0  0  0  0  0  0  0  0  0  0  0  0
   -8.9766   10.2577   -3.4926 H   0  0  0  0  0  0  0  0  0  0  0  0
   -9.0972    9.4394    0.4984 H   0  0  0  0  0  0  0  0  0  0  0  0
   -7.2164   10.4620   -0.9365 H   0  0  0  0  0  0  0  0  0  0  0  0
   -6.8359    9.3559    0.4851 H   0  0  0  0  0  0  0  0  0  0  0  0
   -5.4032    8.9864   -1.6958 H   0  0  0  0  0  0  0  0  0  0  0  0
   -8.6577    6.6682   -2.2677 H   0  0  0  0  0  0  0  0  0  0  0  0
   -7.0548    5.2080   -0.0765 H   0  0  0  0  0  0  0  0  0  0  0  0
   -8.6453    4.6915   -0.7928 H   0  0  0  0  0  0  0  0  0  0  0  0
   -6.7434    3.4026   -1.7103 H   0  0  0  0  0  0  0  0  0  0  0  0
   -7.6018    4.3825   -2.9632 H   0  0  0  0  0  0  0  0  0  0  0  0
   -5.2362    4.5744   -3.3203 H   0  0  0  0  0  0  0  0  0  0  0  0
   -5.1230    4.3910   -0.6990 H   0  0  0  0  0  0  0  0  0  0  0  0
   -7.6277    6.7482   -4.0900 H   0  0  0  0  0  0  0  0  0  0  0  0
   -6.1740    7.5197   -4.8100 H   0  0  0  0  0  0  0  0  0  0  0  0
   -6.3344    5.7306   -4.8100 H   0  0  0  0  0  0  0  0  0  0  0  0
   -3.9543    7.4020   -2.1107 H   0  0  0  0  0  0  0  0  0  0  0  0
   -3.7937    6.4925   -3.6513 H   0  0  0  0  0  0  0  0  0  0  0  0
   -4.5099    8.1398   -3.6513 H   0  0  0  0  0  0  0  0  0  0  0  0
   -8.9976    7.5423    1.8785 H   0  0  0  0  0  0  0  0  0  0  0  0
   -8.3738    5.9760    1.2587 H   0  0  0  0  0  0  0  0  0  0  0  0
   -7.3155    7.4275    1.2587 H   0  0  0  0  0  0  0  0  0  0  0  0
  -10.3357    5.8882   -0.6712 H   0  0  0  0  0  0  0  0  0  0  0  0
  -10.7693    7.1552    0.6099 H   0  0  0  0  0  0  0  0  0  0  0  0
  -10.9724    7.4266   -2.4022 H   0  0  0  0  0  0  0  0  0  0  0  0
  -12.3030    7.3966   -1.1791 H   0  0  0  0  0  0  0  0  0  0  0  0
  -10.9776    9.0906    0.9854 H   0  0  0  0  0  0  0  0  0  0  0  0
  -11.6235   10.6543    0.3817 H   0  0  0  0  0  0  0  0  0  0  0  0
  -12.6664    9.1918    0.3817 H   0  0  0  0  0  0  0  0  0  0  0  0
  1  2  1  0
  2  3  1  0
  3  4  1  0
  4  5  1  0
  5  6  1  0
  6  7  1  0
  7  8  1  0
  7  9  1  0
  2 10  1  0
 10 11  1  0
 11 12  1  0
 12 13  1  0
 13 14  1  6
 13 15  1  0
 15 16  1  0
 16 17  1  0
 17 18  2  0
 18 19  1  0
 19 20  1  0
 20 21  1  0
 21 22  1  0
 22 23  1  0
 22 24  1  0
 24 25  1  0
 24 26  1  0
 19 27  1  0
 27 28  1  1
 27 29  1  0
 29 30  1  0
 30 31  1  0
 31 32  1  1
  7  5  1  0
 31 10  1  0
 31 13  1  0
 27 15  1  0
 24 18  1  0
  1 33  1  0
  1 34  1  0
  1 35  1  0
  2 36  1  6
  3 37  1  0
  3 38  1  0
  4 39  1  0
  4 40  1  0
  5 41  1  1
  8 42  1  0
  8 43  1  0
  8 44  1  0
  9 45  1  0
  9 46  1  0
  9 47  1  0
 10 48  1  6
 11 49  1  0
 11 50  1  0
 12 51  1  0
 12 52  1  0
 14 53  1  0
 14 54  1  0
 14 55  1  0
 15 56  1  1
 16 57  1  0
 16 58  1  0
 17 59  1  0
 19 60  1  6
 20 61  1  0
 20 62  1  0
 21 63  1  0
 21 64  1  0
 22 65  1  6
 23 66  1  0
 25 67  1  0
 25 68  1  0
 25 69  1  0
 26 70  1  0
 26 71  1  0
 26 72  1  0
 28 73  1  0
 28 74  1  0
 28 75  1  0
 29 76  1  0
 29 77  1  0
 30 78  1  0
 30 79  1  0
 32 80  1  0
 32 81  1  0
 32 82  1  0
M  END
>  <meeko>  (13) 
{"is_sidechain": [false], "intermolecular_energy": 2.731, "internal_energy": -0.839}

$$$$
EPH_relaxed_0001_pdb2pqr_Repair_392_r2_0001_out
     RDKit          3D

 82 86  0  0  0  0  0  0  0  0999 V2000
   -2.1600    7.8060   -2.2290 C   0  0  0  0  0  0  0  0  0  0  0  0
   -2.0870    8.3920   -0.8170 C   0  0  2  0  0  0  0  0  0  0  0  0
   -3.4490    8.3430   -0.0970 C   0  0  0  0  0  0  0  0  0  0  0  0
   -4.6380    8.6670   -1.0050 C   0  0  0  0  0  0  0  0  0  0  0  0
   -5.5300    7.4780   -1.1960 C   0  0  2  0  0  0  0  0  0  0  0  0
   -5.9390    7.2470   -2.5510 O   0  0  0  0  0  0  0  0  0  0  0  0
   -6.9830    7.5810   -1.6220 C   0  0  0  0  0  0  0  0  0  0  0  0
   -7.6270    8.9070   -1.8830 C   0  0  0  0  0  0  0  0  0  0  0  0
   -7.9030    6.4420   -1.3130 C   0  0  0  0  0  0  0  0  0  0  0  0
   -1.5810    9.8290   -0.8760 C   0  0  1  0  0  0  0  0  0  0  0  0
   -1.1380   10.3630    0.5120 C   0  0  0  0  0  0  0  0  0  0  0  0
    0.0690   11.3050    0.2650 C   0  0  0  0  0  0  0  0  0  0  0  0
    0.0710   11.5420   -1.2640 C   0  0  1  0  0  0  0  0  0  0  0  0
   -1.0030   12.6500   -1.4990 C   0  0  0  0  0  0  0  0  0  0  0  0
    1.4460   11.9260   -1.9010 C   0  0  2  0  0  0  0  0  0  0  0  0
    2.0490   13.2520   -1.4030 C   0  0  0  0  0  0  0  0  0  0  0  0
    1.6650   14.4620   -2.1890 C   0  0  0  0  0  0  0  0  0  0  0  0
    1.1030   14.4550   -3.4120 C   0  0  0  0  0  0  0  0  0  0  0  0
    0.8880   13.1400   -4.1720 C   0  0  1  0  0  0  0  0  0  0  0  0
    1.3680   13.3050   -5.6380 C   0  0  0  0  0  0  0  0  0  0  0  0
    0.7180   14.4960   -6.3360 C   0  0  0  0  0  0  0  0  0  0  0  0
    1.0020   15.7920   -5.5820 C   0  0  2  0  0  0  0  0  0  0  0  0
    2.4020   16.0770   -5.6670 O   0  0  0  0  0  0  0  0  0  0  0  0
    0.5700   15.7410   -4.0900 C   0  0  0  0  0  0  0  0  0  0  0  0
   -0.9760   15.7350   -3.9960 C   0  0  0  0  0  0  0  0  0  0  0  0
    1.0400   17.0550   -3.4110 C   0  0  0  0  0  0  0  0  0  0  0  0
    1.4760   11.8350   -3.4810 C   0  0  1  0  0  0  0  0  0  0  0  0
    2.9690   11.6440   -3.8870 C   0  0  0  0  0  0  0  0  0  0  0  0
    0.7040   10.5740   -4.0220 C   0  0  0  0  0  0  0  0  0  0  0  0
   -0.5830   10.1740   -3.2760 C   0  0  0  0  0  0  0  0  0  0  0  0
   -0.3440   10.1110   -1.7650 C   0  0  2  0  0  0  0  0  0  0  0  0
    0.7170    8.9890   -1.4950 C   0  0  0  0  0  0  0  0  0  0  0  0
   -2.2958    6.7162   -2.1671 H   0  0  0  0  0  0  0  0  0  0  0  0
   -3.0096    8.2514   -2.7674 H   0  0  0  0  0  0  0  0  0  0  0  0
   -1.2271    8.0293   -2.7674 H   0  0  0  0  0  0  0  0  0  0  0  0
   -1.3850    7.7738   -0.2383 H   0  0  0  0  0  0  0  0  0  0  0  0
   -3.5896    7.3313    0.3113 H   0  0  0  0  0  0  0  0  0  0  0  0
   -3.4251    9.1133    0.6879 H   0  0  0  0  0  0  0  0  0  0  0  0
   -5.2218    9.4813   -0.5509 H   0  0  0  0  0  0  0  0  0  0  0  0
   -4.2468    8.9637   -1.9893 H   0  0  0  0  0  0  0  0  0  0  0  0
   -5.0404    6.9484   -0.3655 H   0  0  0  0  0  0  0  0  0  0  0  0
   -7.8637    9.3944   -0.9257 H   0  0  0  0  0  0  0  0  0  0  0  0
   -6.9373    9.5428   -2.4575 H   0  0  0  0  0  0  0  0  0  0  0  0
   -8.5531    8.7581   -2.4575 H   0  0  0  0  0  0  0  0  0  0  0  0
   -7.9939    6.3295   -0.2225 H   0  0  0  0  0  0  0  0  0  0  0  0
   -8.8944    6.6440   -1.7447 H   0  0  0  0  0  0  0  0  0  0  0  0
   -7.4970    5.5153   -1.7447 H   0  0  0  0  0  0  0  0  0  0  0  0
   -2.4689   10.3206   -1.3002 H   0  0  0  0  0  0  0  0  0  0  0  0
   -1.9615   10.9185    0.9845 H   0  0  0  0  0  0  0  0  0  0  0  0
   -0.8627    9.5364    1.1835 H   0  0  0  0  0  0  0  0  0  0  0  0
   -0.0621   12.2542    0.8051 H   0  0  0  0  0  0  0  0  0  0  0  0
    1.0157   10.8732    0.6219 H   0  0  0  0  0  0  0  0  0  0  0  0
   -1.3640   13.0224   -0.5289 H   0  0  0  0  0  0  0  0  0  0  0  0
   -0.5561   13.4793   -2.0668 H   0  0  0  0  0  0  0  0  0  0  0  0
   -1.8459   12.2291   -2.0668 H   0  0  0  0  0  0  0  0  0  0  0  0
    2.1103   11.1352   -1.5225 H   0  0  0  0  0  0  0  0  0  0  0  0
    1.7232   13.4044   -0.3635 H   0  0  0  0  0  0  0  0  0  0  0  0
    3.1388   13.1510   -1.5127 H   0  0  0  0  0  0  0  0  0  0  0  0
    1.8578   15.4426   -1.7294 H   0  0  0  0  0  0  0  0  0  0  0  0
   -0.1956   12.9515   -4.1525 H   0  0  0  0  0  0  0  0  0  0  0  0
    2.4586   13.4485   -5.6379 H   0  0  0  0  0  0  0  0  0  0  0  0
    1.0791   12.3973   -6.1881 H   0  0  0  0  0  0  0  0  0  0  0  0
    1.1196   14.5781   -7.3568 H   0  0  0  0  0  0  0  0  0  0  0  0
   -0.3700   14.3364   -6.3622 H   0  0  0  0  0  0  0  0  0  0  0  0
    0.4046   16.5856   -6.0544 H   0  0  0  0  0  0  0  0  0  0  0  0
    2.7190   16.2680   -4.7680 H   0  0  0  0  0  0  0  0  0  0  0  0
   -1.2790   15.7338   -2.9386 H   0  0  0  0  0  0  0  0  0  0  0  0
   -1.3769   16.6316   -4.4913 H   0  0  0  0  0  0  0  0  0  0  0  0
   -1.3700   14.8353   -4.4913 H   0  0  0  0  0  0  0  0  0  0  0  0
    0.9982   16.9382   -2.3180 H   0  0  0  0  0  0  0  0  0  0  0  0
    2.0731   17.2766   -3.7169 H   0  0  0  0  0  0  0  0  0  0  0  0
    0.3818   17.8816   -3.7169 H   0  0  0  0  0  0  0  0  0  0  0  0
    3.5881   11.5648   -2.9812 H   0  0  0  0  0  0  0  0  0  0  0  0
    3.0722   10.7253   -4.4831 H   0  0  0  0  0  0  0  0  0  0  0  0
    3.3002   12.5071   -4.4831 H   0  0  0  0  0  0  0  0  0  0  0  0
    0.4331   10.7738   -5.0692 H   0  0  0  0  0  0  0  0  0  0  0  0
    1.3945    9.7301   -3.8771 H   0  0  0  0  0  0  0  0  0  0  0  0
   -1.3662   10.9174   -3.4857 H   0  0  0  0  0  0  0  0  0  0  0  0
   -0.8944    9.1779   -3.6235 H   0  0  0  0  0  0  0  0  0  0  0  0
    0.8424    8.8564   -0.4103 H   0  0  0  0  0  0  0  0  0  0  0  0
    0.3740    8.0446   -1.9426 H   0  0  0  0  0  0  0  0  0  0  0  0
    1.6791    9.2788   -1.9426 H   0  0  0  0  0  0  0  0  0  0  0  0
  1  2  1  0
  2  3  1  0
  3  4  1  0
  4  5  1  0
  5  6  1  0
  6  7  1  0
  7  8  1  0
  7  9  1  0
  2 10  1  0
 10 11  1  0
 11 12  1  0
 12 13  1  0
 13 14  1  1
 13 15  1  0
 15 16  1  0
 16 17  1  0
 17 18  2  0
 18 19  1  0
 19 20  1  0
 20 21  1  0
 21 22  1  0
 22 23  1  0
 22 24  1  0
 24 25  1  0
 24 26  1  0
 19 27  1  0
 27 28  1  6
 27 29  1  0
 29 30  1  0
 30 31  1  0
 31 32  1  6
  7  5  1  0
 31 10  1  0
 31 13  1  0
 27 15  1  0
 24 18  1  0
  1 33  1  0
  1 34  1  0
  1 35  1  0
  2 36  1  1
  3 37  1  0
  3 38  1  0
  4 39  1  0
  4 40  1  0
  5 41  1  1
  8 42  1  0
  8 43  1  0
  8 44  1  0
  9 45  1  0
  9 46  1  0
  9 47  1  0
 10 48  1  6
 11 49  1  0
 11 50  1  0
 12 51  1  0
 12 52  1  0
 14 53  1  0
 14 54  1  0
 14 55  1  0
 15 56  1  1
 16 57  1  0
 16 58  1  0
 17 59  1  0
 19 60  1  6
 20 61  1  0
 20 62  1  0
 21 63  1  0
 21 64  1  0
 22 65  1  6
 23 66  1  0
 25 67  1  0
 25 68  1  0
 25 69  1  0
 26 70  1  0
 26 71  1  0
 26 72  1  0
 28 73  1  0
 28 74  1  0
 28 75  1  0
 29 76  1  0
 29 77  1  0
 30 78  1  0
 30 79  1  0
 32 80  1  0
 32 81  1  0
 32 82  1  0
M  END
>  <meeko>  (14) 
{"is_sidechain": [false], "intermolecular_energy": 2.731, "internal_energy": -0.839}

$$$$
EPH_relaxed_0001_pdb2pqr_Repair_392_r2_0001_out
     RDKit          3D

 82 86  0  0  0  0  0  0  0  0999 V2000
   -3.9300    7.2210   -3.4160 C   0  0  0  0  0  0  0  0  0  0  0  0
   -3.8840    7.2740   -1.8870 C   0  0  2  0  0  0  0  0  0  0  0  0
   -5.2740    7.0530   -1.2560 C   0  0  0  0  0  0  0  0  0  0  0  0
   -6.4320    7.2290   -2.2420 C   0  0  0  0  0  0  0  0  0  0  0  0
   -7.7270    7.4910   -1.5340 C   0  0  2  0  0  0  0  0  0  0  0  0
   -8.7280    8.1330   -2.3360 O   0  0  0  0  0  0  0  0  0  0  0  0
   -8.2370    8.8840   -1.2130 C   0  0  0  0  0  0  0  0  0  0  0  0
   -7.4610   10.1060   -1.5910 C   0  0  0  0  0  0  0  0  0  0  0  0
   -9.2380    9.0420   -0.1110 C   0  0  0  0  0  0  0  0  0  0  0  0
   -3.3110    8.6100   -1.4290 C   0  0  1  0  0  0  0  0  0  0  0  0
   -3.9080    9.0850   -0.0780 C   0  0  0  0  0  0  0  0  0  0  0  0
   -2.7720    9.8190    0.6800 C   0  0  0  0  0  0  0  0  0  0  0  0
   -1.6690   10.0330   -0.3830 C   0  0  1  0  0  0  0  0  0  0  0  0
   -2.1210   11.2940   -1.1830 C   0  0  0  0  0  0  0  0  0  0  0  0
   -0.2090   10.1840    0.1570 C   0  0  2  0  0  0  0  0  0  0  0  0
    0.0270   11.4020    1.0660 C   0  0  0  0  0  0  0  0  0  0  0  0
    0.4570   12.6480    0.3640 C   0  0  0  0  0  0  0  0  0  0  0  0
    0.9200   12.7150   -0.8980 C   0  0  0  0  0  0  0  0  0  0  0  0
    1.1420   11.4410   -1.7240 C   0  0  1  0  0  0  0  0  0  0  0  0
    2.5270   11.5080   -2.4180 C   0  0  0  0  0  0  0  0  0  0  0  0
    2.7070   12.7780   -3.2440 C   0  0  0  0  0  0  0  0  0  0  0  0
    2.5370   14.0220   -2.3760 C   0  0  2  0  0  0  0  0  0  0  0  0
    3.6140   14.0790   -1.4360 O   0  0  0  0  0  0  0  0  0  0  0  0
    1.1800   14.0600   -1.6190 C   0  0  0  0  0  0  0  0  0  0  0  0
    0.0280   14.3020   -2.6260 C   0  0  0  0  0  0  0  0  0  0  0  0
    1.1950   15.2920   -0.6730 C   0  0  0  0  0  0  0  0  0  0  0  0
    0.9090   10.0680   -0.9570 C   0  0  1  0  0  0  0  0  0  0  0  0
    2.2190    9.6370   -0.2300 C   0  0  0  0  0  0  0  0  0  0  0  0
    0.5920    8.9400   -2.0080 C   0  0  0  0  0  0  0  0  0  0  0  0
   -0.8840    8.7610   -2.4110 C   0  0  0  0  0  0  0  0  0  0  0  0
   -1.7840    8.6790   -1.1750 C   0  0  2  0  0  0  0  0  0  0  0  0
   -1.3670    7.4070   -0.3620 C   0  0  0  0  0  0  0  0  0  0  0  0
   -4.6201    6.4259   -3.7347 H   0  0  0  0  0  0  0  0  0  0  0  0
   -4.2798    8.1882   -3.8061 H   0  0  0  0  0  0  0  0  0  0  0  0
   -2.9232    7.0108   -3.8061 H   0  0  0  0  0  0  0  0  0  0  0  0
   -3.2329    6.4548   -1.5477 H   0  0  0  0  0  0  0  0  0  0  0  0
   -5.3137    6.0305   -0.8525 H   0  0  0  0  0  0  0  0  0  0  0  0
   -5.3978    7.8173   -0.4747 H   0  0  0  0  0  0  0  0  0  0  0  0
   -6.2099    8.0781   -2.9050 H   0  0  0  0  0  0  0  0  0  0  0  0
   -6.5377    6.2974   -2.8172 H   0  0  0  0  0  0  0  0  0  0  0  0
   -7.5985    6.5913   -0.9144 H   0  0  0  0  0  0  0  0  0  0  0  0
   -7.1304   10.6267   -0.6802 H   0  0  0  0  0  0  0  0  0  0  0  0
   -6.5829    9.8134   -2.1854 H   0  0  0  0  0  0  0  0  0  0  0  0
   -8.0992   10.7764   -2.1854 H   0  0  0  0  0  0  0  0  0  0  0  0
   -8.7291    8.9617    0.8609 H   0  0  0  0  0  0  0  0  0  0  0  0
   -9.7202   10.0274   -0.1921 H   0  0  0  0  0  0  0  0  0  0  0  0
  -10.0002    8.2530   -0.1921 H   0  0  0  0  0  0  0  0  0  0  0  0
   -3.5766    9.2316   -2.2968 H   0  0  0  0  0  0  0  0  0  0  0  0
   -4.7493    9.7709   -0.2560 H   0  0  0  0  0  0  0  0  0  0  0  0
   -4.2874    8.2342    0.5069 H   0  0  0  0  0  0  0  0  0  0  0  0
   -3.1266   10.7839    1.0715 H   0  0  0  0  0  0  0  0  0  0  0  0
   -2.4107    9.2462    1.5468 H   0  0  0  0  0  0  0  0  0  0  0  0
   -2.4066   12.0909   -0.4806 H   0  0  0  0  0  0  0  0  0  0  0  0
   -1.2920   11.6431   -1.8162 H   0  0  0  0  0  0  0  0  0  0  0  0
   -2.9830   11.0370   -1.8162 H   0  0  0  0  0  0  0  0  0  0  0  0
   -0.1047    9.3023    0.8064 H   0  0  0  0  0  0  0  0  0  0  0  0
   -0.9124   11.6175    1.5962 H   0  0  0  0  0  0  0  0  0  0  0  0
    0.8567   11.1271    1.7338 H   0  0  0  0  0  0  0  0  0  0  0  0
    0.3896   13.5911    0.9261 H   0  0  0  0  0  0  0  0  0  0  0  0
    0.3454   11.4279   -2.4825 H   0  0  0  0  0  0  0  0  0  0  0  0
    3.3100   11.4755   -1.6461 H   0  0  0  0  0  0  0  0  0  0  0  0
    2.5985   10.6509   -3.1038 H   0  0  0  0  0  0  0  0  0  0  0  0
    3.7151   12.7812   -3.6842 H   0  0  0  0  0  0  0  0  0  0  0  0
    1.9421   12.7941   -4.0343 H   0  0  0  0  0  0  0  0  0  0  0  0
    2.5473   14.8950   -3.0451 H   0  0  0  0  0  0  0  0  0  0  0  0
    4.3150   13.4860   -1.7550 H   0  0  0  0  0  0  0  0  0  0  0  0
   -0.9044   14.4979   -2.0763 H   0  0  0  0  0  0  0  0  0  0  0  0
    0.2698   15.1689   -3.2584 H   0  0  0  0  0  0  0  0  0  0  0  0
   -0.0994   13.4110   -3.2584 H   0  0  0  0  0  0  0  0  0  0  0  0
    1.1909   14.9513    0.3729 H   0  0  0  0  0  0  0  0  0  0  0  0
    2.1005   15.8876   -0.8610 H   0  0  0  0  0  0  0  0  0  0  0  0
    0.3043   15.9095   -0.8610 H   0  0  0  0  0  0  0  0  0  0  0  0
    2.0677    9.6868    0.8584 H   0  0  0  0  0  0  0  0  0  0  0  0
    2.4761    8.6069   -0.5177 H   0  0  0  0  0  0  0  0  0  0  0  0
    3.0375   10.3132   -0.5177 H   0  0  0  0  0  0  0  0  0  0  0  0
    1.1612    9.1669   -2.9215 H   0  0  0  0  0  0  0  0  0  0  0  0
    0.8713    7.9984   -1.5127 H   0  0  0  0  0  0  0  0  0  0  0  0
   -1.1953    9.6179   -3.0265 H   0  0  0  0  0  0  0  0  0  0  0  0
   -0.9813    7.8236   -2.9783 H   0  0  0  0  0  0  0  0  0  0  0  0
   -1.4371    7.6208    0.7147 H   0  0  0  0  0  0  0  0  0  0  0  0
   -2.0390    6.5736   -0.6149 H   0  0  0  0  0  0  0  0  0  0  0  0
   -0.3321    7.1332   -0.6149 H   0  0  0  0  0  0  0  0  0  0  0  0
  1  2  1  0
  2  3  1  0
  3  4  1  0
  4  5  1  0
  5  6  1  0
  6  7  1  0
  7  8  1  0
  7  9  1  0
  2 10  1  0
 10 11  1  0
 11 12  1  0
 12 13  1  0
 13 14  1  6
 13 15  1  0
 15 16  1  0
 16 17  1  0
 17 18  2  0
 18 19  1  0
 19 20  1  0
 20 21  1  0
 21 22  1  0
 22 23  1  0
 22 24  1  0
 24 25  1  0
 24 26  1  0
 19 27  1  0
 27 28  1  1
 27 29  1  0
 29 30  1  0
 30 31  1  0
 31 32  1  1
  7  5  1  0
 31 10  1  0
 31 13  1  0
 27 15  1  0
 24 18  1  0
  1 33  1  0
  1 34  1  0
  1 35  1  0
  2 36  1  1
  3 37  1  0
  3 38  1  0
  4 39  1  0
  4 40  1  0
  5 41  1  1
  8 42  1  0
  8 43  1  0
  8 44  1  0
  9 45  1  0
  9 46  1  0
  9 47  1  0
 10 48  1  6
 11 49  1  0
 11 50  1  0
 12 51  1  0
 12 52  1  0
 14 53  1  0
 14 54  1  0
 14 55  1  0
 15 56  1  1
 16 57  1  0
 16 58  1  0
 17 59  1  0
 19 60  1  6
 20 61  1  0
 20 62  1  0
 21 63  1  0
 21 64  1  0
 22 65  1  6
 23 66  1  0
 25 67  1  0
 25 68  1  0
 25 69  1  0
 26 70  1  0
 26 71  1  0
 26 72  1  0
 28 73  1  0
 28 74  1  0
 28 75  1  0
 29 76  1  0
 29 77  1  0
 30 78  1  0
 30 79  1  0
 32 80  1  0
 32 81  1  0
 32 82  1  0
M  END
>  <meeko>  (15) 
{"is_sidechain": [false], "intermolecular_energy": 2.731, "internal_energy": -0.839}

$$$$
EPH_relaxed_0001_pdb2pqr_Repair_392_r2_0001_out
     RDKit          3D

 82 86  0  0  0  0  0  0  0  0999 V2000
  -14.9110   10.8910   -1.3410 C   0  0  0  0  0  0  0  0  0  0  0  0
  -14.4150    9.6120   -2.0210 C   0  0  2  0  0  0  0  0  0  0  0  0
  -14.7990    8.3460   -1.2290 C   0  0  0  0  0  0  0  0  0  0  0  0
  -14.7040    7.0550   -2.0470 C   0  0  0  0  0  0  0  0  0  0  0  0
  -15.0400    7.2870   -3.4890 C   0  0  2  0  0  0  0  0  0  0  0  0
  -15.2870    6.0950   -4.2460 O   0  0  0  0  0  0  0  0  0  0  0  0
  -14.1390    6.8660   -4.6360 C   0  0  0  0  0  0  0  0  0  0  0  0
  -12.8320    6.1800   -4.3900 C   0  0  0  0  0  0  0  0  0  0  0  0
  -14.2950    7.5530   -5.9570 C   0  0  0  0  0  0  0  0  0  0  0  0
  -12.9020    9.6730   -2.2030 C   0  0  1  0  0  0  0  0  0  0  0  0
  -12.3610   11.1280   -2.2150 C   0  0  0  0  0  0  0  0  0  0  0  0
  -10.9690   11.0930   -1.5330 C   0  0  0  0  0  0  0  0  0  0  0  0
  -10.6130    9.5900   -1.4510 C   0  0  1  0  0  0  0  0  0  0  0  0
  -10.0660    9.2290   -2.8680 C   0  0  0  0  0  0  0  0  0  0  0  0
   -9.6100    9.1790   -0.3230 C   0  0  2  0  0  0  0  0  0  0  0  0
   -8.2080    9.8010   -0.4380 C   0  0  0  0  0  0  0  0  0  0  0  0
   -7.2180    9.0040   -1.2210 C   0  0  0  0  0  0  0  0  0  0  0  0
   -7.3550    7.7110   -1.5680 C   0  0  0  0  0  0  0  0  0  0  0  0
   -8.5540    6.8870   -1.0820 C   0  0  1  0  0  0  0  0  0  0  0  0
   -8.0600    5.5160   -0.5510 C   0  0  0  0  0  0  0  0  0  0  0  0
   -7.2110    4.7650   -1.5730 C   0  0  0  0  0  0  0  0  0  0  0  0
   -5.9970    5.5920   -1.9880 C   0  0  2  0  0  0  0  0  0  0  0  0
   -5.1250    5.7270   -0.8620 O   0  0  0  0  0  0  0  0  0  0  0  0
   -6.3720    7.0000   -2.5300 C   0  0  0  0  0  0  0  0  0  0  0  0
   -7.0590    6.8590   -3.9110 C   0  0  0  0  0  0  0  0  0  0  0  0
   -5.0530    7.7810   -2.7790 C   0  0  0  0  0  0  0  0  0  0  0  0
   -9.5310    7.6190   -0.0640 C   0  0  1  0  0  0  0  0  0  0  0  0
   -9.0130    7.4370    1.3950 C   0  0  0  0  0  0  0  0  0  0  0  0
  -10.9450    6.9300   -0.1240 C   0  0  0  0  0  0  0  0  0  0  0  0
  -11.9340    7.4620   -1.1790 C   0  0  0  0  0  0  0  0  0  0  0  0
  -12.0280    8.9890   -1.1220 C   0  0  2  0  0  0  0  0  0  0  0  0
  -12.5960    9.3810    0.2850 C   0  0  0  0  0  0  0  0  0  0  0  0
  -14.8632   10.7679   -0.2490 H   0  0  0  0  0  0  0  0  0  0  0  0
  -14.2757   11.7368   -1.6428 H   0  0  0  0  0  0  0  0  0  0  0  0
  -15.9504   11.0873   -1.6428 H   0  0  0  0  0  0  0  0  0  0  0  0
  -14.9060    9.5484   -3.0033 H   0  0  0  0  0  0  0  0  0  0  0  0
  -14.1246    8.2595   -0.3643 H   0  0  0  0  0  0  0  0  0  0  0  0
  -15.8516    8.4606   -0.9309 H   0  0  0  0  0  0  0  0  0  0  0  0
  -13.6781    6.6641   -1.9784 H   0  0  0  0  0  0  0  0  0  0  0  0
  -15.4281    6.3353   -1.6375 H   0  0  0  0  0  0  0  0  0  0  0  0
  -15.5280    8.2424   -3.2460 H   0  0  0  0  0  0  0  0  0  0  0  0
  -12.6627    6.0911   -3.3067 H   0  0  0  0  0  0  0  0  0  0  0  0
  -12.8537    5.1770   -4.8412 H   0  0  0  0  0  0  0  0  0  0  0  0
  -12.0189    6.7676   -4.8412 H   0  0  0  0  0  0  0  0  0  0  0  0
  -14.5358    8.6136   -5.7925 H   0  0  0  0  0  0  0  0  0  0  0  0
  -13.3560    7.4740   -6.5245 H   0  0  0  0  0  0  0  0  0  0  0  0
  -15.1077    7.0762   -6.5245 H   0  0  0  0  0  0  0  0  0  0  0  0
  -12.8083    9.1352   -3.1580 H   0  0  0  0  0  0  0  0  0  0  0  0
  -12.2669   11.4887   -3.2499 H   0  0  0  0  0  0  0  0  0  0  0  0
  -13.0439   11.8078   -1.6844 H   0  0  0  0  0  0  0  0  0  0  0  0
  -10.2268   11.6356   -2.1370 H   0  0  0  0  0  0  0  0  0  0  0  0
  -10.9765   11.5747   -0.5441 H   0  0  0  0  0  0  0  0  0  0  0  0
   -9.1519    8.6257   -2.7654 H   0  0  0  0  0  0  0  0  0  0  0  0
  -10.8251    8.6538   -3.4185 H   0  0  0  0  0  0  0  0  0  0  0  0
   -9.8356   10.1531   -3.4185 H   0  0  0  0  0  0  0  0  0  0  0  0
  -10.0635    9.6295    0.5722 H   0  0  0  0  0  0  0  0  0  0  0  0
   -8.3110   10.7839   -0.9211 H   0  0  0  0  0  0  0  0  0  0  0  0
   -7.8135    9.8527    0.5875 H   0  0  0  0  0  0  0  0  0  0  0  0
   -6.2991    9.5168   -1.5413 H   0  0  0  0  0  0  0  0  0  0  0  0
   -9.1960    6.7366   -1.9625 H   0  0  0  0  0  0  0  0  0  0  0  0
   -7.4567    5.6845    0.3532 H   0  0  0  0  0  0  0  0  0  0  0  0
   -8.9467    4.9013   -0.3367 H   0  0  0  0  0  0  0  0  0  0  0  0
   -6.8673    3.8188   -1.1296 H   0  0  0  0  0  0  0  0  0  0  0  0
   -7.8251    4.5716   -2.4649 H   0  0  0  0  0  0  0  0  0  0  0  0
   -5.5011    5.0597   -2.8131 H   0  0  0  0  0  0  0  0  0  0  0  0
   -5.1260    6.6630   -0.5980 H   0  0  0  0  0  0  0  0  0  0  0  0
   -8.1274    6.6397   -3.7683 H   0  0  0  0  0  0  0  0  0  0  0  0
   -6.9493    7.7984   -4.4727 H   0  0  0  0  0  0  0  0  0  0  0  0
   -6.5882    6.0388   -4.4727 H   0  0  0  0  0  0  0  0  0  0  0  0
   -4.5985    8.0501   -1.8141 H   0  0  0  0  0  0  0  0  0  0  0  0
   -4.3555    7.1502   -3.3496 H   0  0  0  0  0  0  0  0  0  0  0  0
   -5.2707    8.6959   -3.3496 H   0  0  0  0  0  0  0  0  0  0  0  0
   -9.8069    7.7159    2.1034 H   0  0  0  0  0  0  0  0  0  0  0  0
   -8.7310    6.3860    1.5555 H   0  0  0  0  0  0  0  0  0  0  0  0
   -8.1356    8.0807    1.5555 H   0  0  0  0  0  0  0  0  0  0  0  0
  -10.7856    5.8607   -0.3269 H   0  0  0  0  0  0  0  0  0  0  0  0
  -11.4137    7.1508    0.8464 H   0  0  0  0  0  0  0  0  0  0  0  0
  -11.5901    7.1598   -2.1792 H   0  0  0  0  0  0  0  0  0  0  0  0
  -12.9288    7.0416   -0.9703 H   0  0  0  0  0  0  0  0  0  0  0  0
  -11.9626    8.9438    1.0709 H   0  0  0  0  0  0  0  0  0  0  0  0
  -12.6019   10.4764    0.3858 H   0  0  0  0  0  0  0  0  0  0  0  0
  -13.6222    8.9980    0.3858 H   0  0  0  0  0  0  0  0  0  0  0  0
  1  2  1  0
  2  3  1  0
  3  4  1  0
  4  5  1  0
  5  6  1  0
  6  7  1  0
  7  8  1  0
  7  9  1  0
  2 10  1  0
 10 11  1  0
 11 12  1  0
 12 13  1  0
 13 14  1  6
 13 15  1  0
 15 16  1  0
 16 17  1  0
 17 18  2  0
 18 19  1  0
 19 20  1  0
 20 21  1  0
 21 22  1  0
 22 23  1  0
 22 24  1  0
 24 25  1  0
 24 26  1  0
 19 27  1  0
 27 28  1  1
 27 29  1  0
 29 30  1  0
 30 31  1  0
 31 32  1  1
  7  5  1  0
 31 10  1  0
 31 13  1  0
 27 15  1  0
 24 18  1  0
  1 33  1  0
  1 34  1  0
  1 35  1  0
  2 36  1  6
  3 37  1  0
  3 38  1  0
  4 39  1  0
  4 40  1  0
  5 41  1  1
  8 42  1  0
  8 43  1  0
  8 44  1  0
  9 45  1  0
  9 46  1  0
  9 47  1  0
 10 48  1  6
 11 49  1  0
 11 50  1  0
 12 51  1  0
 12 52  1  0
 14 53  1  0
 14 54  1  0
 14 55  1  0
 15 56  1  1
 16 57  1  0
 16 58  1  0
 17 59  1  0
 19 60  1  6
 20 61  1  0
 20 62  1  0
 21 63  1  0
 21 64  1  0
 22 65  1  6
 23 66  1  0
 25 67  1  0
 25 68  1  0
 25 69  1  0
 26 70  1  0
 26 71  1  0
 26 72  1  0
 28 73  1  0
 28 74  1  0
 28 75  1  0
 29 76  1  0
 29 77  1  0
 30 78  1  0
 30 79  1  0
 32 80  1  0
 32 81  1  0
 32 82  1  0
M  END
>  <meeko>  (16) 
{"is_sidechain": [false], "intermolecular_energy": 2.731, "internal_energy": -0.839}

$$$$
EPH_relaxed_0001_pdb2pqr_Repair_392_r2_0001_out
     RDKit          3D

 82 86  0  0  0  0  0  0  0  0999 V2000
  -14.9660    9.3280    0.8200 C   0  0  0  0  0  0  0  0  0  0  0  0
  -14.1230    9.3670   -0.4580 C   0  0  2  0  0  0  0  0  0  0  0  0
  -14.5430    8.2760   -1.4640 C   0  0  0  0  0  0  0  0  0  0  0  0
  -14.6620    8.7810   -2.9040 C   0  0  0  0  0  0  0  0  0  0  0  0
  -15.2750   10.1480   -2.9640 C   0  0  2  0  0  0  0  0  0  0  0  0
  -14.9110   10.9170   -4.1180 O   0  0  0  0  0  0  0  0  0  0  0  0
  -14.4720   11.4300   -2.8500 C   0  0  0  0  0  0  0  0  0  0  0  0
  -12.9870   11.4070   -2.6660 C   0  0  0  0  0  0  0  0  0  0  0  0
  -15.1770   12.6810   -2.4290 C   0  0  0  0  0  0  0  0  0  0  0  0
  -12.6470    9.2160   -0.1120 C   0  0  1  0  0  0  0  0  0  0  0  0
  -12.3920    9.1830    1.4190 C   0  0  0  0  0  0  0  0  0  0  0  0
  -11.2080    8.2110    1.6550 C   0  0  0  0  0  0  0  0  0  0  0  0
  -10.6090    7.9770    0.2480 C   0  0  1  0  0  0  0  0  0  0  0  0
   -9.7020    9.2190   -0.0140 C   0  0  0  0  0  0  0  0  0  0  0  0
   -9.8280    6.6380    0.0440 C   0  0  2  0  0  0  0  0  0  0  0  0
   -8.5740    6.4740    0.9210 C   0  0  0  0  0  0  0  0  0  0  0  0
   -7.3050    6.9800    0.3200 C   0  0  0  0  0  0  0  0  0  0  0  0
   -7.1200    7.2820   -0.9780 C   0  0  0  0  0  0  0  0  0  0  0  0
   -8.2260    7.0290   -2.0110 C   0  0  1  0  0  0  0  0  0  0  0  0
   -7.6210    6.3340   -3.2590 C   0  0  0  0  0  0  0  0  0  0  0  0
   -6.4420    7.1060   -3.8440 C   0  0  0  0  0  0  0  0  0  0  0  0
   -5.3390    7.2860   -2.8040 C   0  0  2  0  0  0  0  0  0  0  0  0
   -4.7810    6.0040   -2.4970 O   0  0  0  0  0  0  0  0  0  0  0  0
   -5.8330    7.9680   -1.4980 C   0  0  0  0  0  0  0  0  0  0  0  0
   -6.1550    9.4570   -1.7780 C   0  0  0  0  0  0  0  0  0  0  0  0
   -4.6590    7.9610   -0.4820 C   0  0  0  0  0  0  0  0  0  0  0  0
   -9.5240    6.2890   -1.4690 C   0  0  1  0  0  0  0  0  0  0  0  0
   -9.3240    4.7440   -1.5380 C   0  0  0  0  0  0  0  0  0  0  0  0
  -10.7380    6.6220   -2.4150 C   0  0  0  0  0  0  0  0  0  0  0  0
  -11.5440    7.8940   -2.0900 C   0  0  0  0  0  0  0  0  0  0  0  0
  -11.9270    7.9360   -0.6080 C   0  0  2  0  0  0  0  0  0  0  0  0
  -12.8590    6.7100   -0.3190 C   0  0  0  0  0  0  0  0  0  0  0  0
  -14.3033    9.3587    1.6974 H   0  0  0  0  0  0  0  0  0  0  0  0
  -15.6416   10.1959    0.8402 H   0  0  0  0  0  0  0  0  0  0  0  0
  -15.5586    8.4015    0.8402 H   0  0  0  0  0  0  0  0  0  0  0  0
  -14.2942   10.3420   -0.9377 H   0  0  0  0  0  0  0  0  0  0  0  0
  -13.7923    7.4724   -1.4386 H   0  0  0  0  0  0  0  0  0  0  0  0
  -15.5414    7.9268   -1.1619 H   0  0  0  0  0  0  0  0  0  0  0  0
  -13.6581    8.8207   -3.3519 H   0  0  0  0  0  0  0  0  0  0  0  0
  -15.3137    8.0887   -3.4572 H   0  0  0  0  0  0  0  0  0  0  0  0
  -16.1761    9.7929   -2.4426 H   0  0  0  0  0  0  0  0  0  0  0  0
  -12.7507   11.4033   -1.5917 H   0  0  0  0  0  0  0  0  0  0  0  0
  -12.5733   10.5023   -3.1355 H   0  0  0  0  0  0  0  0  0  0  0  0
  -12.5455   12.2984   -3.1355 H   0  0  0  0  0  0  0  0  0  0  0  0
  -15.2065   12.7333   -1.3306 H   0  0  0  0  0  0  0  0  0  0  0  0
  -14.6389   13.5556   -2.8234 H   0  0  0  0  0  0  0  0  0  0  0  0
  -16.2038   12.6737   -2.8234 H   0  0  0  0  0  0  0  0  0  0  0  0
  -12.2454   10.0991   -0.6305 H   0  0  0  0  0  0  0  0  0  0  0  0
  -12.1342   10.1890    1.7817 H   0  0  0  0  0  0  0  0  0  0  0  0
  -13.2894    8.8509    1.9615 H   0  0  0  0  0  0  0  0  0  0  0  0
  -10.4616    8.6634    2.3245 H   0  0  0  0  0  0  0  0  0  0  0  0
  -11.5270    7.2735    2.1339 H   0  0  0  0  0  0  0  0  0  0  0  0
   -9.3861    9.6516    0.9468 H   0  0  0  0  0  0  0  0  0  0  0  0
   -8.8149    8.9109   -0.5868 H   0  0  0  0  0  0  0  0  0  0  0  0
  -10.2655    9.9703   -0.5868 H   0  0  0  0  0  0  0  0  0  0  0  0
  -10.5467    5.8883    0.4065 H   0  0  0  0  0  0  0  0  0  0  0  0
   -8.7443    7.0168    1.8625 H   0  0  0  0  0  0  0  0  0  0  0  0
   -8.4363    5.3910    1.0555 H   0  0  0  0  0  0  0  0  0  0  0  0
   -6.4481    7.1177    0.9958 H   0  0  0  0  0  0  0  0  0  0  0  0
   -8.6152    8.0197   -2.2886 H   0  0  0  0  0  0  0  0  0  0  0  0
   -7.2770    5.3295   -2.9713 H   0  0  0  0  0  0  0  0  0  0  0  0
   -8.4053    6.2880   -4.0289 H   0  0  0  0  0  0  0  0  0  0  0  0
   -6.0391    6.5509   -4.7040 H   0  0  0  0  0  0  0  0  0  0  0  0
   -6.7938    8.0995   -4.1588 H   0  0  0  0  0  0  0  0  0  0  0  0
   -4.5817    7.9548   -3.2389 H   0  0  0  0  0  0  0  0  0  0  0  0
   -4.4900    6.0250   -1.5690 H   0  0  0  0  0  0  0  0  0  0  0  0
   -6.2708    9.9927   -0.8243 H   0  0  0  0  0  0  0  0  0  0  0  0
   -5.3336    9.9077   -2.3543 H   0  0  0  0  0  0  0  0  0  0  0  0
   -7.0893    9.5280   -2.3543 H   0  0  0  0  0  0  0  0  0  0  0  0
   -5.0604    7.9634    0.5421 H   0  0  0  0  0  0  0  0  0  0  0  0
   -4.0478    7.0592   -0.6342 H   0  0  0  0  0  0  0  0  0  0  0  0
   -4.0371    8.8555   -0.6342 H   0  0  0  0  0  0  0  0  0  0  0  0
   -9.2711    4.3352   -0.5181 H   0  0  0  0  0  0  0  0  0  0  0  0
  -10.1706    4.2882   -2.0723 H   0  0  0  0  0  0  0  0  0  0  0  0
   -8.3892    4.5188   -2.0723 H   0  0  0  0  0  0  0  0  0  0  0  0
  -10.3441    6.7297   -3.4364 H   0  0  0  0  0  0  0  0  0  0  0  0
  -11.4453    5.7907   -2.2786 H   0  0  0  0  0  0  0  0  0  0  0  0
  -10.9340    8.7775   -2.3293 H   0  0  0  0  0  0  0  0  0  0  0  0
  -12.4656    7.8885   -2.6906 H   0  0  0  0  0  0  0  0  0  0  0  0
  -12.9613    6.5754    0.7679 H   0  0  0  0  0  0  0  0  0  0  0  0
  -13.8500    6.8905   -0.7610 H   0  0  0  0  0  0  0  0  0  0  0  0
  -12.4200    5.8034   -0.7610 H   0  0  0  0  0  0  0  0  0  0  0  0
  1  2  1  0
  2  3  1  0
  3  4  1  0
  4  5  1  0
  5  6  1  0
  6  7  1  0
  7  8  1  0
  7  9  1  0
  2 10  1  0
 10 11  1  0
 11 12  1  0
 12 13  1  0
 13 14  1  6
 13 15  1  0
 15 16  1  0
 16 17  1  0
 17 18  2  0
 18 19  1  0
 19 20  1  0
 20 21  1  0
 21 22  1  0
 22 23  1  0
 22 24  1  0
 24 25  1  0
 24 26  1  0
 19 27  1  0
 27 28  1  1
 27 29  1  0
 29 30  1  0
 30 31  1  0
 31 32  1  1
  7  5  1  0
 31 10  1  0
 31 13  1  0
 27 15  1  0
 24 18  1  0
  1 33  1  0
  1 34  1  0
  1 35  1  0
  2 36  1  6
  3 37  1  0
  3 38  1  0
  4 39  1  0
  4 40  1  0
  5 41  1  1
  8 42  1  0
  8 43  1  0
  8 44  1  0
  9 45  1  0
  9 46  1  0
  9 47  1  0
 10 48  1  6
 11 49  1  0
 11 50  1  0
 12 51  1  0
 12 52  1  0
 14 53  1  0
 14 54  1  0
 14 55  1  0
 15 56  1  1
 16 57  1  0
 16 58  1  0
 17 59  1  0
 19 60  1  6
 20 61  1  0
 20 62  1  0
 21 63  1  0
 21 64  1  0
 22 65  1  6
 23 66  1  0
 25 67  1  0
 25 68  1  0
 25 69  1  0
 26 70  1  0
 26 71  1  0
 26 72  1  0
 28 73  1  0
 28 74  1  0
 28 75  1  0
 29 76  1  0
 29 77  1  0
 30 78  1  0
 30 79  1  0
 32 80  1  0
 32 81  1  0
 32 82  1  0
M  END
>  <meeko>  (17) 
{"is_sidechain": [false], "intermolecular_energy": 2.731, "internal_energy": -0.839}

$$$$
EPH_relaxed_0001_pdb2pqr_Repair_392_r2_0001_out
     RDKit          3D

 82 86  0  0  0  0  0  0  0  0999 V2000
    2.8350   11.3530   -5.3220 C   0  0  0  0  0  0  0  0  0  0  0  0
    1.8190   11.0530   -4.2160 C   0  0  2  0  0  0  0  0  0  0  0  0
    0.7020   10.1040   -4.6960 C   0  0  0  0  0  0  0  0  0  0  0  0
   -0.3660    9.8240   -3.6350 C   0  0  0  0  0  0  0  0  0  0  0  0
    0.1910    9.0490   -2.4800 C   0  0  2  0  0  0  0  0  0  0  0  0
   -0.6240    7.9530   -2.0450 O   0  0  0  0  0  0  0  0  0  0  0  0
   -0.4470    9.0240   -1.1040 C   0  0  0  0  0  0  0  0  0  0  0  0
   -1.6990    9.7900   -0.8100 C   0  0  0  0  0  0  0  0  0  0  0  0
    0.4030    8.6570    0.0730 C   0  0  0  0  0  0  0  0  0  0  0  0
    1.2130   12.3520   -3.7000 C   0  0  1  0  0  0  0  0  0  0  0  0
   -0.3230   12.2560   -3.4970 C   0  0  0  0  0  0  0  0  0  0  0  0
   -0.6660   13.1280   -2.2610 C   0  0  0  0  0  0  0  0  0  0  0  0
    0.6160   13.9530   -1.9980 C   0  0  1  0  0  0  0  0  0  0  0  0
    0.5440   15.1380   -3.0110 C   0  0  0  0  0  0  0  0  0  0  0  0
    0.8240   14.4580   -0.5330 C   0  0  2  0  0  0  0  0  0  0  0  0
   -0.2540   15.4270   -0.0170 C   0  0  0  0  0  0  0  0  0  0  0  0
    0.0230   16.8740   -0.2570 C   0  0  0  0  0  0  0  0  0  0  0  0
    1.2150   17.3960   -0.6030 C   0  0  0  0  0  0  0  0  0  0  0  0
    2.4650   16.5120   -0.6910 C   0  0  1  0  0  0  0  0  0  0  0  0
    3.6460   17.2120    0.0320 C   0  0  0  0  0  0  0  0  0  0  0  0
    3.8930   18.6260   -0.4850 C   0  0  0  0  0  0  0  0  0  0  0  0
    2.6450   19.4900   -0.3260 C   0  0  2  0  0  0  0  0  0  0  0  0
    2.3920   19.6830    1.0690 O   0  0  0  0  0  0  0  0  0  0  0  0
    1.3870   18.8810   -1.0070 C   0  0  0  0  0  0  0  0  0  0  0  0
    1.5430   18.9510   -2.5460 C   0  0  0  0  0  0  0  0  0  0  0  0
    0.1710   19.7780   -0.6520 C   0  0  0  0  0  0  0  0  0  0  0  0
    2.2800   15.0010   -0.2360 C   0  0  1  0  0  0  0  0  0  0  0  0
    2.4950   14.8790    1.3040 C   0  0  0  0  0  0  0  0  0  0  0  0
    3.3970   14.1200   -0.9100 C   0  0  0  0  0  0  0  0  0  0  0  0
    3.0840   13.5510   -2.3080 C   0  0  0  0  0  0  0  0  0  0  0  0
    1.7100   12.8740   -2.3290 C   0  0  2  0  0  0  0  0  0  0  0  0
    1.7580   11.6630   -1.3350 C   0  0  0  0  0  0  0  0  0  0  0  0
    3.7965   11.6369   -4.8694 H   0  0  0  0  0  0  0  0  0  0  0  0
    2.9734   10.4574   -5.9455 H   0  0  0  0  0  0  0  0  0  0  0  0
    2.4648   12.1802   -5.9455 H   0  0  0  0  0  0  0  0  0  0  0  0
    2.3566   10.5452   -3.4017 H   0  0  0  0  0  0  0  0  0  0  0  0
    0.2124   10.5580   -5.5702 H   0  0  0  0  0  0  0  0  0  0  0  0
    1.1783    9.1416   -4.9345 H   0  0  0  0  0  0  0  0  0  0  0  0
   -0.7605   10.7817   -3.2647 H   0  0  0  0  0  0  0  0  0  0  0  0
   -1.1619    9.2233   -4.0994 H   0  0  0  0  0  0  0  0  0  0  0  0
    1.2204    9.2486   -2.8126 H   0  0  0  0  0  0  0  0  0  0  0  0
   -1.8319    9.8713    0.2789 H   0  0  0  0  0  0  0  0  0  0  0  0
   -1.6238   10.7969   -1.2464 H   0  0  0  0  0  0  0  0  0  0  0  0
   -2.5613    9.2647   -1.2464 H   0  0  0  0  0  0  0  0  0  0  0  0
   -0.1372    8.8903    1.0024 H   0  0  0  0  0  0  0  0  0  0  0  0
    0.6293    7.5810    0.0406 H   0  0  0  0  0  0  0  0  0  0  0  0
    1.3413    9.2302    0.0406 H   0  0  0  0  0  0  0  0  0  0  0  0
    1.5332   13.0348   -4.5007 H   0  0  0  0  0  0  0  0  0  0  0  0
   -0.8472   12.6363   -4.3862 H   0  0  0  0  0  0  0  0  0  0  0  0
   -0.6369   11.2129   -3.3440 H   0  0  0  0  0  0  0  0  0  0  0  0
   -1.5168   13.7908   -2.4773 H   0  0  0  0  0  0  0  0  0  0  0  0
   -0.9580   12.5219   -1.3908 H   0  0  0  0  0  0  0  0  0  0  0  0
    0.4863   16.0883   -2.4601 H   0  0  0  0  0  0  0  0  0  0  0  0
    1.4440   15.1349   -3.6435 H   0  0  0  0  0  0  0  0  0  0  0  0
   -0.3490   15.0260   -3.6435 H   0  0  0  0  0  0  0  0  0  0  0  0
    0.7011   13.5360    0.0541 H   0  0  0  0  0  0  0  0  0  0  0  0
   -1.2029   15.1755   -0.5133 H   0  0  0  0  0  0  0  0  0  0  0  0
   -0.2811   15.2990    1.0752 H   0  0  0  0  0  0  0  0  0  0  0  0
   -0.8182   17.5733   -0.1414 H   0  0  0  0  0  0  0  0  0  0  0  0
    2.6906   16.4106   -1.7628 H   0  0  0  0  0  0  0  0  0  0  0  0
    3.4201   17.2642    1.1073 H   0  0  0  0  0  0  0  0  0  0  0  0
    4.5537   16.6219   -0.1628 H   0  0  0  0  0  0  0  0  0  0  0  0
    4.7189   19.0782    0.0837 H   0  0  0  0  0  0  0  0  0  0  0  0
    4.1477   18.5699   -1.5536 H   0  0  0  0  0  0  0  0  0  0  0  0
    2.8409   20.4480   -0.8298 H   0  0  0  0  0  0  0  0  0  0  0  0
    3.0300   19.1400    1.5610 H   0  0  0  0  0  0  0  0  0  0  0  0
    2.5204   19.3896   -2.7959 H   0  0  0  0  0  0  0  0  0  0  0  0
    1.4774   17.9372   -2.9677 H   0  0  0  0  0  0  0  0  0  0  0  0
    0.7420   19.5760   -2.9677 H   0  0  0  0  0  0  0  0  0  0  0  0
    0.0746   19.8491    0.4415 H   0  0  0  0  0  0  0  0  0  0  0  0
    0.3215   20.7831   -1.0729 H   0  0  0  0  0  0  0  0  0  0  0  0
   -0.7449   19.3375   -1.0729 H   0  0  0  0  0  0  0  0  0  0  0  0
    1.6550   15.3557    1.8304 H   0  0  0  0  0  0  0  0  0  0  0  0
    2.5476   13.8165    1.5838 H   0  0  0  0  0  0  0  0  0  0  0  0
    3.4341   15.3788    1.5838 H   0  0  0  0  0  0  0  0  0  0  0  0
    4.3017   14.7395   -0.9978 H   0  0  0  0  0  0  0  0  0  0  0  0
    3.5022   13.2403   -0.2581 H   0  0  0  0  0  0  0  0  0  0  0  0
    3.0922   14.3715   -3.0406 H   0  0  0  0  0  0  0  0  0  0  0  0
    3.8484   12.8015   -2.5610 H   0  0  0  0  0  0  0  0  0  0  0  0
    1.7432   12.0369   -0.3006 H   0  0  0  0  0  0  0  0  0  0  0  0
    0.8848   11.0156   -1.5034 H   0  0  0  0  0  0  0  0  0  0  0  0
    2.6797   11.0867   -1.5034 H   0  0  0  0  0  0  0  0  0  0  0  0
  1  2  1  0
  2  3  1  0
  3  4  1  0
  4  5  1  0
  5  6  1  0
  6  7  1  0
  7  8  1  0
  7  9  1  0
  2 10  1  0
 10 11  1  0
 11 12  1  0
 12 13  1  0
 13 14  1  6
 13 15  1  0
 15 16  1  0
 16 17  1  0
 17 18  2  0
 18 19  1  0
 19 20  1  0
 20 21  1  0
 21 22  1  0
 22 23  1  0
 22 24  1  0
 24 25  1  0
 24 26  1  0
 19 27  1  0
 27 28  1  1
 27 29  1  0
 29 30  1  0
 30 31  1  0
 31 32  1  1
  7  5  1  0
 31 10  1  0
 31 13  1  0
 27 15  1  0
 24 18  1  0
  1 33  1  0
  1 34  1  0
  1 35  1  0
  2 36  1  1
  3 37  1  0
  3 38  1  0
  4 39  1  0
  4 40  1  0
  5 41  1  1
  8 42  1  0
  8 43  1  0
  8 44  1  0
  9 45  1  0
  9 46  1  0
  9 47  1  0
 10 48  1  6
 11 49  1  0
 11 50  1  0
 12 51  1  0
 12 52  1  0
 14 53  1  0
 14 54  1  0
 14 55  1  0
 15 56  1  1
 16 57  1  0
 16 58  1  0
 17 59  1  0
 19 60  1  6
 20 61  1  0
 20 62  1  0
 21 63  1  0
 21 64  1  0
 22 65  1  6
 23 66  1  0
 25 67  1  0
 25 68  1  0
 25 69  1  0
 26 70  1  0
 26 71  1  0
 26 72  1  0
 28 73  1  0
 28 74  1  0
 28 75  1  0
 29 76  1  0
 29 77  1  0
 30 78  1  0
 30 79  1  0
 32 80  1  0
 32 81  1  0
 32 82  1  0
M  END
>  <meeko>  (18) 
{"is_sidechain": [false], "intermolecular_energy": 2.731, "internal_energy": -0.839}

$$$$
