EPH_relaxed_0001_pdb2pqr_Repair_101_r2_0001_out
     RDKit          3D

 82 86  0  0  0  0  0  0  0  0999 V2000
   -1.4310    8.5550   -1.7670 C   0  0  0  0  0  0  0  0  0  0  0  0
   -1.8790    9.1220   -0.4170 C   0  0  2  0  0  0  0  0  0  0  0  0
   -3.3810    9.4700   -0.4030 C   0  0  0  0  0  0  0  0  0  0  0  0
   -4.2970    8.2430   -0.4060 C   0  0  0  0  0  0  0  0  0  0  0  0
   -5.5790    8.5100   -1.1350 C   0  0  2  0  0  0  0  0  0  0  0  0
   -6.6150    7.5490   -0.8970 O   0  0  0  0  0  0  0  0  0  0  0  0
   -6.1130    7.6190   -2.2410 C   0  0  0  0  0  0  0  0  0  0  0  0
   -5.3760    6.3930   -2.6810 C   0  0  0  0  0  0  0  0  0  0  0  0
   -7.0880    8.1990   -3.2190 C   0  0  0  0  0  0  0  0  0  0  0  0
   -1.0550   10.3570   -0.0730 C   0  0  1  0  0  0  0  0  0  0  0  0
   -0.0120   10.0870    1.0440 C   0  0  0  0  0  0  0  0  0  0  0  0
    1.2320   10.9510    0.7120 C   0  0  0  0  0  0  0  0  0  0  0  0
    0.7470   11.9300   -0.3830 C   0  0  1  0  0  0  0  0  0  0  0  0
    0.0090   13.0650    0.3920 C   0  0  0  0  0  0  0  0  0  0  0  0
    1.8470   12.5010   -1.3360 C   0  0  2  0  0  0  0  0  0  0  0  0
    2.9280   13.3530   -0.6470 C   0  0  0  0  0  0  0  0  0  0  0  0
    2.6340   14.8150   -0.5680 C   0  0  0  0  0  0  0  0  0  0  0  0
    1.6890   15.4620   -1.2760 C   0  0  0  0  0  0  0  0  0  0  0  0
    0.8620   14.7290   -2.3400 C   0  0  1  0  0  0  0  0  0  0  0  0
    0.8050   15.5850   -3.6320 C   0  0  0  0  0  0  0  0  0  0  0  0
    0.3000   17.0020   -3.3740 C   0  0  0  0  0  0  0  0  0  0  0  0
    1.1820   17.7180   -2.3540 C   0  0  2  0  0  0  0  0  0  0  0  0
    2.4770   17.9230   -2.9280 O   0  0  0  0  0  0  0  0  0  0  0  0
    1.3220   16.9430   -1.0140 C   0  0  0  0  0  0  0  0  0  0  0  0
   -0.0240   16.9820   -0.2480 C   0  0  0  0  0  0  0  0  0  0  0  0
    2.3470   17.7020   -0.1290 C   0  0  0  0  0  0  0  0  0  0  0  0
    1.2780   13.2220   -2.6250 C   0  0  1  0  0  0  0  0  0  0  0  0
    2.4090   13.1750   -3.6970 C   0  0  0  0  0  0  0  0  0  0  0  0
    0.0480   12.4570   -3.2430 C   0  0  0  0  0  0  0  0  0  0  0  0
   -0.9390   11.8120   -2.2520 C   0  0  0  0  0  0  0  0  0  0  0  0
   -0.1970   10.9770   -1.2040 C   0  0  2  0  0  0  0  0  0  0  0  0
    0.5380    9.8130   -1.9530 C   0  0  0  0  0  0  0  0  0  0  0  0
   -0.7569    7.7018   -1.6008 H   0  0  0  0  0  0  0  0  0  0  0  0
   -2.3119    8.2211   -2.3350 H   0  0  0  0  0  0  0  0  0  0  0  0
   -0.9024    9.3348   -2.3350 H   0  0  0  0  0  0  0  0  0  0  0  0
   -1.7139    8.3420    0.3408 H   0  0  0  0  0  0  0  0  0  0  0  0
   -3.5926   10.0592    0.5015 H   0  0  0  0  0  0  0  0  0  0  0  0
   -3.5900   10.0296   -1.3267 H   0  0  0  0  0  0  0  0  0  0  0  0
   -3.7744    7.4092   -0.8976 H   0  0  0  0  0  0  0  0  0  0  0  0
   -4.5412    7.9949    0.6375 H   0  0  0  0  0  0  0  0  0  0  0  0
   -5.4130    9.5959   -1.0772 H   0  0  0  0  0  0  0  0  0  0  0  0
   -5.0383    5.8313   -1.7975 H   0  0  0  0  0  0  0  0  0  0  0  0
   -6.0437    5.7606   -3.2844 H   0  0  0  0  0  0  0  0  0  0  0  0
   -4.5042    6.6860   -3.2844 H   0  0  0  0  0  0  0  0  0  0  0  0
   -7.9086    8.6872   -2.6729 H   0  0  0  0  0  0  0  0  0  0  0  0
   -6.5765    8.9398   -3.8512 H   0  0  0  0  0  0  0  0  0  0  0  0
   -7.4949    7.3960   -3.8512 H   0  0  0  0  0  0  0  0  0  0  0  0
   -1.8648   11.0473    0.2060 H   0  0  0  0  0  0  0  0  0  0  0  0
   -0.4225   10.3744    2.0232 H   0  0  0  0  0  0  0  0  0  0  0  0
    0.2494    9.0195    1.0910 H   0  0  0  0  0  0  0  0  0  0  0  0
    1.5713   11.5012    1.6020 H   0  0  0  0  0  0  0  0  0  0  0  0
    2.0854   10.3423    0.3787 H   0  0  0  0  0  0  0  0  0  0  0  0
    0.1164   12.8998    1.4742 H   0  0  0  0  0  0  0  0  0  0  0  0
    0.4481   14.0374    0.1241 H   0  0  0  0  0  0  0  0  0  0  0  0
   -1.0579   13.0582    0.1241 H   0  0  0  0  0  0  0  0  0  0  0  0
    2.3578   11.5895   -1.6798 H   0  0  0  0  0  0  0  0  0  0  0  0
    3.0553   12.9761    0.3785 H   0  0  0  0  0  0  0  0  0  0  0  0
    3.8316   13.2575   -1.2670 H   0  0  0  0  0  0  0  0  0  0  0  0
    3.2406   15.4138    0.1273 H   0  0  0  0  0  0  0  0  0  0  0  0
   -0.1483   14.6213   -1.9185 H   0  0  0  0  0  0  0  0  0  0  0  0
    1.8163   15.6438   -4.0608 H   0  0  0  0  0  0  0  0  0  0  0  0
    0.0996   15.1000   -4.3228 H   0  0  0  0  0  0  0  0  0  0  0  0
    0.3113   17.5658   -4.3185 H   0  0  0  0  0  0  0  0  0  0  0  0
   -0.7229   16.9429   -2.9737 H   0  0  0  0  0  0  0  0  0  0  0  0
    0.6973   18.6757   -2.1135 H   0  0  0  0  0  0  0  0  0  0  0  0
    3.0450   18.3100   -2.2410 H   0  0  0  0  0  0  0  0  0  0  0  0
    0.1700   16.9764    0.8347 H   0  0  0  0  0  0  0  0  0  0  0  0
   -0.5729   17.8964   -0.5174 H   0  0  0  0  0  0  0  0  0  0  0  0
   -0.6249   16.1009   -0.5174 H   0  0  0  0  0  0  0  0  0  0  0  0
    2.1139   17.5294    0.9321 H   0  0  0  0  0  0  0  0  0  0  0  0
    3.3612   17.3354   -0.3460 H   0  0  0  0  0  0  0  0  0  0  0  0
    2.2922   18.7790   -0.3460 H   0  0  0  0  0  0  0  0  0  0  0  0
    3.3875   13.1343   -3.1961 H   0  0  0  0  0  0  0  0  0  0  0  0
    2.2815   12.2814   -4.3256 H   0  0  0  0  0  0  0  0  0  0  0  0
    2.3560   14.0761   -4.3256 H   0  0  0  0  0  0  0  0  0  0  0  0
   -0.5170   13.1753   -3.8552 H   0  0  0  0  0  0  0  0  0  0  0  0
    0.4840   11.6163   -3.8026 H   0  0  0  0  0  0  0  0  0  0  0  0
   -1.5079   12.6044   -1.7437 H   0  0  0  0  0  0  0  0  0  0  0  0
   -1.6162   11.1504   -2.8121 H   0  0  0  0  0  0  0  0  0  0  0  0
    0.9746    9.1216   -1.2173 H   0  0  0  0  0  0  0  0  0  0  0  0
   -0.1818    9.2707   -2.5837 H   0  0  0  0  0  0  0  0  0  0  0  0
    1.3371   10.2297   -2.5837 H   0  0  0  0  0  0  0  0  0  0  0  0
  1  2  1  0
  2  3  1  0
  3  4  1  0
  4  5  1  0
  5  6  1  0
  6  7  1  0
  7  8  1  0
  7  9  1  0
  2 10  1  0
 10 11  1  0
 11 12  1  0
 12 13  1  0
 13 14  1  1
 13 15  1  0
 15 16  1  0
 16 17  1  0
 17 18  2  0
 18 19  1  0
 19 20  1  0
 20 21  1  0
 21 22  1  0
 22 23  1  0
 22 24  1  0
 24 25  1  0
 24 26  1  0
 19 27  1  0
 27 28  1  6
 27 29  1  0
 29 30  1  0
 30 31  1  0
 31 32  1  6
  7  5  1  0
 31 10  1  0
 31 13  1  0
 27 15  1  0
 24 18  1  0
  1 33  1  0
  1 34  1  0
  1 35  1  0
  2 36  1  1
  3 37  1  0
  3 38  1  0
  4 39  1  0
  4 40  1  0
  5 41  1  6
  8 42  1  0
  8 43  1  0
  8 44  1  0
  9 45  1  0
  9 46  1  0
  9 47  1  0
 10 48  1  1
 11 49  1  0
 11 50  1  0
 12 51  1  0
 12 52  1  0
 14 53  1  0
 14 54  1  0
 14 55  1  0
 15 56  1  6
 16 57  1  0
 16 58  1  0
 17 59  1  0
 19 60  1  1
 20 61  1  0
 20 62  1  0
 21 63  1  0
 21 64  1  0
 22 65  1  1
 23 66  1  0
 25 67  1  0
 25 68  1  0
 25 69  1  0
 26 70  1  0
 26 71  1  0
 26 72  1  0
 28 73  1  0
 28 74  1  0
 28 75  1  0
 29 76  1  0
 29 77  1  0
 30 78  1  0
 30 79  1  0
 32 80  1  0
 32 81  1  0
 32 82  1  0
M  END
>  <meeko>  (1) 
{"is_sidechain": [false], "intermolecular_energy": 2.731, "internal_energy": -0.839}

$$$$
EPH_relaxed_0001_pdb2pqr_Repair_101_r2_0001_out
     RDKit          3D

 82 86  0  0  0  0  0  0  0  0999 V2000
    4.1990   17.5870   -0.6240 C   0  0  0  0  0  0  0  0  0  0  0  0
    2.8480   18.1410   -0.1640 C   0  0  2  0  0  0  0  0  0  0  0  0
    2.9320   18.7930    1.2310 C   0  0  0  0  0  0  0  0  0  0  0  0
    4.3180   18.6910    1.8750 C   0  0  0  0  0  0  0  0  0  0  0  0
    4.3530   19.3490    3.2210 C   0  0  2  0  0  0  0  0  0  0  0  0
    5.4910   20.1910    3.4460 O   0  0  0  0  0  0  0  0  0  0  0  0
    5.3890   19.0270    4.2820 C   0  0  0  0  0  0  0  0  0  0  0  0
    6.4610   18.0110    4.0430 C   0  0  0  0  0  0  0  0  0  0  0  0
    5.0700   19.3380    5.7110 C   0  0  0  0  0  0  0  0  0  0  0  0
    1.8040   17.0300   -0.1570 C   0  0  1  0  0  0  0  0  0  0  0  0
    0.3750   17.5510   -0.4650 C   0  0  0  0  0  0  0  0  0  0  0  0
   -0.3420   16.4390   -1.2730 C   0  0  0  0  0  0  0  0  0  0  0  0
    0.5680   15.1970   -1.1200 C   0  0  1  0  0  0  0  0  0  0  0  0
    0.1970   14.5980    0.2730 C   0  0  0  0  0  0  0  0  0  0  0  0
    0.4700   14.1250   -2.2540 C   0  0  2  0  0  0  0  0  0  0  0  0
   -0.9070   13.4570   -2.4030 C   0  0  0  0  0  0  0  0  0  0  0  0
   -1.1040   12.2150   -1.5980 C   0  0  0  0  0  0  0  0  0  0  0  0
   -0.1260   11.5000   -1.0110 C   0  0  0  0  0  0  0  0  0  0  0  0
    1.3490   11.8720   -1.2100 C   0  0  1  0  0  0  0  0  0  0  0  0
    2.1660   10.5930   -1.5340 C   0  0  0  0  0  0  0  0  0  0  0  0
    1.9760    9.4980   -0.4890 C   0  0  0  0  0  0  0  0  0  0  0  0
    0.5040    9.1150   -0.3610 C   0  0  2  0  0  0  0  0  0  0  0  0
    0.0820    8.4930   -1.5790 O   0  0  0  0  0  0  0  0  0  0  0  0
   -0.4180   10.3250   -0.0450 C   0  0  0  0  0  0  0  0  0  0  0  0
   -0.1620   10.8110    1.4030 C   0  0  0  0  0  0  0  0  0  0  0  0
   -1.8890    9.8280   -0.0830 C   0  0  0  0  0  0  0  0  0  0  0  0
    1.6340   13.0530   -2.2340 C   0  0  1  0  0  0  0  0  0  0  0  0
    1.7430   12.4870   -3.6830 C   0  0  0  0  0  0  0  0  0  0  0  0
    3.0330   13.6950   -1.9020 C   0  0  0  0  0  0  0  0  0  0  0  0
    3.0470   14.8310   -0.8610 C   0  0  0  0  0  0  0  0  0  0  0  0
    1.9810   15.8830   -1.1830 C   0  0  2  0  0  0  0  0  0  0  0  0
    2.3400   16.5190   -2.5690 C   0  0  0  0  0  0  0  0  0  0  0  0
    4.8109   17.3361    0.2550 H   0  0  0  0  0  0  0  0  0  0  0  0
    4.0377   16.6824   -1.2288 H   0  0  0  0  0  0  0  0  0  0  0  0
    4.7192   18.3444   -1.2288 H   0  0  0  0  0  0  0  0  0  0  0  0
    2.5523   18.9240   -0.8777 H   0  0  0  0  0  0  0  0  0  0  0  0
    2.6718   19.8573    1.1333 H   0  0  0  0  0  0  0  0  0  0  0  0
    2.2332   18.2487    1.8832 H   0  0  0  0  0  0  0  0  0  0  0  0
    4.5803   17.6290    1.9903 H   0  0  0  0  0  0  0  0  0  0  0  0
    5.0383   19.2061    1.2224 H   0  0  0  0  0  0  0  0  0  0  0  0
    3.2545   19.3973    3.2527 H   0  0  0  0  0  0  0  0  0  0  0  0
    6.8440   17.6481    5.0082 H   0  0  0  0  0  0  0  0  0  0  0  0
    6.0458   17.1671    3.4725 H   0  0  0  0  0  0  0  0  0  0  0  0
    7.2814   18.4709    3.4725 H   0  0  0  0  0  0  0  0  0  0  0  0
    5.7008   18.7230    6.3697 H   0  0  0  0  0  0  0  0  0  0  0  0
    5.2644   20.4029    5.9067 H   0  0  0  0  0  0  0  0  0  0  0  0
    4.0104   19.1167    5.9067 H   0  0  0  0  0  0  0  0  0  0  0  0
    1.9477   16.6476    0.8643 H   0  0  0  0  0  0  0  0  0  0  0  0
   -0.1667   17.7475    0.4720 H   0  0  0  0  0  0  0  0  0  0  0  0
    0.4117   18.4916   -1.0342 H   0  0  0  0  0  0  0  0  0  0  0  0
   -1.3417   16.2413   -0.8589 H   0  0  0  0  0  0  0  0  0  0  0  0
   -0.4918   16.7192   -2.3261 H   0  0  0  0  0  0  0  0  0  0  0  0
    0.5972   15.2441    1.0683 H   0  0  0  0  0  0  0  0  0  0  0  0
   -0.8973   14.5368    0.3661 H   0  0  0  0  0  0  0  0  0  0  0  0
    0.6298   13.5910    0.3661 H   0  0  0  0  0  0  0  0  0  0  0  0
    0.6079   14.7292   -3.1628 H   0  0  0  0  0  0  0  0  0  0  0  0
   -1.6728   14.1851   -2.0974 H   0  0  0  0  0  0  0  0  0  0  0  0
   -0.9847   13.1519   -3.4570 H   0  0  0  0  0  0  0  0  0  0  0  0
   -2.1355   11.8537   -1.4741 H   0  0  0  0  0  0  0  0  0  0  0  0
    1.6867   12.2991   -0.2542 H   0  0  0  0  0  0  0  0  0  0  0  0
    1.8436   10.2068   -2.5122 H   0  0  0  0  0  0  0  0  0  0  0  0
    3.2308   10.8690   -1.5391 H   0  0  0  0  0  0  0  0  0  0  0  0
    2.5540    8.6111   -0.7879 H   0  0  0  0  0  0  0  0  0  0  0  0
    2.3261    9.8759    0.4829 H   0  0  0  0  0  0  0  0  0  0  0  0
    0.4155    8.4230    0.4895 H   0  0  0  0  0  0  0  0  0  0  0  0
   -0.5750    9.0770   -1.9950 H   0  0  0  0  0  0  0  0  0  0  0  0
   -0.5533   10.0681    2.1137 H   0  0  0  0  0  0  0  0  0  0  0  0
    0.9192   10.9364    1.5619 H   0  0  0  0  0  0  0  0  0  0  0  0
   -0.6701   11.7736    1.5619 H   0  0  0  0  0  0  0  0  0  0  0  0
   -2.2603    9.7025    0.9448 H   0  0  0  0  0  0  0  0  0  0  0  0
   -2.5117   10.5656   -0.6104 H   0  0  0  0  0  0  0  0  0  0  0  0
   -1.9368    8.8638   -0.6104 H   0  0  0  0  0  0  0  0  0  0  0  0
    1.9509   11.4077   -3.6404 H   0  0  0  0  0  0  0  0  0  0  0  0
    0.7956   12.6572   -4.2154 H   0  0  0  0  0  0  0  0  0  0  0  0
    2.5595   12.9969   -4.2154 H   0  0  0  0  0  0  0  0  0  0  0  0
    3.6868   12.8932   -1.5283 H   0  0  0  0  0  0  0  0  0  0  0  0
    3.3657   14.1612   -2.8411 H   0  0  0  0  0  0  0  0  0  0  0  0
    2.8468   14.4090    0.1349 H   0  0  0  0  0  0  0  0  0  0  0  0
    4.0348   15.3145   -0.8828 H   0  0  0  0  0  0  0  0  0  0  0  0
    2.8750   17.4669   -2.4099 H   0  0  0  0  0  0  0  0  0  0  0  0
    2.9807   15.8269   -3.1351 H   0  0  0  0  0  0  0  0  0  0  0  0
    1.4164   16.7098   -3.1351 H   0  0  0  0  0  0  0  0  0  0  0  0
  1  2  1  0
  2  3  1  0
  3  4  1  0
  4  5  1  0
  5  6  1  0
  6  7  1  0
  7  8  1  0
  7  9  1  0
  2 10  1  0
 10 11  1  0
 11 12  1  0
 12 13  1  0
 13 14  1  1
 13 15  1  0
 15 16  1  0
 16 17  1  0
 17 18  2  0
 18 19  1  0
 19 20  1  0
 20 21  1  0
 21 22  1  0
 22 23  1  0
 22 24  1  0
 24 25  1  0
 24 26  1  0
 19 27  1  0
 27 28  1  6
 27 29  1  0
 29 30  1  0
 30 31  1  0
 31 32  1  6
  7  5  1  0
 31 10  1  0
 31 13  1  0
 27 15  1  0
 24 18  1  0
  1 33  1  0
  1 34  1  0
  1 35  1  0
  2 36  1  6
  3 37  1  0
  3 38  1  0
  4 39  1  0
  4 40  1  0
  5 41  1  1
  8 42  1  0
  8 43  1  0
  8 44  1  0
  9 45  1  0
  9 46  1  0
  9 47  1  0
 10 48  1  1
 11 49  1  0
 11 50  1  0
 12 51  1  0
 12 52  1  0
 14 53  1  0
 14 54  1  0
 14 55  1  0
 15 56  1  6
 16 57  1  0
 16 58  1  0
 17 59  1  0
 19 60  1  1
 20 61  1  0
 20 62  1  0
 21 63  1  0
 21 64  1  0
 22 65  1  1
 23 66  1  0
 25 67  1  0
 25 68  1  0
 25 69  1  0
 26 70  1  0
 26 71  1  0
 26 72  1  0
 28 73  1  0
 28 74  1  0
 28 75  1  0
 29 76  1  0
 29 77  1  0
 30 78  1  0
 30 79  1  0
 32 80  1  0
 32 81  1  0
 32 82  1  0
M  END
>  <meeko>  (2) 
{"is_sidechain": [false], "intermolecular_energy": 2.731, "internal_energy": -0.839}

$$$$
EPH_relaxed_0001_pdb2pqr_Repair_101_r2_0001_out
     RDKit          3D

 82 86  0  0  0  0  0  0  0  0999 V2000
    1.9650   18.1950   -2.6230 C   0  0  0  0  0  0  0  0  0  0  0  0
    0.4530   17.9600   -2.6740 C   0  0  2  0  0  0  0  0  0  0  0  0
   -0.2480   18.4050   -1.3750 C   0  0  0  0  0  0  0  0  0  0  0  0
    0.4920   17.9870   -0.1010 C   0  0  0  0  0  0  0  0  0  0  0  0
    1.0940   19.1650    0.6020 C   0  0  2  0  0  0  0  0  0  0  0  0
    2.0270   19.9190   -0.1840 O   0  0  0  0  0  0  0  0  0  0  0  0
    2.5620   19.2570    0.9740 C   0  0  0  0  0  0  0  0  0  0  0  0
    3.5180   18.1510    0.6540 C   0  0  0  0  0  0  0  0  0  0  0  0
    2.9660   20.1920    2.0700 C   0  0  0  0  0  0  0  0  0  0  0  0
    0.1650   16.4870   -2.9430 C   0  0  1  0  0  0  0  0  0  0  0  0
    0.2530   16.1270   -4.4490 C   0  0  0  0  0  0  0  0  0  0  0  0
    0.8230   14.6870   -4.5320 C   0  0  0  0  0  0  0  0  0  0  0  0
    0.7310   14.1480   -3.0850 C   0  0  1  0  0  0  0  0  0  0  0  0
   -0.7510   13.6870   -2.9220 C   0  0  0  0  0  0  0  0  0  0  0  0
    1.7350   13.0100   -2.7070 C   0  0  2  0  0  0  0  0  0  0  0  0
    1.5770   11.7070   -3.5110 C   0  0  0  0  0  0  0  0  0  0  0  0
    0.6470   10.7000   -2.9180 C   0  0  0  0  0  0  0  0  0  0  0  0
    0.1870   10.7110   -1.6530 C   0  0  0  0  0  0  0  0  0  0  0  0
    0.6790   11.7570   -0.6440 C   0  0  1  0  0  0  0  0  0  0  0  0
    1.0350   11.0580    0.6940 C   0  0  0  0  0  0  0  0  0  0  0  0
   -0.1150   10.2180    1.2400 C   0  0  0  0  0  0  0  0  0  0  0  0
   -0.5380    9.1520    0.2320 C   0  0  2  0  0  0  0  0  0  0  0  0
    0.5270    8.2070    0.0870 O   0  0  0  0  0  0  0  0  0  0  0  0
   -0.9110    9.7370   -1.1590 C   0  0  0  0  0  0  0  0  0  0  0  0
   -2.2430   10.5190   -1.0540 C   0  0  0  0  0  0  0  0  0  0  0  0
   -1.1800    8.5480   -2.1200 C   0  0  0  0  0  0  0  0  0  0  0  0
    1.8340   12.7220   -1.1540 C   0  0  1  0  0  0  0  0  0  0  0  0
    3.2260   12.0620   -0.9120 C   0  0  0  0  0  0  0  0  0  0  0  0
    1.8140   14.0440   -0.2990 C   0  0  0  0  0  0  0  0  0  0  0  0
    0.8920   15.1760   -0.7910 C   0  0  0  0  0  0  0  0  0  0  0  0
    1.1050   15.4470   -2.2830 C   0  0  2  0  0  0  0  0  0  0  0  0
    2.5820   15.9340   -2.4760 C   0  0  0  0  0  0  0  0  0  0  0  0
    2.2930   18.2460   -1.5743 H   0  0  0  0  0  0  0  0  0  0  0  0
    2.4821   17.3664   -3.1290 H   0  0  0  0  0  0  0  0  0  0  0  0
    2.2062   19.1414   -3.1290 H   0  0  0  0  0  0  0  0  0  0  0  0
    0.0501   18.5736   -3.4932 H   0  0  0  0  0  0  0  0  0  0  0  0
   -0.3316   19.5018   -1.3839 H   0  0  0  0  0  0  0  0  0  0  0  0
   -1.2296   17.9090   -1.3536 H   0  0  0  0  0  0  0  0  0  0  0  0
   -0.2182   17.4917    0.5775 H   0  0  0  0  0  0  0  0  0  0  0  0
    1.3065   17.3047   -0.3858 H   0  0  0  0  0  0  0  0  0  0  0  0
    0.1741   19.3162    1.1859 H   0  0  0  0  0  0  0  0  0  0  0  0
    3.8972   17.7122    1.5887 H   0  0  0  0  0  0  0  0  0  0  0  0
    3.0002   17.3766    0.0690 H   0  0  0  0  0  0  0  0  0  0  0  0
    4.3592   18.5512    0.0690 H   0  0  0  0  0  0  0  0  0  0  0  0
    2.7637   19.7238    3.0446 H   0  0  0  0  0  0  0  0  0  0  0  0
    4.0401   20.4136    1.9856 H   0  0  0  0  0  0  0  0  0  0  0  0
    2.3912   21.1261    1.9856 H   0  0  0  0  0  0  0  0  0  0  0  0
   -0.8423   16.4129   -2.5073 H   0  0  0  0  0  0  0  0  0  0  0  0
   -0.7464   16.1658   -4.9068 H   0  0  0  0  0  0  0  0  0  0  0  0
    0.8961   16.8381   -4.9883 H   0  0  0  0  0  0  0  0  0  0  0  0
    0.2214   14.0698   -5.2155 H   0  0  0  0  0  0  0  0  0  0  0  0
    1.8520   14.6670   -4.9204 H   0  0  0  0  0  0  0  0  0  0  0  0
   -0.9958   13.6109   -1.8523 H   0  0  0  0  0  0  0  0  0  0  0  0
   -1.4177   14.4202   -3.3994 H   0  0  0  0  0  0  0  0  0  0  0  0
   -0.8841   12.7050   -3.3994 H   0  0  0  0  0  0  0  0  0  0  0  0
    2.7012   13.4362   -3.0148 H   0  0  0  0  0  0  0  0  0  0  0  0
    1.2018   11.9684   -4.5115 H   0  0  0  0  0  0  0  0  0  0  0  0
    2.5702   11.2342   -3.5224 H   0  0  0  0  0  0  0  0  0  0  0  0
    0.3096    9.8806   -3.5697 H   0  0  0  0  0  0  0  0  0  0  0  0
   -0.1608   12.4508   -0.4909 H   0  0  0  0  0  0  0  0  0  0  0  0
    1.9030   10.4026    0.5293 H   0  0  0  0  0  0  0  0  0  0  0  0
    1.2544   11.8432    1.4325 H   0  0  0  0  0  0  0  0  0  0  0  0
    0.2078    9.7266    2.1697 H   0  0  0  0  0  0  0  0  0  0  0  0
   -0.9726   10.8794    1.4326 H   0  0  0  0  0  0  0  0  0  0  0  0
   -1.4465    8.6703    0.6227 H   0  0  0  0  0  0  0  0  0  0  0  0
    0.8520    8.2680   -0.8280 H   0  0  0  0  0  0  0  0  0  0  0  0
   -2.4978   10.6686    0.0056 H   0  0  0  0  0  0  0  0  0  0  0  0
   -2.1341   11.4965   -1.5465 H   0  0  0  0  0  0  0  0  0  0  0  0
   -3.0435    9.9475   -1.5465 H   0  0  0  0  0  0  0  0  0  0  0  0
   -1.3852    7.6409   -1.5325 H   0  0  0  0  0  0  0  0  0  0  0  0
   -2.0487    8.7784   -2.7542 H   0  0  0  0  0  0  0  0  0  0  0  0
   -0.2967    8.3821   -2.7542 H   0  0  0  0  0  0  0  0  0  0  0  0
    3.4079   11.9758    0.1694 H   0  0  0  0  0  0  0  0  0  0  0  0
    3.2412   11.0608   -1.3674 H   0  0  0  0  0  0  0  0  0  0  0  0
    4.0108   12.6839   -1.3674 H   0  0  0  0  0  0  0  0  0  0  0  0
    1.4977   13.7764    0.7200 H   0  0  0  0  0  0  0  0  0  0  0  0
    2.8335   14.4504   -0.3737 H   0  0  0  0  0  0  0  0  0  0  0  0
   -0.1556   14.8850   -0.6241 H   0  0  0  0  0  0  0  0  0  0  0  0
    1.1312   16.0918   -0.2305 H   0  0  0  0  0  0  0  0  0  0  0  0
    3.0489   16.0879   -1.4920 H   0  0  0  0  0  0  0  0  0  0  0  0
    3.1482   15.1750   -3.0358 H   0  0  0  0  0  0  0  0  0  0  0  0
    2.5857   16.8809   -3.0358 H   0  0  0  0  0  0  0  0  0  0  0  0
  1  2  1  0
  2  3  1  0
  3  4  1  0
  4  5  1  0
  5  6  1  0
  6  7  1  0
  7  8  1  0
  7  9  1  0
  2 10  1  0
 10 11  1  0
 11 12  1  0
 12 13  1  0
 13 14  1  1
 13 15  1  0
 15 16  1  0
 16 17  1  0
 17 18  2  0
 18 19  1  0
 19 20  1  0
 20 21  1  0
 21 22  1  0
 22 23  1  0
 22 24  1  0
 24 25  1  0
 24 26  1  0
 19 27  1  0
 27 28  1  6
 27 29  1  0
 29 30  1  0
 30 31  1  0
 31 32  1  1
  7  5  1  0
 31 10  1  0
 31 13  1  0
 27 15  1  0
 24 18  1  0
  1 33  1  0
  1 34  1  0
  1 35  1  0
  2 36  1  6
  3 37  1  0
  3 38  1  0
  4 39  1  0
  4 40  1  0
  5 41  1  1
  8 42  1  0
  8 43  1  0
  8 44  1  0
  9 45  1  0
  9 46  1  0
  9 47  1  0
 10 48  1  1
 11 49  1  0
 11 50  1  0
 12 51  1  0
 12 52  1  0
 14 53  1  0
 14 54  1  0
 14 55  1  0
 15 56  1  6
 16 57  1  0
 16 58  1  0
 17 59  1  0
 19 60  1  1
 20 61  1  0
 20 62  1  0
 21 63  1  0
 21 64  1  0
 22 65  1  1
 23 66  1  0
 25 67  1  0
 25 68  1  0
 25 69  1  0
 26 70  1  0
 26 71  1  0
 26 72  1  0
 28 73  1  0
 28 74  1  0
 28 75  1  0
 29 76  1  0
 29 77  1  0
 30 78  1  0
 30 79  1  0
 32 80  1  0
 32 81  1  0
 32 82  1  0
M  END
>  <meeko>  (3) 
{"is_sidechain": [false], "intermolecular_energy": 2.731, "internal_energy": -0.839}

$$$$
EPH_relaxed_0001_pdb2pqr_Repair_101_r2_0001_out
     RDKit          3D

 82 86  0  0  0  0  0  0  0  0999 V2000
    2.3030   18.0590   -2.7040 C   0  0  0  0  0  0  0  0  0  0  0  0
    1.0080   17.6410   -2.0030 C   0  0  2  0  0  0  0  0  0  0  0  0
    1.1250   17.7210   -0.4680 C   0  0  0  0  0  0  0  0  0  0  0  0
    0.7960   19.1030    0.1030 C   0  0  0  0  0  0  0  0  0  0  0  0
   -0.6480   19.2120    0.4910 C   0  0  2  0  0  0  0  0  0  0  0  0
   -1.5130   18.2630   -0.1470 O   0  0  0  0  0  0  0  0  0  0  0  0
   -1.7410   19.6440   -0.4690 C   0  0  0  0  0  0  0  0  0  0  0  0
   -1.4370   19.9960   -1.8910 C   0  0  0  0  0  0  0  0  0  0  0  0
   -3.0140   20.1920    0.0970 C   0  0  0  0  0  0  0  0  0  0  0  0
    0.6230   16.2270   -2.4230 C   0  0  1  0  0  0  0  0  0  0  0  0
    0.8010   15.9870   -3.9460 C   0  0  0  0  0  0  0  0  0  0  0  0
    1.2560   14.5140   -4.1160 C   0  0  0  0  0  0  0  0  0  0  0  0
    1.0060   13.8670   -2.7340 C   0  0  1  0  0  0  0  0  0  0  0  0
   -0.5180   13.5260   -2.7210 C   0  0  0  0  0  0  0  0  0  0  0  0
    1.8790   12.6170   -2.3880 C   0  0  2  0  0  0  0  0  0  0  0  0
    1.6800   11.4050   -3.3150 C   0  0  0  0  0  0  0  0  0  0  0  0
    0.6270   10.4380   -2.8830 C   0  0  0  0  0  0  0  0  0  0  0  0
    0.0700   10.3840   -1.6590 C   0  0  0  0  0  0  0  0  0  0  0  0
    0.5640   11.2950   -0.5270 C   0  0  1  0  0  0  0  0  0  0  0  0
    0.7540   10.4580    0.7650 C   0  0  0  0  0  0  0  0  0  0  0  0
   -0.5020    9.6800    1.1480 C   0  0  0  0  0  0  0  0  0  0  0  0
   -0.9280    8.7440    0.0210 C   0  0  2  0  0  0  0  0  0  0  0  0
    0.0650    7.7240   -0.1310 O   0  0  0  0  0  0  0  0  0  0  0  0
   -1.1400    9.4730   -1.3350 C   0  0  0  0  0  0  0  0  0  0  0  0
   -2.4080   10.3590   -1.2570 C   0  0  0  0  0  0  0  0  0  0  0  0
   -1.4280    8.3970   -2.4160 C   0  0  0  0  0  0  0  0  0  0  0  0
    1.8310   12.1940   -0.8640 C   0  0  1  0  0  0  0  0  0  0  0  0
    3.1400   11.3950   -0.5810 C   0  0  0  0  0  0  0  0  0  0  0  0
    1.8510   13.4360    0.1030 C   0  0  0  0  0  0  0  0  0  0  0  0
    1.0670   14.6820   -0.3510 C   0  0  0  0  0  0  0  0  0  0  0  0
    1.4190   15.0570   -1.7940 C   0  0  2  0  0  0  0  0  0  0  0  0
    2.9420   15.4260   -1.8340 C   0  0  0  0  0  0  0  0  0  0  0  0
    3.0652   18.3050   -1.9500 H   0  0  0  0  0  0  0  0  0  0  0  0
    2.6631   17.2315   -3.3329 H   0  0  0  0  0  0  0  0  0  0  0  0
    2.1113   18.9409   -3.3329 H   0  0  0  0  0  0  0  0  0  0  0  0
    0.2231   18.3476   -2.3106 H   0  0  0  0  0  0  0  0  0  0  0  0
    0.4312   16.9894   -0.0282 H   0  0  0  0  0  0  0  0  0  0  0  0
    2.1742   17.5097   -0.2141 H   0  0  0  0  0  0  0  0  0  0  0  0
    1.4186   19.2788    0.9926 H   0  0  0  0  0  0  0  0  0  0  0  0
    1.0001   19.8534   -0.6749 H   0  0  0  0  0  0  0  0  0  0  0  0
   -0.3756   19.5520    1.5010 H   0  0  0  0  0  0  0  0  0  0  0  0
   -0.7182   20.8283   -1.9171 H   0  0  0  0  0  0  0  0  0  0  0  0
   -1.0049   19.1222   -2.4007 H   0  0  0  0  0  0  0  0  0  0  0  0
   -2.3644   20.2963   -2.4007 H   0  0  0  0  0  0  0  0  0  0  0  0
   -2.9656   20.1712    1.1957 H   0  0  0  0  0  0  0  0  0  0  0  0
   -3.1507   21.2287   -0.2444 H   0  0  0  0  0  0  0  0  0  0  0  0
   -3.8610   19.5788   -0.2444 H   0  0  0  0  0  0  0  0  0  0  0  0
   -0.4183   16.2065   -2.0690 H   0  0  0  0  0  0  0  0  0  0  0  0
   -0.1523   16.1520   -4.4695 H   0  0  0  0  0  0  0  0  0  0  0  0
    1.5409   16.6808   -4.3716 H   0  0  0  0  0  0  0  0  0  0  0  0
    0.6619   14.0113   -4.8934 H   0  0  0  0  0  0  0  0  0  0  0  0
    2.3075   14.4356   -4.4294 H   0  0  0  0  0  0  0  0  0  0  0  0
   -0.8674   13.4478   -1.6809 H   0  0  0  0  0  0  0  0  0  0  0  0
   -1.0761   14.3215   -3.2365 H   0  0  0  0  0  0  0  0  0  0  0  0
   -0.6839   12.5685   -3.2365 H   0  0  0  0  0  0  0  0  0  0  0  0
    2.8985   12.9797   -2.5859 H   0  0  0  0  0  0  0  0  0  0  0  0
    1.4079   11.7809   -4.3123 H   0  0  0  0  0  0  0  0  0  0  0  0
    2.6292   10.8494   -3.2977 H   0  0  0  0  0  0  0  0  0  0  0  0
    0.2772    9.7083   -3.6281 H   0  0  0  0  0  0  0  0  0  0  0  0
   -0.2257   12.0451   -0.3729 H   0  0  0  0  0  0  0  0  0  0  0  0
    1.5758    9.7445    0.6053 H   0  0  0  0  0  0  0  0  0  0  0  0
    0.9777   11.1560    1.5853 H   0  0  0  0  0  0  0  0  0  0  0  0
   -0.2964    9.0862    2.0509 H   0  0  0  0  0  0  0  0  0  0  0  0
   -1.3153   10.3964    1.3359 H   0  0  0  0  0  0  0  0  0  0  0  0
   -1.9010    8.3135    0.3002 H   0  0  0  0  0  0  0  0  0  0  0  0
    0.9340    8.1390   -0.0020 H   0  0  0  0  0  0  0  0  0  0  0  0
   -2.6654   10.5388   -0.2028 H   0  0  0  0  0  0  0  0  0  0  0  0
   -2.2152   11.3199   -1.7564 H   0  0  0  0  0  0  0  0  0  0  0  0
   -3.2440    9.8475   -1.7564 H   0  0  0  0  0  0  0  0  0  0  0  0
   -1.6828    7.4451   -1.9271 H   0  0  0  0  0  0  0  0  0  0  0  0
   -2.2703    8.7239   -3.0435 H   0  0  0  0  0  0  0  0  0  0  0  0
   -0.5351    8.2595   -3.0435 H   0  0  0  0  0  0  0  0  0  0  0  0
    3.2871   11.3052    0.5054 H   0  0  0  0  0  0  0  0  0  0  0  0
    3.0602   10.3915   -1.0244 H   0  0  0  0  0  0  0  0  0  0  0  0
    3.9960   11.9247   -1.0244 H   0  0  0  0  0  0  0  0  0  0  0  0
    1.4332   13.1132    1.0680 H   0  0  0  0  0  0  0  0  0  0  0  0
    2.9030   13.7553    0.1400 H   0  0  0  0  0  0  0  0  0  0  0  0
   -0.0108   14.4719   -0.2867 H   0  0  0  0  0  0  0  0  0  0  0  0
    1.3357   15.5231    0.3050 H   0  0  0  0  0  0  0  0  0  0  0  0
    3.3240   15.5185   -0.8066 H   0  0  0  0  0  0  0  0  0  0  0  0
    3.4969   14.6363   -2.3617 H   0  0  0  0  0  0  0  0  0  0  0  0
    3.0739   16.3821   -2.3617 H   0  0  0  0  0  0  0  0  0  0  0  0
  1  2  1  0
  2  3  1  0
  3  4  1  0
  4  5  1  0
  5  6  1  0
  6  7  1  0
  7  8  1  0
  7  9  1  0
  2 10  1  0
 10 11  1  0
 11 12  1  0
 12 13  1  0
 13 14  1  6
 13 15  1  0
 15 16  1  0
 16 17  1  0
 17 18  2  0
 18 19  1  0
 19 20  1  0
 20 21  1  0
 21 22  1  0
 22 23  1  0
 22 24  1  0
 24 25  1  0
 24 26  1  0
 19 27  1  0
 27 28  1  1
 27 29  1  0
 29 30  1  0
 30 31  1  0
 31 32  1  1
  7  5  1  0
 31 10  1  0
 31 13  1  0
 27 15  1  0
 24 18  1  0
  1 33  1  0
  1 34  1  0
  1 35  1  0
  2 36  1  6
  3 37  1  0
  3 38  1  0
  4 39  1  0
  4 40  1  0
  5 41  1  1
  8 42  1  0
  8 43  1  0
  8 44  1  0
  9 45  1  0
  9 46  1  0
  9 47  1  0
 10 48  1  6
 11 49  1  0
 11 50  1  0
 12 51  1  0
 12 52  1  0
 14 53  1  0
 14 54  1  0
 14 55  1  0
 15 56  1  6
 16 57  1  0
 16 58  1  0
 17 59  1  0
 19 60  1  1
 20 61  1  0
 20 62  1  0
 21 63  1  0
 21 64  1  0
 22 65  1  1
 23 66  1  0
 25 67  1  0
 25 68  1  0
 25 69  1  0
 26 70  1  0
 26 71  1  0
 26 72  1  0
 28 73  1  0
 28 74  1  0
 28 75  1  0
 29 76  1  0
 29 77  1  0
 30 78  1  0
 30 79  1  0
 32 80  1  0
 32 81  1  0
 32 82  1  0
M  END
>  <meeko>  (4) 
{"is_sidechain": [false], "intermolecular_energy": 2.731, "internal_energy": -0.839}

$$$$
EPH_relaxed_0001_pdb2pqr_Repair_101_r2_0001_out
     RDKit          3D

 82 86  0  0  0  0  0  0  0  0999 V2000
   -4.7960    6.3090   -2.4110 C   0  0  0  0  0  0  0  0  0  0  0  0
   -5.2850    7.7330   -2.1300 C   0  0  2  0  0  0  0  0  0  0  0  0
   -5.1020    8.1290   -0.6510 C   0  0  0  0  0  0  0  0  0  0  0  0
   -3.9920    9.1580   -0.4220 C   0  0  0  0  0  0  0  0  0  0  0  0
   -2.6530    8.6310   -0.8400 C   0  0  2  0  0  0  0  0  0  0  0  0
   -1.5860    8.9140    0.0750 O   0  0  0  0  0  0  0  0  0  0  0  0
   -1.4860    9.5220   -1.2230 C   0  0  0  0  0  0  0  0  0  0  0  0
   -1.6050   11.0140   -1.2080 C   0  0  0  0  0  0  0  0  0  0  0  0
   -0.3970    8.9480   -2.0750 C   0  0  0  0  0  0  0  0  0  0  0  0
   -6.7500    7.8670   -2.5280 C   0  0  1  0  0  0  0  0  0  0  0  0
   -7.0680    7.1770   -3.8810 C   0  0  0  0  0  0  0  0  0  0  0  0
   -8.5020    6.6010   -3.7640 C   0  0  0  0  0  0  0  0  0  0  0  0
   -9.0830    7.2570   -2.4890 C   0  0  1  0  0  0  0  0  0  0  0  0
   -9.5530    8.6740   -2.9460 C   0  0  0  0  0  0  0  0  0  0  0  0
  -10.2280    6.4730   -1.7690 C   0  0  2  0  0  0  0  0  0  0  0  0
  -11.5080    6.2770   -2.6000 C   0  0  0  0  0  0  0  0  0  0  0  0
  -12.5340    7.3520   -2.4550 C   0  0  0  0  0  0  0  0  0  0  0  0
  -12.5610    8.2810   -1.4810 C   0  0  0  0  0  0  0  0  0  0  0  0
  -11.5430    8.2500   -0.3340 C   0  0  1  0  0  0  0  0  0  0  0  0
  -12.2780    8.4500    1.0170 C   0  0  0  0  0  0  0  0  0  0  0  0
  -13.1380    9.7110    1.0330 C   0  0  0  0  0  0  0  0  0  0  0  0
  -14.1760    9.6780   -0.0850 C   0  0  2  0  0  0  0  0  0  0  0  0
  -15.1120    8.6300    0.1860 O   0  0  0  0  0  0  0  0  0  0  0  0
  -13.5520    9.4700   -1.4940 C   0  0  0  0  0  0  0  0  0  0  0  0
  -12.7770   10.7440   -1.9130 C   0  0  0  0  0  0  0  0  0  0  0  0
  -14.7140    9.3140   -2.5120 C   0  0  0  0  0  0  0  0  0  0  0  0
  -10.5590    7.0010   -0.3140 C   0  0  1  0  0  0  0  0  0  0  0  0
  -11.2210    5.8140    0.4500 C   0  0  0  0  0  0  0  0  0  0  0  0
   -9.2620    7.3820    0.4940 C   0  0  0  0  0  0  0  0  0  0  0  0
   -8.1200    8.0450   -0.2980 C   0  0  0  0  0  0  0  0  0  0  0  0
   -7.8060    7.2550   -1.5730 C   0  0  2  0  0  0  0  0  0  0  0  0
   -7.3090    5.8330   -1.1440 C   0  0  0  0  0  0  0  0  0  0  0  0
   -4.6171    5.7881   -1.4588 H   0  0  0  0  0  0  0  0  0  0  0  0
   -5.5593    5.7664   -2.9880 H   0  0  0  0  0  0  0  0  0  0  0  0
   -3.8604    6.3498   -2.9880 H   0  0  0  0  0  0  0  0  0  0  0  0
   -4.6716    8.4186   -2.7330 H   0  0  0  0  0  0  0  0  0  0  0  0
   -6.0490    8.5526   -0.2852 H   0  0  0  0  0  0  0  0  0  0  0  0
   -4.8122    7.2175   -0.1078 H   0  0  0  0  0  0  0  0  0  0  0  0
   -4.2177   10.0620   -1.0067 H   0  0  0  0  0  0  0  0  0  0  0  0
   -3.9509    9.3844    0.6537 H   0  0  0  0  0  0  0  0  0  0  0  0
   -3.1215    7.7719   -1.3425 H   0  0  0  0  0  0  0  0  0  0  0  0
   -1.6333   11.3691   -0.1673 H   0  0  0  0  0  0  0  0  0  0  0  0
   -0.7393   11.4561   -1.7228 H   0  0  0  0  0  0  0  0  0  0  0  0
   -2.5299   11.3133   -1.7228 H   0  0  0  0  0  0  0  0  0  0  0  0
    0.3918    8.5322   -1.4309 H   0  0  0  0  0  0  0  0  0  0  0  0
   -0.8101    8.1505   -2.7101 H   0  0  0  0  0  0  0  0  0  0  0  0
    0.0274    9.7395   -2.7101 H   0  0  0  0  0  0  0  0  0  0  0  0
   -6.8386    8.9634   -2.5344 H   0  0  0  0  0  0  0  0  0  0  0  0
   -7.0199    7.9096   -4.7002 H   0  0  0  0  0  0  0  0  0  0  0  0
   -6.3399    6.3818   -4.0992 H   0  0  0  0  0  0  0  0  0  0  0  0
   -9.1015    6.8693   -4.6464 H   0  0  0  0  0  0  0  0  0  0  0  0
   -8.5071    5.5025   -3.7074 H   0  0  0  0  0  0  0  0  0  0  0  0
   -9.7589    9.2949   -2.0617 H   0  0  0  0  0  0  0  0  0  0  0  0
   -8.7631    9.1455   -3.5492 H   0  0  0  0  0  0  0  0  0  0  0  0
  -10.4681    8.5800   -3.5492 H   0  0  0  0  0  0  0  0  0  0  0  0
   -9.7907    5.4703   -1.6537 H   0  0  0  0  0  0  0  0  0  0  0  0
  -11.2199    6.2231   -3.6602 H   0  0  0  0  0  0  0  0  0  0  0  0
  -11.9771    5.3561   -2.2232 H   0  0  0  0  0  0  0  0  0  0  0  0
  -13.3355    7.3880   -3.2075 H   0  0  0  0  0  0  0  0  0  0  0  0
  -10.8572    9.0911   -0.5136 H   0  0  0  0  0  0  0  0  0  0  0  0
  -12.9251    7.5793    1.1989 H   0  0  0  0  0  0  0  0  0  0  0  0
  -11.5137    8.5565    1.8009 H   0  0  0  0  0  0  0  0  0  0  0  0
  -13.6544    9.7821    2.0016 H   0  0  0  0  0  0  0  0  0  0  0  0
  -12.4851   10.5830    0.8800 H   0  0  0  0  0  0  0  0  0  0  0  0
  -14.6727   10.6593   -0.1035 H   0  0  0  0  0  0  0  0  0  0  0  0
  -14.8710    8.2340    1.0400 H   0  0  0  0  0  0  0  0  0  0  0  0
  -12.4477   11.2853   -1.0138 H   0  0  0  0  0  0  0  0  0  0  0  0
  -11.8991   10.4590   -2.5114 H   0  0  0  0  0  0  0  0  0  0  0  0
  -13.4338   11.3925   -2.5114 H   0  0  0  0  0  0  0  0  0  0  0  0
  -15.6623    9.1867   -1.9693 H   0  0  0  0  0  0  0  0  0  0  0  0
  -14.7710   10.2126   -3.1439 H   0  0  0  0  0  0  0  0  0  0  0  0
  -14.5319    8.4322   -3.1439 H   0  0  0  0  0  0  0  0  0  0  0  0
  -11.1292    5.9787    1.5337 H   0  0  0  0  0  0  0  0  0  0  0  0
  -12.2849    5.7504    0.1776 H   0  0  0  0  0  0  0  0  0  0  0  0
  -10.7160    4.8755    0.1776 H   0  0  0  0  0  0  0  0  0  0  0  0
   -9.5599    8.0769    1.2930 H   0  0  0  0  0  0  0  0  0  0  0  0
   -8.8503    6.4244    0.8454 H   0  0  0  0  0  0  0  0  0  0  0  0
   -8.4188    9.0674   -0.5726 H   0  0  0  0  0  0  0  0  0  0  0  0
   -7.2197    8.0635    0.3338 H   0  0  0  0  0  0  0  0  0  0  0  0
   -7.2864    5.7683   -0.0461 H   0  0  0  0  0  0  0  0  0  0  0  0
   -7.9936    5.0697   -1.5423 H   0  0  0  0  0  0  0  0  0  0  0  0
   -6.2979    5.6624   -1.5423 H   0  0  0  0  0  0  0  0  0  0  0  0
  1  2  1  0
  2  3  1  0
  3  4  1  0
  4  5  1  0
  5  6  1  0
  6  7  1  0
  7  8  1  0
  7  9  1  0
  2 10  1  0
 10 11  1  0
 11 12  1  0
 12 13  1  0
 13 14  1  6
 13 15  1  0
 15 16  1  0
 16 17  1  0
 17 18  2  0
 18 19  1  0
 19 20  1  0
 20 21  1  0
 21 22  1  0
 22 23  1  0
 22 24  1  0
 24 25  1  0
 24 26  1  0
 19 27  1  0
 27 28  1  1
 27 29  1  0
 29 30  1  0
 30 31  1  0
 31 32  1  1
  7  5  1  0
 31 10  1  0
 31 13  1  0
 27 15  1  0
 24 18  1  0
  1 33  1  0
  1 34  1  0
  1 35  1  0
  2 36  1  6
  3 37  1  0
  3 38  1  0
  4 39  1  0
  4 40  1  0
  5 41  1  6
  8 42  1  0
  8 43  1  0
  8 44  1  0
  9 45  1  0
  9 46  1  0
  9 47  1  0
 10 48  1  6
 11 49  1  0
 11 50  1  0
 12 51  1  0
 12 52  1  0
 14 53  1  0
 14 54  1  0
 14 55  1  0
 15 56  1  1
 16 57  1  0
 16 58  1  0
 17 59  1  0
 19 60  1  6
 20 61  1  0
 20 62  1  0
 21 63  1  0
 21 64  1  0
 22 65  1  6
 23 66  1  0
 25 67  1  0
 25 68  1  0
 25 69  1  0
 26 70  1  0
 26 71  1  0
 26 72  1  0
 28 73  1  0
 28 74  1  0
 28 75  1  0
 29 76  1  0
 29 77  1  0
 30 78  1  0
 30 79  1  0
 32 80  1  0
 32 81  1  0
 32 82  1  0
M  END
>  <meeko>  (5) 
{"is_sidechain": [false], "intermolecular_energy": 2.731, "internal_energy": -0.839}

$$$$
EPH_relaxed_0001_pdb2pqr_Repair_101_r2_0001_out
     RDKit          3D

 82 86  0  0  0  0  0  0  0  0999 V2000
    3.8330   17.8560    0.8060 C   0  0  0  0  0  0  0  0  0  0  0  0
    2.8120   18.3030   -0.2440 C   0  0  2  0  0  0  0  0  0  0  0  0
    2.1060   19.6150    0.1540 C   0  0  0  0  0  0  0  0  0  0  0  0
    0.8930   19.4100    1.0660 C   0  0  0  0  0  0  0  0  0  0  0  0
   -0.3400   20.0470    0.4990 C   0  0  2  0  0  0  0  0  0  0  0  0
   -1.4220   20.1850    1.4290 O   0  0  0  0  0  0  0  0  0  0  0  0
   -1.6520   19.3090    0.3140 C   0  0  0  0  0  0  0  0  0  0  0  0
   -1.7980   17.8680    0.6930 C   0  0  0  0  0  0  0  0  0  0  0  0
   -2.6390   19.8410   -0.6790 C   0  0  0  0  0  0  0  0  0  0  0  0
    1.7800   17.2030   -0.4650 C   0  0  1  0  0  0  0  0  0  0  0  0
    0.5630   17.6850   -1.2980 C   0  0  0  0  0  0  0  0  0  0  0  0
    0.1130   16.4830   -2.1690 C   0  0  0  0  0  0  0  0  0  0  0  0
    0.8620   15.2680   -1.5730 C   0  0  1  0  0  0  0  0  0  0  0  0
    0.0170   14.8460   -0.3310 C   0  0  0  0  0  0  0  0  0  0  0  0
    1.1060   14.0650   -2.5410 C   0  0  2  0  0  0  0  0  0  0  0  0
   -0.1680   13.3850   -3.0720 C   0  0  0  0  0  0  0  0  0  0  0  0
   -0.6800   12.2530   -2.2450 C   0  0  0  0  0  0  0  0  0  0  0  0
    0.0100   11.6140   -1.2810 C   0  0  0  0  0  0  0  0  0  0  0  0
    1.4810   11.9550   -1.0080 C   0  0  1  0  0  0  0  0  0  0  0  0
    2.3020   10.6440   -0.8850 C   0  0  0  0  0  0  0  0  0  0  0  0
    1.7230    9.6870    0.1520 C   0  0  0  0  0  0  0  0  0  0  0  0
    0.2780    9.3260   -0.1860 C   0  0  2  0  0  0  0  0  0  0  0  0
    0.2650    8.5590   -1.3950 O   0  0  0  0  0  0  0  0  0  0  0  0
   -0.6430   10.5680   -0.3450 C   0  0  0  0  0  0  0  0  0  0  0  0
   -0.8700   11.2270    1.0380 C   0  0  0  0  0  0  0  0  0  0  0  0
   -2.0340   10.0720   -0.8230 C   0  0  0  0  0  0  0  0  0  0  0  0
    2.1470   13.0010   -2.0030 C   0  0  1  0  0  0  0  0  0  0  0  0
    2.7130   12.2600   -3.2530 C   0  0  0  0  0  0  0  0  0  0  0  0
    3.3780   13.6760   -1.2900 C   0  0  0  0  0  0  0  0  0  0  0  0
    3.0890   14.9310   -0.4450 C   0  0  0  0  0  0  0  0  0  0  0  0
    2.2420   15.9370   -1.2300 C   0  0  2  0  0  0  0  0  0  0  0  0
    3.0760   16.3970   -2.4740 C   0  0  0  0  0  0  0  0  0  0  0  0
    3.4260   18.0342    1.8123 H   0  0  0  0  0  0  0  0  0  0  0  0
    4.0430   16.7836    0.6800 H   0  0  0  0  0  0  0  0  0  0  0  0
    4.7634   18.4291    0.6800 H   0  0  0  0  0  0  0  0  0  0  0  0
    3.3597   18.4934   -1.1788 H   0  0  0  0  0  0  0  0  0  0  0  0
    2.8312   20.2539    0.6792 H   0  0  0  0  0  0  0  0  0  0  0  0
    1.7359   20.0749   -0.7742 H   0  0  0  0  0  0  0  0  0  0  0  0
    0.7145   18.3311    1.1850 H   0  0  0  0  0  0  0  0  0  0  0  0
    1.1087   19.8827    2.0355 H   0  0  0  0  0  0  0  0  0  0  0  0
    0.2625   20.6629   -0.1848 H   0  0  0  0  0  0  0  0  0  0  0  0
   -1.8073   17.7763    1.7891 H   0  0  0  0  0  0  0  0  0  0  0  0
   -2.7406   17.4750    0.2842 H   0  0  0  0  0  0  0  0  0  0  0  0
   -0.9534   17.2939    0.2842 H   0  0  0  0  0  0  0  0  0  0  0  0
   -3.4859   20.2975   -0.1457 H   0  0  0  0  0  0  0  0  0  0  0  0
   -2.1519   20.5987   -1.3103 H   0  0  0  0  0  0  0  0  0  0  0  0
   -3.0041   19.0175   -1.3103 H   0  0  0  0  0  0  0  0  0  0  0  0
    1.5547   16.9487    0.5812 H   0  0  0  0  0  0  0  0  0  0  0  0
   -0.2540   17.9958   -0.6302 H   0  0  0  0  0  0  0  0  0  0  0  0
    0.8302   18.5488   -1.9245 H   0  0  0  0  0  0  0  0  0  0  0  0
   -0.9755   16.3399   -2.1008 H   0  0  0  0  0  0  0  0  0  0  0  0
    0.3404   16.6317   -3.2349 H   0  0  0  0  0  0  0  0  0  0  0  0
    0.5570   15.1157    0.5886 H   0  0  0  0  0  0  0  0  0  0  0  0
   -0.9521   15.3659   -0.3530 H   0  0  0  0  0  0  0  0  0  0  0  0
   -0.1495   13.7589   -0.3530 H   0  0  0  0  0  0  0  0  0  0  0  0
    1.5686   14.5535   -3.4113 H   0  0  0  0  0  0  0  0  0  0  0  0
   -0.9594   14.1465   -3.1325 H   0  0  0  0  0  0  0  0  0  0  0  0
    0.1026   12.9514   -4.0460 H   0  0  0  0  0  0  0  0  0  0  0  0
   -1.7076   11.9119   -2.4392 H   0  0  0  0  0  0  0  0  0  0  0  0
    1.4951   12.4959   -0.0503 H   0  0  0  0  0  0  0  0  0  0  0  0
    2.3114   10.1407   -1.8630 H   0  0  0  0  0  0  0  0  0  0  0  0
    3.3173   10.9149   -0.5596 H   0  0  0  0  0  0  0  0  0  0  0  0
    2.3283    8.7687    0.1722 H   0  0  0  0  0  0  0  0  0  0  0  0
    1.7411   10.1809    1.1347 H   0  0  0  0  0  0  0  0  0  0  0  0
   -0.1227    8.7448    0.6576 H   0  0  0  0  0  0  0  0  0  0  0  0
   -0.5510    8.0310   -1.3990 H   0  0  0  0  0  0  0  0  0  0  0  0
   -0.6221   10.5074    1.8322 H   0  0  0  0  0  0  0  0  0  0  0  0
   -0.2254   12.1133    1.1321 H   0  0  0  0  0  0  0  0  0  0  0  0
   -1.9237   11.5283    1.1321 H   0  0  0  0  0  0  0  0  0  0  0  0
   -2.6634    9.8476    0.0508 H   0  0  0  0  0  0  0  0  0  0  0  0
   -2.5138   10.8544   -1.4293 H   0  0  0  0  0  0  0  0  0  0  0  0
   -1.9105    9.1625   -1.4293 H   0  0  0  0  0  0  0  0  0  0  0  0
    3.3507   11.4252   -2.9268 H   0  0  0  0  0  0  0  0  0  0  0  0
    1.8800   11.8709   -3.8570 H   0  0  0  0  0  0  0  0  0  0  0  0
    3.3075   12.9613   -3.8570 H   0  0  0  0  0  0  0  0  0  0  0  0
    3.8309   12.9249   -0.6261 H   0  0  0  0  0  0  0  0  0  0  0  0
    4.0289   14.0223   -2.1063 H   0  0  0  0  0  0  0  0  0  0  0  0
    2.5455   14.6352    0.4645 H   0  0  0  0  0  0  0  0  0  0  0  0
    4.0461   15.4063   -0.1840 H   0  0  0  0  0  0  0  0  0  0  0  0
    3.9922   16.9024   -2.1347 H   0  0  0  0  0  0  0  0  0  0  0  0
    3.3444   15.5194   -3.0804 H   0  0  0  0  0  0  0  0  0  0  0  0
    2.4769   17.0923   -3.0804 H   0  0  0  0  0  0  0  0  0  0  0  0
  1  2  1  0
  2  3  1  0
  3  4  1  0
  4  5  1  0
  5  6  1  0
  6  7  1  0
  7  8  1  0
  7  9  1  0
  2 10  1  0
 10 11  1  0
 11 12  1  0
 12 13  1  0
 13 14  1  1
 13 15  1  0
 15 16  1  0
 16 17  1  0
 17 18  2  0
 18 19  1  0
 19 20  1  0
 20 21  1  0
 21 22  1  0
 22 23  1  0
 22 24  1  0
 24 25  1  0
 24 26  1  0
 19 27  1  0
 27 28  1  6
 27 29  1  0
 29 30  1  0
 30 31  1  0
 31 32  1  6
  7  5  1  0
 31 10  1  0
 31 13  1  0
 27 15  1  0
 24 18  1  0
  1 33  1  0
  1 34  1  0
  1 35  1  0
  2 36  1  6
  3 37  1  0
  3 38  1  0
  4 39  1  0
  4 40  1  0
  5 41  1  6
  8 42  1  0
  8 43  1  0
  8 44  1  0
  9 45  1  0
  9 46  1  0
  9 47  1  0
 10 48  1  1
 11 49  1  0
 11 50  1  0
 12 51  1  0
 12 52  1  0
 14 53  1  0
 14 54  1  0
 14 55  1  0
 15 56  1  6
 16 57  1  0
 16 58  1  0
 17 59  1  0
 19 60  1  1
 20 61  1  0
 20 62  1  0
 21 63  1  0
 21 64  1  0
 22 65  1  1
 23 66  1  0
 25 67  1  0
 25 68  1  0
 25 69  1  0
 26 70  1  0
 26 71  1  0
 26 72  1  0
 28 73  1  0
 28 74  1  0
 28 75  1  0
 29 76  1  0
 29 77  1  0
 30 78  1  0
 30 79  1  0
 32 80  1  0
 32 81  1  0
 32 82  1  0
M  END
>  <meeko>  (6) 
{"is_sidechain": [false], "intermolecular_energy": 2.731, "internal_energy": -0.839}

$$$$
EPH_relaxed_0001_pdb2pqr_Repair_101_r2_0001_out
     RDKit          3D

 82 86  0  0  0  0  0  0  0  0999 V2000
    0.3870    8.8330   -2.3390 C   0  0  0  0  0  0  0  0  0  0  0  0
    1.1300    9.9760   -3.0360 C   0  0  2  0  0  0  0  0  0  0  0  0
    2.6310    9.9940   -2.6810 C   0  0  0  0  0  0  0  0  0  0  0  0
    3.5190   10.5540   -3.7950 C   0  0  0  0  0  0  0  0  0  0  0  0
    4.9160   10.8090   -3.3150 C   0  0  2  0  0  0  0  0  0  0  0  0
    5.5000   12.0280   -3.7910 O   0  0  0  0  0  0  0  0  0  0  0  0
    6.1280   10.8120   -4.2280 C   0  0  0  0  0  0  0  0  0  0  0  0
    5.9980   10.5540   -5.6970 C   0  0  0  0  0  0  0  0  0  0  0  0
    7.4780   10.5810   -3.6260 C   0  0  0  0  0  0  0  0  0  0  0  0
    0.4920   11.3100   -2.6690 C   0  0  1  0  0  0  0  0  0  0  0  0
   -0.8640   11.1420   -1.9330 C   0  0  0  0  0  0  0  0  0  0  0  0
   -0.9590   12.2960   -0.9020 C   0  0  0  0  0  0  0  0  0  0  0  0
    0.1730   13.2710   -1.3010 C   0  0  1  0  0  0  0  0  0  0  0  0
   -0.4150   14.1080   -2.4800 C   0  0  0  0  0  0  0  0  0  0  0  0
    0.7290   14.1870   -0.1630 C   0  0  2  0  0  0  0  0  0  0  0  0
   -0.2920   15.1650    0.4440 C   0  0  0  0  0  0  0  0  0  0  0  0
   -0.3630   16.5030   -0.2150 C   0  0  0  0  0  0  0  0  0  0  0  0
    0.5520   17.0070   -1.0640 C   0  0  0  0  0  0  0  0  0  0  0  0
    1.8510   16.2470   -1.3630 C   0  0  1  0  0  0  0  0  0  0  0  0
    3.0530   17.2240   -1.2800 C   0  0  0  0  0  0  0  0  0  0  0  0
    2.8740   18.4490   -2.1720 C   0  0  0  0  0  0  0  0  0  0  0  0
    1.6030   19.2100   -1.8060 C   0  0  2  0  0  0  0  0  0  0  0  0
    1.7610   19.7690   -0.4980 O   0  0  0  0  0  0  0  0  0  0  0  0
    0.3260   18.3250   -1.8450 C   0  0  0  0  0  0  0  0  0  0  0  0
   -0.0150   17.9670   -3.3130 C   0  0  0  0  0  0  0  0  0  0  0  0
   -0.8620   19.1760   -1.3190 C   0  0  0  0  0  0  0  0  0  0  0  0
    2.0860   14.9180   -0.5240 C   0  0  1  0  0  0  0  0  0  0  0  0
    2.7810   15.2590    0.8290 C   0  0  0  0  0  0  0  0  0  0  0  0
    3.0780   13.9830   -1.3110 C   0  0  0  0  0  0  0  0  0  0  0  0
    2.4570   13.0150   -2.3360 C   0  0  0  0  0  0  0  0  0  0  0  0
    1.2860   12.2420   -1.7200 C   0  0  2  0  0  0  0  0  0  0  0  0
    1.8520   11.3730   -0.5450 C   0  0  0  0  0  0  0  0  0  0  0  0
    0.4664    8.9551   -1.2487 H   0  0  0  0  0  0  0  0  0  0  0  0
   -0.6726    8.8509   -2.6338 H   0  0  0  0  0  0  0  0  0  0  0  0
    0.8334    7.8719   -2.6338 H   0  0  0  0  0  0  0  0  0  0  0  0
    1.0491    9.8112   -4.1206 H   0  0  0  0  0  0  0  0  0  0  0  0
    2.7682   10.6138   -1.7826 H   0  0  0  0  0  0  0  0  0  0  0  0
    2.9364    8.9495   -2.5203 H   0  0  0  0  0  0  0  0  0  0  0  0
    3.5529    9.8295   -4.6220 H   0  0  0  0  0  0  0  0  0  0  0  0
    3.0903   11.5112   -4.1268 H   0  0  0  0  0  0  0  0  0  0  0  0
    4.7085   10.2926   -2.3662 H   0  0  0  0  0  0  0  0  0  0  0  0
    5.5083    9.5821   -5.8566 H   0  0  0  0  0  0  0  0  0  0  0  0
    5.3930   11.3493   -6.1568 H   0  0  0  0  0  0  0  0  0  0  0  0
    6.9972   10.5410   -6.1568 H   0  0  0  0  0  0  0  0  0  0  0  0
    7.3975   10.5948   -2.5290 H   0  0  0  0  0  0  0  0  0  0  0  0
    7.8631    9.6039   -3.9532 H   0  0  0  0  0  0  0  0  0  0  0  0
    8.1660   11.3745   -3.9532 H   0  0  0  0  0  0  0  0  0  0  0  0
    0.4239   11.7620   -3.6695 H   0  0  0  0  0  0  0  0  0  0  0  0
   -1.6951   11.2059   -2.6508 H   0  0  0  0  0  0  0  0  0  0  0  0
   -0.9252   10.1624   -1.4363 H   0  0  0  0  0  0  0  0  0  0  0  0
   -1.9387   12.7924   -0.9641 H   0  0  0  0  0  0  0  0  0  0  0  0
   -0.8561   11.9393    0.1335 H   0  0  0  0  0  0  0  0  0  0  0  0
   -1.0034   14.9456   -2.0773 H   0  0  0  0  0  0  0  0  0  0  0  0
    0.4069   14.5004   -3.0968 H   0  0  0  0  0  0  0  0  0  0  0  0
   -1.0629   13.4678   -3.0968 H   0  0  0  0  0  0  0  0  0  0  0  0
    0.9586   13.4627    0.6324 H   0  0  0  0  0  0  0  0  0  0  0  0
   -1.2872   14.7010    0.3793 H   0  0  0  0  0  0  0  0  0  0  0  0
    0.0410   15.3511    1.4757 H   0  0  0  0  0  0  0  0  0  0  0  0
   -1.2375   17.1303    0.0127 H   0  0  0  0  0  0  0  0  0  0  0  0
    1.7503   15.8650   -2.3896 H   0  0  0  0  0  0  0  0  0  0  0  0
    3.1634   17.5595   -0.2382 H   0  0  0  0  0  0  0  0  0  0  0  0
    3.9462   16.6848   -1.6285 H   0  0  0  0  0  0  0  0  0  0  0  0
    3.7407   19.1148   -2.0471 H   0  0  0  0  0  0  0  0  0  0  0  0
    2.7935   18.1136   -3.2165 H   0  0  0  0  0  0  0  0  0  0  0  0
    1.4615   19.9978   -2.5606 H   0  0  0  0  0  0  0  0  0  0  0  0
    2.1610   19.0860    0.0670 H   0  0  0  0  0  0  0  0  0  0  0  0
   -0.7736   17.1706   -3.3295 H   0  0  0  0  0  0  0  0  0  0  0  0
   -0.4071   18.8575   -3.8260 H   0  0  0  0  0  0  0  0  0  0  0  0
    0.8936   17.6186   -3.8260 H   0  0  0  0  0  0  0  0  0  0  0  0
   -0.8569   19.1724   -0.2190 H   0  0  0  0  0  0  0  0  0  0  0  0
   -0.7622   20.2093   -1.6827 H   0  0  0  0  0  0  0  0  0  0  0  0
   -1.8083   18.7490   -1.6827 H   0  0  0  0  0  0  0  0  0  0  0  0
    2.1363   14.9427    1.6623 H   0  0  0  0  0  0  0  0  0  0  0  0
    3.7442   14.7311    0.8897 H   0  0  0  0  0  0  0  0  0  0  0  0
    2.9529   16.3438    0.8897 H   0  0  0  0  0  0  0  0  0  0  0  0
    3.7864   14.6289   -1.8505 H   0  0  0  0  0  0  0  0  0  0  0  0
    3.5327   13.3374   -0.5452 H   0  0  0  0  0  0  0  0  0  0  0  0
    2.0936   13.5904   -3.2002 H   0  0  0  0  0  0  0  0  0  0  0  0
    3.2269   12.2946   -2.6496 H   0  0  0  0  0  0  0  0  0  0  0  0
    1.5601   11.8212    0.4162 H   0  0  0  0  0  0  0  0  0  0  0  0
    1.4440   10.3537   -0.6132 H   0  0  0  0  0  0  0  0  0  0  0  0
    2.9492   11.3341   -0.6132 H   0  0  0  0  0  0  0  0  0  0  0  0
  1  2  1  0
  2  3  1  0
  3  4  1  0
  4  5  1  0
  5  6  1  0
  6  7  1  0
  7  8  1  0
  7  9  1  0
  2 10  1  0
 10 11  1  0
 11 12  1  0
 12 13  1  0
 13 14  1  6
 13 15  1  0
 15 16  1  0
 16 17  1  0
 17 18  2  0
 18 19  1  0
 19 20  1  0
 20 21  1  0
 21 22  1  0
 22 23  1  0
 22 24  1  0
 24 25  1  0
 24 26  1  0
 19 27  1  0
 27 28  1  1
 27 29  1  0
 29 30  1  0
 30 31  1  0
 31 32  1  1
  7  5  1  0
 31 10  1  0
 31 13  1  0
 27 15  1  0
 24 18  1  0
  1 33  1  0
  1 34  1  0
  1 35  1  0
  2 36  1  6
  3 37  1  0
  3 38  1  0
  4 39  1  0
  4 40  1  0
  5 41  1  1
  8 42  1  0
  8 43  1  0
  8 44  1  0
  9 45  1  0
  9 46  1  0
  9 47  1  0
 10 48  1  6
 11 49  1  0
 11 50  1  0
 12 51  1  0
 12 52  1  0
 14 53  1  0
 14 54  1  0
 14 55  1  0
 15 56  1  1
 16 57  1  0
 16 58  1  0
 17 59  1  0
 19 60  1  6
 20 61  1  0
 20 62  1  0
 21 63  1  0
 21 64  1  0
 22 65  1  6
 23 66  1  0
 25 67  1  0
 25 68  1  0
 25 69  1  0
 26 70  1  0
 26 71  1  0
 26 72  1  0
 28 73  1  0
 28 74  1  0
 28 75  1  0
 29 76  1  0
 29 77  1  0
 30 78  1  0
 30 79  1  0
 32 80  1  0
 32 81  1  0
 32 82  1  0
M  END
>  <meeko>  (7) 
{"is_sidechain": [false], "intermolecular_energy": 2.731, "internal_energy": -0.839}

$$$$
EPH_relaxed_0001_pdb2pqr_Repair_101_r2_0001_out
     RDKit          3D

 82 86  0  0  0  0  0  0  0  0999 V2000
    1.1840   19.8010   -1.8120 C   0  0  0  0  0  0  0  0  0  0  0  0
    1.4040   19.4220   -0.3450 C   0  0  2  0  0  0  0  0  0  0  0  0
    2.8610   19.6520    0.1030 C   0  0  0  0  0  0  0  0  0  0  0  0
    2.9950   20.0880    1.5640 C   0  0  0  0  0  0  0  0  0  0  0  0
    4.3640   19.8030    2.1050 C   0  0  2  0  0  0  0  0  0  0  0  0
    4.5000   18.5280    2.7470 O   0  0  0  0  0  0  0  0  0  0  0  0
    4.6700   19.6830    3.5860 C   0  0  0  0  0  0  0  0  0  0  0  0
    3.6010   19.8470    4.6190 C   0  0  0  0  0  0  0  0  0  0  0  0
    6.0800   19.8920    4.0440 C   0  0  0  0  0  0  0  0  0  0  0  0
    1.0130   17.9660   -0.1200 C   0  0  1  0  0  0  0  0  0  0  0  0
   -0.3860   17.8170    0.5350 C   0  0  0  0  0  0  0  0  0  0  0  0
   -1.0260   16.5380   -0.0630 C   0  0  0  0  0  0  0  0  0  0  0  0
    0.1400   15.8180   -0.7810 C   0  0  1  0  0  0  0  0  0  0  0  0
    0.9010   15.0600    0.3520 C   0  0  0  0  0  0  0  0  0  0  0  0
   -0.2550   14.8600   -1.9520 C   0  0  2  0  0  0  0  0  0  0  0  0
   -1.1290   13.6600   -1.5460 C   0  0  0  0  0  0  0  0  0  0  0  0
   -0.3800   12.4270   -1.1630 C   0  0  0  0  0  0  0  0  0  0  0  0
    0.9210   12.1920   -1.4150 C   0  0  0  0  0  0  0  0  0  0  0  0
    1.7550   13.1820   -2.2380 C   0  0  1  0  0  0  0  0  0  0  0  0
    2.5800   12.4070   -3.2990 C   0  0  0  0  0  0  0  0  0  0  0  0
    3.4290   11.2980   -2.6850 C   0  0  0  0  0  0  0  0  0  0  0  0
    2.5570   10.3020   -1.9250 C   0  0  2  0  0  0  0  0  0  0  0  0
    1.7260    9.6090   -2.8610 O   0  0  0  0  0  0  0  0  0  0  0  0
    1.6730   10.9690   -0.8340 C   0  0  0  0  0  0  0  0  0  0  0  0
    2.5660   11.4570    0.3330 C   0  0  0  0  0  0  0  0  0  0  0  0
    0.7420    9.8770   -0.2410 C   0  0  0  0  0  0  0  0  0  0  0  0
    0.9600   14.4100   -2.8590 C   0  0  1  0  0  0  0  0  0  0  0  0
    0.3590   14.0090   -4.2410 C   0  0  0  0  0  0  0  0  0  0  0  0
    1.9680   15.5870   -3.1370 C   0  0  0  0  0  0  0  0  0  0  0  0
    2.2260   16.5690   -1.9780 C   0  0  0  0  0  0  0  0  0  0  0  0
    0.9080   17.0570   -1.3700 C   0  0  2  0  0  0  0  0  0  0  0  0
    0.1300   17.8430   -2.4800 C   0  0  0  0  0  0  0  0  0  0  0  0
    0.6324   20.7512   -1.8665 H   0  0  0  0  0  0  0  0  0  0  0  0
    2.1575   19.9130   -2.3117 H   0  0  0  0  0  0  0  0  0  0  0  0
    0.6040   19.0112   -2.3117 H   0  0  0  0  0  0  0  0  0  0  0  0
    0.7647   20.0772    0.2650 H   0  0  0  0  0  0  0  0  0  0  0  0
    3.4178   18.7129   -0.0314 H   0  0  0  0  0  0  0  0  0  0  0  0
    3.2613   20.4699   -0.5141 H   0  0  0  0  0  0  0  0  0  0  0  0
    2.8027   21.1689    1.6324 H   0  0  0  0  0  0  0  0  0  0  0  0
    2.2659   19.5191    2.1596 H   0  0  0  0  0  0  0  0  0  0  0  0
    4.8302   20.3915    1.3010 H   0  0  0  0  0  0  0  0  0  0  0  0
    4.0470   19.7786    5.6222 H   0  0  0  0  0  0  0  0  0  0  0  0
    3.1211   20.8293    4.4973 H   0  0  0  0  0  0  0  0  0  0  0  0
    2.8487   19.0538    4.4973 H   0  0  0  0  0  0  0  0  0  0  0  0
    6.1115   19.8967    5.1435 H   0  0  0  0  0  0  0  0  0  0  0  0
    6.7139   19.0780    3.6625 H   0  0  0  0  0  0  0  0  0  0  0  0
    6.4505   20.8549    3.6625 H   0  0  0  0  0  0  0  0  0  0  0  0
    1.8556   17.6439    0.5095 H   0  0  0  0  0  0  0  0  0  0  0  0
   -0.2847   17.7155    1.6256 H   0  0  0  0  0  0  0  0  0  0  0  0
   -1.0107   18.7006    0.3374 H   0  0  0  0  0  0  0  0  0  0  0  0
   -1.4429   15.9036    0.7331 H   0  0  0  0  0  0  0  0  0  0  0  0
   -1.8581   16.7673   -0.7449 H   0  0  0  0  0  0  0  0  0  0  0  0
    0.5465   15.4131    1.3316 H   0  0  0  0  0  0  0  0  0  0  0  0
    0.7125   13.9801    0.2613 H   0  0  0  0  0  0  0  0  0  0  0  0
    1.9802   15.2527    0.2613 H   0  0  0  0  0  0  0  0  0  0  0  0
   -0.8972   15.5002   -2.5747 H   0  0  0  0  0  0  0  0  0  0  0  0
   -1.7458   13.9637   -0.6873 H   0  0  0  0  0  0  0  0  0  0  0  0
   -1.7159   13.3951   -2.4378 H   0  0  0  0  0  0  0  0  0  0  0  0
   -0.9388   11.6440   -0.6295 H   0  0  0  0  0  0  0  0  0  0  0  0
    2.4330   13.6748   -1.5256 H   0  0  0  0  0  0  0  0  0  0  0  0
    1.8868   11.9588   -4.0260 H   0  0  0  0  0  0  0  0  0  0  0  0
    3.2631   13.1233   -3.7789 H   0  0  0  0  0  0  0  0  0  0  0  0
    3.9650   10.7689   -3.4868 H   0  0  0  0  0  0  0  0  0  0  0  0
    4.1419   11.7505   -1.9800 H   0  0  0  0  0  0  0  0  0  0  0  0
    3.2298    9.6071   -1.4010 H   0  0  0  0  0  0  0  0  0  0  0  0
    2.2590    8.9000   -3.2590 H   0  0  0  0  0  0  0  0  0  0  0  0
    2.0916   11.1977    1.2910 H   0  0  0  0  0  0  0  0  0  0  0  0
    3.5511   10.9718    0.2686 H   0  0  0  0  0  0  0  0  0  0  0  0
    2.6897   12.5481    0.2686 H   0  0  0  0  0  0  0  0  0  0  0  0
    0.7791    9.9205    0.8575 H   0  0  0  0  0  0  0  0  0  0  0  0
   -0.2898   10.0511   -0.5802 H   0  0  0  0  0  0  0  0  0  0  0  0
    1.0771    8.8857   -0.5802 H   0  0  0  0  0  0  0  0  0  0  0  0
   -0.5468   13.4046   -4.0855 H   0  0  0  0  0  0  0  0  0  0  0  0
    0.1015   14.9169   -4.8062 H   0  0  0  0  0  0  0  0  0  0  0  0
    1.0984   13.4227   -4.8062 H   0  0  0  0  0  0  0  0  0  0  0  0
    2.9336   15.1395   -3.4152 H   0  0  0  0  0  0  0  0  0  0  0  0
    1.4953   16.1906   -3.9258 H   0  0  0  0  0  0  0  0  0  0  0  0
    2.8149   16.0609   -1.2001 H   0  0  0  0  0  0  0  0  0  0  0  0
    2.7747   17.4381   -2.3700 H   0  0  0  0  0  0  0  0  0  0  0  0
   -0.5689   18.5491   -2.0078 H   0  0  0  0  0  0  0  0  0  0  0  0
    0.8447   18.3977   -3.1057 H   0  0  0  0  0  0  0  0  0  0  0  0
   -0.4320   17.1340   -3.1057 H   0  0  0  0  0  0  0  0  0  0  0  0
  1  2  1  0
  2  3  1  0
  3  4  1  0
  4  5  1  0
  5  6  1  0
  6  7  1  0
  7  8  1  0
  7  9  1  0
  2 10  1  0
 10 11  1  0
 11 12  1  0
 12 13  1  0
 13 14  1  1
 13 15  1  0
 15 16  1  0
 16 17  1  0
 17 18  2  0
 18 19  1  0
 19 20  1  0
 20 21  1  0
 21 22  1  0
 22 23  1  0
 22 24  1  0
 24 25  1  0
 24 26  1  0
 19 27  1  0
 27 28  1  6
 27 29  1  0
 29 30  1  0
 30 31  1  0
 31 32  1  6
  7  5  1  0
 31 10  1  0
 31 13  1  0
 27 15  1  0
 24 18  1  0
  1 33  1  0
  1 34  1  0
  1 35  1  0
  2 36  1  1
  3 37  1  0
  3 38  1  0
  4 39  1  0
  4 40  1  0
  5 41  1  6
  8 42  1  0
  8 43  1  0
  8 44  1  0
  9 45  1  0
  9 46  1  0
  9 47  1  0
 10 48  1  1
 11 49  1  0
 11 50  1  0
 12 51  1  0
 12 52  1  0
 14 53  1  0
 14 54  1  0
 14 55  1  0
 15 56  1  6
 16 57  1  0
 16 58  1  0
 17 59  1  0
 19 60  1  1
 20 61  1  0
 20 62  1  0
 21 63  1  0
 21 64  1  0
 22 65  1  1
 23 66  1  0
 25 67  1  0
 25 68  1  0
 25 69  1  0
 26 70  1  0
 26 71  1  0
 26 72  1  0
 28 73  1  0
 28 74  1  0
 28 75  1  0
 29 76  1  0
 29 77  1  0
 30 78  1  0
 30 79  1  0
 32 80  1  0
 32 81  1  0
 32 82  1  0
M  END
>  <meeko>  (8) 
{"is_sidechain": [false], "intermolecular_energy": 2.731, "internal_energy": -0.839}

$$$$
EPH_relaxed_0001_pdb2pqr_Repair_101_r2_0001_out
     RDKit          3D

 82 86  0  0  0  0  0  0  0  0999 V2000
    0.1910   17.7430   -2.5800 C   0  0  0  0  0  0  0  0  0  0  0  0
   -0.0490   16.8680   -1.3470 C   0  0  2  0  0  0  0  0  0  0  0  0
   -0.0880   17.6950   -0.0460 C   0  0  0  0  0  0  0  0  0  0  0  0
    0.5310   19.0890   -0.1840 C   0  0  0  0  0  0  0  0  0  0  0  0
    1.6680   19.2880    0.7720 C   0  0  2  0  0  0  0  0  0  0  0  0
    2.6810   20.1930    0.3160 O   0  0  0  0  0  0  0  0  0  0  0  0
    3.0860   18.8260    0.4930 C   0  0  0  0  0  0  0  0  0  0  0  0
    3.4430   18.1270   -0.7820 C   0  0  0  0  0  0  0  0  0  0  0  0
    4.0110   18.6160    1.6510 C   0  0  0  0  0  0  0  0  0  0  0  0
    1.0330   15.7980   -1.2510 C   0  0  1  0  0  0  0  0  0  0  0  0
    1.2380   15.2840    0.1990 C   0  0  0  0  0  0  0  0  0  0  0  0
    1.5850   13.7760    0.0940 C   0  0  0  0  0  0  0  0  0  0  0  0
    1.8930   13.5500   -1.4050 C   0  0  1  0  0  0  0  0  0  0  0  0
    3.3670   14.0310   -1.5880 C   0  0  0  0  0  0  0  0  0  0  0  0
    1.6900   12.0960   -1.9410 C   0  0  2  0  0  0  0  0  0  0  0  0
    2.5950   11.0310   -1.2970 C   0  0  0  0  0  0  0  0  0  0  0  0
    3.9000   10.8020   -1.9860 C   0  0  0  0  0  0  0  0  0  0  0  0
    4.2100   11.2130   -3.2290 C   0  0  0  0  0  0  0  0  0  0  0  0
    3.1650   11.9020   -4.1150 C   0  0  1  0  0  0  0  0  0  0  0  0
    3.1990   11.2800   -5.5360 C   0  0  0  0  0  0  0  0  0  0  0  0
    4.5950   11.3070   -6.1520 C   0  0  0  0  0  0  0  0  0  0  0  0
    5.5940   10.5620   -5.2710 C   0  0  2  0  0  0  0  0  0  0  0  0
    5.2570    9.1710   -5.2650 O   0  0  0  0  0  0  0  0  0  0  0  0
    5.6400   11.0940   -3.8120 C   0  0  0  0  0  0  0  0  0  0  0  0
    6.2910   12.5000   -3.7910 C   0  0  0  0  0  0  0  0  0  0  0  0
    6.5810   10.1680   -2.9950 C   0  0  0  0  0  0  0  0  0  0  0  0
    1.6930   11.9790   -3.5190 C   0  0  1  0  0  0  0  0  0  0  0  0
    0.9070   10.6800   -3.8710 C   0  0  0  0  0  0  0  0  0  0  0  0
    0.9210   13.1660   -4.2080 C   0  0  0  0  0  0  0  0  0  0  0  0
    1.0660   14.5570   -3.5610 C   0  0  0  0  0  0  0  0  0  0  0  0
    0.8120   14.4900   -2.0520 C   0  0  2  0  0  0  0  0  0  0  0  0
   -0.6700   14.0300   -1.8370 C   0  0  0  0  0  0  0  0  0  0  0  0
    0.4694   18.7581   -2.2607 H   0  0  0  0  0  0  0  0  0  0  0  0
    1.0042   17.3122   -3.1827 H   0  0  0  0  0  0  0  0  0  0  0  0
   -0.7281   17.7874   -3.1827 H   0  0  0  0  0  0  0  0  0  0  0  0
   -1.0338   16.3925   -1.4655 H   0  0  0  0  0  0  0  0  0  0  0  0
   -1.1380   17.8101    0.2610 H   0  0  0  0  0  0  0  0  0  0  0  0
    0.5099   17.1501    0.6994 H   0  0  0  0  0  0  0  0  0  0  0  0
    0.9033   19.2135   -1.2116 H   0  0  0  0  0  0  0  0  0  0  0  0
   -0.2454   19.8332    0.0470 H   0  0  0  0  0  0  0  0  0  0  0  0
    1.0005   19.1411    1.6339 H   0  0  0  0  0  0  0  0  0  0  0  0
    3.9321   17.1693   -0.5506 H   0  0  0  0  0  0  0  0  0  0  0  0
    2.5297   17.9406   -1.3661 H   0  0  0  0  0  0  0  0  0  0  0  0
    4.1294   18.7576   -1.3661 H   0  0  0  0  0  0  0  0  0  0  0  0
    3.4552   18.7422    2.5918 H   0  0  0  0  0  0  0  0  0  0  0  0
    4.4299   17.5999    1.6061 H   0  0  0  0  0  0  0  0  0  0  0  0
    4.8276   19.3516    1.6061 H   0  0  0  0  0  0  0  0  0  0  0  0
    1.8831   16.3569   -1.6693 H   0  0  0  0  0  0  0  0  0  0  0  0
    2.0623   15.8297    0.6814 H   0  0  0  0  0  0  0  0  0  0  0  0
    0.3334   15.4400    0.8051 H   0  0  0  0  0  0  0  0  0  0  0  0
    2.4631   13.5357    0.7114 H   0  0  0  0  0  0  0  0  0  0  0  0
    0.7674   13.1338    0.4534 H   0  0  0  0  0  0  0  0  0  0  0  0
    3.8287   14.1817   -0.6010 H   0  0  0  0  0  0  0  0  0  0  0  0
    3.9340   13.2713   -2.1459 H   0  0  0  0  0  0  0  0  0  0  0  0
    3.3768   14.9789   -2.1459 H   0  0  0  0  0  0  0  0  0  0  0  0
    0.6684   11.8628   -1.6064 H   0  0  0  0  0  0  0  0  0  0  0  0
    2.8064   11.3441   -0.2639 H   0  0  0  0  0  0  0  0  0  0  0  0
    2.0439   10.0815   -1.3654 H   0  0  0  0  0  0  0  0  0  0  0  0
    4.6730   10.2508   -1.4304 H   0  0  0  0  0  0  0  0  0  0  0  0
    3.4588   12.9609   -4.1635 H   0  0  0  0  0  0  0  0  0  0  0  0
    2.8618   10.2349   -5.4719 H   0  0  0  0  0  0  0  0  0  0  0  0
    2.5379   11.8793   -6.1793 H   0  0  0  0  0  0  0  0  0  0  0  0
    4.5611   10.8285   -7.1419 H   0  0  0  0  0  0  0  0  0  0  0  0
    4.9190   12.3543   -6.2422 H   0  0  0  0  0  0  0  0  0  0  0  0
    6.5949   10.7264   -5.6967 H   0  0  0  0  0  0  0  0  0  0  0  0
    4.7830    8.9800   -6.0930 H   0  0  0  0  0  0  0  0  0  0  0  0
    6.4391   12.8199   -2.7490 H   0  0  0  0  0  0  0  0  0  0  0  0
    7.2630   12.4617   -4.3045 H   0  0  0  0  0  0  0  0  0  0  0  0
    5.6330   13.2164   -4.3045 H   0  0  0  0  0  0  0  0  0  0  0  0
    6.4142   10.3321   -1.9202 H   0  0  0  0  0  0  0  0  0  0  0  0
    6.3678    9.1177   -3.2430 H   0  0  0  0  0  0  0  0  0  0  0  0
    7.6277   10.3981   -3.2430 H   0  0  0  0  0  0  0  0  0  0  0  0
    0.6008   10.1740   -2.9435 H   0  0  0  0  0  0  0  0  0  0  0  0
    0.0143   10.9396   -4.4590 H   0  0  0  0  0  0  0  0  0  0  0  0
    1.5511   10.0096   -4.4590 H   0  0  0  0  0  0  0  0  0  0  0  0
    1.2827   13.2415   -5.2441 H   0  0  0  0  0  0  0  0  0  0  0  0
   -0.1448   12.9122   -4.1094 H   0  0  0  0  0  0  0  0  0  0  0  0
    2.0850   14.9315   -3.7379 H   0  0  0  0  0  0  0  0  0  0  0  0
    0.3235   15.2321   -4.0116 H   0  0  0  0  0  0  0  0  0  0  0  0
   -0.8809   13.9645   -0.7594 H   0  0  0  0  0  0  0  0  0  0  0  0
   -1.3511   14.7590   -2.3003 H   0  0  0  0  0  0  0  0  0  0  0  0
   -0.8186   13.0435   -2.3003 H   0  0  0  0  0  0  0  0  0  0  0  0
  1  2  1  0
  2  3  1  0
  3  4  1  0
  4  5  1  0
  5  6  1  0
  6  7  1  0
  7  8  1  0
  7  9  1  0
  2 10  1  0
 10 11  1  0
 11 12  1  0
 12 13  1  0
 13 14  1  1
 13 15  1  0
 15 16  1  0
 16 17  1  0
 17 18  2  0
 18 19  1  0
 19 20  1  0
 20 21  1  0
 21 22  1  0
 22 23  1  0
 22 24  1  0
 24 25  1  0
 24 26  1  0
 19 27  1  0
 27 28  1  1
 27 29  1  0
 29 30  1  0
 30 31  1  0
 31 32  1  6
  7  5  1  0
 31 10  1  0
 31 13  1  0
 27 15  1  0
 24 18  1  0
  1 33  1  0
  1 34  1  0
  1 35  1  0
  2 36  1  6
  3 37  1  0
  3 38  1  0
  4 39  1  0
  4 40  1  0
  5 41  1  1
  8 42  1  0
  8 43  1  0
  8 44  1  0
  9 45  1  0
  9 46  1  0
  9 47  1  0
 10 48  1  6
 11 49  1  0
 11 50  1  0
 12 51  1  0
 12 52  1  0
 14 53  1  0
 14 54  1  0
 14 55  1  0
 15 56  1  1
 16 57  1  0
 16 58  1  0
 17 59  1  0
 19 60  1  6
 20 61  1  0
 20 62  1  0
 21 63  1  0
 21 64  1  0
 22 65  1  6
 23 66  1  0
 25 67  1  0
 25 68  1  0
 25 69  1  0
 26 70  1  0
 26 71  1  0
 26 72  1  0
 28 73  1  0
 28 74  1  0
 28 75  1  0
 29 76  1  0
 29 77  1  0
 30 78  1  0
 30 79  1  0
 32 80  1  0
 32 81  1  0
 32 82  1  0
M  END
>  <meeko>  (9) 
{"is_sidechain": [false], "intermolecular_energy": 2.731, "internal_energy": -0.839}

$$$$
EPH_relaxed_0001_pdb2pqr_Repair_101_r2_0001_out
     RDKit          3D

 82 86  0  0  0  0  0  0  0  0999 V2000
    0.1980    9.2970   -2.2990 C   0  0  0  0  0  0  0  0  0  0  0  0
    1.1910   10.3540   -2.7900 C   0  0  2  0  0  0  0  0  0  0  0  0
    2.6190    9.7890   -2.9300 C   0  0  0  0  0  0  0  0  0  0  0  0
    3.5160   10.6060   -3.8630 C   0  0  0  0  0  0  0  0  0  0  0  0
    4.9110   10.7240   -3.3290 C   0  0  2  0  0  0  0  0  0  0  0  0
    5.5970   11.9250   -3.7040 O   0  0  0  0  0  0  0  0  0  0  0  0
    6.1480   10.6970   -4.2070 C   0  0  0  0  0  0  0  0  0  0  0  0
    6.0480   10.5480   -5.6930 C   0  0  0  0  0  0  0  0  0  0  0  0
    7.4590   10.3270   -3.5860 C   0  0  0  0  0  0  0  0  0  0  0  0
    1.1930   11.5460   -1.8410 C   0  0  1  0  0  0  0  0  0  0  0  0
    2.2480   11.4080   -0.7110 C   0  0  0  0  0  0  0  0  0  0  0  0
    2.7810   12.8350   -0.4200 C   0  0  0  0  0  0  0  0  0  0  0  0
    1.7910   13.7760   -1.1450 C   0  0  1  0  0  0  0  0  0  0  0  0
    0.5720   13.8980   -0.1780 C   0  0  0  0  0  0  0  0  0  0  0  0
    2.3450   15.1800   -1.5540 C   0  0  2  0  0  0  0  0  0  0  0  0
    2.7870   16.0740   -0.3830 C   0  0  0  0  0  0  0  0  0  0  0  0
    1.7270   16.9660    0.1740 C   0  0  0  0  0  0  0  0  0  0  0  0
    0.5570   17.2570   -0.4240 C   0  0  0  0  0  0  0  0  0  0  0  0
    0.2440   16.7440   -1.8360 C   0  0  1  0  0  0  0  0  0  0  0  0
   -0.3300   17.9030   -2.6920 C   0  0  0  0  0  0  0  0  0  0  0  0
   -1.5330   18.5750   -2.0360 C   0  0  0  0  0  0  0  0  0  0  0  0
   -1.1670   19.1230   -0.6590 C   0  0  2  0  0  0  0  0  0  0  0  0
   -0.2320   20.1940   -0.8230 O   0  0  0  0  0  0  0  0  0  0  0  0
   -0.5680   18.0470    0.2890 C   0  0  0  0  0  0  0  0  0  0  0  0
   -1.6750   17.0480    0.7070 C   0  0  0  0  0  0  0  0  0  0  0  0
   -0.1120   18.7590    1.5910 C   0  0  0  0  0  0  0  0  0  0  0  0
    1.4230   15.9700   -2.5690 C   0  0  1  0  0  0  0  0  0  0  0  0
    2.3460   16.9850   -3.3110 C   0  0  0  0  0  0  0  0  0  0  0  0
    0.8120   15.0330   -3.6770 C   0  0  0  0  0  0  0  0  0  0  0  0
    0.3930   13.6170   -3.2360 C   0  0  0  0  0  0  0  0  0  0  0  0
    1.5140   12.9360   -2.4450 C   0  0  2  0  0  0  0  0  0  0  0  0
    2.7470   12.7800   -3.3990 C   0  0  0  0  0  0  0  0  0  0  0  0
    0.1879    9.2863   -1.1991 H   0  0  0  0  0  0  0  0  0  0  0  0
   -0.8082    9.5376   -2.6726 H   0  0  0  0  0  0  0  0  0  0  0  0
    0.5009    8.3077   -2.6726 H   0  0  0  0  0  0  0  0  0  0  0  0
    0.8641   10.6757   -3.7898 H   0  0  0  0  0  0  0  0  0  0  0  0
    3.0832    9.7677   -1.9330 H   0  0  0  0  0  0  0  0  0  0  0  0
    2.5256    8.7858   -3.3715 H   0  0  0  0  0  0  0  0  0  0  0  0
    3.5511   10.1128   -4.8456 H   0  0  0  0  0  0  0  0  0  0  0  0
    3.0936   11.6184   -3.9445 H   0  0  0  0  0  0  0  0  0  0  0  0
    4.6363   10.1630   -2.4236 H   0  0  0  0  0  0  0  0  0  0  0  0
    5.4497    9.6566   -5.9327 H   0  0  0  0  0  0  0  0  0  0  0  0
    5.5646   11.4395   -6.1192 H   0  0  0  0  0  0  0  0  0  0  0  0
    7.0561   10.4384   -6.1192 H   0  0  0  0  0  0  0  0  0  0  0  0
    7.3661   10.3532   -2.4902 H   0  0  0  0  0  0  0  0  0  0  0  0
    7.7432    9.3136   -3.9057 H   0  0  0  0  0  0  0  0  0  0  0  0
    8.2311   11.0423   -3.9057 H   0  0  0  0  0  0  0  0  0  0  0  0
    0.1462   11.5153   -1.5045 H   0  0  0  0  0  0  0  0  0  0  0  0
    1.7829   10.9859    0.1920 H   0  0  0  0  0  0  0  0  0  0  0  0
    3.0644   10.7353   -1.0128 H   0  0  0  0  0  0  0  0  0  0  0  0
    2.7855   13.0349    0.6617 H   0  0  0  0  0  0  0  0  0  0  0  0
    3.8163   12.9723   -0.7654 H   0  0  0  0  0  0  0  0  0  0  0  0
    0.9250   13.8627    0.8632 H   0  0  0  0  0  0  0  0  0  0  0  0
    0.0554   14.8523   -0.3578 H   0  0  0  0  0  0  0  0  0  0  0  0
   -0.1235   13.0650   -0.3578 H   0  0  0  0  0  0  0  0  0  0  0  0
    3.2668   14.9209   -2.0954 H   0  0  0  0  0  0  0  0  0  0  0  0
    3.1423   15.4210    0.4278 H   0  0  0  0  0  0  0  0  0  0  0  0
    3.5646   16.7400   -0.7853 H   0  0  0  0  0  0  0  0  0  0  0  0
    1.9185   17.4238    1.1557 H   0  0  0  0  0  0  0  0  0  0  0  0
   -0.5163   15.9586   -1.7132 H   0  0  0  0  0  0  0  0  0  0  0  0
    0.4579   18.6564   -2.8391 H   0  0  0  0  0  0  0  0  0  0  0  0
   -0.6663   17.4767   -3.6486 H   0  0  0  0  0  0  0  0  0  0  0  0
   -1.8751   19.4032   -2.6739 H   0  0  0  0  0  0  0  0  0  0  0  0
   -2.3310   17.8275   -1.9161 H   0  0  0  0  0  0  0  0  0  0  0  0
   -2.0957   19.4752   -0.1863 H   0  0  0  0  0  0  0  0  0  0  0  0
    0.6340   19.8780   -0.5160 H   0  0  0  0  0  0  0  0  0  0  0  0
   -1.7293   16.9990    1.8046 H   0  0  0  0  0  0  0  0  0  0  0  0
   -2.6427   17.3845    0.3067 H   0  0  0  0  0  0  0  0  0  0  0  0
   -1.4393   16.0509    0.3067 H   0  0  0  0  0  0  0  0  0  0  0  0
   -0.4734   18.1947    2.4633 H   0  0  0  0  0  0  0  0  0  0  0  0
    0.9866   18.8090    1.6161 H   0  0  0  0  0  0  0  0  0  0  0  0
   -0.5261   19.7778    1.6161 H   0  0  0  0  0  0  0  0  0  0  0  0
    2.8949   17.5886   -2.5732 H   0  0  0  0  0  0  0  0  0  0  0  0
    3.0615   16.4368   -3.9415 H   0  0  0  0  0  0  0  0  0  0  0  0
    1.7325   17.6454   -3.9415 H   0  0  0  0  0  0  0  0  0  0  0  0
   -0.0804   15.5334   -4.0809 H   0  0  0  0  0  0  0  0  0  0  0  0
    1.6233   14.8798   -4.4038 H   0  0  0  0  0  0  0  0  0  0  0  0
   -0.5032   13.6878   -2.6021 H   0  0  0  0  0  0  0  0  0  0  0  0
    0.1826   13.0174   -4.1339 H   0  0  0  0  0  0  0  0  0  0  0  0
    3.6620   12.6642   -2.7996 H   0  0  0  0  0  0  0  0  0  0  0  0
    2.6096   11.8921   -4.0336 H   0  0  0  0  0  0  0  0  0  0  0  0
    2.8350   13.6742   -4.0336 H   0  0  0  0  0  0  0  0  0  0  0  0
  1  2  1  0
  2  3  1  0
  3  4  1  0
  4  5  1  0
  5  6  1  0
  6  7  1  0
  7  8  1  0
  7  9  1  0
  2 10  1  0
 10 11  1  0
 11 12  1  0
 12 13  1  0
 13 14  1  1
 13 15  1  0
 15 16  1  0
 16 17  1  0
 17 18  2  0
 18 19  1  0
 19 20  1  0
 20 21  1  0
 21 22  1  0
 22 23  1  0
 22 24  1  0
 24 25  1  0
 24 26  1  0
 19 27  1  0
 27 28  1  6
 27 29  1  0
 29 30  1  0
 30 31  1  0
 31 32  1  6
  7  5  1  0
 31 10  1  0
 31 13  1  0
 27 15  1  0
 24 18  1  0
  1 33  1  0
  1 34  1  0
  1 35  1  0
  2 36  1  6
  3 37  1  0
  3 38  1  0
  4 39  1  0
  4 40  1  0
  5 41  1  1
  8 42  1  0
  8 43  1  0
  8 44  1  0
  9 45  1  0
  9 46  1  0
  9 47  1  0
 10 48  1  1
 11 49  1  0
 11 50  1  0
 12 51  1  0
 12 52  1  0
 14 53  1  0
 14 54  1  0
 14 55  1  0
 15 56  1  6
 16 57  1  0
 16 58  1  0
 17 59  1  0
 19 60  1  1
 20 61  1  0
 20 62  1  0
 21 63  1  0
 21 64  1  0
 22 65  1  1
 23 66  1  0
 25 67  1  0
 25 68  1  0
 25 69  1  0
 26 70  1  0
 26 71  1  0
 26 72  1  0
 28 73  1  0
 28 74  1  0
 28 75  1  0
 29 76  1  0
 29 77  1  0
 30 78  1  0
 30 79  1  0
 32 80  1  0
 32 81  1  0
 32 82  1  0
M  END
>  <meeko>  (10) 
{"is_sidechain": [false], "intermolecular_energy": 2.731, "internal_energy": -0.839}

$$$$
EPH_relaxed_0001_pdb2pqr_Repair_101_r2_0001_out
     RDKit          3D

 82 86  0  0  0  0  0  0  0  0999 V2000
    3.5270   18.3780   -2.6720 C   0  0  0  0  0  0  0  0  0  0  0  0
    2.2160   17.6070   -2.8430 C   0  0  2  0  0  0  0  0  0  0  0  0
    0.9880   18.4550   -2.4560 C   0  0  0  0  0  0  0  0  0  0  0  0
    1.1380   19.1790   -1.1150 C   0  0  0  0  0  0  0  0  0  0  0  0
   -0.1070   19.9270   -0.7470 C   0  0  2  0  0  0  0  0  0  0  0  0
   -0.2520   20.1940    0.6540 O   0  0  0  0  0  0  0  0  0  0  0  0
   -1.2350   19.3240    0.0700 C   0  0  0  0  0  0  0  0  0  0  0  0
   -1.1710   17.9140    0.5660 C   0  0  0  0  0  0  0  0  0  0  0  0
   -2.5980   19.9360   -0.0320 C   0  0  0  0  0  0  0  0  0  0  0  0
    2.2510   16.3310   -2.0100 C   0  0  1  0  0  0  0  0  0  0  0  0
    2.4820   16.6080   -0.5010 C   0  0  0  0  0  0  0  0  0  0  0  0
    1.6670   15.5450    0.2790 C   0  0  0  0  0  0  0  0  0  0  0  0
    1.2680   14.4990   -0.7880 C   0  0  1  0  0  0  0  0  0  0  0  0
    2.5290   13.5940   -0.9540 C   0  0  0  0  0  0  0  0  0  0  0  0
   -0.0120   13.6550   -0.4830 C   0  0  2  0  0  0  0  0  0  0  0  0
    0.0740   12.7680    0.7710 C   0  0  0  0  0  0  0  0  0  0  0  0
    0.5890   11.3860    0.5410 C   0  0  0  0  0  0  0  0  0  0  0  0
    0.6990   10.7820   -0.6570 C   0  0  0  0  0  0  0  0  0  0  0  0
    0.1910   11.4650   -1.9330 C   0  0  1  0  0  0  0  0  0  0  0  0
   -0.6350   10.4520   -2.7690 C   0  0  0  0  0  0  0  0  0  0  0  0
    0.1350    9.1680   -3.0610 C   0  0  0  0  0  0  0  0  0  0  0  0
    0.5730    8.4880   -1.7670 C   0  0  2  0  0  0  0  0  0  0  0  0
   -0.5910    8.0290   -1.0710 O   0  0  0  0  0  0  0  0  0  0  0  0
    1.4050    9.4150   -0.8380 C   0  0  0  0  0  0  0  0  0  0  0  0
    2.7980    9.6680   -1.4680 C   0  0  0  0  0  0  0  0  0  0  0  0
    1.6610    8.6550    0.4910 C   0  0  0  0  0  0  0  0  0  0  0  0
   -0.5660   12.8460   -1.7260 C   0  0  1  0  0  0  0  0  0  0  0  0
   -2.0790   12.5880   -1.4500 C   0  0  0  0  0  0  0  0  0  0  0  0
   -0.4940   13.6780   -3.0610 C   0  0  0  0  0  0  0  0  0  0  0  0
    0.7370   14.5840   -3.2500 C   0  0  0  0  0  0  0  0  0  0  0  0
    0.9780   15.4480   -2.0080 C   0  0  2  0  0  0  0  0  0  0  0  0
   -0.2650   16.3850   -1.8280 C   0  0  0  0  0  0  0  0  0  0  0  0
    3.7412   18.5040   -1.6004 H   0  0  0  0  0  0  0  0  0  0  0  0
    4.3463   17.8179   -3.1463 H   0  0  0  0  0  0  0  0  0  0  0  0
    3.4357   19.3663   -3.1463 H   0  0  0  0  0  0  0  0  0  0  0  0
    2.1187   17.3530   -3.9088 H   0  0  0  0  0  0  0  0  0  0  0  0
    0.8247   19.2081   -3.2409 H   0  0  0  0  0  0  0  0  0  0  0  0
    0.1386   17.7634   -2.3548 H   0  0  0  0  0  0  0  0  0  0  0  0
    1.3531   18.4374   -0.3316 H   0  0  0  0  0  0  0  0  0  0  0  0
    1.9596   19.9047   -1.2070 H   0  0  0  0  0  0  0  0  0  0  0  0
   -0.0968   20.4639   -1.7070 H   0  0  0  0  0  0  0  0  0  0  0  0
   -1.1709   17.9119    1.6660 H   0  0  0  0  0  0  0  0  0  0  0  0
   -2.0447   17.3560    0.1983 H   0  0  0  0  0  0  0  0  0  0  0  0
   -0.2503   17.4374    0.1983 H   0  0  0  0  0  0  0  0  0  0  0  0
   -2.9962   20.1148    0.9777 H   0  0  0  0  0  0  0  0  0  0  0  0
   -2.5316   20.8907   -0.5743 H   0  0  0  0  0  0  0  0  0  0  0  0
   -3.2674   19.2520   -0.5743 H   0  0  0  0  0  0  0  0  0  0  0  0
    3.0737   15.8039   -2.5154 H   0  0  0  0  0  0  0  0  0  0  0  0
    3.5512   16.5182   -0.2588 H   0  0  0  0  0  0  0  0  0  0  0  0
    2.1621   17.6257   -0.2329 H   0  0  0  0  0  0  0  0  0  0  0  0
    2.2830   15.0829    1.0645 H   0  0  0  0  0  0  0  0  0  0  0  0
    0.7922   15.9790    0.7853 H   0  0  0  0  0  0  0  0  0  0  0  0
    2.9148   13.3171    0.0382 H   0  0  0  0  0  0  0  0  0  0  0  0
    2.2567   12.6839   -1.5086 H   0  0  0  0  0  0  0  0  0  0  0  0
    3.3041   14.1432   -1.5086 H   0  0  0  0  0  0  0  0  0  0  0  0
   -0.7556   14.4311   -0.2490 H   0  0  0  0  0  0  0  0  0  0  0  0
    0.7405   13.2633    1.4925 H   0  0  0  0  0  0  0  0  0  0  0  0
   -0.9584   12.6515    1.1324 H   0  0  0  0  0  0  0  0  0  0  0  0
    0.9053   10.8128    1.4250 H   0  0  0  0  0  0  0  0  0  0  0  0
    1.0879   11.7677   -2.4933 H   0  0  0  0  0  0  0  0  0  0  0  0
   -1.5480   10.1964   -2.2113 H   0  0  0  0  0  0  0  0  0  0  0  0
   -0.8687   10.9273   -3.7331 H   0  0  0  0  0  0  0  0  0  0  0  0
   -0.5115    8.4815   -3.6274 H   0  0  0  0  0  0  0  0  0  0  0  0
    1.0319    9.4218   -3.6451 H   0  0  0  0  0  0  0  0  0  0  0  0
    1.2294    7.6490   -2.0414 H   0  0  0  0  0  0  0  0  0  0  0  0
   -0.5500    8.3820   -0.1660 H   0  0  0  0  0  0  0  0  0  0  0  0
    3.5424    9.8032   -0.6695 H   0  0  0  0  0  0  0  0  0  0  0  0
    3.0807    8.8065   -2.0908 H   0  0  0  0  0  0  0  0  0  0  0  0
    2.7597   10.5739   -2.0908 H   0  0  0  0  0  0  0  0  0  0  0  0
    1.4380    9.3170    1.3408 H   0  0  0  0  0  0  0  0  0  0  0  0
    1.0120    7.7680    0.5370 H   0  0  0  0  0  0  0  0  0  0  0  0
    2.7144    8.3414    0.5370 H   0  0  0  0  0  0  0  0  0  0  0  0
   -2.2538   12.5582   -0.3644 H   0  0  0  0  0  0  0  0  0  0  0  0
   -2.6762   13.3973   -1.8955 H   0  0  0  0  0  0  0  0  0  0  0  0
   -2.3742   11.6265   -1.8955 H   0  0  0  0  0  0  0  0  0  0  0  0
   -0.5142   12.9653   -3.8986 H   0  0  0  0  0  0  0  0  0  0  0  0
   -1.3524   14.3645   -3.0185 H   0  0  0  0  0  0  0  0  0  0  0  0
    1.6221   13.9558   -3.4286 H   0  0  0  0  0  0  0  0  0  0  0  0
    0.5558   15.2471   -4.1087 H   0  0  0  0  0  0  0  0  0  0  0  0
   -0.4607   16.5325   -0.7557 H   0  0  0  0  0  0  0  0  0  0  0  0
   -0.0628   17.3573   -2.3010 H   0  0  0  0  0  0  0  0  0  0  0  0
   -1.1441   15.9229   -2.3010 H   0  0  0  0  0  0  0  0  0  0  0  0
  1  2  1  0
  2  3  1  0
  3  4  1  0
  4  5  1  0
  5  6  1  0
  6  7  1  0
  7  8  1  0
  7  9  1  0
  2 10  1  0
 10 11  1  0
 11 12  1  0
 12 13  1  0
 13 14  1  6
 13 15  1  0
 15 16  1  0
 16 17  1  0
 17 18  2  0
 18 19  1  0
 19 20  1  0
 20 21  1  0
 21 22  1  0
 22 23  1  0
 22 24  1  0
 24 25  1  0
 24 26  1  0
 19 27  1  0
 27 28  1  1
 27 29  1  0
 29 30  1  0
 30 31  1  0
 31 32  1  1
  7  5  1  0
 31 10  1  0
 31 13  1  0
 27 15  1  0
 24 18  1  0
  1 33  1  0
  1 34  1  0
  1 35  1  0
  2 36  1  6
  3 37  1  0
  3 38  1  0
  4 39  1  0
  4 40  1  0
  5 41  1  6
  8 42  1  0
  8 43  1  0
  8 44  1  0
  9 45  1  0
  9 46  1  0
  9 47  1  0
 10 48  1  6
 11 49  1  0
 11 50  1  0
 12 51  1  0
 12 52  1  0
 14 53  1  0
 14 54  1  0
 14 55  1  0
 15 56  1  1
 16 57  1  0
 16 58  1  0
 17 59  1  0
 19 60  1  6
 20 61  1  0
 20 62  1  0
 21 63  1  0
 21 64  1  0
 22 65  1  6
 23 66  1  0
 25 67  1  0
 25 68  1  0
 25 69  1  0
 26 70  1  0
 26 71  1  0
 26 72  1  0
 28 73  1  0
 28 74  1  0
 28 75  1  0
 29 76  1  0
 29 77  1  0
 30 78  1  0
 30 79  1  0
 32 80  1  0
 32 81  1  0
 32 82  1  0
M  END
>  <meeko>  (11) 
{"is_sidechain": [false], "intermolecular_energy": 2.731, "internal_energy": -0.839}

$$$$
EPH_relaxed_0001_pdb2pqr_Repair_101_r2_0001_out
     RDKit          3D

 82 86  0  0  0  0  0  0  0  0999 V2000
   -3.0950   10.9080   -1.3290 C   0  0  0  0  0  0  0  0  0  0  0  0
   -1.6020   10.5710   -1.3080 C   0  0  2  0  0  0  0  0  0  0  0  0
   -1.3070    9.2890   -0.5040 C   0  0  0  0  0  0  0  0  0  0  0  0
   -2.2610    8.1330   -0.8170 C   0  0  0  0  0  0  0  0  0  0  0  0
   -3.6890    8.5050   -0.5510 C   0  0  2  0  0  0  0  0  0  0  0  0
   -4.4550    7.4970    0.1210 O   0  0  0  0  0  0  0  0  0  0  0  0
   -4.8690    7.8220   -1.2160 C   0  0  0  0  0  0  0  0  0  0  0  0
   -4.6750    6.7120   -2.2000 C   0  0  0  0  0  0  0  0  0  0  0  0
   -6.1740    8.5530   -1.2820 C   0  0  0  0  0  0  0  0  0  0  0  0
   -0.8140   11.7410   -0.7300 C   0  0  1  0  0  0  0  0  0  0  0  0
    0.3750   11.2810    0.1560 C   0  0  0  0  0  0  0  0  0  0  0  0
    1.5160   12.3090   -0.0570 C   0  0  0  0  0  0  0  0  0  0  0  0
    0.8410   13.4940   -0.7880 C   0  0  1  0  0  0  0  0  0  0  0  0
    0.1420   14.3150    0.3400 C   0  0  0  0  0  0  0  0  0  0  0  0
    1.7790   14.3920   -1.6590 C   0  0  2  0  0  0  0  0  0  0  0  0
    2.8860   15.1260   -0.8830 C   0  0  0  0  0  0  0  0  0  0  0  0
    2.5200   16.4830   -0.3790 C   0  0  0  0  0  0  0  0  0  0  0  0
    1.4590   17.2060   -0.7810 C   0  0  0  0  0  0  0  0  0  0  0  0
    0.5490   16.7080   -1.9110 C   0  0  1  0  0  0  0  0  0  0  0  0
    0.2810   17.8660   -2.9090 C   0  0  0  0  0  0  0  0  0  0  0  0
   -0.2690   19.1130   -2.2240 C   0  0  0  0  0  0  0  0  0  0  0  0
    0.6910   19.6110   -1.1460 C   0  0  2  0  0  0  0  0  0  0  0  0
    1.8900   20.0760   -1.7750 O   0  0  0  0  0  0  0  0  0  0  0  0
    1.0420   18.5270   -0.0890 C   0  0  0  0  0  0  0  0  0  0  0  0
   -0.1970   18.2430    0.7960 C   0  0  0  0  0  0  0  0  0  0  0  0
    2.1250   19.1150    0.8560 C   0  0  0  0  0  0  0  0  0  0  0  0
    1.0120   15.3720   -2.6370 C   0  0  1  0  0  0  0  0  0  0  0  0
    2.0010   15.7110   -3.7940 C   0  0  0  0  0  0  0  0  0  0  0  0
   -0.2390   14.6910   -3.3070 C   0  0  0  0  0  0  0  0  0  0  0  0
   -1.0560   13.7220   -2.4310 C   0  0  0  0  0  0  0  0  0  0  0  0
   -0.1410   12.7110   -1.7330 C   0  0  2  0  0  0  0  0  0  0  0  0
    0.5600   11.8550   -2.8430 C   0  0  0  0  0  0  0  0  0  0  0  0
   -3.4665   10.9919   -0.2970 H   0  0  0  0  0  0  0  0  0  0  0  0
   -3.2479   11.8633   -1.8525 H   0  0  0  0  0  0  0  0  0  0  0  0
   -3.6435   10.1111   -1.8525 H   0  0  0  0  0  0  0  0  0  0  0  0
   -1.2892   10.3882   -2.3466 H   0  0  0  0  0  0  0  0  0  0  0  0
   -0.2811    8.9642   -0.7323 H   0  0  0  0  0  0  0  0  0  0  0  0
   -1.4416    9.5381    0.5589 H   0  0  0  0  0  0  0  0  0  0  0  0
   -2.1552    7.8606   -1.8775 H   0  0  0  0  0  0  0  0  0  0  0  0
   -1.9999    7.2866   -0.1647 H   0  0  0  0  0  0  0  0  0  0  0  0
   -3.4168    9.5650   -0.4399 H   0  0  0  0  0  0  0  0  0  0  0  0
   -4.5100    5.7680   -1.6600 H   0  0  0  0  0  0  0  0  0  0  0  0
   -5.5709    6.6213   -2.8318 H   0  0  0  0  0  0  0  0  0  0  0  0
   -3.8014    6.9306   -2.8318 H   0  0  0  0  0  0  0  0  0  0  0  0
   -6.5335    8.7544   -0.2621 H   0  0  0  0  0  0  0  0  0  0  0  0
   -6.0347    9.5044   -1.8162 H   0  0  0  0  0  0  0  0  0  0  0  0
   -6.9126    7.9373   -1.8162 H   0  0  0  0  0  0  0  0  0  0  0  0
   -1.6216   12.2582   -0.1912 H   0  0  0  0  0  0  0  0  0  0  0  0
    0.0742   11.2629    1.2139 H   0  0  0  0  0  0  0  0  0  0  0  0
    0.7015   10.2666   -0.1169 H   0  0  0  0  0  0  0  0  0  0  0  0
    1.9314   12.6339    0.9083 H   0  0  0  0  0  0  0  0  0  0  0  0
    2.3554   11.8884   -0.6302 H   0  0  0  0  0  0  0  0  0  0  0  0
    0.4637   13.9371    1.3217 H   0  0  0  0  0  0  0  0  0  0  0  0
    0.4186   15.3756    0.2467 H   0  0  0  0  0  0  0  0  0  0  0  0
   -0.9491   14.2111    0.2467 H   0  0  0  0  0  0  0  0  0  0  0  0
    2.2961   13.6522   -2.2877 H   0  0  0  0  0  0  0  0  0  0  0  0
    3.1631   14.5056   -0.0180 H   0  0  0  0  0  0  0  0  0  0  0  0
    3.7082   15.2786   -1.5976 H   0  0  0  0  0  0  0  0  0  0  0  0
    3.1730   16.9293    0.3855 H   0  0  0  0  0  0  0  0  0  0  0  0
   -0.3926   16.4035   -1.4307 H   0  0  0  0  0  0  0  0  0  0  0  0
    1.2255   18.1261   -3.4093 H   0  0  0  0  0  0  0  0  0  0  0  0
   -0.4757   17.5188   -3.6279 H   0  0  0  0  0  0  0  0  0  0  0  0
   -0.4089   19.9044   -2.9751 H   0  0  0  0  0  0  0  0  0  0  0  0
   -1.2286   18.8591   -1.7499 H   0  0  0  0  0  0  0  0  0  0  0  0
    0.1852   20.4241   -0.6047 H   0  0  0  0  0  0  0  0  0  0  0  0
    1.8570   21.0470   -1.7900 H   0  0  0  0  0  0  0  0  0  0  0  0
    0.0873   18.3082    1.8566 H   0  0  0  0  0  0  0  0  0  0  0  0
   -0.9798   18.9850    0.5799 H   0  0  0  0  0  0  0  0  0  0  0  0
   -0.5784   17.2341    0.5799 H   0  0  0  0  0  0  0  0  0  0  0  0
    1.8261   18.9527    1.9021 H   0  0  0  0  0  0  0  0  0  0  0  0
    3.0866   18.6151    0.6676 H   0  0  0  0  0  0  0  0  0  0  0  0
    2.2295   20.1937    0.6676 H   0  0  0  0  0  0  0  0  0  0  0  0
    2.9614   16.0402   -3.3707 H   0  0  0  0  0  0  0  0  0  0  0  0
    2.1608   14.8163   -4.4137 H   0  0  0  0  0  0  0  0  0  0  0  0
    1.5784   16.5156   -4.4137 H   0  0  0  0  0  0  0  0  0  0  0  0
   -0.9165   15.4921   -3.6377 H   0  0  0  0  0  0  0  0  0  0  0  0
    0.1713   14.0699   -4.1169 H   0  0  0  0  0  0  0  0  0  0  0  0
   -1.6024   14.2984   -1.6699 H   0  0  0  0  0  0  0  0  0  0  0  0
   -1.7584   13.1732   -3.0756 H   0  0  0  0  0  0  0  0  0  0  0  0
    1.1894   11.0865   -2.3705 H   0  0  0  0  0  0  0  0  0  0  0  0
   -0.2036   11.3698   -3.4688 H   0  0  0  0  0  0  0  0  0  0  0  0
    1.1862   12.5079   -3.4688 H   0  0  0  0  0  0  0  0  0  0  0  0
  1  2  1  0
  2  3  1  0
  3  4  1  0
  4  5  1  0
  5  6  1  0
  6  7  1  0
  7  8  1  0
  7  9  1  0
  2 10  1  0
 10 11  1  0
 11 12  1  0
 12 13  1  0
 13 14  1  1
 13 15  1  0
 15 16  1  0
 16 17  1  0
 17 18  2  0
 18 19  1  0
 19 20  1  0
 20 21  1  0
 21 22  1  0
 22 23  1  0
 22 24  1  0
 24 25  1  0
 24 26  1  0
 19 27  1  0
 27 28  1  6
 27 29  1  0
 29 30  1  0
 30 31  1  0
 31 32  1  6
  7  5  1  0
 31 10  1  0
 31 13  1  0
 27 15  1  0
 24 18  1  0
  1 33  1  0
  1 34  1  0
  1 35  1  0
  2 36  1  6
  3 37  1  0
  3 38  1  0
  4 39  1  0
  4 40  1  0
  5 41  1  1
  8 42  1  0
  8 43  1  0
  8 44  1  0
  9 45  1  0
  9 46  1  0
  9 47  1  0
 10 48  1  1
 11 49  1  0
 11 50  1  0
 12 51  1  0
 12 52  1  0
 14 53  1  0
 14 54  1  0
 14 55  1  0
 15 56  1  6
 16 57  1  0
 16 58  1  0
 17 59  1  0
 19 60  1  1
 20 61  1  0
 20 62  1  0
 21 63  1  0
 21 64  1  0
 22 65  1  1
 23 66  1  0
 25 67  1  0
 25 68  1  0
 25 69  1  0
 26 70  1  0
 26 71  1  0
 26 72  1  0
 28 73  1  0
 28 74  1  0
 28 75  1  0
 29 76  1  0
 29 77  1  0
 30 78  1  0
 30 79  1  0
 32 80  1  0
 32 81  1  0
 32 82  1  0
M  END
>  <meeko>  (12) 
{"is_sidechain": [false], "intermolecular_energy": 2.731, "internal_energy": -0.839}

$$$$
EPH_relaxed_0001_pdb2pqr_Repair_101_r2_0001_out
     RDKit          3D

 82 86  0  0  0  0  0  0  0  0999 V2000
   -0.2600   14.9750   -7.6670 C   0  0  0  0  0  0  0  0  0  0  0  0
    1.1020   15.0210   -6.9680 C   0  0  2  0  0  0  0  0  0  0  0  0
    2.2660   15.1390   -7.9720 C   0  0  0  0  0  0  0  0  0  0  0  0
    2.2850   16.4640   -8.7390 C   0  0  0  0  0  0  0  0  0  0  0  0
    1.8810   16.2810  -10.1710 C   0  0  2  0  0  0  0  0  0  0  0  0
    1.2100   15.0460  -10.4500 O   0  0  0  0  0  0  0  0  0  0  0  0
    2.4860   15.2310  -11.0830 C   0  0  0  0  0  0  0  0  0  0  0  0
    3.5470   14.2930  -10.5980 C   0  0  0  0  0  0  0  0  0  0  0  0
    2.4010   15.4340  -12.5640 C   0  0  0  0  0  0  0  0  0  0  0  0
    1.2840   13.7800   -6.1020 C   0  0  1  0  0  0  0  0  0  0  0  0
    2.7400   13.2440   -6.1260 C   0  0  0  0  0  0  0  0  0  0  0  0
    3.0320   12.6790   -4.7120 C   0  0  0  0  0  0  0  0  0  0  0  0
    1.6470   12.6050   -4.0280 C   0  0  1  0  0  0  0  0  0  0  0  0
    1.0070   11.2840   -4.5600 C   0  0  0  0  0  0  0  0  0  0  0  0
    1.6440   12.6580   -2.4650 C   0  0  2  0  0  0  0  0  0  0  0  0
    2.3710   11.4940   -1.7710 C   0  0  0  0  0  0  0  0  0  0  0  0
    1.5190   10.3100   -1.4520 C   0  0  0  0  0  0  0  0  0  0  0  0
    0.1730   10.2920   -1.4510 C   0  0  0  0  0  0  0  0  0  0  0  0
   -0.6320   11.5750   -1.6990 C   0  0  1  0  0  0  0  0  0  0  0  0
   -1.7630   11.6870   -0.6430 C   0  0  0  0  0  0  0  0  0  0  0  0
   -2.6460   10.4440   -0.5970 C   0  0  0  0  0  0  0  0  0  0  0  0
   -1.8190    9.1980   -0.2920 C   0  0  2  0  0  0  0  0  0  0  0  0
   -1.3110    9.2980    1.0430 O   0  0  0  0  0  0  0  0  0  0  0  0
   -0.6420    8.9860   -1.2840 C   0  0  0  0  0  0  0  0  0  0  0  0
   -1.1980    8.5790   -2.6710 C   0  0  0  0  0  0  0  0  0  0  0  0
    0.1950    7.7790   -0.7810 C   0  0  0  0  0  0  0  0  0  0  0  0
    0.2170   12.9120   -1.8280 C   0  0  1  0  0  0  0  0  0  0  0  0
    0.4630   13.5250   -0.4160 C   0  0  0  0  0  0  0  0  0  0  0  0
   -0.6180   13.9750   -2.6350 C   0  0  0  0  0  0  0  0  0  0  0  0
   -0.4800   13.9480   -4.1690 C   0  0  0  0  0  0  0  0  0  0  0  0
    0.9930   13.9210   -4.5870 C   0  0  2  0  0  0  0  0  0  0  0  0
    1.6580   15.2480   -4.0840 C   0  0  0  0  0  0  0  0  0  0  0  0
   -1.0591   14.9480   -6.9116 H   0  0  0  0  0  0  0  0  0  0  0  0
   -0.3799   15.8696   -8.2957 H   0  0  0  0  0  0  0  0  0  0  0  0
   -0.3192   14.0743   -8.2957 H   0  0  0  0  0  0  0  0  0  0  0  0
    1.1194   15.9209   -6.3356 H   0  0  0  0  0  0  0  0  0  0  0  0
    3.2123   15.0440   -7.4193 H   0  0  0  0  0  0  0  0  0  0  0  0
    2.1320   14.3392   -8.7152 H   0  0  0  0  0  0  0  0  0  0  0  0
    1.5863   17.1644   -8.2581 H   0  0  0  0  0  0  0  0  0  0  0  0
    3.3123   16.8569   -8.7198 H   0  0  0  0  0  0  0  0  0  0  0  0
    1.7297   17.3639  -10.2914 H   0  0  0  0  0  0  0  0  0  0  0  0
    3.5551   14.2858   -9.4981 H   0  0  0  0  0  0  0  0  0  0  0  0
    3.3379   13.2791  -10.9698 H   0  0  0  0  0  0  0  0  0  0  0  0
    4.5276   14.6248  -10.9698 H   0  0  0  0  0  0  0  0  0  0  0  0
    1.9840   16.4299  -12.7742 H   0  0  0  0  0  0  0  0  0  0  0  0
    3.4067   15.3575  -13.0029 H   0  0  0  0  0  0  0  0  0  0  0  0
    1.7498   14.6637  -13.0029 H   0  0  0  0  0  0  0  0  0  0  0  0
    0.5385   13.1187   -6.5678 H   0  0  0  0  0  0  0  0  0  0  0  0
    2.8385   12.4487   -6.8795 H   0  0  0  0  0  0  0  0  0  0  0  0
    3.4505   14.0422   -6.3868 H   0  0  0  0  0  0  0  0  0  0  0  0
    3.4858   11.6792   -4.7794 H   0  0  0  0  0  0  0  0  0  0  0  0
    3.7415   13.3049   -4.1509 H   0  0  0  0  0  0  0  0  0  0  0  0
    0.7026   10.6557   -3.7099 H   0  0  0  0  0  0  0  0  0  0  0  0
    0.1255   11.5244   -5.1725 H   0  0  0  0  0  0  0  0  0  0  0  0
    1.7420   10.7412   -5.1725 H   0  0  0  0  0  0  0  0  0  0  0  0
    2.2496   13.5527   -2.2580 H   0  0  0  0  0  0  0  0  0  0  0  0
    3.1847   11.1593   -2.4313 H   0  0  0  0  0  0  0  0  0  0  0  0
    2.7211   11.8864   -0.8048 H   0  0  0  0  0  0  0  0  0  0  0  0
    2.0351    9.3729   -1.1961 H   0  0  0  0  0  0  0  0  0  0  0  0
   -1.0674   11.4725   -2.7039 H   0  0  0  0  0  0  0  0  0  0  0  0
   -1.3073   11.8326    0.3475 H   0  0  0  0  0  0  0  0  0  0  0  0
   -2.3998   12.5385   -0.9250 H   0  0  0  0  0  0  0  0  0  0  0  0
   -3.4069   10.5718    0.1871 H   0  0  0  0  0  0  0  0  0  0  0  0
   -3.1237   10.3163   -1.5796 H   0  0  0  0  0  0  0  0  0  0  0  0
   -2.4817    8.3269   -0.4013 H   0  0  0  0  0  0  0  0  0  0  0  0
   -2.0640    9.4790    1.6310 H   0  0  0  0  0  0  0  0  0  0  0  0
   -2.0791    7.9340   -2.5380 H   0  0  0  0  0  0  0  0  0  0  0  0
   -1.4854    9.4817   -3.2301 H   0  0  0  0  0  0  0  0  0  0  0  0
   -0.4244    8.0322   -3.2301 H   0  0  0  0  0  0  0  0  0  0  0  0
    0.2012    7.7701    0.3189 H   0  0  0  0  0  0  0  0  0  0  0  0
   -0.2496    6.8441   -1.1528 H   0  0  0  0  0  0  0  0  0  0  0  0
    1.2265    7.8677   -1.1528 H   0  0  0  0  0  0  0  0  0  0  0  0
    0.1710   12.7974    0.3556 H   0  0  0  0  0  0  0  0  0  0  0  0
    1.5293   13.7706   -0.3036 H   0  0  0  0  0  0  0  0  0  0  0  0
   -0.1377   14.4396   -0.3036 H   0  0  0  0  0  0  0  0  0  0  0  0
   -1.6795   13.8172   -2.3936 H   0  0  0  0  0  0  0  0  0  0  0  0
   -0.2152   14.9512   -2.3271 H   0  0  0  0  0  0  0  0  0  0  0  0
   -0.9813   13.0501   -4.5595 H   0  0  0  0  0  0  0  0  0  0  0  0
   -0.9440   14.8573   -4.5787 H   0  0  0  0  0  0  0  0  0  0  0  0
    1.6645   15.2609   -2.9841 H   0  0  0  0  0  0  0  0  0  0  0  0
    2.6911   15.3049   -4.4574 H   0  0  0  0  0  0  0  0  0  0  0  0
    1.0852   16.1096   -4.4574 H   0  0  0  0  0  0  0  0  0  0  0  0
  1  2  1  0
  2  3  1  0
  3  4  1  0
  4  5  1  0
  5  6  1  0
  6  7  1  0
  7  8  1  0
  7  9  1  0
  2 10  1  0
 10 11  1  0
 11 12  1  0
 12 13  1  0
 13 14  1  1
 13 15  1  0
 15 16  1  0
 16 17  1  0
 17 18  2  0
 18 19  1  0
 19 20  1  0
 20 21  1  0
 21 22  1  0
 22 23  1  0
 22 24  1  0
 24 25  1  0
 24 26  1  0
 19 27  1  0
 27 28  1  1
 27 29  1  0
 29 30  1  0
 30 31  1  0
 31 32  1  1
  7  5  1  0
 31 10  1  0
 31 13  1  0
 27 15  1  0
 24 18  1  0
  1 33  1  0
  1 34  1  0
  1 35  1  0
  2 36  1  1
  3 37  1  0
  3 38  1  0
  4 39  1  0
  4 40  1  0
  5 41  1  6
  8 42  1  0
  8 43  1  0
  8 44  1  0
  9 45  1  0
  9 46  1  0
  9 47  1  0
 10 48  1  6
 11 49  1  0
 11 50  1  0
 12 51  1  0
 12 52  1  0
 14 53  1  0
 14 54  1  0
 14 55  1  0
 15 56  1  6
 16 57  1  0
 16 58  1  0
 17 59  1  0
 19 60  1  6
 20 61  1  0
 20 62  1  0
 21 63  1  0
 21 64  1  0
 22 65  1  1
 23 66  1  0
 25 67  1  0
 25 68  1  0
 25 69  1  0
 26 70  1  0
 26 71  1  0
 26 72  1  0
 28 73  1  0
 28 74  1  0
 28 75  1  0
 29 76  1  0
 29 77  1  0
 30 78  1  0
 30 79  1  0
 32 80  1  0
 32 81  1  0
 32 82  1  0
M  END
>  <meeko>  (13) 
{"is_sidechain": [false], "intermolecular_energy": 2.731, "internal_energy": -0.839}

$$$$
EPH_relaxed_0001_pdb2pqr_Repair_101_r2_0001_out
     RDKit          3D

 82 86  0  0  0  0  0  0  0  0999 V2000
   -1.8810    7.8560   -1.9360 C   0  0  0  0  0  0  0  0  0  0  0  0
   -1.9420    8.5340   -0.5640 C   0  0  2  0  0  0  0  0  0  0  0  0
   -3.3620    8.5040    0.0360 C   0  0  0  0  0  0  0  0  0  0  0  0
   -4.4710    8.7140   -0.9980 C   0  0  0  0  0  0  0  0  0  0  0  0
   -5.3310    7.4950   -1.1440 C   0  0  2  0  0  0  0  0  0  0  0  0
   -5.3150    6.9040   -2.4500 O   0  0  0  0  0  0  0  0  0  0  0  0
   -6.5730    7.4460   -2.0150 C   0  0  0  0  0  0  0  0  0  0  0  0
   -7.0240    8.6400   -2.7970 C   0  0  0  0  0  0  0  0  0  0  0  0
   -7.6100    6.4070   -1.7250 C   0  0  0  0  0  0  0  0  0  0  0  0
   -1.4520    9.9730   -0.6720 C   0  0  1  0  0  0  0  0  0  0  0  0
   -1.0110   10.5590    0.6950 C   0  0  0  0  0  0  0  0  0  0  0  0
    0.1840   11.5050    0.4120 C   0  0  0  0  0  0  0  0  0  0  0  0
    0.1780   11.6910   -1.1240 C   0  0  1  0  0  0  0  0  0  0  0  0
   -0.9090   12.7780   -1.3920 C   0  0  0  0  0  0  0  0  0  0  0  0
    1.5460   12.0700   -1.7790 C   0  0  2  0  0  0  0  0  0  0  0  0
    2.1350   13.4180   -1.3280 C   0  0  0  0  0  0  0  0  0  0  0  0
    1.7340   14.5960   -2.1510 C   0  0  0  0  0  0  0  0  0  0  0  0
    1.1690   14.5420   -3.3720 C   0  0  0  0  0  0  0  0  0  0  0  0
    0.9670   13.2000   -4.0870 C   0  0  1  0  0  0  0  0  0  0  0  0
    1.4400   13.3210   -5.5590 C   0  0  0  0  0  0  0  0  0  0  0  0
    0.7740   14.4800   -6.2940 C   0  0  0  0  0  0  0  0  0  0  0  0
    1.0460   15.8040   -5.5850 C   0  0  2  0  0  0  0  0  0  0  0  0
    2.4420   16.1030   -5.6850 O   0  0  0  0  0  0  0  0  0  0  0  0
    0.6190   15.7980   -4.0910 C   0  0  0  0  0  0  0  0  0  0  0  0
   -0.9270   15.7770   -3.9910 C   0  0  0  0  0  0  0  0  0  0  0  0
    1.0760   17.1400   -3.4580 C   0  0  0  0  0  0  0  0  0  0  0  0
    1.5720   11.9260   -3.3540 C   0  0  1  0  0  0  0  0  0  0  0  0
    3.0660   11.7390   -3.7600 C   0  0  0  0  0  0  0  0  0  0  0  0
    0.8130   10.6390   -3.8500 C   0  0  0  0  0  0  0  0  0  0  0  0
   -0.4670   10.2490   -3.0870 C   0  0  0  0  0  0  0  0  0  0  0  0
   -0.2220   10.2390   -1.5750 C   0  0  2  0  0  0  0  0  0  0  0  0
    0.8520    9.1400   -1.2720 C   0  0  0  0  0  0  0  0  0  0  0  0
   -1.7831    6.7684   -1.8035 H   0  0  0  0  0  0  0  0  0  0  0  0
   -2.8026    8.0758   -2.4949 H   0  0  0  0  0  0  0  0  0  0  0  0
   -1.0135    8.2368   -2.4949 H   0  0  0  0  0  0  0  0  0  0  0  0
   -1.2855    7.9684    0.1135 H   0  0  0  0  0  0  0  0  0  0  0  0
   -3.5155    7.5264    0.5164 H   0  0  0  0  0  0  0  0  0  0  0  0
   -3.4268    9.3375    0.7509 H   0  0  0  0  0  0  0  0  0  0  0  0
   -5.1003    9.5581   -0.6794 H   0  0  0  0  0  0  0  0  0  0  0  0
   -3.9990    8.9191   -1.9702 H   0  0  0  0  0  0  0  0  0  0  0  0
   -5.1545    7.2162   -0.0947 H   0  0  0  0  0  0  0  0  0  0  0  0
   -7.3259    9.4393   -2.1042 H   0  0  0  0  0  0  0  0  0  0  0  0
   -6.1985    8.9964   -3.4307 H   0  0  0  0  0  0  0  0  0  0  0  0
   -7.8790    8.3617   -3.4307 H   0  0  0  0  0  0  0  0  0  0  0  0
   -7.7221    6.2947   -0.6365 H   0  0  0  0  0  0  0  0  0  0  0  0
   -8.5708    6.7157   -2.1627 H   0  0  0  0  0  0  0  0  0  0  0  0
   -7.2994    5.4468   -2.1627 H   0  0  0  0  0  0  0  0  0  0  0  0
   -2.3472   10.4399   -1.1085 H   0  0  0  0  0  0  0  0  0  0  0  0
   -1.8393   11.1211    1.1510 H   0  0  0  0  0  0  0  0  0  0  0  0
   -0.7244    9.7590    1.3935 H   0  0  0  0  0  0  0  0  0  0  0  0
    0.0443   12.4702    0.9208 H   0  0  0  0  0  0  0  0  0  0  0  0
    1.1367   11.0957    0.7793 H   0  0  0  0  0  0  0  0  0  0  0  0
   -1.2904   13.1594   -0.4333 H   0  0  0  0  0  0  0  0  0  0  0  0
   -0.4664   13.6055   -1.9658 H   0  0  0  0  0  0  0  0  0  0  0  0
   -1.7365   12.3354   -1.9658 H   0  0  0  0  0  0  0  0  0  0  0  0
    2.2210   11.3002   -1.3767 H   0  0  0  0  0  0  0  0  0  0  0  0
    1.8116   13.6008   -0.2926 H   0  0  0  0  0  0  0  0  0  0  0  0
    3.2255   13.3261   -1.4393 H   0  0  0  0  0  0  0  0  0  0  0  0
    1.9153   15.5934   -1.7240 H   0  0  0  0  0  0  0  0  0  0  0  0
   -0.1142   12.9998   -4.0581 H   0  0  0  0  0  0  0  0  0  0  0  0
    2.5288   13.4770   -5.5678 H   0  0  0  0  0  0  0  0  0  0  0  0
    1.1599   12.3920   -6.0772 H   0  0  0  0  0  0  0  0  0  0  0  0
    1.1709   14.5321   -7.3186 H   0  0  0  0  0  0  0  0  0  0  0  0
   -0.3122   14.3073   -6.3106 H   0  0  0  0  0  0  0  0  0  0  0  0
    0.4383   16.5746   -6.0819 H   0  0  0  0  0  0  0  0  0  0  0  0
    2.8140   16.0710   -4.7880 H   0  0  0  0  0  0  0  0  0  0  0  0
   -1.2259   15.7729   -2.9324 H   0  0  0  0  0  0  0  0  0  0  0  0
   -1.3385   16.6696   -4.4848 H   0  0  0  0  0  0  0  0  0  0  0  0
   -1.3141   14.8735   -4.4848 H   0  0  0  0  0  0  0  0  0  0  0  0
    1.0476   17.0567   -2.3615 H   0  0  0  0  0  0  0  0  0  0  0  0
    2.1023   17.3675   -3.7820 H   0  0  0  0  0  0  0  0  0  0  0  0
    0.4019   17.9466   -3.7820 H   0  0  0  0  0  0  0  0  0  0  0  0
    3.6852   11.6615   -2.8541 H   0  0  0  0  0  0  0  0  0  0  0  0
    3.1718   10.8206   -4.3561 H   0  0  0  0  0  0  0  0  0  0  0  0
    3.3949   12.6030   -4.3561 H   0  0  0  0  0  0  0  0  0  0  0  0
    0.5366   10.8007   -4.9024 H   0  0  0  0  0  0  0  0  0  0  0  0
    1.5137    9.8084   -3.6792 H   0  0  0  0  0  0  0  0  0  0  0  0
   -1.2595   10.9759   -3.3184 H   0  0  0  0  0  0  0  0  0  0  0  0
   -0.7682    9.2385   -3.4004 H   0  0  0  0  0  0  0  0  0  0  0  0
    0.9632    9.0262   -0.1836 H   0  0  0  0  0  0  0  0  0  0  0  0
    0.5312    8.1832   -1.7098 H   0  0  0  0  0  0  0  0  0  0  0  0
    1.8159    9.4387   -1.7098 H   0  0  0  0  0  0  0  0  0  0  0  0
  1  2  1  0
  2  3  1  0
  3  4  1  0
  4  5  1  0
  5  6  1  0
  6  7  1  0
  7  8  1  0
  7  9  1  0
  2 10  1  0
 10 11  1  0
 11 12  1  0
 12 13  1  0
 13 14  1  1
 13 15  1  0
 15 16  1  0
 16 17  1  0
 17 18  2  0
 18 19  1  0
 19 20  1  0
 20 21  1  0
 21 22  1  0
 22 23  1  0
 22 24  1  0
 24 25  1  0
 24 26  1  0
 19 27  1  0
 27 28  1  6
 27 29  1  0
 29 30  1  0
 30 31  1  0
 31 32  1  6
  7  5  1  0
 31 10  1  0
 31 13  1  0
 27 15  1  0
 24 18  1  0
  1 33  1  0
  1 34  1  0
  1 35  1  0
  2 36  1  1
  3 37  1  0
  3 38  1  0
  4 39  1  0
  4 40  1  0
  5 41  1  1
  8 42  1  0
  8 43  1  0
  8 44  1  0
  9 45  1  0
  9 46  1  0
  9 47  1  0
 10 48  1  6
 11 49  1  0
 11 50  1  0
 12 51  1  0
 12 52  1  0
 14 53  1  0
 14 54  1  0
 14 55  1  0
 15 56  1  1
 16 57  1  0
 16 58  1  0
 17 59  1  0
 19 60  1  6
 20 61  1  0
 20 62  1  0
 21 63  1  0
 21 64  1  0
 22 65  1  6
 23 66  1  0
 25 67  1  0
 25 68  1  0
 25 69  1  0
 26 70  1  0
 26 71  1  0
 26 72  1  0
 28 73  1  0
 28 74  1  0
 28 75  1  0
 29 76  1  0
 29 77  1  0
 30 78  1  0
 30 79  1  0
 32 80  1  0
 32 81  1  0
 32 82  1  0
M  END
>  <meeko>  (14) 
{"is_sidechain": [false], "intermolecular_energy": 2.731, "internal_energy": -0.839}

$$$$
EPH_relaxed_0001_pdb2pqr_Repair_101_r2_0001_out
     RDKit          3D

 82 86  0  0  0  0  0  0  0  0999 V2000
   -1.0190   16.4290   -5.9100 C   0  0  0  0  0  0  0  0  0  0  0  0
    0.1240   15.7060   -6.6270 C   0  0  2  0  0  0  0  0  0  0  0  0
   -0.2180   15.3940   -8.0970 C   0  0  0  0  0  0  0  0  0  0  0  0
    0.3820   16.3900   -9.0930 C   0  0  0  0  0  0  0  0  0  0  0  0
    1.8000   16.0460   -9.4360 C   0  0  2  0  0  0  0  0  0  0  0  0
    2.2970   16.6730  -10.6250 O   0  0  0  0  0  0  0  0  0  0  0  0
    2.1940   15.2400  -10.6600 C   0  0  0  0  0  0  0  0  0  0  0  0
    1.1660   14.7280  -11.6200 C   0  0  0  0  0  0  0  0  0  0  0  0
    3.5160   14.5400  -10.6600 C   0  0  0  0  0  0  0  0  0  0  0  0
    0.4690   14.4190   -5.8870 C   0  0  1  0  0  0  0  0  0  0  0  0
    1.6100   13.6220   -6.5750 C   0  0  0  0  0  0  0  0  0  0  0  0
    2.4350   12.9560   -5.4450 C   0  0  0  0  0  0  0  0  0  0  0  0
    1.5610   13.1130   -4.1790 C   0  0  1  0  0  0  0  0  0  0  0  0
    0.5150   11.9580   -4.2670 C   0  0  0  0  0  0  0  0  0  0  0  0
    2.3180   13.1030   -2.8110 C   0  0  2  0  0  0  0  0  0  0  0  0
    3.0620   11.7960   -2.4860 C   0  0  0  0  0  0  0  0  0  0  0  0
    2.2680   10.7800   -1.7350 C   0  0  0  0  0  0  0  0  0  0  0  0
    1.1100   11.0130   -1.0890 C   0  0  0  0  0  0  0  0  0  0  0  0
    0.5350   12.4320   -0.9910 C   0  0  1  0  0  0  0  0  0  0  0  0
    0.0910   12.7110    0.4690 C   0  0  0  0  0  0  0  0  0  0  0  0
   -0.8720   11.6530    1.0000 C   0  0  0  0  0  0  0  0  0  0  0  0
   -0.2430   10.2640    0.9400 C   0  0  2  0  0  0  0  0  0  0  0  0
    0.8510   10.2130    1.8610 O   0  0  0  0  0  0  0  0  0  0  0  0
    0.2520    9.8760   -0.4810 C   0  0  0  0  0  0  0  0  0  0  0  0
   -0.9650    9.6360   -1.4090 C   0  0  0  0  0  0  0  0  0  0  0  0
    0.9910    8.5150   -0.3750 C   0  0  0  0  0  0  0  0  0  0  0  0
    1.4460   13.5920   -1.5840 C   0  0  1  0  0  0  0  0  0  0  0  0
    2.4460   14.0910   -0.4970 C   0  0  0  0  0  0  0  0  0  0  0  0
    0.5360   14.8240   -1.9490 C   0  0  0  0  0  0  0  0  0  0  0  0
   -0.0870   14.8340   -3.3580 C   0  0  0  0  0  0  0  0  0  0  0  0
    0.9720   14.5500   -4.4280 C   0  0  2  0  0  0  0  0  0  0  0  0
    2.0260   15.7080   -4.3770 C   0  0  0  0  0  0  0  0  0  0  0  0
   -0.8823   16.3425   -4.8220 H   0  0  0  0  0  0  0  0  0  0  0  0
   -1.0179   17.4911   -6.1964 H   0  0  0  0  0  0  0  0  0  0  0  0
   -1.9782   15.9730   -6.1964 H   0  0  0  0  0  0  0  0  0  0  0  0
    0.9938   16.3793   -6.6271 H   0  0  0  0  0  0  0  0  0  0  0  0
    0.1634   14.3905   -8.3369 H   0  0  0  0  0  0  0  0  0  0  0  0
   -1.3116   15.4615   -8.1940 H   0  0  0  0  0  0  0  0  0  0  0  0
   -0.2199   16.3797  -10.0137 H   0  0  0  0  0  0  0  0  0  0  0  0
    0.3742   17.3867   -8.6277 H   0  0  0  0  0  0  0  0  0  0  0  0
    2.0569   15.9432   -8.3714 H   0  0  0  0  0  0  0  0  0  0  0  0
    0.3188   14.3060  -11.0595 H   0  0  0  0  0  0  0  0  0  0  0  0
    0.8115   15.5548  -12.2530 H   0  0  0  0  0  0  0  0  0  0  0  0
    1.6123   13.9469  -12.2530 H   0  0  0  0  0  0  0  0  0  0  0  0
    3.8400   14.3684   -9.6229 H   0  0  0  0  0  0  0  0  0  0  0  0
    3.4198   13.5747  -11.1785 H   0  0  0  0  0  0  0  0  0  0  0  0
    4.2603   15.1622  -11.1785 H   0  0  0  0  0  0  0  0  0  0  0  0
   -0.5152   13.9281   -5.9028 H   0  0  0  0  0  0  0  0  0  0  0  0
    1.1880   12.8534   -7.2392 H   0  0  0  0  0  0  0  0  0  0  0  0
    2.2407   14.2839   -7.1867 H   0  0  0  0  0  0  0  0  0  0  0  0
    2.6098   11.8929   -5.6668 H   0  0  0  0  0  0  0  0  0  0  0  0
    3.4272   13.4159   -5.3265 H   0  0  0  0  0  0  0  0  0  0  0  0
    0.2300   11.6433   -3.2522 H   0  0  0  0  0  0  0  0  0  0  0  0
   -0.3768   12.3112   -4.8054 H   0  0  0  0  0  0  0  0  0  0  0  0
    0.9546   11.1054   -4.8054 H   0  0  0  0  0  0  0  0  0  0  0  0
    3.1000   13.8603   -2.9691 H   0  0  0  0  0  0  0  0  0  0  0  0
    3.3829   11.3425   -3.4354 H   0  0  0  0  0  0  0  0  0  0  0  0
    3.8970   12.0770   -1.8273 H   0  0  0  0  0  0  0  0  0  0  0  0
    2.6623    9.7535   -1.7068 H   0  0  0  0  0  0  0  0  0  0  0  0
   -0.3397   12.4523   -1.6576 H   0  0  0  0  0  0  0  0  0  0  0  0
    0.9836   12.7297    1.1116 H   0  0  0  0  0  0  0  0  0  0  0  0
   -0.4354   13.6768    0.4792 H   0  0  0  0  0  0  0  0  0  0  0  0
   -1.1256   11.8886    2.0441 H   0  0  0  0  0  0  0  0  0  0  0  0
   -1.7768   11.6561    0.3744 H   0  0  0  0  0  0  0  0  0  0  0  0
   -1.0234    9.5370    1.2093 H   0  0  0  0  0  0  0  0  0  0  0  0
    1.3260    9.3790    1.7090 H   0  0  0  0  0  0  0  0  0  0  0  0
   -1.8626    9.4590   -0.7982 H   0  0  0  0  0  0  0  0  0  0  0  0
   -1.1221   10.5205   -2.0439 H   0  0  0  0  0  0  0  0  0  0  0  0
   -0.7745    8.7581   -2.0439 H   0  0  0  0  0  0  0  0  0  0  0  0
    1.1318    8.2558    0.6847 H   0  0  0  0  0  0  0  0  0  0  0  0
    0.3932    7.7338   -0.8673 H   0  0  0  0  0  0  0  0  0  0  0  0
    1.9718    8.5910   -0.8673 H   0  0  0  0  0  0  0  0  0  0  0  0
    2.0342   13.8855    0.5021 H   0  0  0  0  0  0  0  0  0  0  0  0
    3.4057   13.5661   -0.6131 H   0  0  0  0  0  0  0  0  0  0  0  0
    2.6037   15.1734   -0.6131 H   0  0  0  0  0  0  0  0  0  0  0  0
   -0.2877   14.8567   -1.2207 H   0  0  0  0  0  0  0  0  0  0  0  0
    1.2074   15.6950   -1.9249 H   0  0  0  0  0  0  0  0  0  0  0  0
   -0.8685   14.0617   -3.4113 H   0  0  0  0  0  0  0  0  0  0  0  0
   -0.5160   15.8296   -3.5447 H   0  0  0  0  0  0  0  0  0  0  0  0
    2.2500   15.9540   -3.3285 H   0  0  0  0  0  0  0  0  0  0  0  0
    2.9483   15.3869   -4.8833 H   0  0  0  0  0  0  0  0  0  0  0  0
    1.6198   16.5961   -4.8833 H   0  0  0  0  0  0  0  0  0  0  0  0
  1  2  1  0
  2  3  1  0
  3  4  1  0
  4  5  1  0
  5  6  1  0
  6  7  1  0
  7  8  1  0
  7  9  1  0
  2 10  1  0
 10 11  1  0
 11 12  1  0
 12 13  1  0
 13 14  1  1
 13 15  1  0
 15 16  1  0
 16 17  1  0
 17 18  2  0
 18 19  1  0
 19 20  1  0
 20 21  1  0
 21 22  1  0
 22 23  1  0
 22 24  1  0
 24 25  1  0
 24 26  1  0
 19 27  1  0
 27 28  1  1
 27 29  1  0
 29 30  1  0
 30 31  1  0
 31 32  1  6
  7  5  1  0
 31 10  1  0
 31 13  1  0
 27 15  1  0
 24 18  1  0
  1 33  1  0
  1 34  1  0
  1 35  1  0
  2 36  1  6
  3 37  1  0
  3 38  1  0
  4 39  1  0
  4 40  1  0
  5 41  1  1
  8 42  1  0
  8 43  1  0
  8 44  1  0
  9 45  1  0
  9 46  1  0
  9 47  1  0
 10 48  1  1
 11 49  1  0
 11 50  1  0
 12 51  1  0
 12 52  1  0
 14 53  1  0
 14 54  1  0
 14 55  1  0
 15 56  1  6
 16 57  1  0
 16 58  1  0
 17 59  1  0
 19 60  1  6
 20 61  1  0
 20 62  1  0
 21 63  1  0
 21 64  1  0
 22 65  1  1
 23 66  1  0
 25 67  1  0
 25 68  1  0
 25 69  1  0
 26 70  1  0
 26 71  1  0
 26 72  1  0
 28 73  1  0
 28 74  1  0
 28 75  1  0
 29 76  1  0
 29 77  1  0
 30 78  1  0
 30 79  1  0
 32 80  1  0
 32 81  1  0
 32 82  1  0
M  END
>  <meeko>  (15) 
{"is_sidechain": [false], "intermolecular_energy": 2.731, "internal_energy": -0.839}

$$$$
EPH_relaxed_0001_pdb2pqr_Repair_101_r2_0001_out
     RDKit          3D

 82 86  0  0  0  0  0  0  0  0999 V2000
    0.4540   18.9500   -2.4910 C   0  0  0  0  0  0  0  0  0  0  0  0
   -0.0150   17.9580   -1.4230 C   0  0  2  0  0  0  0  0  0  0  0  0
    0.4830   18.3410   -0.0150 C   0  0  0  0  0  0  0  0  0  0  0  0
    1.3310   19.6160    0.0120 C   0  0  0  0  0  0  0  0  0  0  0  0
    2.3660   19.5700    1.0950 C   0  0  2  0  0  0  0  0  0  0  0  0
    3.6120   20.1940    0.7590 O   0  0  0  0  0  0  0  0  0  0  0  0
    3.6540   18.7760    0.9890 C   0  0  0  0  0  0  0  0  0  0  0  0
    3.9760   17.9710   -0.2310 C   0  0  0  0  0  0  0  0  0  0  0  0
    4.3630   18.3900    2.2490 C   0  0  0  0  0  0  0  0  0  0  0  0
    0.4550   16.5520   -1.7770 C   0  0  1  0  0  0  0  0  0  0  0  0
    1.8810   16.5360   -2.3890 C   0  0  0  0  0  0  0  0  0  0  0  0
    2.5630   15.2330   -1.8980 C   0  0  0  0  0  0  0  0  0  0  0  0
    1.4120   14.3900   -1.3020 C   0  0  1  0  0  0  0  0  0  0  0  0
    0.7280   13.7170   -2.5330 C   0  0  0  0  0  0  0  0  0  0  0  0
    1.8150   13.3380   -0.2190 C   0  0  2  0  0  0  0  0  0  0  0  0
    2.7610   12.2270   -0.7080 C   0  0  0  0  0  0  0  0  0  0  0  0
    2.0880   11.0060   -1.2410 C   0  0  0  0  0  0  0  0  0  0  0  0
    0.7930   10.6860   -1.0650 C   0  0  0  0  0  0  0  0  0  0  0  0
   -0.1180   11.5470   -0.1800 C   0  0  1  0  0  0  0  0  0  0  0  0
   -0.9380   10.6310    0.7660 C   0  0  0  0  0  0  0  0  0  0  0  0
   -1.7090    9.5520    0.0110 C   0  0  0  0  0  0  0  0  0  0  0  0
   -0.7630    8.6800   -0.8110 C   0  0  2  0  0  0  0  0  0  0  0  0
    0.0700    7.9350    0.0820 O   0  0  0  0  0  0  0  0  0  0  0  0
    0.1230    9.4950   -1.7940 C   0  0  0  0  0  0  0  0  0  0  0  0
   -0.7540   10.0580   -2.9400 C   0  0  0  0  0  0  0  0  0  0  0  0
    1.1270    8.5140   -2.4570 C   0  0  0  0  0  0  0  0  0  0  0  0
    0.5940   12.7410    0.5920 C   0  0  1  0  0  0  0  0  0  0  0  0
    1.1670   12.2300    1.9490 C   0  0  0  0  0  0  0  0  0  0  0  0
   -0.4810   13.8360    0.9470 C   0  0  0  0  0  0  0  0  0  0  0  0
   -0.7480   14.9180   -0.1160 C   0  0  0  0  0  0  0  0  0  0  0  0
    0.5640   15.5260   -0.6220 C   0  0  2  0  0  0  0  0  0  0  0  0
    1.2630   16.2300    0.5910 C   0  0  0  0  0  0  0  0  0  0  0  0
    0.8755   19.8415   -2.0036 H   0  0  0  0  0  0  0  0  0  0  0  0
    1.2237   18.4767   -3.1183 H   0  0  0  0  0  0  0  0  0  0  0  0
   -0.4003   19.2445   -3.1183 H   0  0  0  0  0  0  0  0  0  0  0  0
   -1.1144   17.9887   -1.4036 H   0  0  0  0  0  0  0  0  0  0  0  0
   -0.3923   18.4922    0.6338 H   0  0  0  0  0  0  0  0  0  0  0  0
    1.1263   17.5194    0.3331 H   0  0  0  0  0  0  0  0  0  0  0  0
    1.8356   19.7293   -0.9589 H   0  0  0  0  0  0  0  0  0  0  0  0
    0.6638   20.4676    0.2110 H   0  0  0  0  0  0  0  0  0  0  0  0
    1.5884   19.6135    1.8719 H   0  0  0  0  0  0  0  0  0  0  0  0
    4.3688   16.9889    0.0709 H   0  0  0  0  0  0  0  0  0  0  0  0
    3.0640   17.8327   -0.8303 H   0  0  0  0  0  0  0  0  0  0  0  0
    4.7318   18.4998   -0.8303 H   0  0  0  0  0  0  0  0  0  0  0  0
    3.7698   18.7130    3.1172 H   0  0  0  0  0  0  0  0  0  0  0  0
    4.4907   17.2978    2.2780 H   0  0  0  0  0  0  0  0  0  0  0  0
    5.3497   18.8755    2.2780 H   0  0  0  0  0  0  0  0  0  0  0  0
   -0.3496   16.2570   -2.4667 H   0  0  0  0  0  0  0  0  0  0  0  0
    1.8220   16.5422   -3.4874 H   0  0  0  0  0  0  0  0  0  0  0  0
    2.4538   17.4227   -2.0798 H   0  0  0  0  0  0  0  0  0  0  0  0
    3.0378   14.7034   -2.7371 H   0  0  0  0  0  0  0  0  0  0  0  0
    3.3586   15.4299   -1.1643 H   0  0  0  0  0  0  0  0  0  0  0  0
   -0.0157   12.9852   -2.1846 H   0  0  0  0  0  0  0  0  0  0  0  0
    0.2289   14.4859   -3.1410 H   0  0  0  0  0  0  0  0  0  0  0  0
    1.4888   13.2055   -3.1410 H   0  0  0  0  0  0  0  0  0  0  0  0
    2.4030   13.9420    0.4877 H   0  0  0  0  0  0  0  0  0  0  0  0
    3.3910   12.6443   -1.5074 H   0  0  0  0  0  0  0  0  0  0  0  0
    3.3294   11.9004    0.1753 H   0  0  0  0  0  0  0  0  0  0  0  0
    2.7033   10.3081   -1.8278 H   0  0  0  0  0  0  0  0  0  0  0  0
   -0.7959   12.0767   -0.8654 H   0  0  0  0  0  0  0  0  0  0  0  0
   -0.2481   10.1438    1.4708 H   0  0  0  0  0  0  0  0  0  0  0  0
   -1.6716   11.2619    1.2891 H   0  0  0  0  0  0  0  0  0  0  0  0
   -2.2447    8.9195    0.7342 H   0  0  0  0  0  0  0  0  0  0  0  0
   -2.4191   10.0408   -0.6723 H   0  0  0  0  0  0  0  0  0  0  0  0
   -1.3824    8.0118   -1.4274 H   0  0  0  0  0  0  0  0  0  0  0  0
   -0.5030    7.5480    0.7660 H   0  0  0  0  0  0  0  0  0  0  0  0
   -1.6073   10.6058   -2.5135 H   0  0  0  0  0  0  0  0  0  0  0  0
   -0.1536   10.7398   -3.5601 H   0  0  0  0  0  0  0  0  0  0  0  0
   -1.1240    9.2282   -3.5601 H   0  0  0  0  0  0  0  0  0  0  0  0
    1.6809    7.9728   -1.6758 H   0  0  0  0  0  0  0  0  0  0  0  0
    0.5781    7.7947   -3.0825 H   0  0  0  0  0  0  0  0  0  0  0  0
    1.8334    9.0795   -3.0825 H   0  0  0  0  0  0  0  0  0  0  0  0
    0.6281   12.7106    2.7788 H   0  0  0  0  0  0  0  0  0  0  0  0
    1.0408   11.1391    2.0128 H   0  0  0  0  0  0  0  0  0  0  0  0
    2.2364   12.4798    2.0128 H   0  0  0  0  0  0  0  0  0  0  0  0
   -1.4319   13.3181    1.1407 H   0  0  0  0  0  0  0  0  0  0  0  0
   -0.0662   14.3771    1.8103 H   0  0  0  0  0  0  0  0  0  0  0  0
   -1.2850   14.4656   -0.9628 H   0  0  0  0  0  0  0  0  0  0  0  0
   -1.3512   15.7165    0.3405 H   0  0  0  0  0  0  0  0  0  0  0  0
    0.8609   15.8251    1.5314 H   0  0  0  0  0  0  0  0  0  0  0  0
    2.3467   16.0467    0.5465 H   0  0  0  0  0  0  0  0  0  0  0  0
    1.0720   17.3124    0.5465 H   0  0  0  0  0  0  0  0  0  0  0  0
  1  2  1  0
  2  3  1  0
  3  4  1  0
  4  5  1  0
  5  6  1  0
  6  7  1  0
  7  8  1  0
  7  9  1  0
  2 10  1  0
 10 11  1  0
 11 12  1  0
 12 13  1  0
 13 14  1  6
 13 15  1  0
 15 16  1  0
 16 17  1  0
 17 18  2  0
 18 19  1  0
 19 20  1  0
 20 21  1  0
 21 22  1  0
 22 23  1  0
 22 24  1  0
 24 25  1  0
 24 26  1  0
 19 27  1  0
 27 28  1  1
 27 29  1  0
 29 30  1  0
 30 31  1  0
 31 32  1  1
  7  5  1  0
 31 10  1  0
 31 13  1  0
 27 15  1  0
 24 18  1  0
  1 33  1  0
  1 34  1  0
  1 35  1  0
  2 36  1  1
  3 37  1  0
  3 38  1  0
  4 39  1  0
  4 40  1  0
  5 41  1  1
  8 42  1  0
  8 43  1  0
  8 44  1  0
  9 45  1  0
  9 46  1  0
  9 47  1  0
 10 48  1  6
 11 49  1  0
 11 50  1  0
 12 51  1  0
 12 52  1  0
 14 53  1  0
 14 54  1  0
 14 55  1  0
 15 56  1  1
 16 57  1  0
 16 58  1  0
 17 59  1  0
 19 60  1  6
 20 61  1  0
 20 62  1  0
 21 63  1  0
 21 64  1  0
 22 65  1  6
 23 66  1  0
 25 67  1  0
 25 68  1  0
 25 69  1  0
 26 70  1  0
 26 71  1  0
 26 72  1  0
 28 73  1  0
 28 74  1  0
 28 75  1  0
 29 76  1  0
 29 77  1  0
 30 78  1  0
 30 79  1  0
 32 80  1  0
 32 81  1  0
 32 82  1  0
M  END
>  <meeko>  (16) 
{"is_sidechain": [false], "intermolecular_energy": 2.731, "internal_energy": -0.839}

$$$$
EPH_relaxed_0001_pdb2pqr_Repair_101_r2_0001_out
     RDKit          3D

 82 86  0  0  0  0  0  0  0  0999 V2000
   -4.3870    6.8940   -2.6870 C   0  0  0  0  0  0  0  0  0  0  0  0
   -4.4990    7.3500   -1.2290 C   0  0  2  0  0  0  0  0  0  0  0  0
   -5.9660    7.5090   -0.7810 C   0  0  0  0  0  0  0  0  0  0  0  0
   -6.9830    7.1640   -1.8720 C   0  0  0  0  0  0  0  0  0  0  0  0
   -7.2150    8.3190   -2.7990 C   0  0  2  0  0  0  0  0  0  0  0  0
   -8.4990    8.3270   -3.4360 O   0  0  0  0  0  0  0  0  0  0  0  0
   -7.3630    8.1690   -4.3010 C   0  0  0  0  0  0  0  0  0  0  0  0
   -7.2840    6.8300   -4.9640 C   0  0  0  0  0  0  0  0  0  0  0  0
   -7.0970    9.3600   -5.1690 C   0  0  0  0  0  0  0  0  0  0  0  0
   -3.7510    8.6640   -1.0380 C   0  0  1  0  0  0  0  0  0  0  0  0
   -4.1780    9.4120    0.2540 C   0  0  0  0  0  0  0  0  0  0  0  0
   -2.9110   10.1160    0.8030 C   0  0  0  0  0  0  0  0  0  0  0  0
   -1.8850   10.0290   -0.3510 C   0  0  1  0  0  0  0  0  0  0  0  0
   -2.2670   11.1950   -1.3160 C   0  0  0  0  0  0  0  0  0  0  0  0
   -0.3770   10.0890    0.0580 C   0  0  2  0  0  0  0  0  0  0  0  0
    0.0630   11.3980    0.7370 C   0  0  0  0  0  0  0  0  0  0  0  0
    0.5610   12.4590   -0.1870 C   0  0  0  0  0  0  0  0  0  0  0  0
    0.9210   12.2730   -1.4710 C   0  0  0  0  0  0  0  0  0  0  0  0
    0.9350   10.8690   -2.0890 C   0  0  1  0  0  0  0  0  0  0  0  0
    2.2570   10.6620   -2.8750 C   0  0  0  0  0  0  0  0  0  0  0  0
    2.4990   11.7570   -3.9090 C   0  0  0  0  0  0  0  0  0  0  0  0
    2.5360   13.1330   -3.2480 C   0  0  2  0  0  0  0  0  0  0  0  0
    3.6890   13.2090   -2.4040 O   0  0  0  0  0  0  0  0  0  0  0  0
    1.2600   13.4490   -2.4200 C   0  0  0  0  0  0  0  0  0  0  0  0
    0.0590   13.6650   -3.3740 C   0  0  0  0  0  0  0  0  0  0  0  0
    1.4850   14.8020   -1.6930 C   0  0  0  0  0  0  0  0  0  0  0  0
    0.6240    9.6700   -1.0930 C   0  0  1  0  0  0  0  0  0  0  0  0
    1.9380    9.2050   -0.3930 C   0  0  0  0  0  0  0  0  0  0  0  0
    0.1020    8.4360   -1.9200 C   0  0  0  0  0  0  0  0  0  0  0  0
   -1.4130    8.3720   -2.1900 C   0  0  0  0  0  0  0  0  0  0  0  0
   -2.2100    8.5920   -0.9000 C   0  0  2  0  0  0  0  0  0  0  0  0
   -1.8620    7.4210    0.0820 C   0  0  0  0  0  0  0  0  0  0  0  0
   -4.1247    5.8262   -2.7181 H   0  0  0  0  0  0  0  0  0  0  0  0
   -5.3501    7.0499   -3.1950 H   0  0  0  0  0  0  0  0  0  0  0  0
   -3.6057    7.4784   -3.1950 H   0  0  0  0  0  0  0  0  0  0  0  0
   -4.0456    6.5685   -0.6016 H   0  0  0  0  0  0  0  0  0  0  0  0
   -6.1405    6.8455    0.0789 H   0  0  0  0  0  0  0  0  0  0  0  0
   -6.1122    8.5697   -0.5288 H   0  0  0  0  0  0  0  0  0  0  0  0
   -6.6057    6.3101   -2.4539 H   0  0  0  0  0  0  0  0  0  0  0  0
   -7.9381    6.9180   -1.3850 H   0  0  0  0  0  0  0  0  0  0  0  0
   -6.5808    8.9722   -2.1817 H   0  0  0  0  0  0  0  0  0  0  0  0
   -7.2376    6.0431   -4.1968 H   0  0  0  0  0  0  0  0  0  0  0  0
   -8.1748    6.6783   -5.5913 H   0  0  0  0  0  0  0  0  0  0  0  0
   -6.3816    6.7841   -5.5913 H   0  0  0  0  0  0  0  0  0  0  0  0
   -6.9008   10.2383   -4.5364 H   0  0  0  0  0  0  0  0  0  0  0  0
   -6.2208    9.1625   -5.8041 H   0  0  0  0  0  0  0  0  0  0  0  0
   -7.9739    9.5541   -5.8041 H   0  0  0  0  0  0  0  0  0  0  0  0
   -4.0215    9.1681   -1.9775 H   0  0  0  0  0  0  0  0  0  0  0  0
   -4.9542   10.1561    0.0219 H   0  0  0  0  0  0  0  0  0  0  0  0
   -4.5942    8.7138    0.9952 H   0  0  0  0  0  0  0  0  0  0  0  0
   -3.1271   11.1654    1.0522 H   0  0  0  0  0  0  0  0  0  0  0  0
   -2.5406    9.6472    1.7266 H   0  0  0  0  0  0  0  0  0  0  0  0
   -2.5563   12.0781   -0.7275 H   0  0  0  0  0  0  0  0  0  0  0  0
   -1.4034   11.4439   -1.9503 H   0  0  0  0  0  0  0  0  0  0  0  0
   -3.1104   10.8846   -1.9503 H   0  0  0  0  0  0  0  0  0  0  0  0
   -0.3122    9.3129    0.8349 H   0  0  0  0  0  0  0  0  0  0  0  0
   -0.7999   11.8029    1.2860 H   0  0  0  0  0  0  0  0  0  0  0  0
    0.9126   11.1346    1.3842 H   0  0  0  0  0  0  0  0  0  0  0  0
    0.6407   13.4797    0.2152 H   0  0  0  0  0  0  0  0  0  0  0  0
    0.0800   10.8327   -2.7801 H   0  0  0  0  0  0  0  0  0  0  0  0
    3.0946   10.6587   -2.1620 H   0  0  0  0  0  0  0  0  0  0  0  0
    2.1801    9.7055   -3.4127 H   0  0  0  0  0  0  0  0  0  0  0  0
    3.4605   11.5725   -4.4104 H   0  0  0  0  0  0  0  0  0  0  0  0
    1.6755   11.7397   -4.6381 H   0  0  0  0  0  0  0  0  0  0  0  0
    2.5823   13.8833   -4.0510 H   0  0  0  0  0  0  0  0  0  0  0  0
    4.2990   12.5010   -2.6750 H   0  0  0  0  0  0  0  0  0  0  0  0
   -0.8540   13.8292   -2.7828 H   0  0  0  0  0  0  0  0  0  0  0  0
    0.2480   14.5436   -4.0084 H   0  0  0  0  0  0  0  0  0  0  0  0
   -0.0700   12.7756   -4.0084 H   0  0  0  0  0  0  0  0  0  0  0  0
    1.4585   14.6425   -0.6050 H   0  0  0  0  0  0  0  0  0  0  0  0
    2.4640   15.2138   -1.9794 H   0  0  0  0  0  0  0  0  0  0  0  0
    0.6920   15.5085   -1.9794 H   0  0  0  0  0  0  0  0  0  0  0  0
    1.8081    9.2510    0.6983 H   0  0  0  0  0  0  0  0  0  0  0  0
    2.1667    8.1714   -0.6918 H   0  0  0  0  0  0  0  0  0  0  0  0
    2.7659    9.8647   -0.6918 H   0  0  0  0  0  0  0  0  0  0  0  0
    0.6134    8.4476   -2.8938 H   0  0  0  0  0  0  0  0  0  0  0  0
    0.3205    7.5574   -1.2952 H   0  0  0  0  0  0  0  0  0  0  0  0
   -1.6822    9.1526   -2.9168 H   0  0  0  0  0  0  0  0  0  0  0  0
   -1.6566    7.3755   -2.5870 H   0  0  0  0  0  0  0  0  0  0  0  0
   -1.9657    7.7699    1.1200 H   0  0  0  0  0  0  0  0  0  0  0  0
   -2.5490    6.5798   -0.0924 H   0  0  0  0  0  0  0  0  0  0  0  0
   -0.8271    7.0915   -0.0924 H   0  0  0  0  0  0  0  0  0  0  0  0
  1  2  1  0
  2  3  1  0
  3  4  1  0
  4  5  1  0
  5  6  1  0
  6  7  1  0
  7  8  1  0
  7  9  1  0
  2 10  1  0
 10 11  1  0
 11 12  1  0
 12 13  1  0
 13 14  1  6
 13 15  1  0
 15 16  1  0
 16 17  1  0
 17 18  2  0
 18 19  1  0
 19 20  1  0
 20 21  1  0
 21 22  1  0
 22 23  1  0
 22 24  1  0
 24 25  1  0
 24 26  1  0
 19 27  1  0
 27 28  1  1
 27 29  1  0
 29 30  1  0
 30 31  1  0
 31 32  1  1
  7  5  1  0
 31 10  1  0
 31 13  1  0
 27 15  1  0
 24 18  1  0
  1 33  1  0
  1 34  1  0
  1 35  1  0
  2 36  1  1
  3 37  1  0
  3 38  1  0
  4 39  1  0
  4 40  1  0
  5 41  1  6
  8 42  1  0
  8 43  1  0
  8 44  1  0
  9 45  1  0
  9 46  1  0
  9 47  1  0
 10 48  1  6
 11 49  1  0
 11 50  1  0
 12 51  1  0
 12 52  1  0
 14 53  1  0
 14 54  1  0
 14 55  1  0
 15 56  1  1
 16 57  1  0
 16 58  1  0
 17 59  1  0
 19 60  1  6
 20 61  1  0
 20 62  1  0
 21 63  1  0
 21 64  1  0
 22 65  1  6
 23 66  1  0
 25 67  1  0
 25 68  1  0
 25 69  1  0
 26 70  1  0
 26 71  1  0
 26 72  1  0
 28 73  1  0
 28 74  1  0
 28 75  1  0
 29 76  1  0
 29 77  1  0
 30 78  1  0
 30 79  1  0
 32 80  1  0
 32 81  1  0
 32 82  1  0
M  END
>  <meeko>  (17) 
{"is_sidechain": [false], "intermolecular_energy": 2.731, "internal_energy": -0.839}

$$$$
EPH_relaxed_0001_pdb2pqr_Repair_101_r2_0001_out
     RDKit          3D

 82 86  0  0  0  0  0  0  0  0999 V2000
  -15.1550    8.6820    1.0070 C   0  0  0  0  0  0  0  0  0  0  0  0
  -14.4500    9.0280   -0.3080 C   0  0  2  0  0  0  0  0  0  0  0  0
  -14.9040    8.1190   -1.4670 C   0  0  0  0  0  0  0  0  0  0  0  0
  -14.7640    8.7650   -2.8480 C   0  0  0  0  0  0  0  0  0  0  0  0
  -15.2860   10.1700   -2.8570 C   0  0  2  0  0  0  0  0  0  0  0  0
  -14.9380   10.9310   -4.0210 O   0  0  0  0  0  0  0  0  0  0  0  0
  -14.3940   11.3950   -2.7750 C   0  0  0  0  0  0  0  0  0  0  0  0
  -12.9060   11.2710   -2.6760 C   0  0  0  0  0  0  0  0  0  0  0  0
  -14.9900   12.6840   -2.3000 C   0  0  0  0  0  0  0  0  0  0  0  0
  -12.9390    8.9280   -0.1290 C   0  0  1  0  0  0  0  0  0  0  0  0
  -12.5170    8.8630    1.3630 C   0  0  0  0  0  0  0  0  0  0  0  0
  -11.2770    7.9340    1.4370 C   0  0  0  0  0  0  0  0  0  0  0  0
  -10.8290    7.7650   -0.0340 C   0  0  1  0  0  0  0  0  0  0  0  0
  -10.0040    9.0520   -0.3520 C   0  0  0  0  0  0  0  0  0  0  0  0
  -10.0240    6.4670   -0.3660 C   0  0  2  0  0  0  0  0  0  0  0  0
   -8.6760    6.3300    0.3640 C   0  0  0  0  0  0  0  0  0  0  0  0
   -7.5010    6.9050   -0.3540 C   0  0  0  0  0  0  0  0  0  0  0  0
   -7.4720    7.2520   -1.6550 C   0  0  0  0  0  0  0  0  0  0  0  0
   -8.6740    6.9830   -2.5690 C   0  0  1  0  0  0  0  0  0  0  0  0
   -8.1840    6.3500   -3.8970 C   0  0  0  0  0  0  0  0  0  0  0  0
   -7.1060    7.1860   -4.5810 C   0  0  0  0  0  0  0  0  0  0  0  0
   -5.9030    7.3820   -3.6620 C   0  0  2  0  0  0  0  0  0  0  0  0
   -5.2670    6.1170   -3.4600 O   0  0  0  0  0  0  0  0  0  0  0  0
   -6.2760    8.0050   -2.2880 C   0  0  0  0  0  0  0  0  0  0  0  0
   -6.6840    9.4870   -2.4820 C   0  0  0  0  0  0  0  0  0  0  0  0
   -4.9980    8.0180   -1.4070 C   0  0  0  0  0  0  0  0  0  0  0  0
   -9.8750    6.1740   -1.9140 C   0  0  1  0  0  0  0  0  0  0  0  0
   -9.6250    4.6420   -2.0550 C   0  0  0  0  0  0  0  0  0  0  0  0
  -11.1980    6.4830   -2.7110 C   0  0  0  0  0  0  0  0  0  0  0  0
  -12.0110    7.7110   -2.2580 C   0  0  0  0  0  0  0  0  0  0  0  0
  -12.2300    7.6950   -0.7420 C   0  0  2  0  0  0  0  0  0  0  0  0
  -13.0770    6.4230   -0.3950 C   0  0  0  0  0  0  0  0  0  0  0  0
  -14.5245    8.9915    1.8535 H   0  0  0  0  0  0  0  0  0  0  0  0
  -16.1191    9.2093    1.0559 H   0  0  0  0  0  0  0  0  0  0  0  0
  -15.3277    7.5967    1.0559 H   0  0  0  0  0  0  0  0  0  0  0  0
  -14.7264   10.0599   -0.5703 H   0  0  0  0  0  0  0  0  0  0  0  0
  -14.2950    7.2031   -1.4489 H   0  0  0  0  0  0  0  0  0  0  0  0
  -15.9742    7.9150   -1.3149 H   0  0  0  0  0  0  0  0  0  0  0  0
  -13.7008    8.7777   -3.1297 H   0  0  0  0  0  0  0  0  0  0  0  0
  -15.3541    8.1748   -3.5646 H   0  0  0  0  0  0  0  0  0  0  0  0
  -16.1775    9.8670   -2.2883 H   0  0  0  0  0  0  0  0  0  0  0  0
  -12.6098   11.2463   -1.6169 H   0  0  0  0  0  0  0  0  0  0  0  0
  -12.5818   10.3427   -3.1692 H   0  0  0  0  0  0  0  0  0  0  0  0
  -12.4326   12.1328   -3.1692 H   0  0  0  0  0  0  0  0  0  0  0  0
  -14.9979   12.7010   -1.2002 H   0  0  0  0  0  0  0  0  0  0  0  0
  -14.3897   13.5259   -2.6755 H   0  0  0  0  0  0  0  0  0  0  0  0
  -16.0202   12.7720   -2.6755 H   0  0  0  0  0  0  0  0  0  0  0  0
  -12.6302    9.8412   -0.6589 H   0  0  0  0  0  0  0  0  0  0  0  0
  -12.2596    9.8682    1.7280 H   0  0  0  0  0  0  0  0  0  0  0  0
  -13.3361    8.4792    1.9889 H   0  0  0  0  0  0  0  0  0  0  0  0
  -10.4790    8.3980    2.0353 H   0  0  0  0  0  0  0  0  0  0  0  0
  -11.5048    6.9710    1.9174 H   0  0  0  0  0  0  0  0  0  0  0  0
   -9.6963    9.5320    0.5887 H   0  0  0  0  0  0  0  0  0  0  0  0
   -9.1111    8.7806   -0.9344 H   0  0  0  0  0  0  0  0  0  0  0  0
  -10.6234    9.7500   -0.9344 H   0  0  0  0  0  0  0  0  0  0  0  0
  -10.6694    5.6780    0.0474 H   0  0  0  0  0  0  0  0  0  0  0  0
   -8.7625    6.8381    1.3358 H   0  0  0  0  0  0  0  0  0  0  0  0
   -8.4833    5.2502    0.4471 H   0  0  0  0  0  0  0  0  0  0  0  0
   -6.5807    7.0584    0.2286 H   0  0  0  0  0  0  0  0  0  0  0  0
   -9.1290    7.9642   -2.7695 H   0  0  0  0  0  0  0  0  0  0  0  0
   -7.7731    5.3526   -3.6817 H   0  0  0  0  0  0  0  0  0  0  0  0
   -9.0458    6.2943   -4.5783 H   0  0  0  0  0  0  0  0  0  0  0  0
   -6.7793    6.6723   -5.4972 H   0  0  0  0  0  0  0  0  0  0  0  0
   -7.5276    8.1728   -4.8230 H   0  0  0  0  0  0  0  0  0  0  0  0
   -5.2243    8.0939   -4.1545 H   0  0  0  0  0  0  0  0  0  0  0  0
   -4.8040    5.8850   -4.2830 H   0  0  0  0  0  0  0  0  0  0  0  0
   -6.8150    9.9629   -1.4990 H   0  0  0  0  0  0  0  0  0  0  0  0
   -5.8974   10.0135   -3.0424 H   0  0  0  0  0  0  0  0  0  0  0  0
   -7.6293    9.5367   -3.0424 H   0  0  0  0  0  0  0  0  0  0  0  0
   -5.2847    8.0151   -0.3450 H   0  0  0  0  0  0  0  0  0  0  0  0
   -4.3927    7.1260   -1.6258 H   0  0  0  0  0  0  0  0  0  0  0  0
   -4.4110    8.9222   -1.6258 H   0  0  0  0  0  0  0  0  0  0  0  0
   -9.5511    4.1890   -1.0553 H   0  0  0  0  0  0  0  0  0  0  0  0
  -10.4602    4.1832   -2.6046 H   0  0  0  0  0  0  0  0  0  0  0  0
   -8.6873    4.4725   -2.6046 H   0  0  0  0  0  0  0  0  0  0  0  0
  -10.9235    6.6360   -3.7651 H   0  0  0  0  0  0  0  0  0  0  0  0
  -11.8538    5.6194   -2.5262 H   0  0  0  0  0  0  0  0  0  0  0  0
  -11.4649    8.6254   -2.5330 H   0  0  0  0  0  0  0  0  0  0  0  0
  -12.9923    7.6844   -2.7543 H   0  0  0  0  0  0  0  0  0  0  0  0
  -13.1479    6.3165    0.6975 H   0  0  0  0  0  0  0  0  0  0  0  0
  -14.0864    6.5276   -0.8195 H   0  0  0  0  0  0  0  0  0  0  0  0
  -12.5912    5.5320   -0.8195 H   0  0  0  0  0  0  0  0  0  0  0  0
  1  2  1  0
  2  3  1  0
  3  4  1  0
  4  5  1  0
  5  6  1  0
  6  7  1  0
  7  8  1  0
  7  9  1  0
  2 10  1  0
 10 11  1  0
 11 12  1  0
 12 13  1  0
 13 14  1  6
 13 15  1  0
 15 16  1  0
 16 17  1  0
 17 18  2  0
 18 19  1  0
 19 20  1  0
 20 21  1  0
 21 22  1  0
 22 23  1  0
 22 24  1  0
 24 25  1  0
 24 26  1  0
 19 27  1  0
 27 28  1  1
 27 29  1  0
 29 30  1  0
 30 31  1  0
 31 32  1  6
  7  5  1  0
 31 10  1  0
 31 13  1  0
 27 15  1  0
 24 18  1  0
  1 33  1  0
  1 34  1  0
  1 35  1  0
  2 36  1  6
  3 37  1  0
  3 38  1  0
  4 39  1  0
  4 40  1  0
  5 41  1  1
  8 42  1  0
  8 43  1  0
  8 44  1  0
  9 45  1  0
  9 46  1  0
  9 47  1  0
 10 48  1  6
 11 49  1  0
 11 50  1  0
 12 51  1  0
 12 52  1  0
 14 53  1  0
 14 54  1  0
 14 55  1  0
 15 56  1  1
 16 57  1  0
 16 58  1  0
 17 59  1  0
 19 60  1  6
 20 61  1  0
 20 62  1  0
 21 63  1  0
 21 64  1  0
 22 65  1  6
 23 66  1  0
 25 67  1  0
 25 68  1  0
 25 69  1  0
 26 70  1  0
 26 71  1  0
 26 72  1  0
 28 73  1  0
 28 74  1  0
 28 75  1  0
 29 76  1  0
 29 77  1  0
 30 78  1  0
 30 79  1  0
 32 80  1  0
 32 81  1  0
 32 82  1  0
M  END
>  <meeko>  (18) 
{"is_sidechain": [false], "intermolecular_energy": 2.731, "internal_energy": -0.839}

$$$$
EPH_relaxed_0001_pdb2pqr_Repair_101_r2_0001_out
     RDKit          3D

 82 86  0  0  0  0  0  0  0  0999 V2000
   -4.9420    7.2540   -2.8980 C   0  0  0  0  0  0  0  0  0  0  0  0
   -4.5400    7.3550   -1.4240 C   0  0  2  0  0  0  0  0  0  0  0  0
   -5.7570    7.2560   -0.4820 C   0  0  0  0  0  0  0  0  0  0  0  0
   -7.0980    7.4900   -1.1820 C   0  0  0  0  0  0  0  0  0  0  0  0
   -8.2510    7.0330   -0.3400 C   0  0  2  0  0  0  0  0  0  0  0  0
   -8.9870    5.9280   -0.8800 O   0  0  0  0  0  0  0  0  0  0  0  0
   -9.7010    7.1690   -0.7630 C   0  0  0  0  0  0  0  0  0  0  0  0
  -10.0780    7.7810   -2.0750 C   0  0  0  0  0  0  0  0  0  0  0  0
  -10.7590    7.1570    0.2960 C   0  0  0  0  0  0  0  0  0  0  0  0
   -3.7950    8.6610   -1.1760 C   0  0  1  0  0  0  0  0  0  0  0  0
   -4.2580    9.3770    0.1210 C   0  0  0  0  0  0  0  0  0  0  0  0
   -3.0050   10.0620    0.7250 C   0  0  0  0  0  0  0  0  0  0  0  0
   -1.9470   10.0020   -0.4010 C   0  0  1  0  0  0  0  0  0  0  0  0
   -2.2990   11.1940   -1.3460 C   0  0  0  0  0  0  0  0  0  0  0  0
   -0.4520   10.0480    0.0530 C   0  0  2  0  0  0  0  0  0  0  0  0
   -0.0290   11.3370    0.7780 C   0  0  0  0  0  0  0  0  0  0  0  0
    0.4990   12.4210   -0.1040 C   0  0  0  0  0  0  0  0  0  0  0  0
    0.8950   12.2660   -1.3810 C   0  0  0  0  0  0  0  0  0  0  0  0
    0.9240   10.8780   -2.0340 C   0  0  1  0  0  0  0  0  0  0  0  0
    2.2680   10.6890   -2.7870 C   0  0  0  0  0  0  0  0  0  0  0  0
    2.5420   11.8090   -3.7850 C   0  0  0  0  0  0  0  0  0  0  0  0
    2.5630   13.1670   -3.0880 C   0  0  2  0  0  0  0  0  0  0  0  0
    3.6910   13.2180   -2.2090 O   0  0  0  0  0  0  0  0  0  0  0  0
    1.2630   13.4650   -2.2890 C   0  0  0  0  0  0  0  0  0  0  0  0
    0.0920   13.7090   -3.2720 C   0  0  0  0  0  0  0  0  0  0  0  0
    1.4710   14.7990   -1.5210 C   0  0  0  0  0  0  0  0  0  0  0  0
    0.5820    9.6550   -1.0790 C   0  0  1  0  0  0  0  0  0  0  0  0
    1.8740    9.1690   -0.3540 C   0  0  0  0  0  0  0  0  0  0  0  0
    0.0810    8.4450   -1.9530 C   0  0  0  0  0  0  0  0  0  0  0  0
   -1.4260    8.3920   -2.2680 C   0  0  0  0  0  0  0  0  0  0  0  0
   -2.2590    8.5810   -0.9960 C   0  0  2  0  0  0  0  0  0  0  0  0
   -1.9430    7.3840   -0.0350 C   0  0  0  0  0  0  0  0  0  0  0  0
   -6.0065    6.9865   -2.9702 H   0  0  0  0  0  0  0  0  0  0  0  0
   -4.7730    8.2225   -3.3914 H   0  0  0  0  0  0  0  0  0  0  0  0
   -4.3353    6.4804   -3.3914 H   0  0  0  0  0  0  0  0  0  0  0  0
   -3.8804    6.5031   -1.2024 H   0  0  0  0  0  0  0  0  0  0  0  0
   -5.7693    6.2509   -0.0351 H   0  0  0  0  0  0  0  0  0  0  0  0
   -5.6453    8.0493    0.2718 H   0  0  0  0  0  0  0  0  0  0  0  0
   -7.2103    8.5649   -1.3868 H   0  0  0  0  0  0  0  0  0  0  0  0
   -7.1034    6.9079   -2.1153 H   0  0  0  0  0  0  0  0  0  0  0  0
   -7.7211    7.3178    0.5809 H   0  0  0  0  0  0  0  0  0  0  0  0
  -10.6474    8.7054   -1.8983 H   0  0  0  0  0  0  0  0  0  0  0  0
   -9.1672    8.0149   -2.6457 H   0  0  0  0  0  0  0  0  0  0  0  0
  -10.6966    7.0727   -2.6457 H   0  0  0  0  0  0  0  0  0  0  0  0
  -10.2845    7.1624    1.2884 H   0  0  0  0  0  0  0  0  0  0  0  0
  -11.3951    8.0480    0.1889 H   0  0  0  0  0  0  0  0  0  0  0  0
  -11.3748    6.2518    0.1889 H   0  0  0  0  0  0  0  0  0  0  0  0
   -4.0371    9.1902   -2.1094 H   0  0  0  0  0  0  0  0  0  0  0  0
   -5.0247   10.1297   -0.1148 H   0  0  0  0  0  0  0  0  0  0  0  0
   -4.6984    8.6619    0.8314 H   0  0  0  0  0  0  0  0  0  0  0  0
   -3.2252   11.1052    0.9958 H   0  0  0  0  0  0  0  0  0  0  0  0
   -2.6625    9.5677    1.6461 H   0  0  0  0  0  0  0  0  0  0  0  0
   -2.5594   12.0759   -0.7424 H   0  0  0  0  0  0  0  0  0  0  0  0
   -1.4314   11.4273   -1.9807 H   0  0  0  0  0  0  0  0  0  0  0  0
   -3.1542   10.9186   -1.9807 H   0  0  0  0  0  0  0  0  0  0  0  0
   -0.4120    9.2525    0.8117 H   0  0  0  0  0  0  0  0  0  0  0  0
   -0.9066   11.7304    1.3119 H   0  0  0  0  0  0  0  0  0  0  0  0
    0.8006   11.0542    1.4427 H   0  0  0  0  0  0  0  0  0  0  0  0
    0.5701   13.4308    0.3264 H   0  0  0  0  0  0  0  0  0  0  0  0
    0.0889   10.8605   -2.7498 H   0  0  0  0  0  0  0  0  0  0  0  0
    3.0846   10.6656   -2.0504 H   0  0  0  0  0  0  0  0  0  0  0  0
    2.2047    9.7470   -3.3515 H   0  0  0  0  0  0  0  0  0  0  0  0
    3.5171   11.6346   -4.2632 H   0  0  0  0  0  0  0  0  0  0  0  0
    1.7399   11.8128   -4.5378 H   0  0  0  0  0  0  0  0  0  0  0  0
    2.6347   13.9377   -3.8696 H   0  0  0  0  0  0  0  0  0  0  0  0
    3.6300   14.0440   -1.7000 H   0  0  0  0  0  0  0  0  0  0  0  0
   -0.8299   13.9011   -2.7036 H   0  0  0  0  0  0  0  0  0  0  0  0
    0.3202   14.5789   -3.9054 H   0  0  0  0  0  0  0  0  0  0  0  0
   -0.0462   12.8204   -3.9054 H   0  0  0  0  0  0  0  0  0  0  0  0
    1.4411   14.6072   -0.4383 H   0  0  0  0  0  0  0  0  0  0  0  0
    2.4470   15.2289   -1.7904 H   0  0  0  0  0  0  0  0  0  0  0  0
    0.6722   15.5056   -1.7904 H   0  0  0  0  0  0  0  0  0  0  0  0
    1.7265    9.2245    0.7346 H   0  0  0  0  0  0  0  0  0  0  0  0
    2.0873    8.1292   -0.6426 H   0  0  0  0  0  0  0  0  0  0  0  0
    2.7197    9.8105   -0.6426 H   0  0  0  0  0  0  0  0  0  0  0  0
    0.6201    8.4810   -2.9112 H   0  0  0  0  0  0  0  0  0  0  0  0
    0.2795    7.5498   -1.3454 H   0  0  0  0  0  0  0  0  0  0  0  0
   -1.6728    9.1917   -2.9819 H   0  0  0  0  0  0  0  0  0  0  0  0
   -1.6602    7.4068   -2.6975 H   0  0  0  0  0  0  0  0  0  0  0  0
   -2.0314    7.7188    1.0091 H   0  0  0  0  0  0  0  0  0  0  0  0
   -2.6563    6.5673   -0.2198 H   0  0  0  0  0  0  0  0  0  0  0  0
   -0.9195    7.0258   -0.2198 H   0  0  0  0  0  0  0  0  0  0  0  0
  1  2  1  0
  2  3  1  0
  3  4  1  0
  4  5  1  0
  5  6  1  0
  6  7  1  0
  7  8  1  0
  7  9  1  0
  2 10  1  0
 10 11  1  0
 11 12  1  0
 12 13  1  0
 13 14  1  6
 13 15  1  0
 15 16  1  0
 16 17  1  0
 17 18  2  0
 18 19  1  0
 19 20  1  0
 20 21  1  0
 21 22  1  0
 22 23  1  0
 22 24  1  0
 24 25  1  0
 24 26  1  0
 19 27  1  0
 27 28  1  1
 27 29  1  0
 29 30  1  0
 30 31  1  0
 31 32  1  1
  7  5  1  0
 31 10  1  0
 31 13  1  0
 27 15  1  0
 24 18  1  0
  1 33  1  0
  1 34  1  0
  1 35  1  0
  2 36  1  1
  3 37  1  0
  3 38  1  0
  4 39  1  0
  4 40  1  0
  5 41  1  1
  8 42  1  0
  8 43  1  0
  8 44  1  0
  9 45  1  0
  9 46  1  0
  9 47  1  0
 10 48  1  6
 11 49  1  0
 11 50  1  0
 12 51  1  0
 12 52  1  0
 14 53  1  0
 14 54  1  0
 14 55  1  0
 15 56  1  1
 16 57  1  0
 16 58  1  0
 17 59  1  0
 19 60  1  6
 20 61  1  0
 20 62  1  0
 21 63  1  0
 21 64  1  0
 22 65  1  6
 23 66  1  0
 25 67  1  0
 25 68  1  0
 25 69  1  0
 26 70  1  0
 26 71  1  0
 26 72  1  0
 28 73  1  0
 28 74  1  0
 28 75  1  0
 29 76  1  0
 29 77  1  0
 30 78  1  0
 30 79  1  0
 32 80  1  0
 32 81  1  0
 32 82  1  0
M  END
>  <meeko>  (19) 
{"is_sidechain": [false], "intermolecular_energy": 2.731, "internal_energy": -0.839}

$$$$
EPH_relaxed_0001_pdb2pqr_Repair_101_r2_0001_out
     RDKit          3D

 82 86  0  0  0  0  0  0  0  0999 V2000
    2.7840   10.5410   -3.4880 C   0  0  0  0  0  0  0  0  0  0  0  0
    1.6650   10.3480   -2.4610 C   0  0  2  0  0  0  0  0  0  0  0  0
    0.3050   10.0630   -3.1290 C   0  0  0  0  0  0  0  0  0  0  0  0
   -0.5140    8.9810   -2.4200 C   0  0  0  0  0  0  0  0  0  0  0  0
   -0.4460    9.1220   -0.9290 C   0  0  2  0  0  0  0  0  0  0  0  0
   -1.6810    8.8690   -0.2470 O   0  0  0  0  0  0  0  0  0  0  0  0
   -1.1710   10.2090   -0.1570 C   0  0  0  0  0  0  0  0  0  0  0  0
   -2.0150   11.2290   -0.8530 C   0  0  0  0  0  0  0  0  0  0  0  0
   -0.6700   10.5740    1.2050 C   0  0  0  0  0  0  0  0  0  0  0  0
    1.5590   11.5800   -1.5700 C   0  0  1  0  0  0  0  0  0  0  0  0
    2.5480   11.5400   -0.3740 C   0  0  0  0  0  0  0  0  0  0  0  0
    3.0020   13.0000   -0.1200 C   0  0  0  0  0  0  0  0  0  0  0  0
    2.0210   13.8640   -0.9460 C   0  0  1  0  0  0  0  0  0  0  0  0
    0.7400   13.9740   -0.0600 C   0  0  0  0  0  0  0  0  0  0  0  0
    2.5400   15.2700   -1.3880 C   0  0  2  0  0  0  0  0  0  0  0  0
    2.8720   16.2350   -0.2350 C   0  0  0  0  0  0  0  0  0  0  0  0
    1.7440   17.1030    0.2140 C   0  0  0  0  0  0  0  0  0  0  0  0
    0.6020   17.3160   -0.4650 C   0  0  0  0  0  0  0  0  0  0  0  0
    0.3980   16.7270   -1.8670 C   0  0  1  0  0  0  0  0  0  0  0  0
   -0.1700   17.8200   -2.8100 C   0  0  0  0  0  0  0  0  0  0  0  0
   -1.4370   18.4670   -2.2590 C   0  0  0  0  0  0  0  0  0  0  0  0
   -1.1800   19.0910   -0.8910 C   0  0  2  0  0  0  0  0  0  0  0  0
   -0.2820   20.1950   -1.0490 O   0  0  0  0  0  0  0  0  0  0  0  0
   -0.5960   18.0870    0.1420 C   0  0  0  0  0  0  0  0  0  0  0  0
   -1.6840   17.0590    0.5400 C   0  0  0  0  0  0  0  0  0  0  0  0
   -0.2510   18.8750    1.4340 C   0  0  0  0  0  0  0  0  0  0  0  0
    1.6510   15.9730   -2.4910 C   0  0  1  0  0  0  0  0  0  0  0  0
    2.5740   16.9930   -3.2250 C   0  0  0  0  0  0  0  0  0  0  0  0
    1.1480   14.9620   -3.5880 C   0  0  0  0  0  0  0  0  0  0  0  0
    0.7620   13.5500   -3.1070 C   0  0  0  0  0  0  0  0  0  0  0  0
    1.8590   12.9550   -2.2190 C   0  0  2  0  0  0  0  0  0  0  0  0
    3.1540   12.8110   -3.0900 C   0  0  0  0  0  0  0  0  0  0  0  0
    3.7375   10.7055   -2.9648 H   0  0  0  0  0  0  0  0  0  0  0  0
    2.8619    9.6430   -4.1185 H   0  0  0  0  0  0  0  0  0  0  0  0
    2.5566   11.4132   -4.1185 H   0  0  0  0  0  0  0  0  0  0  0  0
    1.9238    9.4693   -1.8520 H   0  0  0  0  0  0  0  0  0  0  0  0
   -0.2809   10.9940   -3.1350 H   0  0  0  0  0  0  0  0  0  0  0  0
    0.5161    9.6935   -4.1434 H   0  0  0  0  0  0  0  0  0  0  0  0
   -1.5638    9.0626   -2.7383 H   0  0  0  0  0  0  0  0  0  0  0  0
   -0.0949    8.0008   -2.6912 H   0  0  0  0  0  0  0  0  0  0  0  0
    0.6011    8.7850   -0.9214 H   0  0  0  0  0  0  0  0  0  0  0  0
   -2.5296   11.8509   -0.1057 H   0  0  0  0  0  0  0  0  0  0  0  0
   -1.3761   11.8657   -1.4826 H   0  0  0  0  0  0  0  0  0  0  0  0
   -2.7600   10.7206   -1.4826 H   0  0  0  0  0  0  0  0  0  0  0  0
   -1.3102   10.1076    1.9683 H   0  0  0  0  0  0  0  0  0  0  0  0
    0.3631   10.2154    1.3239 H   0  0  0  0  0  0  0  0  0  0  0  0
   -0.6946   11.6673    1.3239 H   0  0  0  0  0  0  0  0  0  0  0  0
    0.4958   11.5173   -1.2948 H   0  0  0  0  0  0  0  0  0  0  0  0
    2.0465   11.1385    0.5189 H   0  0  0  0  0  0  0  0  0  0  0  0
    3.4087   10.8916   -0.5948 H   0  0  0  0  0  0  0  0  0  0  0  0
    2.9317   13.2479    0.9494 H   0  0  0  0  0  0  0  0  0  0  0  0
    4.0499   13.1669   -0.4098 H   0  0  0  0  0  0  0  0  0  0  0  0
    1.0255   13.9495    1.0020 H   0  0  0  0  0  0  0  0  0  0  0  0
    0.2229   14.9199   -0.2789 H   0  0  0  0  0  0  0  0  0  0  0  0
    0.0692   13.1302   -0.2789 H   0  0  0  0  0  0  0  0  0  0  0  0
    3.5024   15.0269   -1.8620 H   0  0  0  0  0  0  0  0  0  0  0  0
    3.2029   15.6353    0.6257 H   0  0  0  0  0  0  0  0  0  0  0  0
    3.6452   16.9157   -0.6207 H   0  0  0  0  0  0  0  0  0  0  0  0
    1.8557   17.6121    1.1827 H   0  0  0  0  0  0  0  0  0  0  0  0
   -0.3354   15.9152   -1.7526 H   0  0  0  0  0  0  0  0  0  0  0  0
    0.5937   18.5999   -2.9462 H   0  0  0  0  0  0  0  0  0  0  0  0
   -0.4293   17.3366   -3.7635 H   0  0  0  0  0  0  0  0  0  0  0  0
   -1.7730   19.2502   -2.9545 H   0  0  0  0  0  0  0  0  0  0  0  0
   -2.2092   17.6910   -2.1514 H   0  0  0  0  0  0  0  0  0  0  0  0
   -2.1506   19.4213   -0.4925 H   0  0  0  0  0  0  0  0  0  0  0  0
    0.1740   20.3270   -0.2000 H   0  0  0  0  0  0  0  0  0  0  0  0
   -1.7479   16.9987    1.6365 H   0  0  0  0  0  0  0  0  0  0  0  0
   -2.6553   17.3770    0.1331 H   0  0  0  0  0  0  0  0  0  0  0  0
   -1.4216   16.0713    0.1331 H   0  0  0  0  0  0  0  0  0  0  0  0
   -0.5157   18.2704    2.3140 H   0  0  0  0  0  0  0  0  0  0  0  0
    0.8264   19.0963    1.4518 H   0  0  0  0  0  0  0  0  0  0  0  0
   -0.8191   19.8168    1.4518 H   0  0  0  0  0  0  0  0  0  0  0  0
    3.1186   17.5949   -2.4826 H   0  0  0  0  0  0  0  0  0  0  0  0
    3.2932   16.4492   -3.8551 H   0  0  0  0  0  0  0  0  0  0  0  0
    1.9613   17.6545   -3.8551 H   0  0  0  0  0  0  0  0  0  0  0  0
    0.2619   15.4042   -4.0668 H   0  0  0  0  0  0  0  0  0  0  0  0
    2.0078   14.8128   -4.2577 H   0  0  0  0  0  0  0  0  0  0  0  0
   -0.1740   13.6089   -2.5321 H   0  0  0  0  0  0  0  0  0  0  0  0
    0.6330   12.9025   -3.9869 H   0  0  0  0  0  0  0  0  0  0  0  0
    4.0298   12.7136   -2.4316 H   0  0  0  0  0  0  0  0  0  0  0  0
    3.0713   11.9165   -3.7249 H   0  0  0  0  0  0  0  0  0  0  0  0
    3.2698   13.7018   -3.7249 H   0  0  0  0  0  0  0  0  0  0  0  0
  1  2  1  0
  2  3  1  0
  3  4  1  0
  4  5  1  0
  5  6  1  0
  6  7  1  0
  7  8  1  0
  7  9  1  0
  2 10  1  0
 10 11  1  0
 11 12  1  0
 12 13  1  0
 13 14  1  1
 13 15  1  0
 15 16  1  0
 16 17  1  0
 17 18  2  0
 18 19  1  0
 19 20  1  0
 20 21  1  0
 21 22  1  0
 22 23  1  0
 22 24  1  0
 24 25  1  0
 24 26  1  0
 19 27  1  0
 27 28  1  6
 27 29  1  0
 29 30  1  0
 30 31  1  0
 31 32  1  6
  7  5  1  0
 31 10  1  0
 31 13  1  0
 27 15  1  0
 24 18  1  0
  1 33  1  0
  1 34  1  0
  1 35  1  0
  2 36  1  1
  3 37  1  0
  3 38  1  0
  4 39  1  0
  4 40  1  0
  5 41  1  1
  8 42  1  0
  8 43  1  0
  8 44  1  0
  9 45  1  0
  9 46  1  0
  9 47  1  0
 10 48  1  1
 11 49  1  0
 11 50  1  0
 12 51  1  0
 12 52  1  0
 14 53  1  0
 14 54  1  0
 14 55  1  0
 15 56  1  6
 16 57  1  0
 16 58  1  0
 17 59  1  0
 19 60  1  1
 20 61  1  0
 20 62  1  0
 21 63  1  0
 21 64  1  0
 22 65  1  1
 23 66  1  0
 25 67  1  0
 25 68  1  0
 25 69  1  0
 26 70  1  0
 26 71  1  0
 26 72  1  0
 28 73  1  0
 28 74  1  0
 28 75  1  0
 29 76  1  0
 29 77  1  0
 30 78  1  0
 30 79  1  0
 32 80  1  0
 32 81  1  0
 32 82  1  0
M  END
>  <meeko>  (20) 
{"is_sidechain": [false], "intermolecular_energy": 2.731, "internal_energy": -0.839}

$$$$
