EPH_relaxed_0001_pdb2pqr_Repair_345_r2_0001_out
     RDKit          3D

 82 86  0  0  0  0  0  0  0  0999 V2000
   -1.7280    8.6700   -1.8480 C   0  0  0  0  0  0  0  0  0  0  0  0
   -2.1640    9.1840   -0.4730 C   0  0  2  0  0  0  0  0  0  0  0  0
   -3.6700    9.5130   -0.4260 C   0  0  0  0  0  0  0  0  0  0  0  0
   -4.5660    8.2780   -0.2950 C   0  0  0  0  0  0  0  0  0  0  0  0
   -5.2220    7.9290   -1.5970 C   0  0  2  0  0  0  0  0  0  0  0  0
   -6.3970    8.6910   -1.8980 O   0  0  0  0  0  0  0  0  0  0  0  0
   -6.5910    7.2820   -1.6960 C   0  0  0  0  0  0  0  0  0  0  0  0
   -7.3850    6.9450   -0.4740 C   0  0  0  0  0  0  0  0  0  0  0  0
   -6.9400    6.5360   -2.9460 C   0  0  0  0  0  0  0  0  0  0  0  0
   -1.3500   10.4170   -0.0970 C   0  0  1  0  0  0  0  0  0  0  0  0
   -0.4080   10.1650    1.1100 C   0  0  0  0  0  0  0  0  0  0  0  0
    0.8740   11.0000    0.8580 C   0  0  0  0  0  0  0  0  0  0  0  0
    0.4980   11.9520   -0.3010 C   0  0  1  0  0  0  0  0  0  0  0  0
   -0.2820   13.1220    0.3770 C   0  0  0  0  0  0  0  0  0  0  0  0
    1.6830   12.4790   -1.1750 C   0  0  2  0  0  0  0  0  0  0  0  0
    2.7180   13.3350   -0.4230 C   0  0  0  0  0  0  0  0  0  0  0  0
    2.4430   14.8030   -0.4110 C   0  0  0  0  0  0  0  0  0  0  0  0
    1.5720   15.4420   -1.2130 C   0  0  0  0  0  0  0  0  0  0  0  0
    0.8230   14.6900   -2.3210 C   0  0  1  0  0  0  0  0  0  0  0  0
    0.8880   15.5080   -3.6370 C   0  0  0  0  0  0  0  0  0  0  0  0
    0.3880   16.9390   -3.4630 C   0  0  0  0  0  0  0  0  0  0  0  0
    1.1950   17.6720   -2.3940 C   0  0  2  0  0  0  0  0  0  0  0  0
    2.5360   17.8410   -2.8640 O   0  0  0  0  0  0  0  0  0  0  0  0
    1.2100   16.9360   -1.0250 C   0  0  0  0  0  0  0  0  0  0  0  0
   -0.1940   17.0180   -0.3750 C   0  0  0  0  0  0  0  0  0  0  0  0
    2.1710   17.7050   -0.0800 C   0  0  0  0  0  0  0  0  0  0  0  0
    1.2350   13.1690   -2.5270 C   0  0  1  0  0  0  0  0  0  0  0  0
    2.4500   13.0730   -3.4990 C   0  0  0  0  0  0  0  0  0  0  0  0
    0.0480   12.4040   -3.2240 C   0  0  0  0  0  0  0  0  0  0  0  0
   -1.0290   11.8040   -2.3000 C   0  0  0  0  0  0  0  0  0  0  0  0
   -0.3900   10.9900   -1.1700 C   0  0  2  0  0  0  0  0  0  0  0  0
    0.3830    9.7930   -1.8210 C   0  0  0  0  0  0  0  0  0  0  0  0
   -1.0212    7.8368   -1.7208 H   0  0  0  0  0  0  0  0  0  0  0  0
   -2.6097    8.3210   -2.4055 H   0  0  0  0  0  0  0  0  0  0  0  0
   -1.2399    9.4830   -2.4055 H   0  0  0  0  0  0  0  0  0  0  0  0
   -1.9791    8.3798    0.2543 H   0  0  0  0  0  0  0  0  0  0  0  0
   -3.8553   10.1696    0.4369 H   0  0  0  0  0  0  0  0  0  0  0  0
   -3.9239    9.9945   -1.3819 H   0  0  0  0  0  0  0  0  0  0  0  0
   -3.9532    7.4262    0.0351 H   0  0  0  0  0  0  0  0  0  0  0  0
   -5.3552    8.5028    0.4375 H   0  0  0  0  0  0  0  0  0  0  0  0
   -4.2507    7.6732   -2.0454 H   0  0  0  0  0  0  0  0  0  0  0  0
   -6.7997    7.1934    0.4236 H   0  0  0  0  0  0  0  0  0  0  0  0
   -8.3205    7.5236   -0.4735 H   0  0  0  0  0  0  0  0  0  0  0  0
   -7.6187    5.8701   -0.4735 H   0  0  0  0  0  0  0  0  0  0  0  0
   -7.3925    5.5689   -2.6816 H   0  0  0  0  0  0  0  0  0  0  0  0
   -7.6555    7.1261   -3.5375 H   0  0  0  0  0  0  0  0  0  0  0  0
   -6.0285    6.3649   -3.5375 H   0  0  0  0  0  0  0  0  0  0  0  0
   -2.1681   11.1273    0.0934 H   0  0  0  0  0  0  0  0  0  0  0  0
   -0.8931   10.4877    2.0431 H   0  0  0  0  0  0  0  0  0  0  0  0
   -0.1700    9.0956    1.2091 H   0  0  0  0  0  0  0  0  0  0  0  0
    1.1479   11.5718    1.7569 H   0  0  0  0  0  0  0  0  0  0  0  0
    1.7416   10.3691    0.6148 H   0  0  0  0  0  0  0  0  0  0  0  0
   -0.2154   13.0220    1.4704 H   0  0  0  0  0  0  0  0  0  0  0  0
    0.1572   14.0824    0.0692 H   0  0  0  0  0  0  0  0  0  0  0  0
   -1.3374   13.0860    0.0692 H   0  0  0  0  0  0  0  0  0  0  0  0
    2.2052   11.5504   -1.4487 H   0  0  0  0  0  0  0  0  0  0  0  0
    2.7536   12.9872    0.6200 H   0  0  0  0  0  0  0  0  0  0  0  0
    3.6683   13.2075   -0.9622 H   0  0  0  0  0  0  0  0  0  0  0  0
    2.9998   15.4135    0.3151 H   0  0  0  0  0  0  0  0  0  0  0  0
   -0.2206   14.6100   -1.9825 H   0  0  0  0  0  0  0  0  0  0  0  0
    1.9322   15.5390   -3.9815 H   0  0  0  0  0  0  0  0  0  0  0  0
    0.2339   15.0131   -4.3699 H   0  0  0  0  0  0  0  0  0  0  0  0
    0.4872   17.4739   -4.4191 H   0  0  0  0  0  0  0  0  0  0  0  0
   -0.6654   16.9073   -3.1479 H   0  0  0  0  0  0  0  0  0  0  0  0
    0.7087   18.6436   -2.2221 H   0  0  0  0  0  0  0  0  0  0  0  0
    2.5920   17.4360   -3.7460 H   0  0  0  0  0  0  0  0  0  0  0  0
   -0.0919   17.0120    0.7202 H   0  0  0  0  0  0  0  0  0  0  0  0
   -0.6911   17.9467   -0.6919 H   0  0  0  0  0  0  0  0  0  0  0  0
   -0.7958   16.1535   -0.6919 H   0  0  0  0  0  0  0  0  0  0  0  0
    1.9049   17.4921    0.9659 H   0  0  0  0  0  0  0  0  0  0  0  0
    3.2058   17.3828   -0.2680 H   0  0  0  0  0  0  0  0  0  0  0  0
    2.0835   18.7853   -0.2680 H   0  0  0  0  0  0  0  0  0  0  0  0
    3.3804   12.9995   -2.9168 H   0  0  0  0  0  0  0  0  0  0  0  0
    2.3427   12.1805   -4.1330 H   0  0  0  0  0  0  0  0  0  0  0  0
    2.4842   13.9712   -4.1330 H   0  0  0  0  0  0  0  0  0  0  0  0
   -0.4517   13.1117   -3.9018 H   0  0  0  0  0  0  0  0  0  0  0  0
    0.5143   11.5407   -3.7213 H   0  0  0  0  0  0  0  0  0  0  0  0
   -1.6241   12.6198   -1.8638 H   0  0  0  0  0  0  0  0  0  0  0  0
   -1.6693   11.1361   -2.8949 H   0  0  0  0  0  0  0  0  0  0  0  0
    0.7977    9.1508   -1.0301 H   0  0  0  0  0  0  0  0  0  0  0  0
   -0.3075    9.2066   -2.4450 H   0  0  0  0  0  0  0  0  0  0  0  0
    1.2015   10.1811   -2.4450 H   0  0  0  0  0  0  0  0  0  0  0  0
  1  2  1  0
  2  3  1  0
  3  4  1  0
  4  5  1  0
  5  6  1  0
  6  7  1  0
  7  8  1  0
  7  9  1  0
  2 10  1  0
 10 11  1  0
 11 12  1  0
 12 13  1  0
 13 14  1  1
 13 15  1  0
 15 16  1  0
 16 17  1  0
 17 18  2  0
 18 19  1  0
 19 20  1  0
 20 21  1  0
 21 22  1  0
 22 23  1  0
 22 24  1  0
 24 25  1  0
 24 26  1  0
 19 27  1  0
 27 28  1  6
 27 29  1  0
 29 30  1  0
 30 31  1  0
 31 32  1  6
  7  5  1  0
 31 10  1  0
 31 13  1  0
 27 15  1  0
 24 18  1  0
  1 33  1  0
  1 34  1  0
  1 35  1  0
  2 36  1  1
  3 37  1  0
  3 38  1  0
  4 39  1  0
  4 40  1  0
  5 41  1  6
  8 42  1  0
  8 43  1  0
  8 44  1  0
  9 45  1  0
  9 46  1  0
  9 47  1  0
 10 48  1  1
 11 49  1  0
 11 50  1  0
 12 51  1  0
 12 52  1  0
 14 53  1  0
 14 54  1  0
 14 55  1  0
 15 56  1  6
 16 57  1  0
 16 58  1  0
 17 59  1  0
 19 60  1  1
 20 61  1  0
 20 62  1  0
 21 63  1  0
 21 64  1  0
 22 65  1  1
 23 66  1  0
 25 67  1  0
 25 68  1  0
 25 69  1  0
 26 70  1  0
 26 71  1  0
 26 72  1  0
 28 73  1  0
 28 74  1  0
 28 75  1  0
 29 76  1  0
 29 77  1  0
 30 78  1  0
 30 79  1  0
 32 80  1  0
 32 81  1  0
 32 82  1  0
M  END
>  <meeko>  (1) 
{"is_sidechain": [false], "intermolecular_energy": 2.731, "internal_energy": -0.839}

$$$$
EPH_relaxed_0001_pdb2pqr_Repair_345_r2_0001_out
     RDKit          3D

 82 86  0  0  0  0  0  0  0  0999 V2000
    2.3250   20.0230   -0.8810 C   0  0  0  0  0  0  0  0  0  0  0  0
    2.1180   19.0680    0.2980 C   0  0  2  0  0  0  0  0  0  0  0  0
    3.4550   18.5650    0.8790 C   0  0  0  0  0  0  0  0  0  0  0  0
    3.7180   19.0310    2.3130 C   0  0  0  0  0  0  0  0  0  0  0  0
    5.1820   19.0400    2.6340 C   0  0  2  0  0  0  0  0  0  0  0  0
    5.6160   17.9620    3.4740 O   0  0  0  0  0  0  0  0  0  0  0  0
    5.7310   19.2830    4.0280 C   0  0  0  0  0  0  0  0  0  0  0  0
    4.8240   19.5370    5.1910 C   0  0  0  0  0  0  0  0  0  0  0  0
    7.1440   19.7580    4.1670 C   0  0  0  0  0  0  0  0  0  0  0  0
    1.2600   17.8850   -0.1350 C   0  0  1  0  0  0  0  0  0  0  0  0
    0.2100   18.2710   -1.2110 C   0  0  0  0  0  0  0  0  0  0  0  0
    0.0660   17.0490   -2.1540 C   0  0  0  0  0  0  0  0  0  0  0  0
    0.7770   15.8950   -1.4090 C   0  0  1  0  0  0  0  0  0  0  0  0
   -0.2710   15.3790   -0.3750 C   0  0  0  0  0  0  0  0  0  0  0  0
    1.3290   14.7350   -2.3000 C   0  0  2  0  0  0  0  0  0  0  0  0
    0.2640   13.9540   -3.0890 C   0  0  0  0  0  0  0  0  0  0  0  0
   -0.3080   12.7670   -2.3870 C   0  0  0  0  0  0  0  0  0  0  0  0
    0.2160   12.1760   -1.2970 C   0  0  0  0  0  0  0  0  0  0  0  0
    1.5580   12.6410   -0.7170 C   0  0  1  0  0  0  0  0  0  0  0  0
    2.4480   11.4070   -0.4180 C   0  0  0  0  0  0  0  0  0  0  0  0
    1.7500   10.3840    0.4740 C   0  0  0  0  0  0  0  0  0  0  0  0
    0.4490    9.9020   -0.1640 C   0  0  2  0  0  0  0  0  0  0  0  0
    0.7630    9.1580   -1.3450 O   0  0  0  0  0  0  0  0  0  0  0  0
   -0.5240   11.0610   -0.5190 C   0  0  0  0  0  0  0  0  0  0  0  0
   -1.0990   11.6740    0.7820 C   0  0  0  0  0  0  0  0  0  0  0  0
   -1.7320   10.4520   -1.2820 C   0  0  0  0  0  0  0  0  0  0  0  0
    2.3230   13.7580   -1.5490 C   0  0  1  0  0  0  0  0  0  0  0  0
    3.2070   13.0920   -2.6470 C   0  0  0  0  0  0  0  0  0  0  0  0
    3.3090   14.5270   -0.5920 C   0  0  0  0  0  0  0  0  0  0  0  0
    2.7350   15.7380    0.1690 C   0  0  0  0  0  0  0  0  0  0  0  0
    1.9870   16.6780   -0.7810 C   0  0  2  0  0  0  0  0  0  0  0  0
    3.0210   17.2310   -1.8200 C   0  0  0  0  0  0  0  0  0  0  0  0
    2.5437   21.0320   -0.5015 H   0  0  0  0  0  0  0  0  0  0  0  0
    3.1678   19.6712   -1.4942 H   0  0  0  0  0  0  0  0  0  0  0  0
    1.4122   20.0517   -1.4942 H   0  0  0  0  0  0  0  0  0  0  0  0
    1.6032   19.6291    1.0918 H   0  0  0  0  0  0  0  0  0  0  0  0
    3.4465   17.4651    0.8675 H   0  0  0  0  0  0  0  0  0  0  0  0
    4.2556   18.9856    0.2528 H   0  0  0  0  0  0  0  0  0  0  0  0
    3.3201   20.0492    2.4355 H   0  0  0  0  0  0  0  0  0  0  0  0
    3.2214   18.3282    2.9981 H   0  0  0  0  0  0  0  0  0  0  0  0
    5.4181   19.4916    1.6592 H   0  0  0  0  0  0  0  0  0  0  0  0
    5.3779   19.3819    6.1286 H   0  0  0  0  0  0  0  0  0  0  0  0
    4.4559   20.5728    5.1496 H   0  0  0  0  0  0  0  0  0  0  0  0
    3.9715   18.8430    5.1496 H   0  0  0  0  0  0  0  0  0  0  0  0
    7.3988   19.8436    5.2337 H   0  0  0  0  0  0  0  0  0  0  0  0
    7.8219   19.0383    3.6847 H   0  0  0  0  0  0  0  0  0  0  0  0
    7.2495   20.7410    3.6847 H   0  0  0  0  0  0  0  0  0  0  0  0
    0.8406   17.5945    0.8395 H   0  0  0  0  0  0  0  0  0  0  0  0
   -0.7552   18.4975   -0.7344 H   0  0  0  0  0  0  0  0  0  0  0  0
    0.5261   19.1650   -1.7685 H   0  0  0  0  0  0  0  0  0  0  0  0
   -0.9947   16.8091   -2.3194 H   0  0  0  0  0  0  0  0  0  0  0  0
    0.5011   17.2350   -3.1470 H   0  0  0  0  0  0  0  0  0  0  0  0
    0.0994   15.5614    0.6446 H   0  0  0  0  0  0  0  0  0  0  0  0
   -1.2224   15.9117   -0.5203 H   0  0  0  0  0  0  0  0  0  0  0  0
   -0.4289   14.3001   -0.5203 H   0  0  0  0  0  0  0  0  0  0  0  0
    1.9203   15.2771   -3.0526 H   0  0  0  0  0  0  0  0  0  0  0  0
   -0.5619   14.6433   -3.3189 H   0  0  0  0  0  0  0  0  0  0  0  0
    0.7735   13.5627   -3.9819 H   0  0  0  0  0  0  0  0  0  0  0  0
   -1.2358   12.3394   -2.7949 H   0  0  0  0  0  0  0  0  0  0  0  0
    1.3191   13.1647    0.2204 H   0  0  0  0  0  0  0  0  0  0  0  0
    2.7113   10.9232   -1.3701 H   0  0  0  0  0  0  0  0  0  0  0  0
    3.3415   11.7616    0.1167 H   0  0  0  0  0  0  0  0  0  0  0  0
    2.4176    9.5229    0.6250 H   0  0  0  0  0  0  0  0  0  0  0  0
    1.5137   10.8606    1.4368 H   0  0  0  0  0  0  0  0  0  0  0  0
   -0.0687    9.2730    0.5752 H   0  0  0  0  0  0  0  0  0  0  0  0
    1.0810    9.7880   -2.0140 H   0  0  0  0  0  0  0  0  0  0  0  0
   -0.6391   11.1838    1.6527 H   0  0  0  0  0  0  0  0  0  0  0  0
   -0.8780   12.7513    0.8086 H   0  0  0  0  0  0  0  0  0  0  0  0
   -2.1882   11.5223    0.8086 H   0  0  0  0  0  0  0  0  0  0  0  0
   -2.4721   10.0789   -0.5588 H   0  0  0  0  0  0  0  0  0  0  0  0
   -2.1940   11.2249   -1.9138 H   0  0  0  0  0  0  0  0  0  0  0  0
   -1.3854    9.6209   -1.9138 H   0  0  0  0  0  0  0  0  0  0  0  0
    3.9983   12.4959   -2.1690 H   0  0  0  0  0  0  0  0  0  0  0  0
    2.5828   12.4378   -3.2734 H   0  0  0  0  0  0  0  0  0  0  0  0
    3.6637   13.8725   -3.2734 H   0  0  0  0  0  0  0  0  0  0  0  0
    3.6762   13.8080    0.1551 H   0  0  0  0  0  0  0  0  0  0  0  0
    4.0849   14.9428   -1.2516 H   0  0  0  0  0  0  0  0  0  0  0  0
    2.0396   15.3802    0.9426 H   0  0  0  0  0  0  0  0  0  0  0  0
    3.5681   16.2918    0.6265 H   0  0  0  0  0  0  0  0  0  0  0  0
    3.8695   17.6848   -1.2869 H   0  0  0  0  0  0  0  0  0  0  0  0
    3.3833   16.4063   -2.4513 H   0  0  0  0  0  0  0  0  0  0  0  0
    2.5362   17.9902   -2.4513 H   0  0  0  0  0  0  0  0  0  0  0  0
  1  2  1  0
  2  3  1  0
  3  4  1  0
  4  5  1  0
  5  6  1  0
  6  7  1  0
  7  8  1  0
  7  9  1  0
  2 10  1  0
 10 11  1  0
 11 12  1  0
 12 13  1  0
 13 14  1  1
 13 15  1  0
 15 16  1  0
 16 17  1  0
 17 18  2  0
 18 19  1  0
 19 20  1  0
 20 21  1  0
 21 22  1  0
 22 23  1  0
 22 24  1  0
 24 25  1  0
 24 26  1  0
 19 27  1  0
 27 28  1  6
 27 29  1  0
 29 30  1  0
 30 31  1  0
 31 32  1  6
  7  5  1  0
 31 10  1  0
 31 13  1  0
 27 15  1  0
 24 18  1  0
  1 33  1  0
  1 34  1  0
  1 35  1  0
  2 36  1  1
  3 37  1  0
  3 38  1  0
  4 39  1  0
  4 40  1  0
  5 41  1  6
  8 42  1  0
  8 43  1  0
  8 44  1  0
  9 45  1  0
  9 46  1  0
  9 47  1  0
 10 48  1  1
 11 49  1  0
 11 50  1  0
 12 51  1  0
 12 52  1  0
 14 53  1  0
 14 54  1  0
 14 55  1  0
 15 56  1  6
 16 57  1  0
 16 58  1  0
 17 59  1  0
 19 60  1  1
 20 61  1  0
 20 62  1  0
 21 63  1  0
 21 64  1  0
 22 65  1  1
 23 66  1  0
 25 67  1  0
 25 68  1  0
 25 69  1  0
 26 70  1  0
 26 71  1  0
 26 72  1  0
 28 73  1  0
 28 74  1  0
 28 75  1  0
 29 76  1  0
 29 77  1  0
 30 78  1  0
 30 79  1  0
 32 80  1  0
 32 81  1  0
 32 82  1  0
M  END
>  <meeko>  (2) 
{"is_sidechain": [false], "intermolecular_energy": 2.731, "internal_energy": -0.839}

$$$$
EPH_relaxed_0001_pdb2pqr_Repair_345_r2_0001_out
     RDKit          3D

 82 86  0  0  0  0  0  0  0  0999 V2000
    0.4280   18.4550   -0.0550 C   0  0  0  0  0  0  0  0  0  0  0  0
    1.5070   17.3870   -0.2520 C   0  0  2  0  0  0  0  0  0  0  0  0
    2.7370   17.9340   -1.0040 C   0  0  0  0  0  0  0  0  0  0  0  0
    3.9710   18.1160   -0.1160 C   0  0  0  0  0  0  0  0  0  0  0  0
    3.6010   18.5880    1.2580 C   0  0  2  0  0  0  0  0  0  0  0  0
    3.8310   19.9830    1.4940 O   0  0  0  0  0  0  0  0  0  0  0  0
    4.6150   19.0700    2.2790 C   0  0  0  0  0  0  0  0  0  0  0  0
    6.0790   19.1020    1.9690 C   0  0  0  0  0  0  0  0  0  0  0  0
    4.2390   19.0440    3.7270 C   0  0  0  0  0  0  0  0  0  0  0  0
    0.9260   16.1940   -1.0020 C   0  0  1  0  0  0  0  0  0  0  0  0
    0.7810   16.4580   -2.5240 C   0  0  0  0  0  0  0  0  0  0  0  0
    1.0640   15.1130   -3.2410 C   0  0  0  0  0  0  0  0  0  0  0  0
    1.0350   14.0560   -2.1120 C   0  0  1  0  0  0  0  0  0  0  0  0
   -0.4800   13.7580   -1.8810 C   0  0  0  0  0  0  0  0  0  0  0  0
    1.8470   12.7460   -2.3720 C   0  0  2  0  0  0  0  0  0  0  0  0
    1.3650   11.9050   -3.5670 C   0  0  0  0  0  0  0  0  0  0  0  0
    0.3380   10.8700   -3.2460 C   0  0  0  0  0  0  0  0  0  0  0  0
    0.0300   10.4310   -2.0110 C   0  0  0  0  0  0  0  0  0  0  0  0
    0.8140   10.9150   -0.7850 C   0  0  1  0  0  0  0  0  0  0  0  0
    1.1800    9.7000    0.1080 C   0  0  0  0  0  0  0  0  0  0  0  0
   -0.0380    8.8630    0.4860 C   0  0  0  0  0  0  0  0  0  0  0  0
   -0.7570    8.3520   -0.7590 C   0  0  2  0  0  0  0  0  0  0  0  0
    0.0940    7.4190   -1.4330 O   0  0  0  0  0  0  0  0  0  0  0  0
   -1.1670    9.4870   -1.7390 C   0  0  0  0  0  0  0  0  0  0  0  0
   -2.3130   10.3220   -1.1170 C   0  0  0  0  0  0  0  0  0  0  0  0
   -1.7550    8.8260   -3.0150 C   0  0  0  0  0  0  0  0  0  0  0  0
    2.0620   11.8510   -1.0850 C   0  0  1  0  0  0  0  0  0  0  0  0
    3.3270   10.9800   -1.3540 C   0  0  0  0  0  0  0  0  0  0  0  0
    2.3800   12.7110    0.1960 C   0  0  0  0  0  0  0  0  0  0  0  0
    1.6330   14.0510    0.3350 C   0  0  0  0  0  0  0  0  0  0  0  0
    1.7270   14.8680   -0.9570 C   0  0  2  0  0  0  0  0  0  0  0  0
    3.2370   15.2010   -1.2050 C   0  0  0  0  0  0  0  0  0  0  0  0
    0.2644   18.6169    1.0207 H   0  0  0  0  0  0  0  0  0  0  0  0
    0.7540   19.3961   -0.5221 H   0  0  0  0  0  0  0  0  0  0  0  0
   -0.5097   18.1194   -0.5221 H   0  0  0  0  0  0  0  0  0  0  0  0
    1.8450   17.0708    0.7459 H   0  0  0  0  0  0  0  0  0  0  0  0
    2.9909   17.2316   -1.8116 H   0  0  0  0  0  0  0  0  0  0  0  0
    2.4648   18.9298   -1.3838 H   0  0  0  0  0  0  0  0  0  0  0  0
    4.4954   17.1526   -0.0327 H   0  0  0  0  0  0  0  0  0  0  0  0
    4.6164   18.8777   -0.5779 H   0  0  0  0  0  0  0  0  0  0  0  0
    2.7876   17.8498    1.3178 H   0  0  0  0  0  0  0  0  0  0  0  0
    6.6524   19.1145    2.9077 H   0  0  0  0  0  0  0  0  0  0  0  0
    6.3499   18.2096    1.3858 H   0  0  0  0  0  0  0  0  0  0  0  0
    6.3106   20.0054    1.3858 H   0  0  0  0  0  0  0  0  0  0  0  0
    5.1481   19.1069    4.3431 H   0  0  0  0  0  0  0  0  0  0  0  0
    3.5843   19.8990    3.9512 H   0  0  0  0  0  0  0  0  0  0  0  0
    3.7082   18.1070    3.9512 H   0  0  0  0  0  0  0  0  0  0  0  0
   -0.0238   16.0792   -0.4591 H   0  0  0  0  0  0  0  0  0  0  0  0
   -0.2383   16.8021   -2.7532 H   0  0  0  0  0  0  0  0  0  0  0  0
    1.4811   17.2380   -2.8577 H   0  0  0  0  0  0  0  0  0  0  0  0
    0.2875   14.9017   -3.9909 H   0  0  0  0  0  0  0  0  0  0  0  0
    2.0226   15.1212   -3.7805 H   0  0  0  0  0  0  0  0  0  0  0  0
   -0.6852   13.7176   -0.8011 H   0  0  0  0  0  0  0  0  0  0  0  0
   -1.0844   14.5545   -2.3396 H   0  0  0  0  0  0  0  0  0  0  0  0
   -0.7378   12.7919   -2.3396 H   0  0  0  0  0  0  0  0  0  0  0  0
    2.8350   13.1346   -2.6599 H   0  0  0  0  0  0  0  0  0  0  0  0
    0.9357   12.5897   -4.3133 H   0  0  0  0  0  0  0  0  0  0  0  0
    2.2472   11.3562   -3.9283 H   0  0  0  0  0  0  0  0  0  0  0  0
   -0.2134   10.4290   -4.0895 H   0  0  0  0  0  0  0  0  0  0  0  0
    0.1384   11.5895   -0.2385 H   0  0  0  0  0  0  0  0  0  0  0  0
    1.8902    9.0621   -0.4385 H   0  0  0  0  0  0  0  0  0  0  0  0
    1.6186   10.0899    1.0384 H   0  0  0  0  0  0  0  0  0  0  0  0
    0.2891    8.0042    1.0906 H   0  0  0  0  0  0  0  0  0  0  0  0
   -0.7335    9.4943    1.0585 H   0  0  0  0  0  0  0  0  0  0  0  0
   -1.6893    7.8716   -0.4273 H   0  0  0  0  0  0  0  0  0  0  0  0
    0.4920    7.8790   -2.1910 H   0  0  0  0  0  0  0  0  0  0  0  0
   -2.2477   10.2744   -0.0200 H   0  0  0  0  0  0  0  0  0  0  0  0
   -2.2238   11.3683   -1.4446 H   0  0  0  0  0  0  0  0  0  0  0  0
   -3.2816    9.9165   -1.4446 H   0  0  0  0  0  0  0  0  0  0  0  0
   -2.4603    8.0331   -2.7254 H   0  0  0  0  0  0  0  0  0  0  0  0
   -2.2817    9.5852   -3.6118 H   0  0  0  0  0  0  0  0  0  0  0  0
   -0.9396    8.3914   -3.6118 H   0  0  0  0  0  0  0  0  0  0  0  0
    3.7718   10.6737   -0.3957 H   0  0  0  0  0  0  0  0  0  0  0  0
    3.0414   10.0862   -1.9280 H   0  0  0  0  0  0  0  0  0  0  0  0
    4.0601   11.5657   -1.9280 H   0  0  0  0  0  0  0  0  0  0  0  0
    2.1340   12.0998    1.0768 H   0  0  0  0  0  0  0  0  0  0  0  0
    3.4424   12.9814    0.1052 H   0  0  0  0  0  0  0  0  0  0  0  0
    0.5745   13.8514    0.5582 H   0  0  0  0  0  0  0  0  0  0  0  0
    2.0962   14.6278    1.1490 H   0  0  0  0  0  0  0  0  0  0  0  0
    3.7509   15.3143   -0.2391 H   0  0  0  0  0  0  0  0  0  0  0  0
    3.7038   14.3842   -1.7751 H   0  0  0  0  0  0  0  0  0  0  0  0
    3.3169   16.1384   -1.7751 H   0  0  0  0  0  0  0  0  0  0  0  0
  1  2  1  0
  2  3  1  0
  3  4  1  0
  4  5  1  0
  5  6  1  0
  6  7  1  0
  7  8  1  0
  7  9  1  0
  2 10  1  0
 10 11  1  0
 11 12  1  0
 12 13  1  0
 13 14  1  1
 13 15  1  0
 15 16  1  0
 16 17  1  0
 17 18  2  0
 18 19  1  0
 19 20  1  0
 20 21  1  0
 21 22  1  0
 22 23  1  0
 22 24  1  0
 24 25  1  0
 24 26  1  0
 19 27  1  0
 27 28  1  6
 27 29  1  0
 29 30  1  0
 30 31  1  0
 31 32  1  6
  7  5  1  0
 31 10  1  0
 31 13  1  0
 27 15  1  0
 24 18  1  0
  1 33  1  0
  1 34  1  0
  1 35  1  0
  2 36  1  1
  3 37  1  0
  3 38  1  0
  4 39  1  0
  4 40  1  0
  5 41  1  1
  8 42  1  0
  8 43  1  0
  8 44  1  0
  9 45  1  0
  9 46  1  0
  9 47  1  0
 10 48  1  1
 11 49  1  0
 11 50  1  0
 12 51  1  0
 12 52  1  0
 14 53  1  0
 14 54  1  0
 14 55  1  0
 15 56  1  6
 16 57  1  0
 16 58  1  0
 17 59  1  0
 19 60  1  1
 20 61  1  0
 20 62  1  0
 21 63  1  0
 21 64  1  0
 22 65  1  1
 23 66  1  0
 25 67  1  0
 25 68  1  0
 25 69  1  0
 26 70  1  0
 26 71  1  0
 26 72  1  0
 28 73  1  0
 28 74  1  0
 28 75  1  0
 29 76  1  0
 29 77  1  0
 30 78  1  0
 30 79  1  0
 32 80  1  0
 32 81  1  0
 32 82  1  0
M  END
>  <meeko>  (3) 
{"is_sidechain": [false], "intermolecular_energy": 2.731, "internal_energy": -0.839}

$$$$
EPH_relaxed_0001_pdb2pqr_Repair_345_r2_0001_out
     RDKit          3D

 82 86  0  0  0  0  0  0  0  0999 V2000
    2.4210   17.9640   -2.7160 C   0  0  0  0  0  0  0  0  0  0  0  0
    1.1270   17.5980   -1.9840 C   0  0  2  0  0  0  0  0  0  0  0  0
    1.2940   17.6450   -0.4510 C   0  0  0  0  0  0  0  0  0  0  0  0
    1.0130   19.0220    0.1560 C   0  0  0  0  0  0  0  0  0  0  0  0
   -0.4210   19.1640    0.5670 C   0  0  2  0  0  0  0  0  0  0  0  0
   -1.3110   18.2100   -0.0270 O   0  0  0  0  0  0  0  0  0  0  0  0
   -1.5260   19.5850   -0.3840 C   0  0  0  0  0  0  0  0  0  0  0  0
   -1.2430   19.8920   -1.8210 C   0  0  0  0  0  0  0  0  0  0  0  0
   -2.7800   20.1680    0.1890 C   0  0  0  0  0  0  0  0  0  0  0  0
    0.6600   16.2120   -2.4140 C   0  0  1  0  0  0  0  0  0  0  0  0
    0.7470   16.0030   -3.9500 C   0  0  0  0  0  0  0  0  0  0  0  0
    1.1280   14.5180   -4.1780 C   0  0  0  0  0  0  0  0  0  0  0  0
    0.9240   13.8470   -2.8000 C   0  0  1  0  0  0  0  0  0  0  0  0
   -0.6090   13.5700   -2.7110 C   0  0  0  0  0  0  0  0  0  0  0  0
    1.7600   12.5530   -2.5310 C   0  0  2  0  0  0  0  0  0  0  0  0
    1.4600   11.3740   -3.4720 C   0  0  0  0  0  0  0  0  0  0  0  0
    0.3910   10.4420   -3.0070 C   0  0  0  0  0  0  0  0  0  0  0  0
   -0.1020   10.3800   -1.7560 C   0  0  0  0  0  0  0  0  0  0  0  0
    0.4900   11.2400   -0.6320 C   0  0  1  0  0  0  0  0  0  0  0  0
    0.7130   10.3640    0.6290 C   0  0  0  0  0  0  0  0  0  0  0  0
   -0.5530    9.6300    1.0620 C   0  0  0  0  0  0  0  0  0  0  0  0
   -1.0780    8.7410   -0.0620 C   0  0  2  0  0  0  0  0  0  0  0  0
   -0.1400    7.6850   -0.2910 O   0  0  0  0  0  0  0  0  0  0  0  0
   -1.3310    9.5130   -1.3870 C   0  0  0  0  0  0  0  0  0  0  0  0
   -2.5540   10.4480   -1.2200 C   0  0  0  0  0  0  0  0  0  0  0  0
   -1.7220    8.4770   -2.4760 C   0  0  0  0  0  0  0  0  0  0  0  0
    1.7750   12.0940   -1.0160 C   0  0  1  0  0  0  0  0  0  0  0  0
    3.0620   11.2350   -0.8240 C   0  0  0  0  0  0  0  0  0  0  0  0
    1.9000   13.3100   -0.0240 C   0  0  0  0  0  0  0  0  0  0  0  0
    1.1470   14.5990   -0.4050 C   0  0  0  0  0  0  0  0  0  0  0  0
    1.4380   14.9940   -1.8560 C   0  0  2  0  0  0  0  0  0  0  0  0
    2.9710   15.3000   -1.9710 C   0  0  0  0  0  0  0  0  0  0  0  0
    3.2080   18.1866   -1.9804 H   0  0  0  0  0  0  0  0  0  0  0  0
    2.7368   17.1199   -3.3467 H   0  0  0  0  0  0  0  0  0  0  0  0
    2.2479   18.8484   -3.3467 H   0  0  0  0  0  0  0  0  0  0  0  0
    0.3693   18.3471   -2.2574 H   0  0  0  0  0  0  0  0  0  0  0  0
    0.5987   16.9196   -0.0034 H   0  0  0  0  0  0  0  0  0  0  0  0
    2.3458   17.4064   -0.2344 H   0  0  0  0  0  0  0  0  0  0  0  0
    1.6526   19.1591    1.0404 H   0  0  0  0  0  0  0  0  0  0  0  0
    1.2280   19.7839   -0.6077 H   0  0  0  0  0  0  0  0  0  0  0  0
   -0.1246   19.5290    1.5614 H   0  0  0  0  0  0  0  0  0  0  0  0
   -0.4987   20.6995   -1.8837 H   0  0  0  0  0  0  0  0  0  0  0  0
   -0.8508   18.9924   -2.3178 H   0  0  0  0  0  0  0  0  0  0  0  0
   -2.1715   20.2098   -2.3178 H   0  0  0  0  0  0  0  0  0  0  0  0
   -2.7272   20.1434    1.2875 H   0  0  0  0  0  0  0  0  0  0  0  0
   -2.8885   21.2089   -0.1497 H   0  0  0  0  0  0  0  0  0  0  0  0
   -3.6458   19.5801   -0.1497 H   0  0  0  0  0  0  0  0  0  0  0  0
   -0.3607   16.2257   -2.0042 H   0  0  0  0  0  0  0  0  0  0  0  0
   -0.2245   16.2210   -4.4176 H   0  0  0  0  0  0  0  0  0  0  0  0
    1.4929   16.6756   -4.3986 H   0  0  0  0  0  0  0  0  0  0  0  0
    0.4724   14.0605   -4.9336 H   0  0  0  0  0  0  0  0  0  0  0  0
    2.1571   14.4036   -4.5494 H   0  0  0  0  0  0  0  0  0  0  0  0
   -0.9110   13.5154   -1.6547 H   0  0  0  0  0  0  0  0  0  0  0  0
   -1.1580   14.3835   -3.2078 H   0  0  0  0  0  0  0  0  0  0  0  0
   -0.8386   12.6158   -3.2078 H   0  0  0  0  0  0  0  0  0  0  0  0
    2.7818   12.8780   -2.7767 H   0  0  0  0  0  0  0  0  0  0  0  0
    1.1525   11.7854   -4.4447 H   0  0  0  0  0  0  0  0  0  0  0  0
    2.3838   10.7785   -3.5171 H   0  0  0  0  0  0  0  0  0  0  0  0
   -0.0294    9.7473   -3.7491 H   0  0  0  0  0  0  0  0  0  0  0  0
   -0.2583   12.0175   -0.4186 H   0  0  0  0  0  0  0  0  0  0  0  0
    1.4937    9.6210    0.4088 H   0  0  0  0  0  0  0  0  0  0  0  0
    1.0102   11.0314    1.4513 H   0  0  0  0  0  0  0  0  0  0  0  0
   -0.3255    9.0057    1.9386 H   0  0  0  0  0  0  0  0  0  0  0  0
   -1.3236   10.3746    1.3105 H   0  0  0  0  0  0  0  0  0  0  0  0
   -2.0521    8.3438    0.2594 H   0  0  0  0  0  0  0  0  0  0  0  0
   -0.5480    6.8570    0.0160 H   0  0  0  0  0  0  0  0  0  0  0  0
   -2.7547   10.6015   -0.1494 H   0  0  0  0  0  0  0  0  0  0  0  0
   -2.3425   11.4169   -1.6960 H   0  0  0  0  0  0  0  0  0  0  0  0
   -3.4335    9.9898   -1.6960 H   0  0  0  0  0  0  0  0  0  0  0  0
   -2.0711    7.5521   -1.9937 H   0  0  0  0  0  0  0  0  0  0  0  0
   -2.5262    8.8897   -3.1028 H   0  0  0  0  0  0  0  0  0  0  0  0
   -0.8456    8.2554   -3.1028 H   0  0  0  0  0  0  0  0  0  0  0  0
    3.2584   11.1039    0.2503 H   0  0  0  0  0  0  0  0  0  0  0  0
    2.9192   10.2505   -1.2934 H   0  0  0  0  0  0  0  0  0  0  0  0
    3.9164   11.7446   -1.2934 H   0  0  0  0  0  0  0  0  0  0  0  0
    1.5216   12.9808    0.9550 H   0  0  0  0  0  0  0  0  0  0  0  0
    2.9651   13.5845   -0.0387 H   0  0  0  0  0  0  0  0  0  0  0  0
    0.0661   14.4328   -0.2870 H   0  0  0  0  0  0  0  0  0  0  0  0
    1.4854   15.4115    0.2548 H   0  0  0  0  0  0  0  0  0  0  0  0
    3.4042   15.3865   -0.9636 H   0  0  0  0  0  0  0  0  0  0  0  0
    3.4681   14.4834   -2.5150 H   0  0  0  0  0  0  0  0  0  0  0  0
    3.1165   16.2449   -2.5150 H   0  0  0  0  0  0  0  0  0  0  0  0
  1  2  1  0
  2  3  1  0
  3  4  1  0
  4  5  1  0
  5  6  1  0
  6  7  1  0
  7  8  1  0
  7  9  1  0
  2 10  1  0
 10 11  1  0
 11 12  1  0
 12 13  1  0
 13 14  1  1
 13 15  1  0
 15 16  1  0
 16 17  1  0
 17 18  2  0
 18 19  1  0
 19 20  1  0
 20 21  1  0
 21 22  1  0
 22 23  1  0
 22 24  1  0
 24 25  1  0
 24 26  1  0
 19 27  1  0
 27 28  1  6
 27 29  1  0
 29 30  1  0
 30 31  1  0
 31 32  1  1
  7  5  1  0
 31 10  1  0
 31 13  1  0
 27 15  1  0
 24 18  1  0
  1 33  1  0
  1 34  1  0
  1 35  1  0
  2 36  1  1
  3 37  1  0
  3 38  1  0
  4 39  1  0
  4 40  1  0
  5 41  1  1
  8 42  1  0
  8 43  1  0
  8 44  1  0
  9 45  1  0
  9 46  1  0
  9 47  1  0
 10 48  1  1
 11 49  1  0
 11 50  1  0
 12 51  1  0
 12 52  1  0
 14 53  1  0
 14 54  1  0
 14 55  1  0
 15 56  1  6
 16 57  1  0
 16 58  1  0
 17 59  1  0
 19 60  1  1
 20 61  1  0
 20 62  1  0
 21 63  1  0
 21 64  1  0
 22 65  1  1
 23 66  1  0
 25 67  1  0
 25 68  1  0
 25 69  1  0
 26 70  1  0
 26 71  1  0
 26 72  1  0
 28 73  1  0
 28 74  1  0
 28 75  1  0
 29 76  1  0
 29 77  1  0
 30 78  1  0
 30 79  1  0
 32 80  1  0
 32 81  1  0
 32 82  1  0
M  END
>  <meeko>  (4) 
{"is_sidechain": [false], "intermolecular_energy": 2.731, "internal_energy": -0.839}

$$$$
EPH_relaxed_0001_pdb2pqr_Repair_345_r2_0001_out
     RDKit          3D

 82 86  0  0  0  0  0  0  0  0999 V2000
    3.7780   18.0930    0.5760 C   0  0  0  0  0  0  0  0  0  0  0  0
    2.7350   18.6000   -0.4230 C   0  0  2  0  0  0  0  0  0  0  0  0
    1.9950   19.8500    0.0940 C   0  0  0  0  0  0  0  0  0  0  0  0
    0.8050   19.5280    1.0030 C   0  0  0  0  0  0  0  0  0  0  0  0
   -0.4670   20.1280    0.4850 C   0  0  2  0  0  0  0  0  0  0  0  0
   -1.5430   20.1590    1.4320 O   0  0  0  0  0  0  0  0  0  0  0  0
   -1.7410   19.3320    0.2730 C   0  0  0  0  0  0  0  0  0  0  0  0
   -1.8060   17.8680    0.5740 C   0  0  0  0  0  0  0  0  0  0  0  0
   -2.7670   19.8650   -0.6780 C   0  0  0  0  0  0  0  0  0  0  0  0
    1.7340   17.4940   -0.7370 C   0  0  1  0  0  0  0  0  0  0  0  0
    0.7150   17.9040   -1.8330 C   0  0  0  0  0  0  0  0  0  0  0  0
    0.4070   16.6270   -2.6570 C   0  0  0  0  0  0  0  0  0  0  0  0
    0.9920   15.4690   -1.8150 C   0  0  1  0  0  0  0  0  0  0  0  0
   -0.0890   15.1790   -0.7270 C   0  0  0  0  0  0  0  0  0  0  0  0
    1.3840   14.1750   -2.5990 C   0  0  2  0  0  0  0  0  0  0  0  0
    0.2170   13.4590   -3.3020 C   0  0  0  0  0  0  0  0  0  0  0  0
   -0.4760   12.4180   -2.4870 C   0  0  0  0  0  0  0  0  0  0  0  0
   -0.0040   11.8700   -1.3520 C   0  0  0  0  0  0  0  0  0  0  0  0
    1.3960   12.2220   -0.8310 C   0  0  1  0  0  0  0  0  0  0  0  0
    2.1390   10.9220   -0.4280 C   0  0  0  0  0  0  0  0  0  0  0  0
    1.3440   10.0750    0.5620 C   0  0  0  0  0  0  0  0  0  0  0  0
   -0.0180    9.6970   -0.0150 C   0  0  2  0  0  0  0  0  0  0  0  0
    0.1810    8.8170   -1.1250 O   0  0  0  0  0  0  0  0  0  0  0  0
   -0.8550   10.9270   -0.4660 C   0  0  0  0  0  0  0  0  0  0  0  0
   -1.3250   11.7210    0.7770 C   0  0  0  0  0  0  0  0  0  0  0  0
   -2.1410   10.4010   -1.1580 C   0  0  0  0  0  0  0  0  0  0  0  0
    2.2700   13.1580   -1.7710 C   0  0  1  0  0  0  0  0  0  0  0  0
    3.0460   12.2940   -2.8110 C   0  0  0  0  0  0  0  0  0  0  0  0
    3.3600   13.8880   -0.8990 C   0  0  0  0  0  0  0  0  0  0  0  0
    2.9500   15.2230   -0.2490 C   0  0  0  0  0  0  0  0  0  0  0  0
    2.2990   16.1560   -1.2740 C   0  0  2  0  0  0  0  0  0  0  0  0
    3.3690   16.4830   -2.3700 C   0  0  0  0  0  0  0  0  0  0  0  0
    3.4191   18.2675    1.6011 H   0  0  0  0  0  0  0  0  0  0  0  0
    3.9396   17.0158    0.4224 H   0  0  0  0  0  0  0  0  0  0  0  0
    4.7249   18.6314    0.4224 H   0  0  0  0  0  0  0  0  0  0  0  0
    3.2690   18.8887   -1.3404 H   0  0  0  0  0  0  0  0  0  0  0  0
    2.7083   20.4664    0.6607 H   0  0  0  0  0  0  0  0  0  0  0  0
    1.5949   20.3742   -0.7864 H   0  0  0  0  0  0  0  0  0  0  0  0
    0.6862   18.4360    1.0612 H   0  0  0  0  0  0  0  0  0  0  0  0
    1.0065   19.9562    1.9960 H   0  0  0  0  0  0  0  0  0  0  0  0
    0.0937   20.8110   -0.1701 H   0  0  0  0  0  0  0  0  0  0  0  0
   -1.8127   17.7176    1.6637 H   0  0  0  0  0  0  0  0  0  0  0  0
   -2.7238   17.4448    0.1398 H   0  0  0  0  0  0  0  0  0  0  0  0
   -0.9293   17.3651    0.1398 H   0  0  0  0  0  0  0  0  0  0  0  0
   -3.6029   20.2993   -0.1100 H   0  0  0  0  0  0  0  0  0  0  0  0
   -2.3119   20.6407   -1.3114 H   0  0  0  0  0  0  0  0  0  0  0  0
   -3.1400   19.0467   -1.3114 H   0  0  0  0  0  0  0  0  0  0  0  0
    1.3029   17.3455    0.2641 H   0  0  0  0  0  0  0  0  0  0  0  0
   -0.2061   18.2873   -1.3696 H   0  0  0  0  0  0  0  0  0  0  0  0
    1.1229   18.6992   -2.4742 H   0  0  0  0  0  0  0  0  0  0  0  0
   -0.6779   16.5020   -2.7885 H   0  0  0  0  0  0  0  0  0  0  0  0
    0.8397   16.6681   -3.6675 H   0  0  0  0  0  0  0  0  0  0  0  0
    0.3553   15.2982    0.2722 H   0  0  0  0  0  0  0  0  0  0  0  0
   -0.9248   15.8847   -0.8432 H   0  0  0  0  0  0  0  0  0  0  0  0
   -0.4593   14.1498   -0.8432 H   0  0  0  0  0  0  0  0  0  0  0  0
    2.0205   14.5715   -3.4038 H   0  0  0  0  0  0  0  0  0  0  0  0
   -0.5261   14.2186   -3.5862 H   0  0  0  0  0  0  0  0  0  0  0  0
    0.6571   12.9304   -4.1604 H   0  0  0  0  0  0  0  0  0  0  0  0
   -1.4560   12.0690   -2.8445 H   0  0  0  0  0  0  0  0  0  0  0  0
    1.2413   12.8541    0.0558 H   0  0  0  0  0  0  0  0  0  0  0  0
    2.3226   10.3258   -1.3340 H   0  0  0  0  0  0  0  0  0  0  0  0
    3.0792   11.2139    0.0628 H   0  0  0  0  0  0  0  0  0  0  0  0
    1.9080    9.1572    0.7849 H   0  0  0  0  0  0  0  0  0  0  0  0
    1.1866   10.6616    1.4791 H   0  0  0  0  0  0  0  0  0  0  0  0
   -0.5908    9.2047    0.7848 H   0  0  0  0  0  0  0  0  0  0  0  0
    1.0010    9.0860   -1.5720 H   0  0  0  0  0  0  0  0  0  0  0  0
   -1.0121   11.1925    1.6896 H   0  0  0  0  0  0  0  0  0  0  0  0
   -0.8755   12.7249    0.7623 H   0  0  0  0  0  0  0  0  0  0  0  0
   -2.4213   11.8099    0.7623 H   0  0  0  0  0  0  0  0  0  0  0  0
   -2.8727   10.1017   -0.3931 H   0  0  0  0  0  0  0  0  0  0  0  0
   -2.5708   11.1956   -1.7856 H   0  0  0  0  0  0  0  0  0  0  0  0
   -1.8908    9.5330   -1.7856 H   0  0  0  0  0  0  0  0  0  0  0  0
    3.6908   11.5761   -2.2830 H   0  0  0  0  0  0  0  0  0  0  0  0
    2.3292   11.7480   -3.4419 H   0  0  0  0  0  0  0  0  0  0  0  0
    3.6656   12.9483   -3.4419 H   0  0  0  0  0  0  0  0  0  0  0  0
    3.6547   13.2015   -0.0916 H   0  0  0  0  0  0  0  0  0  0  0  0
    4.1657   14.1458   -1.6022 H   0  0  0  0  0  0  0  0  0  0  0  0
    2.2336   15.0233    0.5615 H   0  0  0  0  0  0  0  0  0  0  0  0
    3.8527   15.7120    0.1460 H   0  0  0  0  0  0  0  0  0  0  0  0
    4.3135   16.7717   -1.8857 H   0  0  0  0  0  0  0  0  0  0  0  0
    3.5350   15.5946   -2.9970 H   0  0  0  0  0  0  0  0  0  0  0  0
    3.0100   17.3124   -2.9970 H   0  0  0  0  0  0  0  0  0  0  0  0
  1  2  1  0
  2  3  1  0
  3  4  1  0
  4  5  1  0
  5  6  1  0
  6  7  1  0
  7  8  1  0
  7  9  1  0
  2 10  1  0
 10 11  1  0
 11 12  1  0
 12 13  1  0
 13 14  1  1
 13 15  1  0
 15 16  1  0
 16 17  1  0
 17 18  2  0
 18 19  1  0
 19 20  1  0
 20 21  1  0
 21 22  1  0
 22 23  1  0
 22 24  1  0
 24 25  1  0
 24 26  1  0
 19 27  1  0
 27 28  1  6
 27 29  1  0
 29 30  1  0
 30 31  1  0
 31 32  1  6
  7  5  1  0
 31 10  1  0
 31 13  1  0
 27 15  1  0
 24 18  1  0
  1 33  1  0
  1 34  1  0
  1 35  1  0
  2 36  1  6
  3 37  1  0
  3 38  1  0
  4 39  1  0
  4 40  1  0
  5 41  1  6
  8 42  1  0
  8 43  1  0
  8 44  1  0
  9 45  1  0
  9 46  1  0
  9 47  1  0
 10 48  1  1
 11 49  1  0
 11 50  1  0
 12 51  1  0
 12 52  1  0
 14 53  1  0
 14 54  1  0
 14 55  1  0
 15 56  1  6
 16 57  1  0
 16 58  1  0
 17 59  1  0
 19 60  1  1
 20 61  1  0
 20 62  1  0
 21 63  1  0
 21 64  1  0
 22 65  1  1
 23 66  1  0
 25 67  1  0
 25 68  1  0
 25 69  1  0
 26 70  1  0
 26 71  1  0
 26 72  1  0
 28 73  1  0
 28 74  1  0
 28 75  1  0
 29 76  1  0
 29 77  1  0
 30 78  1  0
 30 79  1  0
 32 80  1  0
 32 81  1  0
 32 82  1  0
M  END
>  <meeko>  (5) 
{"is_sidechain": [false], "intermolecular_energy": 2.731, "internal_energy": -0.839}

$$$$
EPH_relaxed_0001_pdb2pqr_Repair_345_r2_0001_out
     RDKit          3D

 82 86  0  0  0  0  0  0  0  0999 V2000
   -0.1570   10.4470   -3.7290 C   0  0  0  0  0  0  0  0  0  0  0  0
    0.9000   10.2180   -2.6450 C   0  0  2  0  0  0  0  0  0  0  0  0
    0.6030    8.9620   -1.8010 C   0  0  0  0  0  0  0  0  0  0  0  0
    0.0170    9.2710   -0.4210 C   0  0  0  0  0  0  0  0  0  0  0  0
   -1.4380    8.9190   -0.3450 C   0  0  2  0  0  0  0  0  0  0  0  0
   -2.1500    9.0470   -1.5830 O   0  0  0  0  0  0  0  0  0  0  0  0
   -2.5540    9.9320   -0.5250 C   0  0  0  0  0  0  0  0  0  0  0  0
   -2.2620   11.3750   -0.7940 C   0  0  0  0  0  0  0  0  0  0  0  0
   -3.9030    9.6180    0.0420 C   0  0  0  0  0  0  0  0  0  0  0  0
    0.9910   11.4420   -1.7410 C   0  0  1  0  0  0  0  0  0  0  0  0
    2.0570   11.2830   -0.6250 C   0  0  0  0  0  0  0  0  0  0  0  0
    2.6790   12.6840   -0.3970 C   0  0  0  0  0  0  0  0  0  0  0  0
    1.7340   13.6560   -1.1410 C   0  0  1  0  0  0  0  0  0  0  0  0
    0.5430   13.8870   -0.1590 C   0  0  0  0  0  0  0  0  0  0  0  0
    2.3640   15.0070   -1.6130 C   0  0  2  0  0  0  0  0  0  0  0  0
    2.8810   15.9160   -0.4830 C   0  0  0  0  0  0  0  0  0  0  0  0
    1.8870   16.8910    0.0560 C   0  0  0  0  0  0  0  0  0  0  0  0
    0.7260   17.2300   -0.5330 C   0  0  0  0  0  0  0  0  0  0  0  0
    0.3570   16.6850   -1.9190 C   0  0  1  0  0  0  0  0  0  0  0  0
   -0.1630   17.8440   -2.8100 C   0  0  0  0  0  0  0  0  0  0  0  0
   -1.3100   18.6120   -2.1600 C   0  0  0  0  0  0  0  0  0  0  0  0
   -0.8870   19.1880   -0.8110 C   0  0  2  0  0  0  0  0  0  0  0  0
    0.1070   20.1930   -1.0310 O   0  0  0  0  0  0  0  0  0  0  0  0
   -0.3360   18.1130    0.1680 C   0  0  0  0  0  0  0  0  0  0  0  0
   -1.4930   17.1990    0.6410 C   0  0  0  0  0  0  0  0  0  0  0  0
    0.1860   18.8440    1.4340 C   0  0  0  0  0  0  0  0  0  0  0  0
    1.4730   15.8140   -2.6410 C   0  0  1  0  0  0  0  0  0  0  0  0
    2.4410   16.7430   -3.4370 C   0  0  0  0  0  0  0  0  0  0  0  0
    0.7860   14.8760   -3.7020 C   0  0  0  0  0  0  0  0  0  0  0  0
    0.2910   13.5050   -3.2010 C   0  0  0  0  0  0  0  0  0  0  0  0
    1.3840   12.7870   -2.4030 C   0  0  2  0  0  0  0  0  0  0  0  0
    2.5870   12.5210   -3.3710 C   0  0  0  0  0  0  0  0  0  0  0  0
   -1.1276   10.6573   -3.2561 H   0  0  0  0  0  0  0  0  0  0  0  0
    0.1388   11.3019   -4.3548 H   0  0  0  0  0  0  0  0  0  0  0  0
   -0.2415    9.5463   -4.3548 H   0  0  0  0  0  0  0  0  0  0  0  0
    1.8633   10.0565   -3.1510 H   0  0  0  0  0  0  0  0  0  0  0  0
   -0.1153    8.3362   -2.3509 H   0  0  0  0  0  0  0  0  0  0  0  0
    1.5636    8.4523   -1.6350 H   0  0  0  0  0  0  0  0  0  0  0  0
    0.5642    8.6908    0.3367 H   0  0  0  0  0  0  0  0  0  0  0  0
    0.1184   10.3512   -0.2395 H   0  0  0  0  0  0  0  0  0  0  0  0
   -1.2407    8.1695    0.4356 H   0  0  0  0  0  0  0  0  0  0  0  0
   -2.1535   11.9112    0.1603 H   0  0  0  0  0  0  0  0  0  0  0  0
   -1.3286   11.4590   -1.3700 H   0  0  0  0  0  0  0  0  0  0  0  0
   -3.0892   11.8153   -1.3700 H   0  0  0  0  0  0  0  0  0  0  0  0
   -3.8508    9.6301    1.1407 H   0  0  0  0  0  0  0  0  0  0  0  0
   -4.6285   10.3713   -0.2990 H   0  0  0  0  0  0  0  0  0  0  0  0
   -4.2212    8.6218   -0.2990 H   0  0  0  0  0  0  0  0  0  0  0  0
   -0.0491   11.4863   -1.3858 H   0  0  0  0  0  0  0  0  0  0  0  0
    1.5850   10.9230    0.3010 H   0  0  0  0  0  0  0  0  0  0  0  0
    2.8262   10.5521   -0.9152 H   0  0  0  0  0  0  0  0  0  0  0  0
    2.7153   12.9228    0.6761 H   0  0  0  0  0  0  0  0  0  0  0  0
    3.7141   12.7457   -0.7641 H   0  0  0  0  0  0  0  0  0  0  0  0
    0.9038   13.8170    0.8778 H   0  0  0  0  0  0  0  0  0  0  0  0
    0.1139   14.8851   -0.3314 H   0  0  0  0  0  0  0  0  0  0  0  0
   -0.2281   13.1217   -0.3314 H   0  0  0  0  0  0  0  0  0  0  0  0
    3.2575   14.6717   -2.1599 H   0  0  0  0  0  0  0  0  0  0  0  0
    3.2108   15.2731    0.3464 H   0  0  0  0  0  0  0  0  0  0  0  0
    3.6902   16.5177   -0.9225 H   0  0  0  0  0  0  0  0  0  0  0  0
    2.1241   17.3729    1.0160 H   0  0  0  0  0  0  0  0  0  0  0  0
   -0.4466   15.9523   -1.7534 H   0  0  0  0  0  0  0  0  0  0  0  0
    0.6658   18.5419   -3.0000 H   0  0  0  0  0  0  0  0  0  0  0  0
   -0.5429   17.4031   -3.7434 H   0  0  0  0  0  0  0  0  0  0  0  0
   -1.6134   19.4352   -2.8235 H   0  0  0  0  0  0  0  0  0  0  0  0
   -2.1486   17.9189   -1.9979 H   0  0  0  0  0  0  0  0  0  0  0  0
   -1.7840   19.6134   -0.3372 H   0  0  0  0  0  0  0  0  0  0  0  0
    0.7550   19.8340   -1.6600 H   0  0  0  0  0  0  0  0  0  0  0  0
   -1.5184   17.1789    1.7405 H   0  0  0  0  0  0  0  0  0  0  0  0
   -2.4480   17.5891    0.2592 H   0  0  0  0  0  0  0  0  0  0  0  0
   -1.3345   16.1796    0.2592 H   0  0  0  0  0  0  0  0  0  0  0  0
   -0.1822   18.3283    2.3332 H   0  0  0  0  0  0  0  0  0  0  0  0
    1.2860   18.8389    1.4330 H   0  0  0  0  0  0  0  0  0  0  0  0
   -0.1758   19.8828    1.4330 H   0  0  0  0  0  0  0  0  0  0  0  0
    3.0503   17.3278   -2.7322 H   0  0  0  0  0  0  0  0  0  0  0  0
    3.0995   16.1301   -4.0701 H   0  0  0  0  0  0  0  0  0  0  0  0
    1.8557   17.4262   -4.0701 H   0  0  0  0  0  0  0  0  0  0  0  0
   -0.0822   15.4146   -4.1095 H   0  0  0  0  0  0  0  0  0  0  0  0
    1.5728   14.6471   -4.4359 H   0  0  0  0  0  0  0  0  0  0  0  0
   -0.5875   13.6531   -2.5558 H   0  0  0  0  0  0  0  0  0  0  0  0
    0.0283   12.8866   -4.0720 H   0  0  0  0  0  0  0  0  0  0  0  0
    3.4941   12.3204   -2.7820 H   0  0  0  0  0  0  0  0  0  0  0  0
    2.3618   11.6510   -4.0053 H   0  0  0  0  0  0  0  0  0  0  0  0
    2.7496   13.4049   -4.0053 H   0  0  0  0  0  0  0  0  0  0  0  0
  1  2  1  0
  2  3  1  0
  3  4  1  0
  4  5  1  0
  5  6  1  0
  6  7  1  0
  7  8  1  0
  7  9  1  0
  2 10  1  0
 10 11  1  0
 11 12  1  0
 12 13  1  0
 13 14  1  1
 13 15  1  0
 15 16  1  0
 16 17  1  0
 17 18  2  0
 18 19  1  0
 19 20  1  0
 20 21  1  0
 21 22  1  0
 22 23  1  0
 22 24  1  0
 24 25  1  0
 24 26  1  0
 19 27  1  0
 27 28  1  6
 27 29  1  0
 29 30  1  0
 30 31  1  0
 31 32  1  6
  7  5  1  0
 31 10  1  0
 31 13  1  0
 27 15  1  0
 24 18  1  0
  1 33  1  0
  1 34  1  0
  1 35  1  0
  2 36  1  6
  3 37  1  0
  3 38  1  0
  4 39  1  0
  4 40  1  0
  5 41  1  1
  8 42  1  0
  8 43  1  0
  8 44  1  0
  9 45  1  0
  9 46  1  0
  9 47  1  0
 10 48  1  1
 11 49  1  0
 11 50  1  0
 12 51  1  0
 12 52  1  0
 14 53  1  0
 14 54  1  0
 14 55  1  0
 15 56  1  6
 16 57  1  0
 16 58  1  0
 17 59  1  0
 19 60  1  1
 20 61  1  0
 20 62  1  0
 21 63  1  0
 21 64  1  0
 22 65  1  1
 23 66  1  0
 25 67  1  0
 25 68  1  0
 25 69  1  0
 26 70  1  0
 26 71  1  0
 26 72  1  0
 28 73  1  0
 28 74  1  0
 28 75  1  0
 29 76  1  0
 29 77  1  0
 30 78  1  0
 30 79  1  0
 32 80  1  0
 32 81  1  0
 32 82  1  0
M  END
>  <meeko>  (6) 
{"is_sidechain": [false], "intermolecular_energy": 2.731, "internal_energy": -0.839}

$$$$
EPH_relaxed_0001_pdb2pqr_Repair_345_r2_0001_out
     RDKit          3D

 82 86  0  0  0  0  0  0  0  0999 V2000
   -5.4090    5.8500   -1.2730 C   0  0  0  0  0  0  0  0  0  0  0  0
   -5.5200    7.2550   -1.8730 C   0  0  2  0  0  0  0  0  0  0  0  0
   -5.0720    8.3470   -0.8810 C   0  0  0  0  0  0  0  0  0  0  0  0
   -3.6100    8.2190   -0.4440 C   0  0  0  0  0  0  0  0  0  0  0  0
   -3.0390    9.5400   -0.0260 C   0  0  2  0  0  0  0  0  0  0  0  0
   -2.4840   10.3170   -1.0950 O   0  0  0  0  0  0  0  0  0  0  0  0
   -1.5590    9.8700   -0.0910 C   0  0  0  0  0  0  0  0  0  0  0  0
   -0.5580    8.8730   -0.5860 C   0  0  0  0  0  0  0  0  0  0  0  0
   -1.0320   10.9700    0.7770 C   0  0  0  0  0  0  0  0  0  0  0  0
   -6.9530    7.5160   -2.3220 C   0  0  1  0  0  0  0  0  0  0  0  0
   -7.2910    6.8260   -3.6700 C   0  0  0  0  0  0  0  0  0  0  0  0
   -8.7770    6.3900   -3.5890 C   0  0  0  0  0  0  0  0  0  0  0  0
   -9.3330    7.1290   -2.3490 C   0  0  1  0  0  0  0  0  0  0  0  0
   -9.6530    8.5710   -2.8510 C   0  0  0  0  0  0  0  0  0  0  0  0
  -10.5690    6.4730   -1.6510 C   0  0  2  0  0  0  0  0  0  0  0  0
  -11.8350    6.3770   -2.5210 C   0  0  0  0  0  0  0  0  0  0  0  0
  -12.7590    7.5460   -2.4330 C   0  0  0  0  0  0  0  0  0  0  0  0
  -12.7290    8.4970   -1.4800 C   0  0  0  0  0  0  0  0  0  0  0  0
  -11.7550    8.3980   -0.2990 C   0  0  1  0  0  0  0  0  0  0  0  0
  -12.5100    8.6990    1.0220 C   0  0  0  0  0  0  0  0  0  0  0  0
  -13.2470   10.0350    0.9830 C   0  0  0  0  0  0  0  0  0  0  0  0
  -14.2480   10.0720   -0.1690 C   0  0  2  0  0  0  0  0  0  0  0  0
  -15.2870    9.1240    0.0920 O   0  0  0  0  0  0  0  0  0  0  0  0
  -13.6030    9.7740   -1.5510 C   0  0  0  0  0  0  0  0  0  0  0  0
  -12.6980   10.9590   -1.9710 C   0  0  0  0  0  0  0  0  0  0  0  0
  -14.7410    9.7030   -2.6040 C   0  0  0  0  0  0  0  0  0  0  0  0
  -10.8940    7.0640   -0.2200 C   0  0  1  0  0  0  0  0  0  0  0  0
  -11.6890    5.9630    0.5460 C   0  0  0  0  0  0  0  0  0  0  0  0
   -9.5940    7.3410    0.6230 C   0  0  0  0  0  0  0  0  0  0  0  0
   -8.3690    7.8750   -0.1440 C   0  0  0  0  0  0  0  0  0  0  0  0
   -8.0910    7.0290   -1.3910 C   0  0  2  0  0  0  0  0  0  0  0  0
   -7.7440    5.5770   -0.9150 C   0  0  0  0  0  0  0  0  0  0  0  0
   -5.4144    5.9187   -0.1752 H   0  0  0  0  0  0  0  0  0  0  0  0
   -6.2618    5.2405   -1.6065 H   0  0  0  0  0  0  0  0  0  0  0  0
   -4.4711    5.3819   -1.6065 H   0  0  0  0  0  0  0  0  0  0  0  0
   -4.8444    7.2992   -2.7399 H   0  0  0  0  0  0  0  0  0  0  0  0
   -5.2067    9.3279   -1.3602 H   0  0  0  0  0  0  0  0  0  0  0  0
   -5.6889    8.2332    0.0226 H   0  0  0  0  0  0  0  0  0  0  0  0
   -3.5512    7.5208    0.4040 H   0  0  0  0  0  0  0  0  0  0  0  0
   -3.0272    7.8489   -1.3004 H   0  0  0  0  0  0  0  0  0  0  0  0
   -3.7808    9.6322    0.7810 H   0  0  0  0  0  0  0  0  0  0  0  0
   -0.0699    8.3868    0.2715 H   0  0  0  0  0  0  0  0  0  0  0  0
   -1.0681    8.1134   -1.1966 H   0  0  0  0  0  0  0  0  0  0  0  0
    0.1995    9.3862   -1.1966 H   0  0  0  0  0  0  0  0  0  0  0  0
   -1.1627   10.6971    1.8346 H   0  0  0  0  0  0  0  0  0  0  0  0
    0.0370   11.1225    0.5671 H   0  0  0  0  0  0  0  0  0  0  0  0
   -1.5830   11.8986    0.5671 H   0  0  0  0  0  0  0  0  0  0  0  0
   -6.9383    8.6154   -2.3538 H   0  0  0  0  0  0  0  0  0  0  0  0
   -7.1478    7.5305   -4.5026 H   0  0  0  0  0  0  0  0  0  0  0  0
   -6.6346    5.9611   -3.8466 H   0  0  0  0  0  0  0  0  0  0  0  0
   -9.3202    6.6914   -4.4968 H   0  0  0  0  0  0  0  0  0  0  0  0
   -8.8879    5.2985   -3.5088 H   0  0  0  0  0  0  0  0  0  0  0  0
   -9.8005    9.2357   -1.9871 H   0  0  0  0  0  0  0  0  0  0  0  0
   -8.8152    8.9416   -3.4600 H   0  0  0  0  0  0  0  0  0  0  0  0
  -10.5689    8.5524   -3.4600 H   0  0  0  0  0  0  0  0  0  0  0  0
  -10.2321    5.4369   -1.4992 H   0  0  0  0  0  0  0  0  0  0  0  0
  -11.5197    6.2711   -3.5695 H   0  0  0  0  0  0  0  0  0  0  0  0
  -12.4003    5.5130   -2.1416 H   0  0  0  0  0  0  0  0  0  0  0  0
  -13.5296    7.6385   -3.2125 H   0  0  0  0  0  0  0  0  0  0  0  0
  -10.9873    9.1663   -0.4731 H   0  0  0  0  0  0  0  0  0  0  0  0
  -13.2420    7.8975    1.2004 H   0  0  0  0  0  0  0  0  0  0  0  0
  -11.7639    8.7525    1.8285 H   0  0  0  0  0  0  0  0  0  0  0  0
  -13.7847   10.1774    1.9320 H   0  0  0  0  0  0  0  0  0  0  0  0
  -12.5104   10.8383    0.8342 H   0  0  0  0  0  0  0  0  0  0  0  0
  -14.6490   11.0948   -0.2246 H   0  0  0  0  0  0  0  0  0  0  0  0
  -16.1080    9.6220    0.2440 H   0  0  0  0  0  0  0  0  0  0  0  0
  -12.3131   11.4630   -1.0722 H   0  0  0  0  0  0  0  0  0  0  0  0
  -11.8553   10.5826   -2.5695 H   0  0  0  0  0  0  0  0  0  0  0  0
  -13.2829   11.6729   -2.5695 H   0  0  0  0  0  0  0  0  0  0  0  0
  -15.7121    9.6424   -2.0909 H   0  0  0  0  0  0  0  0  0  0  0  0
  -14.7146   10.6045   -3.2337 H   0  0  0  0  0  0  0  0  0  0  0  0
  -14.6028    8.8117   -3.2337 H   0  0  0  0  0  0  0  0  0  0  0  0
  -11.5777    6.1172    1.6294 H   0  0  0  0  0  0  0  0  0  0  0  0
  -12.7533    6.0233    0.2745 H   0  0  0  0  0  0  0  0  0  0  0  0
  -11.2969    4.9718    0.2745 H   0  0  0  0  0  0  0  0  0  0  0  0
   -9.8502    8.0799    1.3966 H   0  0  0  0  0  0  0  0  0  0  0  0
   -9.2860    6.3578    1.0083 H   0  0  0  0  0  0  0  0  0  0  0  0
   -8.5607    8.9142   -0.4496 H   0  0  0  0  0  0  0  0  0  0  0  0
   -7.4915    7.8238    0.5173 H   0  0  0  0  0  0  0  0  0  0  0  0
   -7.7360    5.5436    0.1845 H   0  0  0  0  0  0  0  0  0  0  0  0
   -8.4997    4.8753   -1.2977 H   0  0  0  0  0  0  0  0  0  0  0  0
   -6.7526    5.2928   -1.2977 H   0  0  0  0  0  0  0  0  0  0  0  0
  1  2  1  0
  2  3  1  0
  3  4  1  0
  4  5  1  0
  5  6  1  0
  6  7  1  0
  7  8  1  0
  7  9  1  0
  2 10  1  0
 10 11  1  0
 11 12  1  0
 12 13  1  0
 13 14  1  6
 13 15  1  0
 15 16  1  0
 16 17  1  0
 17 18  2  0
 18 19  1  0
 19 20  1  0
 20 21  1  0
 21 22  1  0
 22 23  1  0
 22 24  1  0
 24 25  1  0
 24 26  1  0
 19 27  1  0
 27 28  1  1
 27 29  1  0
 29 30  1  0
 30 31  1  0
 31 32  1  1
  7  5  1  0
 31 10  1  0
 31 13  1  0
 27 15  1  0
 24 18  1  0
  1 33  1  0
  1 34  1  0
  1 35  1  0
  2 36  1  6
  3 37  1  0
  3 38  1  0
  4 39  1  0
  4 40  1  0
  5 41  1  1
  8 42  1  0
  8 43  1  0
  8 44  1  0
  9 45  1  0
  9 46  1  0
  9 47  1  0
 10 48  1  6
 11 49  1  0
 11 50  1  0
 12 51  1  0
 12 52  1  0
 14 53  1  0
 14 54  1  0
 14 55  1  0
 15 56  1  1
 16 57  1  0
 16 58  1  0
 17 59  1  0
 19 60  1  6
 20 61  1  0
 20 62  1  0
 21 63  1  0
 21 64  1  0
 22 65  1  6
 23 66  1  0
 25 67  1  0
 25 68  1  0
 25 69  1  0
 26 70  1  0
 26 71  1  0
 26 72  1  0
 28 73  1  0
 28 74  1  0
 28 75  1  0
 29 76  1  0
 29 77  1  0
 30 78  1  0
 30 79  1  0
 32 80  1  0
 32 81  1  0
 32 82  1  0
M  END
>  <meeko>  (7) 
{"is_sidechain": [false], "intermolecular_energy": 2.731, "internal_energy": -0.839}

$$$$
EPH_relaxed_0001_pdb2pqr_Repair_345_r2_0001_out
     RDKit          3D

 82 86  0  0  0  0  0  0  0  0999 V2000
    3.0100   18.8990   -1.0530 C   0  0  0  0  0  0  0  0  0  0  0  0
    2.6740   17.8740   -2.1400 C   0  0  2  0  0  0  0  0  0  0  0  0
    1.2540   18.0730   -2.7070 C   0  0  0  0  0  0  0  0  0  0  0  0
    0.5590   19.3380   -2.1960 C   0  0  0  0  0  0  0  0  0  0  0  0
   -0.8070   19.0410   -1.6570 C   0  0  2  0  0  0  0  0  0  0  0  0
   -1.6320   20.1940   -1.4460 O   0  0  0  0  0  0  0  0  0  0  0  0
   -1.2680   19.4520   -0.2710 C   0  0  0  0  0  0  0  0  0  0  0  0
   -0.3650   20.1940    0.6630 C   0  0  0  0  0  0  0  0  0  0  0  0
   -2.4100   18.7120    0.3520 C   0  0  0  0  0  0  0  0  0  0  0  0
    2.8210   16.4620   -1.5860 C   0  0  1  0  0  0  0  0  0  0  0  0
    3.6840   16.4120   -0.2980 C   0  0  0  0  0  0  0  0  0  0  0  0
    3.0830   15.3010    0.6010 C   0  0  0  0  0  0  0  0  0  0  0  0
    2.1140   14.5310   -0.3260 C   0  0  1  0  0  0  0  0  0  0  0  0
    3.0240   13.5570   -1.1370 C   0  0  0  0  0  0  0  0  0  0  0  0
    0.9400   13.7740    0.3760 C   0  0  2  0  0  0  0  0  0  0  0  0
    1.3690   12.6530    1.3380 C   0  0  0  0  0  0  0  0  0  0  0  0
    1.5010   11.3000    0.7220 C   0  0  0  0  0  0  0  0  0  0  0  0
    1.0130   10.9360   -0.4780 C   0  0  0  0  0  0  0  0  0  0  0  0
    0.1600   11.9050   -1.3080 C   0  0  1  0  0  0  0  0  0  0  0  0
   -1.0940   11.1640   -1.8420 C   0  0  0  0  0  0  0  0  0  0  0  0
   -0.7410    9.8930   -2.6090 C   0  0  0  0  0  0  0  0  0  0  0  0
    0.0560    8.9310   -1.7320 C   0  0  2  0  0  0  0  0  0  0  0  0
   -0.7890    8.4610   -0.6770 O   0  0  0  0  0  0  0  0  0  0  0  0
    1.3390    9.5700   -1.1300 C   0  0  0  0  0  0  0  0  0  0  0  0
    2.3800    9.8020   -2.2520 C   0  0  0  0  0  0  0  0  0  0  0  0
    1.9730    8.5400   -0.1560 C   0  0  0  0  0  0  0  0  0  0  0  0
   -0.1980   13.2860   -0.6090 C   0  0  1  0  0  0  0  0  0  0  0  0
   -1.4920   13.1290    0.2480 C   0  0  0  0  0  0  0  0  0  0  0  0
   -0.5280   14.3530   -1.7190 C   0  0  0  0  0  0  0  0  0  0  0  0
    0.6600   15.1530   -2.2880 C   0  0  0  0  0  0  0  0  0  0  0  0
    1.5250   15.7260   -1.1620 C   0  0  2  0  0  0  0  0  0  0  0  0
    0.6420   16.7270   -0.3420 C   0  0  0  0  0  0  0  0  0  0  0  0
    2.8611   18.4449   -0.0622 H   0  0  0  0  0  0  0  0  0  0  0  0
    4.0586   19.2144   -1.1580 H   0  0  0  0  0  0  0  0  0  0  0  0
    2.3516   19.7740   -1.1580 H   0  0  0  0  0  0  0  0  0  0  0  0
    3.3833   18.0243   -2.9672 H   0  0  0  0  0  0  0  0  0  0  0  0
    1.3230   18.1334   -3.8032 H   0  0  0  0  0  0  0  0  0  0  0  0
    0.6507   17.2167   -2.3710 H   0  0  0  0  0  0  0  0  0  0  0  0
    1.1694   19.7814   -1.3955 H   0  0  0  0  0  0  0  0  0  0  0  0
    0.4502   20.0343   -3.0406 H   0  0  0  0  0  0  0  0  0  0  0  0
   -0.8315   18.0775   -2.1872 H   0  0  0  0  0  0  0  0  0  0  0  0
   -0.6439   19.9648    1.7021 H   0  0  0  0  0  0  0  0  0  0  0  0
    0.6766   19.8874    0.4868 H   0  0  0  0  0  0  0  0  0  0  0  0
   -0.4638   21.2753    0.4868 H   0  0  0  0  0  0  0  0  0  0  0  0
   -2.3275   18.7655    1.4476 H   0  0  0  0  0  0  0  0  0  0  0  0
   -3.3593   19.1671    0.0331 H   0  0  0  0  0  0  0  0  0  0  0  0
   -2.3825   17.6596    0.0331 H   0  0  0  0  0  0  0  0  0  0  0  0
    3.2661   15.9662   -2.4613 H   0  0  0  0  0  0  0  0  0  0  0  0
    4.7274   16.1718   -0.5503 H   0  0  0  0  0  0  0  0  0  0  0  0
    3.6791   17.3833    0.2183 H   0  0  0  0  0  0  0  0  0  0  0  0
    3.8738   14.6345    0.9758 H   0  0  0  0  0  0  0  0  0  0  0  0
    2.5759   15.7102    1.4872 H   0  0  0  0  0  0  0  0  0  0  0  0
    3.6059   12.9342   -0.4416 H   0  0  0  0  0  0  0  0  0  0  0  0
    2.3976   12.9119   -1.7706 H   0  0  0  0  0  0  0  0  0  0  0  0
    3.7101   14.1382   -1.7706 H   0  0  0  0  0  0  0  0  0  0  0  0
    0.4994   14.5584    1.0089 H   0  0  0  0  0  0  0  0  0  0  0  0
    2.3440   12.9278    1.7669 H   0  0  0  0  0  0  0  0  0  0  0  0
    0.5664   12.5699    2.0856 H   0  0  0  0  0  0  0  0  0  0  0  0
    2.0432   10.5355    1.2978 H   0  0  0  0  0  0  0  0  0  0  0  0
    0.7923   12.2222   -2.1503 H   0  0  0  0  0  0  0  0  0  0  0  0
   -1.7342   10.8946   -0.9890 H   0  0  0  0  0  0  0  0  0  0  0  0
   -1.6104   11.8412   -2.5382 H   0  0  0  0  0  0  0  0  0  0  0  0
   -1.6686    9.3993   -2.9343 H   0  0  0  0  0  0  0  0  0  0  0  0
   -0.1260   10.1669   -3.4789 H   0  0  0  0  0  0  0  0  0  0  0  0
    0.3905    8.1012   -2.3720 H   0  0  0  0  0  0  0  0  0  0  0  0
   -1.5430    8.0030   -1.0860 H   0  0  0  0  0  0  0  0  0  0  0  0
    3.3602   10.0205   -1.8032 H   0  0  0  0  0  0  0  0  0  0  0  0
    2.4551    8.8986   -2.8750 H   0  0  0  0  0  0  0  0  0  0  0  0
    2.0644   10.6518   -2.8750 H   0  0  0  0  0  0  0  0  0  0  0  0
    1.7817    8.8507    0.8817 H   0  0  0  0  0  0  0  0  0  0  0  0
    1.5283    7.5490   -0.3299 H   0  0  0  0  0  0  0  0  0  0  0  0
    3.0580    8.4906   -0.3299 H   0  0  0  0  0  0  0  0  0  0  0  0
   -1.2306   13.1607    1.3160 H   0  0  0  0  0  0  0  0  0  0  0  0
   -2.1871   13.9494    0.0161 H   0  0  0  0  0  0  0  0  0  0  0  0
   -1.9708   12.1662    0.0161 H   0  0  0  0  0  0  0  0  0  0  0  0
   -1.0055   13.8245   -2.5573 H   0  0  0  0  0  0  0  0  0  0  0  0
   -1.1656   15.0986   -1.2214 H   0  0  0  0  0  0  0  0  0  0  0  0
    1.2756   14.4882   -2.9118 H   0  0  0  0  0  0  0  0  0  0  0  0
    0.2660   15.9875   -2.8867 H   0  0  0  0  0  0  0  0  0  0  0  0
    0.7944   16.5542    0.7336 H   0  0  0  0  0  0  0  0  0  0  0  0
    0.9293   17.7590   -0.5919 H   0  0  0  0  0  0  0  0  0  0  0  0
   -0.4178   16.5707   -0.5919 H   0  0  0  0  0  0  0  0  0  0  0  0
  1  2  1  0
  2  3  1  0
  3  4  1  0
  4  5  1  0
  5  6  1  0
  6  7  1  0
  7  8  1  0
  7  9  1  0
  2 10  1  0
 10 11  1  0
 11 12  1  0
 12 13  1  0
 13 14  1  6
 13 15  1  0
 15 16  1  0
 16 17  1  0
 17 18  2  0
 18 19  1  0
 19 20  1  0
 20 21  1  0
 21 22  1  0
 22 23  1  0
 22 24  1  0
 24 25  1  0
 24 26  1  0
 19 27  1  0
 27 28  1  1
 27 29  1  0
 29 30  1  0
 30 31  1  0
 31 32  1  1
  7  5  1  0
 31 10  1  0
 31 13  1  0
 27 15  1  0
 24 18  1  0
  1 33  1  0
  1 34  1  0
  1 35  1  0
  2 36  1  6
  3 37  1  0
  3 38  1  0
  4 39  1  0
  4 40  1  0
  5 41  1  6
  8 42  1  0
  8 43  1  0
  8 44  1  0
  9 45  1  0
  9 46  1  0
  9 47  1  0
 10 48  1  6
 11 49  1  0
 11 50  1  0
 12 51  1  0
 12 52  1  0
 14 53  1  0
 14 54  1  0
 14 55  1  0
 15 56  1  1
 16 57  1  0
 16 58  1  0
 17 59  1  0
 19 60  1  6
 20 61  1  0
 20 62  1  0
 21 63  1  0
 21 64  1  0
 22 65  1  6
 23 66  1  0
 25 67  1  0
 25 68  1  0
 25 69  1  0
 26 70  1  0
 26 71  1  0
 26 72  1  0
 28 73  1  0
 28 74  1  0
 28 75  1  0
 29 76  1  0
 29 77  1  0
 30 78  1  0
 30 79  1  0
 32 80  1  0
 32 81  1  0
 32 82  1  0
M  END
>  <meeko>  (8) 
{"is_sidechain": [false], "intermolecular_energy": 2.731, "internal_energy": -0.839}

$$$$
EPH_relaxed_0001_pdb2pqr_Repair_345_r2_0001_out
     RDKit          3D

 82 86  0  0  0  0  0  0  0  0999 V2000
   -1.0600   16.4960   -6.0370 C   0  0  0  0  0  0  0  0  0  0  0  0
    0.0960   15.7240   -6.6790 C   0  0  2  0  0  0  0  0  0  0  0  0
   -0.1980   15.3510   -8.1460 C   0  0  0  0  0  0  0  0  0  0  0  0
    0.3830   16.3400   -9.1600 C   0  0  0  0  0  0  0  0  0  0  0  0
    1.8100   16.0230   -9.4900 C   0  0  2  0  0  0  0  0  0  0  0  0
    2.3030   16.6510  -10.6810 O   0  0  0  0  0  0  0  0  0  0  0  0
    2.2290   15.2160  -10.7040 C   0  0  0  0  0  0  0  0  0  0  0  0
    1.2200   14.6750  -11.6680 C   0  0  0  0  0  0  0  0  0  0  0  0
    3.5660   14.5430  -10.6900 C   0  0  0  0  0  0  0  0  0  0  0  0
    0.3930   14.4660   -5.8710 C   0  0  1  0  0  0  0  0  0  0  0  0
    1.4960   13.5860   -6.5180 C   0  0  0  0  0  0  0  0  0  0  0  0
    2.3000   12.9500   -5.3550 C   0  0  0  0  0  0  0  0  0  0  0  0
    1.4400   13.2120   -4.0970 C   0  0  1  0  0  0  0  0  0  0  0  0
    0.3470   12.0970   -4.1190 C   0  0  0  0  0  0  0  0  0  0  0  0
    2.2030   13.2460   -2.7330 C   0  0  2  0  0  0  0  0  0  0  0  0
    2.8950   11.9290   -2.3400 C   0  0  0  0  0  0  0  0  0  0  0  0
    2.0640   10.9890   -1.5310 C   0  0  0  0  0  0  0  0  0  0  0  0
    0.9200   11.3040   -0.8950 C   0  0  0  0  0  0  0  0  0  0  0  0
    0.4040   12.7490   -0.8730 C   0  0  1  0  0  0  0  0  0  0  0  0
   -0.0210   13.1250    0.5700 C   0  0  0  0  0  0  0  0  0  0  0  0
   -1.0230   12.1380    1.1610 C   0  0  0  0  0  0  0  0  0  0  0  0
   -0.4510   10.7230    1.1760 C   0  0  2  0  0  0  0  0  0  0  0  0
    0.6450   10.6780    2.0950 O   0  0  0  0  0  0  0  0  0  0  0  0
    0.0200   10.2380   -0.2240 C   0  0  0  0  0  0  0  0  0  0  0  0
   -1.2110    9.9980   -1.1330 C   0  0  0  0  0  0  0  0  0  0  0  0
    0.7030    8.8560   -0.0450 C   0  0  0  0  0  0  0  0  0  0  0  0
    1.3580   13.8360   -1.5320 C   0  0  1  0  0  0  0  0  0  0  0  0
    2.3840   14.3520   -0.4770 C   0  0  0  0  0  0  0  0  0  0  0  0
    0.4970   15.0820   -1.9620 C   0  0  0  0  0  0  0  0  0  0  0  0
   -0.1320   15.0410   -3.3670 C   0  0  0  0  0  0  0  0  0  0  0  0
    0.9090   14.6550   -4.4230 C   0  0  2  0  0  0  0  0  0  0  0  0
    2.0090   15.7700   -4.4390 C   0  0  0  0  0  0  0  0  0  0  0  0
   -0.9752   16.4394   -4.9417 H   0  0  0  0  0  0  0  0  0  0  0  0
   -1.0188   17.5485   -6.3540 H   0  0  0  0  0  0  0  0  0  0  0  0
   -2.0164   16.0547   -6.3540 H   0  0  0  0  0  0  0  0  0  0  0  0
    0.9761   16.3839   -6.6766 H   0  0  0  0  0  0  0  0  0  0  0  0
    0.2309   14.3577   -8.3446 H   0  0  0  0  0  0  0  0  0  0  0  0
   -1.2909   15.3682   -8.2696 H   0  0  0  0  0  0  0  0  0  0  0  0
   -0.2142   16.2963  -10.0827 H   0  0  0  0  0  0  0  0  0  0  0  0
    0.3496   17.3456   -8.7154 H   0  0  0  0  0  0  0  0  0  0  0  0
    2.0613   15.9341   -8.4228 H   0  0  0  0  0  0  0  0  0  0  0  0
    0.3841   14.2268  -11.1108 H   0  0  0  0  0  0  0  0  0  0  0  0
    0.8428   15.4918  -12.3008 H   0  0  0  0  0  0  0  0  0  0  0  0
    1.6916   13.9087  -12.3008 H   0  0  0  0  0  0  0  0  0  0  0  0
    3.8848   14.3825   -9.6495 H   0  0  0  0  0  0  0  0  0  0  0  0
    3.4940   13.5737  -11.2051 H   0  0  0  0  0  0  0  0  0  0  0  0
    4.3017   15.1782  -11.2051 H   0  0  0  0  0  0  0  0  0  0  0  0
   -0.6107   14.0162   -5.8569 H   0  0  0  0  0  0  0  0  0  0  0  0
    1.0389   12.7999   -7.1369 H   0  0  0  0  0  0  0  0  0  0  0  0
    2.1495   14.1863   -7.1681 H   0  0  0  0  0  0  0  0  0  0  0  0
    2.4304   11.8700   -5.5182 H   0  0  0  0  0  0  0  0  0  0  0  0
    3.3106   13.3750   -5.2653 H   0  0  0  0  0  0  0  0  0  0  0  0
    0.0801   11.8248   -3.0872 H   0  0  0  0  0  0  0  0  0  0  0  0
   -0.5459   12.4691   -4.6427 H   0  0  0  0  0  0  0  0  0  0  0  0
    0.7368   11.2117   -4.6427 H   0  0  0  0  0  0  0  0  0  0  0  0
    3.0141   13.9614   -2.9339 H   0  0  0  0  0  0  0  0  0  0  0  0
    3.1911   11.4115   -3.2644 H   0  0  0  0  0  0  0  0  0  0  0  0
    3.7451   12.2106   -1.7013 H   0  0  0  0  0  0  0  0  0  0  0  0
    2.4165    9.9504   -1.4474 H   0  0  0  0  0  0  0  0  0  0  0  0
   -0.4728   12.7692   -1.5370 H   0  0  0  0  0  0  0  0  0  0  0  0
    0.8748   13.1426    1.2081 H   0  0  0  0  0  0  0  0  0  0  0  0
   -0.5080   14.1104    0.5284 H   0  0  0  0  0  0  0  0  0  0  0  0
   -1.2616   12.4407    2.1912 H   0  0  0  0  0  0  0  0  0  0  0  0
   -1.9300   12.1434    0.5386 H   0  0  0  0  0  0  0  0  0  0  0  0
   -1.2583   10.0441    1.4879 H   0  0  0  0  0  0  0  0  0  0  0  0
    1.2510    9.9790    1.7960 H   0  0  0  0  0  0  0  0  0  0  0  0
   -2.0998    9.8247   -0.5084 H   0  0  0  0  0  0  0  0  0  0  0  0
   -1.3756   10.8810   -1.7680 H   0  0  0  0  0  0  0  0  0  0  0  0
   -1.0318    9.1179   -1.7680 H   0  0  0  0  0  0  0  0  0  0  0  0
    0.8114    8.6367    1.0275 H   0  0  0  0  0  0  0  0  0  0  0  0
    0.0857    8.0779   -0.5178 H   0  0  0  0  0  0  0  0  0  0  0  0
    1.6961    8.8738   -0.5178 H   0  0  0  0  0  0  0  0  0  0  0  0
    1.9984   14.1581    0.5348 H   0  0  0  0  0  0  0  0  0  0  0  0
    3.3422   13.8286   -0.6108 H   0  0  0  0  0  0  0  0  0  0  0  0
    2.5351   15.4333   -0.6108 H   0  0  0  0  0  0  0  0  0  0  0  0
   -0.3211   15.1881   -1.2343 H   0  0  0  0  0  0  0  0  0  0  0  0
    1.2037   15.9245   -1.9880 H   0  0  0  0  0  0  0  0  0  0  0  0
   -0.9451   14.3002   -3.3757 H   0  0  0  0  0  0  0  0  0  0  0  0
   -0.5203   16.0419   -3.6068 H   0  0  0  0  0  0  0  0  0  0  0  0
    2.2739   16.0385   -3.4057 H   0  0  0  0  0  0  0  0  0  0  0  0
    2.9021   15.3965   -4.9613 H   0  0  0  0  0  0  0  0  0  0  0  0
    1.6234   16.6580   -4.9613 H   0  0  0  0  0  0  0  0  0  0  0  0
  1  2  1  0
  2  3  1  0
  3  4  1  0
  4  5  1  0
  5  6  1  0
  6  7  1  0
  7  8  1  0
  7  9  1  0
  2 10  1  0
 10 11  1  0
 11 12  1  0
 12 13  1  0
 13 14  1  1
 13 15  1  0
 15 16  1  0
 16 17  1  0
 17 18  2  0
 18 19  1  0
 19 20  1  0
 20 21  1  0
 21 22  1  0
 22 23  1  0
 22 24  1  0
 24 25  1  0
 24 26  1  0
 19 27  1  0
 27 28  1  1
 27 29  1  0
 29 30  1  0
 30 31  1  0
 31 32  1  6
  7  5  1  0
 31 10  1  0
 31 13  1  0
 27 15  1  0
 24 18  1  0
  1 33  1  0
  1 34  1  0
  1 35  1  0
  2 36  1  6
  3 37  1  0
  3 38  1  0
  4 39  1  0
  4 40  1  0
  5 41  1  1
  8 42  1  0
  8 43  1  0
  8 44  1  0
  9 45  1  0
  9 46  1  0
  9 47  1  0
 10 48  1  1
 11 49  1  0
 11 50  1  0
 12 51  1  0
 12 52  1  0
 14 53  1  0
 14 54  1  0
 14 55  1  0
 15 56  1  6
 16 57  1  0
 16 58  1  0
 17 59  1  0
 19 60  1  6
 20 61  1  0
 20 62  1  0
 21 63  1  0
 21 64  1  0
 22 65  1  1
 23 66  1  0
 25 67  1  0
 25 68  1  0
 25 69  1  0
 26 70  1  0
 26 71  1  0
 26 72  1  0
 28 73  1  0
 28 74  1  0
 28 75  1  0
 29 76  1  0
 29 77  1  0
 30 78  1  0
 30 79  1  0
 32 80  1  0
 32 81  1  0
 32 82  1  0
M  END
>  <meeko>  (9) 
{"is_sidechain": [false], "intermolecular_energy": 2.731, "internal_energy": -0.839}

$$$$
EPH_relaxed_0001_pdb2pqr_Repair_345_r2_0001_out
     RDKit          3D

 82 86  0  0  0  0  0  0  0  0999 V2000
    0.2770    8.8470   -2.2720 C   0  0  0  0  0  0  0  0  0  0  0  0
    1.0190    9.9770   -2.9910 C   0  0  2  0  0  0  0  0  0  0  0  0
    2.5260    9.9820   -2.6650 C   0  0  0  0  0  0  0  0  0  0  0  0
    3.3970   10.5500   -3.7890 C   0  0  0  0  0  0  0  0  0  0  0  0
    4.7990   10.8080   -3.3270 C   0  0  2  0  0  0  0  0  0  0  0  0
    5.3850   12.0130   -3.8370 O   0  0  0  0  0  0  0  0  0  0  0  0
    6.0020   10.7830   -4.2510 C   0  0  0  0  0  0  0  0  0  0  0  0
    5.8580   10.4910   -5.7120 C   0  0  0  0  0  0  0  0  0  0  0  0
    7.3570   10.5580   -3.6560 C   0  0  0  0  0  0  0  0  0  0  0  0
    0.4020   11.3210   -2.6220 C   0  0  1  0  0  0  0  0  0  0  0  0
   -0.9510   11.1730   -1.8750 C   0  0  0  0  0  0  0  0  0  0  0  0
   -1.0220   12.3290   -0.8450 C   0  0  0  0  0  0  0  0  0  0  0  0
    0.1210   13.2880   -1.2550 C   0  0  1  0  0  0  0  0  0  0  0  0
   -0.4660   14.1310   -2.4310 C   0  0  0  0  0  0  0  0  0  0  0  0
    0.6980   14.1990   -0.1230 C   0  0  2  0  0  0  0  0  0  0  0  0
   -0.3040   15.1920    0.4900 C   0  0  0  0  0  0  0  0  0  0  0  0
   -0.3630   16.5300   -0.1700 C   0  0  0  0  0  0  0  0  0  0  0  0
    0.5520   17.0190   -1.0270 C   0  0  0  0  0  0  0  0  0  0  0  0
    1.8380   16.2410   -1.3360 C   0  0  1  0  0  0  0  0  0  0  0  0
    3.0540   17.2020   -1.2640 C   0  0  0  0  0  0  0  0  0  0  0  0
    2.8850   18.4270   -2.1580 C   0  0  0  0  0  0  0  0  0  0  0  0
    1.6270   19.2060   -1.7820 C   0  0  2  0  0  0  0  0  0  0  0  0
    1.8040   19.7650   -0.4770 O   0  0  0  0  0  0  0  0  0  0  0  0
    0.3380   18.3390   -1.8090 C   0  0  0  0  0  0  0  0  0  0  0  0
   -0.0190   17.9830   -3.2740 C   0  0  0  0  0  0  0  0  0  0  0  0
   -0.8330   19.2070   -1.2750 C   0  0  0  0  0  0  0  0  0  0  0  0
    2.0620   14.9110   -0.4960 C   0  0  1  0  0  0  0  0  0  0  0  0
    2.7730   15.2440    0.8510 C   0  0  0  0  0  0  0  0  0  0  0  0
    3.0350   13.9600   -1.2890 C   0  0  0  0  0  0  0  0  0  0  0  0
    2.3920   12.9990   -2.3070 C   0  0  0  0  0  0  0  0  0  0  0  0
    1.2160   12.2440   -1.6810 C   0  0  2  0  0  0  0  0  0  0  0  0
    1.7790   11.3690   -0.5090 C   0  0  0  0  0  0  0  0  0  0  0  0
    0.3666    8.9835   -1.1842 H   0  0  0  0  0  0  0  0  0  0  0  0
   -0.7851    8.8658   -2.5576 H   0  0  0  0  0  0  0  0  0  0  0  0
    0.7164    7.8799   -2.5576 H   0  0  0  0  0  0  0  0  0  0  0  0
    0.9159    9.8048   -4.0725 H   0  0  0  0  0  0  0  0  0  0  0  0
    2.6840   10.5902   -1.7621 H   0  0  0  0  0  0  0  0  0  0  0  0
    2.8277    8.9337   -2.5230 H   0  0  0  0  0  0  0  0  0  0  0  0
    3.4223    9.8291   -4.6194 H   0  0  0  0  0  0  0  0  0  0  0  0
    2.9604   11.5069   -4.1110 H   0  0  0  0  0  0  0  0  0  0  0  0
    4.5978   10.3151   -2.3644 H   0  0  0  0  0  0  0  0  0  0  0  0
    5.3750    9.5116   -5.8443 H   0  0  0  0  0  0  0  0  0  0  0  0
    5.2411   11.2706   -6.1827 H   0  0  0  0  0  0  0  0  0  0  0  0
    6.8521   10.4762   -6.1827 H   0  0  0  0  0  0  0  0  0  0  0  0
    7.2822   10.5704   -2.5586 H   0  0  0  0  0  0  0  0  0  0  0  0
    7.7451    9.5831   -3.9861 H   0  0  0  0  0  0  0  0  0  0  0  0
    8.0394   11.3551   -3.9861 H   0  0  0  0  0  0  0  0  0  0  0  0
    0.3325   11.7719   -3.6229 H   0  0  0  0  0  0  0  0  0  0  0  0
   -1.7866   11.2477   -2.5864 H   0  0  0  0  0  0  0  0  0  0  0  0
   -1.0220   10.1950   -1.3765 H   0  0  0  0  0  0  0  0  0  0  0  0
   -1.9952   12.8388   -0.9000 H   0  0  0  0  0  0  0  0  0  0  0  0
   -0.9161   11.9724    0.1902 H   0  0  0  0  0  0  0  0  0  0  0  0
   -1.0502   14.9699   -2.0249 H   0  0  0  0  0  0  0  0  0  0  0  0
    0.3564   14.5217   -3.0483 H   0  0  0  0  0  0  0  0  0  0  0  0
   -1.1177   13.4952   -3.0483 H   0  0  0  0  0  0  0  0  0  0  0  0
    0.9232   13.4728    0.6719 H   0  0  0  0  0  0  0  0  0  0  0  0
   -1.3059   14.7414    0.4343 H   0  0  0  0  0  0  0  0  0  0  0  0
    0.0409   15.3756    1.5183 H   0  0  0  0  0  0  0  0  0  0  0  0
   -1.2268   17.1696    0.0639 H   0  0  0  0  0  0  0  0  0  0  0  0
    1.7236   15.8590   -2.3612 H   0  0  0  0  0  0  0  0  0  0  0  0
    3.1764   17.5386   -0.2239 H   0  0  0  0  0  0  0  0  0  0  0  0
    3.9374   16.6500   -1.6173 H   0  0  0  0  0  0  0  0  0  0  0  0
    3.7618   19.0811   -2.0423 H   0  0  0  0  0  0  0  0  0  0  0  0
    2.7917   18.0908   -3.2012 H   0  0  0  0  0  0  0  0  0  0  0  0
    1.4896   19.9944   -2.5366 H   0  0  0  0  0  0  0  0  0  0  0  0
    1.5250   19.0950    0.1700 H   0  0  0  0  0  0  0  0  0  0  0  0
   -0.7979   17.2063   -3.2832 H   0  0  0  0  0  0  0  0  0  0  0  0
   -0.3905   18.8809   -3.7895 H   0  0  0  0  0  0  0  0  0  0  0  0
    0.8779   17.6090   -3.7895 H   0  0  0  0  0  0  0  0  0  0  0  0
   -0.8230   19.1996   -0.1751 H   0  0  0  0  0  0  0  0  0  0  0  0
   -0.7181   20.2398   -1.6358 H   0  0  0  0  0  0  0  0  0  0  0  0
   -1.7877   18.7967   -1.6358 H   0  0  0  0  0  0  0  0  0  0  0  0
    2.1288   14.9423    1.6900 H   0  0  0  0  0  0  0  0  0  0  0  0
    3.7269   14.6990    0.9067 H   0  0  0  0  0  0  0  0  0  0  0  0
    2.9650   16.3257    0.9067 H   0  0  0  0  0  0  0  0  0  0  0  0
    3.7483   14.5946   -1.8353 H   0  0  0  0  0  0  0  0  0  0  0  0
    3.4867   13.3096   -0.5255 H   0  0  0  0  0  0  0  0  0  0  0  0
    2.0298   13.5780   -3.1693 H   0  0  0  0  0  0  0  0  0  0  0  0
    3.1491   12.2672   -2.6251 H   0  0  0  0  0  0  0  0  0  0  0  0
    1.4911   11.8165    0.4537 H   0  0  0  0  0  0  0  0  0  0  0  0
    1.3652   10.3522   -0.5791 H   0  0  0  0  0  0  0  0  0  0  0  0
    2.8759   11.3242   -0.5791 H   0  0  0  0  0  0  0  0  0  0  0  0
  1  2  1  0
  2  3  1  0
  3  4  1  0
  4  5  1  0
  5  6  1  0
  6  7  1  0
  7  8  1  0
  7  9  1  0
  2 10  1  0
 10 11  1  0
 11 12  1  0
 12 13  1  0
 13 14  1  6
 13 15  1  0
 15 16  1  0
 16 17  1  0
 17 18  2  0
 18 19  1  0
 19 20  1  0
 20 21  1  0
 21 22  1  0
 22 23  1  0
 22 24  1  0
 24 25  1  0
 24 26  1  0
 19 27  1  0
 27 28  1  1
 27 29  1  0
 29 30  1  0
 30 31  1  0
 31 32  1  1
  7  5  1  0
 31 10  1  0
 31 13  1  0
 27 15  1  0
 24 18  1  0
  1 33  1  0
  1 34  1  0
  1 35  1  0
  2 36  1  6
  3 37  1  0
  3 38  1  0
  4 39  1  0
  4 40  1  0
  5 41  1  1
  8 42  1  0
  8 43  1  0
  8 44  1  0
  9 45  1  0
  9 46  1  0
  9 47  1  0
 10 48  1  6
 11 49  1  0
 11 50  1  0
 12 51  1  0
 12 52  1  0
 14 53  1  0
 14 54  1  0
 14 55  1  0
 15 56  1  1
 16 57  1  0
 16 58  1  0
 17 59  1  0
 19 60  1  6
 20 61  1  0
 20 62  1  0
 21 63  1  0
 21 64  1  0
 22 65  1  6
 23 66  1  0
 25 67  1  0
 25 68  1  0
 25 69  1  0
 26 70  1  0
 26 71  1  0
 26 72  1  0
 28 73  1  0
 28 74  1  0
 28 75  1  0
 29 76  1  0
 29 77  1  0
 30 78  1  0
 30 79  1  0
 32 80  1  0
 32 81  1  0
 32 82  1  0
M  END
>  <meeko>  (10) 
{"is_sidechain": [false], "intermolecular_energy": 2.731, "internal_energy": -0.839}

$$$$
EPH_relaxed_0001_pdb2pqr_Repair_345_r2_0001_out
     RDKit          3D

 82 86  0  0  0  0  0  0  0  0999 V2000
   -0.0330    7.8020   -2.4570 C   0  0  0  0  0  0  0  0  0  0  0  0
   -1.3870    8.1940   -1.8580 C   0  0  2  0  0  0  0  0  0  0  0  0
   -2.5670    7.6740   -2.7030 C   0  0  0  0  0  0  0  0  0  0  0  0
   -3.7420    7.1590   -1.8670 C   0  0  0  0  0  0  0  0  0  0  0  0
   -4.8140    6.5590   -2.7270 C   0  0  2  0  0  0  0  0  0  0  0  0
   -5.3690    7.4520   -3.7010 O   0  0  0  0  0  0  0  0  0  0  0  0
   -6.2670    6.9930   -2.6770 C   0  0  0  0  0  0  0  0  0  0  0  0
   -6.7290    8.0690   -1.7450 C   0  0  0  0  0  0  0  0  0  0  0  0
   -7.3130    6.0450   -3.1740 C   0  0  0  0  0  0  0  0  0  0  0  0
   -1.4740    9.7090   -1.7180 C   0  0  1  0  0  0  0  0  0  0  0  0
   -2.8870   10.1890   -1.2910 C   0  0  0  0  0  0  0  0  0  0  0  0
   -2.6820   11.4220   -0.3730 C   0  0  0  0  0  0  0  0  0  0  0  0
   -1.1980   11.8100   -0.5670 C   0  0  1  0  0  0  0  0  0  0  0  0
   -1.1690   12.6350   -1.8920 C   0  0  0  0  0  0  0  0  0  0  0  0
   -0.5280   12.5880    0.6120 C   0  0  2  0  0  0  0  0  0  0  0  0
   -1.1470   13.9620    0.9230 C   0  0  0  0  0  0  0  0  0  0  0  0
   -0.5430   15.1140    0.1900 C   0  0  0  0  0  0  0  0  0  0  0  0
    0.6340   15.0950   -0.4630 C   0  0  0  0  0  0  0  0  0  0  0  0
    1.5360   13.8550   -0.4250 C   0  0  1  0  0  0  0  0  0  0  0  0
    2.9980   14.2870   -0.1340 C   0  0  0  0  0  0  0  0  0  0  0  0
    3.5010   15.3450   -1.1110 C   0  0  0  0  0  0  0  0  0  0  0  0
    2.6120   16.5850   -1.0780 C   0  0  2  0  0  0  0  0  0  0  0  0
    2.7490   17.2160    0.1990 O   0  0  0  0  0  0  0  0  0  0  0  0
    1.1140   16.2720   -1.3480 C   0  0  0  0  0  0  0  0  0  0  0  0
    0.9250   15.8730   -2.8320 C   0  0  0  0  0  0  0  0  0  0  0  0
    0.3080   17.5840   -1.1460 C   0  0  0  0  0  0  0  0  0  0  0  0
    1.0500   12.6730    0.5190 C   0  0  1  0  0  0  0  0  0  0  0  0
    1.5700   12.9030    1.9710 C   0  0  0  0  0  0  0  0  0  0  0  0
    1.6930   11.3230    0.0260 C   0  0  0  0  0  0  0  0  0  0  0  0
    0.9230   10.5410   -1.0550 C   0  0  0  0  0  0  0  0  0  0  0  0
   -0.5510   10.3810   -0.6710 C   0  0  2  0  0  0  0  0  0  0  0  0
   -0.6130    9.5360    0.6470 C   0  0  0  0  0  0  0  0  0  0  0  0
    0.6807    7.5954   -1.6459 H   0  0  0  0  0  0  0  0  0  0  0  0
   -0.1534    6.9018   -3.0776 H   0  0  0  0  0  0  0  0  0  0  0  0
    0.3461    8.6273   -3.0776 H   0  0  0  0  0  0  0  0  0  0  0  0
   -1.4591    7.7246   -0.8658 H   0  0  0  0  0  0  0  0  0  0  0  0
   -2.9272    8.4957   -3.3395 H   0  0  0  0  0  0  0  0  0  0  0  0
   -2.1920    6.8225   -3.2898 H   0  0  0  0  0  0  0  0  0  0  0  0
   -3.3740    6.3923   -1.1693 H   0  0  0  0  0  0  0  0  0  0  0  0
   -4.1756    8.0114   -1.3234 H   0  0  0  0  0  0  0  0  0  0  0  0
   -4.3376    5.5691   -2.6717 H   0  0  0  0  0  0  0  0  0  0  0  0
   -6.5874    7.7392   -0.7052 H   0  0  0  0  0  0  0  0  0  0  0  0
   -6.1443    8.9837   -1.9224 H   0  0  0  0  0  0  0  0  0  0  0  0
   -7.7949    8.2750   -1.9224 H   0  0  0  0  0  0  0  0  0  0  0  0
   -7.8245    5.5815   -2.3175 H   0  0  0  0  0  0  0  0  0  0  0  0
   -8.0448    6.5939   -3.7849 H   0  0  0  0  0  0  0  0  0  0  0  0
   -6.8385    5.2629   -3.7849 H   0  0  0  0  0  0  0  0  0  0  0  0
   -1.1700   10.0056   -2.7327 H   0  0  0  0  0  0  0  0  0  0  0  0
   -3.4754   10.4699   -2.1769 H   0  0  0  0  0  0  0  0  0  0  0  0
   -3.4330    9.3917   -0.7655 H   0  0  0  0  0  0  0  0  0  0  0  0
   -3.3422   12.2473   -0.6779 H   0  0  0  0  0  0  0  0  0  0  0  0
   -2.9223   11.2042    0.6781 H   0  0  0  0  0  0  0  0  0  0  0  0
   -1.1313   13.7085   -1.6548 H   0  0  0  0  0  0  0  0  0  0  0  0
   -0.2801   12.3574   -2.4774 H   0  0  0  0  0  0  0  0  0  0  0  0
   -2.0752   12.4205   -2.4774 H   0  0  0  0  0  0  0  0  0  0  0  0
   -0.7633   11.9515    1.4778 H   0  0  0  0  0  0  0  0  0  0  0  0
   -2.2160   13.9190    0.6671 H   0  0  0  0  0  0  0  0  0  0  0  0
   -0.9568   14.1470    1.9905 H   0  0  0  0  0  0  0  0  0  0  0  0
   -1.1075   16.0581    0.1830 H   0  0  0  0  0  0  0  0  0  0  0  0
    1.4725   13.4019   -1.4253 H   0  0  0  0  0  0  0  0  0  0  0  0
    3.0483   14.6964    0.8857 H   0  0  0  0  0  0  0  0  0  0  0  0
    3.6371   13.3987   -0.2458 H   0  0  0  0  0  0  0  0  0  0  0  0
    4.5271   15.6303   -0.8357 H   0  0  0  0  0  0  0  0  0  0  0  0
    3.4782   14.9237   -2.1269 H   0  0  0  0  0  0  0  0  0  0  0  0
    2.9441   17.2509   -1.8881 H   0  0  0  0  0  0  0  0  0  0  0  0
    3.6560   17.5620    0.2600 H   0  0  0  0  0  0  0  0  0  0  0  0
    0.4547   14.8802   -2.8877 H   0  0  0  0  0  0  0  0  0  0  0  0
    0.2813   16.6122   -3.3313 H   0  0  0  0  0  0  0  0  0  0  0  0
    1.9047   15.8432   -3.3313 H   0  0  0  0  0  0  0  0  0  0  0  0
    0.1883   17.7788   -0.0700 H   0  0  0  0  0  0  0  0  0  0  0  0
    0.8477   18.4214   -1.6124 H   0  0  0  0  0  0  0  0  0  0  0  0
   -0.6829   17.4811   -1.6124 H   0  0  0  0  0  0  0  0  0  0  0  0
    0.8091   12.5665    2.6906 H   0  0  0  0  0  0  0  0  0  0  0  0
    2.4972   12.3310    2.1233 H   0  0  0  0  0  0  0  0  0  0  0  0
    1.7705   13.9738    2.1233 H   0  0  0  0  0  0  0  0  0  0  0  0
    2.6889   11.5569   -0.3783 H   0  0  0  0  0  0  0  0  0  0  0  0
    1.6964   10.6666    0.9087 H   0  0  0  0  0  0  0  0  0  0  0  0
    0.9893   11.0852   -2.0086 H   0  0  0  0  0  0  0  0  0  0  0  0
    1.3710    9.5409   -1.1503 H   0  0  0  0  0  0  0  0  0  0  0  0
   -0.5637   10.2083    1.5162 H   0  0  0  0  0  0  0  0  0  0  0  0
   -1.5552    8.9690    0.6750 H   0  0  0  0  0  0  0  0  0  0  0  0
    0.2363    8.8375    0.6750 H   0  0  0  0  0  0  0  0  0  0  0  0
  1  2  1  0
  2  3  1  0
  3  4  1  0
  4  5  1  0
  5  6  1  0
  6  7  1  0
  7  8  1  0
  7  9  1  0
  2 10  1  0
 10 11  1  0
 11 12  1  0
 12 13  1  0
 13 14  1  6
 13 15  1  0
 15 16  1  0
 16 17  1  0
 17 18  2  0
 18 19  1  0
 19 20  1  0
 20 21  1  0
 21 22  1  0
 22 23  1  0
 22 24  1  0
 24 25  1  0
 24 26  1  0
 19 27  1  0
 27 28  1  1
 27 29  1  0
 29 30  1  0
 30 31  1  0
 31 32  1  1
  7  5  1  0
 31 10  1  0
 31 13  1  0
 27 15  1  0
 24 18  1  0
  1 33  1  0
  1 34  1  0
  1 35  1  0
  2 36  1  1
  3 37  1  0
  3 38  1  0
  4 39  1  0
  4 40  1  0
  5 41  1  6
  8 42  1  0
  8 43  1  0
  8 44  1  0
  9 45  1  0
  9 46  1  0
  9 47  1  0
 10 48  1  6
 11 49  1  0
 11 50  1  0
 12 51  1  0
 12 52  1  0
 14 53  1  0
 14 54  1  0
 14 55  1  0
 15 56  1  1
 16 57  1  0
 16 58  1  0
 17 59  1  0
 19 60  1  6
 20 61  1  0
 20 62  1  0
 21 63  1  0
 21 64  1  0
 22 65  1  6
 23 66  1  0
 25 67  1  0
 25 68  1  0
 25 69  1  0
 26 70  1  0
 26 71  1  0
 26 72  1  0
 28 73  1  0
 28 74  1  0
 28 75  1  0
 29 76  1  0
 29 77  1  0
 30 78  1  0
 30 79  1  0
 32 80  1  0
 32 81  1  0
 32 82  1  0
M  END
>  <meeko>  (11) 
{"is_sidechain": [false], "intermolecular_energy": 2.731, "internal_energy": -0.839}

$$$$
EPH_relaxed_0001_pdb2pqr_Repair_345_r2_0001_out
     RDKit          3D

 82 86  0  0  0  0  0  0  0  0999 V2000
    4.0880   17.1490    0.1210 C   0  0  0  0  0  0  0  0  0  0  0  0
    3.3370   16.7150   -1.1410 C   0  0  2  0  0  0  0  0  0  0  0  0
    2.7450   17.9150   -1.9060 C   0  0  0  0  0  0  0  0  0  0  0  0
    1.9690   18.8900   -1.0160 C   0  0  0  0  0  0  0  0  0  0  0  0
    0.5060   18.8950   -1.3430 C   0  0  2  0  0  0  0  0  0  0  0  0
   -0.0410   20.1920   -1.6170 O   0  0  0  0  0  0  0  0  0  0  0  0
   -0.5480   19.5230   -0.4510 C   0  0  0  0  0  0  0  0  0  0  0  0
   -0.1830   20.1890    0.8390 C   0  0  0  0  0  0  0  0  0  0  0  0
   -1.9660   19.0650   -0.5880 C   0  0  0  0  0  0  0  0  0  0  0  0
    2.2310   15.7320   -0.7760 C   0  0  1  0  0  0  0  0  0  0  0  0
    0.9240   16.4420   -0.3330 C   0  0  0  0  0  0  0  0  0  0  0  0
   -0.2530   15.5660   -0.8360 C   0  0  0  0  0  0  0  0  0  0  0  0
    0.4050   14.2300   -1.2530 C   0  0  1  0  0  0  0  0  0  0  0  0
    0.5890   13.4400    0.0800 C   0  0  0  0  0  0  0  0  0  0  0  0
   -0.3610   13.3870   -2.3240 C   0  0  2  0  0  0  0  0  0  0  0  0
   -1.7550   12.8990   -1.8940 C   0  0  0  0  0  0  0  0  0  0  0  0
   -1.7860   11.5630   -1.2280 C   0  0  0  0  0  0  0  0  0  0  0  0
   -0.7870   10.6610   -1.2370 C   0  0  0  0  0  0  0  0  0  0  0  0
    0.4890   10.9090   -2.0520 C   0  0  1  0  0  0  0  0  0  0  0  0
    0.8500    9.6290   -2.8500 C   0  0  0  0  0  0  0  0  0  0  0  0
    0.9550    8.3940   -1.9610 C   0  0  0  0  0  0  0  0  0  0  0  0
   -0.3520    8.1480   -1.2120 C   0  0  2  0  0  0  0  0  0  0  0  0
   -1.3650    7.7930   -2.1590 O   0  0  0  0  0  0  0  0  0  0  0  0
   -0.8210    9.3730   -0.3790 C   0  0  0  0  0  0  0  0  0  0  0  0
    0.1230    9.5710    0.8320 C   0  0  0  0  0  0  0  0  0  0  0  0
   -2.2190    9.0430    0.2100 C   0  0  0  0  0  0  0  0  0  0  0  0
    0.4920   12.2140   -2.9570 C   0  0  1  0  0  0  0  0  0  0  0  0
   -0.1450   11.9000   -4.3460 C   0  0  0  0  0  0  0  0  0  0  0  0
    1.9810   12.6420   -3.2390 C   0  0  0  0  0  0  0  0  0  0  0  0
    2.6440   13.5720   -2.2050 C   0  0  0  0  0  0  0  0  0  0  0  0
    1.7410   14.7680   -1.8850 C   0  0  2  0  0  0  0  0  0  0  0  0
    1.5570   15.5950   -3.2030 C   0  0  0  0  0  0  0  0  0  0  0  0
    3.5278   16.8253    1.0106 H   0  0  0  0  0  0  0  0  0  0  0  0
    5.0872   16.6891    0.1295 H   0  0  0  0  0  0  0  0  0  0  0  0
    4.1884   18.2444    0.1295 H   0  0  0  0  0  0  0  0  0  0  0  0
    4.0636   16.2259   -1.8065 H   0  0  0  0  0  0  0  0  0  0  0  0
    3.5700   18.4630   -2.3846 H   0  0  0  0  0  0  0  0  0  0  0  0
    2.0307   17.5092   -2.6375 H   0  0  0  0  0  0  0  0  0  0  0  0
    2.0983   18.5931    0.0353 H   0  0  0  0  0  0  0  0  0  0  0  0
    2.3630   19.9020   -1.1912 H   0  0  0  0  0  0  0  0  0  0  0  0
    0.5819   17.9010   -1.8079 H   0  0  0  0  0  0  0  0  0  0  0  0
   -0.5231   19.5684    1.6811 H   0  0  0  0  0  0  0  0  0  0  0  0
    0.9088   20.3123    0.8919 H   0  0  0  0  0  0  0  0  0  0  0  0
   -0.6665   21.1756    0.8919 H   0  0  0  0  0  0  0  0  0  0  0  0
   -2.4038   18.9236    0.4112 H   0  0  0  0  0  0  0  0  0  0  0  0
   -2.5443   19.8220   -1.1379 H   0  0  0  0  0  0  0  0  0  0  0  0
   -1.9922   18.1127   -1.1379 H   0  0  0  0  0  0  0  0  0  0  0  0
    2.7424   15.1647    0.0156 H   0  0  0  0  0  0  0  0  0  0  0  0
    0.8917   16.5268    0.7633 H   0  0  0  0  0  0  0  0  0  0  0  0
    0.8660   17.4586   -0.7491 H   0  0  0  0  0  0  0  0  0  0  0  0
   -0.9868   15.4033   -0.0329 H   0  0  0  0  0  0  0  0  0  0  0  0
   -0.7996   16.0384   -1.6655 H   0  0  0  0  0  0  0  0  0  0  0  0
    0.4313   14.1172    0.9323 H   0  0  0  0  0  0  0  0  0  0  0  0
   -0.1420   12.6192    0.1237 H   0  0  0  0  0  0  0  0  0  0  0  0
    1.6075   13.0267    0.1237 H   0  0  0  0  0  0  0  0  0  0  0  0
   -0.5348   14.1223   -3.1234 H   0  0  0  0  0  0  0  0  0  0  0  0
   -2.1726   13.6375   -1.1938 H   0  0  0  0  0  0  0  0  0  0  0  0
   -2.3385   12.7908   -2.8202 H   0  0  0  0  0  0  0  0  0  0  0  0
   -2.7031   11.2930   -0.6838 H   0  0  0  0  0  0  0  0  0  0  0  0
    1.2798   11.1278   -1.3193 H   0  0  0  0  0  0  0  0  0  0  0  0
    0.0706    9.4536   -3.6061 H   0  0  0  0  0  0  0  0  0  0  0  0
    1.8347    9.7913   -3.3127 H   0  0  0  0  0  0  0  0  0  0  0  0
    1.1816    7.5182   -2.5868 H   0  0  0  0  0  0  0  0  0  0  0  0
    1.7557    8.5584   -1.2250 H   0  0  0  0  0  0  0  0  0  0  0  0
   -0.1739    7.3325   -0.4956 H   0  0  0  0  0  0  0  0  0  0  0  0
   -1.1890    6.8830   -2.4510 H   0  0  0  0  0  0  0  0  0  0  0  0
   -0.4474    9.4514    1.7649 H   0  0  0  0  0  0  0  0  0  0  0  0
    0.9279    8.8221    0.7957 H   0  0  0  0  0  0  0  0  0  0  0  0
    0.5592   10.5802    0.7957 H   0  0  0  0  0  0  0  0  0  0  0  0
   -2.1662    9.0555    1.3087 H   0  0  0  0  0  0  0  0  0  0  0  0
   -2.9470    9.7940   -0.1307 H   0  0  0  0  0  0  0  0  0  0  0  0
   -2.5343    8.0457   -0.1307 H   0  0  0  0  0  0  0  0  0  0  0  0
   -1.1230   11.4179   -4.2003 H   0  0  0  0  0  0  0  0  0  0  0  0
   -0.2777   12.8359   -4.9085 H   0  0  0  0  0  0  0  0  0  0  0  0
    0.5165   11.2247   -4.9085 H   0  0  0  0  0  0  0  0  0  0  0  0
    2.5855   11.7249   -3.2976 H   0  0  0  0  0  0  0  0  0  0  0  0
    1.9409   13.2278   -4.1692 H   0  0  0  0  0  0  0  0  0  0  0  0
    2.8328   13.0061   -1.2808 H   0  0  0  0  0  0  0  0  0  0  0  0
    3.5883   13.9479   -2.6258 H   0  0  0  0  0  0  0  0  0  0  0  0
    1.3245   16.6401   -2.9507 H   0  0  0  0  0  0  0  0  0  0  0  0
    2.4854   15.5578   -3.7918 H   0  0  0  0  0  0  0  0  0  0  0  0
    0.7320   15.1677   -3.7918 H   0  0  0  0  0  0  0  0  0  0  0  0
  1  2  1  0
  2  3  1  0
  3  4  1  0
  4  5  1  0
  5  6  1  0
  6  7  1  0
  7  8  1  0
  7  9  1  0
  2 10  1  0
 10 11  1  0
 11 12  1  0
 12 13  1  0
 13 14  1  1
 13 15  1  0
 15 16  1  0
 16 17  1  0
 17 18  2  0
 18 19  1  0
 19 20  1  0
 20 21  1  0
 21 22  1  0
 22 23  1  0
 22 24  1  0
 24 25  1  0
 24 26  1  0
 19 27  1  0
 27 28  1  6
 27 29  1  0
 29 30  1  0
 30 31  1  0
 31 32  1  6
  7  5  1  0
 31 10  1  0
 31 13  1  0
 27 15  1  0
 24 18  1  0
  1 33  1  0
  1 34  1  0
  1 35  1  0
  2 36  1  6
  3 37  1  0
  3 38  1  0
  4 39  1  0
  4 40  1  0
  5 41  1  6
  8 42  1  0
  8 43  1  0
  8 44  1  0
  9 45  1  0
  9 46  1  0
  9 47  1  0
 10 48  1  1
 11 49  1  0
 11 50  1  0
 12 51  1  0
 12 52  1  0
 14 53  1  0
 14 54  1  0
 14 55  1  0
 15 56  1  6
 16 57  1  0
 16 58  1  0
 17 59  1  0
 19 60  1  1
 20 61  1  0
 20 62  1  0
 21 63  1  0
 21 64  1  0
 22 65  1  1
 23 66  1  0
 25 67  1  0
 25 68  1  0
 25 69  1  0
 26 70  1  0
 26 71  1  0
 26 72  1  0
 28 73  1  0
 28 74  1  0
 28 75  1  0
 29 76  1  0
 29 77  1  0
 30 78  1  0
 30 79  1  0
 32 80  1  0
 32 81  1  0
 32 82  1  0
M  END
>  <meeko>  (12) 
{"is_sidechain": [false], "intermolecular_energy": 2.731, "internal_energy": -0.839}

$$$$
EPH_relaxed_0001_pdb2pqr_Repair_345_r2_0001_out
     RDKit          3D

 82 86  0  0  0  0  0  0  0  0999 V2000
   -3.7310    7.2690   -3.3910 C   0  0  0  0  0  0  0  0  0  0  0  0
   -3.7410    7.3550   -1.8620 C   0  0  2  0  0  0  0  0  0  0  0  0
   -5.1380    7.0720   -1.2740 C   0  0  0  0  0  0  0  0  0  0  0  0
   -6.2610    7.1000   -2.3150 C   0  0  0  0  0  0  0  0  0  0  0  0
   -7.5920    7.3830   -1.6870 C   0  0  2  0  0  0  0  0  0  0  0  0
   -8.2570    6.2330   -1.1480 O   0  0  0  0  0  0  0  0  0  0  0  0
   -8.9080    6.8810   -2.2520 C   0  0  0  0  0  0  0  0  0  0  0  0
   -8.9570    6.0560   -3.5000 C   0  0  0  0  0  0  0  0  0  0  0  0
  -10.1680    7.5960   -1.8740 C   0  0  0  0  0  0  0  0  0  0  0  0
   -3.2570    8.7290   -1.4150 C   0  0  1  0  0  0  0  0  0  0  0  0
   -3.9480    9.2120   -0.1120 C   0  0  0  0  0  0  0  0  0  0  0  0
   -2.8890   10.0200    0.6820 C   0  0  0  0  0  0  0  0  0  0  0  0
   -1.7410   10.2570   -0.3270 C   0  0  1  0  0  0  0  0  0  0  0  0
   -2.2080   11.4740   -1.1870 C   0  0  0  0  0  0  0  0  0  0  0  0
   -0.3220   10.4930    0.2840 C   0  0  2  0  0  0  0  0  0  0  0  0
   -0.1920   11.7460    1.1680 C   0  0  0  0  0  0  0  0  0  0  0  0
    0.2170   12.9910    0.4530 C   0  0  0  0  0  0  0  0  0  0  0  0
    0.7440   13.0450   -0.7840 C   0  0  0  0  0  0  0  0  0  0  0  0
    1.0690   11.7620   -1.5590 C   0  0  1  0  0  0  0  0  0  0  0  0
    2.4860   11.8760   -2.1800 C   0  0  0  0  0  0  0  0  0  0  0  0
    2.6500   13.1300   -3.0340 C   0  0  0  0  0  0  0  0  0  0  0  0
    2.3760   14.3880   -2.2140 C   0  0  2  0  0  0  0  0  0  0  0  0
    3.3970   14.5230   -1.2200 O   0  0  0  0  0  0  0  0  0  0  0  0
    0.9800   14.3820   -1.5310 C   0  0  0  0  0  0  0  0  0  0  0  0
   -0.1260   14.5400   -2.6040 C   0  0  0  0  0  0  0  0  0  0  0  0
    0.8860   15.6380   -0.6230 C   0  0  0  0  0  0  0  0  0  0  0  0
    0.8590   10.4010   -0.7650 C   0  0  1  0  0  0  0  0  0  0  0  0
    2.1460   10.0530    0.0430 C   0  0  0  0  0  0  0  0  0  0  0  0
    0.6520    9.2300   -1.7970 C   0  0  0  0  0  0  0  0  0  0  0  0
   -0.7900    8.9690   -2.2720 C   0  0  0  0  0  0  0  0  0  0  0  0
   -1.7510    8.8790   -1.0830 C   0  0  2  0  0  0  0  0  0  0  0  0
   -1.3200    7.6500   -0.2110 C   0  0  0  0  0  0  0  0  0  0  0  0
   -3.6090    6.2199   -3.6984 H   0  0  0  0  0  0  0  0  0  0  0  0
   -4.6805    7.6589   -3.7864 H   0  0  0  0  0  0  0  0  0  0  0  0
   -2.8963    7.8664   -3.7864 H   0  0  0  0  0  0  0  0  0  0  0  0
   -3.0593    6.5794   -1.4828 H   0  0  0  0  0  0  0  0  0  0  0  0
   -5.1228    6.0766   -0.8062 H   0  0  0  0  0  0  0  0  0  0  0  0
   -5.3505    7.8726   -0.5501 H   0  0  0  0  0  0  0  0  0  0  0  0
   -6.0419    7.8841   -3.0547 H   0  0  0  0  0  0  0  0  0  0  0  0
   -6.3106    6.1103   -2.7926 H   0  0  0  0  0  0  0  0  0  0  0  0
   -7.2571    8.3826   -1.3729 H   0  0  0  0  0  0  0  0  0  0  0  0
   -9.0203    4.9907   -3.2331 H   0  0  0  0  0  0  0  0  0  0  0  0
   -9.8399    6.3387   -4.0920 H   0  0  0  0  0  0  0  0  0  0  0  0
   -8.0468    6.2322   -4.0920 H   0  0  0  0  0  0  0  0  0  0  0  0
  -10.2488    7.6419   -0.7779 H   0  0  0  0  0  0  0  0  0  0  0  0
  -10.1472    8.6169   -2.2832 H   0  0  0  0  0  0  0  0  0  0  0  0
  -11.0337    7.0546   -2.2832 H   0  0  0  0  0  0  0  0  0  0  0  0
   -3.5042    9.3126   -2.3141 H   0  0  0  0  0  0  0  0  0  0  0  0
   -4.8092    9.8519   -0.3546 H   0  0  0  0  0  0  0  0  0  0  0  0
   -4.3193    8.3607    0.4775 H   0  0  0  0  0  0  0  0  0  0  0  0
   -3.3082   10.9774    1.0250 H   0  0  0  0  0  0  0  0  0  0  0  0
   -2.5489    9.4888    1.5832 H   0  0  0  0  0  0  0  0  0  0  0  0
   -2.5223   12.2930   -0.5233 H   0  0  0  0  0  0  0  0  0  0  0  0
   -1.3768   11.8149   -1.8218 H   0  0  0  0  0  0  0  0  0  0  0  0
   -3.0539   11.1714   -1.8218 H   0  0  0  0  0  0  0  0  0  0  0  0
   -0.2127    9.6352    0.9638 H   0  0  0  0  0  0  0  0  0  0  0  0
   -1.1676   11.9308    1.6414 H   0  0  0  0  0  0  0  0  0  0  0  0
    0.6123   11.5295    1.8865 H   0  0  0  0  0  0  0  0  0  0  0  0
    0.0756   13.9450    0.9821 H   0  0  0  0  0  0  0  0  0  0  0  0
    0.3163   11.6909   -2.3580 H   0  0  0  0  0  0  0  0  0  0  0  0
    3.2264   11.9035   -1.3670 H   0  0  0  0  0  0  0  0  0  0  0  0
    2.6358   11.0041   -2.8338 H   0  0  0  0  0  0  0  0  0  0  0  0
    3.6788   13.1697   -3.4214 H   0  0  0  0  0  0  0  0  0  0  0  0
    1.9283   13.0871   -3.8630 H   0  0  0  0  0  0  0  0  0  0  0  0
    2.3823   15.2414   -2.9081 H   0  0  0  0  0  0  0  0  0  0  0  0
    3.5410   15.4730   -1.0730 H   0  0  0  0  0  0  0  0  0  0  0  0
   -1.0990   14.6790   -2.1100 H   0  0  0  0  0  0  0  0  0  0  0  0
    0.0948   15.4157   -3.2320 H   0  0  0  0  0  0  0  0  0  0  0  0
   -0.1592   13.6375   -3.2320 H   0  0  0  0  0  0  0  0  0  0  0  0
    0.9091   15.3298    0.4327 H   0  0  0  0  0  0  0  0  0  0  0  0
    1.7368   16.3040   -0.8292 H   0  0  0  0  0  0  0  0  0  0  0  0
   -0.0545   16.1700   -0.8292 H   0  0  0  0  0  0  0  0  0  0  0  0
    1.9298   10.1115    1.1200 H   0  0  0  0  0  0  0  0  0  0  0  0
    2.4737    9.0340   -0.2104 H   0  0  0  0  0  0  0  0  0  0  0  0
    2.9426   10.7680   -0.2104 H   0  0  0  0  0  0  0  0  0  0  0  0
    1.2588    9.4585   -2.6856 H   0  0  0  0  0  0  0  0  0  0  0  0
    0.9473    8.3170   -1.2592 H   0  0  0  0  0  0  0  0  0  0  0  0
   -1.1069    9.7921   -2.9293 H   0  0  0  0  0  0  0  0  0  0  0  0
   -0.8128    8.0124   -2.8146 H   0  0  0  0  0  0  0  0  0  0  0  0
   -1.4101    7.9070    0.8548 H   0  0  0  0  0  0  0  0  0  0  0  0
   -1.9712    6.7930   -0.4379 H   0  0  0  0  0  0  0  0  0  0  0  0
   -0.2762    7.3875   -0.4379 H   0  0  0  0  0  0  0  0  0  0  0  0
  1  2  1  0
  2  3  1  0
  3  4  1  0
  4  5  1  0
  5  6  1  0
  6  7  1  0
  7  8  1  0
  7  9  1  0
  2 10  1  0
 10 11  1  0
 11 12  1  0
 12 13  1  0
 13 14  1  6
 13 15  1  0
 15 16  1  0
 16 17  1  0
 17 18  2  0
 18 19  1  0
 19 20  1  0
 20 21  1  0
 21 22  1  0
 22 23  1  0
 22 24  1  0
 24 25  1  0
 24 26  1  0
 19 27  1  0
 27 28  1  1
 27 29  1  0
 29 30  1  0
 30 31  1  0
 31 32  1  1
  7  5  1  0
 31 10  1  0
 31 13  1  0
 27 15  1  0
 24 18  1  0
  1 33  1  0
  1 34  1  0
  1 35  1  0
  2 36  1  1
  3 37  1  0
  3 38  1  0
  4 39  1  0
  4 40  1  0
  5 41  1  1
  8 42  1  0
  8 43  1  0
  8 44  1  0
  9 45  1  0
  9 46  1  0
  9 47  1  0
 10 48  1  6
 11 49  1  0
 11 50  1  0
 12 51  1  0
 12 52  1  0
 14 53  1  0
 14 54  1  0
 14 55  1  0
 15 56  1  1
 16 57  1  0
 16 58  1  0
 17 59  1  0
 19 60  1  6
 20 61  1  0
 20 62  1  0
 21 63  1  0
 21 64  1  0
 22 65  1  6
 23 66  1  0
 25 67  1  0
 25 68  1  0
 25 69  1  0
 26 70  1  0
 26 71  1  0
 26 72  1  0
 28 73  1  0
 28 74  1  0
 28 75  1  0
 29 76  1  0
 29 77  1  0
 30 78  1  0
 30 79  1  0
 32 80  1  0
 32 81  1  0
 32 82  1  0
M  END
>  <meeko>  (13) 
{"is_sidechain": [false], "intermolecular_energy": 2.731, "internal_energy": -0.839}

$$$$
EPH_relaxed_0001_pdb2pqr_Repair_345_r2_0001_out
     RDKit          3D

 82 86  0  0  0  0  0  0  0  0999 V2000
   -4.4520   11.3800   -0.6510 C   0  0  0  0  0  0  0  0  0  0  0  0
   -3.0780   10.7230   -0.8130 C   0  0  2  0  0  0  0  0  0  0  0  0
   -2.9810    9.3840   -0.0550 C   0  0  0  0  0  0  0  0  0  0  0  0
   -2.6150    8.1960   -0.9500 C   0  0  0  0  0  0  0  0  0  0  0  0
   -1.4600    8.5160   -1.8500 C   0  0  2  0  0  0  0  0  0  0  0  0
   -0.6780    7.3820   -2.2470 O   0  0  0  0  0  0  0  0  0  0  0  0
   -0.0090    8.3610   -1.4360 C   0  0  0  0  0  0  0  0  0  0  0  0
    0.3660    7.8700   -0.0730 C   0  0  0  0  0  0  0  0  0  0  0  0
    1.0330    9.1440   -2.1730 C   0  0  0  0  0  0  0  0  0  0  0  0
   -1.9880   11.6740   -0.3310 C   0  0  1  0  0  0  0  0  0  0  0  0
   -1.0860   11.0430    0.7630 C   0  0  0  0  0  0  0  0  0  0  0  0
    0.3440   11.5990    0.5390 C   0  0  0  0  0  0  0  0  0  0  0  0
    0.1560   12.7710   -0.4520 C   0  0  1  0  0  0  0  0  0  0  0  0
   -0.3080   13.9720    0.4310 C   0  0  0  0  0  0  0  0  0  0  0  0
    1.3980   13.1430   -1.3260 C   0  0  2  0  0  0  0  0  0  0  0  0
    2.6280   13.6260   -0.5390 C   0  0  0  0  0  0  0  0  0  0  0  0
    2.7010   15.0990   -0.3090 C   0  0  0  0  0  0  0  0  0  0  0  0
    1.9720   16.0290   -0.9550 C   0  0  0  0  0  0  0  0  0  0  0  0
    1.0300   15.6350   -2.1000 C   0  0  1  0  0  0  0  0  0  0  0  0
    1.2340   16.6030   -3.2950 C   0  0  0  0  0  0  0  0  0  0  0  0
    1.0840   18.0670   -2.8940 C   0  0  0  0  0  0  0  0  0  0  0  0
    2.0770   18.4360   -1.7940 C   0  0  2  0  0  0  0  0  0  0  0  0
    3.4020   18.3690   -2.3280 O   0  0  0  0  0  0  0  0  0  0  0  0
    1.9710   17.5210   -0.5420 C   0  0  0  0  0  0  0  0  0  0  0  0
    0.6490   17.8170    0.2090 C   0  0  0  0  0  0  0  0  0  0  0  0
    3.1180   17.9080    0.4300 C   0  0  0  0  0  0  0  0  0  0  0  0
    1.0720   14.1070   -2.5380 C   0  0  1  0  0  0  0  0  0  0  0  0
    2.1960   13.8880   -3.5960 C   0  0  0  0  0  0  0  0  0  0  0  0
   -0.2840   13.7390   -3.2480 C   0  0  0  0  0  0  0  0  0  0  0  0
   -1.4360   13.2640   -2.3420 C   0  0  0  0  0  0  0  0  0  0  0  0
   -0.9620   12.1700   -1.3800 C   0  0  2  0  0  0  0  0  0  0  0  0
   -0.5100   10.9400   -2.2390 C   0  0  0  0  0  0  0  0  0  0  0  0
   -4.6820   11.4900    0.4191 H   0  0  0  0  0  0  0  0  0  0  0  0
   -4.4430   12.3712   -1.1279 H   0  0  0  0  0  0  0  0  0  0  0  0
   -5.2179   10.7507   -1.1279 H   0  0  0  0  0  0  0  0  0  0  0  0
   -2.9383   10.5074   -1.8826 H   0  0  0  0  0  0  0  0  0  0  0  0
   -2.2116    9.4813    0.7251 H   0  0  0  0  0  0  0  0  0  0  0  0
   -3.9775    9.1775    0.3625 H   0  0  0  0  0  0  0  0  0  0  0  0
   -2.3450    7.3402   -0.3139 H   0  0  0  0  0  0  0  0  0  0  0  0
   -3.4855    7.9596   -1.5796 H   0  0  0  0  0  0  0  0  0  0  0  0
   -2.0132    9.3530   -2.3011 H   0  0  0  0  0  0  0  0  0  0  0  0
   -0.1155    8.5004    0.6891 H   0  0  0  0  0  0  0  0  0  0  0  0
    0.0308    6.8292    0.0469 H   0  0  0  0  0  0  0  0  0  0  0  0
    1.4583    7.9195    0.0469 H   0  0  0  0  0  0  0  0  0  0  0  0
    1.6962    9.6424   -1.4507 H   0  0  0  0  0  0  0  0  0  0  0  0
    1.6237    8.4644   -2.8049 H   0  0  0  0  0  0  0  0  0  0  0  0
    0.5446    9.9004   -2.8049 H   0  0  0  0  0  0  0  0  0  0  0  0
   -2.6126   12.5129    0.0098 H   0  0  0  0  0  0  0  0  0  0  0  0
   -1.4496   11.3242    1.7624 H   0  0  0  0  0  0  0  0  0  0  0  0
   -1.0973    9.9449    0.6994 H   0  0  0  0  0  0  0  0  0  0  0  0
    0.7744   11.9565    1.4861 H   0  0  0  0  0  0  0  0  0  0  0  0
    1.0336   10.8335    0.1537 H   0  0  0  0  0  0  0  0  0  0  0  0
   -0.2056   13.7069    1.4937 H   0  0  0  0  0  0  0  0  0  0  0  0
    0.3151   14.8513    0.2107 H   0  0  0  0  0  0  0  0  0  0  0  0
   -1.3605   14.2040    0.2107 H   0  0  0  0  0  0  0  0  0  0  0  0
    1.6822   12.1721   -1.7579 H   0  0  0  0  0  0  0  0  0  0  0  0
    2.6201   13.1290    0.4423 H   0  0  0  0  0  0  0  0  0  0  0  0
    3.5025   13.3711   -1.1556 H   0  0  0  0  0  0  0  0  0  0  0  0
    3.4103   15.4551    0.4526 H   0  0  0  0  0  0  0  0  0  0  0  0
    0.0092   15.7410   -1.7041 H   0  0  0  0  0  0  0  0  0  0  0  0
    2.2440   16.4510   -3.7035 H   0  0  0  0  0  0  0  0  0  0  0  0
    0.4575   16.3801   -4.0416 H   0  0  0  0  0  0  0  0  0  0  0  0
    1.2684   18.7018   -3.7732 H   0  0  0  0  0  0  0  0  0  0  0  0
    0.0640   18.2241   -2.5134 H   0  0  0  0  0  0  0  0  0  0  0  0
    1.8352   19.4555   -1.4590 H   0  0  0  0  0  0  0  0  0  0  0  0
    3.4190   18.9020   -3.1410 H   0  0  0  0  0  0  0  0  0  0  0  0
    0.8267   17.7772    1.2938 H   0  0  0  0  0  0  0  0  0  0  0  0
    0.2870   18.8184   -0.0667 H   0  0  0  0  0  0  0  0  0  0  0  0
   -0.1055   17.0656   -0.0667 H   0  0  0  0  0  0  0  0  0  0  0  0
    2.7737   17.7918    1.4682 H   0  0  0  0  0  0  0  0  0  0  0  0
    3.9837   17.2522    0.2552 H   0  0  0  0  0  0  0  0  0  0  0  0
    3.4094   18.9542    0.2552 H   0  0  0  0  0  0  0  0  0  0  0  0
    3.1511   13.7019   -3.0831 H   0  0  0  0  0  0  0  0  0  0  0  0
    1.9432   13.0222   -4.2257 H   0  0  0  0  0  0  0  0  0  0  0  0
    2.2867   14.7854   -4.2257 H   0  0  0  0  0  0  0  0  0  0  0  0
   -0.6311   14.6332   -3.7864 H   0  0  0  0  0  0  0  0  0  0  0  0
   -0.0483   12.8771   -3.8896 H   0  0  0  0  0  0  0  0  0  0  0  0
   -1.8108   14.1181   -1.7589 H   0  0  0  0  0  0  0  0  0  0  0  0
   -2.2339   12.8511   -2.9768 H   0  0  0  0  0  0  0  0  0  0  0  0
   -0.2081   10.1185   -1.5727 H   0  0  0  0  0  0  0  0  0  0  0  0
   -1.3453   10.6092   -2.8737 H   0  0  0  0  0  0  0  0  0  0  0  0
    0.3407   11.2288   -2.8737 H   0  0  0  0  0  0  0  0  0  0  0  0
  1  2  1  0
  2  3  1  0
  3  4  1  0
  4  5  1  0
  5  6  1  0
  6  7  1  0
  7  8  1  0
  7  9  1  0
  2 10  1  0
 10 11  1  0
 11 12  1  0
 12 13  1  0
 13 14  1  1
 13 15  1  0
 15 16  1  0
 16 17  1  0
 17 18  2  0
 18 19  1  0
 19 20  1  0
 20 21  1  0
 21 22  1  0
 22 23  1  0
 22 24  1  0
 24 25  1  0
 24 26  1  0
 19 27  1  0
 27 28  1  6
 27 29  1  0
 29 30  1  0
 30 31  1  0
 31 32  1  6
  7  5  1  0
 31 10  1  0
 31 13  1  0
 27 15  1  0
 24 18  1  0
  1 33  1  0
  1 34  1  0
  1 35  1  0
  2 36  1  6
  3 37  1  0
  3 38  1  0
  4 39  1  0
  4 40  1  0
  5 41  1  6
  8 42  1  0
  8 43  1  0
  8 44  1  0
  9 45  1  0
  9 46  1  0
  9 47  1  0
 10 48  1  1
 11 49  1  0
 11 50  1  0
 12 51  1  0
 12 52  1  0
 14 53  1  0
 14 54  1  0
 14 55  1  0
 15 56  1  6
 16 57  1  0
 16 58  1  0
 17 59  1  0
 19 60  1  1
 20 61  1  0
 20 62  1  0
 21 63  1  0
 21 64  1  0
 22 65  1  1
 23 66  1  0
 25 67  1  0
 25 68  1  0
 25 69  1  0
 26 70  1  0
 26 71  1  0
 26 72  1  0
 28 73  1  0
 28 74  1  0
 28 75  1  0
 29 76  1  0
 29 77  1  0
 30 78  1  0
 30 79  1  0
 32 80  1  0
 32 81  1  0
 32 82  1  0
M  END
>  <meeko>  (14) 
{"is_sidechain": [false], "intermolecular_energy": 2.731, "internal_energy": -0.839}

$$$$
EPH_relaxed_0001_pdb2pqr_Repair_345_r2_0001_out
     RDKit          3D

 82 86  0  0  0  0  0  0  0  0999 V2000
   -2.3300    7.8140   -2.1160 C   0  0  0  0  0  0  0  0  0  0  0  0
   -2.3570    8.4660   -0.7310 C   0  0  2  0  0  0  0  0  0  0  0  0
   -3.7610    8.4200   -0.0950 C   0  0  0  0  0  0  0  0  0  0  0  0
   -4.9010    8.4310   -1.1180 C   0  0  0  0  0  0  0  0  0  0  0  0
   -5.6720    7.1460   -1.1010 C   0  0  2  0  0  0  0  0  0  0  0  0
   -5.7890    6.5010   -2.3760 O   0  0  0  0  0  0  0  0  0  0  0  0
   -7.0140    6.9670   -1.7870 C   0  0  0  0  0  0  0  0  0  0  0  0
   -7.6620    8.0880   -2.5380 C   0  0  0  0  0  0  0  0  0  0  0  0
   -7.9150    5.8670   -1.3200 C   0  0  0  0  0  0  0  0  0  0  0  0
   -1.8760    9.9090   -0.8270 C   0  0  1  0  0  0  0  0  0  0  0  0
   -1.5790   10.5340    0.5630 C   0  0  0  0  0  0  0  0  0  0  0  0
   -0.3730   11.4900    0.3750 C   0  0  0  0  0  0  0  0  0  0  0  0
   -0.2280   11.6390   -1.1570 C   0  0  1  0  0  0  0  0  0  0  0  0
   -1.2960   12.7040   -1.5590 C   0  0  0  0  0  0  0  0  0  0  0  0
    1.1940   12.0210   -1.6830 C   0  0  2  0  0  0  0  0  0  0  0  0
    1.7200   13.3870   -1.2090 C   0  0  0  0  0  0  0  0  0  0  0  0
    1.3890   14.5400   -2.0980 C   0  0  0  0  0  0  0  0  0  0  0  0
    0.9490   14.4490   -3.3660 C   0  0  0  0  0  0  0  0  0  0  0  0
    0.8340   13.0870   -4.0640 C   0  0  1  0  0  0  0  0  0  0  0  0
    1.4500   13.1810   -5.4850 C   0  0  0  0  0  0  0  0  0  0  0  0
    0.8470   14.3120   -6.3110 C   0  0  0  0  0  0  0  0  0  0  0  0
    1.0320   15.6570   -5.6120 C   0  0  2  0  0  0  0  0  0  0  0  0
    2.4280   15.9720   -5.5800 O   0  0  0  0  0  0  0  0  0  0  0  0
    0.4580   15.6800   -4.1680 C   0  0  0  0  0  0  0  0  0  0  0  0
   -1.0890   15.6400   -4.2220 C   0  0  0  0  0  0  0  0  0  0  0  0
    0.8350   17.0430   -3.5260 C   0  0  0  0  0  0  0  0  0  0  0  0
    1.3780   11.8400   -3.2440 C   0  0  1  0  0  0  0  0  0  0  0  0
    2.9070   11.6640   -3.4940 C   0  0  0  0  0  0  0  0  0  0  0  0
    0.6870   10.5310   -3.7800 C   0  0  0  0  0  0  0  0  0  0  0  0
   -0.6580   10.1420   -3.1380 C   0  0  0  0  0  0  0  0  0  0  0  0
   -0.5640   10.1710   -1.6090 C   0  0  2  0  0  0  0  0  0  0  0  0
    0.4870    9.0940   -1.1740 C   0  0  0  0  0  0  0  0  0  0  0  0
   -2.2847    6.7205   -2.0057 H   0  0  0  0  0  0  0  0  0  0  0  0
   -3.2403    8.0894   -2.6687 H   0  0  0  0  0  0  0  0  0  0  0  0
   -1.4456    8.1637   -2.6687 H   0  0  0  0  0  0  0  0  0  0  0  0
   -1.6811    7.8910   -0.0810 H   0  0  0  0  0  0  0  0  0  0  0  0
   -3.8409    7.5010    0.5041 H   0  0  0  0  0  0  0  0  0  0  0  0
   -3.8676    9.3292    0.5149 H   0  0  0  0  0  0  0  0  0  0  0  0
   -5.5843    9.2601   -0.8817 H   0  0  0  0  0  0  0  0  0  0  0  0
   -4.4627    8.5552   -2.1192 H   0  0  0  0  0  0  0  0  0  0  0  0
   -5.3308    6.9271   -0.0784 H   0  0  0  0  0  0  0  0  0  0  0  0
   -8.0811    8.8131   -1.8248 H   0  0  0  0  0  0  0  0  0  0  0  0
   -6.9130    8.5868   -3.1705 H   0  0  0  0  0  0  0  0  0  0  0  0
   -8.4681    7.6879   -3.1705 H   0  0  0  0  0  0  0  0  0  0  0  0
   -7.9307    5.8479   -0.2203 H   0  0  0  0  0  0  0  0  0  0  0  0
   -8.9331    6.0414   -1.6982 H   0  0  0  0  0  0  0  0  0  0  0  0
   -7.5435    4.9032   -1.6982 H   0  0  0  0  0  0  0  0  0  0  0  0
   -2.7287   10.3519   -1.3625 H   0  0  0  0  0  0  0  0  0  0  0  0
   -2.4548   11.0950    0.9211 H   0  0  0  0  0  0  0  0  0  0  0  0
   -1.3535    9.7551    1.3063 H   0  0  0  0  0  0  0  0  0  0  0  0
   -0.5740   12.4652    0.8426 H   0  0  0  0  0  0  0  0  0  0  0  0
    0.5432   11.1029    0.8449 H   0  0  0  0  0  0  0  0  0  0  0  0
   -1.7360   13.1428   -0.6513 H   0  0  0  0  0  0  0  0  0  0  0  0
   -0.8181   13.4959   -2.1545 H   0  0  0  0  0  0  0  0  0  0  0  0
   -2.0865   12.2239   -2.1545 H   0  0  0  0  0  0  0  0  0  0  0  0
    1.8345   11.2700   -1.1974 H   0  0  0  0  0  0  0  0  0  0  0  0
    1.2931   13.5898   -0.2157 H   0  0  0  0  0  0  0  0  0  0  0  0
    2.8171   13.3077   -1.2084 H   0  0  0  0  0  0  0  0  0  0  0  0
    1.5157   15.5498   -1.6806 H   0  0  0  0  0  0  0  0  0  0  0  0
   -0.2422   12.8716   -4.1369 H   0  0  0  0  0  0  0  0  0  0  0  0
    2.5323   13.3527   -5.3893 H   0  0  0  0  0  0  0  0  0  0  0  0
    1.2340   12.2362   -6.0053 H   0  0  0  0  0  0  0  0  0  0  0  0
    1.3429   14.3451   -7.2923 H   0  0  0  0  0  0  0  0  0  0  0  0
   -0.2302   14.1237   -6.4305 H   0  0  0  0  0  0  0  0  0  0  0  0
    0.4687   16.4076   -6.1858 H   0  0  0  0  0  0  0  0  0  0  0  0
    2.9140   15.1810   -5.8700 H   0  0  0  0  0  0  0  0  0  0  0  0
   -1.4915   15.6296   -3.1983 H   0  0  0  0  0  0  0  0  0  0  0  0
   -1.4605   16.5288   -4.7530 H   0  0  0  0  0  0  0  0  0  0  0  0
   -1.4140   14.7332   -4.7530 H   0  0  0  0  0  0  0  0  0  0  0  0
    0.8097   16.9516   -2.4301 H   0  0  0  0  0  0  0  0  0  0  0  0
    1.8468   17.3320   -3.8466 H   0  0  0  0  0  0  0  0  0  0  0  0
    0.1155   17.8108   -3.8466 H   0  0  0  0  0  0  0  0  0  0  0  0
    3.4317   11.6036   -2.5291 H   0  0  0  0  0  0  0  0  0  0  0  0
    3.0813   10.7399   -4.0646 H   0  0  0  0  0  0  0  0  0  0  0  0
    3.2867   12.5244   -4.0646 H   0  0  0  0  0  0  0  0  0  0  0  0
    0.5149   10.6634   -4.8584 H   0  0  0  0  0  0  0  0  0  0  0  0
    1.3767    9.7146   -3.5196 H   0  0  0  0  0  0  0  0  0  0  0  0
   -1.4316   10.8526   -3.4646 H   0  0  0  0  0  0  0  0  0  0  0  0
   -0.9155    9.1205   -3.4545 H   0  0  0  0  0  0  0  0  0  0  0  0
    0.5319    9.0480   -0.0759 H   0  0  0  0  0  0  0  0  0  0  0  0
    0.1908    8.1116   -1.5703 H   0  0  0  0  0  0  0  0  0  0  0  0
    1.4764    9.3661   -1.5703 H   0  0  0  0  0  0  0  0  0  0  0  0
  1  2  1  0
  2  3  1  0
  3  4  1  0
  4  5  1  0
  5  6  1  0
  6  7  1  0
  7  8  1  0
  7  9  1  0
  2 10  1  0
 10 11  1  0
 11 12  1  0
 12 13  1  0
 13 14  1  6
 13 15  1  0
 15 16  1  0
 16 17  1  0
 17 18  2  0
 18 19  1  0
 19 20  1  0
 20 21  1  0
 21 22  1  0
 22 23  1  0
 22 24  1  0
 24 25  1  0
 24 26  1  0
 19 27  1  0
 27 28  1  1
 27 29  1  0
 29 30  1  0
 30 31  1  0
 31 32  1  1
  7  5  1  0
 31 10  1  0
 31 13  1  0
 27 15  1  0
 24 18  1  0
  1 33  1  0
  1 34  1  0
  1 35  1  0
  2 36  1  1
  3 37  1  0
  3 38  1  0
  4 39  1  0
  4 40  1  0
  5 41  1  1
  8 42  1  0
  8 43  1  0
  8 44  1  0
  9 45  1  0
  9 46  1  0
  9 47  1  0
 10 48  1  6
 11 49  1  0
 11 50  1  0
 12 51  1  0
 12 52  1  0
 14 53  1  0
 14 54  1  0
 14 55  1  0
 15 56  1  1
 16 57  1  0
 16 58  1  0
 17 59  1  0
 19 60  1  6
 20 61  1  0
 20 62  1  0
 21 63  1  0
 21 64  1  0
 22 65  1  6
 23 66  1  0
 25 67  1  0
 25 68  1  0
 25 69  1  0
 26 70  1  0
 26 71  1  0
 26 72  1  0
 28 73  1  0
 28 74  1  0
 28 75  1  0
 29 76  1  0
 29 77  1  0
 30 78  1  0
 30 79  1  0
 32 80  1  0
 32 81  1  0
 32 82  1  0
M  END
>  <meeko>  (15) 
{"is_sidechain": [false], "intermolecular_energy": 2.731, "internal_energy": -0.839}

$$$$
EPH_relaxed_0001_pdb2pqr_Repair_345_r2_0001_out
     RDKit          3D

 82 86  0  0  0  0  0  0  0  0999 V2000
    0.1680    9.2900   -2.1380 C   0  0  0  0  0  0  0  0  0  0  0  0
    1.1900   10.3120   -2.6440 C   0  0  2  0  0  0  0  0  0  0  0  0
    2.6060    9.7110   -2.7540 C   0  0  0  0  0  0  0  0  0  0  0  0
    3.5010   10.4270   -3.7690 C   0  0  0  0  0  0  0  0  0  0  0  0
    4.8940   10.6110   -3.2480 C   0  0  2  0  0  0  0  0  0  0  0  0
    5.4880   11.8780   -3.5600 O   0  0  0  0  0  0  0  0  0  0  0  0
    6.1140   10.7240   -4.1420 C   0  0  0  0  0  0  0  0  0  0  0  0
    5.9980   10.6550   -5.6330 C   0  0  0  0  0  0  0  0  0  0  0  0
    7.4580   10.4100   -3.5620 C   0  0  0  0  0  0  0  0  0  0  0  0
    1.2100   11.5270   -1.7230 C   0  0  1  0  0  0  0  0  0  0  0  0
    2.2900   11.4180   -0.6140 C   0  0  0  0  0  0  0  0  0  0  0  0
    2.8250   12.8530   -0.3690 C   0  0  0  0  0  0  0  0  0  0  0  0
    1.8170   13.7740   -1.0950 C   0  0  1  0  0  0  0  0  0  0  0  0
    0.6190   13.9170   -0.1040 C   0  0  0  0  0  0  0  0  0  0  0  0
    2.3580   15.1690   -1.5490 C   0  0  2  0  0  0  0  0  0  0  0  0
    2.8240   16.0920   -0.4100 C   0  0  0  0  0  0  0  0  0  0  0  0
    1.7740   16.9950    0.1480 C   0  0  0  0  0  0  0  0  0  0  0  0
    0.5900   17.2690   -0.4300 C   0  0  0  0  0  0  0  0  0  0  0  0
    0.2480   16.7220   -1.8220 C   0  0  1  0  0  0  0  0  0  0  0  0
   -0.3480   17.8590   -2.6930 C   0  0  0  0  0  0  0  0  0  0  0  0
   -1.5380   18.5440   -2.0270 C   0  0  0  0  0  0  0  0  0  0  0  0
   -1.1430   19.1250   -0.6720 C   0  0  2  0  0  0  0  0  0  0  0  0
   -0.2150   20.1940   -0.8820 O   0  0  0  0  0  0  0  0  0  0  0  0
   -0.5210   18.0740    0.2880 C   0  0  0  0  0  0  0  0  0  0  0  0
   -1.6150   17.0820    0.7540 C   0  0  0  0  0  0  0  0  0  0  0  0
   -0.0380   18.8180    1.5630 C   0  0  0  0  0  0  0  0  0  0  0  0
    1.4120   15.9330   -2.5620 C   0  0  1  0  0  0  0  0  0  0  0  0
    2.3160   16.9310   -3.3490 C   0  0  0  0  0  0  0  0  0  0  0  0
    0.7790   14.9680   -3.6330 C   0  0  0  0  0  0  0  0  0  0  0  0
    0.3740   13.5620   -3.1500 C   0  0  0  0  0  0  0  0  0  0  0  0
    1.5140   12.9030   -2.3670 C   0  0  2  0  0  0  0  0  0  0  0  0
    2.7260   12.7260   -3.3450 C   0  0  0  0  0  0  0  0  0  0  0  0
    0.1656    9.2876   -1.0380 H   0  0  0  0  0  0  0  0  0  0  0  0
   -0.8330    9.5592   -2.5063 H   0  0  0  0  0  0  0  0  0  0  0  0
    0.4372    8.2890   -2.5063 H   0  0  0  0  0  0  0  0  0  0  0  0
    0.8810   10.6168   -3.6548 H   0  0  0  0  0  0  0  0  0  0  0  0
    3.0858    9.7693   -1.7659 H   0  0  0  0  0  0  0  0  0  0  0  0
    2.4892    8.6744   -3.1031 H   0  0  0  0  0  0  0  0  0  0  0  0
    3.5417    9.8298   -4.6919 H   0  0  0  0  0  0  0  0  0  0  0  0
    3.0730   11.4219   -3.9614 H   0  0  0  0  0  0  0  0  0  0  0  0
    4.6753    9.9791   -2.3746 H   0  0  0  0  0  0  0  0  0  0  0  0
    5.0819   10.1101   -5.9047 H   0  0  0  0  0  0  0  0  0  0  0  0
    5.9543   11.6740   -6.0449 H   0  0  0  0  0  0  0  0  0  0  0  0
    6.8726   10.1302   -6.0449 H   0  0  0  0  0  0  0  0  0  0  0  0
    7.3959   10.4245   -2.4638 H   0  0  0  0  0  0  0  0  0  0  0  0
    7.7785    9.4128   -3.8980 H   0  0  0  0  0  0  0  0  0  0  0  0
    8.1871   11.1620   -3.8980 H   0  0  0  0  0  0  0  0  0  0  0  0
    0.1711   11.5022   -1.3625 H   0  0  0  0  0  0  0  0  0  0  0  0
    1.8463   11.0163    0.3089 H   0  0  0  0  0  0  0  0  0  0  0  0
    3.1013   10.7401   -0.9176 H   0  0  0  0  0  0  0  0  0  0  0  0
    2.8521   13.0789    0.7072 H   0  0  0  0  0  0  0  0  0  0  0  0
    3.8522   12.9843   -0.7398 H   0  0  0  0  0  0  0  0  0  0  0  0
    0.9913   13.8726    0.9301 H   0  0  0  0  0  0  0  0  0  0  0  0
    0.1173   14.8814   -0.2720 H   0  0  0  0  0  0  0  0  0  0  0  0
   -0.0956   13.0978   -0.2720 H   0  0  0  0  0  0  0  0  0  0  0  0
    3.2683   14.8983   -2.1040 H   0  0  0  0  0  0  0  0  0  0  0  0
    3.1987   15.4597    0.4084 H   0  0  0  0  0  0  0  0  0  0  0  0
    3.5913   16.7492   -0.8450 H   0  0  0  0  0  0  0  0  0  0  0  0
    1.9863   17.4773    1.1136 H   0  0  0  0  0  0  0  0  0  0  0  0
   -0.5072   15.9381   -1.6636 H   0  0  0  0  0  0  0  0  0  0  0  0
    0.4344   18.6103   -2.8756 H   0  0  0  0  0  0  0  0  0  0  0  0
   -0.7041   17.4089   -3.6314 H   0  0  0  0  0  0  0  0  0  0  0  0
   -1.8960   19.3562   -2.6767 H   0  0  0  0  0  0  0  0  0  0  0  0
   -2.3316   17.7982   -1.8720 H   0  0  0  0  0  0  0  0  0  0  0  0
   -2.0622   19.4860   -0.1874 H   0  0  0  0  0  0  0  0  0  0  0  0
    0.5340   19.8380   -1.3880 H   0  0  0  0  0  0  0  0  0  0  0  0
   -1.6428   17.0568    1.8534 H   0  0  0  0  0  0  0  0  0  0  0  0
   -2.5929   17.4076    0.3698 H   0  0  0  0  0  0  0  0  0  0  0  0
   -1.3863   16.0770    0.3698 H   0  0  0  0  0  0  0  0  0  0  0  0
   -0.3875   18.2796    2.4563 H   0  0  0  0  0  0  0  0  0  0  0  0
    1.0611   18.8616    1.5679 H   0  0  0  0  0  0  0  0  0  0  0  0
   -0.4455   19.8397    1.5679 H   0  0  0  0  0  0  0  0  0  0  0  0
    2.8798   17.5535   -2.6386 H   0  0  0  0  0  0  0  0  0  0  0  0
    3.0185   16.3687   -3.9817 H   0  0  0  0  0  0  0  0  0  0  0  0
    1.6872   17.5747   -3.9817 H   0  0  0  0  0  0  0  0  0  0  0  0
   -0.1237   15.4566   -4.0285 H   0  0  0  0  0  0  0  0  0  0  0  0
    1.5747   14.7992   -4.3735 H   0  0  0  0  0  0  0  0  0  0  0  0
   -0.5088   13.6453   -2.4991 H   0  0  0  0  0  0  0  0  0  0  0  0
    0.1464   12.9407   -4.0288 H   0  0  0  0  0  0  0  0  0  0  0  0
    3.6498   12.5911   -2.7633 H   0  0  0  0  0  0  0  0  0  0  0  0
    2.5596   11.8426   -3.9790 H   0  0  0  0  0  0  0  0  0  0  0  0
    2.8192   13.6201   -3.9790 H   0  0  0  0  0  0  0  0  0  0  0  0
  1  2  1  0
  2  3  1  0
  3  4  1  0
  4  5  1  0
  5  6  1  0
  6  7  1  0
  7  8  1  0
  7  9  1  0
  2 10  1  0
 10 11  1  0
 11 12  1  0
 12 13  1  0
 13 14  1  1
 13 15  1  0
 15 16  1  0
 16 17  1  0
 17 18  2  0
 18 19  1  0
 19 20  1  0
 20 21  1  0
 21 22  1  0
 22 23  1  0
 22 24  1  0
 24 25  1  0
 24 26  1  0
 19 27  1  0
 27 28  1  6
 27 29  1  0
 29 30  1  0
 30 31  1  0
 31 32  1  6
  7  5  1  0
 31 10  1  0
 31 13  1  0
 27 15  1  0
 24 18  1  0
  1 33  1  0
  1 34  1  0
  1 35  1  0
  2 36  1  6
  3 37  1  0
  3 38  1  0
  4 39  1  0
  4 40  1  0
  5 41  1  1
  8 42  1  0
  8 43  1  0
  8 44  1  0
  9 45  1  0
  9 46  1  0
  9 47  1  0
 10 48  1  1
 11 49  1  0
 11 50  1  0
 12 51  1  0
 12 52  1  0
 14 53  1  0
 14 54  1  0
 14 55  1  0
 15 56  1  6
 16 57  1  0
 16 58  1  0
 17 59  1  0
 19 60  1  1
 20 61  1  0
 20 62  1  0
 21 63  1  0
 21 64  1  0
 22 65  1  1
 23 66  1  0
 25 67  1  0
 25 68  1  0
 25 69  1  0
 26 70  1  0
 26 71  1  0
 26 72  1  0
 28 73  1  0
 28 74  1  0
 28 75  1  0
 29 76  1  0
 29 77  1  0
 30 78  1  0
 30 79  1  0
 32 80  1  0
 32 81  1  0
 32 82  1  0
M  END
>  <meeko>  (16) 
{"is_sidechain": [false], "intermolecular_energy": 2.731, "internal_energy": -0.839}

$$$$
EPH_relaxed_0001_pdb2pqr_Repair_345_r2_0001_out
     RDKit          3D

 82 86  0  0  0  0  0  0  0  0999 V2000
   -2.2460   13.9120    0.5940 C   0  0  0  0  0  0  0  0  0  0  0  0
   -0.9510   14.7080    0.7780 C   0  0  2  0  0  0  0  0  0  0  0  0
   -0.9380   16.0000   -0.0640 C   0  0  0  0  0  0  0  0  0  0  0  0
    0.4680   16.5360   -0.3480 C   0  0  0  0  0  0  0  0  0  0  0  0
    0.4690   18.0240   -0.5210 C   0  0  2  0  0  0  0  0  0  0  0  0
   -0.0790   18.4840   -1.7630 O   0  0  0  0  0  0  0  0  0  0  0  0
    1.3180   18.7470   -1.5500 C   0  0  0  0  0  0  0  0  0  0  0  0
    2.2250   17.9990   -2.4760 C   0  0  0  0  0  0  0  0  0  0  0  0
    1.6320   20.1940   -1.3310 C   0  0  0  0  0  0  0  0  0  0  0  0
    0.2490   13.8400    0.4180 C   0  0  1  0  0  0  0  0  0  0  0  0
    0.5810   12.7950    1.5160 C   0  0  0  0  0  0  0  0  0  0  0  0
    1.0930   11.5260    0.7860 C   0  0  0  0  0  0  0  0  0  0  0  0
    1.3510   11.9890   -0.6660 C   0  0  1  0  0  0  0  0  0  0  0  0
    2.7500   12.6810   -0.6240 C   0  0  0  0  0  0  0  0  0  0  0  0
    1.2900   10.8800   -1.7670 C   0  0  2  0  0  0  0  0  0  0  0  0
    2.3400    9.7650   -1.6280 C   0  0  0  0  0  0  0  0  0  0  0  0
    3.6280   10.0090   -2.3440 C   0  0  0  0  0  0  0  0  0  0  0  0
    3.8290   10.9380   -3.2970 C   0  0  0  0  0  0  0  0  0  0  0  0
    2.6690   11.8000   -3.8140 C   0  0  1  0  0  0  0  0  0  0  0  0
    2.7060   11.8410   -5.3640 C   0  0  0  0  0  0  0  0  0  0  0  0
    4.0580   12.2950   -5.9060 C   0  0  0  0  0  0  0  0  0  0  0  0
    5.1770   11.3800   -5.4170 C   0  0  2  0  0  0  0  0  0  0  0  0
    5.0010   10.0850   -6.0000 O   0  0  0  0  0  0  0  0  0  0  0  0
    5.2330   11.2530   -3.8690 C   0  0  0  0  0  0  0  0  0  0  0  0
    5.7200   12.5890   -3.2540 C   0  0  0  0  0  0  0  0  0  0  0  0
    6.3120   10.1940   -3.5150 C   0  0  0  0  0  0  0  0  0  0  0  0
    1.2300   11.4380   -3.2460 C   0  0  1  0  0  0  0  0  0  0  0  0
    0.5800   10.3190   -4.1180 C   0  0  0  0  0  0  0  0  0  0  0  0
    0.2950   12.6980   -3.3730 C   0  0  0  0  0  0  0  0  0  0  0  0
    0.3120   13.6970   -2.2000 C   0  0  0  0  0  0  0  0  0  0  0  0
    0.1400   12.9720   -0.8610 C   0  0  2  0  0  0  0  0  0  0  0  0
   -1.2680   12.2850   -0.8660 C   0  0  0  0  0  0  0  0  0  0  0  0
   -2.6623   13.6561    1.5795 H   0  0  0  0  0  0  0  0  0  0  0  0
   -2.9733   14.5192    0.0351 H   0  0  0  0  0  0  0  0  0  0  0  0
   -2.0327   12.9889    0.0351 H   0  0  0  0  0  0  0  0  0  0  0  0
   -0.8924   15.0030    1.8361 H   0  0  0  0  0  0  0  0  0  0  0  0
   -1.4314   15.7930   -1.0251 H   0  0  0  0  0  0  0  0  0  0  0  0
   -1.4633   16.7697    0.5205 H   0  0  0  0  0  0  0  0  0  0  0  0
    1.1260   16.2745    0.4938 H   0  0  0  0  0  0  0  0  0  0  0  0
    0.8257   16.0817   -1.2837 H   0  0  0  0  0  0  0  0  0  0  0  0
    0.3354   18.1723    0.5607 H   0  0  0  0  0  0  0  0  0  0  0  0
    2.9423   17.4075   -1.8882 H   0  0  0  0  0  0  0  0  0  0  0  0
    1.6282   17.3270   -3.1102 H   0  0  0  0  0  0  0  0  0  0  0  0
    2.7711   18.7128   -3.1102 H   0  0  0  0  0  0  0  0  0  0  0  0
    1.6767   20.4002   -0.2514 H   0  0  0  0  0  0  0  0  0  0  0  0
    2.6027   20.4322   -1.7903 H   0  0  0  0  0  0  0  0  0  0  0  0
    0.8473   20.8131   -1.7903 H   0  0  0  0  0  0  0  0  0  0  0  0
    1.0084   14.6235    0.2783 H   0  0  0  0  0  0  0  0  0  0  0  0
    1.3596   13.1857    2.1877 H   0  0  0  0  0  0  0  0  0  0  0  0
   -0.3055   12.5687    2.1267 H   0  0  0  0  0  0  0  0  0  0  0  0
    2.0220   11.1605    1.2479 H   0  0  0  0  0  0  0  0  0  0  0  0
    0.3730   10.6960    0.8375 H   0  0  0  0  0  0  0  0  0  0  0  0
    3.0535   12.8311    0.4226 H   0  0  0  0  0  0  0  0  0  0  0  0
    3.4893   12.0446   -1.1325 H   0  0  0  0  0  0  0  0  0  0  0  0
    2.6928   13.6547   -1.1325 H   0  0  0  0  0  0  0  0  0  0  0  0
    0.3196   10.4020   -1.5675 H   0  0  0  0  0  0  0  0  0  0  0  0
    2.5640    9.6405   -0.5583 H   0  0  0  0  0  0  0  0  0  0  0  0
    1.8981    8.8711   -2.0924 H   0  0  0  0  0  0  0  0  0  0  0  0
    4.4846    9.3760   -2.0692 H   0  0  0  0  0  0  0  0  0  0  0  0
    2.8358   12.8096   -3.4104 H   0  0  0  0  0  0  0  0  0  0  0  0
    2.4927   10.8327   -5.7484 H   0  0  0  0  0  0  0  0  0  0  0  0
    1.9518   12.5694   -5.6965 H   0  0  0  0  0  0  0  0  0  0  0  0
    4.0305   12.2740   -7.0055 H   0  0  0  0  0  0  0  0  0  0  0  0
    4.2560   13.3152   -5.5455 H   0  0  0  0  0  0  0  0  0  0  0  0
    6.1310   11.8301   -5.7289 H   0  0  0  0  0  0  0  0  0  0  0  0
    4.3850    9.5890   -5.4340 H   0  0  0  0  0  0  0  0  0  0  0  0
    5.6943   12.5184   -2.1566 H   0  0  0  0  0  0  0  0  0  0  0  0
    6.7496   12.7910   -3.5844 H   0  0  0  0  0  0  0  0  0  0  0  0
    5.0619   13.4062   -3.5844 H   0  0  0  0  0  0  0  0  0  0  0  0
    6.3980   10.1095   -2.4216 H   0  0  0  0  0  0  0  0  0  0  0  0
    6.0221    9.2201   -3.9363 H   0  0  0  0  0  0  0  0  0  0  0  0
    7.2803   10.5021   -3.9363 H   0  0  0  0  0  0  0  0  0  0  0  0
    0.1362    9.5549   -3.4628 H   0  0  0  0  0  0  0  0  0  0  0  0
   -0.2038   10.7578   -4.7529 H   0  0  0  0  0  0  0  0  0  0  0  0
    1.3494    9.8555   -4.7529 H   0  0  0  0  0  0  0  0  0  0  0  0
    0.5941   13.2443   -4.2797 H   0  0  0  0  0  0  0  0  0  0  0  0
   -0.7286   12.2958   -3.3936 H   0  0  0  0  0  0  0  0  0  0  0  0
    1.2722   14.2337   -2.1981 H   0  0  0  0  0  0  0  0  0  0  0  0
   -0.5225   14.4023   -2.3272 H   0  0  0  0  0  0  0  0  0  0  0  0
   -1.6005   12.1228    0.1699 H   0  0  0  0  0  0  0  0  0  0  0  0
   -1.9899   12.9321   -1.3857 H   0  0  0  0  0  0  0  0  0  0  0  0
   -1.2022   11.3178   -1.3857 H   0  0  0  0  0  0  0  0  0  0  0  0
  1  2  1  0
  2  3  1  0
  3  4  1  0
  4  5  1  0
  5  6  1  0
  6  7  1  0
  7  8  1  0
  7  9  1  0
  2 10  1  0
 10 11  1  0
 11 12  1  0
 12 13  1  0
 13 14  1  1
 13 15  1  0
 15 16  1  0
 16 17  1  0
 17 18  2  0
 18 19  1  0
 19 20  1  0
 20 21  1  0
 21 22  1  0
 22 23  1  0
 22 24  1  0
 24 25  1  0
 24 26  1  0
 19 27  1  0
 27 28  1  6
 27 29  1  0
 29 30  1  0
 30 31  1  0
 31 32  1  6
  7  5  1  0
 31 10  1  0
 31 13  1  0
 27 15  1  0
 24 18  1  0
  1 33  1  0
  1 34  1  0
  1 35  1  0
  2 36  1  1
  3 37  1  0
  3 38  1  0
  4 39  1  0
  4 40  1  0
  5 41  1  1
  8 42  1  0
  8 43  1  0
  8 44  1  0
  9 45  1  0
  9 46  1  0
  9 47  1  0
 10 48  1  6
 11 49  1  0
 11 50  1  0
 12 51  1  0
 12 52  1  0
 14 53  1  0
 14 54  1  0
 14 55  1  0
 15 56  1  1
 16 57  1  0
 16 58  1  0
 17 59  1  0
 19 60  1  1
 20 61  1  0
 20 62  1  0
 21 63  1  0
 21 64  1  0
 22 65  1  6
 23 66  1  0
 25 67  1  0
 25 68  1  0
 25 69  1  0
 26 70  1  0
 26 71  1  0
 26 72  1  0
 28 73  1  0
 28 74  1  0
 28 75  1  0
 29 76  1  0
 29 77  1  0
 30 78  1  0
 30 79  1  0
 32 80  1  0
 32 81  1  0
 32 82  1  0
M  END
>  <meeko>  (17) 
{"is_sidechain": [false], "intermolecular_energy": 2.731, "internal_energy": -0.839}

$$$$
EPH_relaxed_0001_pdb2pqr_Repair_345_r2_0001_out
     RDKit          3D

 82 86  0  0  0  0  0  0  0  0999 V2000
    0.9270   14.9750   -2.6150 C   0  0  0  0  0  0  0  0  0  0  0  0
    1.1940   14.2680   -3.9470 C   0  0  2  0  0  0  0  0  0  0  0  0
    0.4870   14.9640   -5.1260 C   0  0  0  0  0  0  0  0  0  0  0  0
    1.0820   14.6160   -6.4930 C   0  0  0  0  0  0  0  0  0  0  0  0
    0.8550   15.7100   -7.4920 C   0  0  2  0  0  0  0  0  0  0  0  0
    0.4010   15.2640   -8.7760 O   0  0  0  0  0  0  0  0  0  0  0  0
    1.6940   15.8890   -8.7430 C   0  0  0  0  0  0  0  0  0  0  0  0
    2.8260   14.9640   -9.0620 C   0  0  0  0  0  0  0  0  0  0  0  0
    1.7290   17.2370   -9.3950 C   0  0  0  0  0  0  0  0  0  0  0  0
    0.7520   12.8120   -3.8600 C   0  0  1  0  0  0  0  0  0  0  0  0
    1.9020   11.8180   -4.1750 C   0  0  0  0  0  0  0  0  0  0  0  0
    1.6850   10.5800   -3.2670 C   0  0  0  0  0  0  0  0  0  0  0  0
    0.2520   10.7520   -2.7100 C   0  0  1  0  0  0  0  0  0  0  0  0
   -0.6850   10.2390   -3.8480 C   0  0  0  0  0  0  0  0  0  0  0  0
   -0.0500   10.0420   -1.3500 C   0  0  2  0  0  0  0  0  0  0  0  0
    0.0680    8.5080   -1.3750 C   0  0  0  0  0  0  0  0  0  0  0  0
   -1.1890    7.7770   -1.7140 C   0  0  0  0  0  0  0  0  0  0  0  0
   -2.4270    8.3060   -1.7090 C   0  0  0  0  0  0  0  0  0  0  0  0
   -2.6660    9.7480   -1.2410 C   0  0  1  0  0  0  0  0  0  0  0  0
   -3.8760    9.7840   -0.2720 C   0  0  0  0  0  0  0  0  0  0  0  0
   -5.1270    9.1510   -0.8740 C   0  0  0  0  0  0  0  0  0  0  0  0
   -4.8660    7.7010   -1.2730 C   0  0  2  0  0  0  0  0  0  0  0  0
   -4.6390    6.9310   -0.0890 O   0  0  0  0  0  0  0  0  0  0  0  0
   -3.6620    7.5390   -2.2420 C   0  0  0  0  0  0  0  0  0  0  0  0
   -4.0300    8.1150   -3.6320 C   0  0  0  0  0  0  0  0  0  0  0  0
   -3.4200    6.0200   -2.4520 C   0  0  0  0  0  0  0  0  0  0  0  0
   -1.3960   10.5070   -0.6610 C   0  0  1  0  0  0  0  0  0  0  0  0
   -1.2450   10.2050    0.8610 C   0  0  0  0  0  0  0  0  0  0  0  0
   -1.6250   12.0600   -0.7840 C   0  0  0  0  0  0  0  0  0  0  0  0
   -1.1960   12.7230   -2.1070 C   0  0  0  0  0  0  0  0  0  0  0  0
    0.2270   12.3080   -2.4920 C   0  0  2  0  0  0  0  0  0  0  0  0
    1.1950   12.8300   -1.3760 C   0  0  0  0  0  0  0  0  0  0  0  0
    1.1818   14.3004   -1.7843 H   0  0  0  0  0  0  0  0  0  0  0  0
    1.5440   15.8835   -2.5520 H   0  0  0  0  0  0  0  0  0  0  0  0
   -0.1365   15.2489   -2.5520 H   0  0  0  0  0  0  0  0  0  0  0  0
    2.2764   14.3172   -4.1366 H   0  0  0  0  0  0  0  0  0  0  0  0
   -0.5715   14.6648   -5.1217 H   0  0  0  0  0  0  0  0  0  0  0  0
    0.6177   16.0471   -4.9850 H   0  0  0  0  0  0  0  0  0  0  0  0
    2.1644   14.4555   -6.3801 H   0  0  0  0  0  0  0  0  0  0  0  0
    0.5846   13.7068   -6.8617 H   0  0  0  0  0  0  0  0  0  0  0  0
    0.5616   16.4084   -6.6944 H   0  0  0  0  0  0  0  0  0  0  0  0
    3.2746   14.5974   -8.1269 H   0  0  0  0  0  0  0  0  0  0  0  0
    2.4495   14.1118   -9.6468 H   0  0  0  0  0  0  0  0  0  0  0  0
    3.5861   15.5028   -9.6468 H   0  0  0  0  0  0  0  0  0  0  0  0
    1.7493   18.0183   -8.6209 H   0  0  0  0  0  0  0  0  0  0  0  0
    2.6296   17.3180  -10.0215 H   0  0  0  0  0  0  0  0  0  0  0  0
    0.8339   17.3647  -10.0215 H   0  0  0  0  0  0  0  0  0  0  0  0
   -0.0656   12.8241   -4.5958 H   0  0  0  0  0  0  0  0  0  0  0  0
    1.8672   11.5219   -5.2338 H   0  0  0  0  0  0  0  0  0  0  0  0
    2.8836   12.2778   -3.9877 H   0  0  0  0  0  0  0  0  0  0  0  0
    1.7660    9.6512   -3.8507 H   0  0  0  0  0  0  0  0  0  0  0  0
    2.4380   10.5111   -2.4681 H   0  0  0  0  0  0  0  0  0  0  0  0
   -1.5684    9.7554   -3.4055 H   0  0  0  0  0  0  0  0  0  0  0  0
   -1.0048   11.0878   -4.4702 H   0  0  0  0  0  0  0  0  0  0  0  0
   -0.1422    9.5122   -4.4702 H   0  0  0  0  0  0  0  0  0  0  0  0
    0.7734   10.3948   -0.7116 H   0  0  0  0  0  0  0  0  0  0  0  0
    0.8300    8.2378   -2.1209 H   0  0  0  0  0  0  0  0  0  0  0  0
    0.3285    8.2061   -0.3498 H   0  0  0  0  0  0  0  0  0  0  0  0
   -1.0957    6.7166   -1.9913 H   0  0  0  0  0  0  0  0  0  0  0  0
   -2.8968   10.3281   -2.1467 H   0  0  0  0  0  0  0  0  0  0  0  0
   -3.6101    9.2368    0.6445 H   0  0  0  0  0  0  0  0  0  0  0  0
   -4.1040   10.8394   -0.0618 H   0  0  0  0  0  0  0  0  0  0  0  0
   -5.9381    9.1797   -0.1315 H   0  0  0  0  0  0  0  0  0  0  0  0
   -5.4093    9.7176   -1.7736 H   0  0  0  0  0  0  0  0  0  0  0  0
   -5.7538    7.3431   -1.8150 H   0  0  0  0  0  0  0  0  0  0  0  0
   -4.7240    7.5290    0.6720 H   0  0  0  0  0  0  0  0  0  0  0  0
   -4.6182    9.0356   -3.5034 H   0  0  0  0  0  0  0  0  0  0  0  0
   -3.1097    8.3428   -4.1899 H   0  0  0  0  0  0  0  0  0  0  0  0
   -4.6234    7.3757   -4.1899 H   0  0  0  0  0  0  0  0  0  0  0  0
   -3.3408    5.5227   -1.4740 H   0  0  0  0  0  0  0  0  0  0  0  0
   -4.2608    5.5892   -3.0154 H   0  0  0  0  0  0  0  0  0  0  0  0
   -2.4869    5.8718   -3.0154 H   0  0  0  0  0  0  0  0  0  0  0  0
   -1.6623   11.0396    1.4436 H   0  0  0  0  0  0  0  0  0  0  0  0
   -1.7864    9.2795    1.1067 H   0  0  0  0  0  0  0  0  0  0  0  0
   -0.1798   10.0828    1.1067 H   0  0  0  0  0  0  0  0  0  0  0  0
   -2.7003   12.2494   -0.6502 H   0  0  0  0  0  0  0  0  0  0  0  0
   -0.9787   12.5080   -0.0148 H   0  0  0  0  0  0  0  0  0  0  0  0
   -1.8886   12.4159   -2.9045 H   0  0  0  0  0  0  0  0  0  0  0  0
   -1.2195   13.8149   -1.9759 H   0  0  0  0  0  0  0  0  0  0  0  0
    0.7714   12.6015   -0.3869 H   0  0  0  0  0  0  0  0  0  0  0  0
    2.1729   12.3369   -1.4788 H   0  0  0  0  0  0  0  0  0  0  0  0
    1.3203   13.9180   -1.4788 H   0  0  0  0  0  0  0  0  0  0  0  0
  1  2  1  0
  2  3  1  0
  3  4  1  0
  4  5  1  0
  5  6  1  0
  6  7  1  0
  7  8  1  0
  7  9  1  0
  2 10  1  0
 10 11  1  0
 11 12  1  0
 12 13  1  0
 13 14  1  6
 13 15  1  0
 15 16  1  0
 16 17  1  0
 17 18  2  0
 18 19  1  0
 19 20  1  0
 20 21  1  0
 21 22  1  0
 22 23  1  0
 22 24  1  0
 24 25  1  0
 24 26  1  0
 19 27  1  0
 27 28  1  1
 27 29  1  0
 29 30  1  0
 30 31  1  0
 31 32  1  1
  7  5  1  0
 31 10  1  0
 31 13  1  0
 27 15  1  0
 24 18  1  0
  1 33  1  0
  1 34  1  0
  1 35  1  0
  2 36  1  6
  3 37  1  0
  3 38  1  0
  4 39  1  0
  4 40  1  0
  5 41  1  1
  8 42  1  0
  8 43  1  0
  8 44  1  0
  9 45  1  0
  9 46  1  0
  9 47  1  0
 10 48  1  6
 11 49  1  0
 11 50  1  0
 12 51  1  0
 12 52  1  0
 14 53  1  0
 14 54  1  0
 14 55  1  0
 15 56  1  1
 16 57  1  0
 16 58  1  0
 17 59  1  0
 19 60  1  6
 20 61  1  0
 20 62  1  0
 21 63  1  0
 21 64  1  0
 22 65  1  6
 23 66  1  0
 25 67  1  0
 25 68  1  0
 25 69  1  0
 26 70  1  0
 26 71  1  0
 26 72  1  0
 28 73  1  0
 28 74  1  0
 28 75  1  0
 29 76  1  0
 29 77  1  0
 30 78  1  0
 30 79  1  0
 32 80  1  0
 32 81  1  0
 32 82  1  0
M  END
>  <meeko>  (18) 
{"is_sidechain": [false], "intermolecular_energy": 2.731, "internal_energy": -0.839}

$$$$
