EPH_relaxed_0001_pdb2pqr_Repair_363_r2_0001_out
     RDKit          3D

 82 86  0  0  0  0  0  0  0  0999 V2000
   -1.4070    8.5340   -1.8090 C   0  0  0  0  0  0  0  0  0  0  0  0
   -1.8340    9.1110   -0.4560 C   0  0  2  0  0  0  0  0  0  0  0  0
   -3.3300    9.4800   -0.4280 C   0  0  0  0  0  0  0  0  0  0  0  0
   -4.2640    8.2660   -0.4440 C   0  0  0  0  0  0  0  0  0  0  0  0
   -4.7390    7.9510   -1.8300 C   0  0  2  0  0  0  0  0  0  0  0  0
   -6.1610    8.0130   -2.0040 O   0  0  0  0  0  0  0  0  0  0  0  0
   -5.5580    6.7200   -2.1740 C   0  0  0  0  0  0  0  0  0  0  0  0
   -5.9480    5.7250   -1.1270 C   0  0  0  0  0  0  0  0  0  0  0  0
   -5.5610    6.2360   -3.5900 C   0  0  0  0  0  0  0  0  0  0  0  0
   -0.9890   10.3350   -0.1240 C   0  0  1  0  0  0  0  0  0  0  0  0
    0.0970   10.0400    0.9440 C   0  0  0  0  0  0  0  0  0  0  0  0
    1.3320   10.9040    0.5770 C   0  0  0  0  0  0  0  0  0  0  0  0
    0.8070   11.9040   -0.4790 C   0  0  1  0  0  0  0  0  0  0  0  0
    0.1080   13.0290    0.3460 C   0  0  0  0  0  0  0  0  0  0  0  0
    1.8710   12.4880   -1.4650 C   0  0  2  0  0  0  0  0  0  0  0  0
    2.9840   13.3220   -0.8060 C   0  0  0  0  0  0  0  0  0  0  0  0
    2.7010   14.7830   -0.6890 C   0  0  0  0  0  0  0  0  0  0  0  0
    1.7320   15.4480   -1.3450 C   0  0  0  0  0  0  0  0  0  0  0  0
    0.8580   14.7380   -2.3880 C   0  0  1  0  0  0  0  0  0  0  0  0
    0.7540   15.6190   -3.6610 C   0  0  0  0  0  0  0  0  0  0  0  0
    0.2670   17.0320   -3.3570 C   0  0  0  0  0  0  0  0  0  0  0  0
    1.1940   17.7250   -2.3610 C   0  0  2  0  0  0  0  0  0  0  0  0
    2.4650   17.9350   -2.9840 O   0  0  0  0  0  0  0  0  0  0  0  0
    1.3840   16.9260   -1.0420 C   0  0  0  0  0  0  0  0  0  0  0  0
    0.0710   16.9570   -0.2210 C   0  0  0  0  0  0  0  0  0  0  0  0
    2.4490   17.6630   -0.1860 C   0  0  0  0  0  0  0  0  0  0  0  0
    1.2540   13.2350   -2.7170 C   0  0  1  0  0  0  0  0  0  0  0  0
    2.3400   13.2020   -3.8350 C   0  0  0  0  0  0  0  0  0  0  0  0
   -0.0050   12.4880   -3.2980 C   0  0  0  0  0  0  0  0  0  0  0  0
   -0.9540   11.8290   -2.2790 C   0  0  0  0  0  0  0  0  0  0  0  0
   -0.1740   10.9710   -1.2780 C   0  0  2  0  0  0  0  0  0  0  0  0
    0.5220    9.8180   -2.0770 C   0  0  0  0  0  0  0  0  0  0  0  0
   -0.7598    7.6594   -1.6469 H   0  0  0  0  0  0  0  0  0  0  0  0
   -2.2992    8.2298   -2.3759 H   0  0  0  0  0  0  0  0  0  0  0  0
   -0.8553    9.2983   -2.3759 H   0  0  0  0  0  0  0  0  0  0  0  0
   -1.6729    8.3308    0.3025 H   0  0  0  0  0  0  0  0  0  0  0  0
   -3.5280   10.0584    0.4864 H   0  0  0  0  0  0  0  0  0  0  0  0
   -3.5361   10.0563   -1.3420 H   0  0  0  0  0  0  0  0  0  0  0  0
   -3.7232    7.3948   -0.0458 H   0  0  0  0  0  0  0  0  0  0  0  0
   -5.1426    8.5009    0.1748 H   0  0  0  0  0  0  0  0  0  0  0  0
   -3.8212    8.3724   -2.2661 H   0  0  0  0  0  0  0  0  0  0  0  0
   -5.7787    6.1569   -0.1296 H   0  0  0  0  0  0  0  0  0  0  0  0
   -7.0122    5.4710   -1.2408 H   0  0  0  0  0  0  0  0  0  0  0  0
   -5.3398    4.8155   -1.2408 H   0  0  0  0  0  0  0  0  0  0  0  0
   -5.5678    5.1361   -3.6015 H   0  0  0  0  0  0  0  0  0  0  0  0
   -6.4568    6.6136   -4.1047 H   0  0  0  0  0  0  0  0  0  0  0  0
   -4.6606    6.6025   -4.1047 H   0  0  0  0  0  0  0  0  0  0  0  0
   -1.7828   11.0240    0.2003 H   0  0  0  0  0  0  0  0  0  0  0  0
   -0.2716   10.3117    1.9442 H   0  0  0  0  0  0  0  0  0  0  0  0
    0.3541    8.9706    0.9609 H   0  0  0  0  0  0  0  0  0  0  0  0
    1.7105   11.4365    1.4620 H   0  0  0  0  0  0  0  0  0  0  0  0
    2.1683   10.2978    0.1986 H   0  0  0  0  0  0  0  0  0  0  0  0
    0.2331   12.8276    1.4201 H   0  0  0  0  0  0  0  0  0  0  0  0
    0.5619   14.0002    0.0997 H   0  0  0  0  0  0  0  0  0  0  0  0
   -0.9638   13.0522    0.0997 H   0  0  0  0  0  0  0  0  0  0  0  0
    2.3629   11.5803   -1.8447 H   0  0  0  0  0  0  0  0  0  0  0  0
    3.1514   12.9260    0.2065 H   0  0  0  0  0  0  0  0  0  0  0  0
    3.8610   13.2334   -1.4640 H   0  0  0  0  0  0  0  0  0  0  0  0
    3.3390   15.3660   -0.0084 H   0  0  0  0  0  0  0  0  0  0  0  0
   -0.1351   14.6266   -1.9282 H   0  0  0  0  0  0  0  0  0  0  0  0
    1.7477   15.6816   -4.1285 H   0  0  0  0  0  0  0  0  0  0  0  0
    0.0193   15.1501   -4.3321 H   0  0  0  0  0  0  0  0  0  0  0  0
    0.2423   17.6132   -4.2906 H   0  0  0  0  0  0  0  0  0  0  0  0
   -0.7390   16.9700   -2.9165 H   0  0  0  0  0  0  0  0  0  0  0  0
    0.7248   18.6804   -2.0833 H   0  0  0  0  0  0  0  0  0  0  0  0
    3.0560   17.2180   -2.6960 H   0  0  0  0  0  0  0  0  0  0  0  0
    0.3097   16.9514    0.8528 H   0  0  0  0  0  0  0  0  0  0  0  0
   -0.4934   17.8687   -0.4663 H   0  0  0  0  0  0  0  0  0  0  0  0
   -0.5358   16.0729   -0.4663 H   0  0  0  0  0  0  0  0  0  0  0  0
    2.2303   17.5117    0.8814 H   0  0  0  0  0  0  0  0  0  0  0  0
    3.4467   17.2612   -0.4164 H   0  0  0  0  0  0  0  0  0  0  0  0
    2.4246   18.7383   -0.4164 H   0  0  0  0  0  0  0  0  0  0  0  0
    3.3388   13.1716   -3.3752 H   0  0  0  0  0  0  0  0  0  0  0  0
    2.1964   12.3078   -4.4593 H   0  0  0  0  0  0  0  0  0  0  0  0
    2.2510   14.1033   -4.4593 H   0  0  0  0  0  0  0  0  0  0  0  0
   -0.5907   13.2207   -3.8725 H   0  0  0  0  0  0  0  0  0  0  0  0
    0.4026   11.6561   -3.8911 H   0  0  0  0  0  0  0  0  0  0  0  0
   -1.4972   12.6144   -1.7331 H   0  0  0  0  0  0  0  0  0  0  0  0
   -1.6572   11.1811   -2.8229 H   0  0  0  0  0  0  0  0  0  0  0  0
    0.9584    9.0950   -1.3721 H   0  0  0  0  0  0  0  0  0  0  0  0
   -0.2207    9.3104   -2.7101 H   0  0  0  0  0  0  0  0  0  0  0  0
    1.3172   10.2387   -2.7101 H   0  0  0  0  0  0  0  0  0  0  0  0
  1  2  1  0
  2  3  1  0
  3  4  1  0
  4  5  1  0
  5  6  1  0
  6  7  1  0
  7  8  1  0
  7  9  1  0
  2 10  1  0
 10 11  1  0
 11 12  1  0
 12 13  1  0
 13 14  1  1
 13 15  1  0
 15 16  1  0
 16 17  1  0
 17 18  2  0
 18 19  1  0
 19 20  1  0
 20 21  1  0
 21 22  1  0
 22 23  1  0
 22 24  1  0
 24 25  1  0
 24 26  1  0
 19 27  1  0
 27 28  1  6
 27 29  1  0
 29 30  1  0
 30 31  1  0
 31 32  1  6
  7  5  1  0
 31 10  1  0
 31 13  1  0
 27 15  1  0
 24 18  1  0
  1 33  1  0
  1 34  1  0
  1 35  1  0
  2 36  1  1
  3 37  1  0
  3 38  1  0
  4 39  1  0
  4 40  1  0
  5 41  1  6
  8 42  1  0
  8 43  1  0
  8 44  1  0
  9 45  1  0
  9 46  1  0
  9 47  1  0
 10 48  1  1
 11 49  1  0
 11 50  1  0
 12 51  1  0
 12 52  1  0
 14 53  1  0
 14 54  1  0
 14 55  1  0
 15 56  1  6
 16 57  1  0
 16 58  1  0
 17 59  1  0
 19 60  1  1
 20 61  1  0
 20 62  1  0
 21 63  1  0
 21 64  1  0
 22 65  1  1
 23 66  1  0
 25 67  1  0
 25 68  1  0
 25 69  1  0
 26 70  1  0
 26 71  1  0
 26 72  1  0
 28 73  1  0
 28 74  1  0
 28 75  1  0
 29 76  1  0
 29 77  1  0
 30 78  1  0
 30 79  1  0
 32 80  1  0
 32 81  1  0
 32 82  1  0
M  END
>  <meeko>  (1) 
{"is_sidechain": [false], "intermolecular_energy": 2.731, "internal_energy": -0.839}

$$$$
EPH_relaxed_0001_pdb2pqr_Repair_363_r2_0001_out
     RDKit          3D

 82 86  0  0  0  0  0  0  0  0999 V2000
    4.2130   17.5790   -0.6080 C   0  0  0  0  0  0  0  0  0  0  0  0
    2.8570   18.1380   -0.1690 C   0  0  2  0  0  0  0  0  0  0  0  0
    2.9260   18.8070    1.2180 C   0  0  0  0  0  0  0  0  0  0  0  0
    4.2870   18.6620    1.9050 C   0  0  0  0  0  0  0  0  0  0  0  0
    4.2980   19.3090    3.2560 C   0  0  2  0  0  0  0  0  0  0  0  0
    5.4040   20.1920    3.4880 O   0  0  0  0  0  0  0  0  0  0  0  0
    5.3460   19.0180    4.3140 C   0  0  0  0  0  0  0  0  0  0  0  0
    6.4560   18.0450    4.0670 C   0  0  0  0  0  0  0  0  0  0  0  0
    5.0160   19.3050    5.7460 C   0  0  0  0  0  0  0  0  0  0  0  0
    1.8140   17.0270   -0.1600 C   0  0  1  0  0  0  0  0  0  0  0  0
    0.3840   17.5470   -0.4620 C   0  0  0  0  0  0  0  0  0  0  0  0
   -0.3350   16.4350   -1.2680 C   0  0  0  0  0  0  0  0  0  0  0  0
    0.5750   15.1940   -1.1190 C   0  0  1  0  0  0  0  0  0  0  0  0
    0.2100   14.5930    0.2740 C   0  0  0  0  0  0  0  0  0  0  0  0
    0.4740   14.1230   -2.2540 C   0  0  2  0  0  0  0  0  0  0  0  0
   -0.9040   13.4530   -2.3980 C   0  0  0  0  0  0  0  0  0  0  0  0
   -1.0970   12.2110   -1.5940 C   0  0  0  0  0  0  0  0  0  0  0  0
   -0.1160   11.4960   -1.0100 C   0  0  0  0  0  0  0  0  0  0  0  0
    1.3580   11.8690   -1.2150 C   0  0  1  0  0  0  0  0  0  0  0  0
    2.1740   10.5910   -1.5430 C   0  0  0  0  0  0  0  0  0  0  0  0
    1.9890    9.4940   -0.4980 C   0  0  0  0  0  0  0  0  0  0  0  0
    0.5170    9.1110   -0.3650 C   0  0  2  0  0  0  0  0  0  0  0  0
    0.0910    8.4900   -1.5820 O   0  0  0  0  0  0  0  0  0  0  0  0
   -0.4050   10.3210   -0.0450 C   0  0  0  0  0  0  0  0  0  0  0  0
   -0.1430   10.8050    1.4030 C   0  0  0  0  0  0  0  0  0  0  0  0
   -1.8750    9.8220   -0.0770 C   0  0  0  0  0  0  0  0  0  0  0  0
    1.6390   13.0510   -2.2390 C   0  0  1  0  0  0  0  0  0  0  0  0
    1.7420   12.4870   -3.6890 C   0  0  0  0  0  0  0  0  0  0  0  0
    3.0390   13.6940   -1.9120 C   0  0  0  0  0  0  0  0  0  0  0  0
    3.0560   14.8280   -0.8700 C   0  0  0  0  0  0  0  0  0  0  0  0
    1.9880   15.8800   -1.1870 C   0  0  2  0  0  0  0  0  0  0  0  0
    2.3420   16.5170   -2.5740 C   0  0  0  0  0  0  0  0  0  0  0  0
    4.8127   17.3318    0.2804 H   0  0  0  0  0  0  0  0  0  0  0  0
    4.0580   16.6714   -1.2099 H   0  0  0  0  0  0  0  0  0  0  0  0
    4.7426   18.3321   -1.2099 H   0  0  0  0  0  0  0  0  0  0  0  0
    2.5684   18.9124   -0.8950 H   0  0  0  0  0  0  0  0  0  0  0  0
    2.7104   19.8789    1.0975 H   0  0  0  0  0  0  0  0  0  0  0  0
    2.1881   18.2993    1.8566 H   0  0  0  0  0  0  0  0  0  0  0  0
    4.5159   17.5923    2.0203 H   0  0  0  0  0  0  0  0  0  0  0  0
    5.0415   19.1616    1.2796 H   0  0  0  0  0  0  0  0  0  0  0  0
    3.1985   19.3150    3.2884 H   0  0  0  0  0  0  0  0  0  0  0  0
    6.8567   17.6938    5.0294 H   0  0  0  0  0  0  0  0  0  0  0  0
    6.0716   17.1876    3.4951 H   0  0  0  0  0  0  0  0  0  0  0  0
    7.2556   18.5384    3.4951 H   0  0  0  0  0  0  0  0  0  0  0  0
    5.6836   18.7244    6.3996 H   0  0  0  0  0  0  0  0  0  0  0  0
    5.1504   20.3784    5.9452 H   0  0  0  0  0  0  0  0  0  0  0  0
    3.9716   19.0230    5.9452 H   0  0  0  0  0  0  0  0  0  0  0  0
    1.9618   16.6441    0.8605 H   0  0  0  0  0  0  0  0  0  0  0  0
   -0.1543   17.7424    0.4772 H   0  0  0  0  0  0  0  0  0  0  0  0
    0.4177   18.4881   -1.0306 H   0  0  0  0  0  0  0  0  0  0  0  0
   -1.3333   16.2368   -0.8507 H   0  0  0  0  0  0  0  0  0  0  0  0
   -0.4881   16.7157   -2.3205 H   0  0  0  0  0  0  0  0  0  0  0  0
    0.6048   15.2431    1.0687 H   0  0  0  0  0  0  0  0  0  0  0  0
   -0.8837   14.5223    0.3677 H   0  0  0  0  0  0  0  0  0  0  0  0
    0.6516   13.5899    0.3677 H   0  0  0  0  0  0  0  0  0  0  0  0
    0.6085   14.7284   -3.1625 H   0  0  0  0  0  0  0  0  0  0  0  0
   -1.6693   14.1802   -2.0888 H   0  0  0  0  0  0  0  0  0  0  0  0
   -0.9852   13.1484   -3.4519 H   0  0  0  0  0  0  0  0  0  0  0  0
   -2.1278   11.8484   -1.4674 H   0  0  0  0  0  0  0  0  0  0  0  0
    1.6989   12.2960   -0.2603 H   0  0  0  0  0  0  0  0  0  0  0  0
    1.8479   10.2056   -2.5203 H   0  0  0  0  0  0  0  0  0  0  0  0
    3.2386   10.8677   -1.5516 H   0  0  0  0  0  0  0  0  0  0  0  0
    2.5659    8.6076   -0.8004 H   0  0  0  0  0  0  0  0  0  0  0  0
    2.3434    9.8702    0.4730 H   0  0  0  0  0  0  0  0  0  0  0  0
    0.4317    8.4188    0.4857 H   0  0  0  0  0  0  0  0  0  0  0  0
    0.8860    8.1880   -2.0520 H   0  0  0  0  0  0  0  0  0  0  0  0
   -0.5425   10.0670    2.1142 H   0  0  0  0  0  0  0  0  0  0  0  0
    0.9396   10.9183    1.5615 H   0  0  0  0  0  0  0  0  0  0  0  0
   -0.6401   11.7734    1.5615 H   0  0  0  0  0  0  0  0  0  0  0  0
   -2.2424    9.6973    0.9523 H   0  0  0  0  0  0  0  0  0  0  0  0
   -2.5007   10.5581   -0.6030 H   0  0  0  0  0  0  0  0  0  0  0  0
   -1.9233    8.8571   -0.6030 H   0  0  0  0  0  0  0  0  0  0  0  0
    1.9395   11.4056   -3.6486 H   0  0  0  0  0  0  0  0  0  0  0  0
    0.7961   12.6674   -4.2207 H   0  0  0  0  0  0  0  0  0  0  0  0
    2.5631   12.9901   -4.2207 H   0  0  0  0  0  0  0  0  0  0  0  0
    3.6951   12.8923   -1.5421 H   0  0  0  0  0  0  0  0  0  0  0  0
    3.3675   14.1618   -2.8518 H   0  0  0  0  0  0  0  0  0  0  0  0
    2.8595   14.4045    0.1260 H   0  0  0  0  0  0  0  0  0  0  0  0
    4.0434   15.3121   -0.8945 H   0  0  0  0  0  0  0  0  0  0  0  0
    2.8708   17.4686   -2.4162 H   0  0  0  0  0  0  0  0  0  0  0  0
    2.9869   15.8285   -3.1398 H   0  0  0  0  0  0  0  0  0  0  0  0
    1.4168   16.7011   -3.1398 H   0  0  0  0  0  0  0  0  0  0  0  0
  1  2  1  0
  2  3  1  0
  3  4  1  0
  4  5  1  0
  5  6  1  0
  6  7  1  0
  7  8  1  0
  7  9  1  0
  2 10  1  0
 10 11  1  0
 11 12  1  0
 12 13  1  0
 13 14  1  1
 13 15  1  0
 15 16  1  0
 16 17  1  0
 17 18  2  0
 18 19  1  0
 19 20  1  0
 20 21  1  0
 21 22  1  0
 22 23  1  0
 22 24  1  0
 24 25  1  0
 24 26  1  0
 19 27  1  0
 27 28  1  6
 27 29  1  0
 29 30  1  0
 30 31  1  0
 31 32  1  6
  7  5  1  0
 31 10  1  0
 31 13  1  0
 27 15  1  0
 24 18  1  0
  1 33  1  0
  1 34  1  0
  1 35  1  0
  2 36  1  6
  3 37  1  0
  3 38  1  0
  4 39  1  0
  4 40  1  0
  5 41  1  1
  8 42  1  0
  8 43  1  0
  8 44  1  0
  9 45  1  0
  9 46  1  0
  9 47  1  0
 10 48  1  1
 11 49  1  0
 11 50  1  0
 12 51  1  0
 12 52  1  0
 14 53  1  0
 14 54  1  0
 14 55  1  0
 15 56  1  6
 16 57  1  0
 16 58  1  0
 17 59  1  0
 19 60  1  1
 20 61  1  0
 20 62  1  0
 21 63  1  0
 21 64  1  0
 22 65  1  1
 23 66  1  0
 25 67  1  0
 25 68  1  0
 25 69  1  0
 26 70  1  0
 26 71  1  0
 26 72  1  0
 28 73  1  0
 28 74  1  0
 28 75  1  0
 29 76  1  0
 29 77  1  0
 30 78  1  0
 30 79  1  0
 32 80  1  0
 32 81  1  0
 32 82  1  0
M  END
>  <meeko>  (2) 
{"is_sidechain": [false], "intermolecular_energy": 2.731, "internal_energy": -0.839}

$$$$
EPH_relaxed_0001_pdb2pqr_Repair_363_r2_0001_out
     RDKit          3D

 82 86  0  0  0  0  0  0  0  0999 V2000
    0.4560   18.4130    0.0250 C   0  0  0  0  0  0  0  0  0  0  0  0
    1.5340   17.3480   -0.1980 C   0  0  2  0  0  0  0  0  0  0  0  0
    2.7530   17.9060   -0.9590 C   0  0  0  0  0  0  0  0  0  0  0  0
    3.9850   18.1190   -0.0760 C   0  0  0  0  0  0  0  0  0  0  0  0
    3.6100   18.6110    1.2890 C   0  0  2  0  0  0  0  0  0  0  0  0
    3.8560   20.0060    1.5110 O   0  0  0  0  0  0  0  0  0  0  0  0
    4.6220   19.0920    2.3130 C   0  0  0  0  0  0  0  0  0  0  0  0
    6.0890   19.1040    2.0140 C   0  0  0  0  0  0  0  0  0  0  0  0
    4.2350   19.0880    3.7590 C   0  0  0  0  0  0  0  0  0  0  0  0
    0.9450   16.1630   -0.9550 C   0  0  1  0  0  0  0  0  0  0  0  0
    0.7930   16.4410   -2.4740 C   0  0  0  0  0  0  0  0  0  0  0  0
    1.0680   15.1010   -3.2040 C   0  0  0  0  0  0  0  0  0  0  0  0
    1.0400   14.0340   -2.0840 C   0  0  1  0  0  0  0  0  0  0  0  0
   -0.4740   13.7400   -1.8470 C   0  0  0  0  0  0  0  0  0  0  0  0
    1.8470   12.7230   -2.3580 C   0  0  2  0  0  0  0  0  0  0  0  0
    1.3560   11.8940   -3.5570 C   0  0  0  0  0  0  0  0  0  0  0  0
    0.3270   10.8600   -3.2400 C   0  0  0  0  0  0  0  0  0  0  0  0
    0.0230   10.4120   -2.0070 C   0  0  0  0  0  0  0  0  0  0  0  0
    0.8150   10.8830   -0.7800 C   0  0  1  0  0  0  0  0  0  0  0  0
    1.1810    9.6600    0.1000 C   0  0  0  0  0  0  0  0  0  0  0  0
   -0.0380    8.8240    0.4780 C   0  0  0  0  0  0  0  0  0  0  0  0
   -0.7650    8.3260   -0.7690 C   0  0  2  0  0  0  0  0  0  0  0  0
    0.0790    7.3960   -1.4540 O   0  0  0  0  0  0  0  0  0  0  0  0
   -1.1760    9.4700   -1.7370 C   0  0  0  0  0  0  0  0  0  0  0  0
   -2.3160   10.3040   -1.1030 C   0  0  0  0  0  0  0  0  0  0  0  0
   -1.7720    8.8220   -3.0160 C   0  0  0  0  0  0  0  0  0  0  0  0
    2.0650   11.8170   -1.0790 C   0  0  1  0  0  0  0  0  0  0  0  0
    3.3260   10.9440   -1.3620 C   0  0  0  0  0  0  0  0  0  0  0  0
    2.3920   12.6650    0.2070 C   0  0  0  0  0  0  0  0  0  0  0  0
    1.6510   14.0070    0.3610 C   0  0  0  0  0  0  0  0  0  0  0  0
    1.7410   14.8340   -0.9260 C   0  0  2  0  0  0  0  0  0  0  0  0
    3.2510   15.1640   -1.1770 C   0  0  0  0  0  0  0  0  0  0  0  0
    0.3054   18.5618    1.1044 H   0  0  0  0  0  0  0  0  0  0  0  0
    0.7755   19.3599   -0.4346 H   0  0  0  0  0  0  0  0  0  0  0  0
   -0.4870   18.0821   -0.4346 H   0  0  0  0  0  0  0  0  0  0  0  0
    1.8848   17.0199    0.7916 H   0  0  0  0  0  0  0  0  0  0  0  0
    3.0170   17.1982   -1.7586 H   0  0  0  0  0  0  0  0  0  0  0  0
    2.4636   18.8925   -1.3503 H   0  0  0  0  0  0  0  0  0  0  0  0
    4.5213   17.1638    0.0242 H   0  0  0  0  0  0  0  0  0  0  0  0
    4.6209   18.8799   -0.5521 H   0  0  0  0  0  0  0  0  0  0  0  0
    2.7869   17.8839    1.3505 H   0  0  0  0  0  0  0  0  0  0  0  0
    6.6554   19.1086    2.9570 H   0  0  0  0  0  0  0  0  0  0  0  0
    6.3521   18.2080    1.4327 H   0  0  0  0  0  0  0  0  0  0  0  0
    6.3374   20.0042    1.4327 H   0  0  0  0  0  0  0  0  0  0  0  0
    5.1420   19.0974    4.3813 H   0  0  0  0  0  0  0  0  0  0  0  0
    3.6300   19.9799    3.9791 H   0  0  0  0  0  0  0  0  0  0  0  0
    3.6486   18.1837    3.9791 H   0  0  0  0  0  0  0  0  0  0  0  0
   -0.0020   16.0465   -0.4076 H   0  0  0  0  0  0  0  0  0  0  0  0
   -0.2264   16.7904   -2.6949 H   0  0  0  0  0  0  0  0  0  0  0  0
    1.4938   17.2218   -2.8046 H   0  0  0  0  0  0  0  0  0  0  0  0
    0.2875   14.8991   -3.9524 H   0  0  0  0  0  0  0  0  0  0  0  0
    2.0243   15.1105   -3.7475 H   0  0  0  0  0  0  0  0  0  0  0  0
   -0.6751   13.7009   -0.7663 H   0  0  0  0  0  0  0  0  0  0  0  0
   -1.0783   14.5376   -2.3038 H   0  0  0  0  0  0  0  0  0  0  0  0
   -0.7359   12.7742   -2.3038 H   0  0  0  0  0  0  0  0  0  0  0  0
    2.8353   13.1099   -2.6470 H   0  0  0  0  0  0  0  0  0  0  0  0
    0.9255   12.5865   -4.2953 H   0  0  0  0  0  0  0  0  0  0  0  0
    2.2345   11.3450   -3.9270 H   0  0  0  0  0  0  0  0  0  0  0  0
   -0.2297   10.4277   -4.0845 H   0  0  0  0  0  0  0  0  0  0  0  0
    0.1446   11.5549   -0.2240 H   0  0  0  0  0  0  0  0  0  0  0  0
    1.8857    9.0241   -0.4559 H   0  0  0  0  0  0  0  0  0  0  0  0
    1.6260   10.0406    1.0312 H   0  0  0  0  0  0  0  0  0  0  0  0
    0.2891    7.9591    1.0737 H   0  0  0  0  0  0  0  0  0  0  0  0
   -0.7283    9.4523    1.0600 H   0  0  0  0  0  0  0  0  0  0  0  0
   -1.6977    7.8464   -0.4373 H   0  0  0  0  0  0  0  0  0  0  0  0
    0.2000    7.7210   -2.3620 H   0  0  0  0  0  0  0  0  0  0  0  0
   -2.2432   10.2508   -0.0067 H   0  0  0  0  0  0  0  0  0  0  0  0
   -2.2271   11.3518   -1.4259 H   0  0  0  0  0  0  0  0  0  0  0  0
   -3.2877    9.9020   -1.4259 H   0  0  0  0  0  0  0  0  0  0  0  0
   -2.4910    8.0402   -2.7300 H   0  0  0  0  0  0  0  0  0  0  0  0
   -2.2846    9.5914   -3.6120 H   0  0  0  0  0  0  0  0  0  0  0  0
   -0.9625    8.3754   -3.6120 H   0  0  0  0  0  0  0  0  0  0  0  0
    3.7772   10.6316   -0.4087 H   0  0  0  0  0  0  0  0  0  0  0  0
    3.0339   10.0539   -1.9385 H   0  0  0  0  0  0  0  0  0  0  0  0
    4.0563   11.5308   -1.9385 H   0  0  0  0  0  0  0  0  0  0  0  0
    2.1477   12.0474    1.0839 H   0  0  0  0  0  0  0  0  0  0  0  0
    3.4549   12.9322    0.1131 H   0  0  0  0  0  0  0  0  0  0  0  0
    0.5931   13.8098    0.5888 H   0  0  0  0  0  0  0  0  0  0  0  0
    2.1210   14.5756    1.1769 H   0  0  0  0  0  0  0  0  0  0  0  0
    3.7670   15.2768   -0.2121 H   0  0  0  0  0  0  0  0  0  0  0  0
    3.7151   14.3461   -1.7476 H   0  0  0  0  0  0  0  0  0  0  0  0
    3.3316   16.1010   -1.7476 H   0  0  0  0  0  0  0  0  0  0  0  0
  1  2  1  0
  2  3  1  0
  3  4  1  0
  4  5  1  0
  5  6  1  0
  6  7  1  0
  7  8  1  0
  7  9  1  0
  2 10  1  0
 10 11  1  0
 11 12  1  0
 12 13  1  0
 13 14  1  1
 13 15  1  0
 15 16  1  0
 16 17  1  0
 17 18  2  0
 18 19  1  0
 19 20  1  0
 20 21  1  0
 21 22  1  0
 22 23  1  0
 22 24  1  0
 24 25  1  0
 24 26  1  0
 19 27  1  0
 27 28  1  6
 27 29  1  0
 29 30  1  0
 30 31  1  0
 31 32  1  6
  7  5  1  0
 31 10  1  0
 31 13  1  0
 27 15  1  0
 24 18  1  0
  1 33  1  0
  1 34  1  0
  1 35  1  0
  2 36  1  1
  3 37  1  0
  3 38  1  0
  4 39  1  0
  4 40  1  0
  5 41  1  1
  8 42  1  0
  8 43  1  0
  8 44  1  0
  9 45  1  0
  9 46  1  0
  9 47  1  0
 10 48  1  1
 11 49  1  0
 11 50  1  0
 12 51  1  0
 12 52  1  0
 14 53  1  0
 14 54  1  0
 14 55  1  0
 15 56  1  6
 16 57  1  0
 16 58  1  0
 17 59  1  0
 19 60  1  1
 20 61  1  0
 20 62  1  0
 21 63  1  0
 21 64  1  0
 22 65  1  1
 23 66  1  0
 25 67  1  0
 25 68  1  0
 25 69  1  0
 26 70  1  0
 26 71  1  0
 26 72  1  0
 28 73  1  0
 28 74  1  0
 28 75  1  0
 29 76  1  0
 29 77  1  0
 30 78  1  0
 30 79  1  0
 32 80  1  0
 32 81  1  0
 32 82  1  0
M  END
>  <meeko>  (3) 
{"is_sidechain": [false], "intermolecular_energy": 2.731, "internal_energy": -0.839}

$$$$
EPH_relaxed_0001_pdb2pqr_Repair_363_r2_0001_out
     RDKit          3D

 82 86  0  0  0  0  0  0  0  0999 V2000
    2.1430   18.2580   -2.7390 C   0  0  0  0  0  0  0  0  0  0  0  0
    0.9790   17.7650   -1.8750 C   0  0  2  0  0  0  0  0  0  0  0  0
    1.3350   17.7490   -0.3750 C   0  0  0  0  0  0  0  0  0  0  0  0
    1.2400   19.1220    0.2950 C   0  0  0  0  0  0  0  0  0  0  0  0
   -0.0320   19.8280   -0.0660 C   0  0  2  0  0  0  0  0  0  0  0  0
   -0.8570   20.1850    1.0510 O   0  0  0  0  0  0  0  0  0  0  0  0
   -1.4100   19.2260    0.1360 C   0  0  0  0  0  0  0  0  0  0  0  0
   -1.5860   17.8590    0.7200 C   0  0  0  0  0  0  0  0  0  0  0  0
   -2.5490   19.7560   -0.6780 C   0  0  0  0  0  0  0  0  0  0  0  0
    0.5520   16.3720   -2.3240 C   0  0  1  0  0  0  0  0  0  0  0  0
    0.6220   16.1930   -3.8640 C   0  0  0  0  0  0  0  0  0  0  0  0
    1.0490   14.7260   -4.1240 C   0  0  0  0  0  0  0  0  0  0  0  0
    0.8880   14.0240   -2.7550 C   0  0  1  0  0  0  0  0  0  0  0  0
   -0.6340   13.6950   -2.6500 C   0  0  0  0  0  0  0  0  0  0  0  0
    1.7710   12.7550   -2.5220 C   0  0  2  0  0  0  0  0  0  0  0  0
    1.4950   11.5830   -3.4800 C   0  0  0  0  0  0  0  0  0  0  0  0
    0.4650   10.6070   -3.0160 C   0  0  0  0  0  0  0  0  0  0  0  0
   -0.0070   10.5070   -1.7590 C   0  0  0  0  0  0  0  0  0  0  0  0
    0.5740   11.3670   -0.6290 C   0  0  1  0  0  0  0  0  0  0  0  0
    0.8440   10.4770    0.6130 C   0  0  0  0  0  0  0  0  0  0  0  0
   -0.3900    9.6930    1.0500 C   0  0  0  0  0  0  0  0  0  0  0  0
   -0.9020    8.8070   -0.0810 C   0  0  2  0  0  0  0  0  0  0  0  0
    0.0670    7.7870   -0.3430 O   0  0  0  0  0  0  0  0  0  0  0  0
   -1.2000    9.5930   -1.3890 C   0  0  0  0  0  0  0  0  0  0  0  0
   -2.4510   10.4840   -1.1870 C   0  0  0  0  0  0  0  0  0  0  0  0
   -1.5740    8.5640   -2.4900 C   0  0  0  0  0  0  0  0  0  0  0  0
    1.8230   12.2700   -1.0160 C   0  0  1  0  0  0  0  0  0  0  0  0
    3.1410   11.4510   -0.8580 C   0  0  0  0  0  0  0  0  0  0  0  0
    1.9230   13.4710   -0.0040 C   0  0  0  0  0  0  0  0  0  0  0  0
    1.1220   14.7410   -0.3510 C   0  0  0  0  0  0  0  0  0  0  0  0
    1.3780   15.1710   -1.7990 C   0  0  2  0  0  0  0  0  0  0  0  0
    2.8970   15.5300   -1.9300 C   0  0  0  0  0  0  0  0  0  0  0  0
    2.9606   18.6043   -2.0897 H   0  0  0  0  0  0  0  0  0  0  0  0
    2.5026   17.4349   -3.3740 H   0  0  0  0  0  0  0  0  0  0  0  0
    1.8020   19.0890   -3.3740 H   0  0  0  0  0  0  0  0  0  0  0  0
    0.1458   18.4706   -2.0088 H   0  0  0  0  0  0  0  0  0  0  0  0
    0.6446   17.0636    0.1384 H   0  0  0  0  0  0  0  0  0  0  0  0
    2.3834   17.4253   -0.2970 H   0  0  0  0  0  0  0  0  0  0  0  0
    1.2768   18.9894    1.3864 H   0  0  0  0  0  0  0  0  0  0  0  0
    2.0837   19.7342   -0.0563 H   0  0  0  0  0  0  0  0  0  0  0  0
    0.4482   20.2960   -0.9380 H   0  0  0  0  0  0  0  0  0  0  0  0
   -1.5774   17.9255    1.8180 H   0  0  0  0  0  0  0  0  0  0  0  0
   -2.5457   17.4382    0.3856 H   0  0  0  0  0  0  0  0  0  0  0  0
   -0.7642   17.2088    0.3856 H   0  0  0  0  0  0  0  0  0  0  0  0
   -3.3393   20.1237   -0.0070 H   0  0  0  0  0  0  0  0  0  0  0  0
   -2.1934   20.5812   -1.3126 H   0  0  0  0  0  0  0  0  0  0  0  0
   -2.9513   18.9526   -1.3126 H   0  0  0  0  0  0  0  0  0  0  0  0
   -0.4625   16.3446   -1.8997 H   0  0  0  0  0  0  0  0  0  0  0  0
   -0.3634   16.3861   -4.3131 H   0  0  0  0  0  0  0  0  0  0  0  0
    1.3377   16.8982   -4.3117 H   0  0  0  0  0  0  0  0  0  0  0  0
    0.3979   14.2600   -4.8783 H   0  0  0  0  0  0  0  0  0  0  0  0
    2.0757   14.6530   -4.5119 H   0  0  0  0  0  0  0  0  0  0  0  0
   -0.9234   13.6324   -1.5906 H   0  0  0  0  0  0  0  0  0  0  0  0
   -1.2154   14.4882   -3.1427 H   0  0  0  0  0  0  0  0  0  0  0  0
   -0.8359   12.7325   -3.1427 H   0  0  0  0  0  0  0  0  0  0  0  0
    2.7778   13.1179   -2.7763 H   0  0  0  0  0  0  0  0  0  0  0  0
    1.1584   12.0012   -4.4401 H   0  0  0  0  0  0  0  0  0  0  0  0
    2.4372   11.0197   -3.5499 H   0  0  0  0  0  0  0  0  0  0  0  0
    0.0574    9.9110   -3.7640 H   0  0  0  0  0  0  0  0  0  0  0  0
   -0.1956   12.1161   -0.3913 H   0  0  0  0  0  0  0  0  0  0  0  0
    1.6461    9.7649    0.3690 H   0  0  0  0  0  0  0  0  0  0  0  0
    1.1300   11.1397    1.4431 H   0  0  0  0  0  0  0  0  0  0  0  0
   -0.1286    9.0614    1.9118 H   0  0  0  0  0  0  0  0  0  0  0  0
   -1.1813   10.4070    1.3222 H   0  0  0  0  0  0  0  0  0  0  0  0
   -1.8574    8.3722    0.2480 H   0  0  0  0  0  0  0  0  0  0  0  0
    0.5780    7.6510    0.4720 H   0  0  0  0  0  0  0  0  0  0  0  0
   -2.6370   10.6164   -0.1110 H   0  0  0  0  0  0  0  0  0  0  0  0
   -2.2811   11.4657   -1.6533 H   0  0  0  0  0  0  0  0  0  0  0  0
   -3.3232   10.0026   -1.6533 H   0  0  0  0  0  0  0  0  0  0  0  0
   -1.9135    7.6299   -2.0187 H   0  0  0  0  0  0  0  0  0  0  0  0
   -2.3808    8.9734   -3.1156 H   0  0  0  0  0  0  0  0  0  0  0  0
   -0.6926    8.3598   -3.1156 H   0  0  0  0  0  0  0  0  0  0  0  0
    3.3616   11.3139    0.2109 H   0  0  0  0  0  0  0  0  0  0  0  0
    3.0214   10.4679   -1.3367 H   0  0  0  0  0  0  0  0  0  0  0  0
    3.9695   11.9936   -1.3367 H   0  0  0  0  0  0  0  0  0  0  0  0
    1.5703   13.1121    0.9742 H   0  0  0  0  0  0  0  0  0  0  0  0
    2.9782   13.7807   -0.0285 H   0  0  0  0  0  0  0  0  0  0  0  0
    0.0490   14.5368   -0.2204 H   0  0  0  0  0  0  0  0  0  0  0  0
    1.4432   15.5526    0.3184 H   0  0  0  0  0  0  0  0  0  0  0  0
    3.3370   15.6340   -0.9272 H   0  0  0  0  0  0  0  0  0  0  0  0
    3.4170   14.7300   -2.4774 H   0  0  0  0  0  0  0  0  0  0  0  0
    3.0038   16.4781   -2.4774 H   0  0  0  0  0  0  0  0  0  0  0  0
  1  2  1  0
  2  3  1  0
  3  4  1  0
  4  5  1  0
  5  6  1  0
  6  7  1  0
  7  8  1  0
  7  9  1  0
  2 10  1  0
 10 11  1  0
 11 12  1  0
 12 13  1  0
 13 14  1  1
 13 15  1  0
 15 16  1  0
 16 17  1  0
 17 18  2  0
 18 19  1  0
 19 20  1  0
 20 21  1  0
 21 22  1  0
 22 23  1  0
 22 24  1  0
 24 25  1  0
 24 26  1  0
 19 27  1  0
 27 28  1  6
 27 29  1  0
 29 30  1  0
 30 31  1  0
 31 32  1  1
  7  5  1  0
 31 10  1  0
 31 13  1  0
 27 15  1  0
 24 18  1  0
  1 33  1  0
  1 34  1  0
  1 35  1  0
  2 36  1  1
  3 37  1  0
  3 38  1  0
  4 39  1  0
  4 40  1  0
  5 41  1  6
  8 42  1  0
  8 43  1  0
  8 44  1  0
  9 45  1  0
  9 46  1  0
  9 47  1  0
 10 48  1  1
 11 49  1  0
 11 50  1  0
 12 51  1  0
 12 52  1  0
 14 53  1  0
 14 54  1  0
 14 55  1  0
 15 56  1  6
 16 57  1  0
 16 58  1  0
 17 59  1  0
 19 60  1  1
 20 61  1  0
 20 62  1  0
 21 63  1  0
 21 64  1  0
 22 65  1  1
 23 66  1  0
 25 67  1  0
 25 68  1  0
 25 69  1  0
 26 70  1  0
 26 71  1  0
 26 72  1  0
 28 73  1  0
 28 74  1  0
 28 75  1  0
 29 76  1  0
 29 77  1  0
 30 78  1  0
 30 79  1  0
 32 80  1  0
 32 81  1  0
 32 82  1  0
M  END
>  <meeko>  (4) 
{"is_sidechain": [false], "intermolecular_energy": 2.731, "internal_energy": -0.839}

$$$$
EPH_relaxed_0001_pdb2pqr_Repair_363_r2_0001_out
     RDKit          3D

 82 86  0  0  0  0  0  0  0  0999 V2000
    0.0630   10.4890   -3.8150 C   0  0  0  0  0  0  0  0  0  0  0  0
    1.1160   10.2790   -2.7240 C   0  0  2  0  0  0  0  0  0  0  0  0
    0.8560    8.9990   -1.9040 C   0  0  0  0  0  0  0  0  0  0  0  0
    0.2480    9.2650   -0.5250 C   0  0  0  0  0  0  0  0  0  0  0  0
   -1.1820    8.8210   -0.4540 C   0  0  2  0  0  0  0  0  0  0  0  0
   -1.8820    8.8560   -1.7050 O   0  0  0  0  0  0  0  0  0  0  0  0
   -2.3590    9.7500   -0.6860 C   0  0  0  0  0  0  0  0  0  0  0  0
   -2.1580   11.1990   -1.0060 C   0  0  0  0  0  0  0  0  0  0  0  0
   -3.6940    9.3690   -0.1260 C   0  0  0  0  0  0  0  0  0  0  0  0
    1.1560   11.4900   -1.8000 C   0  0  1  0  0  0  0  0  0  0  0  0
    2.2130   11.3470   -0.6720 C   0  0  0  0  0  0  0  0  0  0  0  0
    2.7860   12.7640   -0.4140 C   0  0  0  0  0  0  0  0  0  0  0  0
    1.8180   13.7170   -1.1550 C   0  0  1  0  0  0  0  0  0  0  0  0
    0.6080   13.8930   -0.1850 C   0  0  0  0  0  0  0  0  0  0  0  0
    2.4090   15.0960   -1.5960 C   0  0  2  0  0  0  0  0  0  0  0  0
    2.8810   16.0020   -0.4460 C   0  0  0  0  0  0  0  0  0  0  0  0
    1.8490   16.9350    0.0960 C   0  0  0  0  0  0  0  0  0  0  0  0
    0.6840   17.2460   -0.5020 C   0  0  0  0  0  0  0  0  0  0  0  0
    0.3510   16.7120   -1.9020 C   0  0  1  0  0  0  0  0  0  0  0  0
   -0.1960   17.8680   -2.7800 C   0  0  0  0  0  0  0  0  0  0  0  0
   -1.3760   18.5860   -2.1330 C   0  0  0  0  0  0  0  0  0  0  0  0
   -0.9890   19.1530   -0.7700 C   0  0  2  0  0  0  0  0  0  0  0  0
   -0.0260   20.1940   -0.9600 O   0  0  0  0  0  0  0  0  0  0  0  0
   -0.4150   18.0810    0.1990 C   0  0  0  0  0  0  0  0  0  0  0  0
   -1.5460   17.1220    0.6430 C   0  0  0  0  0  0  0  0  0  0  0  0
    0.0670   18.8080    1.4840 C   0  0  0  0  0  0  0  0  0  0  0  0
    1.5040   15.8900   -2.6230 C   0  0  1  0  0  0  0  0  0  0  0  0
    2.4500   16.8630   -3.3910 C   0  0  0  0  0  0  0  0  0  0  0  0
    0.8610   14.9470   -3.7080 C   0  0  0  0  0  0  0  0  0  0  0  0
    0.4060   13.5530   -3.2350 C   0  0  0  0  0  0  0  0  0  0  0  0
    1.5120   12.8580   -2.4350 C   0  0  2  0  0  0  0  0  0  0  0  0
    2.7350   12.6470   -3.3910 C   0  0  0  0  0  0  0  0  0  0  0  0
   -0.9141   10.6839   -3.3489 H   0  0  0  0  0  0  0  0  0  0  0  0
    0.3489   11.3478   -4.4401 H   0  0  0  0  0  0  0  0  0  0  0  0
   -0.0024    9.5862   -4.4401 H   0  0  0  0  0  0  0  0  0  0  0  0
    2.0892   10.1595   -3.2226 H   0  0  0  0  0  0  0  0  0  0  0  0
    0.1646    8.3580   -2.4706 H   0  0  0  0  0  0  0  0  0  0  0  0
    1.8320    8.5196   -1.7381 H   0  0  0  0  0  0  0  0  0  0  0  0
    0.8290    8.7181    0.2322 H   0  0  0  0  0  0  0  0  0  0  0  0
    0.2799   10.3488   -0.3397 H   0  0  0  0  0  0  0  0  0  0  0  0
   -0.9477    8.1157    0.3570 H   0  0  0  0  0  0  0  0  0  0  0  0
   -2.0783   11.7733   -0.0712 H   0  0  0  0  0  0  0  0  0  0  0  0
   -1.2344   11.3206   -1.5909 H   0  0  0  0  0  0  0  0  0  0  0  0
   -3.0136   11.5674   -1.5909 H   0  0  0  0  0  0  0  0  0  0  0  0
   -3.6479    9.3822    0.9730 H   0  0  0  0  0  0  0  0  0  0  0  0
   -4.4540   10.0861   -0.4697 H   0  0  0  0  0  0  0  0  0  0  0  0
   -3.9610    8.3588   -0.4697 H   0  0  0  0  0  0  0  0  0  0  0  0
    0.1106   11.4948   -1.4577 H   0  0  0  0  0  0  0  0  0  0  0  0
    1.7413   10.9570    0.2420 H   0  0  0  0  0  0  0  0  0  0  0  0
    3.0091   10.6460   -0.9632 H   0  0  0  0  0  0  0  0  0  0  0  0
    2.8014   12.9865    0.6631 H   0  0  0  0  0  0  0  0  0  0  0  0
    3.8229   12.8654   -0.7668 H   0  0  0  0  0  0  0  0  0  0  0  0
    0.9616   13.8416    0.8554 H   0  0  0  0  0  0  0  0  0  0  0  0
    0.1341   14.8695   -0.3634 H   0  0  0  0  0  0  0  0  0  0  0  0
   -0.1245   13.0919   -0.3634 H   0  0  0  0  0  0  0  0  0  0  0  0
    3.3206   14.7998   -2.1357 H   0  0  0  0  0  0  0  0  0  0  0  0
    3.2216   15.3567    0.3772 H   0  0  0  0  0  0  0  0  0  0  0  0
    3.6750   16.6372   -0.8655 H   0  0  0  0  0  0  0  0  0  0  0  0
    2.0586   17.4084    1.0665 H   0  0  0  0  0  0  0  0  0  0  0  0
   -0.4296   15.9502   -1.7596 H   0  0  0  0  0  0  0  0  0  0  0  0
    0.6113   18.5963   -2.9471 H   0  0  0  0  0  0  0  0  0  0  0  0
   -0.5490   17.4308   -3.7256 H   0  0  0  0  0  0  0  0  0  0  0  0
   -1.6988   19.4095   -2.7870 H   0  0  0  0  0  0  0  0  0  0  0  0
   -2.1930   17.8629   -1.9932 H   0  0  0  0  0  0  0  0  0  0  0  0
   -1.9058   19.5406   -0.3018 H   0  0  0  0  0  0  0  0  0  0  0  0
   -0.4770   21.0430   -0.8140 H   0  0  0  0  0  0  0  0  0  0  0  0
   -1.5870   17.0872    1.7417 H   0  0  0  0  0  0  0  0  0  0  0  0
   -2.5082   17.4837    0.2514 H   0  0  0  0  0  0  0  0  0  0  0  0
   -1.3465   16.1136    0.2514 H   0  0  0  0  0  0  0  0  0  0  0  0
   -0.2934   18.2645    2.3698 H   0  0  0  0  0  0  0  0  0  0  0  0
    1.1664   18.8409    1.4961 H   0  0  0  0  0  0  0  0  0  0  0  0
   -0.3307   19.8335    1.4961 H   0  0  0  0  0  0  0  0  0  0  0  0
    3.0285   17.4580   -2.6690 H   0  0  0  0  0  0  0  0  0  0  0  0
    3.1384   16.2826   -4.0229 H   0  0  0  0  0  0  0  0  0  0  0  0
    1.8505   17.5348   -4.0229 H   0  0  0  0  0  0  0  0  0  0  0  0
   -0.0197   15.4632   -4.1178 H   0  0  0  0  0  0  0  0  0  0  0  0
    1.6636   14.7563   -4.4357 H   0  0  0  0  0  0  0  0  0  0  0  0
   -0.4845   13.6618   -2.5985 H   0  0  0  0  0  0  0  0  0  0  0  0
    0.1746   12.9407   -4.1190 H   0  0  0  0  0  0  0  0  0  0  0  0
    3.6449   12.4900   -2.7932 H   0  0  0  0  0  0  0  0  0  0  0  0
    2.5567   11.7663   -4.0256 H   0  0  0  0  0  0  0  0  0  0  0  0
    2.8621   13.5365   -4.0256 H   0  0  0  0  0  0  0  0  0  0  0  0
  1  2  1  0
  2  3  1  0
  3  4  1  0
  4  5  1  0
  5  6  1  0
  6  7  1  0
  7  8  1  0
  7  9  1  0
  2 10  1  0
 10 11  1  0
 11 12  1  0
 12 13  1  0
 13 14  1  1
 13 15  1  0
 15 16  1  0
 16 17  1  0
 17 18  2  0
 18 19  1  0
 19 20  1  0
 20 21  1  0
 21 22  1  0
 22 23  1  0
 22 24  1  0
 24 25  1  0
 24 26  1  0
 19 27  1  0
 27 28  1  6
 27 29  1  0
 29 30  1  0
 30 31  1  0
 31 32  1  6
  7  5  1  0
 31 10  1  0
 31 13  1  0
 27 15  1  0
 24 18  1  0
  1 33  1  0
  1 34  1  0
  1 35  1  0
  2 36  1  6
  3 37  1  0
  3 38  1  0
  4 39  1  0
  4 40  1  0
  5 41  1  1
  8 42  1  0
  8 43  1  0
  8 44  1  0
  9 45  1  0
  9 46  1  0
  9 47  1  0
 10 48  1  1
 11 49  1  0
 11 50  1  0
 12 51  1  0
 12 52  1  0
 14 53  1  0
 14 54  1  0
 14 55  1  0
 15 56  1  6
 16 57  1  0
 16 58  1  0
 17 59  1  0
 19 60  1  1
 20 61  1  0
 20 62  1  0
 21 63  1  0
 21 64  1  0
 22 65  1  1
 23 66  1  0
 25 67  1  0
 25 68  1  0
 25 69  1  0
 26 70  1  0
 26 71  1  0
 26 72  1  0
 28 73  1  0
 28 74  1  0
 28 75  1  0
 29 76  1  0
 29 77  1  0
 30 78  1  0
 30 79  1  0
 32 80  1  0
 32 81  1  0
 32 82  1  0
M  END
>  <meeko>  (5) 
{"is_sidechain": [false], "intermolecular_energy": 2.731, "internal_energy": -0.839}

$$$$
EPH_relaxed_0001_pdb2pqr_Repair_363_r2_0001_out
     RDKit          3D

 82 86  0  0  0  0  0  0  0  0999 V2000
    0.4260    8.8150   -2.4210 C   0  0  0  0  0  0  0  0  0  0  0  0
    1.1730    9.9640   -3.1040 C   0  0  2  0  0  0  0  0  0  0  0  0
    2.6720    9.9790   -2.7400 C   0  0  0  0  0  0  0  0  0  0  0  0
    3.5620   10.5900   -3.8260 C   0  0  0  0  0  0  0  0  0  0  0  0
    4.9590   10.8190   -3.3330 C   0  0  2  0  0  0  0  0  0  0  0  0
    5.5660   12.0320   -3.7960 O   0  0  0  0  0  0  0  0  0  0  0  0
    6.1770   10.8090   -4.2380 C   0  0  0  0  0  0  0  0  0  0  0  0
    6.0540   10.5650   -5.7090 C   0  0  0  0  0  0  0  0  0  0  0  0
    7.5190   10.5510   -3.6280 C   0  0  0  0  0  0  0  0  0  0  0  0
    0.5330   11.2950   -2.7290 C   0  0  1  0  0  0  0  0  0  0  0  0
   -0.8430   11.1220   -2.0330 C   0  0  0  0  0  0  0  0  0  0  0  0
   -0.9590   12.2560   -0.9820 C   0  0  0  0  0  0  0  0  0  0  0  0
    0.1890   13.2310   -1.3330 C   0  0  1  0  0  0  0  0  0  0  0  0
   -0.3630   14.0940   -2.5100 C   0  0  0  0  0  0  0  0  0  0  0  0
    0.7190   14.1230   -0.1630 C   0  0  2  0  0  0  0  0  0  0  0  0
   -0.3120   15.0950    0.4360 C   0  0  0  0  0  0  0  0  0  0  0  0
   -0.3580   16.4460   -0.1990 C   0  0  0  0  0  0  0  0  0  0  0  0
    0.5820   16.9600   -1.0130 C   0  0  0  0  0  0  0  0  0  0  0  0
    1.8840   16.1980   -1.2920 C   0  0  1  0  0  0  0  0  0  0  0  0
    3.0890   17.1660   -1.1580 C   0  0  0  0  0  0  0  0  0  0  0  0
    2.9420   18.4080   -2.0310 C   0  0  0  0  0  0  0  0  0  0  0  0
    1.6650   19.1700   -1.6840 C   0  0  2  0  0  0  0  0  0  0  0  0
    1.7920   19.7030   -0.3620 O   0  0  0  0  0  0  0  0  0  0  0  0
    0.3850   18.2940   -1.7750 C   0  0  0  0  0  0  0  0  0  0  0  0
    0.0820   17.9660   -3.2580 C   0  0  0  0  0  0  0  0  0  0  0  0
   -0.8110   19.1420   -1.2640 C   0  0  0  0  0  0  0  0  0  0  0  0
    2.0890   14.8520   -0.4730 C   0  0  1  0  0  0  0  0  0  0  0  0
    2.7500   15.1620    0.9050 C   0  0  0  0  0  0  0  0  0  0  0  0
    3.0970   13.9250   -1.2500 C   0  0  0  0  0  0  0  0  0  0  0  0
    2.4980   12.9810   -2.3100 C   0  0  0  0  0  0  0  0  0  0  0  0
    1.3070   12.2040   -1.7410 C   0  0  2  0  0  0  0  0  0  0  0  0
    1.8350   11.3090   -0.5680 C   0  0  0  0  0  0  0  0  0  0  0  0
    0.4993    8.9277   -1.3292 H   0  0  0  0  0  0  0  0  0  0  0  0
   -0.6319    8.8355   -2.7216 H   0  0  0  0  0  0  0  0  0  0  0  0
    0.8741    7.8564   -2.7216 H   0  0  0  0  0  0  0  0  0  0  0  0
    1.0983    9.8085   -4.1904 H   0  0  0  0  0  0  0  0  0  0  0  0
    2.7996   10.5633   -1.8168 H   0  0  0  0  0  0  0  0  0  0  0  0
    2.9845    8.9312   -2.6195 H   0  0  0  0  0  0  0  0  0  0  0  0
    3.5952    9.9057   -4.6866 H   0  0  0  0  0  0  0  0  0  0  0  0
    3.1353   11.5626   -4.1124 H   0  0  0  0  0  0  0  0  0  0  0  0
    4.7365   10.2996   -2.3892 H   0  0  0  0  0  0  0  0  0  0  0  0
    5.5649    9.5947   -5.8801 H   0  0  0  0  0  0  0  0  0  0  0  0
    5.4513   11.3647   -6.1642 H   0  0  0  0  0  0  0  0  0  0  0  0
    7.0554   10.5562   -6.1642 H   0  0  0  0  0  0  0  0  0  0  0  0
    7.4327   10.5676   -2.5315 H   0  0  0  0  0  0  0  0  0  0  0  0
    7.8858    9.5659   -3.9521 H   0  0  0  0  0  0  0  0  0  0  0  0
    8.2249   11.3299   -3.9521 H   0  0  0  0  0  0  0  0  0  0  0  0
    0.4943   11.7661   -3.7223 H   0  0  0  0  0  0  0  0  0  0  0  0
   -1.6540   11.2056   -2.7714 H   0  0  0  0  0  0  0  0  0  0  0  0
   -0.9233   10.1333   -1.5575 H   0  0  0  0  0  0  0  0  0  0  0  0
   -1.9338   12.7596   -1.0599 H   0  0  0  0  0  0  0  0  0  0  0  0
   -0.8860   11.8789    0.0488 H   0  0  0  0  0  0  0  0  0  0  0  0
   -0.9142   14.9558   -2.1057 H   0  0  0  0  0  0  0  0  0  0  0  0
    0.4747   14.4512   -3.1270 H   0  0  0  0  0  0  0  0  0  0  0  0
   -1.0386   13.4833   -3.1270 H   0  0  0  0  0  0  0  0  0  0  0  0
    0.9225   13.3821    0.6242 H   0  0  0  0  0  0  0  0  0  0  0  0
   -1.3078   14.6384    0.3364 H   0  0  0  0  0  0  0  0  0  0  0  0
   -0.0055   15.2592    1.4796 H   0  0  0  0  0  0  0  0  0  0  0  0
   -1.2348   17.0741    0.0171 H   0  0  0  0  0  0  0  0  0  0  0  0
    1.8086   15.8364   -2.3281 H   0  0  0  0  0  0  0  0  0  0  0  0
    3.1727   17.4814   -0.1075 H   0  0  0  0  0  0  0  0  0  0  0  0
    3.9882   16.6277   -1.4922 H   0  0  0  0  0  0  0  0  0  0  0  0
    3.8088   19.0658   -1.8703 H   0  0  0  0  0  0  0  0  0  0  0  0
    2.8884   18.0933   -3.0837 H   0  0  0  0  0  0  0  0  0  0  0  0
    1.5473   19.9732   -2.4263 H   0  0  0  0  0  0  0  0  0  0  0  0
    2.5240   20.3420   -0.3710 H   0  0  0  0  0  0  0  0  0  0  0  0
   -0.6636   17.1589   -3.3101 H   0  0  0  0  0  0  0  0  0  0  0  0
   -0.3125   18.8625   -3.7586 H   0  0  0  0  0  0  0  0  0  0  0  0
    1.0069   17.6436   -3.7586 H   0  0  0  0  0  0  0  0  0  0  0  0
   -0.8150   19.1448   -0.1640 H   0  0  0  0  0  0  0  0  0  0  0  0
   -0.7132   20.1736   -1.6330 H   0  0  0  0  0  0  0  0  0  0  0  0
   -1.7522   18.7083   -1.6330 H   0  0  0  0  0  0  0  0  0  0  0  0
    2.0757   14.8458    1.7145 H   0  0  0  0  0  0  0  0  0  0  0  0
    3.7016   14.6163    0.9862 H   0  0  0  0  0  0  0  0  0  0  0  0
    2.9389   16.2426    0.9862 H   0  0  0  0  0  0  0  0  0  0  0  0
    3.8242   14.5760   -1.7573 H   0  0  0  0  0  0  0  0  0  0  0  0
    3.5265   13.2621   -0.4845 H   0  0  0  0  0  0  0  0  0  0  0  0
    2.1612   13.5754   -3.1722 H   0  0  0  0  0  0  0  0  0  0  0  0
    3.2718   12.2620   -2.6170 H   0  0  0  0  0  0  0  0  0  0  0  0
    1.5641   11.7682    0.3942 H   0  0  0  0  0  0  0  0  0  0  0  0
    1.3822   10.3089   -0.6374 H   0  0  0  0  0  0  0  0  0  0  0  0
    2.9293   11.2216   -0.6374 H   0  0  0  0  0  0  0  0  0  0  0  0
  1  2  1  0
  2  3  1  0
  3  4  1  0
  4  5  1  0
  5  6  1  0
  6  7  1  0
  7  8  1  0
  7  9  1  0
  2 10  1  0
 10 11  1  0
 11 12  1  0
 12 13  1  0
 13 14  1  6
 13 15  1  0
 15 16  1  0
 16 17  1  0
 17 18  2  0
 18 19  1  0
 19 20  1  0
 20 21  1  0
 21 22  1  0
 22 23  1  0
 22 24  1  0
 24 25  1  0
 24 26  1  0
 19 27  1  0
 27 28  1  1
 27 29  1  0
 29 30  1  0
 30 31  1  0
 31 32  1  1
  7  5  1  0
 31 10  1  0
 31 13  1  0
 27 15  1  0
 24 18  1  0
  1 33  1  0
  1 34  1  0
  1 35  1  0
  2 36  1  6
  3 37  1  0
  3 38  1  0
  4 39  1  0
  4 40  1  0
  5 41  1  1
  8 42  1  0
  8 43  1  0
  8 44  1  0
  9 45  1  0
  9 46  1  0
  9 47  1  0
 10 48  1  6
 11 49  1  0
 11 50  1  0
 12 51  1  0
 12 52  1  0
 14 53  1  0
 14 54  1  0
 14 55  1  0
 15 56  1  1
 16 57  1  0
 16 58  1  0
 17 59  1  0
 19 60  1  6
 20 61  1  0
 20 62  1  0
 21 63  1  0
 21 64  1  0
 22 65  1  6
 23 66  1  0
 25 67  1  0
 25 68  1  0
 25 69  1  0
 26 70  1  0
 26 71  1  0
 26 72  1  0
 28 73  1  0
 28 74  1  0
 28 75  1  0
 29 76  1  0
 29 77  1  0
 30 78  1  0
 30 79  1  0
 32 80  1  0
 32 81  1  0
 32 82  1  0
M  END
>  <meeko>  (6) 
{"is_sidechain": [false], "intermolecular_energy": 2.731, "internal_energy": -0.839}

$$$$
EPH_relaxed_0001_pdb2pqr_Repair_363_r2_0001_out
     RDKit          3D

 82 86  0  0  0  0  0  0  0  0999 V2000
   -4.9800    6.0490   -2.1290 C   0  0  0  0  0  0  0  0  0  0  0  0
   -5.3950    7.5170   -2.0050 C   0  0  2  0  0  0  0  0  0  0  0  0
   -5.1920    8.0590   -0.5750 C   0  0  0  0  0  0  0  0  0  0  0  0
   -4.1050    9.1330   -0.4720 C   0  0  0  0  0  0  0  0  0  0  0  0
   -2.7590    8.5980   -0.8570 C   0  0  2  0  0  0  0  0  0  0  0  0
   -1.7080    8.9010    0.0690 O   0  0  0  0  0  0  0  0  0  0  0  0
   -1.5860    9.4820   -1.2400 C   0  0  0  0  0  0  0  0  0  0  0  0
   -1.7060   10.9730   -1.2580 C   0  0  0  0  0  0  0  0  0  0  0  0
   -0.4840    8.8910   -2.0620 C   0  0  0  0  0  0  0  0  0  0  0  0
   -6.8510    7.6830   -2.4220 C   0  0  1  0  0  0  0  0  0  0  0  0
   -7.1770    6.9560   -3.7540 C   0  0  0  0  0  0  0  0  0  0  0  0
   -8.6310    6.4300   -3.6320 C   0  0  0  0  0  0  0  0  0  0  0  0
   -9.2020    7.1480   -2.3870 C   0  0  1  0  0  0  0  0  0  0  0  0
   -9.6230    8.5620   -2.8980 C   0  0  0  0  0  0  0  0  0  0  0  0
  -10.3780    6.4260   -1.6520 C   0  0  2  0  0  0  0  0  0  0  0  0
  -11.6560    6.2410   -2.4890 C   0  0  0  0  0  0  0  0  0  0  0  0
  -12.6490    7.3520   -2.3920 C   0  0  0  0  0  0  0  0  0  0  0  0
  -12.6560    8.3140   -1.4520 C   0  0  0  0  0  0  0  0  0  0  0  0
  -11.6500    8.2920   -0.2940 C   0  0  1  0  0  0  0  0  0  0  0  0
  -12.3910    8.5630    1.0420 C   0  0  0  0  0  0  0  0  0  0  0  0
  -13.2110    9.8490    1.0050 C   0  0  0  0  0  0  0  0  0  0  0  0
  -14.2390    9.8090   -0.1220 C   0  0  2  0  0  0  0  0  0  0  0  0
  -15.2100    8.8020    0.1750 O   0  0  0  0  0  0  0  0  0  0  0  0
  -13.6090    9.5330   -1.5160 C   0  0  0  0  0  0  0  0  0  0  0  0
  -12.7900   10.7670   -1.9710 C   0  0  0  0  0  0  0  0  0  0  0  0
  -14.7650    9.3780   -2.5400 C   0  0  0  0  0  0  0  0  0  0  0  0
  -10.7060    7.0150   -0.2200 C   0  0  1  0  0  0  0  0  0  0  0  0
  -11.4130    5.8770    0.5780 C   0  0  0  0  0  0  0  0  0  0  0  0
   -9.4060    7.3830    0.5880 C   0  0  0  0  0  0  0  0  0  0  0  0
   -8.2350    7.9820   -0.2150 C   0  0  0  0  0  0  0  0  0  0  0  0
   -7.9340    7.1390   -1.4580 C   0  0  2  0  0  0  0  0  0  0  0  0
   -7.4870    5.7170   -0.9740 C   0  0  0  0  0  0  0  0  0  0  0  0
   -4.8577    5.6165   -1.1250 H   0  0  0  0  0  0  0  0  0  0  0  0
   -5.7563    5.4934   -2.6755 H   0  0  0  0  0  0  0  0  0  0  0  0
   -4.0277    5.9821   -2.6755 H   0  0  0  0  0  0  0  0  0  0  0  0
   -4.7474    8.1013   -2.6753 H   0  0  0  0  0  0  0  0  0  0  0  0
   -6.1422    8.4925   -0.2298 H   0  0  0  0  0  0  0  0  0  0  0  0
   -4.8667    7.2118    0.0466 H   0  0  0  0  0  0  0  0  0  0  0  0
   -4.3625    9.9663   -1.1424 H   0  0  0  0  0  0  0  0  0  0  0  0
   -4.0538    9.4699    0.5739 H   0  0  0  0  0  0  0  0  0  0  0  0
   -3.2186    7.7281   -1.3489 H   0  0  0  0  0  0  0  0  0  0  0  0
   -1.7364   11.3509   -0.2254 H   0  0  0  0  0  0  0  0  0  0  0  0
   -0.8397   11.4043   -1.7809 H   0  0  0  0  0  0  0  0  0  0  0  0
   -2.6302   11.2602   -1.7809 H   0  0  0  0  0  0  0  0  0  0  0  0
    0.2880    8.4770   -1.3968 H   0  0  0  0  0  0  0  0  0  0  0  0
   -0.8895    8.0893   -2.6967 H   0  0  0  0  0  0  0  0  0  0  0  0
   -0.0405    9.6723   -2.6967 H   0  0  0  0  0  0  0  0  0  0  0  0
   -6.9057    8.7807   -2.4669 H   0  0  0  0  0  0  0  0  0  0  0  0
   -7.0973    7.6573   -4.5977 H   0  0  0  0  0  0  0  0  0  0  0  0
   -6.4725    6.1312   -3.9367 H   0  0  0  0  0  0  0  0  0  0  0  0
   -9.2133    6.6863   -4.5293 H   0  0  0  0  0  0  0  0  0  0  0  0
   -8.6720    5.3348   -3.5376 H   0  0  0  0  0  0  0  0  0  0  0  0
   -9.8187    9.2194   -2.0380 H   0  0  0  0  0  0  0  0  0  0  0  0
   -8.8126    8.9877   -3.5080 H   0  0  0  0  0  0  0  0  0  0  0  0
  -10.5342    8.4751   -3.5080 H   0  0  0  0  0  0  0  0  0  0  0  0
   -9.9734    5.4149   -1.4972 H   0  0  0  0  0  0  0  0  0  0  0  0
  -11.3599    6.1410   -3.5437 H   0  0  0  0  0  0  0  0  0  0  0  0
  -12.1574    5.3490   -2.0854 H   0  0  0  0  0  0  0  0  0  0  0  0
  -13.4418    7.3866   -3.1537 H   0  0  0  0  0  0  0  0  0  0  0  0
  -10.9364    9.1044   -0.4960 H   0  0  0  0  0  0  0  0  0  0  0  0
  -13.0666    7.7197    1.2480 H   0  0  0  0  0  0  0  0  0  0  0  0
  -11.6308    8.6739    1.8292 H   0  0  0  0  0  0  0  0  0  0  0  0
  -13.7341    9.9700    1.9651 H   0  0  0  0  0  0  0  0  0  0  0  0
  -12.5297   10.6944    0.8285 H   0  0  0  0  0  0  0  0  0  0  0  0
  -14.7042   10.8041   -0.1795 H   0  0  0  0  0  0  0  0  0  0  0  0
  -14.9040    8.3210    0.9620 H   0  0  0  0  0  0  0  0  0  0  0  0
  -12.4278   11.3128   -1.0873 H   0  0  0  0  0  0  0  0  0  0  0  0
  -11.9321   10.4355   -2.5744 H   0  0  0  0  0  0  0  0  0  0  0  0
  -13.4287   11.4288   -2.5744 H   0  0  0  0  0  0  0  0  0  0  0  0
  -15.7163    9.2505   -2.0026 H   0  0  0  0  0  0  0  0  0  0  0  0
  -14.8184   10.2770   -3.1716 H   0  0  0  0  0  0  0  0  0  0  0  0
  -14.5797    8.4967   -3.1716 H   0  0  0  0  0  0  0  0  0  0  0  0
  -11.2992    6.0602    1.6566 H   0  0  0  0  0  0  0  0  0  0  0  0
  -12.4822    5.8580    0.3201 H   0  0  0  0  0  0  0  0  0  0  0  0
  -10.9564    4.9100    0.3201 H   0  0  0  0  0  0  0  0  0  0  0  0
   -9.6894    8.1145    1.3591 H   0  0  0  0  0  0  0  0  0  0  0  0
   -9.0284    6.4259    0.9771 H   0  0  0  0  0  0  0  0  0  0  0  0
   -8.4985    9.0031   -0.5280 H   0  0  0  0  0  0  0  0  0  0  0  0
   -7.3407    7.9940    0.4254 H   0  0  0  0  0  0  0  0  0  0  0  0
   -7.4785    5.6899    0.1256 H   0  0  0  0  0  0  0  0  0  0  0  0
   -8.1912    4.9622   -1.3540 H   0  0  0  0  0  0  0  0  0  0  0  0
   -6.4776    5.5009   -1.3540 H   0  0  0  0  0  0  0  0  0  0  0  0
  1  2  1  0
  2  3  1  0
  3  4  1  0
  4  5  1  0
  5  6  1  0
  6  7  1  0
  7  8  1  0
  7  9  1  0
  2 10  1  0
 10 11  1  0
 11 12  1  0
 12 13  1  0
 13 14  1  6
 13 15  1  0
 15 16  1  0
 16 17  1  0
 17 18  2  0
 18 19  1  0
 19 20  1  0
 20 21  1  0
 21 22  1  0
 22 23  1  0
 22 24  1  0
 24 25  1  0
 24 26  1  0
 19 27  1  0
 27 28  1  1
 27 29  1  0
 29 30  1  0
 30 31  1  0
 31 32  1  1
  7  5  1  0
 31 10  1  0
 31 13  1  0
 27 15  1  0
 24 18  1  0
  1 33  1  0
  1 34  1  0
  1 35  1  0
  2 36  1  6
  3 37  1  0
  3 38  1  0
  4 39  1  0
  4 40  1  0
  5 41  1  6
  8 42  1  0
  8 43  1  0
  8 44  1  0
  9 45  1  0
  9 46  1  0
  9 47  1  0
 10 48  1  6
 11 49  1  0
 11 50  1  0
 12 51  1  0
 12 52  1  0
 14 53  1  0
 14 54  1  0
 14 55  1  0
 15 56  1  1
 16 57  1  0
 16 58  1  0
 17 59  1  0
 19 60  1  6
 20 61  1  0
 20 62  1  0
 21 63  1  0
 21 64  1  0
 22 65  1  6
 23 66  1  0
 25 67  1  0
 25 68  1  0
 25 69  1  0
 26 70  1  0
 26 71  1  0
 26 72  1  0
 28 73  1  0
 28 74  1  0
 28 75  1  0
 29 76  1  0
 29 77  1  0
 30 78  1  0
 30 79  1  0
 32 80  1  0
 32 81  1  0
 32 82  1  0
M  END
>  <meeko>  (7) 
{"is_sidechain": [false], "intermolecular_energy": 2.731, "internal_energy": -0.839}

$$$$
EPH_relaxed_0001_pdb2pqr_Repair_363_r2_0001_out
     RDKit          3D

 82 86  0  0  0  0  0  0  0  0999 V2000
    2.7150   18.9750   -1.2160 C   0  0  0  0  0  0  0  0  0  0  0  0
    2.3710   17.9220   -2.2730 C   0  0  2  0  0  0  0  0  0  0  0  0
    0.9220   18.0620   -2.7820 C   0  0  0  0  0  0  0  0  0  0  0  0
    0.2240   19.3410   -2.3110 C   0  0  0  0  0  0  0  0  0  0  0  0
   -1.0610   19.0420   -1.6000 C   0  0  2  0  0  0  0  0  0  0  0  0
   -1.8520   20.1940   -1.2830 O   0  0  0  0  0  0  0  0  0  0  0  0
   -1.3390   19.4510   -0.1660 C   0  0  0  0  0  0  0  0  0  0  0  0
   -0.3230   20.1940    0.6440 C   0  0  0  0  0  0  0  0  0  0  0  0
   -2.3900   18.7100    0.5990 C   0  0  0  0  0  0  0  0  0  0  0  0
    2.5910   16.5250   -1.7060 C   0  0  1  0  0  0  0  0  0  0  0  0
    3.3560   16.5420   -0.3550 C   0  0  0  0  0  0  0  0  0  0  0  0
    2.7810   15.3830    0.4990 C   0  0  0  0  0  0  0  0  0  0  0  0
    1.9520   14.5380   -0.4970 C   0  0  1  0  0  0  0  0  0  0  0  0
    2.9990   13.6450   -1.2340 C   0  0  0  0  0  0  0  0  0  0  0  0
    0.7950   13.6850    0.1170 C   0  0  2  0  0  0  0  0  0  0  0  0
    1.2410   12.6000    1.1120 C   0  0  0  0  0  0  0  0  0  0  0  0
    1.5300   11.2640    0.5120 C   0  0  0  0  0  0  0  0  0  0  0  0
    1.1660   10.8650   -0.7210 C   0  0  0  0  0  0  0  0  0  0  0  0
    0.3020   11.7630   -1.6160 C   0  0  1  0  0  0  0  0  0  0  0  0
   -0.8430   10.9220   -2.2400 C   0  0  0  0  0  0  0  0  0  0  0  0
   -0.3290    9.6880   -2.9750 C   0  0  0  0  0  0  0  0  0  0  0  0
    0.4760    8.7920   -2.0370 C   0  0  2  0  0  0  0  0  0  0  0  0
   -0.4040    8.2500   -1.0480 O   0  0  0  0  0  0  0  0  0  0  0  0
    1.6530    9.5320   -1.3420 C   0  0  0  0  0  0  0  0  0  0  0  0
    2.7530    9.8540   -2.3820 C   0  0  0  0  0  0  0  0  0  0  0  0
    2.2940    8.5560   -0.3190 C   0  0  0  0  0  0  0  0  0  0  0  0
   -0.2210   13.1080   -0.9500 C   0  0  1  0  0  0  0  0  0  0  0  0
   -1.5580   12.8410   -0.1930 C   0  0  0  0  0  0  0  0  0  0  0  0
   -0.5530   14.1480   -2.0850 C   0  0  0  0  0  0  0  0  0  0  0  0
    0.6050   15.0440   -2.5650 C   0  0  0  0  0  0  0  0  0  0  0  0
    1.3320   15.6830   -1.3780 C   0  0  2  0  0  0  0  0  0  0  0  0
    0.3100   16.6060   -0.6310 C   0  0  0  0  0  0  0  0  0  0  0  0
    2.5751   18.5466   -0.2126 H   0  0  0  0  0  0  0  0  0  0  0  0
    3.7623   19.2885   -1.3380 H   0  0  0  0  0  0  0  0  0  0  0  0
    2.0548   19.8463   -1.3380 H   0  0  0  0  0  0  0  0  0  0  0  0
    3.0396   18.0842   -3.1313 H   0  0  0  0  0  0  0  0  0  0  0  0
    0.9388   18.0606   -3.8819 H   0  0  0  0  0  0  0  0  0  0  0  0
    0.3536   17.2155   -2.3694 H   0  0  0  0  0  0  0  0  0  0  0  0
    0.8936   19.8806   -1.6251 H   0  0  0  0  0  0  0  0  0  0  0  0
   -0.0081   19.9508   -3.1966 H   0  0  0  0  0  0  0  0  0  0  0  0
   -1.1534   18.0790   -2.1236 H   0  0  0  0  0  0  0  0  0  0  0  0
   -0.5271   20.0447    1.7145 H   0  0  0  0  0  0  0  0  0  0  0  0
    0.6826   19.8167    0.4064 H   0  0  0  0  0  0  0  0  0  0  0  0
   -0.3778   21.2666    0.4064 H   0  0  0  0  0  0  0  0  0  0  0  0
   -2.2142   18.8339    1.6778 H   0  0  0  0  0  0  0  0  0  0  0  0
   -3.3818   19.1097    0.3408 H   0  0  0  0  0  0  0  0  0  0  0  0
   -2.3467   17.6416    0.3408 H   0  0  0  0  0  0  0  0  0  0  0  0
    3.1393   16.0707   -2.5444 H   0  0  0  0  0  0  0  0  0  0  0  0
    4.4316   16.3885   -0.5268 H   0  0  0  0  0  0  0  0  0  0  0  0
    3.2331   17.5081    0.1564 H   0  0  0  0  0  0  0  0  0  0  0  0
    3.5928   14.7827    0.9357 H   0  0  0  0  0  0  0  0  0  0  0  0
    2.1754   15.7469    1.3421 H   0  0  0  0  0  0  0  0  0  0  0  0
    3.6175   13.1175   -0.4929 H   0  0  0  0  0  0  0  0  0  0  0  0
    2.4758   12.9108   -1.8642 H   0  0  0  0  0  0  0  0  0  0  0  0
    3.6415   14.2775   -1.8642 H   0  0  0  0  0  0  0  0  0  0  0  0
    0.2449   14.4282    0.7128 H   0  0  0  0  0  0  0  0  0  0  0  0
    2.1550   12.9527    1.6123 H   0  0  0  0  0  0  0  0  0  0  0  0
    0.3938   12.4489    1.7971 H   0  0  0  0  0  0  0  0  0  0  0  0
    2.0876   10.5447    1.1298 H   0  0  0  0  0  0  0  0  0  0  0  0
    0.9677   12.1343   -2.4091 H   0  0  0  0  0  0  0  0  0  0  0  0
   -1.5202   10.5971   -1.4363 H   0  0  0  0  0  0  0  0  0  0  0  0
   -1.3611   11.5563   -2.9744 H   0  0  0  0  0  0  0  0  0  0  0  0
   -1.1851    9.1205   -3.3687 H   0  0  0  0  0  0  0  0  0  0  0  0
    0.3253   10.0150   -3.7966 H   0  0  0  0  0  0  0  0  0  0  0  0
    0.9249    7.9948   -2.6477 H   0  0  0  0  0  0  0  0  0  0  0  0
   -0.8870    8.9930   -0.6460 H   0  0  0  0  0  0  0  0  0  0  0  0
    3.6824   10.1261   -1.8603 H   0  0  0  0  0  0  0  0  0  0  0  0
    2.9315    8.9704   -3.0124 H   0  0  0  0  0  0  0  0  0  0  0  0
    2.4269   10.6944   -3.0124 H   0  0  0  0  0  0  0  0  0  0  0  0
    2.0702    8.8967    0.7027 H   0  0  0  0  0  0  0  0  0  0  0  0
    1.8823    7.5468   -0.4674 H   0  0  0  0  0  0  0  0  0  0  0  0
    3.3837    8.5329   -0.4674 H   0  0  0  0  0  0  0  0  0  0  0  0
   -1.3787   12.8768    0.8917 H   0  0  0  0  0  0  0  0  0  0  0  0
   -2.2951   13.6097   -0.4684 H   0  0  0  0  0  0  0  0  0  0  0  0
   -1.9433   11.8482   -0.4684 H   0  0  0  0  0  0  0  0  0  0  0  0
   -0.9212   13.5849   -2.9553 H   0  0  0  0  0  0  0  0  0  0  0  0
   -1.2853   14.8373   -1.6393 H   0  0  0  0  0  0  0  0  0  0  0  0
    1.3187   14.4336   -3.1378 H   0  0  0  0  0  0  0  0  0  0  0  0
    0.1908   15.8449   -3.1951 H   0  0  0  0  0  0  0  0  0  0  0  0
    0.4378   16.4906    0.4554 H   0  0  0  0  0  0  0  0  0  0  0  0
    0.4893   17.6543   -0.9120 H   0  0  0  0  0  0  0  0  0  0  0  0
   -0.7147   16.3212   -0.9120 H   0  0  0  0  0  0  0  0  0  0  0  0
  1  2  1  0
  2  3  1  0
  3  4  1  0
  4  5  1  0
  5  6  1  0
  6  7  1  0
  7  8  1  0
  7  9  1  0
  2 10  1  0
 10 11  1  0
 11 12  1  0
 12 13  1  0
 13 14  1  6
 13 15  1  0
 15 16  1  0
 16 17  1  0
 17 18  2  0
 18 19  1  0
 19 20  1  0
 20 21  1  0
 21 22  1  0
 22 23  1  0
 22 24  1  0
 24 25  1  0
 24 26  1  0
 19 27  1  0
 27 28  1  1
 27 29  1  0
 29 30  1  0
 30 31  1  0
 31 32  1  1
  7  5  1  0
 31 10  1  0
 31 13  1  0
 27 15  1  0
 24 18  1  0
  1 33  1  0
  1 34  1  0
  1 35  1  0
  2 36  1  6
  3 37  1  0
  3 38  1  0
  4 39  1  0
  4 40  1  0
  5 41  1  1
  8 42  1  0
  8 43  1  0
  8 44  1  0
  9 45  1  0
  9 46  1  0
  9 47  1  0
 10 48  1  6
 11 49  1  0
 11 50  1  0
 12 51  1  0
 12 52  1  0
 14 53  1  0
 14 54  1  0
 14 55  1  0
 15 56  1  1
 16 57  1  0
 16 58  1  0
 17 59  1  0
 19 60  1  6
 20 61  1  0
 20 62  1  0
 21 63  1  0
 21 64  1  0
 22 65  1  6
 23 66  1  0
 25 67  1  0
 25 68  1  0
 25 69  1  0
 26 70  1  0
 26 71  1  0
 26 72  1  0
 28 73  1  0
 28 74  1  0
 28 75  1  0
 29 76  1  0
 29 77  1  0
 30 78  1  0
 30 79  1  0
 32 80  1  0
 32 81  1  0
 32 82  1  0
M  END
>  <meeko>  (8) 
{"is_sidechain": [false], "intermolecular_energy": 2.731, "internal_energy": -0.839}

$$$$
EPH_relaxed_0001_pdb2pqr_Repair_363_r2_0001_out
     RDKit          3D

 82 86  0  0  0  0  0  0  0  0999 V2000
   -0.9250   16.3920   -5.8740 C   0  0  0  0  0  0  0  0  0  0  0  0
    0.1730   15.6930   -6.6810 C   0  0  2  0  0  0  0  0  0  0  0  0
   -0.2280   15.4960   -8.1570 C   0  0  0  0  0  0  0  0  0  0  0  0
    0.4220   16.5000   -9.1120 C   0  0  0  0  0  0  0  0  0  0  0  0
    1.8320   16.1150   -9.4460 C   0  0  2  0  0  0  0  0  0  0  0  0
    2.3330   16.6770  -10.6660 O   0  0  0  0  0  0  0  0  0  0  0  0
    2.2020   15.2470  -10.6340 C   0  0  0  0  0  0  0  0  0  0  0  0
    1.1590   14.7100  -11.5640 C   0  0  0  0  0  0  0  0  0  0  0  0
    3.5120   14.5220  -10.6100 C   0  0  0  0  0  0  0  0  0  0  0  0
    0.5080   14.3480   -6.0480 C   0  0  1  0  0  0  0  0  0  0  0  0
    1.7380   13.6680   -6.7060 C   0  0  0  0  0  0  0  0  0  0  0  0
    2.4910   12.9160   -5.5780 C   0  0  0  0  0  0  0  0  0  0  0  0
    1.5030   12.9090   -4.3880 C   0  0  1  0  0  0  0  0  0  0  0  0
    0.5210   11.7340   -4.6880 C   0  0  0  0  0  0  0  0  0  0  0  0
    2.1370   12.7820   -2.9640 C   0  0  2  0  0  0  0  0  0  0  0  0
    2.9070   11.4750   -2.7080 C   0  0  0  0  0  0  0  0  0  0  0  0
    2.0950   10.3580   -2.1390 C   0  0  0  0  0  0  0  0  0  0  0  0
    0.8760   10.4830   -1.5810 C   0  0  0  0  0  0  0  0  0  0  0  0
    0.2330   11.8630   -1.3930 C   0  0  1  0  0  0  0  0  0  0  0  0
   -0.3490   11.9710    0.0410 C   0  0  0  0  0  0  0  0  0  0  0  0
   -1.3070   10.8310    0.3720 C   0  0  0  0  0  0  0  0  0  0  0  0
   -0.6140    9.4780    0.2290 C   0  0  2  0  0  0  0  0  0  0  0  0
    0.3960    9.3690    1.2360 O   0  0  0  0  0  0  0  0  0  0  0  0
    0.0190    9.2590   -1.1730 C   0  0  0  0  0  0  0  0  0  0  0  0
   -1.1000    9.0760   -2.2270 C   0  0  0  0  0  0  0  0  0  0  0  0
    0.8050    7.9200   -1.1380 C   0  0  0  0  0  0  0  0  0  0  0  0
    1.1410   13.1090   -1.7790 C   0  0  1  0  0  0  0  0  0  0  0  0
    2.0200   13.5250   -0.5610 C   0  0  0  0  0  0  0  0  0  0  0  0
    0.2130   14.3400   -2.1000 C   0  0  0  0  0  0  0  0  0  0  0  0
   -0.2840   14.4770   -3.5510 C   0  0  0  0  0  0  0  0  0  0  0  0
    0.8760   14.3430   -4.5430 C   0  0  2  0  0  0  0  0  0  0  0  0
    1.8700   15.5250   -4.2790 C   0  0  0  0  0  0  0  0  0  0  0  0
   -0.7269   16.2659   -4.7994 H   0  0  0  0  0  0  0  0  0  0  0  0
   -0.9361   17.4637   -6.1215 H   0  0  0  0  0  0  0  0  0  0  0  0
   -1.9007   15.9484   -6.1215 H   0  0  0  0  0  0  0  0  0  0  0  0
    1.0606   16.3425   -6.6637 H   0  0  0  0  0  0  0  0  0  0  0  0
    0.0684   14.4824   -8.4648 H   0  0  0  0  0  0  0  0  0  0  0  0
   -1.3151   15.6529   -8.2178 H   0  0  0  0  0  0  0  0  0  0  0  0
   -0.1660   16.5406  -10.0408 H   0  0  0  0  0  0  0  0  0  0  0  0
    0.4430   17.4813   -8.6155 H   0  0  0  0  0  0  0  0  0  0  0  0
    2.0943   16.0571   -8.3793 H   0  0  0  0  0  0  0  0  0  0  0  0
    0.3307   14.2836  -10.9791 H   0  0  0  0  0  0  0  0  0  0  0  0
    0.7788   15.5245  -12.1981 H   0  0  0  0  0  0  0  0  0  0  0  0
    1.6011   13.9274  -12.1981 H   0  0  0  0  0  0  0  0  0  0  0  0
    3.8182   14.3525   -9.5672 H   0  0  0  0  0  0  0  0  0  0  0  0
    3.4051   13.5546  -11.1226 H   0  0  0  0  0  0  0  0  0  0  0  0
    4.2749   15.1263  -11.1226 H   0  0  0  0  0  0  0  0  0  0  0  0
   -0.4483   13.8272   -6.2037 H   0  0  0  0  0  0  0  0  0  0  0  0
    1.4096   12.9589   -7.4801 H   0  0  0  0  0  0  0  0  0  0  0  0
    2.3896   14.4119   -7.1876 H   0  0  0  0  0  0  0  0  0  0  0  0
    2.7315   11.8887   -5.8893 H   0  0  0  0  0  0  0  0  0  0  0  0
    3.4479   13.3951   -5.3234 H   0  0  0  0  0  0  0  0  0  0  0  0
    0.1624   11.3049   -3.7407 H   0  0  0  0  0  0  0  0  0  0  0  0
   -0.3350   12.1104   -5.2674 H   0  0  0  0  0  0  0  0  0  0  0  0
    1.0433   10.9584   -5.2674 H   0  0  0  0  0  0  0  0  0  0  0  0
    2.8952   13.5789   -2.9709 H   0  0  0  0  0  0  0  0  0  0  0  0
    3.3284   11.1355   -3.6657 H   0  0  0  0  0  0  0  0  0  0  0  0
    3.6692   11.7136   -1.9516 H   0  0  0  0  0  0  0  0  0  0  0  0
    2.5294    9.3482   -2.1792 H   0  0  0  0  0  0  0  0  0  0  0  0
   -0.5800   11.9238   -2.1315 H   0  0  0  0  0  0  0  0  0  0  0  0
    0.4824   11.9530    0.7610 H   0  0  0  0  0  0  0  0  0  0  0  0
   -0.9166   12.9114    0.1005 H   0  0  0  0  0  0  0  0  0  0  0  0
   -1.6607   10.9469    1.4071 H   0  0  0  0  0  0  0  0  0  0  0  0
   -2.1533   10.8683   -0.3297 H   0  0  0  0  0  0  0  0  0  0  0  0
   -1.3816    8.6995    0.3508 H   0  0  0  0  0  0  0  0  0  0  0  0
    0.7290   10.2650    1.4180 H   0  0  0  0  0  0  0  0  0  0  0  0
   -2.0619    8.9187   -1.7170 H   0  0  0  0  0  0  0  0  0  0  0  0
   -1.1616    9.9760   -2.8564 H   0  0  0  0  0  0  0  0  0  0  0  0
   -0.8717    8.2033   -2.8564 H   0  0  0  0  0  0  0  0  0  0  0  0
    0.9787    7.6240   -0.0929 H   0  0  0  0  0  0  0  0  0  0  0  0
    0.2219    7.1391   -1.6482 H   0  0  0  0  0  0  0  0  0  0  0  0
    1.7710    8.0485   -1.6482 H   0  0  0  0  0  0  0  0  0  0  0  0
    1.4942   13.2762    0.3726 H   0  0  0  0  0  0  0  0  0  0  0  0
    2.9773   12.9844   -0.5980 H   0  0  0  0  0  0  0  0  0  0  0  0
    2.2089   14.6080   -0.5980 H   0  0  0  0  0  0  0  0  0  0  0  0
   -0.6721   14.2674   -1.4509 H   0  0  0  0  0  0  0  0  0  0  0  0
    0.8413   15.2261   -1.9268 H   0  0  0  0  0  0  0  0  0  0  0  0
   -1.0239   13.6887   -3.7539 H   0  0  0  0  0  0  0  0  0  0  0  0
   -0.7375   15.4716   -3.6740 H   0  0  0  0  0  0  0  0  0  0  0  0
    1.9901   15.6679   -3.1950 H   0  0  0  0  0  0  0  0  0  0  0  0
    2.8462   15.2904   -4.7283 H   0  0  0  0  0  0  0  0  0  0  0  0
    1.4715   16.4465   -4.7283 H   0  0  0  0  0  0  0  0  0  0  0  0
  1  2  1  0
  2  3  1  0
  3  4  1  0
  4  5  1  0
  5  6  1  0
  6  7  1  0
  7  8  1  0
  7  9  1  0
  2 10  1  0
 10 11  1  0
 11 12  1  0
 12 13  1  0
 13 14  1  6
 13 15  1  0
 15 16  1  0
 16 17  1  0
 17 18  2  0
 18 19  1  0
 19 20  1  0
 20 21  1  0
 21 22  1  0
 22 23  1  0
 22 24  1  0
 24 25  1  0
 24 26  1  0
 19 27  1  0
 27 28  1  1
 27 29  1  0
 29 30  1  0
 30 31  1  0
 31 32  1  6
  7  5  1  0
 31 10  1  0
 31 13  1  0
 27 15  1  0
 24 18  1  0
  1 33  1  0
  1 34  1  0
  1 35  1  0
  2 36  1  6
  3 37  1  0
  3 38  1  0
  4 39  1  0
  4 40  1  0
  5 41  1  1
  8 42  1  0
  8 43  1  0
  8 44  1  0
  9 45  1  0
  9 46  1  0
  9 47  1  0
 10 48  1  1
 11 49  1  0
 11 50  1  0
 12 51  1  0
 12 52  1  0
 14 53  1  0
 14 54  1  0
 14 55  1  0
 15 56  1  6
 16 57  1  0
 16 58  1  0
 17 59  1  0
 19 60  1  6
 20 61  1  0
 20 62  1  0
 21 63  1  0
 21 64  1  0
 22 65  1  1
 23 66  1  0
 25 67  1  0
 25 68  1  0
 25 69  1  0
 26 70  1  0
 26 71  1  0
 26 72  1  0
 28 73  1  0
 28 74  1  0
 28 75  1  0
 29 76  1  0
 29 77  1  0
 30 78  1  0
 30 79  1  0
 32 80  1  0
 32 81  1  0
 32 82  1  0
M  END
>  <meeko>  (9) 
{"is_sidechain": [false], "intermolecular_energy": 2.731, "internal_energy": -0.839}

$$$$
EPH_relaxed_0001_pdb2pqr_Repair_363_r2_0001_out
     RDKit          3D

 82 86  0  0  0  0  0  0  0  0999 V2000
   -0.1270    9.3360   -2.2440 C   0  0  0  0  0  0  0  0  0  0  0  0
    0.9730   10.2970   -2.7030 C   0  0  2  0  0  0  0  0  0  0  0  0
    2.3530    9.6120   -2.7680 C   0  0  0  0  0  0  0  0  0  0  0  0
    3.2880   10.2100   -3.8220 C   0  0  0  0  0  0  0  0  0  0  0  0
    4.6620   10.4510   -3.2720 C   0  0  2  0  0  0  0  0  0  0  0  0
    5.1670   11.7760   -3.4820 O   0  0  0  0  0  0  0  0  0  0  0  0
    5.8770   10.7150   -4.1420 C   0  0  0  0  0  0  0  0  0  0  0  0
    5.7750   10.7510   -5.6340 C   0  0  0  0  0  0  0  0  0  0  0  0
    7.2350   10.4530   -3.5710 C   0  0  0  0  0  0  0  0  0  0  0  0
    1.0330   11.5020   -1.7720 C   0  0  1  0  0  0  0  0  0  0  0  0
    2.1210   11.3570   -0.6760 C   0  0  0  0  0  0  0  0  0  0  0  0
    2.6950   12.7750   -0.4240 C   0  0  0  0  0  0  0  0  0  0  0  0
    1.7020   13.7280   -1.1300 C   0  0  1  0  0  0  0  0  0  0  0  0
    0.5190   13.8910   -0.1260 C   0  0  0  0  0  0  0  0  0  0  0  0
    2.2740   15.1120   -1.5780 C   0  0  2  0  0  0  0  0  0  0  0  0
    2.7740   16.0130   -0.4350 C   0  0  0  0  0  0  0  0  0  0  0  0
    1.7530   16.9370    0.1420 C   0  0  0  0  0  0  0  0  0  0  0  0
    0.5700   17.2460   -0.4220 C   0  0  0  0  0  0  0  0  0  0  0  0
    0.2000   16.7200   -1.8150 C   0  0  1  0  0  0  0  0  0  0  0  0
   -0.3760   17.8790   -2.6690 C   0  0  0  0  0  0  0  0  0  0  0  0
   -1.5410   18.5880   -1.9840 C   0  0  0  0  0  0  0  0  0  0  0  0
   -1.1180   19.1470   -0.6290 C   0  0  2  0  0  0  0  0  0  0  0  0
   -0.1660   20.1940   -0.8390 O   0  0  0  0  0  0  0  0  0  0  0  0
   -0.5120   18.0710    0.3160 C   0  0  0  0  0  0  0  0  0  0  0  0
   -1.6270   17.1030    0.7850 C   0  0  0  0  0  0  0  0  0  0  0  0
    0.0020   18.7910    1.5920 C   0  0  0  0  0  0  0  0  0  0  0  0
    1.3370   15.9090   -2.5740 C   0  0  1  0  0  0  0  0  0  0  0  0
    2.2560   16.8920   -3.3610 C   0  0  0  0  0  0  0  0  0  0  0  0
    0.6680   14.9700   -3.6470 C   0  0  0  0  0  0  0  0  0  0  0  0
    0.2340   13.5710   -3.1720 C   0  0  0  0  0  0  0  0  0  0  0  0
    1.3640   12.8760   -2.4070 C   0  0  2  0  0  0  0  0  0  0  0  0
    2.5610   12.6780   -3.3990 C   0  0  0  0  0  0  0  0  0  0  0  0
   -0.1563    9.3104   -1.1447 H   0  0  0  0  0  0  0  0  0  0  0  0
   -1.0984    9.6800   -2.6288 H   0  0  0  0  0  0  0  0  0  0  0  0
    0.0834    8.3272   -2.6288 H   0  0  0  0  0  0  0  0  0  0  0  0
    0.7199   10.6267   -3.7215 H   0  0  0  0  0  0  0  0  0  0  0  0
    2.8342    9.7064   -1.7834 H   0  0  0  0  0  0  0  0  0  0  0  0
    2.1783    8.5635   -3.0512 H   0  0  0  0  0  0  0  0  0  0  0  0
    3.3607    9.5135   -4.6703 H   0  0  0  0  0  0  0  0  0  0  0  0
    2.8717   11.1771   -4.1405 H   0  0  0  0  0  0  0  0  0  0  0  0
    4.4830    9.7420   -2.4503 H   0  0  0  0  0  0  0  0  0  0  0  0
    4.7746   11.1041   -5.9247 H   0  0  0  0  0  0  0  0  0  0  0  0
    6.5366   11.4346   -6.0372 H   0  0  0  0  0  0  0  0  0  0  0  0
    5.9388    9.7408   -6.0372 H   0  0  0  0  0  0  0  0  0  0  0  0
    7.1792   10.4638   -2.4725 H   0  0  0  0  0  0  0  0  0  0  0  0
    7.5919    9.4694   -3.9104 H   0  0  0  0  0  0  0  0  0  0  0  0
    7.9322   11.2332   -3.9104 H   0  0  0  0  0  0  0  0  0  0  0  0
   -0.0024   11.4989   -1.4005 H   0  0  0  0  0  0  0  0  0  0  0  0
    1.6768   10.9586    0.2481 H   0  0  0  0  0  0  0  0  0  0  0  0
    2.9119   10.6620   -0.9946 H   0  0  0  0  0  0  0  0  0  0  0  0
    2.7401   12.9899    0.6539 H   0  0  0  0  0  0  0  0  0  0  0  0
    3.7210   12.8839   -0.8053 H   0  0  0  0  0  0  0  0  0  0  0  0
    0.9021   13.8382    0.9038 H   0  0  0  0  0  0  0  0  0  0  0  0
    0.0330   14.8646   -0.2869 H   0  0  0  0  0  0  0  0  0  0  0  0
   -0.2122   13.0851   -0.2869 H   0  0  0  0  0  0  0  0  0  0  0  0
    3.1713   14.8234   -2.1451 H   0  0  0  0  0  0  0  0  0  0  0  0
    3.1407   15.3639    0.3738 H   0  0  0  0  0  0  0  0  0  0  0  0
    3.5529   16.6550   -0.8722 H   0  0  0  0  0  0  0  0  0  0  0  0
    1.9870   17.4049    1.1096 H   0  0  0  0  0  0  0  0  0  0  0  0
   -0.5729   15.9536   -1.6560 H   0  0  0  0  0  0  0  0  0  0  0  0
    0.4233   18.6118   -2.8537 H   0  0  0  0  0  0  0  0  0  0  0  0
   -0.7536   17.4465   -3.6073 H   0  0  0  0  0  0  0  0  0  0  0  0
   -1.8853   19.4146   -2.6229 H   0  0  0  0  0  0  0  0  0  0  0  0
   -2.3511   17.8607   -1.8265 H   0  0  0  0  0  0  0  0  0  0  0  0
   -2.0229   19.5268   -0.1320 H   0  0  0  0  0  0  0  0  0  0  0  0
    0.2990   20.3420    0.0020 H   0  0  0  0  0  0  0  0  0  0  0  0
   -1.6538   17.0797    1.8844 H   0  0  0  0  0  0  0  0  0  0  0  0
   -2.5982   17.4492    0.4018 H   0  0  0  0  0  0  0  0  0  0  0  0
   -1.4206   16.0928    0.4018 H   0  0  0  0  0  0  0  0  0  0  0  0
   -0.3718   18.2674    2.4842 H   0  0  0  0  0  0  0  0  0  0  0  0
    1.1020   18.7860    1.5979 H   0  0  0  0  0  0  0  0  0  0  0  0
   -0.3600   19.8297    1.5979 H   0  0  0  0  0  0  0  0  0  0  0  0
    2.8297   17.5057   -2.6509 H   0  0  0  0  0  0  0  0  0  0  0  0
    2.9495   16.3186   -3.9937 H   0  0  0  0  0  0  0  0  0  0  0  0
    1.6373   17.5453   -3.9937 H   0  0  0  0  0  0  0  0  0  0  0  0
   -0.2267   15.4844   -4.0277 H   0  0  0  0  0  0  0  0  0  0  0  0
    1.4506   14.7886   -4.3984 H   0  0  0  0  0  0  0  0  0  0  0  0
   -0.6397   13.6705   -2.5111 H   0  0  0  0  0  0  0  0  0  0  0  0
   -0.0172   12.9637   -4.0541 H   0  0  0  0  0  0  0  0  0  0  0  0
    3.4887   12.5245   -2.8282 H   0  0  0  0  0  0  0  0  0  0  0  0
    2.3707   11.7991   -4.0325 H   0  0  0  0  0  0  0  0  0  0  0  0
    2.6638   13.5713   -4.0325 H   0  0  0  0  0  0  0  0  0  0  0  0
  1  2  1  0
  2  3  1  0
  3  4  1  0
  4  5  1  0
  5  6  1  0
  6  7  1  0
  7  8  1  0
  7  9  1  0
  2 10  1  0
 10 11  1  0
 11 12  1  0
 12 13  1  0
 13 14  1  1
 13 15  1  0
 15 16  1  0
 16 17  1  0
 17 18  2  0
 18 19  1  0
 19 20  1  0
 20 21  1  0
 21 22  1  0
 22 23  1  0
 22 24  1  0
 24 25  1  0
 24 26  1  0
 19 27  1  0
 27 28  1  6
 27 29  1  0
 29 30  1  0
 30 31  1  0
 31 32  1  6
  7  5  1  0
 31 10  1  0
 31 13  1  0
 27 15  1  0
 24 18  1  0
  1 33  1  0
  1 34  1  0
  1 35  1  0
  2 36  1  6
  3 37  1  0
  3 38  1  0
  4 39  1  0
  4 40  1  0
  5 41  1  1
  8 42  1  0
  8 43  1  0
  8 44  1  0
  9 45  1  0
  9 46  1  0
  9 47  1  0
 10 48  1  1
 11 49  1  0
 11 50  1  0
 12 51  1  0
 12 52  1  0
 14 53  1  0
 14 54  1  0
 14 55  1  0
 15 56  1  6
 16 57  1  0
 16 58  1  0
 17 59  1  0
 19 60  1  1
 20 61  1  0
 20 62  1  0
 21 63  1  0
 21 64  1  0
 22 65  1  1
 23 66  1  0
 25 67  1  0
 25 68  1  0
 25 69  1  0
 26 70  1  0
 26 71  1  0
 26 72  1  0
 28 73  1  0
 28 74  1  0
 28 75  1  0
 29 76  1  0
 29 77  1  0
 30 78  1  0
 30 79  1  0
 32 80  1  0
 32 81  1  0
 32 82  1  0
M  END
>  <meeko>  (10) 
{"is_sidechain": [false], "intermolecular_energy": 2.731, "internal_energy": -0.839}

$$$$
EPH_relaxed_0001_pdb2pqr_Repair_363_r2_0001_out
     RDKit          3D

 82 86  0  0  0  0  0  0  0  0999 V2000
   -4.0110    7.3800   -3.6070 C   0  0  0  0  0  0  0  0  0  0  0  0
   -3.6540    7.2780   -2.1210 C   0  0  2  0  0  0  0  0  0  0  0  0
   -4.8510    6.8130   -1.2680 C   0  0  0  0  0  0  0  0  0  0  0  0
   -6.1440    6.6330   -2.0670 C   0  0  0  0  0  0  0  0  0  0  0  0
   -7.3230    6.4030   -1.1700 C   0  0  2  0  0  0  0  0  0  0  0  0
   -8.3880    5.6480   -1.7630 O   0  0  0  0  0  0  0  0  0  0  0  0
   -8.6920    7.0090   -1.4160 C   0  0  0  0  0  0  0  0  0  0  0  0
   -8.9540    7.8930   -2.5950 C   0  0  0  0  0  0  0  0  0  0  0  0
   -9.6340    7.1400   -0.2600 C   0  0  0  0  0  0  0  0  0  0  0  0
   -3.1460    8.6230   -1.6160 C   0  0  1  0  0  0  0  0  0  0  0  0
   -3.8150    9.0530   -0.2830 C   0  0  0  0  0  0  0  0  0  0  0  0
   -2.7370    9.8080    0.5360 C   0  0  0  0  0  0  0  0  0  0  0  0
   -1.5970   10.0780   -0.4750 C   0  0  1  0  0  0  0  0  0  0  0  0
   -2.0570   11.3400   -1.2710 C   0  0  0  0  0  0  0  0  0  0  0  0
   -0.1680   10.2660    0.1290 C   0  0  2  0  0  0  0  0  0  0  0  0
   -0.0100   11.4740    1.0700 C   0  0  0  0  0  0  0  0  0  0  0  0
    0.4070   12.7460    0.4100 C   0  0  0  0  0  0  0  0  0  0  0  0
    0.9210   12.8510   -0.8300 C   0  0  0  0  0  0  0  0  0  0  0  0
    1.2190   11.6020   -1.6680 C   0  0  1  0  0  0  0  0  0  0  0  0
    2.6300   11.7270   -2.3010 C   0  0  0  0  0  0  0  0  0  0  0  0
    2.8020   13.0180   -3.0960 C   0  0  0  0  0  0  0  0  0  0  0  0
    2.5550   14.2390   -2.2140 C   0  0  2  0  0  0  0  0  0  0  0  0
    3.5890   14.3120   -1.2280 O   0  0  0  0  0  0  0  0  0  0  0  0
    1.1660   14.2180   -1.5150 C   0  0  0  0  0  0  0  0  0  0  0  0
    0.0510   14.4420   -2.5660 C   0  0  0  0  0  0  0  0  0  0  0  0
    1.1010   15.4310   -0.5480 C   0  0  0  0  0  0  0  0  0  0  0  0
    1.0000   10.2080   -0.9370 C   0  0  1  0  0  0  0  0  0  0  0  0
    2.2920    9.8050   -0.1620 C   0  0  0  0  0  0  0  0  0  0  0  0
    0.7650    9.0900   -2.0210 C   0  0  0  0  0  0  0  0  0  0  0  0
   -0.6860    8.8710   -2.4900 C   0  0  0  0  0  0  0  0  0  0  0  0
   -1.6340    8.7370   -1.2950 C   0  0  2  0  0  0  0  0  0  0  0  0
   -1.2100    7.4630   -0.4880 C   0  0  0  0  0  0  0  0  0  0  0  0
   -5.0639    7.6808   -3.7113 H   0  0  0  0  0  0  0  0  0  0  0  0
   -3.3660    8.1298   -4.0884 H   0  0  0  0  0  0  0  0  0  0  0  0
   -3.8595    6.4026   -4.0884 H   0  0  0  0  0  0  0  0  0  0  0  0
   -2.8629    6.5203   -2.0210 H   0  0  0  0  0  0  0  0  0  0  0  0
   -4.5930    5.8498   -0.8037 H   0  0  0  0  0  0  0  0  0  0  0  0
   -5.0404    7.6008   -0.5240 H   0  0  0  0  0  0  0  0  0  0  0  0
   -6.3225    7.5388   -2.6650 H   0  0  0  0  0  0  0  0  0  0  0  0
   -6.0276    5.7504   -2.7132 H   0  0  0  0  0  0  0  0  0  0  0  0
   -6.6737    6.3831   -0.2823 H   0  0  0  0  0  0  0  0  0  0  0  0
   -9.2503    8.8928   -2.2450 H   0  0  0  0  0  0  0  0  0  0  0  0
   -8.0410    7.9732   -3.2033 H   0  0  0  0  0  0  0  0  0  0  0  0
   -9.7632    7.4627   -3.2033 H   0  0  0  0  0  0  0  0  0  0  0  0
   -9.0715    7.0618    0.6821 H   0  0  0  0  0  0  0  0  0  0  0  0
  -10.1376    8.1168   -0.3063 H   0  0  0  0  0  0  0  0  0  0  0  0
  -10.3851    6.3377   -0.3063 H   0  0  0  0  0  0  0  0  0  0  0  0
   -3.3955    9.2515   -2.4836 H   0  0  0  0  0  0  0  0  0  0  0  0
   -4.6700    9.7151   -0.4847 H   0  0  0  0  0  0  0  0  0  0  0  0
   -4.1907    8.1794    0.2698 H   0  0  0  0  0  0  0  0  0  0  0  0
   -3.1393   10.7533    0.9292 H   0  0  0  0  0  0  0  0  0  0  0  0
   -2.3941    9.2302    1.4070 H   0  0  0  0  0  0  0  0  0  0  0  0
   -2.3461   12.1331   -0.5657 H   0  0  0  0  0  0  0  0  0  0  0  0
   -1.2307   11.6956   -1.9040 H   0  0  0  0  0  0  0  0  0  0  0  0
   -2.9183   11.0804   -1.9040 H   0  0  0  0  0  0  0  0  0  0  0  0
   -0.0635    9.3753    0.7659 H   0  0  0  0  0  0  0  0  0  0  0  0
   -0.9771   11.6487    1.5642 H   0  0  0  0  0  0  0  0  0  0  0  0
    0.8001   11.2130    1.7669 H   0  0  0  0  0  0  0  0  0  0  0  0
    0.2841   13.6757    0.9849 H   0  0  0  0  0  0  0  0  0  0  0  0
    0.4555   11.5782   -2.4596 H   0  0  0  0  0  0  0  0  0  0  0  0
    3.3804   11.7053   -1.4970 H   0  0  0  0  0  0  0  0  0  0  0  0
    2.7592   10.8858   -2.9979 H   0  0  0  0  0  0  0  0  0  0  0  0
    3.8268   13.0623   -3.4932 H   0  0  0  0  0  0  0  0  0  0  0  0
    2.0704   13.0245   -3.9174 H   0  0  0  0  0  0  0  0  0  0  0  0
    2.5650   15.1250   -2.8658 H   0  0  0  0  0  0  0  0  0  0  0  0
    3.8030   13.4030   -0.9580 H   0  0  0  0  0  0  0  0  0  0  0  0
   -0.9031   14.6337   -2.0532 H   0  0  0  0  0  0  0  0  0  0  0  0
    0.3089   15.3063   -3.1957 H   0  0  0  0  0  0  0  0  0  0  0  0
   -0.0449   13.5452   -3.1957 H   0  0  0  0  0  0  0  0  0  0  0  0
    1.1202   15.0725    0.4918 H   0  0  0  0  0  0  0  0  0  0  0  0
    1.9652   16.0880   -0.7253 H   0  0  0  0  0  0  0  0  0  0  0  0
    0.1715   15.9919   -0.7253 H   0  0  0  0  0  0  0  0  0  0  0  0
    2.1038    9.8637    0.9202 H   0  0  0  0  0  0  0  0  0  0  0  0
    2.5743    8.7761   -0.4298 H   0  0  0  0  0  0  0  0  0  0  0  0
    3.1092   10.4909   -0.4298 H   0  0  0  0  0  0  0  0  0  0  0  0
    1.3644    9.3526   -2.9052 H   0  0  0  0  0  0  0  0  0  0  0  0
    1.0542    8.1486   -1.5308 H   0  0  0  0  0  0  0  0  0  0  0  0
   -0.9992    9.7287   -3.1034 H   0  0  0  0  0  0  0  0  0  0  0  0
   -0.7283    7.9418   -3.0772 H   0  0  0  0  0  0  0  0  0  0  0  0
   -1.2795    7.6717    0.5898 H   0  0  0  0  0  0  0  0  0  0  0  0
   -1.8786    6.6277   -0.7436 H   0  0  0  0  0  0  0  0  0  0  0  0
   -0.1742    7.1950   -0.7436 H   0  0  0  0  0  0  0  0  0  0  0  0
  1  2  1  0
  2  3  1  0
  3  4  1  0
  4  5  1  0
  5  6  1  0
  6  7  1  0
  7  8  1  0
  7  9  1  0
  2 10  1  0
 10 11  1  0
 11 12  1  0
 12 13  1  0
 13 14  1  6
 13 15  1  0
 15 16  1  0
 16 17  1  0
 17 18  2  0
 18 19  1  0
 19 20  1  0
 20 21  1  0
 21 22  1  0
 22 23  1  0
 22 24  1  0
 24 25  1  0
 24 26  1  0
 19 27  1  0
 27 28  1  1
 27 29  1  0
 29 30  1  0
 30 31  1  0
 31 32  1  1
  7  5  1  0
 31 10  1  0
 31 13  1  0
 27 15  1  0
 24 18  1  0
  1 33  1  0
  1 34  1  0
  1 35  1  0
  2 36  1  6
  3 37  1  0
  3 38  1  0
  4 39  1  0
  4 40  1  0
  5 41  1  1
  8 42  1  0
  8 43  1  0
  8 44  1  0
  9 45  1  0
  9 46  1  0
  9 47  1  0
 10 48  1  6
 11 49  1  0
 11 50  1  0
 12 51  1  0
 12 52  1  0
 14 53  1  0
 14 54  1  0
 14 55  1  0
 15 56  1  1
 16 57  1  0
 16 58  1  0
 17 59  1  0
 19 60  1  6
 20 61  1  0
 20 62  1  0
 21 63  1  0
 21 64  1  0
 22 65  1  6
 23 66  1  0
 25 67  1  0
 25 68  1  0
 25 69  1  0
 26 70  1  0
 26 71  1  0
 26 72  1  0
 28 73  1  0
 28 74  1  0
 28 75  1  0
 29 76  1  0
 29 77  1  0
 30 78  1  0
 30 79  1  0
 32 80  1  0
 32 81  1  0
 32 82  1  0
M  END
>  <meeko>  (11) 
{"is_sidechain": [false], "intermolecular_energy": 2.731, "internal_energy": -0.839}

$$$$
EPH_relaxed_0001_pdb2pqr_Repair_363_r2_0001_out
     RDKit          3D

 82 86  0  0  0  0  0  0  0  0999 V2000
   -2.1420    7.8020   -2.3030 C   0  0  0  0  0  0  0  0  0  0  0  0
   -2.1350    8.4000   -0.8940 C   0  0  2  0  0  0  0  0  0  0  0  0
   -3.5290    8.3510   -0.2350 C   0  0  0  0  0  0  0  0  0  0  0  0
   -4.6850    8.4070   -1.2370 C   0  0  0  0  0  0  0  0  0  0  0  0
   -5.4770    7.1350   -1.2420 C   0  0  2  0  0  0  0  0  0  0  0  0
   -5.6500    6.5420   -2.5360 O   0  0  0  0  0  0  0  0  0  0  0  0
   -6.8450    7.0030   -1.8850 C   0  0  0  0  0  0  0  0  0  0  0  0
   -7.5010    8.1620   -2.5680 C   0  0  0  0  0  0  0  0  0  0  0  0
   -7.7470    5.8990   -1.4290 C   0  0  0  0  0  0  0  0  0  0  0  0
   -1.6330    9.8380   -0.9420 C   0  0  1  0  0  0  0  0  0  0  0  0
   -1.2200   10.3740    0.4550 C   0  0  0  0  0  0  0  0  0  0  0  0
   -0.0120   11.3190    0.2330 C   0  0  0  0  0  0  0  0  0  0  0  0
    0.0220   11.5570   -1.2950 C   0  0  1  0  0  0  0  0  0  0  0  0
   -1.0510   12.6610   -1.5530 C   0  0  0  0  0  0  0  0  0  0  0  0
    1.4080   11.9450   -1.9040 C   0  0  2  0  0  0  0  0  0  0  0  0
    1.9960   13.2720   -1.3930 C   0  0  0  0  0  0  0  0  0  0  0  0
    1.6250   14.4820   -2.1860 C   0  0  0  0  0  0  0  0  0  0  0  0
    1.0890   14.4730   -3.4200 C   0  0  0  0  0  0  0  0  0  0  0  0
    0.8940   13.1580   -4.1860 C   0  0  1  0  0  0  0  0  0  0  0  0
    1.4040   13.3250   -5.6410 C   0  0  0  0  0  0  0  0  0  0  0  0
    0.7640   14.5130   -6.3520 C   0  0  0  0  0  0  0  0  0  0  0  0
    1.0290   15.8110   -5.5920 C   0  0  2  0  0  0  0  0  0  0  0  0
    2.4290   16.1000   -5.6480 O   0  0  0  0  0  0  0  0  0  0  0  0
    0.5660   15.7570   -4.1090 C   0  0  0  0  0  0  0  0  0  0  0  0
   -0.9820   15.7460   -4.0480 C   0  0  0  0  0  0  0  0  0  0  0  0
    1.0180   17.0730   -3.4200 C   0  0  0  0  0  0  0  0  0  0  0  0
    1.4720   11.8550   -3.4820 C   0  0  1  0  0  0  0  0  0  0  0  0
    2.9740   11.6690   -3.8580 C   0  0  0  0  0  0  0  0  0  0  0  0
    0.7150   10.5910   -4.0400 C   0  0  0  0  0  0  0  0  0  0  0  0
   -0.5860   10.1870   -3.3210 C   0  0  0  0  0  0  0  0  0  0  0  0
   -0.3780   10.1240   -1.8050 C   0  0  2  0  0  0  0  0  0  0  0  0
    0.6800    9.0060   -1.5130 C   0  0  0  0  0  0  0  0  0  0  0  0
   -2.1549    6.7042   -2.2353 H   0  0  0  0  0  0  0  0  0  0  0  0
   -3.0362    8.1466   -2.8431 H   0  0  0  0  0  0  0  0  0  0  0  0
   -1.2400    8.1255   -2.8431 H   0  0  0  0  0  0  0  0  0  0  0  0
   -1.4571    7.7895   -0.2793 H   0  0  0  0  0  0  0  0  0  0  0  0
   -3.6101    7.4149    0.3370 H   0  0  0  0  0  0  0  0  0  0  0  0
   -3.6141    9.2420    0.4045 H   0  0  0  0  0  0  0  0  0  0  0  0
   -5.3506    9.2401   -0.9670 H   0  0  0  0  0  0  0  0  0  0  0  0
   -4.2609    8.5505   -2.2418 H   0  0  0  0  0  0  0  0  0  0  0  0
   -5.1036    6.8715   -0.2414 H   0  0  0  0  0  0  0  0  0  0  0  0
   -7.8948    8.8578   -1.8125 H   0  0  0  0  0  0  0  0  0  0  0  0
   -6.7635    8.6824   -3.1967 H   0  0  0  0  0  0  0  0  0  0  0  0
   -8.3268    7.7976   -3.1967 H   0  0  0  0  0  0  0  0  0  0  0  0
   -7.7681    5.8732   -0.3295 H   0  0  0  0  0  0  0  0  0  0  0  0
   -8.7634    6.0745   -1.8112 H   0  0  0  0  0  0  0  0  0  0  0  0
   -7.3724    4.9380   -1.8112 H   0  0  0  0  0  0  0  0  0  0  0  0
   -2.5139   10.3263   -1.3841 H   0  0  0  0  0  0  0  0  0  0  0  0
   -2.0547   10.9271    0.9103 H   0  0  0  0  0  0  0  0  0  0  0  0
   -0.9559    9.5484    1.1322 H   0  0  0  0  0  0  0  0  0  0  0  0
   -0.1572   12.2676    0.7706 H   0  0  0  0  0  0  0  0  0  0  0  0
    0.9282   10.8894    0.6092 H   0  0  0  0  0  0  0  0  0  0  0  0
   -1.4225   13.0432   -0.5908 H   0  0  0  0  0  0  0  0  0  0  0  0
   -0.5992   13.4848   -2.1250 H   0  0  0  0  0  0  0  0  0  0  0  0
   -1.8874   12.2329   -2.1250 H   0  0  0  0  0  0  0  0  0  0  0  0
    2.0662   11.1551   -1.5130 H   0  0  0  0  0  0  0  0  0  0  0  0
    1.6480   13.4226   -0.3604 H   0  0  0  0  0  0  0  0  0  0  0  0
    3.0882   13.1743   -1.4803 H   0  0  0  0  0  0  0  0  0  0  0  0
    1.8051   15.4630   -1.7222 H   0  0  0  0  0  0  0  0  0  0  0  0
   -0.1891   12.9661   -4.1911 H   0  0  0  0  0  0  0  0  0  0  0  0
    2.4937   13.4731   -5.6179 H   0  0  0  0  0  0  0  0  0  0  0  0
    1.1308   12.4161   -6.1971 H   0  0  0  0  0  0  0  0  0  0  0  0
    1.1854   14.5962   -7.3647 H   0  0  0  0  0  0  0  0  0  0  0  0
   -0.3228   14.3497   -6.4000 H   0  0  0  0  0  0  0  0  0  0  0  0
    0.4400   16.6037   -6.0765 H   0  0  0  0  0  0  0  0  0  0  0  0
    2.6990   16.4210   -4.7710 H   0  0  0  0  0  0  0  0  0  0  0  0
   -1.3075   15.7437   -2.9973 H   0  0  0  0  0  0  0  0  0  0  0  0
   -1.3752   16.6414   -4.5517 H   0  0  0  0  0  0  0  0  0  0  0  0
   -1.3624   14.8451   -4.5517 H   0  0  0  0  0  0  0  0  0  0  0  0
    0.9752   16.9485   -2.3279 H   0  0  0  0  0  0  0  0  0  0  0  0
    2.0489   17.3096   -3.7220 H   0  0  0  0  0  0  0  0  0  0  0  0
    0.3500   17.8931   -3.7220 H   0  0  0  0  0  0  0  0  0  0  0  0
    3.5753   11.5945   -2.9399 H   0  0  0  0  0  0  0  0  0  0  0  0
    3.0927   10.7493   -4.4497 H   0  0  0  0  0  0  0  0  0  0  0  0
    3.3135   12.5320   -4.4497 H   0  0  0  0  0  0  0  0  0  0  0  0
    0.4654   10.7904   -5.0926 H   0  0  0  0  0  0  0  0  0  0  0  0
    1.4049    9.7491   -3.8813 H   0  0  0  0  0  0  0  0  0  0  0  0
   -1.3668   10.9283   -3.5465 H   0  0  0  0  0  0  0  0  0  0  0  0
   -0.8874    9.1902   -3.6753 H   0  0  0  0  0  0  0  0  0  0  0  0
    0.7948    8.8847   -0.4257 H   0  0  0  0  0  0  0  0  0  0  0  0
    0.3417    8.0568   -1.9541 H   0  0  0  0  0  0  0  0  0  0  0  0
    1.6464    9.2915   -1.9541 H   0  0  0  0  0  0  0  0  0  0  0  0
  1  2  1  0
  2  3  1  0
  3  4  1  0
  4  5  1  0
  5  6  1  0
  6  7  1  0
  7  8  1  0
  7  9  1  0
  2 10  1  0
 10 11  1  0
 11 12  1  0
 12 13  1  0
 13 14  1  1
 13 15  1  0
 15 16  1  0
 16 17  1  0
 17 18  2  0
 18 19  1  0
 19 20  1  0
 20 21  1  0
 21 22  1  0
 22 23  1  0
 22 24  1  0
 24 25  1  0
 24 26  1  0
 19 27  1  0
 27 28  1  1
 27 29  1  0
 29 30  1  0
 30 31  1  0
 31 32  1  6
  7  5  1  0
 31 10  1  0
 31 13  1  0
 27 15  1  0
 24 18  1  0
  1 33  1  0
  1 34  1  0
  1 35  1  0
  2 36  1  1
  3 37  1  0
  3 38  1  0
  4 39  1  0
  4 40  1  0
  5 41  1  1
  8 42  1  0
  8 43  1  0
  8 44  1  0
  9 45  1  0
  9 46  1  0
  9 47  1  0
 10 48  1  6
 11 49  1  0
 11 50  1  0
 12 51  1  0
 12 52  1  0
 14 53  1  0
 14 54  1  0
 14 55  1  0
 15 56  1  1
 16 57  1  0
 16 58  1  0
 17 59  1  0
 19 60  1  6
 20 61  1  0
 20 62  1  0
 21 63  1  0
 21 64  1  0
 22 65  1  6
 23 66  1  0
 25 67  1  0
 25 68  1  0
 25 69  1  0
 26 70  1  0
 26 71  1  0
 26 72  1  0
 28 73  1  0
 28 74  1  0
 28 75  1  0
 29 76  1  0
 29 77  1  0
 30 78  1  0
 30 79  1  0
 32 80  1  0
 32 81  1  0
 32 82  1  0
M  END
>  <meeko>  (12) 
{"is_sidechain": [false], "intermolecular_energy": 2.731, "internal_energy": -0.839}

$$$$
EPH_relaxed_0001_pdb2pqr_Repair_363_r2_0001_out
     RDKit          3D

 82 86  0  0  0  0  0  0  0  0999 V2000
    2.9100   11.4160   -5.3960 C   0  0  0  0  0  0  0  0  0  0  0  0
    1.9140   11.1010   -4.2770 C   0  0  2  0  0  0  0  0  0  0  0  0
    0.8040   10.1370   -4.7410 C   0  0  0  0  0  0  0  0  0  0  0  0
   -0.2800    9.8930   -3.6880 C   0  0  0  0  0  0  0  0  0  0  0  0
    0.2340    9.0720   -2.5440 C   0  0  2  0  0  0  0  0  0  0  0  0
   -0.6260    7.9970   -2.1450 O   0  0  0  0  0  0  0  0  0  0  0  0
   -0.4230    9.0380   -1.1770 C   0  0  0  0  0  0  0  0  0  0  0  0
   -1.6510    9.8420   -0.8810 C   0  0  0  0  0  0  0  0  0  0  0  0
    0.3980    8.6150    0.0020 C   0  0  0  0  0  0  0  0  0  0  0  0
    1.2970   12.3920   -3.7520 C   0  0  1  0  0  0  0  0  0  0  0  0
   -0.2440   12.2970   -3.5960 C   0  0  0  0  0  0  0  0  0  0  0  0
   -0.6210   13.1440   -2.3530 C   0  0  0  0  0  0  0  0  0  0  0  0
    0.6540   13.9590   -2.0350 C   0  0  1  0  0  0  0  0  0  0  0  0
    0.6160   15.1660   -3.0250 C   0  0  0  0  0  0  0  0  0  0  0  0
    0.8200   14.4320   -0.5540 C   0  0  2  0  0  0  0  0  0  0  0  0
   -0.2700   15.3950   -0.0510 C   0  0  0  0  0  0  0  0  0  0  0  0
    0.0180   16.8460   -0.2510 C   0  0  0  0  0  0  0  0  0  0  0  0
    1.2210   17.3700   -0.5510 C   0  0  0  0  0  0  0  0  0  0  0  0
    2.4720   16.4840   -0.6210 C   0  0  1  0  0  0  0  0  0  0  0  0
    3.6320   17.1640    0.1510 C   0  0  0  0  0  0  0  0  0  0  0  0
    3.8990   18.5880   -0.3280 C   0  0  0  0  0  0  0  0  0  0  0  0
    2.6490   19.4530   -0.1880 C   0  0  2  0  0  0  0  0  0  0  0  0
    2.3550   19.6180    1.2020 O   0  0  0  0  0  0  0  0  0  0  0  0
    1.4100   18.8630   -0.9180 C   0  0  0  0  0  0  0  0  0  0  0  0
    1.6110   18.9640   -2.4510 C   0  0  0  0  0  0  0  0  0  0  0  0
    0.1860   19.7570   -0.5810 C   0  0  0  0  0  0  0  0  0  0  0  0
    2.2680   14.9640   -0.2020 C   0  0  1  0  0  0  0  0  0  0  0  0
    2.4370   14.8100    1.3400 C   0  0  0  0  0  0  0  0  0  0  0  0
    3.4020   14.0930   -0.8620 C   0  0  0  0  0  0  0  0  0  0  0  0
    3.1290   13.5550   -2.2800 C   0  0  0  0  0  0  0  0  0  0  0  0
    1.7550   12.8830   -2.3550 C   0  0  2  0  0  0  0  0  0  0  0  0
    1.7700   11.6520   -1.3860 C   0  0  0  0  0  0  0  0  0  0  0  0
    3.8714   11.7200   -4.9563 H   0  0  0  0  0  0  0  0  0  0  0  0
    3.0580   10.5208   -6.0179 H   0  0  0  0  0  0  0  0  0  0  0  0
    2.5163   12.2335   -6.0179 H   0  0  0  0  0  0  0  0  0  0  0  0
    2.4700   10.5998   -3.4710 H   0  0  0  0  0  0  0  0  0  0  0  0
    0.3280   10.5613   -5.6373 H   0  0  0  0  0  0  0  0  0  0  0  0
    1.2833    9.1670   -4.9392 H   0  0  0  0  0  0  0  0  0  0  0  0
   -0.6278   10.8629   -3.3029 H   0  0  0  0  0  0  0  0  0  0  0  0
   -1.1031    9.3403   -4.1645 H   0  0  0  0  0  0  0  0  0  0  0  0
    1.2742    9.2419   -2.8587 H   0  0  0  0  0  0  0  0  0  0  0  0
   -1.7802    9.9266    0.2081 H   0  0  0  0  0  0  0  0  0  0  0  0
   -1.5455   10.8465   -1.3168 H   0  0  0  0  0  0  0  0  0  0  0  0
   -2.5294    9.3436   -1.3168 H   0  0  0  0  0  0  0  0  0  0  0  0
   -0.1268    8.8854    0.9302 H   0  0  0  0  0  0  0  0  0  0  0  0
    0.5505    7.5261   -0.0291 H   0  0  0  0  0  0  0  0  0  0  0  0
    1.3732    9.1229   -0.0291 H   0  0  0  0  0  0  0  0  0  0  0  0
    1.6427   13.0905   -4.5283 H   0  0  0  0  0  0  0  0  0  0  0  0
   -0.7408   12.6974   -4.4920 H   0  0  0  0  0  0  0  0  0  0  0  0
   -0.5649   11.2520   -3.4739 H   0  0  0  0  0  0  0  0  0  0  0  0
   -1.4634   13.8138   -2.5805 H   0  0  0  0  0  0  0  0  0  0  0  0
   -0.9400   12.5207   -1.5047 H   0  0  0  0  0  0  0  0  0  0  0  0
    0.5864   16.1066   -2.4554 H   0  0  0  0  0  0  0  0  0  0  0  0
    1.5151   15.1491   -3.6585 H   0  0  0  0  0  0  0  0  0  0  0  0
   -0.2803   15.0926   -3.6585 H   0  0  0  0  0  0  0  0  0  0  0  0
    0.6774   13.4981    0.0095 H   0  0  0  0  0  0  0  0  0  0  0  0
   -1.2040   15.1578   -0.5815 H   0  0  0  0  0  0  0  0  0  0  0  0
   -0.3301   15.2443    1.0370 H   0  0  0  0  0  0  0  0  0  0  0  0
   -0.8238   17.5460   -0.1442 H   0  0  0  0  0  0  0  0  0  0  0  0
    2.7301   16.4049   -1.6874 H   0  0  0  0  0  0  0  0  0  0  0  0
    3.3741   17.1942    1.2199 H   0  0  0  0  0  0  0  0  0  0  0  0
    4.5433   16.5749   -0.0294 H   0  0  0  0  0  0  0  0  0  0  0  0
    4.7087   19.0249    0.2749 H   0  0  0  0  0  0  0  0  0  0  0  0
    4.1858   18.5539   -1.3894 H   0  0  0  0  0  0  0  0  0  0  0  0
    2.8630   20.4204   -0.6659 H   0  0  0  0  0  0  0  0  0  0  0  0
    2.2050   20.5650    1.3610 H   0  0  0  0  0  0  0  0  0  0  0  0
    2.5754   19.4486   -2.6632 H   0  0  0  0  0  0  0  0  0  0  0  0
    1.6034   17.9550   -2.8891 H   0  0  0  0  0  0  0  0  0  0  0  0
    0.7969   19.5601   -2.8891 H   0  0  0  0  0  0  0  0  0  0  0  0
    0.0787   19.8353    0.5109 H   0  0  0  0  0  0  0  0  0  0  0  0
    0.3358   20.7598   -1.0076 H   0  0  0  0  0  0  0  0  0  0  0  0
   -0.7237   19.3092   -1.0076 H   0  0  0  0  0  0  0  0  0  0  0  0
    1.7185   15.4647    1.8548 H   0  0  0  0  0  0  0  0  0  0  0  0
    2.2510   13.7644    1.6266 H   0  0  0  0  0  0  0  0  0  0  0  0
    3.4608   15.0922    1.6266 H   0  0  0  0  0  0  0  0  0  0  0  0
    4.3108   14.7109   -0.9099 H   0  0  0  0  0  0  0  0  0  0  0  0
    3.4849   13.1992   -0.2263 H   0  0  0  0  0  0  0  0  0  0  0  0
    3.1605   14.3908   -2.9944 H   0  0  0  0  0  0  0  0  0  0  0  0
    3.8988   12.8090   -2.5268 H   0  0  0  0  0  0  0  0  0  0  0  0
    1.7657   12.0053   -0.3443 H   0  0  0  0  0  0  0  0  0  0  0  0
    0.8793   11.0323   -1.5667 H   0  0  0  0  0  0  0  0  0  0  0  0
    2.6755   11.0541   -1.5667 H   0  0  0  0  0  0  0  0  0  0  0  0
  1  2  1  0
  2  3  1  0
  3  4  1  0
  4  5  1  0
  5  6  1  0
  6  7  1  0
  7  8  1  0
  7  9  1  0
  2 10  1  0
 10 11  1  0
 11 12  1  0
 12 13  1  0
 13 14  1  6
 13 15  1  0
 15 16  1  0
 16 17  1  0
 17 18  2  0
 18 19  1  0
 19 20  1  0
 20 21  1  0
 21 22  1  0
 22 23  1  0
 22 24  1  0
 24 25  1  0
 24 26  1  0
 19 27  1  0
 27 28  1  1
 27 29  1  0
 29 30  1  0
 30 31  1  0
 31 32  1  1
  7  5  1  0
 31 10  1  0
 31 13  1  0
 27 15  1  0
 24 18  1  0
  1 33  1  0
  1 34  1  0
  1 35  1  0
  2 36  1  1
  3 37  1  0
  3 38  1  0
  4 39  1  0
  4 40  1  0
  5 41  1  1
  8 42  1  0
  8 43  1  0
  8 44  1  0
  9 45  1  0
  9 46  1  0
  9 47  1  0
 10 48  1  6
 11 49  1  0
 11 50  1  0
 12 51  1  0
 12 52  1  0
 14 53  1  0
 14 54  1  0
 14 55  1  0
 15 56  1  1
 16 57  1  0
 16 58  1  0
 17 59  1  0
 19 60  1  6
 20 61  1  0
 20 62  1  0
 21 63  1  0
 21 64  1  0
 22 65  1  6
 23 66  1  0
 25 67  1  0
 25 68  1  0
 25 69  1  0
 26 70  1  0
 26 71  1  0
 26 72  1  0
 28 73  1  0
 28 74  1  0
 28 75  1  0
 29 76  1  0
 29 77  1  0
 30 78  1  0
 30 79  1  0
 32 80  1  0
 32 81  1  0
 32 82  1  0
M  END
>  <meeko>  (13) 
{"is_sidechain": [false], "intermolecular_energy": 2.731, "internal_energy": -0.839}

$$$$
EPH_relaxed_0001_pdb2pqr_Repair_363_r2_0001_out
     RDKit          3D

 82 86  0  0  0  0  0  0  0  0999 V2000
   -0.7190   19.7020   -2.4270 C   0  0  0  0  0  0  0  0  0  0  0  0
   -0.0870   18.8330   -1.3370 C   0  0  2  0  0  0  0  0  0  0  0  0
    1.0760   19.5500   -0.6240 C   0  0  0  0  0  0  0  0  0  0  0  0
    1.2250   19.1660    0.8510 C   0  0  0  0  0  0  0  0  0  0  0  0
    2.3730   19.8800    1.4970 C   0  0  2  0  0  0  0  0  0  0  0  0
    3.4610   20.1860    0.6150 O   0  0  0  0  0  0  0  0  0  0  0  0
    3.7470   19.2630    1.6780 C   0  0  0  0  0  0  0  0  0  0  0  0
    4.0450   17.8720    1.2130 C   0  0  0  0  0  0  0  0  0  0  0  0
    4.6490   19.8210    2.7350 C   0  0  0  0  0  0  0  0  0  0  0  0
    0.4010   17.5190   -1.9380 C   0  0  1  0  0  0  0  0  0  0  0  0
    1.7190   17.6830   -2.7400 C   0  0  0  0  0  0  0  0  0  0  0  0
    2.5370   16.3830   -2.5270 C   0  0  0  0  0  0  0  0  0  0  0  0
    1.5340   15.3910   -1.8930 C   0  0  1  0  0  0  0  0  0  0  0  0
    0.7130   14.8270   -3.0940 C   0  0  0  0  0  0  0  0  0  0  0  0
    2.1500   14.2450   -1.0260 C   0  0  2  0  0  0  0  0  0  0  0  0
    3.0720   13.2750   -1.7870 C   0  0  0  0  0  0  0  0  0  0  0  0
    2.3950   12.0830   -2.3780 C   0  0  0  0  0  0  0  0  0  0  0  0
    1.1590   11.6510   -2.0660 C   0  0  0  0  0  0  0  0  0  0  0  0
    0.3450   12.3270   -0.9550 C   0  0  1  0  0  0  0  0  0  0  0  0
   -0.2750   11.2440   -0.0340 C   0  0  0  0  0  0  0  0  0  0  0  0
   -1.0900   10.2130   -0.8090 C   0  0  0  0  0  0  0  0  0  0  0  0
   -0.2310    9.5210   -1.8650 C   0  0  2  0  0  0  0  0  0  0  0  0
    0.7650    8.7330   -1.2040 O   0  0  0  0  0  0  0  0  0  0  0  0
    0.4540   10.5140   -2.8450 C   0  0  0  0  0  0  0  0  0  0  0  0
   -0.6130   11.1480   -3.7720 C   0  0  0  0  0  0  0  0  0  0  0  0
    1.4000    9.6980   -3.7670 C   0  0  0  0  0  0  0  0  0  0  0  0
    1.0970   13.4650   -0.1390 C   0  0  1  0  0  0  0  0  0  0  0  0
    1.8920   12.8340    1.0440 C   0  0  0  0  0  0  0  0  0  0  0  0
    0.0300   14.4260    0.5060 C   0  0  0  0  0  0  0  0  0  0  0  0
   -0.4510   15.6090   -0.3560 C   0  0  0  0  0  0  0  0  0  0  0  0
    0.7360   16.3690   -0.9550 C   0  0  2  0  0  0  0  0  0  0  0  0
    1.5690   16.9670    0.2300 C   0  0  0  0  0  0  0  0  0  0  0  0
   -1.3048   20.5075   -1.9600 H   0  0  0  0  0  0  0  0  0  0  0  0
    0.0732   20.1398   -3.0522 H   0  0  0  0  0  0  0  0  0  0  0  0
   -1.3796   19.0833   -3.0522 H   0  0  0  0  0  0  0  0  0  0  0  0
   -0.8623   18.6322   -0.5830 H   0  0  0  0  0  0  0  0  0  0  0  0
    2.0113   19.2970   -1.1448 H   0  0  0  0  0  0  0  0  0  0  0  0
    0.8563   20.6274   -0.6548 H   0  0  0  0  0  0  0  0  0  0  0  0
    0.2982   19.4274    1.3827 H   0  0  0  0  0  0  0  0  0  0  0  0
    1.4196   18.0847    0.9056 H   0  0  0  0  0  0  0  0  0  0  0  0
    1.6935   20.3866    2.1982 H   0  0  0  0  0  0  0  0  0  0  0  0
    4.1855   17.2161    2.0848 H   0  0  0  0  0  0  0  0  0  0  0  0
    3.2060   17.5006    0.6062 H   0  0  0  0  0  0  0  0  0  0  0  0
    4.9625   17.8769    0.6062 H   0  0  0  0  0  0  0  0  0  0  0  0
    4.2473   19.5725    3.7284 H   0  0  0  0  0  0  0  0  0  0  0  0
    5.6537   19.3864    2.6265 H   0  0  0  0  0  0  0  0  0  0  0  0
    4.7087   20.9140    2.6265 H   0  0  0  0  0  0  0  0  0  0  0  0
   -0.4792   17.2533   -2.5418 H   0  0  0  0  0  0  0  0  0  0  0  0
    1.4975   17.8204   -3.8087 H   0  0  0  0  0  0  0  0  0  0  0  0
    2.2820   18.5643   -2.3987 H   0  0  0  0  0  0  0  0  0  0  0  0
    2.9104   15.9974   -3.4871 H   0  0  0  0  0  0  0  0  0  0  0  0
    3.4209   16.5453   -1.8927 H   0  0  0  0  0  0  0  0  0  0  0  0
   -0.1379   14.2425   -2.7142 H   0  0  0  0  0  0  0  0  0  0  0  0
    0.3405   15.6608   -3.7073 H   0  0  0  0  0  0  0  0  0  0  0  0
    1.3576   14.1802   -3.7073 H   0  0  0  0  0  0  0  0  0  0  0  0
    2.8026   14.7976   -0.3341 H   0  0  0  0  0  0  0  0  0  0  0  0
    3.5522   13.8331   -2.6043 H   0  0  0  0  0  0  0  0  0  0  0  0
    3.7823   12.8841   -1.0436 H   0  0  0  0  0  0  0  0  0  0  0  0
    2.9535   11.5092   -3.1322 H   0  0  0  0  0  0  0  0  0  0  0  0
   -0.4546   12.8869   -1.4622 H   0  0  0  0  0  0  0  0  0  0  0  0
    0.5372   10.7251    0.4962 H   0  0  0  0  0  0  0  0  0  0  0  0
   -0.9563   11.7508    0.6652 H   0  0  0  0  0  0  0  0  0  0  0  0
   -1.4762    9.4584   -0.1080 H   0  0  0  0  0  0  0  0  0  0  0  0
   -1.9200   10.7288   -1.3141 H   0  0  0  0  0  0  0  0  0  0  0  0
   -0.8979    8.8915   -2.4724 H   0  0  0  0  0  0  0  0  0  0  0  0
    0.9840    9.1770   -0.3680 H   0  0  0  0  0  0  0  0  0  0  0  0
   -1.3991   11.6151   -3.1605 H   0  0  0  0  0  0  0  0  0  0  0  0
   -0.1400   11.9117   -4.4069 H   0  0  0  0  0  0  0  0  0  0  0  0
   -1.0576   10.3674   -4.4069 H   0  0  0  0  0  0  0  0  0  0  0  0
    2.0897    9.1031   -3.1503 H   0  0  0  0  0  0  0  0  0  0  0  0
    0.8036    9.0263   -4.4020 H   0  0  0  0  0  0  0  0  0  0  0  0
    1.9769   10.3865   -4.4020 H   0  0  0  0  0  0  0  0  0  0  0  0
    1.4625   13.1749    1.9976 H   0  0  0  0  0  0  0  0  0  0  0  0
    1.8289   11.7374    0.9846 H   0  0  0  0  0  0  0  0  0  0  0  0
    2.9456   13.1444    0.9846 H   0  0  0  0  0  0  0  0  0  0  0  0
   -0.8519   13.8203    0.7615 H   0  0  0  0  0  0  0  0  0  0  0  0
    0.5391   14.8851    1.3662 H   0  0  0  0  0  0  0  0  0  0  0  0
   -1.0821   15.2266   -1.1718 H   0  0  0  0  0  0  0  0  0  0  0  0
   -1.0229   16.2985    0.2824 H   0  0  0  0  0  0  0  0  0  0  0  0
    1.1268   16.6496    1.1859 H   0  0  0  0  0  0  0  0  0  0  0  0
    2.6062   16.6060    0.1680 H   0  0  0  0  0  0  0  0  0  0  0  0
    1.5587   18.0652    0.1680 H   0  0  0  0  0  0  0  0  0  0  0  0
  1  2  1  0
  2  3  1  0
  3  4  1  0
  4  5  1  0
  5  6  1  0
  6  7  1  0
  7  8  1  0
  7  9  1  0
  2 10  1  0
 10 11  1  0
 11 12  1  0
 12 13  1  0
 13 14  1  6
 13 15  1  0
 15 16  1  0
 16 17  1  0
 17 18  2  0
 18 19  1  0
 19 20  1  0
 20 21  1  0
 21 22  1  0
 22 23  1  0
 22 24  1  0
 24 25  1  0
 24 26  1  0
 19 27  1  0
 27 28  1  1
 27 29  1  0
 29 30  1  0
 30 31  1  0
 31 32  1  1
  7  5  1  0
 31 10  1  0
 31 13  1  0
 27 15  1  0
 24 18  1  0
  1 33  1  0
  1 34  1  0
  1 35  1  0
  2 36  1  1
  3 37  1  0
  3 38  1  0
  4 39  1  0
  4 40  1  0
  5 41  1  1
  8 42  1  0
  8 43  1  0
  8 44  1  0
  9 45  1  0
  9 46  1  0
  9 47  1  0
 10 48  1  6
 11 49  1  0
 11 50  1  0
 12 51  1  0
 12 52  1  0
 14 53  1  0
 14 54  1  0
 14 55  1  0
 15 56  1  1
 16 57  1  0
 16 58  1  0
 17 59  1  0
 19 60  1  6
 20 61  1  0
 20 62  1  0
 21 63  1  0
 21 64  1  0
 22 65  1  6
 23 66  1  0
 25 67  1  0
 25 68  1  0
 25 69  1  0
 26 70  1  0
 26 71  1  0
 26 72  1  0
 28 73  1  0
 28 74  1  0
 28 75  1  0
 29 76  1  0
 29 77  1  0
 30 78  1  0
 30 79  1  0
 32 80  1  0
 32 81  1  0
 32 82  1  0
M  END
>  <meeko>  (14) 
{"is_sidechain": [false], "intermolecular_energy": 2.731, "internal_energy": -0.839}

$$$$
EPH_relaxed_0001_pdb2pqr_Repair_363_r2_0001_out
     RDKit          3D

 82 86  0  0  0  0  0  0  0  0999 V2000
   -0.1370    9.3240   -4.2470 C   0  0  0  0  0  0  0  0  0  0  0  0
    0.0820    9.5340   -2.7460 C   0  0  2  0  0  0  0  0  0  0  0  0
   -0.6740    8.4930   -1.8970 C   0  0  0  0  0  0  0  0  0  0  0  0
   -2.1950    8.5520   -2.0620 C   0  0  0  0  0  0  0  0  0  0  0  0
   -2.7360    7.2950   -2.6730 C   0  0  2  0  0  0  0  0  0  0  0  0
   -3.7560    7.4990   -3.6590 O   0  0  0  0  0  0  0  0  0  0  0  0
   -4.1580    6.8090   -2.4650 C   0  0  0  0  0  0  0  0  0  0  0  0
   -5.1280    7.5720   -1.6180 C   0  0  0  0  0  0  0  0  0  0  0  0
   -4.4570    5.3570   -2.6790 C   0  0  0  0  0  0  0  0  0  0  0  0
   -0.3490   10.9410   -2.3510 C   0  0  1  0  0  0  0  0  0  0  0  0
   -1.5610   10.9440   -1.3810 C   0  0  0  0  0  0  0  0  0  0  0  0
   -1.3590   12.1410   -0.4160 C   0  0  0  0  0  0  0  0  0  0  0  0
   -0.2280   12.9760   -1.0610 C   0  0  1  0  0  0  0  0  0  0  0  0
   -0.9350   13.8230   -2.1650 C   0  0  0  0  0  0  0  0  0  0  0  0
    0.6080   13.8730   -0.0910 C   0  0  2  0  0  0  0  0  0  0  0  0
   -0.1890   14.9750    0.6280 C   0  0  0  0  0  0  0  0  0  0  0  0
   -0.2490   16.2860   -0.0830 C   0  0  0  0  0  0  0  0  0  0  0  0
    0.5440   16.6580   -1.1050 C   0  0  0  0  0  0  0  0  0  0  0  0
    1.6890   15.7560   -1.5830 C   0  0  1  0  0  0  0  0  0  0  0  0
    2.9740   16.6050   -1.7660 C   0  0  0  0  0  0  0  0  0  0  0  0
    2.7570   17.8060   -2.6820 C   0  0  0  0  0  0  0  0  0  0  0  0
    1.6510   18.7090   -2.1430 C   0  0  2  0  0  0  0  0  0  0  0  0
    2.0940   19.2990   -0.9160 O   0  0  0  0  0  0  0  0  0  0  0  0
    0.3090   17.9610   -1.9080 C   0  0  0  0  0  0  0  0  0  0  0  0
   -0.3220   17.5850   -3.2720 C   0  0  0  0  0  0  0  0  0  0  0  0
   -0.6780   18.9510   -1.2320 C   0  0  0  0  0  0  0  0  0  0  0  0
    1.9420   14.4430   -0.7240 C   0  0  1  0  0  0  0  0  0  0  0  0
    2.8980   14.7620    0.4660 C   0  0  0  0  0  0  0  0  0  0  0  0
    2.6830   13.3790   -1.6170 C   0  0  0  0  0  0  0  0  0  0  0  0
    1.7980   12.4430   -2.4610 C   0  0  0  0  0  0  0  0  0  0  0  0
    0.6880   11.8210   -1.6080 C   0  0  2  0  0  0  0  0  0  0  0  0
    1.3690   10.9440   -0.5030 C   0  0  0  0  0  0  0  0  0  0  0  0
   -0.9232    8.5702   -4.4009 H   0  0  0  0  0  0  0  0  0  0  0  0
   -0.4442   10.2738   -4.7091 H   0  0  0  0  0  0  0  0  0  0  0  0
    0.7990    8.9772   -4.7091 H   0  0  0  0  0  0  0  0  0  0  0  0
    1.1559    9.4039   -2.5466 H   0  0  0  0  0  0  0  0  0  0  0  0
   -0.3314    7.4900   -2.1912 H   0  0  0  0  0  0  0  0  0  0  0  0
   -0.4560    8.7184   -0.8427 H   0  0  0  0  0  0  0  0  0  0  0  0
   -2.6555    8.6945   -1.0732 H   0  0  0  0  0  0  0  0  0  0  0  0
   -2.4346    9.3899   -2.7332 H   0  0  0  0  0  0  0  0  0  0  0  0
   -1.7620    6.7954   -2.5648 H   0  0  0  0  0  0  0  0  0  0  0  0
   -4.9044    7.3961   -0.5554 H   0  0  0  0  0  0  0  0  0  0  0  0
   -5.0410    8.6462   -1.8381 H   0  0  0  0  0  0  0  0  0  0  0  0
   -6.1515    7.2344   -1.8381 H   0  0  0  0  0  0  0  0  0  0  0  0
   -4.5601    4.8564   -1.7049 H   0  0  0  0  0  0  0  0  0  0  0  0
   -5.3949    5.2553   -3.2446 H   0  0  0  0  0  0  0  0  0  0  0  0
   -3.6356    4.8930   -3.2446 H   0  0  0  0  0  0  0  0  0  0  0  0
   -0.5511   11.3585   -3.3484 H   0  0  0  0  0  0  0  0  0  0  0  0
   -2.4974   11.0662   -1.9452 H   0  0  0  0  0  0  0  0  0  0  0  0
   -1.6253    9.9962   -0.8264 H   0  0  0  0  0  0  0  0  0  0  0  0
   -2.2817   12.7343   -0.3348 H   0  0  0  0  0  0  0  0  0  0  0  0
   -1.1076   11.8162    0.6044 H   0  0  0  0  0  0  0  0  0  0  0  0
   -1.5712   14.5851   -1.6913 H   0  0  0  0  0  0  0  0  0  0  0  0
   -0.1765   14.3159   -2.7909 H   0  0  0  0  0  0  0  0  0  0  0  0
   -1.5556   13.1649   -2.7909 H   0  0  0  0  0  0  0  0  0  0  0  0
    0.9055   13.1606    0.6926 H   0  0  0  0  0  0  0  0  0  0  0  0
   -1.2194   14.6150    0.7646 H   0  0  0  0  0  0  0  0  0  0  0  0
    0.3403   15.1656    1.5733 H   0  0  0  0  0  0  0  0  0  0  0  0
   -1.0050   17.0091    0.2569 H   0  0  0  0  0  0  0  0  0  0  0  0
    1.3701   15.3473   -2.5532 H   0  0  0  0  0  0  0  0  0  0  0  0
    3.3001   16.9680   -0.7801 H   0  0  0  0  0  0  0  0  0  0  0  0
    3.7348   15.9623   -2.2331 H   0  0  0  0  0  0  0  0  0  0  0  0
    3.6918   18.3819   -2.7484 H   0  0  0  0  0  0  0  0  0  0  0  0
    2.4594   17.4407   -3.6760 H   0  0  0  0  0  0  0  0  0  0  0  0
    1.4525   19.4774   -2.9047 H   0  0  0  0  0  0  0  0  0  0  0  0
    1.6220   20.1420   -0.8080 H   0  0  0  0  0  0  0  0  0  0  0  0
   -1.2558   17.0286   -3.1031 H   0  0  0  0  0  0  0  0  0  0  0  0
   -0.5389   18.5013   -3.8407 H   0  0  0  0  0  0  0  0  0  0  0  0
    0.3806   16.9582   -3.8407 H   0  0  0  0  0  0  0  0  0  0  0  0
   -0.5923   18.8650   -0.1387 H   0  0  0  0  0  0  0  0  0  0  0  0
   -0.4344   19.9788   -1.5392 H   0  0  0  0  0  0  0  0  0  0  0  0
   -1.7065   18.7105   -1.5392 H   0  0  0  0  0  0  0  0  0  0  0  0
    2.3721   14.5865    1.4160 H   0  0  0  0  0  0  0  0  0  0  0  0
    3.7824   14.1103    0.4107 H   0  0  0  0  0  0  0  0  0  0  0  0
    3.2139   15.8142    0.4107 H   0  0  0  0  0  0  0  0  0  0  0  0
    3.3424   13.9254   -2.3074 H   0  0  0  0  0  0  0  0  0  0  0  0
    3.2035   12.7197   -0.9067 H   0  0  0  0  0  0  0  0  0  0  0  0
    1.3424   13.0197   -3.2794 H   0  0  0  0  0  0  0  0  0  0  0  0
    2.4262   11.6344   -2.8629 H   0  0  0  0  0  0  0  0  0  0  0  0
    1.0797   11.3165    0.4907 H   0  0  0  0  0  0  0  0  0  0  0  0
    1.0434    9.8990   -0.6119 H   0  0  0  0  0  0  0  0  0  0  0  0
    2.4621   11.0007   -0.6119 H   0  0  0  0  0  0  0  0  0  0  0  0
  1  2  1  0
  2  3  1  0
  3  4  1  0
  4  5  1  0
  5  6  1  0
  6  7  1  0
  7  8  1  0
  7  9  1  0
  2 10  1  0
 10 11  1  0
 11 12  1  0
 12 13  1  0
 13 14  1  6
 13 15  1  0
 15 16  1  0
 16 17  1  0
 17 18  2  0
 18 19  1  0
 19 20  1  0
 20 21  1  0
 21 22  1  0
 22 23  1  0
 22 24  1  0
 24 25  1  0
 24 26  1  0
 19 27  1  0
 27 28  1  1
 27 29  1  0
 29 30  1  0
 30 31  1  0
 31 32  1  1
  7  5  1  0
 31 10  1  0
 31 13  1  0
 27 15  1  0
 24 18  1  0
  1 33  1  0
  1 34  1  0
  1 35  1  0
  2 36  1  6
  3 37  1  0
  3 38  1  0
  4 39  1  0
  4 40  1  0
  5 41  1  6
  8 42  1  0
  8 43  1  0
  8 44  1  0
  9 45  1  0
  9 46  1  0
  9 47  1  0
 10 48  1  6
 11 49  1  0
 11 50  1  0
 12 51  1  0
 12 52  1  0
 14 53  1  0
 14 54  1  0
 14 55  1  0
 15 56  1  1
 16 57  1  0
 16 58  1  0
 17 59  1  0
 19 60  1  6
 20 61  1  0
 20 62  1  0
 21 63  1  0
 21 64  1  0
 22 65  1  6
 23 66  1  0
 25 67  1  0
 25 68  1  0
 25 69  1  0
 26 70  1  0
 26 71  1  0
 26 72  1  0
 28 73  1  0
 28 74  1  0
 28 75  1  0
 29 76  1  0
 29 77  1  0
 30 78  1  0
 30 79  1  0
 32 80  1  0
 32 81  1  0
 32 82  1  0
M  END
>  <meeko>  (15) 
{"is_sidechain": [false], "intermolecular_energy": 2.731, "internal_energy": -0.839}

$$$$
EPH_relaxed_0001_pdb2pqr_Repair_363_r2_0001_out
     RDKit          3D

 82 86  0  0  0  0  0  0  0  0999 V2000
   -1.7120   14.8330    0.5470 C   0  0  0  0  0  0  0  0  0  0  0  0
   -0.3760   15.5320    0.2770 C   0  0  2  0  0  0  0  0  0  0  0  0
   -0.4640   16.5160   -0.9060 C   0  0  0  0  0  0  0  0  0  0  0  0
   -0.0460   17.9460   -0.5500 C   0  0  0  0  0  0  0  0  0  0  0  0
    1.3730   18.0060   -0.0730 C   0  0  2  0  0  0  0  0  0  0  0  0
    2.0480   19.2380   -0.3560 O   0  0  0  0  0  0  0  0  0  0  0  0
    2.5680   18.0680   -1.0070 C   0  0  0  0  0  0  0  0  0  0  0  0
    2.3960   18.0720   -2.4940 C   0  0  0  0  0  0  0  0  0  0  0  0
    3.9030   17.6330   -0.4900 C   0  0  0  0  0  0  0  0  0  0  0  0
    0.7090   14.4950    0.0130 C   0  0  1  0  0  0  0  0  0  0  0  0
    0.8340   13.4560    1.1580 C   0  0  0  0  0  0  0  0  0  0  0  0
    1.2030   12.1030    0.4960 C   0  0  0  0  0  0  0  0  0  0  0  0
    1.6010   12.4730   -0.9520 C   0  0  1  0  0  0  0  0  0  0  0  0
    3.0770   12.9680   -0.8480 C   0  0  0  0  0  0  0  0  0  0  0  0
    1.4450   11.3430   -2.0210 C   0  0  2  0  0  0  0  0  0  0  0  0
    2.3210   10.1000   -1.7900 C   0  0  0  0  0  0  0  0  0  0  0  0
    3.6660   10.1390   -2.4370 C   0  0  0  0  0  0  0  0  0  0  0  0
    4.0450   10.9970   -3.4020 C   0  0  0  0  0  0  0  0  0  0  0  0
    3.0460   11.9890   -4.0100 C   0  0  1  0  0  0  0  0  0  0  0  0
    3.1710   11.9680   -5.5570 C   0  0  0  0  0  0  0  0  0  0  0  0
    4.6000   12.2130   -6.0320 C   0  0  0  0  0  0  0  0  0  0  0  0
    5.5530   11.1720   -5.4530 C   0  0  2  0  0  0  0  0  0  0  0  0
    5.2310    9.8920   -6.0070 O   0  0  0  0  0  0  0  0  0  0  0  0
    5.5080   11.0950   -3.9010 C   0  0  0  0  0  0  0  0  0  0  0  0
    6.1420   12.3730   -3.2980 C   0  0  0  0  0  0  0  0  0  0  0  0
    6.4090    9.9120   -3.4550 C   0  0  0  0  0  0  0  0  0  0  0  0
    1.5420   11.8490   -3.5170 C   0  0  1  0  0  0  0  0  0  0  0  0
    0.7910   10.7980   -4.3920 C   0  0  0  0  0  0  0  0  0  0  0  0
    0.7990   13.2200   -3.7350 C   0  0  0  0  0  0  0  0  0  0  0  0
    0.8910   14.2490   -2.5920 C   0  0  0  0  0  0  0  0  0  0  0  0
    0.5500   13.6040   -1.2450 C   0  0  2  0  0  0  0  0  0  0  0  0
   -0.9380   13.1160   -1.3120 C   0  0  0  0  0  0  0  0  0  0  0  0
   -1.8698   14.7504    1.6325 H   0  0  0  0  0  0  0  0  0  0  0  0
   -2.5292   15.4191    0.1012 H   0  0  0  0  0  0  0  0  0  0  0  0
   -1.6964   13.8275    0.1012 H   0  0  0  0  0  0  0  0  0  0  0  0
   -0.1212   16.1164    1.1734 H   0  0  0  0  0  0  0  0  0  0  0  0
    0.1928   16.1522   -1.7099 H   0  0  0  0  0  0  0  0  0  0  0  0
   -1.5197   16.5566   -1.2125 H   0  0  0  0  0  0  0  0  0  0  0  0
   -0.1491   18.5803   -1.4428 H   0  0  0  0  0  0  0  0  0  0  0  0
   -0.6964   18.3010    0.2630 H   0  0  0  0  0  0  0  0  0  0  0  0
    1.1378   17.3554    0.7822 H   0  0  0  0  0  0  0  0  0  0  0  0
    1.3239   18.0969   -2.7390 H   0  0  0  0  0  0  0  0  0  0  0  0
    2.8897   18.9589   -2.9178 H   0  0  0  0  0  0  0  0  0  0  0  0
    2.8480   17.1631   -2.9178 H   0  0  0  0  0  0  0  0  0  0  0  0
    3.8894   17.6374    0.6099 H   0  0  0  0  0  0  0  0  0  0  0  0
    4.1223   16.6169   -0.8499 H   0  0  0  0  0  0  0  0  0  0  0  0
    4.6788   18.3248   -0.8499 H   0  0  0  0  0  0  0  0  0  0  0  0
    1.5761   15.1616   -0.1047 H   0  0  0  0  0  0  0  0  0  0  0  0
    1.6225   13.7609    1.8618 H   0  0  0  0  0  0  0  0  0  0  0  0
   -0.1064   13.3758    1.7230 H   0  0  0  0  0  0  0  0  0  0  0  0
    2.0458   11.6305    1.0217 H   0  0  0  0  0  0  0  0  0  0  0  0
    0.3728   11.3821    0.5292 H   0  0  0  0  0  0  0  0  0  0  0  0
    3.3583   13.0623    0.2112 H   0  0  0  0  0  0  0  0  0  0  0  0
    3.7422   12.2438   -1.3410 H   0  0  0  0  0  0  0  0  0  0  0  0
    3.1711   13.9469   -1.3410 H   0  0  0  0  0  0  0  0  0  0  0  0
    0.4085   11.0104   -1.8628 H   0  0  0  0  0  0  0  0  0  0  0  0
    2.4684    9.9846   -0.7060 H   0  0  0  0  0  0  0  0  0  0  0  0
    1.7845    9.2590   -2.2534 H   0  0  0  0  0  0  0  0  0  0  0  0
    4.4102    9.4042   -2.0960 H   0  0  0  0  0  0  0  0  0  0  0  0
    3.3301   12.9799   -3.6262 H   0  0  0  0  0  0  0  0  0  0  0  0
    2.8411   10.9849   -5.9241 H   0  0  0  0  0  0  0  0  0  0  0  0
    2.5436   12.7798   -5.9537 H   0  0  0  0  0  0  0  0  0  0  0  0
    4.6290   12.1563   -7.1302 H   0  0  0  0  0  0  0  0  0  0  0  0
    4.9179   13.2089   -5.6897 H   0  0  0  0  0  0  0  0  0  0  0  0
    6.5752   11.4760   -5.7227 H   0  0  0  0  0  0  0  0  0  0  0  0
    6.0660    9.4200   -6.1630 H   0  0  0  0  0  0  0  0  0  0  0  0
    6.1127   12.3138   -2.2000 H   0  0  0  0  0  0  0  0  0  0  0  0
    7.1864   12.4573   -3.6329 H   0  0  0  0  0  0  0  0  0  0  0  0
    5.5772   13.2555   -3.6329 H   0  0  0  0  0  0  0  0  0  0  0  0
    6.4413    9.8696   -2.3563 H   0  0  0  0  0  0  0  0  0  0  0  0
    5.9975    8.9699   -3.8463 H   0  0  0  0  0  0  0  0  0  0  0  0
    7.4266   10.0583   -3.8463 H   0  0  0  0  0  0  0  0  0  0  0  0
    0.2764   10.0778   -3.7390 H   0  0  0  0  0  0  0  0  0  0  0  0
    0.0528   11.3098   -5.0270 H   0  0  0  0  0  0  0  0  0  0  0  0
    1.5143   10.2654   -5.0270 H   0  0  0  0  0  0  0  0  0  0  0  0
    1.2199   13.6868   -4.6378 H   0  0  0  0  0  0  0  0  0  0  0  0
   -0.2679   12.9615   -3.8046 H   0  0  0  0  0  0  0  0  0  0  0  0
    1.9145   14.6499   -2.5502 H   0  0  0  0  0  0  0  0  0  0  0  0
    0.1692   15.0558   -2.7874 H   0  0  0  0  0  0  0  0  0  0  0  0
   -1.3282   12.9880   -0.2915 H   0  0  0  0  0  0  0  0  0  0  0  0
   -1.5449   13.8622   -1.8457 H   0  0  0  0  0  0  0  0  0  0  0  0
   -0.9851   12.1553   -1.8457 H   0  0  0  0  0  0  0  0  0  0  0  0
  1  2  1  0
  2  3  1  0
  3  4  1  0
  4  5  1  0
  5  6  1  0
  6  7  1  0
  7  8  1  0
  7  9  1  0
  2 10  1  0
 10 11  1  0
 11 12  1  0
 12 13  1  0
 13 14  1  1
 13 15  1  0
 15 16  1  0
 16 17  1  0
 17 18  2  0
 18 19  1  0
 19 20  1  0
 20 21  1  0
 21 22  1  0
 22 23  1  0
 22 24  1  0
 24 25  1  0
 24 26  1  0
 19 27  1  0
 27 28  1  6
 27 29  1  0
 29 30  1  0
 30 31  1  0
 31 32  1  6
  7  5  1  0
 31 10  1  0
 31 13  1  0
 27 15  1  0
 24 18  1  0
  1 33  1  0
  1 34  1  0
  1 35  1  0
  2 36  1  1
  3 37  1  0
  3 38  1  0
  4 39  1  0
  4 40  1  0
  5 41  1  1
  8 42  1  0
  8 43  1  0
  8 44  1  0
  9 45  1  0
  9 46  1  0
  9 47  1  0
 10 48  1  6
 11 49  1  0
 11 50  1  0
 12 51  1  0
 12 52  1  0
 14 53  1  0
 14 54  1  0
 14 55  1  0
 15 56  1  6
 16 57  1  0
 16 58  1  0
 17 59  1  0
 19 60  1  1
 20 61  1  0
 20 62  1  0
 21 63  1  0
 21 64  1  0
 22 65  1  1
 23 66  1  0
 25 67  1  0
 25 68  1  0
 25 69  1  0
 26 70  1  0
 26 71  1  0
 26 72  1  0
 28 73  1  0
 28 74  1  0
 28 75  1  0
 29 76  1  0
 29 77  1  0
 30 78  1  0
 30 79  1  0
 32 80  1  0
 32 81  1  0
 32 82  1  0
M  END
>  <meeko>  (16) 
{"is_sidechain": [false], "intermolecular_energy": 2.731, "internal_energy": -0.839}

$$$$
EPH_relaxed_0001_pdb2pqr_Repair_363_r2_0001_out
     RDKit          3D

 82 86  0  0  0  0  0  0  0  0999 V2000
    0.9610   14.9100   -2.6740 C   0  0  0  0  0  0  0  0  0  0  0  0
    1.2120   14.2390   -4.0280 C   0  0  2  0  0  0  0  0  0  0  0  0
    0.4880   14.9650   -5.1790 C   0  0  0  0  0  0  0  0  0  0  0  0
    1.0160   14.5970   -6.5680 C   0  0  0  0  0  0  0  0  0  0  0  0
    0.8160   15.7120   -7.5500 C   0  0  2  0  0  0  0  0  0  0  0  0
    0.4150   15.2900   -8.8600 O   0  0  0  0  0  0  0  0  0  0  0  0
    1.7000   15.9250   -8.7650 C   0  0  0  0  0  0  0  0  0  0  0  0
    2.8510   15.0160   -9.0610 C   0  0  0  0  0  0  0  0  0  0  0  0
    1.7470   17.2870   -9.3850 C   0  0  0  0  0  0  0  0  0  0  0  0
    0.7730   12.7810   -3.9740 C   0  0  1  0  0  0  0  0  0  0  0  0
    1.9160   11.7990   -4.3480 C   0  0  0  0  0  0  0  0  0  0  0  0
    1.7220   10.5330   -3.4740 C   0  0  0  0  0  0  0  0  0  0  0  0
    0.3040   10.6860   -2.8750 C   0  0  1  0  0  0  0  0  0  0  0  0
   -0.6610   10.2070   -4.0050 C   0  0  0  0  0  0  0  0  0  0  0  0
    0.0370    9.9340   -1.5310 C   0  0  2  0  0  0  0  0  0  0  0  0
    0.1550    8.4020   -1.6050 C   0  0  0  0  0  0  0  0  0  0  0  0
   -1.1090    7.6800   -1.9340 C   0  0  0  0  0  0  0  0  0  0  0  0
   -2.3470    8.2070   -1.8820 C   0  0  0  0  0  0  0  0  0  0  0  0
   -2.5750    9.6330   -1.3640 C   0  0  1  0  0  0  0  0  0  0  0  0
   -3.7600    9.6380   -0.3640 C   0  0  0  0  0  0  0  0  0  0  0  0
   -5.0250    9.0220   -0.9530 C   0  0  0  0  0  0  0  0  0  0  0  0
   -4.7740    7.5850   -1.4030 C   0  0  2  0  0  0  0  0  0  0  0  0
   -4.5160    6.7790   -0.2490 O   0  0  0  0  0  0  0  0  0  0  0  0
   -3.5940    7.4540   -2.4060 C   0  0  0  0  0  0  0  0  0  0  0  0
   -3.9980    8.0720   -3.7680 C   0  0  0  0  0  0  0  0  0  0  0  0
   -3.3560    5.9420   -2.6690 C   0  0  0  0  0  0  0  0  0  0  0  0
   -1.2910   10.3770   -0.7930 C   0  0  1  0  0  0  0  0  0  0  0  0
   -1.1010   10.0280    0.7140 C   0  0  0  0  0  0  0  0  0  0  0  0
   -1.5250   11.9320   -0.8630 C   0  0  0  0  0  0  0  0  0  0  0  0
   -1.1300   12.6360   -2.1760 C   0  0  0  0  0  0  0  0  0  0  0  0
    0.2830   12.2350   -2.6090 C   0  0  2  0  0  0  0  0  0  0  0  0
    1.2790   12.7240   -1.5030 C   0  0  0  0  0  0  0  0  0  0  0  0
    1.2221   14.2120   -1.8649 H   0  0  0  0  0  0  0  0  0  0  0  0
    1.5816   15.8146   -2.5924 H   0  0  0  0  0  0  0  0  0  0  0  0
   -0.1009   15.1852   -2.5924 H   0  0  0  0  0  0  0  0  0  0  0  0
    2.2918   14.2951   -4.2303 H   0  0  0  0  0  0  0  0  0  0  0  0
   -0.5805   14.7075   -5.1343 H   0  0  0  0  0  0  0  0  0  0  0  0
    0.6665   16.0418   -5.0423 H   0  0  0  0  0  0  0  0  0  0  0  0
    2.0910   14.3758   -6.4938 H   0  0  0  0  0  0  0  0  0  0  0  0
    0.4571   13.7199   -6.9262 H   0  0  0  0  0  0  0  0  0  0  0  0
    0.4864   16.3905   -6.7494 H   0  0  0  0  0  0  0  0  0  0  0  0
    3.2941   14.6661   -8.1169 H   0  0  0  0  0  0  0  0  0  0  0  0
    2.4959   14.1520   -9.6418 H   0  0  0  0  0  0  0  0  0  0  0  0
    3.6092   15.5617   -9.6418 H   0  0  0  0  0  0  0  0  0  0  0  0
    1.7733   18.0498   -8.5928 H   0  0  0  0  0  0  0  0  0  0  0  0
    2.6487   17.3750  -10.0088 H   0  0  0  0  0  0  0  0  0  0  0  0
    0.8535   17.4369  -10.0088 H   0  0  0  0  0  0  0  0  0  0  0  0
   -0.0632   12.8139   -4.6879 H   0  0  0  0  0  0  0  0  0  0  0  0
    1.8556   11.5360   -5.4144 H   0  0  0  0  0  0  0  0  0  0  0  0
    2.9016   12.2542   -4.1706 H   0  0  0  0  0  0  0  0  0  0  0  0
    1.7879    9.6230   -4.0885 H   0  0  0  0  0  0  0  0  0  0  0  0
    2.4952   10.4399   -2.6972 H   0  0  0  0  0  0  0  0  0  0  0  0
   -1.5600    9.7608   -3.5547 H   0  0  0  0  0  0  0  0  0  0  0  0
   -0.9508   11.0659   -4.6282 H   0  0  0  0  0  0  0  0  0  0  0  0
   -0.1521    9.4569   -4.6282 H   0  0  0  0  0  0  0  0  0  0  0  0
    0.8770   10.2675   -0.9040 H   0  0  0  0  0  0  0  0  0  0  0  0
    0.8982    8.1554   -2.3776 H   0  0  0  0  0  0  0  0  0  0  0  0
    0.4411    8.0699   -0.5961 H   0  0  0  0  0  0  0  0  0  0  0  0
   -1.0220    6.6286   -2.2453 H   0  0  0  0  0  0  0  0  0  0  0  0
   -2.8289   10.2395   -2.2458 H   0  0  0  0  0  0  0  0  0  0  0  0
   -3.4707    9.0637    0.5284 H   0  0  0  0  0  0  0  0  0  0  0  0
   -3.9833   10.6862   -0.1161 H   0  0  0  0  0  0  0  0  0  0  0  0
   -5.8169    9.0270   -0.1895 H   0  0  0  0  0  0  0  0  0  0  0  0
   -5.3299    9.6154   -1.8276 H   0  0  0  0  0  0  0  0  0  0  0  0
   -5.6753    7.2434   -1.9330 H   0  0  0  0  0  0  0  0  0  0  0  0
   -5.0020    5.9450   -0.3570 H   0  0  0  0  0  0  0  0  0  0  0  0
   -4.5925    8.9814   -3.5961 H   0  0  0  0  0  0  0  0  0  0  0  0
   -3.0924    8.3281   -4.3375 H   0  0  0  0  0  0  0  0  0  0  0  0
   -4.5959    7.3452   -4.3375 H   0  0  0  0  0  0  0  0  0  0  0  0
   -3.2725    5.4115   -1.7090 H   0  0  0  0  0  0  0  0  0  0  0  0
   -4.2007    5.5321   -3.2421 H   0  0  0  0  0  0  0  0  0  0  0  0
   -2.4262    5.8114   -3.2421 H   0  0  0  0  0  0  0  0  0  0  0  0
   -1.5358   10.8266    1.3330 H   0  0  0  0  0  0  0  0  0  0  0  0
   -1.6054    9.0761    0.9363 H   0  0  0  0  0  0  0  0  0  0  0  0
   -0.0277    9.9350    0.9363 H   0  0  0  0  0  0  0  0  0  0  0  0
   -2.5969   12.1150   -0.6967 H   0  0  0  0  0  0  0  0  0  0  0  0
   -0.8603   12.3578   -0.0970 H   0  0  0  0  0  0  0  0  0  0  0  0
   -1.8422   12.3523   -2.9648 H   0  0  0  0  0  0  0  0  0  0  0  0
   -1.1511   13.7234   -2.0112 H   0  0  0  0  0  0  0  0  0  0  0  0
    0.8549   12.5158   -0.5096 H   0  0  0  0  0  0  0  0  0  0  0  0
    2.2365   12.1936   -1.6114 H   0  0  0  0  0  0  0  0  0  0  0  0
    1.4449   13.8060   -1.6114 H   0  0  0  0  0  0  0  0  0  0  0  0
  1  2  1  0
  2  3  1  0
  3  4  1  0
  4  5  1  0
  5  6  1  0
  6  7  1  0
  7  8  1  0
  7  9  1  0
  2 10  1  0
 10 11  1  0
 11 12  1  0
 12 13  1  0
 13 14  1  6
 13 15  1  0
 15 16  1  0
 16 17  1  0
 17 18  2  0
 18 19  1  0
 19 20  1  0
 20 21  1  0
 21 22  1  0
 22 23  1  0
 22 24  1  0
 24 25  1  0
 24 26  1  0
 19 27  1  0
 27 28  1  1
 27 29  1  0
 29 30  1  0
 30 31  1  0
 31 32  1  1
  7  5  1  0
 31 10  1  0
 31 13  1  0
 27 15  1  0
 24 18  1  0
  1 33  1  0
  1 34  1  0
  1 35  1  0
  2 36  1  6
  3 37  1  0
  3 38  1  0
  4 39  1  0
  4 40  1  0
  5 41  1  1
  8 42  1  0
  8 43  1  0
  8 44  1  0
  9 45  1  0
  9 46  1  0
  9 47  1  0
 10 48  1  6
 11 49  1  0
 11 50  1  0
 12 51  1  0
 12 52  1  0
 14 53  1  0
 14 54  1  0
 14 55  1  0
 15 56  1  1
 16 57  1  0
 16 58  1  0
 17 59  1  0
 19 60  1  6
 20 61  1  0
 20 62  1  0
 21 63  1  0
 21 64  1  0
 22 65  1  6
 23 66  1  0
 25 67  1  0
 25 68  1  0
 25 69  1  0
 26 70  1  0
 26 71  1  0
 26 72  1  0
 28 73  1  0
 28 74  1  0
 28 75  1  0
 29 76  1  0
 29 77  1  0
 30 78  1  0
 30 79  1  0
 32 80  1  0
 32 81  1  0
 32 82  1  0
M  END
>  <meeko>  (17) 
{"is_sidechain": [false], "intermolecular_energy": 2.731, "internal_energy": -0.839}

$$$$
EPH_relaxed_0001_pdb2pqr_Repair_363_r2_0001_out
     RDKit          3D

 82 86  0  0  0  0  0  0  0  0999 V2000
    3.1030   14.8330   -7.5610 C   0  0  0  0  0  0  0  0  0  0  0  0
    1.5800   14.8610   -7.4090 C   0  0  2  0  0  0  0  0  0  0  0  0
    0.9510   16.0970   -8.0830 C   0  0  0  0  0  0  0  0  0  0  0  0
    1.8740   16.7840   -9.0930 C   0  0  0  0  0  0  0  0  0  0  0  0
    1.5550   16.3790  -10.5000 C   0  0  2  0  0  0  0  0  0  0  0  0
    0.9790   15.0730  -10.6320 O   0  0  0  0  0  0  0  0  0  0  0  0
    2.2710   15.2600  -11.2320 C   0  0  0  0  0  0  0  0  0  0  0  0
    3.3650   14.4750  -10.5780 C   0  0  0  0  0  0  0  0  0  0  0  0
    2.2470   15.2530  -12.7290 C   0  0  0  0  0  0  0  0  0  0  0  0
    1.2040   14.8250   -5.9320 C   0  0  1  0  0  0  0  0  0  0  0  0
   -0.0440   15.6900   -5.6120 C   0  0  0  0  0  0  0  0  0  0  0  0
   -0.8200   14.9570   -4.4870 C   0  0  0  0  0  0  0  0  0  0  0  0
    0.1660   13.8830   -3.9700 C   0  0  1  0  0  0  0  0  0  0  0  0
    1.1140   14.6460   -2.9920 C   0  0  0  0  0  0  0  0  0  0  0  0
   -0.4730   12.6270   -3.2920 C   0  0  2  0  0  0  0  0  0  0  0  0
   -1.2810   12.9160   -2.0150 C   0  0  0  0  0  0  0  0  0  0  0  0
   -0.5030   12.8580   -0.7420 C   0  0  0  0  0  0  0  0  0  0  0  0
    0.7180   12.3120   -0.5960 C   0  0  0  0  0  0  0  0  0  0  0  0
    1.4010   11.5860   -1.7620 C   0  0  1  0  0  0  0  0  0  0  0  0
    1.9840   10.2380   -1.2620 C   0  0  0  0  0  0  0  0  0  0  0  0
    2.9080   10.4090   -0.0600 C   0  0  0  0  0  0  0  0  0  0  0  0
    2.1760   11.0820    1.0980 C   0  0  2  0  0  0  0  0  0  0  0  0
    1.1620   10.1950    1.5800 O   0  0  0  0  0  0  0  0  0  0  0  0
    1.5380   12.4450    0.7110 C   0  0  0  0  0  0  0  0  0  0  0  0
    2.6530   13.4950    0.4800 C   0  0  0  0  0  0  0  0  0  0  0  0
    0.7130   12.9490    1.9260 C   0  0  0  0  0  0  0  0  0  0  0  0
    0.5310   11.4220   -3.0820 C   0  0  1  0  0  0  0  0  0  0  0  0
   -0.3370   10.1300   -2.9910 C   0  0  0  0  0  0  0  0  0  0  0  0
    1.4940   11.2240   -4.3110 C   0  0  0  0  0  0  0  0  0  0  0  0
    1.9970   12.5010   -5.0130 C   0  0  0  0  0  0  0  0  0  0  0  0
    0.8350   13.4480   -5.3250 C   0  0  2  0  0  0  0  0  0  0  0  0
   -0.1240   12.7160   -6.3250 C   0  0  0  0  0  0  0  0  0  0  0  0
    3.5707   14.8244   -6.5654 H   0  0  0  0  0  0  0  0  0  0  0  0
    3.3998   13.9292   -8.1134 H   0  0  0  0  0  0  0  0  0  0  0  0
    3.4328   15.7252   -8.1134 H   0  0  0  0  0  0  0  0  0  0  0  0
    1.1809   13.9702   -7.9161 H   0  0  0  0  0  0  0  0  0  0  0  0
    0.0376   15.7795   -8.6073 H   0  0  0  0  0  0  0  0  0  0  0  0
    0.7455   16.8276   -7.2867 H   0  0  0  0  0  0  0  0  0  0  0  0
    1.7558   17.8737   -9.0002 H   0  0  0  0  0  0  0  0  0  0  0  0
    2.9083   16.4797   -8.8747 H   0  0  0  0  0  0  0  0  0  0  0  0
    1.3408   17.4221  -10.7756 H   0  0  0  0  0  0  0  0  0  0  0  0
    3.2648   14.5469   -9.4849 H   0  0  0  0  0  0  0  0  0  0  0  0
    3.2934   13.4209  -10.8842 H   0  0  0  0  0  0  0  0  0  0  0  0
    4.3407   14.8804  -10.8842 H   0  0  0  0  0  0  0  0  0  0  0  0
    1.2457   14.9609  -13.0783 H   0  0  0  0  0  0  0  0  0  0  0  0
    2.4874   16.2587  -13.1043 H   0  0  0  0  0  0  0  0  0  0  0  0
    2.9903   14.5342  -13.1043 H   0  0  0  0  0  0  0  0  0  0  0  0
    2.1449   15.1888   -5.4935 H   0  0  0  0  0  0  0  0  0  0  0  0
    0.2650   16.6889   -5.2702 H   0  0  0  0  0  0  0  0  0  0  0  0
   -0.6730   15.8212   -6.5048 H   0  0  0  0  0  0  0  0  0  0  0  0
   -1.0898   15.6563   -3.6819 H   0  0  0  0  0  0  0  0  0  0  0  0
   -1.7629   14.5195   -4.8469 H   0  0  0  0  0  0  0  0  0  0  0  0
    0.8305   14.4179   -1.9539 H   0  0  0  0  0  0  0  0  0  0  0  0
    2.1528   14.3292   -3.1665 H   0  0  0  0  0  0  0  0  0  0  0  0
    1.0266   15.7285   -3.1665 H   0  0  0  0  0  0  0  0  0  0  0  0
   -1.2079   12.3013   -4.0429 H   0  0  0  0  0  0  0  0  0  0  0  0
   -1.7105   13.9247   -2.1054 H   0  0  0  0  0  0  0  0  0  0  0  0
   -2.0372   12.1201   -1.9464 H   0  0  0  0  0  0  0  0  0  0  0  0
   -0.9674   13.2990    0.1523 H   0  0  0  0  0  0  0  0  0  0  0  0
    2.2162   12.2452   -2.0949 H   0  0  0  0  0  0  0  0  0  0  0  0
    1.1515    9.5786   -0.9756 H   0  0  0  0  0  0  0  0  0  0  0  0
    2.5787    9.8076   -2.0812 H   0  0  0  0  0  0  0  0  0  0  0  0
    3.2634    9.4199    0.2647 H   0  0  0  0  0  0  0  0  0  0  0  0
    3.7562   11.0437   -0.3561 H   0  0  0  0  0  0  0  0  0  0  0  0
    2.9206   11.2958    1.8789 H   0  0  0  0  0  0  0  0  0  0  0  0
    0.3990   10.7370    1.8460 H   0  0  0  0  0  0  0  0  0  0  0  0
    3.0295   13.8496    1.4508 H   0  0  0  0  0  0  0  0  0  0  0  0
    3.4764   13.0367   -0.0874 H   0  0  0  0  0  0  0  0  0  0  0  0
    2.2449   14.3444   -0.0874 H   0  0  0  0  0  0  0  0  0  0  0  0
    1.2107   12.6449    2.8587 H   0  0  0  0  0  0  0  0  0  0  0  0
    0.6401   14.0460    1.8901 H   0  0  0  0  0  0  0  0  0  0  0  0
   -0.2963   12.5131    1.8901 H   0  0  0  0  0  0  0  0  0  0  0  0
   -0.5074    9.8764   -1.9343 H   0  0  0  0  0  0  0  0  0  0  0  0
   -1.3035   10.3019   -3.4873 H   0  0  0  0  0  0  0  0  0  0  0  0
    0.1875    9.3002   -3.4873 H   0  0  0  0  0  0  0  0  0  0  0  0
    2.3757   10.6697   -3.9569 H   0  0  0  0  0  0  0  0  0  0  0  0
    0.8917   10.6984   -5.0667 H   0  0  0  0  0  0  0  0  0  0  0  0
    2.7135   13.0149   -4.3553 H   0  0  0  0  0  0  0  0  0  0  0  0
    2.4800   12.2145   -5.9588 H   0  0  0  0  0  0  0  0  0  0  0  0
   -0.8745   12.1432   -5.7605 H   0  0  0  0  0  0  0  0  0  0  0  0
   -0.6303   13.4594   -6.9582 H   0  0  0  0  0  0  0  0  0  0  0  0
    0.4596   12.0316   -6.9582 H   0  0  0  0  0  0  0  0  0  0  0  0
  1  2  1  0
  2  3  1  0
  3  4  1  0
  4  5  1  0
  5  6  1  0
  6  7  1  0
  7  8  1  0
  7  9  1  0
  2 10  1  0
 10 11  1  0
 11 12  1  0
 12 13  1  0
 13 14  1  1
 13 15  1  0
 15 16  1  0
 16 17  1  0
 17 18  2  0
 18 19  1  0
 19 20  1  0
 20 21  1  0
 21 22  1  0
 22 23  1  0
 22 24  1  0
 24 25  1  0
 24 26  1  0
 19 27  1  0
 27 28  1  1
 27 29  1  0
 29 30  1  0
 30 31  1  0
 31 32  1  6
  7  5  1  0
 31 10  1  0
 31 13  1  0
 27 15  1  0
 24 18  1  0
  1 33  1  0
  1 34  1  0
  1 35  1  0
  2 36  1  6
  3 37  1  0
  3 38  1  0
  4 39  1  0
  4 40  1  0
  5 41  1  6
  8 42  1  0
  8 43  1  0
  8 44  1  0
  9 45  1  0
  9 46  1  0
  9 47  1  0
 10 48  1  1
 11 49  1  0
 11 50  1  0
 12 51  1  0
 12 52  1  0
 14 53  1  0
 14 54  1  0
 14 55  1  0
 15 56  1  6
 16 57  1  0
 16 58  1  0
 17 59  1  0
 19 60  1  6
 20 61  1  0
 20 62  1  0
 21 63  1  0
 21 64  1  0
 22 65  1  1
 23 66  1  0
 25 67  1  0
 25 68  1  0
 25 69  1  0
 26 70  1  0
 26 71  1  0
 26 72  1  0
 28 73  1  0
 28 74  1  0
 28 75  1  0
 29 76  1  0
 29 77  1  0
 30 78  1  0
 30 79  1  0
 32 80  1  0
 32 81  1  0
 32 82  1  0
M  END
>  <meeko>  (18) 
{"is_sidechain": [false], "intermolecular_energy": 2.731, "internal_energy": -0.839}

$$$$
EPH_relaxed_0001_pdb2pqr_Repair_363_r2_0001_out
     RDKit          3D

 82 86  0  0  0  0  0  0  0  0999 V2000
  -14.2820    5.4790    0.4680 C   0  0  0  0  0  0  0  0  0  0  0  0
  -13.7700    6.9080    0.2680 C   0  0  2  0  0  0  0  0  0  0  0  0
  -14.9070    7.8890   -0.0820 C   0  0  0  0  0  0  0  0  0  0  0  0
  -14.5450    9.3590    0.1490 C   0  0  0  0  0  0  0  0  0  0  0  0
  -15.2620   10.2630   -0.8070 C   0  0  2  0  0  0  0  0  0  0  0  0
  -15.1200    9.9080   -2.1890 O   0  0  0  0  0  0  0  0  0  0  0  0
  -14.5520   11.1680   -1.7960 C   0  0  0  0  0  0  0  0  0  0  0  0
  -13.0580   11.2140   -1.8780 C   0  0  0  0  0  0  0  0  0  0  0  0
  -15.2870   12.3550   -2.3360 C   0  0  0  0  0  0  0  0  0  0  0  0
  -12.7070    6.9320   -0.8240 C   0  0  1  0  0  0  0  0  0  0  0  0
  -13.0790    7.8740   -2.0000 C   0  0  0  0  0  0  0  0  0  0  0  0
  -11.7550    8.4990   -2.5090 C   0  0  0  0  0  0  0  0  0  0  0  0
  -10.6440    7.6550   -1.8420 C   0  0  1  0  0  0  0  0  0  0  0  0
  -10.5270    6.3740   -2.7260 C   0  0  0  0  0  0  0  0  0  0  0  0
   -9.2590    8.3570   -1.6570 C   0  0  2  0  0  0  0  0  0  0  0  0
   -8.5600    8.7740   -2.9630 C   0  0  0  0  0  0  0  0  0  0  0  0
   -7.6460    7.7500   -3.5510 C   0  0  0  0  0  0  0  0  0  0  0  0
   -7.1760    6.6620   -2.9130 C   0  0  0  0  0  0  0  0  0  0  0  0
   -7.4820    6.4260   -1.4280 C   0  0  1  0  0  0  0  0  0  0  0  0
   -6.1790    6.0250   -0.6890 C   0  0  0  0  0  0  0  0  0  0  0  0
   -5.4810    4.8330   -1.3370 C   0  0  0  0  0  0  0  0  0  0  0  0
   -5.1410    5.1270   -2.7960 C   0  0  2  0  0  0  0  0  0  0  0  0
   -4.1510    6.1590   -2.8390 O   0  0  0  0  0  0  0  0  0  0  0  0
   -6.3760    5.5530   -3.6390 C   0  0  0  0  0  0  0  0  0  0  0  0
   -7.3110    4.3350   -3.8440 C   0  0  0  0  0  0  0  0  0  0  0  0
   -5.8730    5.9570   -5.0510 C   0  0  0  0  0  0  0  0  0  0  0  0
   -8.2680    7.5930   -0.6890 C   0  0  1  0  0  0  0  0  0  0  0  0
   -7.2620    8.6560   -0.1510 C   0  0  0  0  0  0  0  0  0  0  0  0
   -9.0020    6.9990    0.5710 C   0  0  0  0  0  0  0  0  0  0  0  0
  -10.4160    6.4280    0.3470 C   0  0  0  0  0  0  0  0  0  0  0  0
  -11.2900    7.4180   -0.4280 C   0  0  2  0  0  0  0  0  0  0  0  0
  -11.4440    8.7080    0.4470 C   0  0  0  0  0  0  0  0  0  0  0  0
  -14.3589    5.2643    1.5441 H   0  0  0  0  0  0  0  0  0  0  0  0
  -15.2730    5.3759    0.0018 H   0  0  0  0  0  0  0  0  0  0  0  0
  -13.5820    4.7701    0.0018 H   0  0  0  0  0  0  0  0  0  0  0  0
  -13.3310    7.2380    1.2211 H   0  0  0  0  0  0  0  0  0  0  0  0
  -15.1647    7.7575   -1.1433 H   0  0  0  0  0  0  0  0  0  0  0  0
  -15.7491    7.6566    0.5864 H   0  0  0  0  0  0  0  0  0  0  0  0
  -14.8206    9.6367    1.1771 H   0  0  0  0  0  0  0  0  0  0  0  0
  -13.4635    9.4756   -0.0143 H   0  0  0  0  0  0  0  0  0  0  0  0
  -16.0531   10.4554   -0.0673 H   0  0  0  0  0  0  0  0  0  0  0  0
  -12.6353   11.2270   -0.8626 H   0  0  0  0  0  0  0  0  0  0  0  0
  -12.6928   10.3267   -2.4159 H   0  0  0  0  0  0  0  0  0  0  0  0
  -12.7481   12.1221   -2.4159 H   0  0  0  0  0  0  0  0  0  0  0  0
  -15.6640   12.9638   -1.5010 H   0  0  0  0  0  0  0  0  0  0  0  0
  -14.6050   12.9595   -2.9519 H   0  0  0  0  0  0  0  0  0  0  0  0
  -16.1322   12.0139   -2.9519 H   0  0  0  0  0  0  0  0  0  0  0  0
  -12.6802    5.8619   -1.0774 H   0  0  0  0  0  0  0  0  0  0  0  0
  -13.5618    7.3015   -2.8057 H   0  0  0  0  0  0  0  0  0  0  0  0
  -13.7836    8.6532   -1.6739 H   0  0  0  0  0  0  0  0  0  0  0  0
  -11.6894    8.4309   -3.6049 H   0  0  0  0  0  0  0  0  0  0  0  0
  -11.6745    9.5672   -2.2590 H   0  0  0  0  0  0  0  0  0  0  0  0
  -10.4461    5.4881   -2.0790 H   0  0  0  0  0  0  0  0  0  0  0  0
  -11.4206    6.2838   -3.3610 H   0  0  0  0  0  0  0  0  0  0  0  0
   -9.6318    6.4472   -3.3610 H   0  0  0  0  0  0  0  0  0  0  0  0
   -9.5356    9.2948   -1.1531 H   0  0  0  0  0  0  0  0  0  0  0  0
   -9.3374    9.0031   -3.7067 H   0  0  0  0  0  0  0  0  0  0  0  0
   -7.9272    9.6369   -2.7080 H   0  0  0  0  0  0  0  0  0  0  0  0
   -7.3299    7.8973   -4.5943 H   0  0  0  0  0  0  0  0  0  0  0  0
   -8.2017    5.5949   -1.3934 H   0  0  0  0  0  0  0  0  0  0  0  0
   -5.4910    6.8832   -0.6968 H   0  0  0  0  0  0  0  0  0  0  0  0
   -6.4528    5.7344    0.3360 H   0  0  0  0  0  0  0  0  0  0  0  0
   -4.5529    4.6170   -0.7875 H   0  0  0  0  0  0  0  0  0  0  0  0
   -6.1590    3.9675   -1.3020 H   0  0  0  0  0  0  0  0  0  0  0  0
   -4.7635    4.1947   -3.2413 H   0  0  0  0  0  0  0  0  0  0  0  0
   -3.5120    5.9830   -2.1280 H   0  0  0  0  0  0  0  0  0  0  0  0
   -7.6159    3.9378   -2.8646 H   0  0  0  0  0  0  0  0  0  0  0  0
   -8.2030    4.6480   -4.4065 H   0  0  0  0  0  0  0  0  0  0  0  0
   -6.7781    3.5542   -4.4065 H   0  0  0  0  0  0  0  0  0  0  0  0
   -5.0188    6.6431   -4.9535 H   0  0  0  0  0  0  0  0  0  0  0  0
   -5.5595    5.0568   -5.6000 H   0  0  0  0  0  0  0  0  0  0  0  0
   -6.6843    6.4573   -5.6000 H   0  0  0  0  0  0  0  0  0  0  0  0
   -7.2714    8.6461    0.9489 H   0  0  0  0  0  0  0  0  0  0  0  0
   -6.2501    8.4186   -0.5112 H   0  0  0  0  0  0  0  0  0  0  0  0
   -7.5548    9.6533   -0.5112 H   0  0  0  0  0  0  0  0  0  0  0  0
   -8.3750    6.1879    0.9697 H   0  0  0  0  0  0  0  0  0  0  0  0
   -9.1407    7.8519    1.2517 H   0  0  0  0  0  0  0  0  0  0  0  0
  -10.3395    5.4913   -0.2247 H   0  0  0  0  0  0  0  0  0  0  0  0
  -10.8794    6.2437    1.3275 H   0  0  0  0  0  0  0  0  0  0  0  0
  -11.4114    8.4347    1.5120 H   0  0  0  0  0  0  0  0  0  0  0  0
  -10.6226    9.4041    0.2217 H   0  0  0  0  0  0  0  0  0  0  0  0
  -12.4062    9.1911    0.2217 H   0  0  0  0  0  0  0  0  0  0  0  0
  1  2  1  0
  2  3  1  0
  3  4  1  0
  4  5  1  0
  5  6  1  0
  6  7  1  0
  7  8  1  0
  7  9  1  0
  2 10  1  0
 10 11  1  0
 11 12  1  0
 12 13  1  0
 13 14  1  6
 13 15  1  0
 15 16  1  0
 16 17  1  0
 17 18  2  0
 18 19  1  0
 19 20  1  0
 20 21  1  0
 21 22  1  0
 22 23  1  0
 22 24  1  0
 24 25  1  0
 24 26  1  0
 19 27  1  0
 27 28  1  1
 27 29  1  0
 29 30  1  0
 30 31  1  0
 31 32  1  1
  7  5  1  0
 31 10  1  0
 31 13  1  0
 27 15  1  0
 24 18  1  0
  1 33  1  0
  1 34  1  0
  1 35  1  0
  2 36  1  1
  3 37  1  0
  3 38  1  0
  4 39  1  0
  4 40  1  0
  5 41  1  1
  8 42  1  0
  8 43  1  0
  8 44  1  0
  9 45  1  0
  9 46  1  0
  9 47  1  0
 10 48  1  6
 11 49  1  0
 11 50  1  0
 12 51  1  0
 12 52  1  0
 14 53  1  0
 14 54  1  0
 14 55  1  0
 15 56  1  1
 16 57  1  0
 16 58  1  0
 17 59  1  0
 19 60  1  6
 20 61  1  0
 20 62  1  0
 21 63  1  0
 21 64  1  0
 22 65  1  6
 23 66  1  0
 25 67  1  0
 25 68  1  0
 25 69  1  0
 26 70  1  0
 26 71  1  0
 26 72  1  0
 28 73  1  0
 28 74  1  0
 28 75  1  0
 29 76  1  0
 29 77  1  0
 30 78  1  0
 30 79  1  0
 32 80  1  0
 32 81  1  0
 32 82  1  0
M  END
>  <meeko>  (19) 
{"is_sidechain": [false], "intermolecular_energy": 2.731, "internal_energy": -0.839}

$$$$
EPH_relaxed_0001_pdb2pqr_Repair_363_r2_0001_out
     RDKit          3D

 82 86  0  0  0  0  0  0  0  0999 V2000
    3.3980   18.0850   -1.0520 C   0  0  0  0  0  0  0  0  0  0  0  0
    2.0110   17.4790   -1.2830 C   0  0  2  0  0  0  0  0  0  0  0  0
    1.0750   17.6940   -0.0760 C   0  0  0  0  0  0  0  0  0  0  0  0
    0.7440   19.1650    0.1910 C   0  0  0  0  0  0  0  0  0  0  0  0
   -0.7250   19.3710    0.4090 C   0  0  2  0  0  0  0  0  0  0  0  0
   -1.5520   18.2780   -0.0100 O   0  0  0  0  0  0  0  0  0  0  0  0
   -1.7260   19.5130   -0.7220 C   0  0  0  0  0  0  0  0  0  0  0  0
   -1.2980   19.4560   -2.1550 C   0  0  0  0  0  0  0  0  0  0  0  0
   -3.0310   20.1920   -0.4420 C   0  0  0  0  0  0  0  0  0  0  0  0
    2.1370   15.9910   -1.5860 C   0  0  1  0  0  0  0  0  0  0  0  0
    3.6030   15.5580   -1.8520 C   0  0  0  0  0  0  0  0  0  0  0  0
    3.7580   14.1260   -1.2790 C   0  0  0  0  0  0  0  0  0  0  0  0
    2.3100   13.6570   -1.0050 C   0  0  1  0  0  0  0  0  0  0  0  0
    1.7730   13.1800   -2.3910 C   0  0  0  0  0  0  0  0  0  0  0  0
    2.1360   12.5550    0.0910 C   0  0  2  0  0  0  0  0  0  0  0  0
    2.8200   11.2120   -0.2190 C   0  0  0  0  0  0  0  0  0  0  0  0
    1.9760   10.2210   -0.9500 C   0  0  0  0  0  0  0  0  0  0  0  0
    0.6390   10.2860   -1.0920 C   0  0  0  0  0  0  0  0  0  0  0  0
   -0.1740   11.3880   -0.4010 C   0  0  1  0  0  0  0  0  0  0  0  0
   -1.4160   10.7620    0.2860 C   0  0  0  0  0  0  0  0  0  0  0  0
   -2.2600    9.9310   -0.6760 C   0  0  0  0  0  0  0  0  0  0  0  0
   -1.4310    8.8100   -1.2980 C   0  0  2  0  0  0  0  0  0  0  0  0
   -1.0740    7.8770   -0.2730 O   0  0  0  0  0  0  0  0  0  0  0  0
   -0.1480    9.3200   -2.0110 C   0  0  0  0  0  0  0  0  0  0  0  0
   -0.5370   10.0840   -3.3000 C   0  0  0  0  0  0  0  0  0  0  0  0
    0.6670    8.0810   -2.4710 C   0  0  0  0  0  0  0  0  0  0  0  0
    0.6420   12.3470    0.5690 C   0  0  1  0  0  0  0  0  0  0  0  0
    0.7140   11.7230    1.9960 C   0  0  0  0  0  0  0  0  0  0  0  0
   -0.1340   13.7090    0.7190 C   0  0  0  0  0  0  0  0  0  0  0  0
    0.1700   14.8000   -0.3250 C   0  0  0  0  0  0  0  0  0  0  0  0
    1.6800   15.0000   -0.4860 C   0  0  2  0  0  0  0  0  0  0  0  0
    2.2440   15.5010    0.8870 C   0  0  0  0  0  0  0  0  0  0  0  0
    3.5868   18.1675    0.0285 H   0  0  0  0  0  0  0  0  0  0  0  0
    4.1614   17.4384   -1.5093 H   0  0  0  0  0  0  0  0  0  0  0  0
    3.4423   19.0845   -1.5093 H   0  0  0  0  0  0  0  0  0  0  0  0
    1.5634   17.9965   -2.1443 H   0  0  0  0  0  0  0  0  0  0  0  0
    0.1349   17.1551   -0.2651 H   0  0  0  0  0  0  0  0  0  0  0  0
    1.6032   17.3167    0.8120 H   0  0  0  0  0  0  0  0  0  0  0  0
    1.2876   19.4957    1.0883 H   0  0  0  0  0  0  0  0  0  0  0  0
    1.0458   19.7503   -0.6901 H   0  0  0  0  0  0  0  0  0  0  0  0
   -0.5306   19.9807    1.3037 H   0  0  0  0  0  0  0  0  0  0  0  0
   -0.2088   19.3109   -2.2069 H   0  0  0  0  0  0  0  0  0  0  0  0
   -1.8039   18.6173   -2.6557 H   0  0  0  0  0  0  0  0  0  0  0  0
   -1.5667   20.3979   -2.6557 H   0  0  0  0  0  0  0  0  0  0  0  0
   -3.1785   20.2687    0.6454 H   0  0  0  0  0  0  0  0  0  0  0  0
   -3.0220   21.1998   -0.8828 H   0  0  0  0  0  0  0  0  0  0  0  0
   -3.8511   19.6063   -0.8828 H   0  0  0  0  0  0  0  0  0  0  0  0
    1.4676   15.9227   -2.4562 H   0  0  0  0  0  0  0  0  0  0  0  0
    3.8076   15.5576   -2.9328 H   0  0  0  0  0  0  0  0  0  0  0  0
    4.3119   16.2521   -1.3770 H   0  0  0  0  0  0  0  0  0  0  0  0
    4.2482   13.4661   -2.0099 H   0  0  0  0  0  0  0  0  0  0  0  0
    4.3821   14.1042   -0.3735 H   0  0  0  0  0  0  0  0  0  0  0  0
    0.9584   12.4565   -2.2394 H   0  0  0  0  0  0  0  0  0  0  0  0
    1.3946   14.0452   -2.9551 H   0  0  0  0  0  0  0  0  0  0  0  0
    2.5875   12.7022   -2.9551 H   0  0  0  0  0  0  0  0  0  0  0  0
    2.6872   12.9802    0.9427 H   0  0  0  0  0  0  0  0  0  0  0  0
    3.7106   11.4173   -0.8312 H   0  0  0  0  0  0  0  0  0  0  0  0
    3.0509   10.7558    0.7549 H   0  0  0  0  0  0  0  0  0  0  0  0
    2.4903    9.3652   -1.4117 H   0  0  0  0  0  0  0  0  0  0  0  0
   -0.4952   12.0743   -1.1984 H   0  0  0  0  0  0  0  0  0  0  0  0
   -1.0756   10.1136    1.1068 H   0  0  0  0  0  0  0  0  0  0  0  0
   -2.0443   11.5861    0.6550 H   0  0  0  0  0  0  0  0  0  0  0  0
   -3.1053    9.4915   -0.1262 H   0  0  0  0  0  0  0  0  0  0  0  0
   -2.6246   10.5867   -1.4804 H   0  0  0  0  0  0  0  0  0  0  0  0
   -2.0502    8.3322   -2.0715 H   0  0  0  0  0  0  0  0  0  0  0  0
   -1.5760    7.0600   -0.4320 H   0  0  0  0  0  0  0  0  0  0  0  0
   -1.0209   11.0345   -3.0310 H   0  0  0  0  0  0  0  0  0  0  0  0
    0.3671   10.2877   -3.8925 H   0  0  0  0  0  0  0  0  0  0  0  0
   -1.2336    9.4727   -3.8925 H   0  0  0  0  0  0  0  0  0  0  0  0
    1.0283    7.5317   -1.5891 H   0  0  0  0  0  0  0  0  0  0  0  0
    0.0247    7.4232   -3.0749 H   0  0  0  0  0  0  0  0  0  0  0  0
    1.5254    8.4103   -3.0749 H   0  0  0  0  0  0  0  0  0  0  0  0
    0.6221   12.5192    2.7494 H   0  0  0  0  0  0  0  0  0  0  0  0
   -0.1069   11.0018    2.1227 H   0  0  0  0  0  0  0  0  0  0  0  0
    1.6776   11.2077    2.1227 H   0  0  0  0  0  0  0  0  0  0  0  0
   -1.2099   13.4868    0.6645 H   0  0  0  0  0  0  0  0  0  0  0  0
    0.2021   14.1276    1.6791 H   0  0  0  0  0  0  0  0  0  0  0  0
   -0.2585   14.5010   -1.2930 H   0  0  0  0  0  0  0  0  0  0  0  0
   -0.2744   15.7462    0.0173 H   0  0  0  0  0  0  0  0  0  0  0  0
    1.6965   15.0146    1.7078 H   0  0  0  0  0  0  0  0  0  0  0  0
    3.3123   15.2486    0.9587 H   0  0  0  0  0  0  0  0  0  0  0  0
    2.1193   16.5916    0.9587 H   0  0  0  0  0  0  0  0  0  0  0  0
  1  2  1  0
  2  3  1  0
  3  4  1  0
  4  5  1  0
  5  6  1  0
  6  7  1  0
  7  8  1  0
  7  9  1  0
  2 10  1  0
 10 11  1  0
 11 12  1  0
 12 13  1  0
 13 14  1  6
 13 15  1  0
 15 16  1  0
 16 17  1  0
 17 18  2  0
 18 19  1  0
 19 20  1  0
 20 21  1  0
 21 22  1  0
 22 23  1  0
 22 24  1  0
 24 25  1  0
 24 26  1  0
 19 27  1  0
 27 28  1  1
 27 29  1  0
 29 30  1  0
 30 31  1  0
 31 32  1  1
  7  5  1  0
 31 10  1  0
 31 13  1  0
 27 15  1  0
 24 18  1  0
  1 33  1  0
  1 34  1  0
  1 35  1  0
  2 36  1  6
  3 37  1  0
  3 38  1  0
  4 39  1  0
  4 40  1  0
  5 41  1  1
  8 42  1  0
  8 43  1  0
  8 44  1  0
  9 45  1  0
  9 46  1  0
  9 47  1  0
 10 48  1  6
 11 49  1  0
 11 50  1  0
 12 51  1  0
 12 52  1  0
 14 53  1  0
 14 54  1  0
 14 55  1  0
 15 56  1  1
 16 57  1  0
 16 58  1  0
 17 59  1  0
 19 60  1  6
 20 61  1  0
 20 62  1  0
 21 63  1  0
 21 64  1  0
 22 65  1  6
 23 66  1  0
 25 67  1  0
 25 68  1  0
 25 69  1  0
 26 70  1  0
 26 71  1  0
 26 72  1  0
 28 73  1  0
 28 74  1  0
 28 75  1  0
 29 76  1  0
 29 77  1  0
 30 78  1  0
 30 79  1  0
 32 80  1  0
 32 81  1  0
 32 82  1  0
M  END
>  <meeko>  (20) 
{"is_sidechain": [false], "intermolecular_energy": 2.731, "internal_energy": -0.839}

$$$$
