EPH_relaxed_0001_pdb2pqr_Repair_208_r2_0001_out
     RDKit          3D

 82 86  0  0  0  0  0  0  0  0999 V2000
   -5.1560    5.8330   -1.6880 C   0  0  0  0  0  0  0  0  0  0  0  0
   -5.4460    7.3350   -1.7660 C   0  0  2  0  0  0  0  0  0  0  0  0
   -5.2220    8.0400   -0.4140 C   0  0  0  0  0  0  0  0  0  0  0  0
   -4.1850    9.1650   -0.4720 C   0  0  0  0  0  0  0  0  0  0  0  0
   -2.8220    8.6460   -0.8190 C   0  0  2  0  0  0  0  0  0  0  0  0
   -1.7980    8.9710    0.1290 O   0  0  0  0  0  0  0  0  0  0  0  0
   -1.6530    9.5430   -1.1810 C   0  0  0  0  0  0  0  0  0  0  0  0
   -1.7920   11.0320   -1.2130 C   0  0  0  0  0  0  0  0  0  0  0  0
   -0.5220    8.9600   -1.9710 C   0  0  0  0  0  0  0  0  0  0  0  0
   -6.8760    7.5630   -2.2420 C   0  0  1  0  0  0  0  0  0  0  0  0
   -7.1740    6.8660   -3.5960 C   0  0  0  0  0  0  0  0  0  0  0  0
   -8.6500    6.3970   -3.5420 C   0  0  0  0  0  0  0  0  0  0  0  0
   -9.2460    7.1210   -2.3120 C   0  0  1  0  0  0  0  0  0  0  0  0
   -9.5890    8.5570   -2.8200 C   0  0  0  0  0  0  0  0  0  0  0  0
  -10.4790    6.4370   -1.6370 C   0  0  2  0  0  0  0  0  0  0  0  0
  -11.7260    6.3130   -2.5300 C   0  0  0  0  0  0  0  0  0  0  0  0
  -12.6780    7.4610   -2.4590 C   0  0  0  0  0  0  0  0  0  0  0  0
  -12.6870    8.4110   -1.5050 C   0  0  0  0  0  0  0  0  0  0  0  0
  -11.7330    8.3340   -0.3070 C   0  0  1  0  0  0  0  0  0  0  0  0
  -12.5190    8.6170    1.0000 C   0  0  0  0  0  0  0  0  0  0  0  0
  -13.2850    9.9350    0.9480 C   0  0  0  0  0  0  0  0  0  0  0  0
  -14.2660    9.9510   -0.2220 C   0  0  2  0  0  0  0  0  0  0  0  0
  -15.2870    8.9780    0.0200 O   0  0  0  0  0  0  0  0  0  0  0  0
  -13.5890    9.6670   -1.5920 C   0  0  0  0  0  0  0  0  0  0  0  0
  -12.7040   10.8730   -1.9950 C   0  0  0  0  0  0  0  0  0  0  0  0
  -14.7060    9.5710   -2.6660 C   0  0  0  0  0  0  0  0  0  0  0  0
  -10.8440    7.0200   -0.2120 C   0  0  1  0  0  0  0  0  0  0  0  0
  -11.6270    5.9010    0.5390 C   0  0  0  0  0  0  0  0  0  0  0  0
   -9.5650    7.3260    0.6540 C   0  0  0  0  0  0  0  0  0  0  0  0
   -8.3400    7.8880   -0.0900 C   0  0  0  0  0  0  0  0  0  0  0  0
   -8.0190    7.0500   -1.3310 C   0  0  2  0  0  0  0  0  0  0  0  0
   -7.6480    5.6060   -0.8500 C   0  0  0  0  0  0  0  0  0  0  0  0
   -5.0966    5.5253   -0.6336 H   0  0  0  0  0  0  0  0  0  0  0  0
   -5.9634    5.2773   -2.1872 H   0  0  0  0  0  0  0  0  0  0  0  0
   -4.1997    5.6178   -2.1872 H   0  0  0  0  0  0  0  0  0  0  0  0
   -4.7396    7.7723   -2.4870 H   0  0  0  0  0  0  0  0  0  0  0  0
   -6.1798    8.4671   -0.0819 H   0  0  0  0  0  0  0  0  0  0  0  0
   -4.8364    7.2824    0.2841 H   0  0  0  0  0  0  0  0  0  0  0  0
   -4.4933    9.8949   -1.2350 H   0  0  0  0  0  0  0  0  0  0  0  0
   -4.1308    9.6327    0.5221 H   0  0  0  0  0  0  0  0  0  0  0  0
   -3.2576    7.7655   -1.3140 H   0  0  0  0  0  0  0  0  0  0  0  0
   -1.8281   11.4191   -0.1840 H   0  0  0  0  0  0  0  0  0  0  0  0
   -0.9308   11.4694   -1.7393 H   0  0  0  0  0  0  0  0  0  0  0  0
   -2.7193   11.3025   -1.7393 H   0  0  0  0  0  0  0  0  0  0  0  0
    0.2411    8.5666   -1.2833 H   0  0  0  0  0  0  0  0  0  0  0  0
   -0.8997    8.1443   -2.6049 H   0  0  0  0  0  0  0  0  0  0  0  0
   -0.0767    9.7409   -2.6049 H   0  0  0  0  0  0  0  0  0  0  0  0
   -6.8857    8.6625   -2.2749 H   0  0  0  0  0  0  0  0  0  0  0  0
   -7.0316    7.5738   -4.4259 H   0  0  0  0  0  0  0  0  0  0  0  0
   -6.4953    6.0161   -3.7606 H   0  0  0  0  0  0  0  0  0  0  0  0
   -9.1833    6.6872   -4.4593 H   0  0  0  0  0  0  0  0  0  0  0  0
   -8.7371    5.3032   -3.4643 H   0  0  0  0  0  0  0  0  0  0  0  0
   -9.7479    9.2224   -1.9586 H   0  0  0  0  0  0  0  0  0  0  0  0
   -8.7568    8.9388   -3.4296 H   0  0  0  0  0  0  0  0  0  0  0  0
  -10.5039    8.5215   -3.4296 H   0  0  0  0  0  0  0  0  0  0  0  0
  -10.1214    5.4088   -1.4789 H   0  0  0  0  0  0  0  0  0  0  0  0
  -11.3891    6.2148   -3.5725 H   0  0  0  0  0  0  0  0  0  0  0  0
  -12.2785    5.4363   -2.1611 H   0  0  0  0  0  0  0  0  0  0  0  0
  -13.4357    7.5370   -3.2528 H   0  0  0  0  0  0  0  0  0  0  0  0
  -10.9799    9.1196   -0.4671 H   0  0  0  0  0  0  0  0  0  0  0  0
  -13.2356    7.7989    1.1647 H   0  0  0  0  0  0  0  0  0  0  0  0
  -11.7892    8.6870    1.8200 H   0  0  0  0  0  0  0  0  0  0  0  0
  -13.8429   10.0643    1.8872 H   0  0  0  0  0  0  0  0  0  0  0  0
  -12.5640   10.7547    0.8125 H   0  0  0  0  0  0  0  0  0  0  0  0
  -14.6891   10.9644   -0.2846 H   0  0  0  0  0  0  0  0  0  0  0  0
  -14.9520    8.3600    0.6910 H   0  0  0  0  0  0  0  0  0  0  0  0
  -12.3349   11.3759   -1.0890 H   0  0  0  0  0  0  0  0  0  0  0  0
  -11.8502   10.5183   -2.5911 H   0  0  0  0  0  0  0  0  0  0  0  0
  -13.2984   11.5811   -2.5911 H   0  0  0  0  0  0  0  0  0  0  0  0
  -15.6846    9.4869   -2.1707 H   0  0  0  0  0  0  0  0  0  0  0  0
  -14.6893   10.4739   -3.2941 H   0  0  0  0  0  0  0  0  0  0  0  0
  -14.5355    8.6842   -3.2941 H   0  0  0  0  0  0  0  0  0  0  0  0
  -11.5247    6.0472    1.6244 H   0  0  0  0  0  0  0  0  0  0  0  0
  -12.6903    5.9480    0.2613 H   0  0  0  0  0  0  0  0  0  0  0  0
  -11.2186    4.9181    0.2613 H   0  0  0  0  0  0  0  0  0  0  0  0
   -9.8516    8.0581    1.4233 H   0  0  0  0  0  0  0  0  0  0  0  0
   -9.2415    6.3496    1.0438 H   0  0  0  0  0  0  0  0  0  0  0  0
   -8.5504    8.9225   -0.3992 H   0  0  0  0  0  0  0  0  0  0  0  0
   -7.4739    7.8566    0.5875 H   0  0  0  0  0  0  0  0  0  0  0  0
   -7.6404    5.5764    0.2496 H   0  0  0  0  0  0  0  0  0  0  0  0
   -8.3914    4.8903   -1.2309 H   0  0  0  0  0  0  0  0  0  0  0  0
   -6.6517    5.3373   -1.2309 H   0  0  0  0  0  0  0  0  0  0  0  0
  1  2  1  0
  2  3  1  0
  3  4  1  0
  4  5  1  0
  5  6  1  0
  6  7  1  0
  7  8  1  0
  7  9  1  0
  2 10  1  0
 10 11  1  0
 11 12  1  0
 12 13  1  0
 13 14  1  6
 13 15  1  0
 15 16  1  0
 16 17  1  0
 17 18  2  0
 18 19  1  0
 19 20  1  0
 20 21  1  0
 21 22  1  0
 22 23  1  0
 22 24  1  0
 24 25  1  0
 24 26  1  0
 19 27  1  0
 27 28  1  1
 27 29  1  0
 29 30  1  0
 30 31  1  0
 31 32  1  1
  7  5  1  0
 31 10  1  0
 31 13  1  0
 27 15  1  0
 24 18  1  0
  1 33  1  0
  1 34  1  0
  1 35  1  0
  2 36  1  6
  3 37  1  0
  3 38  1  0
  4 39  1  0
  4 40  1  0
  5 41  1  6
  8 42  1  0
  8 43  1  0
  8 44  1  0
  9 45  1  0
  9 46  1  0
  9 47  1  0
 10 48  1  6
 11 49  1  0
 11 50  1  0
 12 51  1  0
 12 52  1  0
 14 53  1  0
 14 54  1  0
 14 55  1  0
 15 56  1  1
 16 57  1  0
 16 58  1  0
 17 59  1  0
 19 60  1  6
 20 61  1  0
 20 62  1  0
 21 63  1  0
 21 64  1  0
 22 65  1  6
 23 66  1  0
 25 67  1  0
 25 68  1  0
 25 69  1  0
 26 70  1  0
 26 71  1  0
 26 72  1  0
 28 73  1  0
 28 74  1  0
 28 75  1  0
 29 76  1  0
 29 77  1  0
 30 78  1  0
 30 79  1  0
 32 80  1  0
 32 81  1  0
 32 82  1  0
M  END
>  <meeko>  (1) 
{"is_sidechain": [false], "intermolecular_energy": 2.731, "internal_energy": -0.839}

$$$$
EPH_relaxed_0001_pdb2pqr_Repair_208_r2_0001_out
     RDKit          3D

 82 86  0  0  0  0  0  0  0  0999 V2000
   -5.0170    8.5290   -0.5040 C   0  0  0  0  0  0  0  0  0  0  0  0
   -5.3540    7.4520   -1.5400 C   0  0  2  0  0  0  0  0  0  0  0  0
   -4.3530    7.4410   -2.7120 C   0  0  0  0  0  0  0  0  0  0  0  0
   -2.9270    7.0660   -2.3000 C   0  0  0  0  0  0  0  0  0  0  0  0
   -1.9340    8.1010   -2.7350 C   0  0  2  0  0  0  0  0  0  0  0  0
   -0.5920    7.8680   -2.2870 O   0  0  0  0  0  0  0  0  0  0  0  0
   -1.2360    9.0450   -1.7740 C   0  0  0  0  0  0  0  0  0  0  0  0
   -1.5030    9.0000   -0.3020 C   0  0  0  0  0  0  0  0  0  0  0  0
   -0.6710   10.3230   -2.3110 C   0  0  0  0  0  0  0  0  0  0  0  0
   -6.7700    7.6620   -2.0650 C   0  0  1  0  0  0  0  0  0  0  0  0
   -7.0020    6.9830   -3.4410 C   0  0  0  0  0  0  0  0  0  0  0  0
   -8.4700    6.4840   -3.4510 C   0  0  0  0  0  0  0  0  0  0  0  0
   -9.1250    7.1740   -2.2330 C   0  0  1  0  0  0  0  0  0  0  0  0
   -9.4790    8.6120   -2.7280 C   0  0  0  0  0  0  0  0  0  0  0  0
  -10.3690    6.4540   -1.6170 C   0  0  2  0  0  0  0  0  0  0  0  0
  -11.5790    6.3220   -2.5580 C   0  0  0  0  0  0  0  0  0  0  0  0
  -12.5560    7.4490   -2.5030 C   0  0  0  0  0  0  0  0  0  0  0  0
  -12.6200    8.3820   -1.5350 C   0  0  0  0  0  0  0  0  0  0  0  0
  -11.7100    8.3020   -0.3020 C   0  0  1  0  0  0  0  0  0  0  0  0
  -12.5500    8.5460    0.9790 C   0  0  0  0  0  0  0  0  0  0  0  0
  -13.3400    9.8500    0.9210 C   0  0  0  0  0  0  0  0  0  0  0  0
  -14.2760    9.8670   -0.2850 C   0  0  2  0  0  0  0  0  0  0  0  0
  -15.2870    8.8710   -0.0990 O   0  0  0  0  0  0  0  0  0  0  0  0
  -13.5430    9.6220   -1.6340 C   0  0  0  0  0  0  0  0  0  0  0  0
  -12.6690   10.8520   -1.9820 C   0  0  0  0  0  0  0  0  0  0  0  0
  -14.6170    9.5220   -2.7500 C   0  0  0  0  0  0  0  0  0  0  0  0
  -10.7990    7.0040   -0.1960 C   0  0  1  0  0  0  0  0  0  0  0  0
  -11.5870    5.8570    0.5060 C   0  0  0  0  0  0  0  0  0  0  0  0
   -9.5600    7.3200    0.7230 C   0  0  0  0  0  0  0  0  0  0  0  0
   -8.3190    7.9190    0.0350 C   0  0  0  0  0  0  0  0  0  0  0  0
   -7.9360    7.1090   -1.2070 C   0  0  2  0  0  0  0  0  0  0  0  0
   -7.5530    5.6650   -0.7370 C   0  0  0  0  0  0  0  0  0  0  0  0
   -5.1458    8.1174    0.5079 H   0  0  0  0  0  0  0  0  0  0  0  0
   -3.9745    8.8532   -0.6380 H   0  0  0  0  0  0  0  0  0  0  0  0
   -5.6888    9.3897   -0.6380 H   0  0  0  0  0  0  0  0  0  0  0  0
   -5.2846    6.4756   -1.0382 H   0  0  0  0  0  0  0  0  0  0  0  0
   -4.7013    6.7129   -3.4594 H   0  0  0  0  0  0  0  0  0  0  0  0
   -4.3135    8.4655   -3.1106 H   0  0  0  0  0  0  0  0  0  0  0  0
   -2.8858    6.9705   -1.2049 H   0  0  0  0  0  0  0  0  0  0  0  0
   -2.6677    6.1152   -2.7887 H   0  0  0  0  0  0  0  0  0  0  0  0
   -2.4882    8.2754   -3.6690 H   0  0  0  0  0  0  0  0  0  0  0  0
   -0.5626    9.1585    0.2462 H   0  0  0  0  0  0  0  0  0  0  0  0
   -2.2206    9.7899   -0.0352 H   0  0  0  0  0  0  0  0  0  0  0  0
   -1.9220    8.0186   -0.0352 H   0  0  0  0  0  0  0  0  0  0  0  0
   -0.3822   10.9763   -1.4745 H   0  0  0  0  0  0  0  0  0  0  0  0
    0.2136   10.1027   -2.9266 H   0  0  0  0  0  0  0  0  0  0  0  0
   -1.4293   10.8291   -2.9266 H   0  0  0  0  0  0  0  0  0  0  0  0
   -6.8016    8.7615   -2.0783 H   0  0  0  0  0  0  0  0  0  0  0  0
   -6.8427    7.7079   -4.2529 H   0  0  0  0  0  0  0  0  0  0  0  0
   -6.3003    6.1498   -3.5939 H   0  0  0  0  0  0  0  0  0  0  0  0
   -8.9744    6.7801   -4.3826 H   0  0  0  0  0  0  0  0  0  0  0  0
   -8.5381    5.3875   -3.3956 H   0  0  0  0  0  0  0  0  0  0  0  0
   -9.6407    9.2689   -1.8606 H   0  0  0  0  0  0  0  0  0  0  0  0
   -8.6507    9.0047   -3.3360 H   0  0  0  0  0  0  0  0  0  0  0  0
  -10.3949    8.5754   -3.3360 H   0  0  0  0  0  0  0  0  0  0  0  0
   -9.9967    5.4303   -1.4638 H   0  0  0  0  0  0  0  0  0  0  0  0
  -11.2016    6.2495   -3.5887 H   0  0  0  0  0  0  0  0  0  0  0  0
  -12.1269    5.4281   -2.2252 H   0  0  0  0  0  0  0  0  0  0  0  0
  -13.2855    7.5234   -3.3230 H   0  0  0  0  0  0  0  0  0  0  0  0
  -10.9676    9.1051   -0.4197 H   0  0  0  0  0  0  0  0  0  0  0  0
  -13.2558    7.7113    1.1022 H   0  0  0  0  0  0  0  0  0  0  0  0
  -11.8530    8.6153    1.8272 H   0  0  0  0  0  0  0  0  0  0  0  0
  -13.9354    9.9515    1.8404 H   0  0  0  0  0  0  0  0  0  0  0  0
  -12.6314   10.6862    0.8276 H   0  0  0  0  0  0  0  0  0  0  0  0
  -14.7162   10.8732   -0.3458 H   0  0  0  0  0  0  0  0  0  0  0  0
  -15.7870    8.8000   -0.9290 H   0  0  0  0  0  0  0  0  0  0  0  0
  -12.3271   11.3332   -1.0538 H   0  0  0  0  0  0  0  0  0  0  0  0
  -11.7974   10.5280   -2.5697 H   0  0  0  0  0  0  0  0  0  0  0  0
  -13.2617   11.5685   -2.5697 H   0  0  0  0  0  0  0  0  0  0  0  0
  -15.6132    9.4292   -2.2929 H   0  0  0  0  0  0  0  0  0  0  0  0
  -14.5827   10.4272   -3.3740 H   0  0  0  0  0  0  0  0  0  0  0  0
  -14.4162    8.6387   -3.3740 H   0  0  0  0  0  0  0  0  0  0  0  0
  -11.5079    5.9722    1.5971 H   0  0  0  0  0  0  0  0  0  0  0  0
  -12.6449    5.9032    0.2082 H   0  0  0  0  0  0  0  0  0  0  0  0
  -11.1643    4.8861    0.2082 H   0  0  0  0  0  0  0  0  0  0  0  0
   -9.8901    8.0329    1.4929 H   0  0  0  0  0  0  0  0  0  0  0  0
   -9.2317    6.3436    1.1087 H   0  0  0  0  0  0  0  0  0  0  0  0
   -8.5382    8.9545   -0.2643 H   0  0  0  0  0  0  0  0  0  0  0  0
   -7.4782    7.8927    0.7438 H   0  0  0  0  0  0  0  0  0  0  0  0
   -7.5431    5.6278    0.3623 H   0  0  0  0  0  0  0  0  0  0  0  0
   -8.2916    4.9462   -1.1216 H   0  0  0  0  0  0  0  0  0  0  0  0
   -6.5553    5.4068   -1.1216 H   0  0  0  0  0  0  0  0  0  0  0  0
  1  2  1  0
  2  3  1  0
  3  4  1  0
  4  5  1  0
  5  6  1  0
  6  7  1  0
  7  8  1  0
  7  9  1  0
  2 10  1  0
 10 11  1  0
 11 12  1  0
 12 13  1  0
 13 14  1  6
 13 15  1  0
 15 16  1  0
 16 17  1  0
 17 18  2  0
 18 19  1  0
 19 20  1  0
 20 21  1  0
 21 22  1  0
 22 23  1  0
 22 24  1  0
 24 25  1  0
 24 26  1  0
 19 27  1  0
 27 28  1  1
 27 29  1  0
 29 30  1  0
 30 31  1  0
 31 32  1  1
  7  5  1  0
 31 10  1  0
 31 13  1  0
 27 15  1  0
 24 18  1  0
  1 33  1  0
  1 34  1  0
  1 35  1  0
  2 36  1  1
  3 37  1  0
  3 38  1  0
  4 39  1  0
  4 40  1  0
  5 41  1  6
  8 42  1  0
  8 43  1  0
  8 44  1  0
  9 45  1  0
  9 46  1  0
  9 47  1  0
 10 48  1  6
 11 49  1  0
 11 50  1  0
 12 51  1  0
 12 52  1  0
 14 53  1  0
 14 54  1  0
 14 55  1  0
 15 56  1  1
 16 57  1  0
 16 58  1  0
 17 59  1  0
 19 60  1  6
 20 61  1  0
 20 62  1  0
 21 63  1  0
 21 64  1  0
 22 65  1  6
 23 66  1  0
 25 67  1  0
 25 68  1  0
 25 69  1  0
 26 70  1  0
 26 71  1  0
 26 72  1  0
 28 73  1  0
 28 74  1  0
 28 75  1  0
 29 76  1  0
 29 77  1  0
 30 78  1  0
 30 79  1  0
 32 80  1  0
 32 81  1  0
 32 82  1  0
M  END
>  <meeko>  (2) 
{"is_sidechain": [false], "intermolecular_energy": 2.731, "internal_energy": -0.839}

$$$$
EPH_relaxed_0001_pdb2pqr_Repair_208_r2_0001_out
     RDKit          3D

 82 86  0  0  0  0  0  0  0  0999 V2000
   -1.0880   13.1720    4.1930 C   0  0  0  0  0  0  0  0  0  0  0  0
   -0.3020   14.1410    3.3060 C   0  0  2  0  0  0  0  0  0  0  0  0
   -1.2290   15.0180    2.4400 C   0  0  0  0  0  0  0  0  0  0  0  0
   -0.6880   16.4280    2.1920 C   0  0  0  0  0  0  0  0  0  0  0  0
   -1.5580   17.1970    1.2450 C   0  0  2  0  0  0  0  0  0  0  0  0
   -1.0320   17.3240   -0.0830 O   0  0  0  0  0  0  0  0  0  0  0  0
   -1.1740   18.5440    0.6620 C   0  0  0  0  0  0  0  0  0  0  0  0
    0.1260   19.2010    1.0060 C   0  0  0  0  0  0  0  0  0  0  0  0
   -2.2600   19.4390    0.1510 C   0  0  0  0  0  0  0  0  0  0  0  0
    0.6620   13.3660    2.4160 C   0  0  1  0  0  0  0  0  0  0  0  0
    1.3540   12.1940    3.1620 C   0  0  0  0  0  0  0  0  0  0  0  0
    1.5330   11.0500    2.1310 C   0  0  0  0  0  0  0  0  0  0  0  0
    1.2490   11.7120    0.7620 C   0  0  1  0  0  0  0  0  0  0  0  0
    2.5790   12.4340    0.3810 C   0  0  0  0  0  0  0  0  0  0  0  0
    0.7630   10.7590   -0.3780 C   0  0  2  0  0  0  0  0  0  0  0  0
    1.7670    9.6670   -0.7880 C   0  0  0  0  0  0  0  0  0  0  0  0
    2.7050   10.0440   -1.8870 C   0  0  0  0  0  0  0  0  0  0  0  0
    2.5610   11.0980   -2.7110 C   0  0  0  0  0  0  0  0  0  0  0  0
    1.3120   11.9860   -2.6440 C   0  0  1  0  0  0  0  0  0  0  0  0
    0.7760   12.2350   -4.0780 C   0  0  0  0  0  0  0  0  0  0  0  0
    1.8430   12.7990   -5.0120 C   0  0  0  0  0  0  0  0  0  0  0  0
    3.0440   11.8610   -5.0970 C   0  0  2  0  0  0  0  0  0  0  0  0
    2.6380   10.6510   -5.7450 O   0  0  0  0  0  0  0  0  0  0  0  0
    3.6630   11.5300   -3.7110 C   0  0  0  0  0  0  0  0  0  0  0  0
    4.3700   12.7850   -3.1430 C   0  0  0  0  0  0  0  0  0  0  0  0
    4.7730   10.4660   -3.9250 C   0  0  0  0  0  0  0  0  0  0  0  0
    0.1750   11.5070   -1.6420 C   0  0  1  0  0  0  0  0  0  0  0  0
   -0.7730   10.4960   -2.3570 C   0  0  0  0  0  0  0  0  0  0  0  0
   -0.7140   12.7440   -1.2440 C   0  0  0  0  0  0  0  0  0  0  0  0
   -0.2460   13.5770   -0.0350 C   0  0  0  0  0  0  0  0  0  0  0  0
    0.0720   12.6750    1.1610 C   0  0  2  0  0  0  0  0  0  0  0  0
   -1.2530   11.9510    1.5800 C   0  0  0  0  0  0  0  0  0  0  0  0
   -0.8977   13.4066    5.2507 H   0  0  0  0  0  0  0  0  0  0  0  0
   -2.1631   13.2724    3.9828 H   0  0  0  0  0  0  0  0  0  0  0  0
   -0.7680   12.1408    3.9828 H   0  0  0  0  0  0  0  0  0  0  0  0
    0.2628   14.8124    3.9695 H   0  0  0  0  0  0  0  0  0  0  0  0
   -1.3664   14.5228    1.4674 H   0  0  0  0  0  0  0  0  0  0  0  0
   -2.1739   15.1291    2.9920 H   0  0  0  0  0  0  0  0  0  0  0  0
   -0.6420   16.9658    3.1505 H   0  0  0  0  0  0  0  0  0  0  0  0
    0.3118   16.3374    1.7423 H   0  0  0  0  0  0  0  0  0  0  0  0
   -2.4659   16.8467    1.7579 H   0  0  0  0  0  0  0  0  0  0  0  0
    0.2317   19.2544    2.0996 H   0  0  0  0  0  0  0  0  0  0  0  0
    0.9560   18.6141    0.5856 H   0  0  0  0  0  0  0  0  0  0  0  0
    0.1457   20.2173    0.5856 H   0  0  0  0  0  0  0  0  0  0  0  0
   -2.7991   19.8833    1.0007 H   0  0  0  0  0  0  0  0  0  0  0  0
   -1.8182   20.2387   -0.4616 H   0  0  0  0  0  0  0  0  0  0  0  0
   -2.9606   18.8525   -0.4616 H   0  0  0  0  0  0  0  0  0  0  0  0
    1.3327   14.1843    2.1150 H   0  0  0  0  0  0  0  0  0  0  0  0
    2.3338   12.5150    3.5453 H   0  0  0  0  0  0  0  0  0  0  0  0
    0.7511   11.8614    4.0198 H   0  0  0  0  0  0  0  0  0  0  0  0
    2.5583   10.6530    2.1653 H   0  0  0  0  0  0  0  0  0  0  0  0
    0.8642   10.1997    2.3304 H   0  0  0  0  0  0  0  0  0  0  0  0
    3.1140   12.7244    1.2972 H   0  0  0  0  0  0  0  0  0  0  0  0
    3.2087   11.7539   -0.2114 H   0  0  0  0  0  0  0  0  0  0  0  0
    2.3517   13.3326   -0.2114 H   0  0  0  0  0  0  0  0  0  0  0  0
   -0.0757   10.2304    0.0986 H   0  0  0  0  0  0  0  0  0  0  0  0
    2.3668    9.4070    0.0967 H   0  0  0  0  0  0  0  0  0  0  0  0
    1.1662    8.8303   -1.1739 H   0  0  0  0  0  0  0  0  0  0  0  0
    3.5887    9.4060   -2.0356 H   0  0  0  0  0  0  0  0  0  0  0  0
    1.6380   12.9370   -2.1976 H   0  0  0  0  0  0  0  0  0  0  0  0
    0.4152   11.2811   -4.4901 H   0  0  0  0  0  0  0  0  0  0  0  0
   -0.0326   12.9775   -4.0079 H   0  0  0  0  0  0  0  0  0  0  0  0
    1.4124   12.9246   -6.0164 H   0  0  0  0  0  0  0  0  0  0  0  0
    2.1811   13.7675   -4.6149 H   0  0  0  0  0  0  0  0  0  0  0  0
    3.8260   12.3774   -5.6730 H   0  0  0  0  0  0  0  0  0  0  0  0
    3.4280   10.2560   -6.1520 H   0  0  0  0  0  0  0  0  0  0  0  0
    4.3507   12.7507   -2.0437 H   0  0  0  0  0  0  0  0  0  0  0  0
    5.4133   12.8071   -3.4909 H   0  0  0  0  0  0  0  0  0  0  0  0
    3.8483   13.6888   -3.4909 H   0  0  0  0  0  0  0  0  0  0  0  0
    5.1384   10.1158   -2.9484 H   0  0  0  0  0  0  0  0  0  0  0  0
    4.3621    9.6158   -4.4891 H   0  0  0  0  0  0  0  0  0  0  0  0
    5.6051   10.9125   -4.4891 H   0  0  0  0  0  0  0  0  0  0  0  0
   -1.3211    9.9114   -1.6034 H   0  0  0  0  0  0  0  0  0  0  0  0
   -1.4884   11.0461   -2.9859 H   0  0  0  0  0  0  0  0  0  0  0  0
   -0.1781    9.8174   -2.9859 H   0  0  0  0  0  0  0  0  0  0  0  0
   -0.7576   13.4158   -2.1139 H   0  0  0  0  0  0  0  0  0  0  0  0
   -1.6816   12.3171   -0.9415 H   0  0  0  0  0  0  0  0  0  0  0  0
    0.6582   14.1384   -0.3130 H   0  0  0  0  0  0  0  0  0  0  0  0
   -1.0543   14.2664    0.2503 H   0  0  0  0  0  0  0  0  0  0  0  0
   -1.3197   11.9146    2.6774 H   0  0  0  0  0  0  0  0  0  0  0  0
   -2.1154   12.5033    1.1784 H   0  0  0  0  0  0  0  0  0  0  0  0
   -1.2541   10.9269    1.1784 H   0  0  0  0  0  0  0  0  0  0  0  0
  1  2  1  0
  2  3  1  0
  3  4  1  0
  4  5  1  0
  5  6  1  0
  6  7  1  0
  7  8  1  0
  7  9  1  0
  2 10  1  0
 10 11  1  0
 11 12  1  0
 12 13  1  0
 13 14  1  6
 13 15  1  0
 15 16  1  0
 16 17  1  0
 17 18  2  0
 18 19  1  0
 19 20  1  0
 20 21  1  0
 21 22  1  0
 22 23  1  0
 22 24  1  0
 24 25  1  0
 24 26  1  0
 19 27  1  0
 27 28  1  6
 27 29  1  0
 29 30  1  0
 30 31  1  0
 31 32  1  1
  7  5  1  0
 31 10  1  0
 31 13  1  0
 27 15  1  0
 24 18  1  0
  1 33  1  0
  1 34  1  0
  1 35  1  0
  2 36  1  1
  3 37  1  0
  3 38  1  0
  4 39  1  0
  4 40  1  0
  5 41  1  6
  8 42  1  0
  8 43  1  0
  8 44  1  0
  9 45  1  0
  9 46  1  0
  9 47  1  0
 10 48  1  6
 11 49  1  0
 11 50  1  0
 12 51  1  0
 12 52  1  0
 14 53  1  0
 14 54  1  0
 14 55  1  0
 15 56  1  1
 16 57  1  0
 16 58  1  0
 17 59  1  0
 19 60  1  1
 20 61  1  0
 20 62  1  0
 21 63  1  0
 21 64  1  0
 22 65  1  6
 23 66  1  0
 25 67  1  0
 25 68  1  0
 25 69  1  0
 26 70  1  0
 26 71  1  0
 26 72  1  0
 28 73  1  0
 28 74  1  0
 28 75  1  0
 29 76  1  0
 29 77  1  0
 30 78  1  0
 30 79  1  0
 32 80  1  0
 32 81  1  0
 32 82  1  0
M  END
>  <meeko>  (3) 
{"is_sidechain": [false], "intermolecular_energy": 2.731, "internal_energy": -0.839}

$$$$
EPH_relaxed_0001_pdb2pqr_Repair_208_r2_0001_out
     RDKit          3D

 82 86  0  0  0  0  0  0  0  0999 V2000
    0.0240   16.1760   -5.4290 C   0  0  0  0  0  0  0  0  0  0  0  0
    0.7690   15.2880   -6.4300 C   0  0  2  0  0  0  0  0  0  0  0  0
    0.0670   15.2430   -7.8020 C   0  0  0  0  0  0  0  0  0  0  0  0
    0.5440   16.3280   -8.7720 C   0  0  0  0  0  0  0  0  0  0  0  0
    1.9200   16.0400   -9.2920 C   0  0  2  0  0  0  0  0  0  0  0  0
    2.2470   16.7040  -10.5190 O   0  0  0  0  0  0  0  0  0  0  0  0
    2.1880   15.2700  -10.5710 C   0  0  0  0  0  0  0  0  0  0  0  0
    1.0680   14.7370  -11.4100 C   0  0  0  0  0  0  0  0  0  0  0  0
    3.5230   14.6170  -10.7470 C   0  0  0  0  0  0  0  0  0  0  0  0
    0.9080   13.8770   -5.8690 C   0  0  1  0  0  0  0  0  0  0  0  0
    2.2570   13.2120   -6.2510 C   0  0  0  0  0  0  0  0  0  0  0  0
    2.6770   12.3290   -5.0480 C   0  0  0  0  0  0  0  0  0  0  0  0
    1.4120   12.2510   -4.1620 C   0  0  1  0  0  0  0  0  0  0  0  0
    0.5260   11.1490   -4.8230 C   0  0  0  0  0  0  0  0  0  0  0  0
    1.6500   11.9660   -2.6430 C   0  0  2  0  0  0  0  0  0  0  0  0
    2.3060   10.6110   -2.3280 C   0  0  0  0  0  0  0  0  0  0  0  0
    1.3580    9.4800   -2.1040 C   0  0  0  0  0  0  0  0  0  0  0  0
    0.0370    9.6010   -1.8710 C   0  0  0  0  0  0  0  0  0  0  0  0
   -0.6120   10.9820   -1.7180 C   0  0  1  0  0  0  0  0  0  0  0  0
   -1.5480   10.9800   -0.4810 C   0  0  0  0  0  0  0  0  0  0  0  0
   -2.5750    9.8530   -0.5260 C   0  0  0  0  0  0  0  0  0  0  0  0
   -1.8900    8.4930   -0.6190 C   0  0  2  0  0  0  0  0  0  0  0  0
   -1.1800    8.2500    0.5990 O   0  0  0  0  0  0  0  0  0  0  0  0
   -0.9140    8.3800   -1.8240 C   0  0  0  0  0  0  0  0  0  0  0  0
   -1.7210    8.3410   -3.1450 C   0  0  0  0  0  0  0  0  0  0  0  0
   -0.1840    7.0130   -1.7210 C   0  0  0  0  0  0  0  0  0  0  0  0
    0.3820   12.2210   -1.7290 C   0  0  1  0  0  0  0  0  0  0  0  0
    0.9180   12.4870   -0.2890 C   0  0  0  0  0  0  0  0  0  0  0  0
   -0.4110   13.5130   -2.1540 C   0  0  0  0  0  0  0  0  0  0  0  0
   -0.5080   13.8040   -3.6630 C   0  0  0  0  0  0  0  0  0  0  0  0
    0.8680   13.7170   -4.3290 C   0  0  2  0  0  0  0  0  0  0  0  0
    1.7750   14.8280   -3.7000 C   0  0  0  0  0  0  0  0  0  0  0  0
    0.2813   15.8693   -4.4044 H   0  0  0  0  0  0  0  0  0  0  0  0
    0.3159   17.2255   -5.5818 H   0  0  0  0  0  0  0  0  0  0  0  0
   -1.0603   16.0710   -5.5818 H   0  0  0  0  0  0  0  0  0  0  0  0
    1.7657   15.7271   -6.5843 H   0  0  0  0  0  0  0  0  0  0  0  0
    0.2583   14.2605   -8.2582 H   0  0  0  0  0  0  0  0  0  0  0  0
   -1.0036   15.4201   -7.6219 H   0  0  0  0  0  0  0  0  0  0  0  0
   -0.1542   16.3798   -9.6204 H   0  0  0  0  0  0  0  0  0  0  0  0
    0.5756   17.2840   -8.2289 H   0  0  0  0  0  0  0  0  0  0  0  0
    2.3081   15.9282   -8.2688 H   0  0  0  0  0  0  0  0  0  0  0  0
    0.2691   14.3568  -10.7564 H   0  0  0  0  0  0  0  0  0  0  0  0
    0.6702   15.5423  -12.0450 H   0  0  0  0  0  0  0  0  0  0  0  0
    1.4420   13.9203  -12.0450 H   0  0  0  0  0  0  0  0  0  0  0  0
    3.9596   14.4034   -9.7602 H   0  0  0  0  0  0  0  0  0  0  0  0
    3.4007   13.6770  -11.3051 H   0  0  0  0  0  0  0  0  0  0  0  0
    4.1899   15.2906  -11.3051 H   0  0  0  0  0  0  0  0  0  0  0  0
    0.0184   13.4117   -6.3186 H   0  0  0  0  0  0  0  0  0  0  0  0
    2.1321   12.5917   -7.1508 H   0  0  0  0  0  0  0  0  0  0  0  0
    3.0229   13.9704   -6.4706 H   0  0  0  0  0  0  0  0  0  0  0  0
    2.9758   11.3263   -5.3877 H   0  0  0  0  0  0  0  0  0  0  0  0
    3.5405   12.7436   -4.5072 H   0  0  0  0  0  0  0  0  0  0  0  0
    0.0427   10.5478   -4.0388 H   0  0  0  0  0  0  0  0  0  0  0  0
   -0.2445   11.6240   -5.4480 H   0  0  0  0  0  0  0  0  0  0  0  0
    1.1554   10.4985   -5.4480 H   0  0  0  0  0  0  0  0  0  0  0  0
    2.3961   12.7283   -2.3744 H   0  0  0  0  0  0  0  0  0  0  0  0
    2.9588   10.3450   -3.1724 H   0  0  0  0  0  0  0  0  0  0  0  0
    2.8459   10.7477   -1.3794 H   0  0  0  0  0  0  0  0  0  0  0  0
    1.7733    8.4618   -2.1315 H   0  0  0  0  0  0  0  0  0  0  0  0
   -1.2018   11.1433   -2.6324 H   0  0  0  0  0  0  0  0  0  0  0  0
   -0.9350   10.8624    0.4248 H   0  0  0  0  0  0  0  0  0  0  0  0
   -2.0979   11.9327   -0.4770 H   0  0  0  0  0  0  0  0  0  0  0  0
   -3.1860    9.8863    0.3881 H   0  0  0  0  0  0  0  0  0  0  0  0
   -3.2063    9.9892   -1.4165 H   0  0  0  0  0  0  0  0  0  0  0  0
   -2.6746    7.7387   -0.7786 H   0  0  0  0  0  0  0  0  0  0  0  0
   -0.2550    8.5140    0.4590 H   0  0  0  0  0  0  0  0  0  0  0  0
   -2.7958    8.2891   -2.9167 H   0  0  0  0  0  0  0  0  0  0  0  0
   -1.5136    9.2502   -3.7284 H   0  0  0  0  0  0  0  0  0  0  0  0
   -1.4269    7.4560   -3.7284 H   0  0  0  0  0  0  0  0  0  0  0  0
   -0.0441    6.7509   -0.6619 H   0  0  0  0  0  0  0  0  0  0  0  0
   -0.7877    6.2369   -2.2141 H   0  0  0  0  0  0  0  0  0  0  0  0
    0.7968    7.0830   -2.2141 H   0  0  0  0  0  0  0  0  0  0  0  0
    0.1862   12.1238    0.4476 H   0  0  0  0  0  0  0  0  0  0  0  0
    1.8722   11.9579   -0.1494 H   0  0  0  0  0  0  0  0  0  0  0  0
    1.0737   13.5669   -0.1494 H   0  0  0  0  0  0  0  0  0  0  0  0
   -1.4362   13.4163   -1.7673 H   0  0  0  0  0  0  0  0  0  0  0  0
    0.1626   14.3531   -1.7355 H   0  0  0  0  0  0  0  0  0  0  0  0
   -1.1800   13.0681   -4.1286 H   0  0  0  0  0  0  0  0  0  0  0  0
   -0.8988   14.8233   -3.7986 H   0  0  0  0  0  0  0  0  0  0  0  0
    1.7239   14.7654   -2.6030 H   0  0  0  0  0  0  0  0  0  0  0  0
    2.8148   14.6815   -4.0276 H   0  0  0  0  0  0  0  0  0  0  0  0
    1.4233   15.8174   -4.0276 H   0  0  0  0  0  0  0  0  0  0  0  0
  1  2  1  0
  2  3  1  0
  3  4  1  0
  4  5  1  0
  5  6  1  0
  6  7  1  0
  7  8  1  0
  7  9  1  0
  2 10  1  0
 10 11  1  0
 11 12  1  0
 12 13  1  0
 13 14  1  6
 13 15  1  0
 15 16  1  0
 16 17  1  0
 17 18  2  0
 18 19  1  0
 19 20  1  0
 20 21  1  0
 21 22  1  0
 22 23  1  0
 22 24  1  0
 24 25  1  0
 24 26  1  0
 19 27  1  0
 27 28  1  1
 27 29  1  0
 29 30  1  0
 30 31  1  0
 31 32  1  1
  7  5  1  0
 31 10  1  0
 31 13  1  0
 27 15  1  0
 24 18  1  0
  1 33  1  0
  1 34  1  0
  1 35  1  0
  2 36  1  6
  3 37  1  0
  3 38  1  0
  4 39  1  0
  4 40  1  0
  5 41  1  1
  8 42  1  0
  8 43  1  0
  8 44  1  0
  9 45  1  0
  9 46  1  0
  9 47  1  0
 10 48  1  6
 11 49  1  0
 11 50  1  0
 12 51  1  0
 12 52  1  0
 14 53  1  0
 14 54  1  0
 14 55  1  0
 15 56  1  1
 16 57  1  0
 16 58  1  0
 17 59  1  0
 19 60  1  6
 20 61  1  0
 20 62  1  0
 21 63  1  0
 21 64  1  0
 22 65  1  6
 23 66  1  0
 25 67  1  0
 25 68  1  0
 25 69  1  0
 26 70  1  0
 26 71  1  0
 26 72  1  0
 28 73  1  0
 28 74  1  0
 28 75  1  0
 29 76  1  0
 29 77  1  0
 30 78  1  0
 30 79  1  0
 32 80  1  0
 32 81  1  0
 32 82  1  0
M  END
>  <meeko>  (4) 
{"is_sidechain": [false], "intermolecular_energy": 2.731, "internal_energy": -0.839}

$$$$
EPH_relaxed_0001_pdb2pqr_Repair_208_r2_0001_out
     RDKit          3D

 82 86  0  0  0  0  0  0  0  0999 V2000
    0.0680   14.8340   -4.1950 C   0  0  0  0  0  0  0  0  0  0  0  0
    1.2290   13.8570   -4.4010 C   0  0  2  0  0  0  0  0  0  0  0  0
    1.9020   14.0380   -5.7760 C   0  0  0  0  0  0  0  0  0  0  0  0
    1.1770   15.0280   -6.6920 C   0  0  0  0  0  0  0  0  0  0  0  0
    1.8290   15.1180   -8.0380 C   0  0  2  0  0  0  0  0  0  0  0  0
    2.2870   16.4280   -8.3950 O   0  0  0  0  0  0  0  0  0  0  0  0
    1.2340   15.8820   -9.2060 C   0  0  0  0  0  0  0  0  0  0  0  0
   -0.0690   16.6080   -9.0820 C   0  0  0  0  0  0  0  0  0  0  0  0
    1.6670   15.5200  -10.5930 C   0  0  0  0  0  0  0  0  0  0  0  0
    0.7350   12.4230   -4.2470 C   0  0  1  0  0  0  0  0  0  0  0  0
    1.8280   11.3760   -4.5870 C   0  0  0  0  0  0  0  0  0  0  0  0
    1.6090   10.1740   -3.6320 C   0  0  0  0  0  0  0  0  0  0  0  0
    0.2150   10.4200   -3.0100 C   0  0  1  0  0  0  0  0  0  0  0  0
   -0.7980    9.9130   -4.0830 C   0  0  0  0  0  0  0  0  0  0  0  0
   -0.0450    9.7630   -1.6150 C   0  0  2  0  0  0  0  0  0  0  0  0
    0.0110    8.2250   -1.5980 C   0  0  0  0  0  0  0  0  0  0  0  0
   -1.2890    7.5360   -1.8510 C   0  0  0  0  0  0  0  0  0  0  0  0
   -2.5030    8.1150   -1.8010 C   0  0  0  0  0  0  0  0  0  0  0  0
   -2.6610    9.5780   -1.3670 C   0  0  1  0  0  0  0  0  0  0  0  0
   -3.8180    9.6910   -0.3400 C   0  0  0  0  0  0  0  0  0  0  0  0
   -5.1220    9.0930   -0.8590 C   0  0  0  0  0  0  0  0  0  0  0  0
   -4.9390    7.6220   -1.2250 C   0  0  2  0  0  0  0  0  0  0  0  0
   -4.6810    6.8780   -0.0300 O   0  0  0  0  0  0  0  0  0  0  0  0
   -3.7930    7.3830   -2.2470 C   0  0  0  0  0  0  0  0  0  0  0  0
   -4.2080    7.9330   -3.6340 C   0  0  0  0  0  0  0  0  0  0  0  0
   -3.6210    5.8500   -2.4220 C   0  0  0  0  0  0  0  0  0  0  0  0
   -1.3350   10.3020   -0.8750 C   0  0  1  0  0  0  0  0  0  0  0  0
   -1.1180   10.0380    0.6470 C   0  0  0  0  0  0  0  0  0  0  0  0
   -1.5100   11.8590   -1.0350 C   0  0  0  0  0  0  0  0  0  0  0  0
   -1.1230   12.4650   -2.3970 C   0  0  0  0  0  0  0  0  0  0  0  0
    0.2610   11.9820   -2.8390 C   0  0  2  0  0  0  0  0  0  0  0  0
    1.3050   12.4960   -1.7900 C   0  0  0  0  0  0  0  0  0  0  0  0
   -0.1032   14.9781   -3.1180 H   0  0  0  0  0  0  0  0  0  0  0  0
    0.3149   15.8001   -4.6595 H   0  0  0  0  0  0  0  0  0  0  0  0
   -0.8417   14.4257   -4.6595 H   0  0  0  0  0  0  0  0  0  0  0  0
    1.9852   14.0739   -3.6322 H   0  0  0  0  0  0  0  0  0  0  0  0
    2.9278   14.4012   -5.6152 H   0  0  0  0  0  0  0  0  0  0  0  0
    1.8764   13.0591   -6.2772 H   0  0  0  0  0  0  0  0  0  0  0  0
    0.1360   14.6970   -6.8217 H   0  0  0  0  0  0  0  0  0  0  0  0
    1.2192   16.0224   -6.2236 H   0  0  0  0  0  0  0  0  0  0  0  0
    2.2130   14.0912   -7.9468 H   0  0  0  0  0  0  0  0  0  0  0  0
   -0.3131   16.7440   -8.0181 H   0  0  0  0  0  0  0  0  0  0  0  0
    0.0114   17.5913   -9.5684 H   0  0  0  0  0  0  0  0  0  0  0  0
   -0.8629   16.0222   -9.5684 H   0  0  0  0  0  0  0  0  0  0  0  0
    2.5100   14.8152  -10.5417 H   0  0  0  0  0  0  0  0  0  0  0  0
    0.8285   15.0504  -11.1281 H   0  0  0  0  0  0  0  0  0  0  0  0
    1.9806   16.4285  -11.1281 H   0  0  0  0  0  0  0  0  0  0  0  0
   -0.1179   12.4453   -4.9413 H   0  0  0  0  0  0  0  0  0  0  0  0
    1.7291   11.0513   -5.6333 H   0  0  0  0  0  0  0  0  0  0  0  0
    2.8347   11.8013   -4.4620 H   0  0  0  0  0  0  0  0  0  0  0  0
    1.6234    9.2265   -4.1905 H   0  0  0  0  0  0  0  0  0  0  0  0
    2.3985   10.0971   -2.8699 H   0  0  0  0  0  0  0  0  0  0  0  0
   -1.6738    9.4747   -3.5822 H   0  0  0  0  0  0  0  0  0  0  0  0
   -1.1191   10.7566   -4.7116 H   0  0  0  0  0  0  0  0  0  0  0  0
   -0.3152    9.1503   -4.7116 H   0  0  0  0  0  0  0  0  0  0  0  0
    0.8230   10.1006   -1.0297 H   0  0  0  0  0  0  0  0  0  0  0  0
    0.7228    7.9024   -2.3721 H   0  0  0  0  0  0  0  0  0  0  0  0
    0.3110    7.9430   -0.5780 H   0  0  0  0  0  0  0  0  0  0  0  0
   -1.2515    6.4650   -2.0992 H   0  0  0  0  0  0  0  0  0  0  0  0
   -2.9144   10.1401   -2.2779 H   0  0  0  0  0  0  0  0  0  0  0  0
   -3.5274    9.1597    0.5783 H   0  0  0  0  0  0  0  0  0  0  0  0
   -3.9932   10.7604   -0.1511 H   0  0  0  0  0  0  0  0  0  0  0  0
   -5.8925    9.1768   -0.0784 H   0  0  0  0  0  0  0  0  0  0  0  0
   -5.4272    9.6442   -1.7607 H   0  0  0  0  0  0  0  0  0  0  0  0
   -5.8670    7.2850   -1.7101 H   0  0  0  0  0  0  0  0  0  0  0  0
   -5.4210    6.2610    0.0980 H   0  0  0  0  0  0  0  0  0  0  0  0
   -4.8657    8.8046   -3.5010 H   0  0  0  0  0  0  0  0  0  0  0  0
   -3.3096    8.2335   -4.1931 H   0  0  0  0  0  0  0  0  0  0  0  0
   -4.7435    7.1515   -4.1931 H   0  0  0  0  0  0  0  0  0  0  0  0
   -3.5673    5.3718   -1.4328 H   0  0  0  0  0  0  0  0  0  0  0  0
   -4.4794    5.4459   -2.9786 H   0  0  0  0  0  0  0  0  0  0  0  0
   -2.6944    5.6462   -2.9786 H   0  0  0  0  0  0  0  0  0  0  0  0
   -1.7095   10.7577    1.2320 H   0  0  0  0  0  0  0  0  0  0  0  0
   -1.4396    9.0148    0.8912 H   0  0  0  0  0  0  0  0  0  0  0  0
   -0.0519   10.1554    0.8912 H   0  0  0  0  0  0  0  0  0  0  0  0
   -2.5691   12.0951   -0.8546 H   0  0  0  0  0  0  0  0  0  0  0  0
   -0.8092   12.3031   -0.3128 H   0  0  0  0  0  0  0  0  0  0  0  0
   -1.8666   12.1632   -3.1493 H   0  0  0  0  0  0  0  0  0  0  0  0
   -1.0971   13.5603   -2.2986 H   0  0  0  0  0  0  0  0  0  0  0  0
    0.9263   12.3096   -0.7742 H   0  0  0  0  0  0  0  0  0  0  0  0
    2.2575   11.9639   -1.9296 H   0  0  0  0  0  0  0  0  0  0  0  0
    1.4641   13.5754   -1.9296 H   0  0  0  0  0  0  0  0  0  0  0  0
  1  2  1  0
  2  3  1  0
  3  4  1  0
  4  5  1  0
  5  6  1  0
  6  7  1  0
  7  8  1  0
  7  9  1  0
  2 10  1  0
 10 11  1  0
 11 12  1  0
 12 13  1  0
 13 14  1  6
 13 15  1  0
 15 16  1  0
 16 17  1  0
 17 18  2  0
 18 19  1  0
 19 20  1  0
 20 21  1  0
 21 22  1  0
 22 23  1  0
 22 24  1  0
 24 25  1  0
 24 26  1  0
 19 27  1  0
 27 28  1  1
 27 29  1  0
 29 30  1  0
 30 31  1  0
 31 32  1  1
  7  5  1  0
 31 10  1  0
 31 13  1  0
 27 15  1  0
 24 18  1  0
  1 33  1  0
  1 34  1  0
  1 35  1  0
  2 36  1  1
  3 37  1  0
  3 38  1  0
  4 39  1  0
  4 40  1  0
  5 41  1  6
  8 42  1  0
  8 43  1  0
  8 44  1  0
  9 45  1  0
  9 46  1  0
  9 47  1  0
 10 48  1  6
 11 49  1  0
 11 50  1  0
 12 51  1  0
 12 52  1  0
 14 53  1  0
 14 54  1  0
 14 55  1  0
 15 56  1  1
 16 57  1  0
 16 58  1  0
 17 59  1  0
 19 60  1  6
 20 61  1  0
 20 62  1  0
 21 63  1  0
 21 64  1  0
 22 65  1  6
 23 66  1  0
 25 67  1  0
 25 68  1  0
 25 69  1  0
 26 70  1  0
 26 71  1  0
 26 72  1  0
 28 73  1  0
 28 74  1  0
 28 75  1  0
 29 76  1  0
 29 77  1  0
 30 78  1  0
 30 79  1  0
 32 80  1  0
 32 81  1  0
 32 82  1  0
M  END
>  <meeko>  (5) 
{"is_sidechain": [false], "intermolecular_energy": 2.731, "internal_energy": -0.839}

$$$$
EPH_relaxed_0001_pdb2pqr_Repair_208_r2_0001_out
     RDKit          3D

 82 86  0  0  0  0  0  0  0  0999 V2000
   -2.3630    7.6040   -0.0660 C   0  0  0  0  0  0  0  0  0  0  0  0
   -2.9960    8.9980   -0.0560 C   0  0  2  0  0  0  0  0  0  0  0  0
   -4.4990    8.9560   -0.4010 C   0  0  0  0  0  0  0  0  0  0  0  0
   -5.0640    7.5380   -0.5150 C   0  0  0  0  0  0  0  0  0  0  0  0
   -5.8090    7.3400   -1.8010 C   0  0  2  0  0  0  0  0  0  0  0  0
   -6.7050    8.4060   -2.1440 O   0  0  0  0  0  0  0  0  0  0  0  0
   -7.3100    7.1300   -1.8750 C   0  0  0  0  0  0  0  0  0  0  0  0
   -8.1560    7.1060   -0.6410 C   0  0  0  0  0  0  0  0  0  0  0  0
   -7.8810    6.4660   -3.0890 C   0  0  0  0  0  0  0  0  0  0  0  0
   -2.2630    9.9090   -1.0340 C   0  0  1  0  0  0  0  0  0  0  0  0
   -2.9650   11.2820   -1.2120 C   0  0  0  0  0  0  0  0  0  0  0  0
   -1.8440   12.3330   -1.4150 C   0  0  0  0  0  0  0  0  0  0  0  0
   -0.5690   11.4990   -1.6790 C   0  0  1  0  0  0  0  0  0  0  0  0
   -0.6490   11.1080   -3.1880 C   0  0  0  0  0  0  0  0  0  0  0  0
    0.7920   12.1870   -1.3320 C   0  0  2  0  0  0  0  0  0  0  0  0
    1.1060   13.4560   -2.1440 C   0  0  0  0  0  0  0  0  0  0  0  0
    1.8630   13.2320   -3.4100 C   0  0  0  0  0  0  0  0  0  0  0  0
    2.5210   12.1050   -3.7400 C   0  0  0  0  0  0  0  0  0  0  0  0
    2.6280   10.9380   -2.7500 C   0  0  1  0  0  0  0  0  0  0  0  0
    4.0930   10.4290   -2.7050 C   0  0  0  0  0  0  0  0  0  0  0  0
    4.6310   10.0730   -4.0870 C   0  0  0  0  0  0  0  0  0  0  0  0
    4.5620   11.2750   -5.0260 C   0  0  2  0  0  0  0  0  0  0  0  0
    5.4720   12.2760   -4.5600 O   0  0  0  0  0  0  0  0  0  0  0  0
    3.1350   11.8790   -5.1430 C   0  0  0  0  0  0  0  0  0  0  0  0
    2.2190   10.9040   -5.9230 C   0  0  0  0  0  0  0  0  0  0  0  0
    3.2310   13.1670   -6.0050 C   0  0  0  0  0  0  0  0  0  0  0  0
    2.0280   11.2000   -1.3010 C   0  0  1  0  0  0  0  0  0  0  0  0
    3.1060   11.8650   -0.3920 C   0  0  0  0  0  0  0  0  0  0  0  0
    1.6750    9.8190   -0.6330 C   0  0  0  0  0  0  0  0  0  0  0  0
    0.2720    9.2490   -0.9170 C   0  0  0  0  0  0  0  0  0  0  0  0
   -0.8090   10.3080   -0.6810 C   0  0  2  0  0  0  0  0  0  0  0  0
   -0.7670   10.7040    0.8350 C   0  0  0  0  0  0  0  0  0  0  0  0
   -2.2086    7.2640    0.9687 H   0  0  0  0  0  0  0  0  0  0  0  0
   -3.0306    6.9019   -0.5869 H   0  0  0  0  0  0  0  0  0  0  0  0
   -1.3950    7.6446   -0.5869 H   0  0  0  0  0  0  0  0  0  0  0  0
   -2.9023    9.3964    0.9650 H   0  0  0  0  0  0  0  0  0  0  0  0
   -5.0515    9.4877    0.3877 H   0  0  0  0  0  0  0  0  0  0  0  0
   -4.6162    9.4293   -1.3870 H   0  0  0  0  0  0  0  0  0  0  0  0
   -4.2332    6.8185   -0.4698 H   0  0  0  0  0  0  0  0  0  0  0  0
   -5.7669    7.3809    0.3164 H   0  0  0  0  0  0  0  0  0  0  0  0
   -4.9642    6.7827   -2.2319 H   0  0  0  0  0  0  0  0  0  0  0  0
   -7.5084    7.1244    0.2480 H   0  0  0  0  0  0  0  0  0  0  0  0
   -8.8162    7.9858   -0.6319 H   0  0  0  0  0  0  0  0  0  0  0  0
   -8.7653    6.1902   -0.6319 H   0  0  0  0  0  0  0  0  0  0  0  0
   -8.5693    5.6656   -2.7796 H   0  0  0  0  0  0  0  0  0  0  0  0
   -8.4276    7.2078   -3.6897 H   0  0  0  0  0  0  0  0  0  0  0  0
   -7.0657    6.0366   -3.6897 H   0  0  0  0  0  0  0  0  0  0  0  0
   -2.2699    9.2655   -1.9261 H   0  0  0  0  0  0  0  0  0  0  0  0
   -3.6262   11.2585   -2.0908 H   0  0  0  0  0  0  0  0  0  0  0  0
   -3.5827   11.5269   -0.3354 H   0  0  0  0  0  0  0  0  0  0  0  0
   -2.0697   12.9799   -2.2755 H   0  0  0  0  0  0  0  0  0  0  0  0
   -1.7342   12.9983   -0.5459 H   0  0  0  0  0  0  0  0  0  0  0  0
   -0.8688   10.0339   -3.2773 H   0  0  0  0  0  0  0  0  0  0  0  0
   -1.4472   11.6873   -3.6751 H   0  0  0  0  0  0  0  0  0  0  0  0
    0.3126   11.3272   -3.6751 H   0  0  0  0  0  0  0  0  0  0  0  0
    0.6290   12.5258   -0.2982 H   0  0  0  0  0  0  0  0  0  0  0  0
    0.1521   13.9405   -2.3996 H   0  0  0  0  0  0  0  0  0  0  0  0
    1.7563   14.0722   -1.5058 H   0  0  0  0  0  0  0  0  0  0  0  0
    1.8853   14.0584   -4.1357 H   0  0  0  0  0  0  0  0  0  0  0  0
    1.9702   10.1475   -3.1403 H   0  0  0  0  0  0  0  0  0  0  0  0
    4.7269   11.2168   -2.2720 H   0  0  0  0  0  0  0  0  0  0  0  0
    4.1101    9.5143   -2.0942 H   0  0  0  0  0  0  0  0  0  0  0  0
    5.6781    9.7492   -3.9932 H   0  0  0  0  0  0  0  0  0  0  0  0
    4.0142    9.2643   -4.5061 H   0  0  0  0  0  0  0  0  0  0  0  0
    4.8376   10.9251   -6.0318 H   0  0  0  0  0  0  0  0  0  0  0  0
    6.0600   12.5060   -5.2990 H   0  0  0  0  0  0  0  0  0  0  0  0
    1.6444   10.2924   -5.2118 H   0  0  0  0  0  0  0  0  0  0  0  0
    1.5264   11.4785   -6.5557 H   0  0  0  0  0  0  0  0  0  0  0  0
    2.8355   10.2485   -6.5557 H   0  0  0  0  0  0  0  0  0  0  0  0
    3.2965   14.0453   -5.3459 H   0  0  0  0  0  0  0  0  0  0  0  0
    4.1279   13.1173   -6.6399 H   0  0  0  0  0  0  0  0  0  0  0  0
    2.3366   13.2508   -6.6399 H   0  0  0  0  0  0  0  0  0  0  0  0
    2.8449   11.7039    0.6644 H   0  0  0  0  0  0  0  0  0  0  0  0
    4.0884   11.4157   -0.5995 H   0  0  0  0  0  0  0  0  0  0  0  0
    3.1453   12.9445   -0.5995 H   0  0  0  0  0  0  0  0  0  0  0  0
    2.4114    9.0813   -0.9845 H   0  0  0  0  0  0  0  0  0  0  0  0
    1.6947   10.0095    0.4502 H   0  0  0  0  0  0  0  0  0  0  0  0
    0.2250    8.9141   -1.9637 H   0  0  0  0  0  0  0  0  0  0  0  0
    0.0915    8.4058   -0.2340 H   0  0  0  0  0  0  0  0  0  0  0  0
   -0.8630    9.7992    1.4531 H   0  0  0  0  0  0  0  0  0  0  0  0
    0.1889   11.2006    1.0579 H   0  0  0  0  0  0  0  0  0  0  0  0
   -1.5974   11.3901    1.0579 H   0  0  0  0  0  0  0  0  0  0  0  0
  1  2  1  0
  2  3  1  0
  3  4  1  0
  4  5  1  0
  5  6  1  0
  6  7  1  0
  7  8  1  0
  7  9  1  0
  2 10  1  0
 10 11  1  0
 11 12  1  0
 12 13  1  0
 13 14  1  6
 13 15  1  0
 15 16  1  0
 16 17  1  0
 17 18  2  0
 18 19  1  0
 19 20  1  0
 20 21  1  0
 21 22  1  0
 22 23  1  0
 22 24  1  0
 24 25  1  0
 24 26  1  0
 19 27  1  0
 27 28  1  1
 27 29  1  0
 29 30  1  0
 30 31  1  0
 31 32  1  1
  7  5  1  0
 31 10  1  0
 31 13  1  0
 27 15  1  0
 24 18  1  0
  1 33  1  0
  1 34  1  0
  1 35  1  0
  2 36  1  1
  3 37  1  0
  3 38  1  0
  4 39  1  0
  4 40  1  0
  5 41  1  6
  8 42  1  0
  8 43  1  0
  8 44  1  0
  9 45  1  0
  9 46  1  0
  9 47  1  0
 10 48  1  6
 11 49  1  0
 11 50  1  0
 12 51  1  0
 12 52  1  0
 14 53  1  0
 14 54  1  0
 14 55  1  0
 15 56  1  1
 16 57  1  0
 16 58  1  0
 17 59  1  0
 19 60  1  6
 20 61  1  0
 20 62  1  0
 21 63  1  0
 21 64  1  0
 22 65  1  6
 23 66  1  0
 25 67  1  0
 25 68  1  0
 25 69  1  0
 26 70  1  0
 26 71  1  0
 26 72  1  0
 28 73  1  0
 28 74  1  0
 28 75  1  0
 29 76  1  0
 29 77  1  0
 30 78  1  0
 30 79  1  0
 32 80  1  0
 32 81  1  0
 32 82  1  0
M  END
>  <meeko>  (6) 
{"is_sidechain": [false], "intermolecular_energy": 2.731, "internal_energy": -0.839}

$$$$
EPH_relaxed_0001_pdb2pqr_Repair_208_r2_0001_out
     RDKit          3D

 82 86  0  0  0  0  0  0  0  0999 V2000
    3.1460   14.6340   -7.5410 C   0  0  0  0  0  0  0  0  0  0  0  0
    1.6730   14.9900   -7.3200 C   0  0  2  0  0  0  0  0  0  0  0  0
    1.3410   16.4150   -7.8080 C   0  0  0  0  0  0  0  0  0  0  0  0
    2.0930   16.8220   -9.0780 C   0  0  0  0  0  0  0  0  0  0  0  0
    1.4360   16.2780  -10.3100 C   0  0  2  0  0  0  0  0  0  0  0  0
    0.9250   14.9450  -10.1770 O   0  0  0  0  0  0  0  0  0  0  0  0
    1.9980   15.1230  -11.1170 C   0  0  0  0  0  0  0  0  0  0  0  0
    3.2710   14.4420  -10.7240 C   0  0  0  0  0  0  0  0  0  0  0  0
    1.5770   14.9770  -12.5460 C   0  0  0  0  0  0  0  0  0  0  0  0
    1.3200   14.8490   -5.8440 C   0  0  1  0  0  0  0  0  0  0  0  0
    0.1550   15.7820   -5.4170 C   0  0  0  0  0  0  0  0  0  0  0  0
   -0.6620   15.0140   -4.3460 C   0  0  0  0  0  0  0  0  0  0  0  0
    0.2360   13.8190   -3.9520 C   0  0  1  0  0  0  0  0  0  0  0  0
    1.2610   14.4060   -2.9320 C   0  0  0  0  0  0  0  0  0  0  0  0
   -0.4970   12.5630   -3.3770 C   0  0  2  0  0  0  0  0  0  0  0  0
   -1.2570   12.7980   -2.0600 C   0  0  0  0  0  0  0  0  0  0  0  0
   -0.4660   12.5580   -0.8160 C   0  0  0  0  0  0  0  0  0  0  0  0
    0.7060   11.9000   -0.7490 C   0  0  0  0  0  0  0  0  0  0  0  0
    1.3060   11.2310   -1.9930 C   0  0  1  0  0  0  0  0  0  0  0  0
    1.7800    9.7990   -1.6320 C   0  0  0  0  0  0  0  0  0  0  0  0
    2.7340    9.7810   -0.4420 C   0  0  0  0  0  0  0  0  0  0  0  0
    2.0810   10.4010    0.7900 C   0  0  2  0  0  0  0  0  0  0  0  0
    1.0030    9.5620    1.2130 O   0  0  0  0  0  0  0  0  0  0  0  0
    1.5550   11.8430    0.5440 C   0  0  0  0  0  0  0  0  0  0  0  0
    2.7520   12.8130    0.3840 C   0  0  0  0  0  0  0  0  0  0  0  0
    0.7960   12.2990    1.8200 C   0  0  0  0  0  0  0  0  0  0  0  0
    0.4040   11.2650   -3.3010 C   0  0  1  0  0  0  0  0  0  0  0  0
   -0.5690   10.0460   -3.3070 C   0  0  0  0  0  0  0  0  0  0  0  0
    1.3270   11.1020   -4.5660 C   0  0  0  0  0  0  0  0  0  0  0  0
    1.9260   12.3920   -5.1600 C   0  0  0  0  0  0  0  0  0  0  0  0
    0.8440   13.4580   -5.3570 C   0  0  2  0  0  0  0  0  0  0  0  0
   -0.1900   12.9040   -6.3960 C   0  0  0  0  0  0  0  0  0  0  0  0
    3.6441   14.5136   -6.5677 H   0  0  0  0  0  0  0  0  0  0  0  0
    3.2149   13.6933   -8.1070 H   0  0  0  0  0  0  0  0  0  0  0  0
    3.6369   15.4394   -8.1070 H   0  0  0  0  0  0  0  0  0  0  0  0
    1.0697   14.2884   -7.9148 H   0  0  0  0  0  0  0  0  0  0  0  0
    0.2613   16.4696   -8.0113 H   0  0  0  0  0  0  0  0  0  0  0  0
    1.6543   17.1079   -7.0132 H   0  0  0  0  0  0  0  0  0  0  0  0
    2.1166   17.9199   -9.1419 H   0  0  0  0  0  0  0  0  0  0  0  0
    3.1107   16.4083   -9.0212 H   0  0  0  0  0  0  0  0  0  0  0  0
    1.0937   17.2825  -10.5996 H   0  0  0  0  0  0  0  0  0  0  0  0
    3.3428   14.4036   -9.6270 H   0  0  0  0  0  0  0  0  0  0  0  0
    3.2794   13.4189  -11.1280 H   0  0  0  0  0  0  0  0  0  0  0  0
    4.1267   15.0028  -11.1280 H   0  0  0  0  0  0  0  0  0  0  0  0
    0.5385   14.6168  -12.5873 H   0  0  0  0  0  0  0  0  0  0  0  0
    1.6473   15.9520  -13.0504 H   0  0  0  0  0  0  0  0  0  0  0  0
    2.2359   14.2549  -13.0504 H   0  0  0  0  0  0  0  0  0  0  0  0
    2.2954   15.0906   -5.3966 H   0  0  0  0  0  0  0  0  0  0  0  0
    0.5531   16.7155   -4.9926 H   0  0  0  0  0  0  0  0  0  0  0  0
   -0.4746   16.0483   -6.2788 H   0  0  0  0  0  0  0  0  0  0  0  0
   -0.8591   15.6554   -3.4744 H   0  0  0  0  0  0  0  0  0  0  0  0
   -1.6437   14.6912   -4.7229 H   0  0  0  0  0  0  0  0  0  0  0  0
    0.9136   14.2071   -1.9074 H   0  0  0  0  0  0  0  0  0  0  0  0
    2.2423   13.9330   -3.0848 H   0  0  0  0  0  0  0  0  0  0  0  0
    1.3496   15.4917   -3.0848 H   0  0  0  0  0  0  0  0  0  0  0  0
   -1.2686   12.3711   -4.1372 H   0  0  0  0  0  0  0  0  0  0  0  0
   -1.6012   13.8427   -2.0478 H   0  0  0  0  0  0  0  0  0  0  0  0
   -2.0764   12.0643   -2.0462 H   0  0  0  0  0  0  0  0  0  0  0  0
   -0.8762   12.9526    0.1253 H   0  0  0  0  0  0  0  0  0  0  0  0
    2.1694   11.8471   -2.2843 H   0  0  0  0  0  0  0  0  0  0  0  0
    0.8992    9.1873   -1.3870 H   0  0  0  0  0  0  0  0  0  0  0  0
    2.3225    9.3980   -2.5008 H   0  0  0  0  0  0  0  0  0  0  0  0
    3.0101    8.7401   -0.2177 H   0  0  0  0  0  0  0  0  0  0  0  0
    3.6273   10.3690   -0.6993 H   0  0  0  0  0  0  0  0  0  0  0  0
    2.8537   10.4771    1.5692 H   0  0  0  0  0  0  0  0  0  0  0  0
    1.1340    9.3660    2.1560 H   0  0  0  0  0  0  0  0  0  0  0  0
    3.1186   13.1101    1.3777 H   0  0  0  0  0  0  0  0  0  0  0  0
    3.5592   12.3111   -0.1696 H   0  0  0  0  0  0  0  0  0  0  0  0
    2.4283   13.7067   -0.1696 H   0  0  0  0  0  0  0  0  0  0  0  0
    1.3472   11.9679    2.7125 H   0  0  0  0  0  0  0  0  0  0  0  0
    0.7142   13.3959    1.8256 H   0  0  0  0  0  0  0  0  0  0  0  0
   -0.2109   11.8562    1.8256 H   0  0  0  0  0  0  0  0  0  0  0  0
   -0.8002    9.7563   -2.2713 H   0  0  0  0  0  0  0  0  0  0  0  0
   -1.4984   10.3213   -3.8270 H   0  0  0  0  0  0  0  0  0  0  0  0
   -0.0945    9.2007   -3.8270 H   0  0  0  0  0  0  0  0  0  0  0  0
    2.1635   10.4452   -4.2852 H   0  0  0  0  0  0  0  0  0  0  0  0
    0.6700   10.7012   -5.3520 H   0  0  0  0  0  0  0  0  0  0  0  0
    2.6939   12.7809   -4.4751 H   0  0  0  0  0  0  0  0  0  0  0  0
    2.3680   12.1553   -6.1391 H   0  0  0  0  0  0  0  0  0  0  0  0
   -1.0381   12.4496   -5.8628 H   0  0  0  0  0  0  0  0  0  0  0  0
   -0.5531   13.7284   -7.0273 H   0  0  0  0  0  0  0  0  0  0  0  0
    0.2953   12.1451   -7.0273 H   0  0  0  0  0  0  0  0  0  0  0  0
  1  2  1  0
  2  3  1  0
  3  4  1  0
  4  5  1  0
  5  6  1  0
  6  7  1  0
  7  8  1  0
  7  9  1  0
  2 10  1  0
 10 11  1  0
 11 12  1  0
 12 13  1  0
 13 14  1  1
 13 15  1  0
 15 16  1  0
 16 17  1  0
 17 18  2  0
 18 19  1  0
 19 20  1  0
 20 21  1  0
 21 22  1  0
 22 23  1  0
 22 24  1  0
 24 25  1  0
 24 26  1  0
 19 27  1  0
 27 28  1  1
 27 29  1  0
 29 30  1  0
 30 31  1  0
 31 32  1  6
  7  5  1  0
 31 10  1  0
 31 13  1  0
 27 15  1  0
 24 18  1  0
  1 33  1  0
  1 34  1  0
  1 35  1  0
  2 36  1  6
  3 37  1  0
  3 38  1  0
  4 39  1  0
  4 40  1  0
  5 41  1  6
  8 42  1  0
  8 43  1  0
  8 44  1  0
  9 45  1  0
  9 46  1  0
  9 47  1  0
 10 48  1  1
 11 49  1  0
 11 50  1  0
 12 51  1  0
 12 52  1  0
 14 53  1  0
 14 54  1  0
 14 55  1  0
 15 56  1  6
 16 57  1  0
 16 58  1  0
 17 59  1  0
 19 60  1  6
 20 61  1  0
 20 62  1  0
 21 63  1  0
 21 64  1  0
 22 65  1  1
 23 66  1  0
 25 67  1  0
 25 68  1  0
 25 69  1  0
 26 70  1  0
 26 71  1  0
 26 72  1  0
 28 73  1  0
 28 74  1  0
 28 75  1  0
 29 76  1  0
 29 77  1  0
 30 78  1  0
 30 79  1  0
 32 80  1  0
 32 81  1  0
 32 82  1  0
M  END
>  <meeko>  (7) 
{"is_sidechain": [false], "intermolecular_energy": 2.731, "internal_energy": -0.839}

$$$$
EPH_relaxed_0001_pdb2pqr_Repair_208_r2_0001_out
     RDKit          3D

 82 86  0  0  0  0  0  0  0  0999 V2000
    2.6930   12.6530   -4.4860 C   0  0  0  0  0  0  0  0  0  0  0  0
    1.2150   12.9900   -4.7010 C   0  0  2  0  0  0  0  0  0  0  0  0
    1.0250   14.3570   -5.3870 C   0  0  0  0  0  0  0  0  0  0  0  0
    1.4370   14.3690   -6.8620 C   0  0  0  0  0  0  0  0  0  0  0  0
    1.1170   15.6780   -7.5170 C   0  0  2  0  0  0  0  0  0  0  0  0
    0.2730   15.5800   -8.6710 O   0  0  0  0  0  0  0  0  0  0  0  0
    1.6060   16.0630   -8.9000 C   0  0  0  0  0  0  0  0  0  0  0  0
    2.4570   15.1390   -9.7120 C   0  0  0  0  0  0  0  0  0  0  0  0
    1.6670   17.5150   -9.2590 C   0  0  0  0  0  0  0  0  0  0  0  0
    0.4780   12.9690   -3.3680 C   0  0  1  0  0  0  0  0  0  0  0  0
   -1.0270   12.6190   -3.5220 C   0  0  0  0  0  0  0  0  0  0  0  0
   -1.4250   11.7940   -2.2720 C   0  0  0  0  0  0  0  0  0  0  0  0
   -0.2420   11.9760   -1.2910 C   0  0  1  0  0  0  0  0  0  0  0  0
   -0.4930   13.3590   -0.6130 C   0  0  0  0  0  0  0  0  0  0  0  0
   -0.0410   10.8420   -0.2330 C   0  0  2  0  0  0  0  0  0  0  0  0
   -1.2070   10.6560    0.7530 C   0  0  0  0  0  0  0  0  0  0  0  0
   -1.1140   11.4580    2.0090 C   0  0  0  0  0  0  0  0  0  0  0  0
   -0.0070   12.0750    2.4630 C   0  0  0  0  0  0  0  0  0  0  0  0
    1.3360   11.9170    1.7390 C   0  0  1  0  0  0  0  0  0  0  0  0
    2.4510   11.6200    2.7760 C   0  0  0  0  0  0  0  0  0  0  0  0
    2.5070   12.6610    3.8900 C   0  0  0  0  0  0  0  0  0  0  0  0
    1.1710   12.7480    4.6230 C   0  0  2  0  0  0  0  0  0  0  0  0
    0.9500   11.5200    5.3240 O   0  0  0  0  0  0  0  0  0  0  0  0
   -0.0290   13.0340    3.6780 C   0  0  0  0  0  0  0  0  0  0  0  0
    0.0580   14.4880    3.1520 C   0  0  0  0  0  0  0  0  0  0  0  0
   -1.3300   12.9560    4.5220 C   0  0  0  0  0  0  0  0  0  0  0  0
    1.3500   10.8980    0.5190 C   0  0  1  0  0  0  0  0  0  0  0  0
    1.6360    9.4540    1.0350 C   0  0  0  0  0  0  0  0  0  0  0  0
    2.5380   11.2690   -0.4450 C   0  0  0  0  0  0  0  0  0  0  0  0
    2.2430   12.3070   -1.5450 C   0  0  0  0  0  0  0  0  0  0  0  0
    0.9600   11.9520   -2.3040 C   0  0  2  0  0  0  0  0  0  0  0  0
    1.1910   10.5750   -3.0150 C   0  0  0  0  0  0  0  0  0  0  0  0
    2.9050   12.6047   -3.4077 H   0  0  0  0  0  0  0  0  0  0  0  0
    2.9183   11.6804   -4.9479 H   0  0  0  0  0  0  0  0  0  0  0  0
    3.3176   13.4318   -4.9479 H   0  0  0  0  0  0  0  0  0  0  0  0
    0.7950   12.2243   -5.3698 H   0  0  0  0  0  0  0  0  0  0  0  0
   -0.0376   14.6338   -5.3211 H   0  0  0  0  0  0  0  0  0  0  0  0
    1.6784   15.0717   -4.8652 H   0  0  0  0  0  0  0  0  0  0  0  0
    2.5204   14.1916   -6.9308 H   0  0  0  0  0  0  0  0  0  0  0  0
    0.8740   13.5795   -7.3813 H   0  0  0  0  0  0  0  0  0  0  0  0
    1.1570   16.1985   -6.5488 H   0  0  0  0  0  0  0  0  0  0  0  0
    3.0470   14.4984   -9.0401 H   0  0  0  0  0  0  0  0  0  0  0  0
    1.8143   14.5111  -10.3465 H   0  0  0  0  0  0  0  0  0  0  0  0
    3.1356   15.7280  -10.3465 H   0  0  0  0  0  0  0  0  0  0  0  0
    1.6924   18.1191   -8.3401 H   0  0  0  0  0  0  0  0  0  0  0  0
    2.5741   17.7087   -9.8503 H   0  0  0  0  0  0  0  0  0  0  0  0
    0.7794   17.7841   -9.8503 H   0  0  0  0  0  0  0  0  0  0  0  0
    0.6838   13.9949   -3.0286 H   0  0  0  0  0  0  0  0  0  0  0  0
   -1.6265   13.5398   -3.5746 H   0  0  0  0  0  0  0  0  0  0  0  0
   -1.2071   12.0486   -4.4451 H   0  0  0  0  0  0  0  0  0  0  0  0
   -2.3567   12.1799   -1.8326 H   0  0  0  0  0  0  0  0  0  0  0  0
   -1.6092   10.7363   -2.5116 H   0  0  0  0  0  0  0  0  0  0  0  0
   -0.4715   13.2406    0.4804 H   0  0  0  0  0  0  0  0  0  0  0  0
    0.2915   14.0660   -0.9207 H   0  0  0  0  0  0  0  0  0  0  0  0
   -1.4759   13.7452   -0.9207 H   0  0  0  0  0  0  0  0  0  0  0  0
   -0.0305    9.9356   -0.8561 H   0  0  0  0  0  0  0  0  0  0  0  0
   -2.1366   10.9386    0.2373 H   0  0  0  0  0  0  0  0  0  0  0  0
   -1.1783    9.6009    1.0627 H   0  0  0  0  0  0  0  0  0  0  0  0
   -2.0274   11.5527    2.6146 H   0  0  0  0  0  0  0  0  0  0  0  0
    1.5316   12.8808    1.2462 H   0  0  0  0  0  0  0  0  0  0  0  0
    2.2616   10.6336    3.2245 H   0  0  0  0  0  0  0  0  0  0  0  0
    3.4147   11.6459    2.2464 H   0  0  0  0  0  0  0  0  0  0  0  0
    3.2930   12.3798    4.6063 H   0  0  0  0  0  0  0  0  0  0  0  0
    2.7268   13.6418    3.4432 H   0  0  0  0  0  0  0  0  0  0  0  0
    1.2307   13.5978    5.3188 H   0  0  0  0  0  0  0  0  0  0  0  0
    0.9160   11.7260    6.2740 H   0  0  0  0  0  0  0  0  0  0  0  0
    0.0996   15.1839    4.0029 H   0  0  0  0  0  0  0  0  0  0  0  0
    0.9646   14.6028    2.5397 H   0  0  0  0  0  0  0  0  0  0  0  0
   -0.8285   14.7101    2.5397 H   0  0  0  0  0  0  0  0  0  0  0  0
   -1.0745   12.9713    5.5918 H   0  0  0  0  0  0  0  0  0  0  0  0
   -1.9723   13.8172    4.2860 H   0  0  0  0  0  0  0  0  0  0  0  0
   -1.8648   12.0242    4.2860 H   0  0  0  0  0  0  0  0  0  0  0  0
    1.6366    9.4511    2.1350 H   0  0  0  0  0  0  0  0  0  0  0  0
    0.8555    8.7718    0.6669 H   0  0  0  0  0  0  0  0  0  0  0  0
    2.6176    9.1208    0.6669 H   0  0  0  0  0  0  0  0  0  0  0  0
    3.3575   11.6637    0.1736 H   0  0  0  0  0  0  0  0  0  0  0  0
    2.7728   10.3388   -0.9831 H   0  0  0  0  0  0  0  0  0  0  0  0
    2.1249   13.2980   -1.0824 H   0  0  0  0  0  0  0  0  0  0  0  0
    3.0817   12.3119   -2.2567 H   0  0  0  0  0  0  0  0  0  0  0  0
    1.3229    9.7886   -2.2572 H   0  0  0  0  0  0  0  0  0  0  0  0
    0.3204   10.3362   -3.6435 H   0  0  0  0  0  0  0  0  0  0  0  0
    2.0919   10.6334   -3.6435 H   0  0  0  0  0  0  0  0  0  0  0  0
  1  2  1  0
  2  3  1  0
  3  4  1  0
  4  5  1  0
  5  6  1  0
  6  7  1  0
  7  8  1  0
  7  9  1  0
  2 10  1  0
 10 11  1  0
 11 12  1  0
 12 13  1  0
 13 14  1  1
 13 15  1  0
 15 16  1  0
 16 17  1  0
 17 18  2  0
 18 19  1  0
 19 20  1  0
 20 21  1  0
 21 22  1  0
 22 23  1  0
 22 24  1  0
 24 25  1  0
 24 26  1  0
 19 27  1  0
 27 28  1  1
 27 29  1  0
 29 30  1  0
 30 31  1  0
 31 32  1  6
  7  5  1  0
 31 10  1  0
 31 13  1  0
 27 15  1  0
 24 18  1  0
  1 33  1  0
  1 34  1  0
  1 35  1  0
  2 36  1  6
  3 37  1  0
  3 38  1  0
  4 39  1  0
  4 40  1  0
  5 41  1  1
  8 42  1  0
  8 43  1  0
  8 44  1  0
  9 45  1  0
  9 46  1  0
  9 47  1  0
 10 48  1  1
 11 49  1  0
 11 50  1  0
 12 51  1  0
 12 52  1  0
 14 53  1  0
 14 54  1  0
 14 55  1  0
 15 56  1  6
 16 57  1  0
 16 58  1  0
 17 59  1  0
 19 60  1  6
 20 61  1  0
 20 62  1  0
 21 63  1  0
 21 64  1  0
 22 65  1  1
 23 66  1  0
 25 67  1  0
 25 68  1  0
 25 69  1  0
 26 70  1  0
 26 71  1  0
 26 72  1  0
 28 73  1  0
 28 74  1  0
 28 75  1  0
 29 76  1  0
 29 77  1  0
 30 78  1  0
 30 79  1  0
 32 80  1  0
 32 81  1  0
 32 82  1  0
M  END
>  <meeko>  (8) 
{"is_sidechain": [false], "intermolecular_energy": 2.731, "internal_energy": -0.839}

$$$$
EPH_relaxed_0001_pdb2pqr_Repair_208_r2_0001_out
     RDKit          3D

 82 86  0  0  0  0  0  0  0  0999 V2000
    0.8270   13.7590   -5.7280 C   0  0  0  0  0  0  0  0  0  0  0  0
    1.6890   13.2460   -4.5710 C   0  0  2  0  0  0  0  0  0  0  0  0
    2.2950   11.8600   -4.8680 C   0  0  0  0  0  0  0  0  0  0  0  0
    3.6530   11.9200   -5.5710 C   0  0  0  0  0  0  0  0  0  0  0  0
    4.6090   10.9060   -5.0190 C   0  0  2  0  0  0  0  0  0  0  0  0
    4.5540   10.7450   -3.5960 O   0  0  0  0  0  0  0  0  0  0  0  0
    5.7840   11.2630   -4.1280 C   0  0  0  0  0  0  0  0  0  0  0  0
    6.0670   12.6800   -3.7390 C   0  0  0  0  0  0  0  0  0  0  0  0
    6.9300   10.3040   -4.0380 C   0  0  0  0  0  0  0  0  0  0  0  0
    0.8610   13.1890   -3.2920 C   0  0  1  0  0  0  0  0  0  0  0  0
   -0.6280   12.8440   -3.5590 C   0  0  0  0  0  0  0  0  0  0  0  0
   -1.1100   11.9850   -2.3620 C   0  0  0  0  0  0  0  0  0  0  0  0
    0.0010   12.1400   -1.2980 C   0  0  1  0  0  0  0  0  0  0  0  0
   -0.2980   13.5040   -0.6010 C   0  0  0  0  0  0  0  0  0  0  0  0
    0.1320   10.9780   -0.2600 C   0  0  2  0  0  0  0  0  0  0  0  0
   -1.0990   10.7650    0.6380 C   0  0  0  0  0  0  0  0  0  0  0  0
   -1.0950   11.5320    1.9190 C   0  0  0  0  0  0  0  0  0  0  0  0
   -0.0230   12.1360    2.4650 C   0  0  0  0  0  0  0  0  0  0  0  0
    1.3670   11.9970    1.8320 C   0  0  1  0  0  0  0  0  0  0  0  0
    2.4080   11.6720    2.9340 C   0  0  0  0  0  0  0  0  0  0  0  0
    2.3860   12.6830    4.0770 C   0  0  0  0  0  0  0  0  0  0  0  0
    1.0030   12.7500    4.7190 C   0  0  2  0  0  0  0  0  0  0  0  0
    0.7360   11.5040    5.3690 O   0  0  0  0  0  0  0  0  0  0  0  0
   -0.1300   13.0620    3.7020 C   0  0  0  0  0  0  0  0  0  0  0  0
   -0.0090   14.5300    3.2220 C   0  0  0  0  0  0  0  0  0  0  0  0
   -1.4860   12.9610    4.4510 C   0  0  0  0  0  0  0  0  0  0  0  0
    1.4670   11.0130    0.5880 C   0  0  1  0  0  0  0  0  0  0  0  0
    1.7190    9.5550    1.0820 C   0  0  0  0  0  0  0  0  0  0  0  0
    2.7180   11.4090   -0.2820 C   0  0  0  0  0  0  0  0  0  0  0  0
    2.4970   12.4770   -1.3710 C   0  0  0  0  0  0  0  0  0  0  0  0
    1.2710   12.1430   -2.2250 C   0  0  2  0  0  0  0  0  0  0  0  0
    1.5520   10.7860   -2.9560 C   0  0  0  0  0  0  0  0  0  0  0  0
   -0.0528   14.2826   -5.3257 H   0  0  0  0  0  0  0  0  0  0  0  0
    1.4166   14.4533   -6.3447 H   0  0  0  0  0  0  0  0  0  0  0  0
    0.4980   12.9097   -6.3447 H   0  0  0  0  0  0  0  0  0  0  0  0
    2.5240   13.9505   -4.4429 H   0  0  0  0  0  0  0  0  0  0  0  0
    2.4205   11.3245   -3.9154 H   0  0  0  0  0  0  0  0  0  0  0  0
    1.6022   11.3459   -5.5505 H   0  0  0  0  0  0  0  0  0  0  0  0
    3.5077   11.7258   -6.6439 H   0  0  0  0  0  0  0  0  0  0  0  0
    4.0807   12.9198   -5.4054 H   0  0  0  0  0  0  0  0  0  0  0  0
    4.5347   10.3017   -5.9351 H   0  0  0  0  0  0  0  0  0  0  0  0
    6.0835   12.7628   -2.6422 H   0  0  0  0  0  0  0  0  0  0  0  0
    7.0435   12.9835   -4.1444 H   0  0  0  0  0  0  0  0  0  0  0  0
    5.2820   13.3353   -4.1444 H   0  0  0  0  0  0  0  0  0  0  0  0
    7.1629   10.1091   -2.9807 H   0  0  0  0  0  0  0  0  0  0  0  0
    6.6582    9.3603   -4.5336 H   0  0  0  0  0  0  0  0  0  0  0  0
    7.8110   10.7379   -4.5336 H   0  0  0  0  0  0  0  0  0  0  0  0
    1.0406   14.2052   -2.9112 H   0  0  0  0  0  0  0  0  0  0  0  0
   -1.2240   13.7660   -3.6278 H   0  0  0  0  0  0  0  0  0  0  0  0
   -0.7431   12.2992   -4.5076 H   0  0  0  0  0  0  0  0  0  0  0  0
   -2.0705   12.3588   -1.9777 H   0  0  0  0  0  0  0  0  0  0  0  0
   -1.2752   10.9343   -2.6425 H   0  0  0  0  0  0  0  0  0  0  0  0
   -0.2691   13.3720    0.4907 H   0  0  0  0  0  0  0  0  0  0  0  0
    0.4595   14.2430   -0.9012 H   0  0  0  0  0  0  0  0  0  0  0  0
   -1.2951   13.8584   -0.9012 H   0  0  0  0  0  0  0  0  0  0  0  0
    0.1887   10.0896   -0.9061 H   0  0  0  0  0  0  0  0  0  0  0  0
   -1.9914   11.0615    0.0672 H   0  0  0  0  0  0  0  0  0  0  0  0
   -1.0893    9.7018    0.9201 H   0  0  0  0  0  0  0  0  0  0  0  0
   -2.0483   11.6101    2.4623 H   0  0  0  0  0  0  0  0  0  0  0  0
    1.5946   12.9741    1.3809 H   0  0  0  0  0  0  0  0  0  0  0  0
    2.1897   10.6740    3.3419 H   0  0  0  0  0  0  0  0  0  0  0  0
    3.4058   11.7117    2.4726 H   0  0  0  0  0  0  0  0  0  0  0  0
    3.1218   12.3827    4.8375 H   0  0  0  0  0  0  0  0  0  0  0  0
    2.6340   13.6755    3.6728 H   0  0  0  0  0  0  0  0  0  0  0  0
    1.0141   13.5802    5.4405 H   0  0  0  0  0  0  0  0  0  0  0  0
    0.9220   11.6200    6.3160 H   0  0  0  0  0  0  0  0  0  0  0  0
    0.0460   15.1977    4.0945 H   0  0  0  0  0  0  0  0  0  0  0  0
    0.9015   14.6435    2.6154 H   0  0  0  0  0  0  0  0  0  0  0  0
   -0.8887   14.7911    2.6154 H   0  0  0  0  0  0  0  0  0  0  0  0
   -1.3073   12.9743    5.5363 H   0  0  0  0  0  0  0  0  0  0  0  0
   -2.1225   13.8142    4.1737 H   0  0  0  0  0  0  0  0  0  0  0  0
   -1.9891   12.0229    4.1737 H   0  0  0  0  0  0  0  0  0  0  0  0
    1.7223    9.5359    2.1818 H   0  0  0  0  0  0  0  0  0  0  0  0
    0.9212    8.8975    0.7063 H   0  0  0  0  0  0  0  0  0  0  0  0
    2.6912    9.2034    0.7063 H   0  0  0  0  0  0  0  0  0  0  0  0
    3.4929   11.7861    0.4016 H   0  0  0  0  0  0  0  0  0  0  0  0
    2.9906   10.4936   -0.8276 H   0  0  0  0  0  0  0  0  0  0  0  0
    2.3454   13.4548   -0.8906 H   0  0  0  0  0  0  0  0  0  0  0  0
    3.3826   12.5017   -2.0230 H   0  0  0  0  0  0  0  0  0  0  0  0
    1.7159    9.9946   -2.2098 H   0  0  0  0  0  0  0  0  0  0  0  0
    0.6892   10.5232   -3.5857 H   0  0  0  0  0  0  0  0  0  0  0  0
    2.4482   10.8875   -3.5857 H   0  0  0  0  0  0  0  0  0  0  0  0
  1  2  1  0
  2  3  1  0
  3  4  1  0
  4  5  1  0
  5  6  1  0
  6  7  1  0
  7  8  1  0
  7  9  1  0
  2 10  1  0
 10 11  1  0
 11 12  1  0
 12 13  1  0
 13 14  1  1
 13 15  1  0
 15 16  1  0
 16 17  1  0
 17 18  2  0
 18 19  1  0
 19 20  1  0
 20 21  1  0
 21 22  1  0
 22 23  1  0
 22 24  1  0
 24 25  1  0
 24 26  1  0
 19 27  1  0
 27 28  1  1
 27 29  1  0
 29 30  1  0
 30 31  1  0
 31 32  1  6
  7  5  1  0
 31 10  1  0
 31 13  1  0
 27 15  1  0
 24 18  1  0
  1 33  1  0
  1 34  1  0
  1 35  1  0
  2 36  1  1
  3 37  1  0
  3 38  1  0
  4 39  1  0
  4 40  1  0
  5 41  1  6
  8 42  1  0
  8 43  1  0
  8 44  1  0
  9 45  1  0
  9 46  1  0
  9 47  1  0
 10 48  1  1
 11 49  1  0
 11 50  1  0
 12 51  1  0
 12 52  1  0
 14 53  1  0
 14 54  1  0
 14 55  1  0
 15 56  1  6
 16 57  1  0
 16 58  1  0
 17 59  1  0
 19 60  1  6
 20 61  1  0
 20 62  1  0
 21 63  1  0
 21 64  1  0
 22 65  1  1
 23 66  1  0
 25 67  1  0
 25 68  1  0
 25 69  1  0
 26 70  1  0
 26 71  1  0
 26 72  1  0
 28 73  1  0
 28 74  1  0
 28 75  1  0
 29 76  1  0
 29 77  1  0
 30 78  1  0
 30 79  1  0
 32 80  1  0
 32 81  1  0
 32 82  1  0
M  END
>  <meeko>  (9) 
{"is_sidechain": [false], "intermolecular_energy": 2.731, "internal_energy": -0.839}

$$$$
EPH_relaxed_0001_pdb2pqr_Repair_208_r2_0001_out
     RDKit          3D

 82 86  0  0  0  0  0  0  0  0999 V2000
   -1.3700   15.3700    0.3220 C   0  0  0  0  0  0  0  0  0  0  0  0
   -1.0550   14.2540    1.3220 C   0  0  2  0  0  0  0  0  0  0  0  0
   -0.7630   14.8030    2.7330 C   0  0  0  0  0  0  0  0  0  0  0  0
   -0.0260   13.8130    3.6380 C   0  0  0  0  0  0  0  0  0  0  0  0
   -0.2220   14.1370    5.0890 C   0  0  2  0  0  0  0  0  0  0  0  0
   -0.0470   13.0270    5.9790 O   0  0  0  0  0  0  0  0  0  0  0  0
   -1.3670   13.5910    5.9210 C   0  0  0  0  0  0  0  0  0  0  0  0
   -2.3940   12.6770    5.3300 C   0  0  0  0  0  0  0  0  0  0  0  0
   -1.7630   14.3270    7.1630 C   0  0  0  0  0  0  0  0  0  0  0  0
    0.1300   13.4330    0.8270 C   0  0  1  0  0  0  0  0  0  0  0  0
    0.5360   12.3120    1.8200 C   0  0  0  0  0  0  0  0  0  0  0  0
    1.0160   11.1100    0.9660 C   0  0  0  0  0  0  0  0  0  0  0  0
    1.1860   11.6870   -0.4580 C   0  0  1  0  0  0  0  0  0  0  0  0
    2.5780   12.3930   -0.4420 C   0  0  0  0  0  0  0  0  0  0  0  0
    1.0710   10.6650   -1.6360 C   0  0  2  0  0  0  0  0  0  0  0  0
    2.1380    9.5570   -1.6450 C   0  0  0  0  0  0  0  0  0  0  0  0
    3.3790    9.8730   -2.4120 C   0  0  0  0  0  0  0  0  0  0  0  0
    3.5160   10.8760   -3.3000 C   0  0  0  0  0  0  0  0  0  0  0  0
    2.3200   11.7590   -3.6810 C   0  0  1  0  0  0  0  0  0  0  0  0
    2.2660   11.9190   -5.2230 C   0  0  0  0  0  0  0  0  0  0  0  0
    3.5800   12.4330   -5.8050 C   0  0  0  0  0  0  0  0  0  0  0  0
    4.7350   11.4980   -5.4530 C   0  0  2  0  0  0  0  0  0  0  0  0
    4.5370   10.2500   -6.1240 O   0  0  0  0  0  0  0  0  0  0  0  0
    4.8810   11.2540   -3.9250 C   0  0  0  0  0  0  0  0  0  0  0  0
    5.3900   12.5450   -3.2380 C   0  0  0  0  0  0  0  0  0  0  0  0
    5.9890   10.1860   -3.7170 C   0  0  0  0  0  0  0  0  0  0  0  0
    0.9200   11.3340   -3.0620 C   0  0  1  0  0  0  0  0  0  0  0  0
    0.2320   10.2770   -3.9790 C   0  0  0  0  0  0  0  0  0  0  0  0
   -0.0330   12.5870   -3.0370 C   0  0  0  0  0  0  0  0  0  0  0  0
    0.0420   13.4920   -1.7930 C   0  0  0  0  0  0  0  0  0  0  0  0
   -0.0440   12.6650   -0.5070 C   0  0  2  0  0  0  0  0  0  0  0  0
   -1.4430   11.9600   -0.4850 C   0  0  0  0  0  0  0  0  0  0  0  0
   -1.6294   16.2891    0.8679 H   0  0  0  0  0  0  0  0  0  0  0  0
   -0.4891   15.5553   -0.3102 H   0  0  0  0  0  0  0  0  0  0  0  0
   -2.2178   15.0673   -0.3102 H   0  0  0  0  0  0  0  0  0  0  0  0
   -1.9467   13.6141    1.3955 H   0  0  0  0  0  0  0  0  0  0  0  0
   -0.1455   15.7078    2.6327 H   0  0  0  0  0  0  0  0  0  0  0  0
   -1.7349   15.0084    3.2055 H   0  0  0  0  0  0  0  0  0  0  0  0
   -0.4082   12.7999    3.4441 H   0  0  0  0  0  0  0  0  0  0  0  0
    1.0490   13.8780    3.4140 H   0  0  0  0  0  0  0  0  0  0  0  0
    0.1576   15.1581    4.9365 H   0  0  0  0  0  0  0  0  0  0  0  0
   -2.9516   12.1808    6.1380 H   0  0  0  0  0  0  0  0  0  0  0  0
   -3.0898   13.2601    4.7088 H   0  0  0  0  0  0  0  0  0  0  0  0
   -1.8956   11.9183    4.7088 H   0  0  0  0  0  0  0  0  0  0  0  0
   -1.4523   13.7496    8.0462 H   0  0  0  0  0  0  0  0  0  0  0  0
   -1.2729   15.3117    7.1777 H   0  0  0  0  0  0  0  0  0  0  0  0
   -2.8548   14.4606    7.1777 H   0  0  0  0  0  0  0  0  0  0  0  0
    0.8720   14.2358    0.7046 H   0  0  0  0  0  0  0  0  0  0  0  0
    1.3491   12.6611    2.4735 H   0  0  0  0  0  0  0  0  0  0  0  0
   -0.3107   12.0273    2.4619 H   0  0  0  0  0  0  0  0  0  0  0  0
    1.9731   10.7221    1.3447 H   0  0  0  0  0  0  0  0  0  0  0  0
    0.3074   10.2691    0.9937 H   0  0  0  0  0  0  0  0  0  0  0  0
    2.8955   12.5540    0.5988 H   0  0  0  0  0  0  0  0  0  0  0  0
    3.3160   11.7602   -0.9568 H   0  0  0  0  0  0  0  0  0  0  0  0
    2.5035   13.3623   -0.9568 H   0  0  0  0  0  0  0  0  0  0  0  0
    0.1184   10.1601   -1.4180 H   0  0  0  0  0  0  0  0  0  0  0  0
    2.4252    9.3532   -0.6029 H   0  0  0  0  0  0  0  0  0  0  0  0
    1.6781    8.6958   -2.1518 H   0  0  0  0  0  0  0  0  0  0  0  0
    4.2558    9.2323   -2.2370 H   0  0  0  0  0  0  0  0  0  0  0  0
    2.5007   12.7366   -3.2103 H   0  0  0  0  0  0  0  0  0  0  0  0
    2.0409   10.9400   -5.6713 H   0  0  0  0  0  0  0  0  0  0  0  0
    1.4862   12.6595   -5.4545 H   0  0  0  0  0  0  0  0  0  0  0  0
    3.4887   12.4964   -6.8994 H   0  0  0  0  0  0  0  0  0  0  0  0
    3.7888   13.4253   -5.3786 H   0  0  0  0  0  0  0  0  0  0  0  0
    5.6658   11.9827   -5.7827 H   0  0  0  0  0  0  0  0  0  0  0  0
    5.0290   10.2850   -6.9620 H   0  0  0  0  0  0  0  0  0  0  0  0
    5.3418   12.4226   -2.1459 H   0  0  0  0  0  0  0  0  0  0  0  0
    6.4305   12.7353   -3.5400 H   0  0  0  0  0  0  0  0  0  0  0  0
    4.7594   13.3942   -3.5400 H   0  0  0  0  0  0  0  0  0  0  0  0
    6.1506   10.0302   -2.6401 H   0  0  0  0  0  0  0  0  0  0  0  0
    5.6773    9.2390   -4.1818 H   0  0  0  0  0  0  0  0  0  0  0  0
    6.9239   10.5323   -4.1818 H   0  0  0  0  0  0  0  0  0  0  0  0
   -0.2625    9.5173   -3.3558 H   0  0  0  0  0  0  0  0  0  0  0  0
   -0.5162   10.7740   -4.6140 H   0  0  0  0  0  0  0  0  0  0  0  0
    0.9893    9.7941   -4.6140 H   0  0  0  0  0  0  0  0  0  0  0  0
    0.2081   13.2060   -3.9138 H   0  0  0  0  0  0  0  0  0  0  0  0
   -1.0522   12.1733   -3.0308 H   0  0  0  0  0  0  0  0  0  0  0  0
    0.9951   14.0411   -1.8045 H   0  0  0  0  0  0  0  0  0  0  0  0
   -0.8062   14.1919   -1.8170 H   0  0  0  0  0  0  0  0  0  0  0  0
   -1.7574   11.8016    0.5571 H   0  0  0  0  0  0  0  0  0  0  0  0
   -2.1811   12.5938   -0.9983 H   0  0  0  0  0  0  0  0  0  0  0  0
   -1.3727   10.9897   -0.9983 H   0  0  0  0  0  0  0  0  0  0  0  0
  1  2  1  0
  2  3  1  0
  3  4  1  0
  4  5  1  0
  5  6  1  0
  6  7  1  0
  7  8  1  0
  7  9  1  0
  2 10  1  0
 10 11  1  0
 11 12  1  0
 12 13  1  0
 13 14  1  1
 13 15  1  0
 15 16  1  0
 16 17  1  0
 17 18  2  0
 18 19  1  0
 19 20  1  0
 20 21  1  0
 21 22  1  0
 22 23  1  0
 22 24  1  0
 24 25  1  0
 24 26  1  0
 19 27  1  0
 27 28  1  6
 27 29  1  0
 29 30  1  0
 30 31  1  0
 31 32  1  1
  7  5  1  0
 31 10  1  0
 31 13  1  0
 27 15  1  0
 24 18  1  0
  1 33  1  0
  1 34  1  0
  1 35  1  0
  2 36  1  1
  3 37  1  0
  3 38  1  0
  4 39  1  0
  4 40  1  0
  5 41  1  1
  8 42  1  0
  8 43  1  0
  8 44  1  0
  9 45  1  0
  9 46  1  0
  9 47  1  0
 10 48  1  6
 11 49  1  0
 11 50  1  0
 12 51  1  0
 12 52  1  0
 14 53  1  0
 14 54  1  0
 14 55  1  0
 15 56  1  1
 16 57  1  0
 16 58  1  0
 17 59  1  0
 19 60  1  1
 20 61  1  0
 20 62  1  0
 21 63  1  0
 21 64  1  0
 22 65  1  6
 23 66  1  0
 25 67  1  0
 25 68  1  0
 25 69  1  0
 26 70  1  0
 26 71  1  0
 26 72  1  0
 28 73  1  0
 28 74  1  0
 28 75  1  0
 29 76  1  0
 29 77  1  0
 30 78  1  0
 30 79  1  0
 32 80  1  0
 32 81  1  0
 32 82  1  0
M  END
>  <meeko>  (10) 
{"is_sidechain": [false], "intermolecular_energy": 2.731, "internal_energy": -0.839}

$$$$
EPH_relaxed_0001_pdb2pqr_Repair_208_r2_0001_out
     RDKit          3D

 82 86  0  0  0  0  0  0  0  0999 V2000
   -2.0870    7.9130   -2.1220 C   0  0  0  0  0  0  0  0  0  0  0  0
   -1.9470    8.6550   -0.7900 C   0  0  2  0  0  0  0  0  0  0  0  0
   -3.2840    8.7370   -0.0280 C   0  0  0  0  0  0  0  0  0  0  0  0
   -4.5100    8.8070   -0.9420 C   0  0  0  0  0  0  0  0  0  0  0  0
   -5.2110    7.4850   -1.0310 C   0  0  2  0  0  0  0  0  0  0  0  0
   -5.3630    6.9760   -2.3630 O   0  0  0  0  0  0  0  0  0  0  0  0
   -6.5770    7.3030   -1.6660 C   0  0  0  0  0  0  0  0  0  0  0  0
   -7.3240    8.4580   -2.2540 C   0  0  0  0  0  0  0  0  0  0  0  0
   -7.3910    6.1070   -1.2820 C   0  0  0  0  0  0  0  0  0  0  0  0
   -1.3960   10.0550   -1.0310 C   0  0  1  0  0  0  0  0  0  0  0  0
   -0.7860   10.6860    0.2500 C   0  0  0  0  0  0  0  0  0  0  0  0
    0.4210   11.5450   -0.2060 C   0  0  0  0  0  0  0  0  0  0  0  0
    0.2670   11.6500   -1.7420 C   0  0  1  0  0  0  0  0  0  0  0  0
   -0.7840   12.7830   -1.9630 C   0  0  0  0  0  0  0  0  0  0  0  0
    1.5780   11.9140   -2.5510 C   0  0  2  0  0  0  0  0  0  0  0  0
    2.2800   13.2480   -2.2400 C   0  0  0  0  0  0  0  0  0  0  0  0
    1.8590   14.4030   -3.0870 C   0  0  0  0  0  0  0  0  0  0  0  0
    1.1680   14.3170   -4.2390 C   0  0  0  0  0  0  0  0  0  0  0  0
    0.8240   12.9530   -4.8510 C   0  0  1  0  0  0  0  0  0  0  0  0
    1.1490   12.9700   -6.3680 C   0  0  0  0  0  0  0  0  0  0  0  0
    0.4720   14.1260   -7.0990 C   0  0  0  0  0  0  0  0  0  0  0  0
    0.8840   15.4670   -6.4980 C   0  0  2  0  0  0  0  0  0  0  0  0
    2.2760   15.6780   -6.7550 O   0  0  0  0  0  0  0  0  0  0  0  0
    0.6130   15.5640   -4.9710 C   0  0  0  0  0  0  0  0  0  0  0  0
   -0.9120   15.6380   -4.7170 C   0  0  0  0  0  0  0  0  0  0  0  0
    1.2030   16.9080   -4.4660 C   0  0  0  0  0  0  0  0  0  0  0  0
    1.4340   11.6870   -4.1100 C   0  0  1  0  0  0  0  0  0  0  0  0
    2.8670   11.3930   -4.6520 C   0  0  0  0  0  0  0  0  0  0  0  0
    0.5620   10.4210   -4.4520 C   0  0  0  0  0  0  0  0  0  0  0  0
   -0.6510   10.1470   -3.5430 C   0  0  0  0  0  0  0  0  0  0  0  0
   -0.2530   10.2020   -2.0650 C   0  0  2  0  0  0  0  0  0  0  0  0
    0.7880    9.0600   -1.8080 C   0  0  0  0  0  0  0  0  0  0  0  0
   -2.2878    6.8487   -1.9295 H   0  0  0  0  0  0  0  0  0  0  0  0
   -2.9195    8.3451   -2.6967 H   0  0  0  0  0  0  0  0  0  0  0  0
   -1.1543    8.0121   -2.6967 H   0  0  0  0  0  0  0  0  0  0  0  0
   -1.2462    8.0832   -0.1640 H   0  0  0  0  0  0  0  0  0  0  0  0
   -3.3761    7.8448    0.6088 H   0  0  0  0  0  0  0  0  0  0  0  0
   -3.2646    9.6691    0.5557 H   0  0  0  0  0  0  0  0  0  0  0  0
   -5.2101    9.5556   -0.5427 H   0  0  0  0  0  0  0  0  0  0  0  0
   -4.1703    9.0838   -1.9510 H   0  0  0  0  0  0  0  0  0  0  0  0
   -4.8036    7.1771   -0.0567 H   0  0  0  0  0  0  0  0  0  0  0  0
   -7.7285    9.0834   -1.4445 H   0  0  0  0  0  0  0  0  0  0  0  0
   -6.6422    9.0577   -2.8749 H   0  0  0  0  0  0  0  0  0  0  0  0
   -8.1506    8.0822   -2.8749 H   0  0  0  0  0  0  0  0  0  0  0  0
   -7.4407    6.0340   -0.1856 H   0  0  0  0  0  0  0  0  0  0  0  0
   -8.4077    6.2094   -1.6891 H   0  0  0  0  0  0  0  0  0  0  0  0
   -6.9228    5.1987   -1.6891 H   0  0  0  0  0  0  0  0  0  0  0  0
   -2.3056   10.5486   -1.4037 H   0  0  0  0  0  0  0  0  0  0  0  0
   -1.5324   11.3183    0.7532 H   0  0  0  0  0  0  0  0  0  0  0  0
   -0.4712    9.9087    0.9618 H   0  0  0  0  0  0  0  0  0  0  0  0
    0.3850   12.5422    0.2570 H   0  0  0  0  0  0  0  0  0  0  0  0
    1.3837   11.1009    0.0874 H   0  0  0  0  0  0  0  0  0  0  0  0
   -1.1307   13.1567   -0.9883 H   0  0  0  0  0  0  0  0  0  0  0  0
   -0.3225   13.6061   -2.5282 H   0  0  0  0  0  0  0  0  0  0  0  0
   -1.6394   12.3845   -2.5282 H   0  0  0  0  0  0  0  0  0  0  0  0
    2.2494   11.1284   -2.1743 H   0  0  0  0  0  0  0  0  0  0  0  0
    2.0742   13.5036   -1.1901 H   0  0  0  0  0  0  0  0  0  0  0  0
    3.3471   13.0872   -2.4534 H   0  0  0  0  0  0  0  0  0  0  0  0
    2.1369   15.4093   -2.7404 H   0  0  0  0  0  0  0  0  0  0  0  0
   -0.2573   12.8165   -4.7024 H   0  0  0  0  0  0  0  0  0  0  0  0
    2.2378   13.0624   -6.4943 H   0  0  0  0  0  0  0  0  0  0  0  0
    0.7691   12.0330   -6.8012 H   0  0  0  0  0  0  0  0  0  0  0  0
    0.7639   14.1018   -8.1593 H   0  0  0  0  0  0  0  0  0  0  0  0
   -0.6177   14.0156   -6.9976 H   0  0  0  0  0  0  0  0  0  0  0  0
    0.2694   16.2451   -6.9742 H   0  0  0  0  0  0  0  0  0  0  0  0
    2.7660   14.9500   -6.3370 H   0  0  0  0  0  0  0  0  0  0  0  0
   -1.1033   15.6473   -3.6338 H   0  0  0  0  0  0  0  0  0  0  0  0
   -1.3147   16.5567   -5.1683 H   0  0  0  0  0  0  0  0  0  0  0  0
   -1.4018   14.7626   -5.1683 H   0  0  0  0  0  0  0  0  0  0  0  0
    1.2067   16.9165   -3.3660 H   0  0  0  0  0  0  0  0  0  0  0  0
    2.2326   17.0189   -4.8370 H   0  0  0  0  0  0  0  0  0  0  0  0
    0.5878   17.7410   -4.8370 H   0  0  0  0  0  0  0  0  0  0  0  0
    3.5568   11.2515   -3.8069 H   0  0  0  0  0  0  0  0  0  0  0  0
    2.8468   10.4803   -5.2656 H   0  0  0  0  0  0  0  0  0  0  0  0
    3.2078   12.2399   -5.2656 H   0  0  0  0  0  0  0  0  0  0  0  0
    0.1874   10.5425   -5.4791 H   0  0  0  0  0  0  0  0  0  0  0  0
    1.2323    9.5614   -4.3044 H   0  0  0  0  0  0  0  0  0  0  0  0
   -1.4237   10.9057   -3.7359 H   0  0  0  0  0  0  0  0  0  0  0  0
   -1.0351    9.1405   -3.7652 H   0  0  0  0  0  0  0  0  0  0  0  0
    0.9170    8.9184   -0.7248 H   0  0  0  0  0  0  0  0  0  0  0  0
    0.4252    8.1248   -2.2594 H   0  0  0  0  0  0  0  0  0  0  0  0
    1.7527    9.3349   -2.2594 H   0  0  0  0  0  0  0  0  0  0  0  0
  1  2  1  0
  2  3  1  0
  3  4  1  0
  4  5  1  0
  5  6  1  0
  6  7  1  0
  7  8  1  0
  7  9  1  0
  2 10  1  0
 10 11  1  0
 11 12  1  0
 12 13  1  0
 13 14  1  1
 13 15  1  0
 15 16  1  0
 16 17  1  0
 17 18  2  0
 18 19  1  0
 19 20  1  0
 20 21  1  0
 21 22  1  0
 22 23  1  0
 22 24  1  0
 24 25  1  0
 24 26  1  0
 19 27  1  0
 27 28  1  6
 27 29  1  0
 29 30  1  0
 30 31  1  0
 31 32  1  1
  7  5  1  0
 31 10  1  0
 31 13  1  0
 27 15  1  0
 24 18  1  0
  1 33  1  0
  1 34  1  0
  1 35  1  0
  2 36  1  1
  3 37  1  0
  3 38  1  0
  4 39  1  0
  4 40  1  0
  5 41  1  1
  8 42  1  0
  8 43  1  0
  8 44  1  0
  9 45  1  0
  9 46  1  0
  9 47  1  0
 10 48  1  6
 11 49  1  0
 11 50  1  0
 12 51  1  0
 12 52  1  0
 14 53  1  0
 14 54  1  0
 14 55  1  0
 15 56  1  1
 16 57  1  0
 16 58  1  0
 17 59  1  0
 19 60  1  6
 20 61  1  0
 20 62  1  0
 21 63  1  0
 21 64  1  0
 22 65  1  6
 23 66  1  0
 25 67  1  0
 25 68  1  0
 25 69  1  0
 26 70  1  0
 26 71  1  0
 26 72  1  0
 28 73  1  0
 28 74  1  0
 28 75  1  0
 29 76  1  0
 29 77  1  0
 30 78  1  0
 30 79  1  0
 32 80  1  0
 32 81  1  0
 32 82  1  0
M  END
>  <meeko>  (11) 
{"is_sidechain": [false], "intermolecular_energy": 2.731, "internal_energy": -0.839}

$$$$
EPH_relaxed_0001_pdb2pqr_Repair_208_r2_0001_out
     RDKit          3D

 82 86  0  0  0  0  0  0  0  0999 V2000
  -13.8390    9.8130    0.9790 C   0  0  0  0  0  0  0  0  0  0  0  0
  -13.2320    9.3240   -0.3390 C   0  0  2  0  0  0  0  0  0  0  0  0
  -14.2070    8.4300   -1.1310 C   0  0  0  0  0  0  0  0  0  0  0  0
  -15.2870    9.2120   -1.8820 C   0  0  0  0  0  0  0  0  0  0  0  0
  -14.7290    9.9180   -3.0810 C   0  0  2  0  0  0  0  0  0  0  0  0
  -13.5490   10.6900   -2.8240 O   0  0  0  0  0  0  0  0  0  0  0  0
  -14.7130   11.4270   -3.2300 C   0  0  0  0  0  0  0  0  0  0  0  0
  -15.2680   12.3230   -2.1670 C   0  0  0  0  0  0  0  0  0  0  0  0
  -14.6090   12.0090   -4.6050 C   0  0  0  0  0  0  0  0  0  0  0  0
  -11.9370    8.5680   -0.0660 C   0  0  1  0  0  0  0  0  0  0  0  0
  -12.1180    7.4270    0.9710 C   0  0  0  0  0  0  0  0  0  0  0  0
  -11.1700    6.2780    0.5410 C   0  0  0  0  0  0  0  0  0  0  0  0
  -10.2420    6.9140   -0.5200 C   0  0  1  0  0  0  0  0  0  0  0  0
   -9.1540    7.6730    0.3020 C   0  0  0  0  0  0  0  0  0  0  0  0
   -9.6030    5.9330   -1.5570 C   0  0  2  0  0  0  0  0  0  0  0  0
   -8.6680    4.8690   -0.9570 C   0  0  0  0  0  0  0  0  0  0  0  0
   -7.2310    5.2620   -0.8650 C   0  0  0  0  0  0  0  0  0  0  0  0
   -6.6620    6.3010   -1.5030 C   0  0  0  0  0  0  0  0  0  0  0  0
   -7.4640    7.1500   -2.4970 C   0  0  1  0  0  0  0  0  0  0  0  0
   -6.6290    7.3660   -3.7860 C   0  0  0  0  0  0  0  0  0  0  0  0
   -5.2500    7.9520   -3.4990 C   0  0  0  0  0  0  0  0  0  0  0  0
   -4.4610    7.0510   -2.5530 C   0  0  2  0  0  0  0  0  0  0  0  0
   -4.1690    5.8210   -3.2240 O   0  0  0  0  0  0  0  0  0  0  0  0
   -5.2080    6.7550   -1.2220 C   0  0  0  0  0  0  0  0  0  0  0  0
   -5.2570    8.0380   -0.3570 C   0  0  0  0  0  0  0  0  0  0  0  0
   -4.3670    5.7240   -0.4220 C   0  0  0  0  0  0  0  0  0  0  0  0
   -8.9410    6.6480   -2.8030 C   0  0  1  0  0  0  0  0  0  0  0  0
   -8.9180    5.6000   -3.9580 C   0  0  0  0  0  0  0  0  0  0  0  0
   -9.7990    7.8620   -3.3230 C   0  0  0  0  0  0  0  0  0  0  0  0
  -10.5030    8.7220   -2.2560 C   0  0  0  0  0  0  0  0  0  0  0  0
  -11.2700    7.8450   -1.2620 C   0  0  2  0  0  0  0  0  0  0  0  0
  -12.3860    7.0860   -2.0570 C   0  0  0  0  0  0  0  0  0  0  0  0
  -13.2892    9.3701    1.8225 H   0  0  0  0  0  0  0  0  0  0  0  0
  -13.7685   10.9095    1.0306 H   0  0  0  0  0  0  0  0  0  0  0  0
  -14.8954    9.5107    1.0306 H   0  0  0  0  0  0  0  0  0  0  0  0
  -13.0221   10.2105   -0.9555 H   0  0  0  0  0  0  0  0  0  0  0  0
  -13.6278    7.8477   -1.8627 H   0  0  0  0  0  0  0  0  0  0  0  0
  -14.7231    7.7906   -0.3996 H   0  0  0  0  0  0  0  0  0  0  0  0
  -16.0688    8.5123   -2.2124 H   0  0  0  0  0  0  0  0  0  0  0  0
  -15.6985    9.9698   -1.1991 H   0  0  0  0  0  0  0  0  0  0  0  0
  -15.0779    9.1148   -3.7467 H   0  0  0  0  0  0  0  0  0  0  0  0
  -15.0161   11.9164   -1.1764 H   0  0  0  0  0  0  0  0  0  0  0  0
  -14.8343   13.3285   -2.2717 H   0  0  0  0  0  0  0  0  0  0  0  0
  -16.3614   12.3826   -2.2717 H   0  0  0  0  0  0  0  0  0  0  0  0
  -14.4159   13.0895   -4.5322 H   0  0  0  0  0  0  0  0  0  0  0  0
  -13.7832   11.5246   -5.1467 H   0  0  0  0  0  0  0  0  0  0  0  0
  -15.5515   11.8406   -5.1467 H   0  0  0  0  0  0  0  0  0  0  0  0
  -11.3038    9.4027    0.2692 H   0  0  0  0  0  0  0  0  0  0  0  0
  -11.8500    7.7830    1.9767 H   0  0  0  0  0  0  0  0  0  0  0  0
  -13.1631    7.0855    1.0044 H   0  0  0  0  0  0  0  0  0  0  0  0
  -10.5863    5.9144    1.3995 H   0  0  0  0  0  0  0  0  0  0  0  0
  -11.7189    5.4094    0.1481 H   0  0  0  0  0  0  0  0  0  0  0  0
   -9.3464    7.5388    1.3767 H   0  0  0  0  0  0  0  0  0  0  0  0
   -8.1605    7.2710    0.0543 H   0  0  0  0  0  0  0  0  0  0  0  0
   -9.1882    8.7442    0.0543 H   0  0  0  0  0  0  0  0  0  0  0  0
  -10.4786    5.3836   -1.9331 H   0  0  0  0  0  0  0  0  0  0  0  0
   -9.0229    4.6382    0.0583 H   0  0  0  0  0  0  0  0  0  0  0  0
   -8.7052    4.0097   -1.6427 H   0  0  0  0  0  0  0  0  0  0  0  0
   -6.5821    4.6503   -0.2210 H   0  0  0  0  0  0  0  0  0  0  0  0
   -7.6389    8.1158   -2.0003 H   0  0  0  0  0  0  0  0  0  0  0  0
   -6.5021    6.3967   -4.2904 H   0  0  0  0  0  0  0  0  0  0  0  0
   -7.1716    8.0839   -4.4186 H   0  0  0  0  0  0  0  0  0  0  0  0
   -4.6975    8.0526   -4.4449 H   0  0  0  0  0  0  0  0  0  0  0  0
   -5.3783    8.9350   -3.0224 H   0  0  0  0  0  0  0  0  0  0  0  0
   -3.5383    7.5853   -2.2825 H   0  0  0  0  0  0  0  0  0  0  0  0
   -3.2030    5.7110   -3.2290 H   0  0  0  0  0  0  0  0  0  0  0  0
   -5.2465    7.7628    0.7080 H   0  0  0  0  0  0  0  0  0  0  0  0
   -4.3822    8.6657   -0.5822 H   0  0  0  0  0  0  0  0  0  0  0  0
   -6.1772    8.5971   -0.5822 H   0  0  0  0  0  0  0  0  0  0  0  0
   -4.5062    5.8946    0.6557 H   0  0  0  0  0  0  0  0  0  0  0  0
   -4.6954    4.7057   -0.6775 H   0  0  0  0  0  0  0  0  0  0  0  0
   -3.3035    5.8412   -0.6775 H   0  0  0  0  0  0  0  0  0  0  0  0
   -8.8957    4.5859   -3.5325 H   0  0  0  0  0  0  0  0  0  0  0  0
   -9.8189    5.7178   -4.5780 H   0  0  0  0  0  0  0  0  0  0  0  0
   -8.0231    5.7572   -4.5780 H   0  0  0  0  0  0  0  0  0  0  0  0
   -9.1297    8.5222   -3.8942 H   0  0  0  0  0  0  0  0  0  0  0  0
  -10.6116    7.4098   -3.9106 H   0  0  0  0  0  0  0  0  0  0  0  0
   -9.7482    9.3078   -1.7109 H   0  0  0  0  0  0  0  0  0  0  0  0
  -11.2186    9.3886   -2.7597 H   0  0  0  0  0  0  0  0  0  0  0  0
  -13.0825    6.6123   -1.3495 H   0  0  0  0  0  0  0  0  0  0  0  0
  -12.9347    7.7990   -2.6899 H   0  0  0  0  0  0  0  0  0  0  0  0
  -11.9245    6.3137   -2.6899 H   0  0  0  0  0  0  0  0  0  0  0  0
  1  2  1  0
  2  3  1  0
  3  4  1  0
  4  5  1  0
  5  6  1  0
  6  7  1  0
  7  8  1  0
  7  9  1  0
  2 10  1  0
 10 11  1  0
 11 12  1  0
 12 13  1  0
 13 14  1  1
 13 15  1  0
 15 16  1  0
 16 17  1  0
 17 18  2  0
 18 19  1  0
 19 20  1  0
 20 21  1  0
 21 22  1  0
 22 23  1  0
 22 24  1  0
 24 25  1  0
 24 26  1  0
 19 27  1  0
 27 28  1  6
 27 29  1  0
 29 30  1  0
 30 31  1  0
 31 32  1  6
  7  5  1  0
 31 10  1  0
 31 13  1  0
 27 15  1  0
 24 18  1  0
  1 33  1  0
  1 34  1  0
  1 35  1  0
  2 36  1  6
  3 37  1  0
  3 38  1  0
  4 39  1  0
  4 40  1  0
  5 41  1  6
  8 42  1  0
  8 43  1  0
  8 44  1  0
  9 45  1  0
  9 46  1  0
  9 47  1  0
 10 48  1  1
 11 49  1  0
 11 50  1  0
 12 51  1  0
 12 52  1  0
 14 53  1  0
 14 54  1  0
 14 55  1  0
 15 56  1  6
 16 57  1  0
 16 58  1  0
 17 59  1  0
 19 60  1  1
 20 61  1  0
 20 62  1  0
 21 63  1  0
 21 64  1  0
 22 65  1  1
 23 66  1  0
 25 67  1  0
 25 68  1  0
 25 69  1  0
 26 70  1  0
 26 71  1  0
 26 72  1  0
 28 73  1  0
 28 74  1  0
 28 75  1  0
 29 76  1  0
 29 77  1  0
 30 78  1  0
 30 79  1  0
 32 80  1  0
 32 81  1  0
 32 82  1  0
M  END
>  <meeko>  (12) 
{"is_sidechain": [false], "intermolecular_energy": 2.731, "internal_energy": -0.839}

$$$$
EPH_relaxed_0001_pdb2pqr_Repair_208_r2_0001_out
     RDKit          3D

 82 86  0  0  0  0  0  0  0  0999 V2000
    0.5650   14.8440   -6.8910 C   0  0  0  0  0  0  0  0  0  0  0  0
    1.9710   14.3050   -6.6110 C   0  0  2  0  0  0  0  0  0  0  0  0
    2.7150   13.9250   -7.9070 C   0  0  0  0  0  0  0  0  0  0  0  0
    2.6180   14.9860   -9.0060 C   0  0  0  0  0  0  0  0  0  0  0  0
    1.1950   15.3740   -9.2770 C   0  0  2  0  0  0  0  0  0  0  0  0
    0.9900   16.0690  -10.5140 O   0  0  0  0  0  0  0  0  0  0  0  0
    0.7140   16.8120   -9.3160 C   0  0  0  0  0  0  0  0  0  0  0  0
    1.6500   17.9550   -9.0800 C   0  0  0  0  0  0  0  0  0  0  0  0
   -0.7420   17.0850   -9.0980 C   0  0  0  0  0  0  0  0  0  0  0  0
    1.8900   13.0980   -5.6840 C   0  0  1  0  0  0  0  0  0  0  0  0
    3.2790   12.4630   -5.4060 C   0  0  0  0  0  0  0  0  0  0  0  0
    3.2510   11.9500   -3.9440 C   0  0  0  0  0  0  0  0  0  0  0  0
    1.7590   12.0020   -3.5400 C   0  0  1  0  0  0  0  0  0  0  0  0
    1.1350   10.7040   -4.1400 C   0  0  0  0  0  0  0  0  0  0  0  0
    1.4620   12.1320   -2.0100 C   0  0  2  0  0  0  0  0  0  0  0  0
    1.9520   10.9550   -1.1480 C   0  0  0  0  0  0  0  0  0  0  0  0
    0.9680    9.8490   -0.9600 C   0  0  0  0  0  0  0  0  0  0  0  0
   -0.3510    9.9230   -1.2190 C   0  0  0  0  0  0  0  0  0  0  0  0
   -0.9940   11.2430   -1.6620 C   0  0  1  0  0  0  0  0  0  0  0  0
   -2.2940   11.4840   -0.8510 C   0  0  0  0  0  0  0  0  0  0  0  0
   -3.2620   10.3070   -0.9350 C   0  0  0  0  0  0  0  0  0  0  0  0
   -2.6050    9.0240   -0.4310 C   0  0  2  0  0  0  0  0  0  0  0  0
   -2.3550    9.1540    0.9720 O   0  0  0  0  0  0  0  0  0  0  0  0
   -1.2790    8.6840   -1.1690 C   0  0  0  0  0  0  0  0  0  0  0  0
   -1.5890    8.2490   -2.6220 C   0  0  0  0  0  0  0  0  0  0  0  0
   -0.6480    7.4490   -0.4710 C   0  0  0  0  0  0  0  0  0  0  0  0
   -0.0360   12.5120   -1.6710 C   0  0  1  0  0  0  0  0  0  0  0  0
   -0.0190   13.1750   -0.2600 C   0  0  0  0  0  0  0  0  0  0  0  0
   -0.6190   13.5890   -2.6610 C   0  0  0  0  0  0  0  0  0  0  0  0
   -0.1930   13.4790   -4.1370 C   0  0  0  0  0  0  0  0  0  0  0  0
    1.3260   13.3310   -4.2600 C   0  0  2  0  0  0  0  0  0  0  0  0
    1.9810   14.6320   -3.6840 C   0  0  0  0  0  0  0  0  0  0  0  0
    0.0514   15.0409   -5.9384 H   0  0  0  0  0  0  0  0  0  0  0  0
    0.6384   15.7777   -7.4678 H   0  0  0  0  0  0  0  0  0  0  0  0
   -0.0046   14.1005   -7.4678 H   0  0  0  0  0  0  0  0  0  0  0  0
    2.5432   15.1089   -6.1249 H   0  0  0  0  0  0  0  0  0  0  0  0
    3.7771   13.7714   -7.6654 H   0  0  0  0  0  0  0  0  0  0  0  0
    2.2371   13.0141   -8.2966 H   0  0  0  0  0  0  0  0  0  0  0  0
    3.1772   15.8790   -8.6900 H   0  0  0  0  0  0  0  0  0  0  0  0
    3.0404   14.5633   -9.9295 H   0  0  0  0  0  0  0  0  0  0  0  0
    0.8256   14.4867   -8.7420 H   0  0  0  0  0  0  0  0  0  0  0  0
    1.7757   18.1086   -7.9981 H   0  0  0  0  0  0  0  0  0  0  0  0
    2.6261   17.7294   -9.5342 H   0  0  0  0  0  0  0  0  0  0  0  0
    1.2363   18.8675   -9.5342 H   0  0  0  0  0  0  0  0  0  0  0  0
   -0.9501   17.1240   -8.0186 H   0  0  0  0  0  0  0  0  0  0  0  0
   -1.0072   18.0485   -9.5576 H   0  0  0  0  0  0  0  0  0  0  0  0
   -1.3383   16.2830   -9.5576 H   0  0  0  0  0  0  0  0  0  0  0  0
    1.1996   12.4674   -6.2634 H   0  0  0  0  0  0  0  0  0  0  0  0
    3.4585   11.6267   -6.0976 H   0  0  0  0  0  0  0  0  0  0  0  0
    4.0853   13.1969   -5.5519 H   0  0  0  0  0  0  0  0  0  0  0  0
    3.6331   10.9201   -3.8866 H   0  0  0  0  0  0  0  0  0  0  0  0
    3.8845   12.5542   -3.2780 H   0  0  0  0  0  0  0  0  0  0  0  0
    0.8155   10.0395   -3.3237 H   0  0  0  0  0  0  0  0  0  0  0  0
    0.2653   10.9678   -4.7597 H   0  0  0  0  0  0  0  0  0  0  0  0
    1.8842   10.1895   -4.7597 H   0  0  0  0  0  0  0  0  0  0  0  0
    2.0830   12.9928   -1.7212 H   0  0  0  0  0  0  0  0  0  0  0  0
    2.8490   10.5342   -1.6258 H   0  0  0  0  0  0  0  0  0  0  0  0
    2.1392   11.3690   -0.1462 H   0  0  0  0  0  0  0  0  0  0  0  0
    1.3530    8.8922   -0.5774 H   0  0  0  0  0  0  0  0  0  0  0  0
   -1.2368   11.1203   -2.7278 H   0  0  0  0  0  0  0  0  0  0  0  0
   -2.0268   11.6464    0.2036 H   0  0  0  0  0  0  0  0  0  0  0  0
   -2.7979   12.3624   -1.2805 H   0  0  0  0  0  0  0  0  0  0  0  0
   -4.1473   10.5242   -0.3193 H   0  0  0  0  0  0  0  0  0  0  0  0
   -3.5511   10.1641   -1.9867 H   0  0  0  0  0  0  0  0  0  0  0  0
   -3.2993    8.1956   -0.6354 H   0  0  0  0  0  0  0  0  0  0  0  0
   -2.0200   10.0530    1.1290 H   0  0  0  0  0  0  0  0  0  0  0  0
   -2.2273    7.3533   -2.6083 H   0  0  0  0  0  0  0  0  0  0  0  0
   -2.1114    9.0636   -3.1451 H   0  0  0  0  0  0  0  0  0  0  0  0
   -0.6485    8.0211   -3.1451 H   0  0  0  0  0  0  0  0  0  0  0  0
   -0.7111    7.5725    0.6202 H   0  0  0  0  0  0  0  0  0  0  0  0
   -1.1927    6.5411   -0.7693 H   0  0  0  0  0  0  0  0  0  0  0  0
    0.4069    7.3584   -0.7693 H   0  0  0  0  0  0  0  0  0  0  0  0
   -0.0391   12.3927    0.5130 H   0  0  0  0  0  0  0  0  0  0  0  0
    0.8949   13.7770   -0.1487 H   0  0  0  0  0  0  0  0  0  0  0  0
   -0.9008   13.8231   -0.1487 H   0  0  0  0  0  0  0  0  0  0  0  0
   -1.7159   13.5148   -2.6249 H   0  0  0  0  0  0  0  0  0  0  0  0
   -0.2100   14.5495   -2.3144 H   0  0  0  0  0  0  0  0  0  0  0  0
   -0.6777   12.5999   -4.5868 H   0  0  0  0  0  0  0  0  0  0  0  0
   -0.4991   14.3973   -4.6595 H   0  0  0  0  0  0  0  0  0  0  0  0
    1.9628   14.5959   -2.5847 H   0  0  0  0  0  0  0  0  0  0  0  0
    3.0223   14.7030   -4.0314 H   0  0  0  0  0  0  0  0  0  0  0  0
    1.4179   15.5108   -4.0314 H   0  0  0  0  0  0  0  0  0  0  0  0
  1  2  1  0
  2  3  1  0
  3  4  1  0
  4  5  1  0
  5  6  1  0
  6  7  1  0
  7  8  1  0
  7  9  1  0
  2 10  1  0
 10 11  1  0
 11 12  1  0
 12 13  1  0
 13 14  1  6
 13 15  1  0
 15 16  1  0
 16 17  1  0
 17 18  2  0
 18 19  1  0
 19 20  1  0
 20 21  1  0
 21 22  1  0
 22 23  1  0
 22 24  1  0
 24 25  1  0
 24 26  1  0
 19 27  1  0
 27 28  1  1
 27 29  1  0
 29 30  1  0
 30 31  1  0
 31 32  1  1
  7  5  1  0
 31 10  1  0
 31 13  1  0
 27 15  1  0
 24 18  1  0
  1 33  1  0
  1 34  1  0
  1 35  1  0
  2 36  1  1
  3 37  1  0
  3 38  1  0
  4 39  1  0
  4 40  1  0
  5 41  1  6
  8 42  1  0
  8 43  1  0
  8 44  1  0
  9 45  1  0
  9 46  1  0
  9 47  1  0
 10 48  1  6
 11 49  1  0
 11 50  1  0
 12 51  1  0
 12 52  1  0
 14 53  1  0
 14 54  1  0
 14 55  1  0
 15 56  1  1
 16 57  1  0
 16 58  1  0
 17 59  1  0
 19 60  1  6
 20 61  1  0
 20 62  1  0
 21 63  1  0
 21 64  1  0
 22 65  1  1
 23 66  1  0
 25 67  1  0
 25 68  1  0
 25 69  1  0
 26 70  1  0
 26 71  1  0
 26 72  1  0
 28 73  1  0
 28 74  1  0
 28 75  1  0
 29 76  1  0
 29 77  1  0
 30 78  1  0
 30 79  1  0
 32 80  1  0
 32 81  1  0
 32 82  1  0
M  END
>  <meeko>  (13) 
{"is_sidechain": [false], "intermolecular_energy": 2.731, "internal_energy": -0.839}

$$$$
EPH_relaxed_0001_pdb2pqr_Repair_208_r2_0001_out
     RDKit          3D

 82 86  0  0  0  0  0  0  0  0999 V2000
   -4.0760    6.6770   -2.6800 C   0  0  0  0  0  0  0  0  0  0  0  0
   -4.0920    7.4170   -1.3400 C   0  0  2  0  0  0  0  0  0  0  0  0
   -5.5260    7.6990   -0.8490 C   0  0  0  0  0  0  0  0  0  0  0  0
   -6.5370    6.6220   -1.2520 C   0  0  0  0  0  0  0  0  0  0  0  0
   -7.9480    7.0690   -1.0140 C   0  0  2  0  0  0  0  0  0  0  0  0
   -8.9100    6.0080   -0.9550 O   0  0  0  0  0  0  0  0  0  0  0  0
   -9.0530    6.9330   -2.0450 C   0  0  0  0  0  0  0  0  0  0  0  0
   -8.7960    6.3320   -3.3910 C   0  0  0  0  0  0  0  0  0  0  0  0
  -10.2530    7.8210   -1.9290 C   0  0  0  0  0  0  0  0  0  0  0  0
   -3.3160    8.7230   -1.4570 C   0  0  1  0  0  0  0  0  0  0  0  0
   -3.8160    9.8070   -0.4650 C   0  0  0  0  0  0  0  0  0  0  0  0
   -2.5710   10.6210   -0.0270 C   0  0  0  0  0  0  0  0  0  0  0  0
   -1.4620   10.2030   -1.0210 C   0  0  1  0  0  0  0  0  0  0  0  0
   -1.7270   11.0580   -2.3000 C   0  0  0  0  0  0  0  0  0  0  0  0
    0.0100   10.3580   -0.5190 C   0  0  2  0  0  0  0  0  0  0  0  0
    0.4410   11.7990   -0.1950 C   0  0  0  0  0  0  0  0  0  0  0  0
    1.0470   12.5530   -1.3320 C   0  0  0  0  0  0  0  0  0  0  0  0
    1.4980   12.0110   -2.4790 C   0  0  0  0  0  0  0  0  0  0  0  0
    1.5120   10.4900   -2.6790 C   0  0  1  0  0  0  0  0  0  0  0  0
    2.8830   10.0570   -3.2620 C   0  0  0  0  0  0  0  0  0  0  0  0
    3.2430   10.8170   -4.5350 C   0  0  0  0  0  0  0  0  0  0  0  0
    3.2760   12.3220   -4.2820 C   0  0  2  0  0  0  0  0  0  0  0  0
    4.3620   12.6160   -3.3970 O   0  0  0  0  0  0  0  0  0  0  0  0
    1.9510   12.8720   -3.6840 C   0  0  0  0  0  0  0  0  0  0  0  0
    0.8370   12.8260   -4.7590 C   0  0  0  0  0  0  0  0  0  0  0  0
    2.1660   14.3710   -3.3450 C   0  0  0  0  0  0  0  0  0  0  0  0
    1.0830    9.6210   -1.4190 C   0  0  1  0  0  0  0  0  0  0  0  0
    2.3210    9.3550   -0.5100 C   0  0  0  0  0  0  0  0  0  0  0  0
    0.5840    8.2120   -1.9130 C   0  0  0  0  0  0  0  0  0  0  0  0
   -0.9070    8.0930   -2.2810 C   0  0  0  0  0  0  0  0  0  0  0  0
   -1.7930    8.6740   -1.1750 C   0  0  2  0  0  0  0  0  0  0  0  0
   -1.5650    7.8200    0.1190 C   0  0  0  0  0  0  0  0  0  0  0  0
   -4.0525    5.5922   -2.4995 H   0  0  0  0  0  0  0  0  0  0  0  0
   -4.9799    6.9341   -3.2517 H   0  0  0  0  0  0  0  0  0  0  0  0
   -3.1840    6.9730   -3.2517 H   0  0  0  0  0  0  0  0  0  0  0  0
   -3.6108    6.7642   -0.5969 H   0  0  0  0  0  0  0  0  0  0  0  0
   -5.5102    7.7672    0.2488 H   0  0  0  0  0  0  0  0  0  0  0  0
   -5.8496    8.6374   -1.3230 H   0  0  0  0  0  0  0  0  0  0  0  0
   -6.4101    6.3962   -2.3211 H   0  0  0  0  0  0  0  0  0  0  0  0
   -6.3514    5.7298   -0.6359 H   0  0  0  0  0  0  0  0  0  0  0  0
   -7.6017    7.9217   -0.4115 H   0  0  0  0  0  0  0  0  0  0  0  0
   -8.3662    5.3270   -3.2678 H   0  0  0  0  0  0  0  0  0  0  0  0
   -9.7422    6.2605   -3.9474 H   0  0  0  0  0  0  0  0  0  0  0  0
   -8.0906    6.9667   -3.9474 H   0  0  0  0  0  0  0  0  0  0  0  0
  -10.4823    7.9907   -0.8666 H   0  0  0  0  0  0  0  0  0  0  0  0
  -10.0449    8.7843   -2.4176 H   0  0  0  0  0  0  0  0  0  0  0  0
  -11.1134    7.3404   -2.4176 H   0  0  0  0  0  0  0  0  0  0  0  0
   -3.4950    8.9481   -2.5187 H   0  0  0  0  0  0  0  0  0  0  0  0
   -4.5446   10.4660   -0.9597 H   0  0  0  0  0  0  0  0  0  0  0  0
   -4.3137    9.3491    0.4025 H   0  0  0  0  0  0  0  0  0  0  0  0
   -2.7686   11.7008   -0.0973 H   0  0  0  0  0  0  0  0  0  0  0  0
   -2.2903   10.4239    1.0182 H   0  0  0  0  0  0  0  0  0  0  0  0
   -2.0408   12.0704   -2.0057 H   0  0  0  0  0  0  0  0  0  0  0  0
   -0.8056   11.1189   -2.8977 H   0  0  0  0  0  0  0  0  0  0  0  0
   -2.5214   10.5871   -2.8977 H   0  0  0  0  0  0  0  0  0  0  0  0
   -0.0132    9.8301    0.4458 H   0  0  0  0  0  0  0  0  0  0  0  0
   -0.4475   12.3516    0.1444 H   0  0  0  0  0  0  0  0  0  0  0  0
    1.2271   11.7173    0.5701 H   0  0  0  0  0  0  0  0  0  0  0  0
    1.1323   13.6443   -1.2235 H   0  0  0  0  0  0  0  0  0  0  0  0
    0.7127   10.2710   -3.4023 H   0  0  0  0  0  0  0  0  0  0  0  0
    3.6617   10.2433   -2.5078 H   0  0  0  0  0  0  0  0  0  0  0  0
    2.8151    8.9894   -3.5181 H   0  0  0  0  0  0  0  0  0  0  0  0
    4.2338   10.4887   -4.8821 H   0  0  0  0  0  0  0  0  0  0  0  0
    2.4786   10.6062   -5.2974 H   0  0  0  0  0  0  0  0  0  0  0  0
    3.4101   12.8177   -5.2548 H   0  0  0  0  0  0  0  0  0  0  0  0
    4.2130   12.1220   -2.5740 H   0  0  0  0  0  0  0  0  0  0  0  0
   -0.1460   12.7854   -4.2669 H   0  0  0  0  0  0  0  0  0  0  0  0
    0.8958   13.7273   -5.3868 H   0  0  0  0  0  0  0  0  0  0  0  0
    0.9699   11.9326   -5.3868 H   0  0  0  0  0  0  0  0  0  0  0  0
    2.1846   14.5009   -2.2529 H   0  0  0  0  0  0  0  0  0  0  0  0
    3.1219   14.7098   -3.7709 H   0  0  0  0  0  0  0  0  0  0  0  0
    1.3438   14.9648   -3.7709 H   0  0  0  0  0  0  0  0  0  0  0  0
    2.0209    9.4195    0.5463 H   0  0  0  0  0  0  0  0  0  0  0  0
    2.7192    8.3508   -0.7174 H   0  0  0  0  0  0  0  0  0  0  0  0
    3.0965   10.1070   -0.7174 H   0  0  0  0  0  0  0  0  0  0  0  0
    1.1693    7.9458   -2.8055 H   0  0  0  0  0  0  0  0  0  0  0  0
    0.7228    7.5399   -1.0533 H   0  0  0  0  0  0  0  0  0  0  0  0
   -1.0918    8.6424   -3.2159 H   0  0  0  0  0  0  0  0  0  0  0  0
   -1.1537    7.0282   -2.4048 H   0  0  0  0  0  0  0  0  0  0  0  0
   -1.7325    8.4476    1.0067 H   0  0  0  0  0  0  0  0  0  0  0  0
   -2.2690    6.9748    0.1293 H   0  0  0  0  0  0  0  0  0  0  0  0
   -0.5335    7.4382    0.1293 H   0  0  0  0  0  0  0  0  0  0  0  0
  1  2  1  0
  2  3  1  0
  3  4  1  0
  4  5  1  0
  5  6  1  0
  6  7  1  0
  7  8  1  0
  7  9  1  0
  2 10  1  0
 10 11  1  0
 11 12  1  0
 12 13  1  0
 13 14  1  6
 13 15  1  0
 15 16  1  0
 16 17  1  0
 17 18  2  0
 18 19  1  0
 19 20  1  0
 20 21  1  0
 21 22  1  0
 22 23  1  0
 22 24  1  0
 24 25  1  0
 24 26  1  0
 19 27  1  0
 27 28  1  1
 27 29  1  0
 29 30  1  0
 30 31  1  0
 31 32  1  1
  7  5  1  0
 31 10  1  0
 31 13  1  0
 27 15  1  0
 24 18  1  0
  1 33  1  0
  1 34  1  0
  1 35  1  0
  2 36  1  1
  3 37  1  0
  3 38  1  0
  4 39  1  0
  4 40  1  0
  5 41  1  1
  8 42  1  0
  8 43  1  0
  8 44  1  0
  9 45  1  0
  9 46  1  0
  9 47  1  0
 10 48  1  6
 11 49  1  0
 11 50  1  0
 12 51  1  0
 12 52  1  0
 14 53  1  0
 14 54  1  0
 14 55  1  0
 15 56  1  1
 16 57  1  0
 16 58  1  0
 17 59  1  0
 19 60  1  6
 20 61  1  0
 20 62  1  0
 21 63  1  0
 21 64  1  0
 22 65  1  6
 23 66  1  0
 25 67  1  0
 25 68  1  0
 25 69  1  0
 26 70  1  0
 26 71  1  0
 26 72  1  0
 28 73  1  0
 28 74  1  0
 28 75  1  0
 29 76  1  0
 29 77  1  0
 30 78  1  0
 30 79  1  0
 32 80  1  0
 32 81  1  0
 32 82  1  0
M  END
>  <meeko>  (14) 
{"is_sidechain": [false], "intermolecular_energy": 2.731, "internal_energy": -0.839}

$$$$
EPH_relaxed_0001_pdb2pqr_Repair_208_r2_0001_out
     RDKit          3D

 82 86  0  0  0  0  0  0  0  0999 V2000
  -12.8800   10.8460   -2.1580 C   0  0  0  0  0  0  0  0  0  0  0  0
  -13.0940    9.6080   -1.2820 C   0  0  2  0  0  0  0  0  0  0  0  0
  -14.0370    9.8910   -0.0960 C   0  0  0  0  0  0  0  0  0  0  0  0
  -15.2850    9.0040   -0.0770 C   0  0  0  0  0  0  0  0  0  0  0  0
  -15.0570    7.7430    0.7000 C   0  0  2  0  0  0  0  0  0  0  0  0
  -13.8230    7.0740    0.4070 O   0  0  0  0  0  0  0  0  0  0  0  0
  -15.0250    6.3650    0.0660 C   0  0  0  0  0  0  0  0  0  0  0  0
  -15.2250    6.1780   -1.4050 C   0  0  0  0  0  0  0  0  0  0  0  0
  -15.2870    5.1720    0.9320 C   0  0  0  0  0  0  0  0  0  0  0  0
  -11.7530    9.0950   -0.7710 C   0  0  1  0  0  0  0  0  0  0  0  0
  -11.8520    8.4750    0.6480 C   0  0  0  0  0  0  0  0  0  0  0  0
  -10.8450    7.2980    0.6940 C   0  0  0  0  0  0  0  0  0  0  0  0
   -9.9710    7.4830   -0.5680 C   0  0  1  0  0  0  0  0  0  0  0  0
   -8.9170    8.5640   -0.1710 C   0  0  0  0  0  0  0  0  0  0  0  0
   -9.2900    6.1940   -1.1330 C   0  0  2  0  0  0  0  0  0  0  0  0
   -8.2860    5.5170   -0.1840 C   0  0  0  0  0  0  0  0  0  0  0  0
   -6.8730    5.9810   -0.3140 C   0  0  0  0  0  0  0  0  0  0  0  0
   -6.3750    6.6910   -1.3440 C   0  0  0  0  0  0  0  0  0  0  0  0
   -7.2400    7.0150   -2.5690 C   0  0  1  0  0  0  0  0  0  0  0  0
   -6.4370    6.7190   -3.8630 C   0  0  0  0  0  0  0  0  0  0  0  0
   -5.0910    7.4370   -3.8920 C   0  0  0  0  0  0  0  0  0  0  0  0
   -4.2370    7.0450   -2.6900 C   0  0  2  0  0  0  0  0  0  0  0  0
   -3.8830    5.6630   -2.8070 O   0  0  0  0  0  0  0  0  0  0  0  0
   -4.9460    7.2890   -1.3290 C   0  0  0  0  0  0  0  0  0  0  0  0
   -5.0590    8.8110   -1.0660 C   0  0  0  0  0  0  0  0  0  0  0  0
   -4.0350    6.7210   -0.2070 C   0  0  0  0  0  0  0  0  0  0  0  0
   -8.6890    6.3620   -2.5870 C   0  0  1  0  0  0  0  0  0  0  0  0
   -8.6200    4.9330   -3.2080 C   0  0  0  0  0  0  0  0  0  0  0  0
   -9.6240    7.2110   -3.5270 C   0  0  0  0  0  0  0  0  0  0  0  0
  -10.3610    8.4000   -2.8820 C   0  0  0  0  0  0  0  0  0  0  0  0
  -11.0620    7.9750   -1.5880 C   0  0  2  0  0  0  0  0  0  0  0  0
  -12.1430    6.9030   -1.9590 C   0  0  0  0  0  0  0  0  0  0  0  0
  -12.7277   11.7269   -1.5170 H   0  0  0  0  0  0  0  0  0  0  0  0
  -11.9943   10.6971   -2.7931 H   0  0  0  0  0  0  0  0  0  0  0  0
  -13.7643   11.0031   -2.7931 H   0  0  0  0  0  0  0  0  0  0  0  0
  -13.5724    8.8394   -1.9069 H   0  0  0  0  0  0  0  0  0  0  0  0
  -13.4796    9.7263    0.8379 H   0  0  0  0  0  0  0  0  0  0  0  0
  -14.3825   10.9301   -0.2007 H   0  0  0  0  0  0  0  0  0  0  0  0
  -16.1124    9.5626    0.3849 H   0  0  0  0  0  0  0  0  0  0  0  0
  -15.5259    8.7287   -1.1144 H   0  0  0  0  0  0  0  0  0  0  0  0
  -15.6084    8.1461    1.5622 H   0  0  0  0  0  0  0  0  0  0  0  0
  -16.0188    5.4358   -1.5757 H   0  0  0  0  0  0  0  0  0  0  0  0
  -15.5150    7.1364   -1.8604 H   0  0  0  0  0  0  0  0  0  0  0  0
  -14.2882    5.8243   -1.8604 H   0  0  0  0  0  0  0  0  0  0  0  0
  -15.2225    5.4657    1.9901 H   0  0  0  0  0  0  0  0  0  0  0  0
  -16.2927    4.7796    0.7211 H   0  0  0  0  0  0  0  0  0  0  0  0
  -14.5383    4.3943    0.7211 H   0  0  0  0  0  0  0  0  0  0  0  0
  -11.1655   10.0230   -0.8321 H   0  0  0  0  0  0  0  0  0  0  0  0
  -11.5916    9.2260    1.4083 H   0  0  0  0  0  0  0  0  0  0  0  0
  -12.8747    8.1276    0.8563 H   0  0  0  0  0  0  0  0  0  0  0  0
  -10.2290    7.3493    1.6039 H   0  0  0  0  0  0  0  0  0  0  0  0
  -11.3474    6.3196    0.7137 H   0  0  0  0  0  0  0  0  0  0  0  0
   -8.8536    8.6291    0.9252 H   0  0  0  0  0  0  0  0  0  0  0  0
   -7.9343    8.2853   -0.5793 H   0  0  0  0  0  0  0  0  0  0  0  0
   -9.2204    9.5393   -0.5793 H   0  0  0  0  0  0  0  0  0  0  0  0
  -10.1373    5.4976   -1.2171 H   0  0  0  0  0  0  0  0  0  0  0  0
   -8.6128    5.7079    0.8489 H   0  0  0  0  0  0  0  0  0  0  0  0
   -8.2824    4.4509   -0.4551 H   0  0  0  0  0  0  0  0  0  0  0  0
   -6.1805    5.7210    0.5001 H   0  0  0  0  0  0  0  0  0  0  0  0
   -7.4645    8.0900   -2.5069 H   0  0  0  0  0  0  0  0  0  0  0  0
   -6.2603    5.6353   -3.9285 H   0  0  0  0  0  0  0  0  0  0  0  0
   -7.0292    7.0842   -4.7150 H   0  0  0  0  0  0  0  0  0  0  0  0
   -4.5584    7.1660   -4.8155 H   0  0  0  0  0  0  0  0  0  0  0  0
   -5.2711    8.5215   -3.8555 H   0  0  0  0  0  0  0  0  0  0  0  0
   -3.3433    7.6862   -2.6973 H   0  0  0  0  0  0  0  0  0  0  0  0
   -4.5550    5.1460   -2.3320 H   0  0  0  0  0  0  0  0  0  0  0  0
   -5.0727    8.9957    0.0183 H   0  0  0  0  0  0  0  0  0  0  0  0
   -4.1966    9.3257   -1.5147 H   0  0  0  0  0  0  0  0  0  0  0  0
   -5.9880    9.1927   -1.5147 H   0  0  0  0  0  0  0  0  0  0  0  0
   -4.4558    6.9833    0.7749 H   0  0  0  0  0  0  0  0  0  0  0  0
   -3.9772    5.6265   -0.3006 H   0  0  0  0  0  0  0  0  0  0  0  0
   -3.0268    7.1508   -0.3006 H   0  0  0  0  0  0  0  0  0  0  0  0
   -8.5839    4.1846   -2.4027 H   0  0  0  0  0  0  0  0  0  0  0  0
   -9.5108    4.7600   -3.8297 H   0  0  0  0  0  0  0  0  0  0  0  0
   -7.7166    4.8466   -3.8297 H   0  0  0  0  0  0  0  0  0  0  0  0
   -9.0032    7.6076   -4.3439 H   0  0  0  0  0  0  0  0  0  0  0  0
  -10.4173    6.5188   -3.8458 H   0  0  0  0  0  0  0  0  0  0  0  0
   -9.6336    9.1928   -2.6533 H   0  0  0  0  0  0  0  0  0  0  0  0
  -11.1208    8.7660   -3.5882 H   0  0  0  0  0  0  0  0  0  0  0  0
  -12.5703    6.4793   -1.0382 H   0  0  0  0  0  0  0  0  0  0  0  0
  -12.9412    7.3763   -2.5496 H   0  0  0  0  0  0  0  0  0  0  0  0
  -11.6764    6.1009   -2.5496 H   0  0  0  0  0  0  0  0  0  0  0  0
  1  2  1  0
  2  3  1  0
  3  4  1  0
  4  5  1  0
  5  6  1  0
  6  7  1  0
  7  8  1  0
  7  9  1  0
  2 10  1  0
 10 11  1  0
 11 12  1  0
 12 13  1  0
 13 14  1  1
 13 15  1  0
 15 16  1  0
 16 17  1  0
 17 18  2  0
 18 19  1  0
 19 20  1  0
 20 21  1  0
 21 22  1  0
 22 23  1  0
 22 24  1  0
 24 25  1  0
 24 26  1  0
 19 27  1  0
 27 28  1  6
 27 29  1  0
 29 30  1  0
 30 31  1  0
 31 32  1  6
  7  5  1  0
 31 10  1  0
 31 13  1  0
 27 15  1  0
 24 18  1  0
  1 33  1  0
  1 34  1  0
  1 35  1  0
  2 36  1  6
  3 37  1  0
  3 38  1  0
  4 39  1  0
  4 40  1  0
  5 41  1  1
  8 42  1  0
  8 43  1  0
  8 44  1  0
  9 45  1  0
  9 46  1  0
  9 47  1  0
 10 48  1  1
 11 49  1  0
 11 50  1  0
 12 51  1  0
 12 52  1  0
 14 53  1  0
 14 54  1  0
 14 55  1  0
 15 56  1  6
 16 57  1  0
 16 58  1  0
 17 59  1  0
 19 60  1  1
 20 61  1  0
 20 62  1  0
 21 63  1  0
 21 64  1  0
 22 65  1  1
 23 66  1  0
 25 67  1  0
 25 68  1  0
 25 69  1  0
 26 70  1  0
 26 71  1  0
 26 72  1  0
 28 73  1  0
 28 74  1  0
 28 75  1  0
 29 76  1  0
 29 77  1  0
 30 78  1  0
 30 79  1  0
 32 80  1  0
 32 81  1  0
 32 82  1  0
M  END
>  <meeko>  (15) 
{"is_sidechain": [false], "intermolecular_energy": 2.731, "internal_energy": -0.839}

$$$$
EPH_relaxed_0001_pdb2pqr_Repair_208_r2_0001_out
     RDKit          3D

 82 86  0  0  0  0  0  0  0  0999 V2000
   -8.1320    8.0110   -3.0400 C   0  0  0  0  0  0  0  0  0  0  0  0
   -7.0480    7.2270   -2.2960 C   0  0  2  0  0  0  0  0  0  0  0  0
   -7.6380    6.3190   -1.1980 C   0  0  0  0  0  0  0  0  0  0  0  0
   -9.1690    6.3060   -1.1670 C   0  0  0  0  0  0  0  0  0  0  0  0
   -9.7030    6.9180    0.0920 C   0  0  2  0  0  0  0  0  0  0  0  0
  -10.8020    6.2110    0.6810 O   0  0  0  0  0  0  0  0  0  0  0  0
  -11.0840    7.5360    0.2020 C   0  0  0  0  0  0  0  0  0  0  0  0
  -12.0170    7.5740   -0.9680 C   0  0  0  0  0  0  0  0  0  0  0  0
  -11.3390    8.5300    1.2910 C   0  0  0  0  0  0  0  0  0  0  0  0
   -6.0350    8.1890   -1.6880 C   0  0  1  0  0  0  0  0  0  0  0  0
   -6.2490    8.3980   -0.1650 C   0  0  0  0  0  0  0  0  0  0  0  0
   -4.8440    8.5760    0.4640 C   0  0  0  0  0  0  0  0  0  0  0  0
   -3.9010    8.7950   -0.7420 C   0  0  1  0  0  0  0  0  0  0  0  0
   -4.0640   10.3030   -1.1110 C   0  0  0  0  0  0  0  0  0  0  0  0
   -2.4000    8.4130   -0.5250 C   0  0  2  0  0  0  0  0  0  0  0  0
   -1.6720    9.2240    0.5610 C   0  0  0  0  0  0  0  0  0  0  0  0
   -0.9950   10.4660    0.0830 C   0  0  0  0  0  0  0  0  0  0  0  0
   -0.7290   10.7670   -1.2020 C   0  0  0  0  0  0  0  0  0  0  0  0
   -1.0310    9.7660   -2.3240 C   0  0  1  0  0  0  0  0  0  0  0  0
    0.1890    9.6730   -3.2780 C   0  0  0  0  0  0  0  0  0  0  0  0
    0.6180   11.0360   -3.8120 C   0  0  0  0  0  0  0  0  0  0  0  0
    0.9660   11.9860   -2.6680 C   0  0  2  0  0  0  0  0  0  0  0  0
    2.1380   11.5010   -2.0070 O   0  0  0  0  0  0  0  0  0  0  0  0
   -0.1850   12.1500   -1.6370 C   0  0  0  0  0  0  0  0  0  0  0  0
   -1.3470   12.9500   -2.2770 C   0  0  0  0  0  0  0  0  0  0  0  0
    0.3450   13.0190   -0.4640 C   0  0  0  0  0  0  0  0  0  0  0  0
   -1.5510    8.3380   -1.8580 C   0  0  1  0  0  0  0  0  0  0  0  0
   -0.3390    7.4020   -1.5610 C   0  0  0  0  0  0  0  0  0  0  0  0
   -2.3490    7.6700   -3.0390 C   0  0  0  0  0  0  0  0  0  0  0  0
   -3.8530    7.9920   -3.1300 C   0  0  0  0  0  0  0  0  0  0  0  0
   -4.5390    7.7950   -1.7740 C   0  0  2  0  0  0  0  0  0  0  0  0
   -4.4100    6.2820   -1.3880 C   0  0  0  0  0  0  0  0  0  0  0  0
   -8.8001    8.4942   -2.3119 H   0  0  0  0  0  0  0  0  0  0  0  0
   -7.6611    8.7788   -3.6714 H   0  0  0  0  0  0  0  0  0  0  0  0
   -8.7138    7.3233   -3.6714 H   0  0  0  0  0  0  0  0  0  0  0  0
   -6.5486    6.5764   -3.0290 H   0  0  0  0  0  0  0  0  0  0  0  0
   -7.2854    5.2914   -1.3705 H   0  0  0  0  0  0  0  0  0  0  0  0
   -7.3003    6.7219   -0.2318 H   0  0  0  0  0  0  0  0  0  0  0  0
   -9.5478    6.8753   -2.0286 H   0  0  0  0  0  0  0  0  0  0  0  0
   -9.5039    5.2590   -1.2082 H   0  0  0  0  0  0  0  0  0  0  0  0
   -8.7043    7.2918    0.3619 H   0  0  0  0  0  0  0  0  0  0  0  0
  -13.0554    7.6163   -0.6077 H   0  0  0  0  0  0  0  0  0  0  0  0
  -11.8040    8.4642   -1.5780 H   0  0  0  0  0  0  0  0  0  0  0  0
  -11.8771    6.6694   -1.5780 H   0  0  0  0  0  0  0  0  0  0  0  0
  -11.2139    8.0425    2.2691 H   0  0  0  0  0  0  0  0  0  0  0  0
  -10.6253    9.3623    1.2022 H   0  0  0  0  0  0  0  0  0  0  0  0
  -12.3652    8.9159    1.2022 H   0  0  0  0  0  0  0  0  0  0  0  0
   -6.2272    9.0758   -2.3099 H   0  0  0  0  0  0  0  0  0  0  0  0
   -6.8597    9.2956    0.0120 H   0  0  0  0  0  0  0  0  0  0  0  0
   -6.7755    7.5413    0.2809 H   0  0  0  0  0  0  0  0  0  0  0  0
   -4.8263    9.4482    1.1341 H   0  0  0  0  0  0  0  0  0  0  0  0
   -4.5472    7.7097    1.0734 H   0  0  0  0  0  0  0  0  0  0  0  0
   -4.1286   10.9009   -0.1900 H   0  0  0  0  0  0  0  0  0  0  0  0
   -3.1962   10.6319   -1.7015 H   0  0  0  0  0  0  0  0  0  0  0  0
   -4.9821   10.4388   -1.7015 H   0  0  0  0  0  0  0  0  0  0  0  0
   -2.4709    7.3870   -0.1347 H   0  0  0  0  0  0  0  0  0  0  0  0
   -2.4111    9.5116    1.3233 H   0  0  0  0  0  0  0  0  0  0  0  0
   -0.8744    8.5711    0.9451 H   0  0  0  0  0  0  0  0  0  0  0  0
   -0.6875   11.1970    0.8453 H   0  0  0  0  0  0  0  0  0  0  0  0
   -1.8987   10.1701   -2.8660 H   0  0  0  0  0  0  0  0  0  0  0  0
    1.0323    9.2275   -2.7299 H   0  0  0  0  0  0  0  0  0  0  0  0
   -0.1059    9.0545   -4.1385 H   0  0  0  0  0  0  0  0  0  0  0  0
    1.5011   10.9088   -4.4554 H   0  0  0  0  0  0  0  0  0  0  0  0
   -0.2165   11.4671   -4.3846 H   0  0  0  0  0  0  0  0  0  0  0  0
    1.1393   12.9802   -3.1056 H   0  0  0  0  0  0  0  0  0  0  0  0
    1.8860   11.2590   -1.1000 H   0  0  0  0  0  0  0  0  0  0  0  0
   -1.9749   13.3823   -1.4840 H   0  0  0  0  0  0  0  0  0  0  0  0
   -0.9363   13.7576   -2.9007 H   0  0  0  0  0  0  0  0  0  0  0  0
   -1.9549   12.2781   -2.9007 H   0  0  0  0  0  0  0  0  0  0  0  0
    0.0623   12.5554    0.4926 H   0  0  0  0  0  0  0  0  0  0  0  0
    1.4408   13.0909   -0.5269 H   0  0  0  0  0  0  0  0  0  0  0  0
   -0.0927   14.0262   -0.5269 H   0  0  0  0  0  0  0  0  0  0  0  0
   -0.2104    7.3027   -0.4731 H   0  0  0  0  0  0  0  0  0  0  0  0
   -0.5249    6.4108   -2.0002 H   0  0  0  0  0  0  0  0  0  0  0  0
    0.5730    7.8325   -2.0002 H   0  0  0  0  0  0  0  0  0  0  0  0
   -1.8818    7.9930   -3.9810 H   0  0  0  0  0  0  0  0  0  0  0  0
   -2.2971    6.5883   -2.8462 H   0  0  0  0  0  0  0  0  0  0  0  0
   -3.9786    9.0374   -3.4483 H   0  0  0  0  0  0  0  0  0  0  0  0
   -4.3144    7.3095   -3.8590 H   0  0  0  0  0  0  0  0  0  0  0  0
   -4.4015    6.1825   -0.2925 H   0  0  0  0  0  0  0  0  0  0  0  0
   -5.2639    5.7243   -1.8002 H   0  0  0  0  0  0  0  0  0  0  0  0
   -3.4741    5.8769   -1.8002 H   0  0  0  0  0  0  0  0  0  0  0  0
  1  2  1  0
  2  3  1  0
  3  4  1  0
  4  5  1  0
  5  6  1  0
  6  7  1  0
  7  8  1  0
  7  9  1  0
  2 10  1  0
 10 11  1  0
 11 12  1  0
 12 13  1  0
 13 14  1  6
 13 15  1  0
 15 16  1  0
 16 17  1  0
 17 18  2  0
 18 19  1  0
 19 20  1  0
 20 21  1  0
 21 22  1  0
 22 23  1  0
 22 24  1  0
 24 25  1  0
 24 26  1  0
 19 27  1  0
 27 28  1  1
 27 29  1  0
 29 30  1  0
 30 31  1  0
 31 32  1  1
  7  5  1  0
 31 10  1  0
 31 13  1  0
 27 15  1  0
 24 18  1  0
  1 33  1  0
  1 34  1  0
  1 35  1  0
  2 36  1  6
  3 37  1  0
  3 38  1  0
  4 39  1  0
  4 40  1  0
  5 41  1  1
  8 42  1  0
  8 43  1  0
  8 44  1  0
  9 45  1  0
  9 46  1  0
  9 47  1  0
 10 48  1  6
 11 49  1  0
 11 50  1  0
 12 51  1  0
 12 52  1  0
 14 53  1  0
 14 54  1  0
 14 55  1  0
 15 56  1  1
 16 57  1  0
 16 58  1  0
 17 59  1  0
 19 60  1  6
 20 61  1  0
 20 62  1  0
 21 63  1  0
 21 64  1  0
 22 65  1  6
 23 66  1  0
 25 67  1  0
 25 68  1  0
 25 69  1  0
 26 70  1  0
 26 71  1  0
 26 72  1  0
 28 73  1  0
 28 74  1  0
 28 75  1  0
 29 76  1  0
 29 77  1  0
 30 78  1  0
 30 79  1  0
 32 80  1  0
 32 81  1  0
 32 82  1  0
M  END
>  <meeko>  (16) 
{"is_sidechain": [false], "intermolecular_energy": 2.731, "internal_energy": -0.839}

$$$$
EPH_relaxed_0001_pdb2pqr_Repair_208_r2_0001_out
     RDKit          3D

 82 86  0  0  0  0  0  0  0  0999 V2000
  -15.2870    7.2290   -1.6350 C   0  0  0  0  0  0  0  0  0  0  0  0
  -14.7040    8.5480   -2.1500 C   0  0  2  0  0  0  0  0  0  0  0  0
  -14.7410    8.6380   -3.6880 C   0  0  0  0  0  0  0  0  0  0  0  0
  -15.2000   10.0000   -4.2150 C   0  0  0  0  0  0  0  0  0  0  0  0
  -15.2870   11.0180   -3.1180 C   0  0  2  0  0  0  0  0  0  0  0  0
  -15.0440   12.3690   -3.5330 O   0  0  0  0  0  0  0  0  0  0  0  0
  -14.0930   11.8080   -2.6140 C   0  0  0  0  0  0  0  0  0  0  0  0
  -12.7280   11.6140   -3.1940 C   0  0  0  0  0  0  0  0  0  0  0  0
  -14.1580   12.4040   -1.2420 C   0  0  0  0  0  0  0  0  0  0  0  0
  -13.2730    8.7130   -1.6520 C   0  0  1  0  0  0  0  0  0  0  0  0
  -13.2040    9.2390   -0.1940 C   0  0  0  0  0  0  0  0  0  0  0  0
  -11.9740    8.5660    0.4670 C   0  0  0  0  0  0  0  0  0  0  0  0
  -11.1910    7.9410   -0.7110 C   0  0  1  0  0  0  0  0  0  0  0  0
  -10.3740    9.1230   -1.3210 C   0  0  0  0  0  0  0  0  0  0  0  0
  -10.2740    6.7240   -0.3640 C   0  0  2  0  0  0  0  0  0  0  0  0
   -9.1260    7.0300    0.6140 C   0  0  0  0  0  0  0  0  0  0  0  0
   -7.8440    7.4560   -0.0200 C   0  0  0  0  0  0  0  0  0  0  0  0
   -7.5310    7.3160   -1.3220 C   0  0  0  0  0  0  0  0  0  0  0  0
   -8.4770    6.5870   -2.2850 C   0  0  1  0  0  0  0  0  0  0  0  0
   -7.6650    5.5890   -3.1520 C   0  0  0  0  0  0  0  0  0  0  0  0
   -6.4970    6.2560   -3.8740 C   0  0  0  0  0  0  0  0  0  0  0  0
   -5.5490    6.9200   -2.8780 C   0  0  2  0  0  0  0  0  0  0  0  0
   -4.9200    5.9030   -2.0930 O   0  0  0  0  0  0  0  0  0  0  0  0
   -6.2570    7.9400   -1.9430 C   0  0  0  0  0  0  0  0  0  0  0  0
   -6.6750    9.1890   -2.7580 C   0  0  0  0  0  0  0  0  0  0  0  0
   -5.2190    8.4300   -0.8980 C   0  0  0  0  0  0  0  0  0  0  0  0
   -9.7590    5.9190   -1.6250 C   0  0  1  0  0  0  0  0  0  0  0  0
   -9.4130    4.4830   -1.1260 C   0  0  0  0  0  0  0  0  0  0  0  0
  -10.8740    5.7510   -2.7240 C   0  0  0  0  0  0  0  0  0  0  0  0
  -11.8250    6.9450   -2.9370 C   0  0  0  0  0  0  0  0  0  0  0  0
  -12.3870    7.4430   -1.6030 C   0  0  2  0  0  0  0  0  0  0  0  0
  -13.2320    6.2830   -0.9760 C   0  0  0  0  0  0  0  0  0  0  0  0
  -15.2856    7.2322   -0.5350 H   0  0  0  0  0  0  0  0  0  0  0  0
  -16.3186    7.1168   -2.0000 H   0  0  0  0  0  0  0  0  0  0  0  0
  -14.6756    6.3906   -2.0000 H   0  0  0  0  0  0  0  0  0  0  0  0
  -15.3303    9.3626   -1.7573 H   0  0  0  0  0  0  0  0  0  0  0  0
  -13.7292    8.4405   -4.0717 H   0  0  0  0  0  0  0  0  0  0  0  0
  -15.4746    7.8956   -4.0354 H   0  0  0  0  0  0  0  0  0  0  0  0
  -14.4815   10.3505   -4.9705 H   0  0  0  0  0  0  0  0  0  0  0  0
  -16.2026    9.8790   -4.6510 H   0  0  0  0  0  0  0  0  0  0  0  0
  -16.0537   10.4257   -2.5971 H   0  0  0  0  0  0  0  0  0  0  0  0
  -11.9952   11.5099   -2.3802 H   0  0  0  0  0  0  0  0  0  0  0  0
  -12.7188   10.7055   -3.8142 H   0  0  0  0  0  0  0  0  0  0  0  0
  -12.4661   12.4839   -3.8142 H   0  0  0  0  0  0  0  0  0  0  0  0
  -14.0709   11.6052   -0.4907 H   0  0  0  0  0  0  0  0  0  0  0  0
  -13.3326   13.1197   -1.1136 H   0  0  0  0  0  0  0  0  0  0  0  0
  -15.1183   12.9249   -1.1136 H   0  0  0  0  0  0  0  0  0  0  0  0
  -12.8918    9.4090   -2.4138 H   0  0  0  0  0  0  0  0  0  0  0  0
  -13.0845   10.3325   -0.1911 H   0  0  0  0  0  0  0  0  0  0  0  0
  -14.1268    9.0013    0.3555 H   0  0  0  0  0  0  0  0  0  0  0  0
  -11.3579    9.3119    0.9905 H   0  0  0  0  0  0  0  0  0  0  0  0
  -12.2625    7.8176    1.2198 H   0  0  0  0  0  0  0  0  0  0  0  0
   -9.9517    9.7340   -0.5097 H   0  0  0  0  0  0  0  0  0  0  0  0
   -9.5585    8.7233   -1.9416 H   0  0  0  0  0  0  0  0  0  0  0  0
  -11.0361    9.7446   -1.9416 H   0  0  0  0  0  0  0  0  0  0  0  0
  -10.9614    6.0593    0.1798 H   0  0  0  0  0  0  0  0  0  0  0  0
   -9.4573    7.8360    1.2853 H   0  0  0  0  0  0  0  0  0  0  0  0
   -8.9090    6.0849    1.1332 H   0  0  0  0  0  0  0  0  0  0  0  0
   -7.0912    7.9239    0.6314 H   0  0  0  0  0  0  0  0  0  0  0  0
   -8.9178    7.3652   -2.9254 H   0  0  0  0  0  0  0  0  0  0  0  0
   -7.2699    4.7960   -2.5000 H   0  0  0  0  0  0  0  0  0  0  0  0
   -8.3429    5.1837   -3.9176 H   0  0  0  0  0  0  0  0  0  0  0  0
   -5.9445    5.4951   -4.4449 H   0  0  0  0  0  0  0  0  0  0  0  0
   -6.8954    7.0281   -4.5487 H   0  0  0  0  0  0  0  0  0  0  0  0
   -4.8080    7.4899   -3.4577 H   0  0  0  0  0  0  0  0  0  0  0  0
   -4.2220    5.5000   -2.6370 H   0  0  0  0  0  0  0  0  0  0  0  0
   -6.9471   10.0022   -2.0690 H   0  0  0  0  0  0  0  0  0  0  0  0
   -5.8356    9.5110   -3.3919 H   0  0  0  0  0  0  0  0  0  0  0  0
   -7.5391    8.9409   -3.3919 H   0  0  0  0  0  0  0  0  0  0  0  0
   -5.6052    8.2477    0.1157 H   0  0  0  0  0  0  0  0  0  0  0  0
   -4.2747    7.8826   -1.0346 H   0  0  0  0  0  0  0  0  0  0  0  0
   -5.0415    9.5070   -1.0346 H   0  0  0  0  0  0  0  0  0  0  0  0
   -9.4094    4.4680   -0.0261 H   0  0  0  0  0  0  0  0  0  0  0  0
  -10.1659    3.7736   -1.4999 H   0  0  0  0  0  0  0  0  0  0  0  0
   -8.4196    4.1943   -1.4999 H   0  0  0  0  0  0  0  0  0  0  0  0
  -10.3703    5.5518   -3.6814 H   0  0  0  0  0  0  0  0  0  0  0  0
  -11.5147    4.9337   -2.3615 H   0  0  0  0  0  0  0  0  0  0  0  0
  -11.2724    7.7629   -3.4224 H   0  0  0  0  0  0  0  0  0  0  0  0
  -12.6628    6.6173   -3.5700 H   0  0  0  0  0  0  0  0  0  0  0  0
  -13.1854    6.3470    0.1211 H   0  0  0  0  0  0  0  0  0  0  0  0
  -14.2780    6.3724   -1.3044 H   0  0  0  0  0  0  0  0  0  0  0  0
  -12.8261    5.3148   -1.3044 H   0  0  0  0  0  0  0  0  0  0  0  0
  1  2  1  0
  2  3  1  0
  3  4  1  0
  4  5  1  0
  5  6  1  0
  6  7  1  0
  7  8  1  0
  7  9  1  0
  2 10  1  0
 10 11  1  0
 11 12  1  0
 12 13  1  0
 13 14  1  6
 13 15  1  0
 15 16  1  0
 16 17  1  0
 17 18  2  0
 18 19  1  0
 19 20  1  0
 20 21  1  0
 21 22  1  0
 22 23  1  0
 22 24  1  0
 24 25  1  0
 24 26  1  0
 19 27  1  0
 27 28  1  1
 27 29  1  0
 29 30  1  0
 30 31  1  0
 31 32  1  1
  7  5  1  0
 31 10  1  0
 31 13  1  0
 27 15  1  0
 24 18  1  0
  1 33  1  0
  1 34  1  0
  1 35  1  0
  2 36  1  1
  3 37  1  0
  3 38  1  0
  4 39  1  0
  4 40  1  0
  5 41  1  1
  8 42  1  0
  8 43  1  0
  8 44  1  0
  9 45  1  0
  9 46  1  0
  9 47  1  0
 10 48  1  6
 11 49  1  0
 11 50  1  0
 12 51  1  0
 12 52  1  0
 14 53  1  0
 14 54  1  0
 14 55  1  0
 15 56  1  1
 16 57  1  0
 16 58  1  0
 17 59  1  0
 19 60  1  6
 20 61  1  0
 20 62  1  0
 21 63  1  0
 21 64  1  0
 22 65  1  6
 23 66  1  0
 25 67  1  0
 25 68  1  0
 25 69  1  0
 26 70  1  0
 26 71  1  0
 26 72  1  0
 28 73  1  0
 28 74  1  0
 28 75  1  0
 29 76  1  0
 29 77  1  0
 30 78  1  0
 30 79  1  0
 32 80  1  0
 32 81  1  0
 32 82  1  0
M  END
>  <meeko>  (17) 
{"is_sidechain": [false], "intermolecular_energy": 2.731, "internal_energy": -0.839}

$$$$
EPH_relaxed_0001_pdb2pqr_Repair_208_r2_0001_out
     RDKit          3D

 82 86  0  0  0  0  0  0  0  0999 V2000
    1.0570   13.7050   -4.5960 C   0  0  0  0  0  0  0  0  0  0  0  0
    1.3920   13.0480   -3.2540 C   0  0  2  0  0  0  0  0  0  0  0  0
    2.9130   12.9520   -3.0190 C   0  0  0  0  0  0  0  0  0  0  0  0
    3.6100   11.9220   -3.9120 C   0  0  0  0  0  0  0  0  0  0  0  0
    5.0770   11.8340   -3.6160 C   0  0  2  0  0  0  0  0  0  0  0  0
    5.9290   12.3150   -4.6640 O   0  0  0  0  0  0  0  0  0  0  0  0
    6.0270   10.9140   -4.3600 C   0  0  0  0  0  0  0  0  0  0  0  0
    5.5450   10.0170   -5.4570 C   0  0  0  0  0  0  0  0  0  0  0  0
    7.3140   10.5290   -3.7000 C   0  0  0  0  0  0  0  0  0  0  0  0
    0.7660   11.6610   -3.1840 C   0  0  1  0  0  0  0  0  0  0  0  0
    1.8250   10.5300   -3.0960 C   0  0  0  0  0  0  0  0  0  0  0  0
    1.2240    9.4220   -2.1930 C   0  0  0  0  0  0  0  0  0  0  0  0
   -0.2720    9.7930   -2.0650 C   0  0  1  0  0  0  0  0  0  0  0  0
   -0.9310    9.2600   -3.3760 C   0  0  0  0  0  0  0  0  0  0  0  0
   -1.0090    9.2640   -0.7920 C   0  0  2  0  0  0  0  0  0  0  0  0
   -1.0810    7.7320   -0.6690 C   0  0  0  0  0  0  0  0  0  0  0  0
   -2.2840    7.0990   -1.2850 C   0  0  0  0  0  0  0  0  0  0  0  0
   -3.4030    7.7460   -1.6600 C   0  0  0  0  0  0  0  0  0  0  0  0
   -3.5760    9.2450   -1.3840 C   0  0  1  0  0  0  0  0  0  0  0  0
   -4.9860    9.5030   -0.7900 C   0  0  0  0  0  0  0  0  0  0  0  0
   -6.1010    8.9380   -1.6640 C   0  0  0  0  0  0  0  0  0  0  0  0
   -5.9270    7.4350   -1.8670 C   0  0  2  0  0  0  0  0  0  0  0  0
   -6.1180    6.7750   -0.6110 O   0  0  0  0  0  0  0  0  0  0  0  0
   -4.5390    7.0530   -2.4520 C   0  0  0  0  0  0  0  0  0  0  0  0
   -4.4520    7.5130   -3.9290 C   0  0  0  0  0  0  0  0  0  0  0  0
   -4.4400    5.5040   -2.4750 C   0  0  0  0  0  0  0  0  0  0  0  0
   -2.4210    9.9310   -0.5360 C   0  0  1  0  0  0  0  0  0  0  0  0
   -2.7160    9.7770    0.9880 C   0  0  0  0  0  0  0  0  0  0  0  0
   -2.4150   11.4780   -0.8320 C   0  0  0  0  0  0  0  0  0  0  0  0
   -1.5720   11.9520   -2.0320 C   0  0  0  0  0  0  0  0  0  0  0  0
   -0.1610   11.3590   -1.9790 C   0  0  2  0  0  0  0  0  0  0  0  0
    0.5350   11.8960   -0.6820 C   0  0  0  0  0  0  0  0  0  0  0  0
    0.5639   14.6720   -4.4179 H   0  0  0  0  0  0  0  0  0  0  0  0
    1.9834   13.8654   -5.1671 H   0  0  0  0  0  0  0  0  0  0  0  0
    0.3831   13.0495   -5.1671 H   0  0  0  0  0  0  0  0  0  0  0  0
    0.9744   13.6846   -2.4601 H   0  0  0  0  0  0  0  0  0  0  0  0
    3.3576   13.9389   -3.2149 H   0  0  0  0  0  0  0  0  0  0  0  0
    3.0575   12.6255   -1.9785 H   0  0  0  0  0  0  0  0  0  0  0  0
    3.1525   10.9360   -3.7431 H   0  0  0  0  0  0  0  0  0  0  0  0
    3.4897   12.2383   -4.9587 H   0  0  0  0  0  0  0  0  0  0  0  0
    4.8942   11.9944   -2.5432 H   0  0  0  0  0  0  0  0  0  0  0  0
    5.0671    9.1277   -5.0202 H   0  0  0  0  0  0  0  0  0  0  0  0
    4.8157   10.5572   -6.0785 H   0  0  0  0  0  0  0  0  0  0  0  0
    6.3980    9.7069   -6.0785 H   0  0  0  0  0  0  0  0  0  0  0  0
    7.1912   10.5658   -2.6075 H   0  0  0  0  0  0  0  0  0  0  0  0
    7.5910    9.5087   -4.0037 H   0  0  0  0  0  0  0  0  0  0  0  0
    8.1058   11.2296   -4.0037 H   0  0  0  0  0  0  0  0  0  0  0  0
    0.1808   11.6765   -4.1153 H   0  0  0  0  0  0  0  0  0  0  0  0
    2.0348   10.1289   -4.0986 H   0  0  0  0  0  0  0  0  0  0  0  0
    2.7713   10.9071   -2.6808 H   0  0  0  0  0  0  0  0  0  0  0  0
    1.3404    8.4335   -2.6614 H   0  0  0  0  0  0  0  0  0  0  0  0
    1.7246    9.3630   -1.2153 H   0  0  0  0  0  0  0  0  0  0  0  0
   -1.7629    8.5871   -3.1209 H   0  0  0  0  0  0  0  0  0  0  0  0
   -1.3120   10.1070   -3.9655 H   0  0  0  0  0  0  0  0  0  0  0  0
   -0.1824    8.7103   -3.9655 H   0  0  0  0  0  0  0  0  0  0  0  0
   -0.3462    9.5982    0.0197 H   0  0  0  0  0  0  0  0  0  0  0  0
   -0.1887    7.3097   -1.1542 H   0  0  0  0  0  0  0  0  0  0  0  0
   -1.1409    7.5156    0.4078 H   0  0  0  0  0  0  0  0  0  0  0  0
   -2.2535    6.0113   -1.4462 H   0  0  0  0  0  0  0  0  0  0  0  0
   -3.4848    9.7466   -2.3587 H   0  0  0  0  0  0  0  0  0  0  0  0
   -5.0424    9.0314    0.2022 H   0  0  0  0  0  0  0  0  0  0  0  0
   -5.1286   10.5920   -0.7292 H   0  0  0  0  0  0  0  0  0  0  0  0
   -7.0697    9.1258   -1.1778 H   0  0  0  0  0  0  0  0  0  0  0  0
   -6.0614    9.4317   -2.6462 H   0  0  0  0  0  0  0  0  0  0  0  0
   -6.6775    7.1123   -2.6036 H   0  0  0  0  0  0  0  0  0  0  0  0
   -6.2390    7.4620    0.0660 H   0  0  0  0  0  0  0  0  0  0  0  0
   -4.2477    8.5933   -3.9652 H   0  0  0  0  0  0  0  0  0  0  0  0
   -3.6408    6.9693   -4.4352 H   0  0  0  0  0  0  0  0  0  0  0  0
   -5.4058    7.3031   -4.4352 H   0  0  0  0  0  0  0  0  0  0  0  0
   -4.4156    5.1228   -1.4435 H   0  0  0  0  0  0  0  0  0  0  0  0
   -5.3134    5.0885   -2.9989 H   0  0  0  0  0  0  0  0  0  0  0  0
   -3.5208    5.2031   -2.9989 H   0  0  0  0  0  0  0  0  0  0  0  0
   -1.8871   10.2097    1.5675 H   0  0  0  0  0  0  0  0  0  0  0  0
   -3.6501   10.3025    1.2356 H   0  0  0  0  0  0  0  0  0  0  0  0
   -2.8188    8.7102    1.2356 H   0  0  0  0  0  0  0  0  0  0  0  0
   -3.4552   11.7863   -1.0134 H   0  0  0  0  0  0  0  0  0  0  0  0
   -1.9453   11.9382    0.0498 H   0  0  0  0  0  0  0  0  0  0  0  0
   -2.0616   11.6331   -2.9640 H   0  0  0  0  0  0  0  0  0  0  0  0
   -1.4933   13.0485   -1.9941 H   0  0  0  0  0  0  0  0  0  0  0  0
    0.0182   11.4972    0.2034 H   0  0  0  0  0  0  0  0  0  0  0  0
    1.5864   11.5728   -0.6694 H   0  0  0  0  0  0  0  0  0  0  0  0
    0.4891   12.9950   -0.6694 H   0  0  0  0  0  0  0  0  0  0  0  0
  1  2  1  0
  2  3  1  0
  3  4  1  0
  4  5  1  0
  5  6  1  0
  6  7  1  0
  7  8  1  0
  7  9  1  0
  2 10  1  0
 10 11  1  0
 11 12  1  0
 12 13  1  0
 13 14  1  6
 13 15  1  0
 15 16  1  0
 16 17  1  0
 17 18  2  0
 18 19  1  0
 19 20  1  0
 20 21  1  0
 21 22  1  0
 22 23  1  0
 22 24  1  0
 24 25  1  0
 24 26  1  0
 19 27  1  0
 27 28  1  1
 27 29  1  0
 29 30  1  0
 30 31  1  0
 31 32  1  1
  7  5  1  0
 31 10  1  0
 31 13  1  0
 27 15  1  0
 24 18  1  0
  1 33  1  0
  1 34  1  0
  1 35  1  0
  2 36  1  1
  3 37  1  0
  3 38  1  0
  4 39  1  0
  4 40  1  0
  5 41  1  1
  8 42  1  0
  8 43  1  0
  8 44  1  0
  9 45  1  0
  9 46  1  0
  9 47  1  0
 10 48  1  6
 11 49  1  0
 11 50  1  0
 12 51  1  0
 12 52  1  0
 14 53  1  0
 14 54  1  0
 14 55  1  0
 15 56  1  1
 16 57  1  0
 16 58  1  0
 17 59  1  0
 19 60  1  6
 20 61  1  0
 20 62  1  0
 21 63  1  0
 21 64  1  0
 22 65  1  6
 23 66  1  0
 25 67  1  0
 25 68  1  0
 25 69  1  0
 26 70  1  0
 26 71  1  0
 26 72  1  0
 28 73  1  0
 28 74  1  0
 28 75  1  0
 29 76  1  0
 29 77  1  0
 30 78  1  0
 30 79  1  0
 32 80  1  0
 32 81  1  0
 32 82  1  0
M  END
>  <meeko>  (18) 
{"is_sidechain": [false], "intermolecular_energy": 2.731, "internal_energy": -0.839}

$$$$
EPH_relaxed_0001_pdb2pqr_Repair_208_r2_0001_out
     RDKit          3D

 82 86  0  0  0  0  0  0  0  0999 V2000
    4.1020   11.1000   -5.3370 C   0  0  0  0  0  0  0  0  0  0  0  0
    2.9140   11.9390   -5.8190 C   0  0  2  0  0  0  0  0  0  0  0  0
    3.3410   13.0220   -6.8300 C   0  0  0  0  0  0  0  0  0  0  0  0
    2.2420   14.0430   -7.1380 C   0  0  0  0  0  0  0  0  0  0  0  0
    2.4810   14.7370   -8.4450 C   0  0  2  0  0  0  0  0  0  0  0  0
    2.5260   16.1670   -8.3630 O   0  0  0  0  0  0  0  0  0  0  0  0
    1.4460   15.6100   -9.1300 C   0  0  0  0  0  0  0  0  0  0  0  0
    0.0940   15.8350   -8.5290 C   0  0  0  0  0  0  0  0  0  0  0  0
    1.5700   15.8430  -10.6030 C   0  0  0  0  0  0  0  0  0  0  0  0
    2.2170   12.5840   -4.6270 C   0  0  1  0  0  0  0  0  0  0  0  0
    1.2510   13.7240   -5.0460 C   0  0  0  0  0  0  0  0  0  0  0  0
    0.0530   13.6790   -4.0620 C   0  0  0  0  0  0  0  0  0  0  0  0
    0.5200   12.7460   -2.9210 C   0  0  1  0  0  0  0  0  0  0  0  0
    1.4030   13.6470   -2.0020 C   0  0  0  0  0  0  0  0  0  0  0  0
   -0.6080   12.0260   -2.1120 C   0  0  2  0  0  0  0  0  0  0  0  0
   -1.5610   12.9610   -1.3480 C   0  0  0  0  0  0  0  0  0  0  0  0
   -1.1520   13.2830    0.0510 C   0  0  0  0  0  0  0  0  0  0  0  0
   -0.2220   12.6230    0.7660 C   0  0  0  0  0  0  0  0  0  0  0  0
    0.4580   11.3670    0.2050 C   0  0  1  0  0  0  0  0  0  0  0  0
    0.4730   10.2590    1.2900 C   0  0  0  0  0  0  0  0  0  0  0  0
    1.1040   10.7280    2.5980 C   0  0  0  0  0  0  0  0  0  0  0  0
    0.3650   11.9430    3.1540 C   0  0  2  0  0  0  0  0  0  0  0  0
   -0.9530   11.5430    3.5420 O   0  0  0  0  0  0  0  0  0  0  0  0
    0.2770   13.1220    2.1450 C   0  0  0  0  0  0  0  0  0  0  0  0
    1.6790   13.7510    1.9560 C   0  0  0  0  0  0  0  0  0  0  0  0
   -0.6130   14.2260    2.7770 C   0  0  0  0  0  0  0  0  0  0  0  0
   -0.0930   10.8460   -1.1920 C   0  0  1  0  0  0  0  0  0  0  0  0
   -1.3080    9.8960   -0.9640 C   0  0  0  0  0  0  0  0  0  0  0  0
    1.0210    9.9820   -1.8930 C   0  0  0  0  0  0  0  0  0  0  0  0
    2.0340   10.7370   -2.7750 C   0  0  0  0  0  0  0  0  0  0  0  0
    1.3180   11.6750   -3.7510 C   0  0  2  0  0  0  0  0  0  0  0  0
    0.4390   10.7950   -4.7040 C   0  0  0  0  0  0  0  0  0  0  0  0
    4.1198   11.0874   -4.2372 H   0  0  0  0  0  0  0  0  0  0  0  0
    4.0014   10.0715   -5.7139 H   0  0  0  0  0  0  0  0  0  0  0  0
    5.0377   11.5388   -5.7139 H   0  0  0  0  0  0  0  0  0  0  0  0
    2.2174   11.2622   -6.3354 H   0  0  0  0  0  0  0  0  0  0  0  0
    4.2085   13.5588   -6.4185 H   0  0  0  0  0  0  0  0  0  0  0  0
    3.5755   12.5071   -7.7733 H   0  0  0  0  0  0  0  0  0  0  0  0
    1.2740   13.5224   -7.1825 H   0  0  0  0  0  0  0  0  0  0  0  0
    2.2452   14.8014   -6.3412 H   0  0  0  0  0  0  0  0  0  0  0  0
    3.0935   13.8977   -8.8062 H   0  0  0  0  0  0  0  0  0  0  0  0
    0.1736   15.8218   -7.4320 H   0  0  0  0  0  0  0  0  0  0  0  0
   -0.2952   16.8103   -8.8566 H   0  0  0  0  0  0  0  0  0  0  0  0
   -0.5901   15.0384   -8.8566 H   0  0  0  0  0  0  0  0  0  0  0  0
    2.0800   16.8013  -10.7810 H   0  0  0  0  0  0  0  0  0  0  0  0
    2.1534   15.0276  -11.0554 H   0  0  0  0  0  0  0  0  0  0  0  0
    0.5677   15.8715  -11.0554 H   0  0  0  0  0  0  0  0  0  0  0  0
    3.0968   12.9088   -4.0522 H   0  0  0  0  0  0  0  0  0  0  0  0
    1.7606   14.6965   -4.9783 H   0  0  0  0  0  0  0  0  0  0  0  0
    0.9140   13.5944   -6.0851 H   0  0  0  0  0  0  0  0  0  0  0  0
   -0.1696   14.6843   -3.6750 H   0  0  0  0  0  0  0  0  0  0  0  0
   -0.8688   13.3202   -4.5433 H   0  0  0  0  0  0  0  0  0  0  0  0
    1.1830   13.4225   -0.9479 H   0  0  0  0  0  0  0  0  0  0  0  0
    2.4656   13.4481   -2.2052 H   0  0  0  0  0  0  0  0  0  0  0  0
    1.1827   14.7054   -2.2052 H   0  0  0  0  0  0  0  0  0  0  0  0
   -1.2142   11.5683   -2.9076 H   0  0  0  0  0  0  0  0  0  0  0  0
   -1.6316   13.9055   -1.9075 H   0  0  0  0  0  0  0  0  0  0  0  0
   -2.5173   12.4231   -1.2695 H   0  0  0  0  0  0  0  0  0  0  0  0
   -1.6532   14.1318    0.5391 H   0  0  0  0  0  0  0  0  0  0  0  0
    1.4886   11.6625   -0.0412 H   0  0  0  0  0  0  0  0  0  0  0  0
   -0.5629    9.9477    1.4901 H   0  0  0  0  0  0  0  0  0  0  0  0
    1.0800    9.4254    0.9070 H   0  0  0  0  0  0  0  0  0  0  0  0
    1.0584    9.9111    3.3332 H   0  0  0  0  0  0  0  0  0  0  0  0
    2.1489   11.0109    2.4028 H   0  0  0  0  0  0  0  0  0  0  0  0
    0.9391   12.3113    4.0170 H   0  0  0  0  0  0  0  0  0  0  0  0
   -1.3450   11.0580    2.7960 H   0  0  0  0  0  0  0  0  0  0  0  0
    2.1265   13.9518    2.9406 H   0  0  0  0  0  0  0  0  0  0  0  0
    2.3209   13.0546    1.3966 H   0  0  0  0  0  0  0  0  0  0  0  0
    1.5856   14.6935    1.3966 H   0  0  0  0  0  0  0  0  0  0  0  0
   -0.5582   14.1581    3.8735 H   0  0  0  0  0  0  0  0  0  0  0  0
   -0.2565   15.2148    2.4526 H   0  0  0  0  0  0  0  0  0  0  0  0
   -1.6549   14.0874    2.4526 H   0  0  0  0  0  0  0  0  0  0  0  0
   -1.4743    9.7660    0.1156 H   0  0  0  0  0  0  0  0  0  0  0  0
   -2.2067   10.3334   -1.4233 H   0  0  0  0  0  0  0  0  0  0  0  0
   -1.1003    8.9183   -1.4233 H   0  0  0  0  0  0  0  0  0  0  0  0
    1.5871    9.4654   -1.1039 H   0  0  0  0  0  0  0  0  0  0  0  0
    0.4788    9.3177   -2.5819 H   0  0  0  0  0  0  0  0  0  0  0  0
    2.7012   11.3287   -2.1310 H   0  0  0  0  0  0  0  0  0  0  0  0
    2.6113   10.0016   -3.3546 H   0  0  0  0  0  0  0  0  0  0  0  0
   -0.2124   10.1428   -4.1038 H   0  0  0  0  0  0  0  0  0  0  0  0
   -0.1793   11.4469   -5.3386 H   0  0  0  0  0  0  0  0  0  0  0  0
    1.0916   10.1775   -5.3386 H   0  0  0  0  0  0  0  0  0  0  0  0
  1  2  1  0
  2  3  1  0
  3  4  1  0
  4  5  1  0
  5  6  1  0
  6  7  1  0
  7  8  1  0
  7  9  1  0
  2 10  1  0
 10 11  1  0
 11 12  1  0
 12 13  1  0
 13 14  1  1
 13 15  1  0
 15 16  1  0
 16 17  1  0
 17 18  2  0
 18 19  1  0
 19 20  1  0
 20 21  1  0
 21 22  1  0
 22 23  1  0
 22 24  1  0
 24 25  1  0
 24 26  1  0
 19 27  1  0
 27 28  1  1
 27 29  1  0
 29 30  1  0
 30 31  1  0
 31 32  1  6
  7  5  1  0
 31 10  1  0
 31 13  1  0
 27 15  1  0
 24 18  1  0
  1 33  1  0
  1 34  1  0
  1 35  1  0
  2 36  1  6
  3 37  1  0
  3 38  1  0
  4 39  1  0
  4 40  1  0
  5 41  1  6
  8 42  1  0
  8 43  1  0
  8 44  1  0
  9 45  1  0
  9 46  1  0
  9 47  1  0
 10 48  1  1
 11 49  1  0
 11 50  1  0
 12 51  1  0
 12 52  1  0
 14 53  1  0
 14 54  1  0
 14 55  1  0
 15 56  1  6
 16 57  1  0
 16 58  1  0
 17 59  1  0
 19 60  1  6
 20 61  1  0
 20 62  1  0
 21 63  1  0
 21 64  1  0
 22 65  1  1
 23 66  1  0
 25 67  1  0
 25 68  1  0
 25 69  1  0
 26 70  1  0
 26 71  1  0
 26 72  1  0
 28 73  1  0
 28 74  1  0
 28 75  1  0
 29 76  1  0
 29 77  1  0
 30 78  1  0
 30 79  1  0
 32 80  1  0
 32 81  1  0
 32 82  1  0
M  END
>  <meeko>  (19) 
{"is_sidechain": [false], "intermolecular_energy": 2.731, "internal_energy": -0.839}

$$$$
EPH_relaxed_0001_pdb2pqr_Repair_208_r2_0001_out
     RDKit          3D

 82 86  0  0  0  0  0  0  0  0999 V2000
   -5.1060    8.9600   -0.8240 C   0  0  0  0  0  0  0  0  0  0  0  0
   -5.4640    7.8910   -1.8610 C   0  0  2  0  0  0  0  0  0  0  0  0
   -4.5690    7.9760   -3.1140 C   0  0  0  0  0  0  0  0  0  0  0  0
   -3.5470    6.8410   -3.2180 C   0  0  0  0  0  0  0  0  0  0  0  0
   -3.8900    5.7000   -2.3090 C   0  0  2  0  0  0  0  0  0  0  0  0
   -3.6060    4.4010   -2.8450 O   0  0  0  0  0  0  0  0  0  0  0  0
   -4.9910    4.6980   -2.6030 C   0  0  0  0  0  0  0  0  0  0  0  0
   -5.8190    4.7920   -3.8470 C   0  0  0  0  0  0  0  0  0  0  0  0
   -5.5830    3.9290   -1.4630 C   0  0  0  0  0  0  0  0  0  0  0  0
   -6.9290    8.0220   -2.2580 C   0  0  1  0  0  0  0  0  0  0  0  0
   -7.2490    7.3190   -3.6040 C   0  0  0  0  0  0  0  0  0  0  0  0
   -8.6830    6.7440   -3.4800 C   0  0  0  0  0  0  0  0  0  0  0  0
   -9.2620    7.4110   -2.2100 C   0  0  1  0  0  0  0  0  0  0  0  0
   -9.7340    8.8230   -2.6790 C   0  0  0  0  0  0  0  0  0  0  0  0
  -10.4050    6.6330   -1.4810 C   0  0  2  0  0  0  0  0  0  0  0  0
  -11.6860    6.4280   -2.3090 C   0  0  0  0  0  0  0  0  0  0  0  0
  -12.7130    7.5040   -2.1710 C   0  0  0  0  0  0  0  0  0  0  0  0
  -12.7390    8.4410   -1.2050 C   0  0  0  0  0  0  0  0  0  0  0  0
  -11.7190    8.4210   -0.0600 C   0  0  1  0  0  0  0  0  0  0  0  0
  -12.4520    8.6330    1.2910 C   0  0  0  0  0  0  0  0  0  0  0  0
  -13.3120    9.8930    1.2980 C   0  0  0  0  0  0  0  0  0  0  0  0
  -14.3520    9.8500    0.1810 C   0  0  2  0  0  0  0  0  0  0  0  0
  -15.2870    8.8040    0.4630 O   0  0  0  0  0  0  0  0  0  0  0  0
  -13.7310    9.6300   -1.2270 C   0  0  0  0  0  0  0  0  0  0  0  0
  -12.9570   10.9010   -1.6580 C   0  0  0  0  0  0  0  0  0  0  0  0
  -14.8940    9.4650   -2.2410 C   0  0  0  0  0  0  0  0  0  0  0  0
  -10.7340    7.1730   -0.0300 C   0  0  1  0  0  0  0  0  0  0  0  0
  -11.3950    5.9930    0.7450 C   0  0  0  0  0  0  0  0  0  0  0  0
   -9.4360    7.5610    0.7720 C   0  0  0  0  0  0  0  0  0  0  0  0
   -8.2950    8.2180   -0.0280 C   0  0  0  0  0  0  0  0  0  0  0  0
   -7.9830    7.4170   -1.2960 C   0  0  2  0  0  0  0  0  0  0  0  0
   -7.4850    5.9990   -0.8550 C   0  0  0  0  0  0  0  0  0  0  0  0
   -5.2433    8.5501    0.1875 H   0  0  0  0  0  0  0  0  0  0  0  0
   -4.0572    9.2636   -0.9574 H   0  0  0  0  0  0  0  0  0  0  0  0
   -5.7605    9.8340   -0.9574 H   0  0  0  0  0  0  0  0  0  0  0  0
   -5.2912    6.9086   -1.3972 H   0  0  0  0  0  0  0  0  0  0  0  0
   -5.2142    7.9451   -4.0044 H   0  0  0  0  0  0  0  0  0  0  0  0
   -4.0006    8.9148   -3.0401 H   0  0  0  0  0  0  0  0  0  0  0  0
   -3.5245    6.4758   -4.2554 H   0  0  0  0  0  0  0  0  0  0  0  0
   -2.5653    7.2355   -2.9170 H   0  0  0  0  0  0  0  0  0  0  0  0
   -3.6642    6.3088   -1.4211 H   0  0  0  0  0  0  0  0  0  0  0  0
   -6.8779    4.9122   -3.5744 H   0  0  0  0  0  0  0  0  0  0  0  0
   -5.4924    5.6588   -4.4402 H   0  0  0  0  0  0  0  0  0  0  0  0
   -5.6950    3.8740   -4.4402 H   0  0  0  0  0  0  0  0  0  0  0  0
   -5.2463    4.3664   -0.5115 H   0  0  0  0  0  0  0  0  0  0  0  0
   -6.6805    3.9757   -1.5199 H   0  0  0  0  0  0  0  0  0  0  0  0
   -5.2572    2.8799   -1.5199 H   0  0  0  0  0  0  0  0  0  0  0  0
   -7.0179    9.1183   -2.2744 H   0  0  0  0  0  0  0  0  0  0  0  0
   -7.2019    8.0437   -4.4302 H   0  0  0  0  0  0  0  0  0  0  0  0
   -6.5213    6.5216   -3.8152 H   0  0  0  0  0  0  0  0  0  0  0  0
   -9.2837    7.0046   -4.3638 H   0  0  0  0  0  0  0  0  0  0  0  0
   -8.6881    5.6460   -3.4139 H   0  0  0  0  0  0  0  0  0  0  0  0
   -9.9437    9.4502   -1.8000 H   0  0  0  0  0  0  0  0  0  0  0  0
   -8.9437    9.2917   -3.2838 H   0  0  0  0  0  0  0  0  0  0  0  0
  -10.6473    8.7222   -3.2838 H   0  0  0  0  0  0  0  0  0  0  0  0
   -9.9667    5.6318   -1.3566 H   0  0  0  0  0  0  0  0  0  0  0  0
  -11.3993    6.3655   -3.3691 H   0  0  0  0  0  0  0  0  0  0  0  0
  -12.1535    5.5095   -1.9246 H   0  0  0  0  0  0  0  0  0  0  0  0
  -13.5159    7.5330   -2.9224 H   0  0  0  0  0  0  0  0  0  0  0  0
  -11.0340    9.2607   -0.2490 H   0  0  0  0  0  0  0  0  0  0  0  0
  -13.0985    7.7637    1.4817 H   0  0  0  0  0  0  0  0  0  0  0  0
  -11.6861    8.7469    2.0723 H   0  0  0  0  0  0  0  0  0  0  0  0
  -13.8272    9.9718    2.2667 H   0  0  0  0  0  0  0  0  0  0  0  0
  -12.6598   10.7641    1.1372 H   0  0  0  0  0  0  0  0  0  0  0  0
  -14.8485   10.8312    0.1544 H   0  0  0  0  0  0  0  0  0  0  0  0
  -15.9570    8.8110   -0.2420 H   0  0  0  0  0  0  0  0  0  0  0  0
  -12.6238   11.4482   -0.7639 H   0  0  0  0  0  0  0  0  0  0  0  0
  -12.0817   10.6115   -2.2581 H   0  0  0  0  0  0  0  0  0  0  0  0
  -13.6159   11.5457   -2.2581 H   0  0  0  0  0  0  0  0  0  0  0  0
  -15.8398    9.3308   -1.6955 H   0  0  0  0  0  0  0  0  0  0  0  0
  -14.9595   10.3628   -2.8731 H   0  0  0  0  0  0  0  0  0  0  0  0
  -14.7072    8.5844   -2.8731 H   0  0  0  0  0  0  0  0  0  0  0  0
  -11.2985    6.1653    1.8271 H   0  0  0  0  0  0  0  0  0  0  0  0
  -12.4601    5.9295    0.4774 H   0  0  0  0  0  0  0  0  0  0  0  0
  -10.8929    5.0516    0.4774 H   0  0  0  0  0  0  0  0  0  0  0  0
   -9.7326    8.2624    1.5657 H   0  0  0  0  0  0  0  0  0  0  0  0
   -9.0233    6.6064    1.1305 H   0  0  0  0  0  0  0  0  0  0  0  0
   -8.5948    9.2378   -0.3111 H   0  0  0  0  0  0  0  0  0  0  0  0
   -7.3937    8.2428    0.6021 H   0  0  0  0  0  0  0  0  0  0  0  0
   -7.4652    5.9426    0.2434 H   0  0  0  0  0  0  0  0  0  0  0  0
   -8.1674    5.2317   -1.2493 H   0  0  0  0  0  0  0  0  0  0  0  0
   -6.4726    5.8269   -1.2493 H   0  0  0  0  0  0  0  0  0  0  0  0
  1  2  1  0
  2  3  1  0
  3  4  1  0
  4  5  1  0
  5  6  1  0
  6  7  1  0
  7  8  1  0
  7  9  1  0
  2 10  1  0
 10 11  1  0
 11 12  1  0
 12 13  1  0
 13 14  1  6
 13 15  1  0
 15 16  1  0
 16 17  1  0
 17 18  2  0
 18 19  1  0
 19 20  1  0
 20 21  1  0
 21 22  1  0
 22 23  1  0
 22 24  1  0
 24 25  1  0
 24 26  1  0
 19 27  1  0
 27 28  1  1
 27 29  1  0
 29 30  1  0
 30 31  1  0
 31 32  1  1
  7  5  1  0
 31 10  1  0
 31 13  1  0
 27 15  1  0
 24 18  1  0
  1 33  1  0
  1 34  1  0
  1 35  1  0
  2 36  1  1
  3 37  1  0
  3 38  1  0
  4 39  1  0
  4 40  1  0
  5 41  1  1
  8 42  1  0
  8 43  1  0
  8 44  1  0
  9 45  1  0
  9 46  1  0
  9 47  1  0
 10 48  1  6
 11 49  1  0
 11 50  1  0
 12 51  1  0
 12 52  1  0
 14 53  1  0
 14 54  1  0
 14 55  1  0
 15 56  1  1
 16 57  1  0
 16 58  1  0
 17 59  1  0
 19 60  1  6
 20 61  1  0
 20 62  1  0
 21 63  1  0
 21 64  1  0
 22 65  1  6
 23 66  1  0
 25 67  1  0
 25 68  1  0
 25 69  1  0
 26 70  1  0
 26 71  1  0
 26 72  1  0
 28 73  1  0
 28 74  1  0
 28 75  1  0
 29 76  1  0
 29 77  1  0
 30 78  1  0
 30 79  1  0
 32 80  1  0
 32 81  1  0
 32 82  1  0
M  END
>  <meeko>  (20) 
{"is_sidechain": [false], "intermolecular_energy": 2.731, "internal_energy": -0.839}

$$$$
