EPH_relaxed_0001_pdb2pqr_Repair_400_r2_0001_out
     RDKit          3D

 82 86  0  0  0  0  0  0  0  0999 V2000
   -1.6980    8.5800   -1.8720 C   0  0  0  0  0  0  0  0  0  0  0  0
   -2.0620    9.1030   -0.4800 C   0  0  2  0  0  0  0  0  0  0  0  0
   -3.5540    9.4770   -0.3710 C   0  0  0  0  0  0  0  0  0  0  0  0
   -4.4840    8.2680   -0.2400 C   0  0  0  0  0  0  0  0  0  0  0  0
   -5.1800    7.9610   -1.5310 C   0  0  2  0  0  0  0  0  0  0  0  0
   -6.3420    8.7590   -1.7890 O   0  0  0  0  0  0  0  0  0  0  0  0
   -6.5670    7.3520   -1.6090 C   0  0  0  0  0  0  0  0  0  0  0  0
   -7.3410    7.0120   -0.3730 C   0  0  0  0  0  0  0  0  0  0  0  0
   -6.9670    6.6390   -2.8630 C   0  0  0  0  0  0  0  0  0  0  0  0
   -1.1960   10.3090   -0.1350 C   0  0  1  0  0  0  0  0  0  0  0  0
   -0.1500    9.9970    0.9680 C   0  0  0  0  0  0  0  0  0  0  0  0
    1.1170   10.8250    0.6290 C   0  0  0  0  0  0  0  0  0  0  0  0
    0.6500   11.8270   -0.4520 C   0  0  1  0  0  0  0  0  0  0  0  0
   -0.0440   12.9790    0.3410 C   0  0  0  0  0  0  0  0  0  0  0  0
    1.7570   12.3730   -1.4120 C   0  0  2  0  0  0  0  0  0  0  0  0
    2.8720   13.1850   -0.7290 C   0  0  0  0  0  0  0  0  0  0  0  0
    2.6240   14.6540   -0.6350 C   0  0  0  0  0  0  0  0  0  0  0  0
    1.6920   15.3360   -1.3260 C   0  0  0  0  0  0  0  0  0  0  0  0
    0.8310   14.6380   -2.3870 C   0  0  1  0  0  0  0  0  0  0  0  0
    0.7870   15.5070   -3.6720 C   0  0  0  0  0  0  0  0  0  0  0  0
    0.3290   16.9360   -3.3960 C   0  0  0  0  0  0  0  0  0  0  0  0
    1.2440   17.6160   -2.3800 C   0  0  2  0  0  0  0  0  0  0  0  0
    2.5380   17.7860   -2.9670 O   0  0  0  0  0  0  0  0  0  0  0  0
    1.3740   16.8260   -1.0480 C   0  0  0  0  0  0  0  0  0  0  0  0
    0.0390   16.9000   -0.2660 C   0  0  0  0  0  0  0  0  0  0  0  0
    2.4320   17.5440   -0.1680 C   0  0  0  0  0  0  0  0  0  0  0  0
    1.1970   13.1210   -2.6890 C   0  0  1  0  0  0  0  0  0  0  0  0
    2.3140   13.0490   -3.7740 C   0  0  0  0  0  0  0  0  0  0  0  0
   -0.0630   12.4010   -3.3000 C   0  0  0  0  0  0  0  0  0  0  0  0
   -1.0590   11.7780   -2.3030 C   0  0  0  0  0  0  0  0  0  0  0  0
   -0.3310   10.9110   -1.2700 C   0  0  2  0  0  0  0  0  0  0  0  0
    0.3580    9.7310   -2.0360 C   0  0  0  0  0  0  0  0  0  0  0  0
   -1.0721    7.6808   -1.7737 H   0  0  0  0  0  0  0  0  0  0  0  0
   -2.6173    8.3287   -2.4212 H   0  0  0  0  0  0  0  0  0  0  0  0
   -1.1430    9.3548   -2.4212 H   0  0  0  0  0  0  0  0  0  0  0  0
   -1.8724    8.2914    0.2379 H   0  0  0  0  0  0  0  0  0  0  0  0
   -3.6880   10.1157    0.5145 H   0  0  0  0  0  0  0  0  0  0  0  0
   -3.8253    9.9913   -1.3047 H   0  0  0  0  0  0  0  0  0  0  0  0
   -3.8901    7.3926    0.0616 H   0  0  0  0  0  0  0  0  0  0  0  0
   -5.2492    8.5044    0.5140 H   0  0  0  0  0  0  0  0  0  0  0  0
   -4.2267    7.6886   -2.0074 H   0  0  0  0  0  0  0  0  0  0  0  0
   -6.7468    7.2730    0.5151 H   0  0  0  0  0  0  0  0  0  0  0  0
   -8.2836    7.5789   -0.3631 H   0  0  0  0  0  0  0  0  0  0  0  0
   -7.5612    5.9343   -0.3631 H   0  0  0  0  0  0  0  0  0  0  0  0
   -7.4900    5.7067   -2.6038 H   0  0  0  0  0  0  0  0  0  0  0  0
   -7.6357    7.2826   -3.4534 H   0  0  0  0  0  0  0  0  0  0  0  0
   -6.0691    6.4038   -3.4534 H   0  0  0  0  0  0  0  0  0  0  0  0
   -1.9807   11.0219    0.1583 H   0  0  0  0  0  0  0  0  0  0  0  0
   -0.5406   10.2886    1.9541 H   0  0  0  0  0  0  0  0  0  0  0  0
    0.0784    8.9215    1.0034 H   0  0  0  0  0  0  0  0  0  0  0  0
    1.4831   11.3570    1.5195 H   0  0  0  0  0  0  0  0  0  0  0  0
    1.9477   10.1932    0.2814 H   0  0  0  0  0  0  0  0  0  0  0  0
    0.0648   12.7983    1.4206 H   0  0  0  0  0  0  0  0  0  0  0  0
    0.4264   13.9386    0.0806 H   0  0  0  0  0  0  0  0  0  0  0  0
   -1.1122   13.0117    0.0806 H   0  0  0  0  0  0  0  0  0  0  0  0
    2.2359   11.4488   -1.7678 H   0  0  0  0  0  0  0  0  0  0  0  0
    2.9995   12.7957    0.2919 H   0  0  0  0  0  0  0  0  0  0  0  0
    3.7652   13.0667   -1.3601 H   0  0  0  0  0  0  0  0  0  0  0  0
    3.2568   15.2279    0.0580 H   0  0  0  0  0  0  0  0  0  0  0  0
   -0.1776   14.5581   -1.9554 H   0  0  0  0  0  0  0  0  0  0  0  0
    1.7950   15.5383   -4.1113 H   0  0  0  0  0  0  0  0  0  0  0  0
    0.0600   15.0501   -4.3596 H   0  0  0  0  0  0  0  0  0  0  0  0
    0.3469   17.5076   -4.3357 H   0  0  0  0  0  0  0  0  0  0  0  0
   -0.6905   16.9045   -2.9842 H   0  0  0  0  0  0  0  0  0  0  0  0
    0.7923   18.5863   -2.1261 H   0  0  0  0  0  0  0  0  0  0  0  0
    2.7530   16.9690   -3.4480 H   0  0  0  0  0  0  0  0  0  0  0  0
    0.2458   16.8885    0.8143 H   0  0  0  0  0  0  0  0  0  0  0  0
   -0.4887   17.8288   -0.5285 H   0  0  0  0  0  0  0  0  0  0  0  0
   -0.5881   16.0352   -0.5285 H   0  0  0  0  0  0  0  0  0  0  0  0
    2.1954   17.3834    0.8942 H   0  0  0  0  0  0  0  0  0  0  0  0
    3.4295   17.1355   -0.3873 H   0  0  0  0  0  0  0  0  0  0  0  0
    2.4208   18.6219   -0.3873 H   0  0  0  0  0  0  0  0  0  0  0  0
    3.2971   12.9856   -3.2845 H   0  0  0  0  0  0  0  0  0  0  0  0
    2.1588   12.1590   -4.4015 H   0  0  0  0  0  0  0  0  0  0  0  0
    2.2743   13.9516   -4.4015 H   0  0  0  0  0  0  0  0  0  0  0  0
   -0.6119   13.1424   -3.8992 H   0  0  0  0  0  0  0  0  0  0  0  0
    0.3399   11.5524   -3.8724 H   0  0  0  0  0  0  0  0  0  0  0  0
   -1.5975   12.5831   -1.7817 H   0  0  0  0  0  0  0  0  0  0  0  0
   -1.7627   11.1426   -2.8608 H   0  0  0  0  0  0  0  0  0  0  0  0
    0.7750    9.0169   -1.3107 H   0  0  0  0  0  0  0  0  0  0  0  0
   -0.3842    9.2209   -2.6676 H   0  0  0  0  0  0  0  0  0  0  0  0
    1.1670   10.1266   -2.6676 H   0  0  0  0  0  0  0  0  0  0  0  0
  1  2  1  0
  2  3  1  0
  3  4  1  0
  4  5  1  0
  5  6  1  0
  6  7  1  0
  7  8  1  0
  7  9  1  0
  2 10  1  0
 10 11  1  0
 11 12  1  0
 12 13  1  0
 13 14  1  1
 13 15  1  0
 15 16  1  0
 16 17  1  0
 17 18  2  0
 18 19  1  0
 19 20  1  0
 20 21  1  0
 21 22  1  0
 22 23  1  0
 22 24  1  0
 24 25  1  0
 24 26  1  0
 19 27  1  0
 27 28  1  6
 27 29  1  0
 29 30  1  0
 30 31  1  0
 31 32  1  6
  7  5  1  0
 31 10  1  0
 31 13  1  0
 27 15  1  0
 24 18  1  0
  1 33  1  0
  1 34  1  0
  1 35  1  0
  2 36  1  1
  3 37  1  0
  3 38  1  0
  4 39  1  0
  4 40  1  0
  5 41  1  6
  8 42  1  0
  8 43  1  0
  8 44  1  0
  9 45  1  0
  9 46  1  0
  9 47  1  0
 10 48  1  1
 11 49  1  0
 11 50  1  0
 12 51  1  0
 12 52  1  0
 14 53  1  0
 14 54  1  0
 14 55  1  0
 15 56  1  6
 16 57  1  0
 16 58  1  0
 17 59  1  0
 19 60  1  1
 20 61  1  0
 20 62  1  0
 21 63  1  0
 21 64  1  0
 22 65  1  1
 23 66  1  0
 25 67  1  0
 25 68  1  0
 25 69  1  0
 26 70  1  0
 26 71  1  0
 26 72  1  0
 28 73  1  0
 28 74  1  0
 28 75  1  0
 29 76  1  0
 29 77  1  0
 30 78  1  0
 30 79  1  0
 32 80  1  0
 32 81  1  0
 32 82  1  0
M  END
>  <meeko>  (1) 
{"is_sidechain": [false], "intermolecular_energy": 2.731, "internal_energy": -0.839}

$$$$
EPH_relaxed_0001_pdb2pqr_Repair_400_r2_0001_out
     RDKit          3D

 82 86  0  0  0  0  0  0  0  0999 V2000
    2.1720   12.3750   -5.6240 C   0  0  0  0  0  0  0  0  0  0  0  0
    1.1810   13.1230   -4.7280 C   0  0  2  0  0  0  0  0  0  0  0  0
    1.1010   14.6230   -5.0780 C   0  0  0  0  0  0  0  0  0  0  0  0
    0.4740   14.9030   -6.4470 C   0  0  0  0  0  0  0  0  0  0  0  0
    1.5130   15.0030   -7.5220 C   0  0  2  0  0  0  0  0  0  0  0  0
    2.0480   16.3190   -7.7160 O   0  0  0  0  0  0  0  0  0  0  0  0
    1.3060   15.7680   -8.8160 C   0  0  0  0  0  0  0  0  0  0  0  0
    0.0230   16.4830   -9.1040 C   0  0  0  0  0  0  0  0  0  0  0  0
    2.1540   15.4150   -9.9990 C   0  0  0  0  0  0  0  0  0  0  0  0
    1.5700   12.9500   -3.2650 C   0  0  1  0  0  0  0  0  0  0  0  0
    1.4630   14.2710   -2.4580 C   0  0  0  0  0  0  0  0  0  0  0  0
    1.0010   13.8860   -1.0290 C   0  0  0  0  0  0  0  0  0  0  0  0
    1.1780   12.3510   -0.9620 C   0  0  1  0  0  0  0  0  0  0  0  0
    2.6950   12.1340   -0.6660 C   0  0  0  0  0  0  0  0  0  0  0  0
    0.2750   11.5950    0.0670 C   0  0  2  0  0  0  0  0  0  0  0  0
    0.5060   11.9760    1.5400 C   0  0  0  0  0  0  0  0  0  0  0  0
    1.5260   11.1560    2.2580 C   0  0  0  0  0  0  0  0  0  0  0  0
    2.0220    9.9790    1.8340 C   0  0  0  0  0  0  0  0  0  0  0  0
    1.4840    9.3080    0.5640 C   0  0  1  0  0  0  0  0  0  0  0  0
    1.2230    7.8050    0.8420 C   0  0  0  0  0  0  0  0  0  0  0  0
    2.4500    7.0920    1.4030 C   0  0  0  0  0  0  0  0  0  0  0  0
    2.9200    7.7520    2.6970 C   0  0  2  0  0  0  0  0  0  0  0  0
    1.9250    7.5500    3.7050 O   0  0  0  0  0  0  0  0  0  0  0  0
    3.2050    9.2720    2.5410 C   0  0  0  0  0  0  0  0  0  0  0  0
    4.4780    9.4770    1.6820 C   0  0  0  0  0  0  0  0  0  0  0  0
    3.5340    9.8430    3.9470 C   0  0  0  0  0  0  0  0  0  0  0  0
    0.2450   10.0250   -0.1270 C   0  0  1  0  0  0  0  0  0  0  0  0
   -1.0850    9.5220    0.5130 C   0  0  0  0  0  0  0  0  0  0  0  0
    0.1920    9.6100   -1.6450 C   0  0  0  0  0  0  0  0  0  0  0  0
    1.0100   10.4680   -2.6290 C   0  0  0  0  0  0  0  0  0  0  0  0
    0.7320   11.9600   -2.4180 C   0  0  2  0  0  0  0  0  0  0  0  0
   -0.7830   12.2120   -2.7300 C   0  0  0  0  0  0  0  0  0  0  0  0
    2.8937   11.8303   -4.9976 H   0  0  0  0  0  0  0  0  0  0  0  0
    1.6260   11.6618   -6.2591 H   0  0  0  0  0  0  0  0  0  0  0  0
    2.7082   13.0955   -6.2591 H   0  0  0  0  0  0  0  0  0  0  0  0
    0.1851   12.6893   -4.9013 H   0  0  0  0  0  0  0  0  0  0  0  0
    0.4966   15.1272   -4.3095 H   0  0  0  0  0  0  0  0  0  0  0  0
    2.1336   15.0003   -5.1141 H   0  0  0  0  0  0  0  0  0  0  0  0
   -0.2189   14.0856   -6.6957 H   0  0  0  0  0  0  0  0  0  0  0  0
   -0.0558   15.8654   -6.3913 H   0  0  0  0  0  0  0  0  0  0  0  0
    1.8581   13.9788   -7.3175 H   0  0  0  0  0  0  0  0  0  0  0  0
   -0.4656   16.7553   -8.1568 H   0  0  0  0  0  0  0  0  0  0  0  0
    0.2331   17.3941   -9.6834 H   0  0  0  0  0  0  0  0  0  0  0  0
   -0.6414   15.8250   -9.6834 H   0  0  0  0  0  0  0  0  0  0  0  0
    3.1179   15.0138   -9.6526 H   0  0  0  0  0  0  0  0  0  0  0  0
    1.6383   14.6568  -10.6066 H   0  0  0  0  0  0  0  0  0  0  0  0
    2.3286   16.3152  -10.6066 H   0  0  0  0  0  0  0  0  0  0  0  0
    2.5927   12.5649   -3.3911 H   0  0  0  0  0  0  0  0  0  0  0  0
    2.4421   14.7707   -2.4178 H   0  0  0  0  0  0  0  0  0  0  0  0
    0.7518   14.9653   -2.9294 H   0  0  0  0  0  0  0  0  0  0  0  0
    1.6259   14.3824   -0.2719 H   0  0  0  0  0  0  0  0  0  0  0  0
   -0.0352   14.1956   -0.8280 H   0  0  0  0  0  0  0  0  0  0  0  0
    2.8567   12.1109    0.4218 H   0  0  0  0  0  0  0  0  0  0  0  0
    3.0216   11.1800   -1.1056 H   0  0  0  0  0  0  0  0  0  0  0  0
    3.2759   12.9582   -1.1056 H   0  0  0  0  0  0  0  0  0  0  0  0
   -0.7300   11.9656   -0.1835 H   0  0  0  0  0  0  0  0  0  0  0  0
    0.8302   13.0266    1.5726 H   0  0  0  0  0  0  0  0  0  0  0  0
   -0.4487   11.7935    2.0550 H   0  0  0  0  0  0  0  0  0  0  0  0
    1.9041   11.5467    3.2142 H   0  0  0  0  0  0  0  0  0  0  0  0
    2.2741    9.4149   -0.1938 H   0  0  0  0  0  0  0  0  0  0  0  0
    0.4018    7.7182    1.5687 H   0  0  0  0  0  0  0  0  0  0  0  0
    0.9682    7.3276   -0.1157 H   0  0  0  0  0  0  0  0  0  0  0  0
    2.1943    6.0417    1.6067 H   0  0  0  0  0  0  0  0  0  0  0  0
    3.2611    7.1535    0.6626 H   0  0  0  0  0  0  0  0  0  0  0  0
    3.8733    7.2818    2.9800 H   0  0  0  0  0  0  0  0  0  0  0  0
    1.3150    8.3060    3.6720 H   0  0  0  0  0  0  0  0  0  0  0  0
    5.3469    9.6169    2.3418 H   0  0  0  0  0  0  0  0  0  0  0  0
    4.6382    8.5931    1.0472 H   0  0  0  0  0  0  0  0  0  0  0  0
    4.3526   10.3665    1.0472 H   0  0  0  0  0  0  0  0  0  0  0  0
    3.1429    9.1642    4.7191 H   0  0  0  0  0  0  0  0  0  0  0  0
    4.6243    9.9363    4.0589 H   0  0  0  0  0  0  0  0  0  0  0  0
    3.0679   10.8331    4.0589 H   0  0  0  0  0  0  0  0  0  0  0  0
   -0.9996    9.5543    1.6092 H   0  0  0  0  0  0  0  0  0  0  0  0
   -1.9145   10.1685    0.1906 H   0  0  0  0  0  0  0  0  0  0  0  0
   -1.2791    8.4884    0.1906 H   0  0  0  0  0  0  0  0  0  0  0  0
    0.5595    8.5759   -1.7202 H   0  0  0  0  0  0  0  0  0  0  0  0
   -0.8571    9.7496   -1.9449 H   0  0  0  0  0  0  0  0  0  0  0  0
    2.0812   10.2755   -2.4697 H   0  0  0  0  0  0  0  0  0  0  0  0
    0.7188   10.1987   -3.6550 H   0  0  0  0  0  0  0  0  0  0  0  0
   -1.3411   12.3048   -1.7867 H   0  0  0  0  0  0  0  0  0  0  0  0
   -0.8883   13.1400   -3.3112 H   0  0  0  0  0  0  0  0  0  0  0  0
   -1.1830   11.3680   -3.3112 H   0  0  0  0  0  0  0  0  0  0  0  0
  1  2  1  0
  2  3  1  0
  3  4  1  0
  4  5  1  0
  5  6  1  0
  6  7  1  0
  7  8  1  0
  7  9  1  0
  2 10  1  0
 10 11  1  0
 11 12  1  0
 12 13  1  0
 13 14  1  1
 13 15  1  0
 15 16  1  0
 16 17  1  0
 17 18  2  0
 18 19  1  0
 19 20  1  0
 20 21  1  0
 21 22  1  0
 22 23  1  0
 22 24  1  0
 24 25  1  0
 24 26  1  0
 19 27  1  0
 27 28  1  1
 27 29  1  0
 29 30  1  0
 30 31  1  0
 31 32  1  1
  7  5  1  0
 31 10  1  0
 31 13  1  0
 27 15  1  0
 24 18  1  0
  1 33  1  0
  1 34  1  0
  1 35  1  0
  2 36  1  1
  3 37  1  0
  3 38  1  0
  4 39  1  0
  4 40  1  0
  5 41  1  6
  8 42  1  0
  8 43  1  0
  8 44  1  0
  9 45  1  0
  9 46  1  0
  9 47  1  0
 10 48  1  6
 11 49  1  0
 11 50  1  0
 12 51  1  0
 12 52  1  0
 14 53  1  0
 14 54  1  0
 14 55  1  0
 15 56  1  6
 16 57  1  0
 16 58  1  0
 17 59  1  0
 19 60  1  6
 20 61  1  0
 20 62  1  0
 21 63  1  0
 21 64  1  0
 22 65  1  1
 23 66  1  0
 25 67  1  0
 25 68  1  0
 25 69  1  0
 26 70  1  0
 26 71  1  0
 26 72  1  0
 28 73  1  0
 28 74  1  0
 28 75  1  0
 29 76  1  0
 29 77  1  0
 30 78  1  0
 30 79  1  0
 32 80  1  0
 32 81  1  0
 32 82  1  0
M  END
>  <meeko>  (2) 
{"is_sidechain": [false], "intermolecular_energy": 2.731, "internal_energy": -0.839}

$$$$
EPH_relaxed_0001_pdb2pqr_Repair_400_r2_0001_out
     RDKit          3D

 82 86  0  0  0  0  0  0  0  0999 V2000
    2.7170   12.3270   -5.2700 C   0  0  0  0  0  0  0  0  0  0  0  0
    1.2720   12.7960   -5.0740 C   0  0  2  0  0  0  0  0  0  0  0  0
    1.0200   14.1800   -5.7050 C   0  0  0  0  0  0  0  0  0  0  0  0
    1.6190   14.3360   -7.1060 C   0  0  0  0  0  0  0  0  0  0  0  0
    1.2630   15.6570   -7.7170 C   0  0  2  0  0  0  0  0  0  0  0  0
    0.3510   15.5800   -8.8210 O   0  0  0  0  0  0  0  0  0  0  0  0
    1.6700   16.0660   -9.1210 C   0  0  0  0  0  0  0  0  0  0  0  0
    2.4690   15.1550   -9.9980 C   0  0  0  0  0  0  0  0  0  0  0  0
    1.7120   17.5240   -9.4570 C   0  0  0  0  0  0  0  0  0  0  0  0
    0.9350   12.8320   -3.5880 C   0  0  1  0  0  0  0  0  0  0  0  0
   -0.4780   13.4120   -3.3100 C   0  0  0  0  0  0  0  0  0  0  0  0
   -1.0450   12.6430   -2.0890 C   0  0  0  0  0  0  0  0  0  0  0  0
    0.1730   11.8890   -1.5030 C   0  0  1  0  0  0  0  0  0  0  0  0
    0.9270   12.9520   -0.6440 C   0  0  0  0  0  0  0  0  0  0  0  0
   -0.1450   10.5990   -0.6790 C   0  0  2  0  0  0  0  0  0  0  0  0
   -0.9810   10.8270    0.5920 C   0  0  0  0  0  0  0  0  0  0  0  0
   -0.1960   11.0890    1.8340 C   0  0  0  0  0  0  0  0  0  0  0  0
    1.1220   10.8600    1.9890 C   0  0  0  0  0  0  0  0  0  0  0  0
    1.9410   10.1920    0.8780 C   0  0  1  0  0  0  0  0  0  0  0  0
    2.8320    9.0780    1.4890 C   0  0  0  0  0  0  0  0  0  0  0  0
    3.7040    9.5880    2.6320 C   0  0  0  0  0  0  0  0  0  0  0  0
    2.8500   10.1920    3.7430 C   0  0  2  0  0  0  0  0  0  0  0  0
    2.0790    9.1500    4.3490 O   0  0  0  0  0  0  0  0  0  0  0  0
    1.9040   11.3200    3.2440 C   0  0  0  0  0  0  0  0  0  0  0  0
    2.7380   12.5690    2.8670 C   0  0  0  0  0  0  0  0  0  0  0  0
    0.9990   11.7440    4.4330 C   0  0  0  0  0  0  0  0  0  0  0  0
    1.1170    9.6910   -0.3850 C   0  0  1  0  0  0  0  0  0  0  0  0
    0.5790    8.2500   -0.1320 C   0  0  0  0  0  0  0  0  0  0  0  0
    2.0850    9.5920   -1.6240 C   0  0  0  0  0  0  0  0  0  0  0  0
    2.2640   10.8680   -2.4690 C   0  0  0  0  0  0  0  0  0  0  0  0
    0.9080   11.4800   -2.8320 C   0  0  2  0  0  0  0  0  0  0  0  0
    0.1350   10.4430   -3.7160 C   0  0  0  0  0  0  0  0  0  0  0  0
    3.1891   12.1738   -4.2883 H   0  0  0  0  0  0  0  0  0  0  0  0
    2.7225   11.3809   -5.8312 H   0  0  0  0  0  0  0  0  0  0  0  0
    3.2771   13.0895   -5.8312 H   0  0  0  0  0  0  0  0  0  0  0  0
    0.6176   12.0756   -5.5867 H   0  0  0  0  0  0  0  0  0  0  0  0
   -0.0665   14.3385   -5.7722 H   0  0  0  0  0  0  0  0  0  0  0  0
    1.5132   14.9221   -5.0600 H   0  0  0  0  0  0  0  0  0  0  0  0
    2.7141   14.2591   -7.0361 H   0  0  0  0  0  0  0  0  0  0  0  0
    1.2080   13.5407   -7.7452 H   0  0  0  0  0  0  0  0  0  0  0  0
    1.3615   16.1604   -6.7439 H   0  0  0  0  0  0  0  0  0  0  0  0
    3.0658   14.4746   -9.3728 H   0  0  0  0  0  0  0  0  0  0  0  0
    1.7892   14.5680  -10.6330 H   0  0  0  0  0  0  0  0  0  0  0  0
    3.1396   15.7525  -10.6330 H   0  0  0  0  0  0  0  0  0  0  0  0
    1.7290   18.1139   -8.5287 H   0  0  0  0  0  0  0  0  0  0  0  0
    2.6167   17.7389  -10.0446 H   0  0  0  0  0  0  0  0  0  0  0  0
    0.8212   17.7907  -10.0446 H   0  0  0  0  0  0  0  0  0  0  0  0
    1.7695   13.4495   -3.2243 H   0  0  0  0  0  0  0  0  0  0  0  0
   -0.4086   14.4859   -3.0823 H   0  0  0  0  0  0  0  0  0  0  0  0
   -1.1316   13.2972   -4.1873 H   0  0  0  0  0  0  0  0  0  0  0  0
   -1.4617   13.3421   -1.3490 H   0  0  0  0  0  0  0  0  0  0  0  0
   -1.8627   11.9621   -2.3677 H   0  0  0  0  0  0  0  0  0  0  0  0
    0.7739   12.7362    0.4237 H   0  0  0  0  0  0  0  0  0  0  0  0
    2.0018   12.9148   -0.8752 H   0  0  0  0  0  0  0  0  0  0  0  0
    0.5367   13.9541   -0.8752 H   0  0  0  0  0  0  0  0  0  0  0  0
   -0.7925   10.0336   -1.3654 H   0  0  0  0  0  0  0  0  0  0  0  0
   -1.6374   11.6920    0.4162 H   0  0  0  0  0  0  0  0  0  0  0  0
   -1.5263    9.8883    0.7695 H   0  0  0  0  0  0  0  0  0  0  0  0
   -0.7398   11.5041    2.6954 H   0  0  0  0  0  0  0  0  0  0  0  0
    2.5744   10.9829    0.4498 H   0  0  0  0  0  0  0  0  0  0  0  0
    2.1824    8.2769    1.8714 H   0  0  0  0  0  0  0  0  0  0  0  0
    3.5009    8.7127    0.6959 H   0  0  0  0  0  0  0  0  0  0  0  0
    4.2869    8.7498    3.0415 H   0  0  0  0  0  0  0  0  0  0  0  0
    4.3738   10.3681    2.2410 H   0  0  0  0  0  0  0  0  0  0  0  0
    3.5332   10.6551    4.4702 H   0  0  0  0  0  0  0  0  0  0  0  0
    2.5840    8.8140    5.1090 H   0  0  0  0  0  0  0  0  0  0  0  0
    3.0757   13.0747    3.7836 H   0  0  0  0  0  0  0  0  0  0  0  0
    3.6123   12.2610    2.2748 H   0  0  0  0  0  0  0  0  0  0  0  0
    2.1184   13.2585    2.2748 H   0  0  0  0  0  0  0  0  0  0  0  0
    1.5043   11.5073    5.3810 H   0  0  0  0  0  0  0  0  0  0  0  0
    0.8069   12.8258    4.3800 H   0  0  0  0  0  0  0  0  0  0  0  0
    0.0449   11.1992    4.3800 H   0  0  0  0  0  0  0  0  0  0  0  0
    0.5113    8.0687    0.9509 H   0  0  0  0  0  0  0  0  0  0  0  0
   -0.4184    8.1463   -0.5842 H   0  0  0  0  0  0  0  0  0  0  0  0
    1.2644    7.5181   -0.5842 H   0  0  0  0  0  0  0  0  0  0  0  0
    3.0768    9.2993   -1.2490 H   0  0  0  0  0  0  0  0  0  0  0  0
    1.6142    8.8628   -2.2997 H   0  0  0  0  0  0  0  0  0  0  0  0
    2.8474   11.6018   -1.8935 H   0  0  0  0  0  0  0  0  0  0  0  0
    2.7889   10.6023   -3.3985 H   0  0  0  0  0  0  0  0  0  0  0  0
   -0.3957    9.7311   -3.0667 H   0  0  0  0  0  0  0  0  0  0  0  0
   -0.5911   10.9717   -4.3510 H   0  0  0  0  0  0  0  0  0  0  0  0
    0.8490    9.8981   -4.3510 H   0  0  0  0  0  0  0  0  0  0  0  0
  1  2  1  0
  2  3  1  0
  3  4  1  0
  4  5  1  0
  5  6  1  0
  6  7  1  0
  7  8  1  0
  7  9  1  0
  2 10  1  0
 10 11  1  0
 11 12  1  0
 12 13  1  0
 13 14  1  1
 13 15  1  0
 15 16  1  0
 16 17  1  0
 17 18  2  0
 18 19  1  0
 19 20  1  0
 20 21  1  0
 21 22  1  0
 22 23  1  0
 22 24  1  0
 24 25  1  0
 24 26  1  0
 19 27  1  0
 27 28  1  1
 27 29  1  0
 29 30  1  0
 30 31  1  0
 31 32  1  6
  7  5  1  0
 31 10  1  0
 31 13  1  0
 27 15  1  0
 24 18  1  0
  1 33  1  0
  1 34  1  0
  1 35  1  0
  2 36  1  6
  3 37  1  0
  3 38  1  0
  4 39  1  0
  4 40  1  0
  5 41  1  1
  8 42  1  0
  8 43  1  0
  8 44  1  0
  9 45  1  0
  9 46  1  0
  9 47  1  0
 10 48  1  1
 11 49  1  0
 11 50  1  0
 12 51  1  0
 12 52  1  0
 14 53  1  0
 14 54  1  0
 14 55  1  0
 15 56  1  6
 16 57  1  0
 16 58  1  0
 17 59  1  0
 19 60  1  6
 20 61  1  0
 20 62  1  0
 21 63  1  0
 21 64  1  0
 22 65  1  1
 23 66  1  0
 25 67  1  0
 25 68  1  0
 25 69  1  0
 26 70  1  0
 26 71  1  0
 26 72  1  0
 28 73  1  0
 28 74  1  0
 28 75  1  0
 29 76  1  0
 29 77  1  0
 30 78  1  0
 30 79  1  0
 32 80  1  0
 32 81  1  0
 32 82  1  0
M  END
>  <meeko>  (3) 
{"is_sidechain": [false], "intermolecular_energy": 2.731, "internal_energy": -0.839}

$$$$
EPH_relaxed_0001_pdb2pqr_Repair_400_r2_0001_out
     RDKit          3D

 82 86  0  0  0  0  0  0  0  0999 V2000
    2.3680   19.6960   -1.0300 C   0  0  0  0  0  0  0  0  0  0  0  0
    2.1420   18.8570    0.2310 C   0  0  2  0  0  0  0  0  0  0  0  0
    3.4680   18.4030    0.8730 C   0  0  0  0  0  0  0  0  0  0  0  0
    3.7570   19.0650    2.2220 C   0  0  0  0  0  0  0  0  0  0  0  0
    5.2280   19.1370    2.5010 C   0  0  2  0  0  0  0  0  0  0  0  0
    5.7350   18.0760    3.3200 O   0  0  0  0  0  0  0  0  0  0  0  0
    5.8070   19.3970    3.8790 C   0  0  0  0  0  0  0  0  0  0  0  0
    4.9240   19.6030    5.0700 C   0  0  0  0  0  0  0  0  0  0  0  0
    7.2010   19.9340    3.9800 C   0  0  0  0  0  0  0  0  0  0  0  0
    1.2810   17.6430   -0.1000 C   0  0  1  0  0  0  0  0  0  0  0  0
    0.1060   17.9870   -1.0540 C   0  0  0  0  0  0  0  0  0  0  0  0
   -0.1010   16.7540   -1.9710 C   0  0  0  0  0  0  0  0  0  0  0  0
    0.7260   15.6290   -1.3050 C   0  0  1  0  0  0  0  0  0  0  0  0
   -0.1840   15.0880   -0.1580 C   0  0  0  0  0  0  0  0  0  0  0  0
    1.2140   14.4810   -2.2460 C   0  0  2  0  0  0  0  0  0  0  0  0
    0.0940   13.6600   -2.9100 C   0  0  0  0  0  0  0  0  0  0  0  0
   -0.3570   12.4600   -2.1440 C   0  0  0  0  0  0  0  0  0  0  0  0
    0.3030   11.8950   -1.1160 C   0  0  0  0  0  0  0  0  0  0  0  0
    1.6850   12.4080   -0.6900 C   0  0  1  0  0  0  0  0  0  0  0  0
    2.6440   11.2050   -0.4870 C   0  0  0  0  0  0  0  0  0  0  0  0
    2.0830   10.1670    0.4800 C   0  0  0  0  0  0  0  0  0  0  0  0
    0.7360    9.6390   -0.0070 C   0  0  2  0  0  0  0  0  0  0  0  0
    0.9420    8.8960   -1.2130 O   0  0  0  0  0  0  0  0  0  0  0  0
   -0.3090   10.7620   -0.2560 C   0  0  0  0  0  0  0  0  0  0  0  0
   -0.7560   11.3660    1.0980 C   0  0  0  0  0  0  0  0  0  0  0  0
   -1.5720   10.1090   -0.8780 C   0  0  0  0  0  0  0  0  0  0  0  0
    2.3160   13.5430   -1.6070 C   0  0  1  0  0  0  0  0  0  0  0  0
    3.0950   12.8970   -2.7930 C   0  0  0  0  0  0  0  0  0  0  0  0
    3.3760   14.3510   -0.7680 C   0  0  0  0  0  0  0  0  0  0  0  0
    2.8500   15.5480    0.0470 C   0  0  0  0  0  0  0  0  0  0  0  0
    1.9710   16.4560   -0.8170 C   0  0  2  0  0  0  0  0  0  0  0  0
    2.8650   17.0340   -1.9670 C   0  0  0  0  0  0  0  0  0  0  0  0
    2.6442   20.7215   -0.7435 H   0  0  0  0  0  0  0  0  0  0  0  0
    3.1783   19.2510   -1.6262 H   0  0  0  0  0  0  0  0  0  0  0  0
    1.4438   19.7182   -1.6262 H   0  0  0  0  0  0  0  0  0  0  0  0
    1.6226   19.4934    0.9626 H   0  0  0  0  0  0  0  0  0  0  0  0
    3.4265   17.3140    1.0224 H   0  0  0  0  0  0  0  0  0  0  0  0
    4.2754   18.7024    0.1886 H   0  0  0  0  0  0  0  0  0  0  0  0
    3.3455   20.0851    2.2138 H   0  0  0  0  0  0  0  0  0  0  0  0
    3.2882   18.4568    3.0096 H   0  0  0  0  0  0  0  0  0  0  0  0
    5.4140   19.6037    1.5225 H   0  0  0  0  0  0  0  0  0  0  0  0
    5.5113   19.4660    5.9899 H   0  0  0  0  0  0  0  0  0  0  0  0
    4.5100   20.6219    5.0476 H   0  0  0  0  0  0  0  0  0  0  0  0
    4.1018   18.8725    5.0476 H   0  0  0  0  0  0  0  0  0  0  0  0
    7.4771   20.0404    5.0395 H   0  0  0  0  0  0  0  0  0  0  0  0
    7.8979   19.2400    3.4874 H   0  0  0  0  0  0  0  0  0  0  0  0
    7.2522   20.9162    3.4874 H   0  0  0  0  0  0  0  0  0  0  0  0
    0.9821   17.3460    0.9161 H   0  0  0  0  0  0  0  0  0  0  0  0
   -0.8073   18.1853   -0.4739 H   0  0  0  0  0  0  0  0  0  0  0  0
    0.3284   18.8869   -1.6462 H   0  0  0  0  0  0  0  0  0  0  0  0
   -1.1650   16.4786   -2.0170 H   0  0  0  0  0  0  0  0  0  0  0  0
    0.2151   16.9468   -3.0068 H   0  0  0  0  0  0  0  0  0  0  0  0
    0.2573   15.3504    0.8148 H   0  0  0  0  0  0  0  0  0  0  0  0
   -1.1843   15.5382   -0.2403 H   0  0  0  0  0  0  0  0  0  0  0  0
   -0.2663   13.9942   -0.2403 H   0  0  0  0  0  0  0  0  0  0  0  0
    1.7009   15.0364   -3.0612 H   0  0  0  0  0  0  0  0  0  0  0  0
   -0.7746   14.3204   -3.0495 H   0  0  0  0  0  0  0  0  0  0  0  0
    0.5138   13.2792   -3.8528 H   0  0  0  0  0  0  0  0  0  0  0  0
   -1.3091   11.9989   -2.4454 H   0  0  0  0  0  0  0  0  0  0  0  0
    1.5340   12.9307    0.2661 H   0  0  0  0  0  0  0  0  0  0  0  0
    2.8164   10.7231   -1.4607 H   0  0  0  0  0  0  0  0  0  0  0  0
    3.5791   11.5922   -0.0560 H   0  0  0  0  0  0  0  0  0  0  0  0
    2.7910    9.3288    0.5588 H   0  0  0  0  0  0  0  0  0  0  0  0
    1.9394   10.6430    1.4612 H   0  0  0  0  0  0  0  0  0  0  0  0
    0.3244    9.0000    0.7882 H   0  0  0  0  0  0  0  0  0  0  0  0
    0.4440    9.3410   -1.9200 H   0  0  0  0  0  0  0  0  0  0  0  0
   -0.3224   10.7801    1.9218 H   0  0  0  0  0  0  0  0  0  0  0  0
   -0.4096   12.4078    1.1670 H   0  0  0  0  0  0  0  0  0  0  0  0
   -1.8535   11.3392    1.1670 H   0  0  0  0  0  0  0  0  0  0  0  0
   -2.2396    9.7638   -0.0748 H   0  0  0  0  0  0  0  0  0  0  0  0
   -2.0983   10.8480   -1.5000 H   0  0  0  0  0  0  0  0  0  0  0  0
   -1.2733    9.2523   -1.5000 H   0  0  0  0  0  0  0  0  0  0  0  0
    3.8855   12.2415   -2.3987 H   0  0  0  0  0  0  0  0  0  0  0  0
    2.4013   12.3055   -3.4085 H   0  0  0  0  0  0  0  0  0  0  0  0
    3.5479   13.6882   -3.4085 H   0  0  0  0  0  0  0  0  0  0  0  0
    3.8473   13.6499   -0.0634 H   0  0  0  0  0  0  0  0  0  0  0  0
    4.0599   14.7868   -1.5112 H   0  0  0  0  0  0  0  0  0  0  0  0
    2.2568   15.1735    0.8943 H   0  0  0  0  0  0  0  0  0  0  0  0
    3.7099   16.1320    0.4069 H   0  0  0  0  0  0  0  0  0  0  0  0
    3.7133   17.5824   -1.5315 H   0  0  0  0  0  0  0  0  0  0  0  0
    3.2423   16.2084   -2.5883 H   0  0  0  0  0  0  0  0  0  0  0  0
    2.2670   17.7169   -2.5883 H   0  0  0  0  0  0  0  0  0  0  0  0
  1  2  1  0
  2  3  1  0
  3  4  1  0
  4  5  1  0
  5  6  1  0
  6  7  1  0
  7  8  1  0
  7  9  1  0
  2 10  1  0
 10 11  1  0
 11 12  1  0
 12 13  1  0
 13 14  1  1
 13 15  1  0
 15 16  1  0
 16 17  1  0
 17 18  2  0
 18 19  1  0
 19 20  1  0
 20 21  1  0
 21 22  1  0
 22 23  1  0
 22 24  1  0
 24 25  1  0
 24 26  1  0
 19 27  1  0
 27 28  1  6
 27 29  1  0
 29 30  1  0
 30 31  1  0
 31 32  1  6
  7  5  1  0
 31 10  1  0
 31 13  1  0
 27 15  1  0
 24 18  1  0
  1 33  1  0
  1 34  1  0
  1 35  1  0
  2 36  1  1
  3 37  1  0
  3 38  1  0
  4 39  1  0
  4 40  1  0
  5 41  1  6
  8 42  1  0
  8 43  1  0
  8 44  1  0
  9 45  1  0
  9 46  1  0
  9 47  1  0
 10 48  1  1
 11 49  1  0
 11 50  1  0
 12 51  1  0
 12 52  1  0
 14 53  1  0
 14 54  1  0
 14 55  1  0
 15 56  1  6
 16 57  1  0
 16 58  1  0
 17 59  1  0
 19 60  1  1
 20 61  1  0
 20 62  1  0
 21 63  1  0
 21 64  1  0
 22 65  1  1
 23 66  1  0
 25 67  1  0
 25 68  1  0
 25 69  1  0
 26 70  1  0
 26 71  1  0
 26 72  1  0
 28 73  1  0
 28 74  1  0
 28 75  1  0
 29 76  1  0
 29 77  1  0
 30 78  1  0
 30 79  1  0
 32 80  1  0
 32 81  1  0
 32 82  1  0
M  END
>  <meeko>  (4) 
{"is_sidechain": [false], "intermolecular_energy": 2.731, "internal_energy": -0.839}

$$$$
EPH_relaxed_0001_pdb2pqr_Repair_400_r2_0001_out
     RDKit          3D

 82 86  0  0  0  0  0  0  0  0999 V2000
    1.3100   13.4250   -5.0980 C   0  0  0  0  0  0  0  0  0  0  0  0
    0.4540   14.0750   -4.0070 C   0  0  2  0  0  0  0  0  0  0  0  0
    0.4060   15.6100   -4.1440 C   0  0  0  0  0  0  0  0  0  0  0  0
    1.5010   16.3330   -3.3550 C   0  0  0  0  0  0  0  0  0  0  0  0
    0.9710   17.5500   -2.6590 C   0  0  2  0  0  0  0  0  0  0  0  0
    1.7700   18.7290   -2.8230 O   0  0  0  0  0  0  0  0  0  0  0  0
    1.6690   18.2130   -1.4860 C   0  0  0  0  0  0  0  0  0  0  0  0
    2.9560   17.6800   -0.9410 C   0  0  0  0  0  0  0  0  0  0  0  0
    0.8600   19.0750   -0.5670 C   0  0  0  0  0  0  0  0  0  0  0  0
    0.9870   13.6910   -2.6320 C   0  0  1  0  0  0  0  0  0  0  0  0
    0.9270   14.8650   -1.6190 C   0  0  0  0  0  0  0  0  0  0  0  0
    0.6140   14.2450   -0.2330 C   0  0  0  0  0  0  0  0  0  0  0  0
    0.8330   12.7260   -0.4270 C   0  0  1  0  0  0  0  0  0  0  0  0
    2.3760   12.5240   -0.3090 C   0  0  0  0  0  0  0  0  0  0  0  0
    0.0520   11.7850    0.5480 C   0  0  2  0  0  0  0  0  0  0  0  0
    0.4150   11.9400    2.0350 C   0  0  0  0  0  0  0  0  0  0  0  0
    1.5190   11.0590    2.5170 C   0  0  0  0  0  0  0  0  0  0  0  0
    2.0000    9.9820    1.8680 C   0  0  0  0  0  0  0  0  0  0  0  0
    1.3580    9.4970    0.5620 C   0  0  1  0  0  0  0  0  0  0  0  0
    1.1600    7.9600    0.6220 C   0  0  0  0  0  0  0  0  0  0  0  0
    2.4520    7.2160    0.9480 C   0  0  0  0  0  0  0  0  0  0  0  0
    3.0290    7.6850    2.2810 C   0  0  2  0  0  0  0  0  0  0  0  0
    2.1410    7.2900    3.3320 O   0  0  0  0  0  0  0  0  0  0  0  0
    3.2620    9.2200    2.3430 C   0  0  0  0  0  0  0  0  0  0  0  0
    4.4400    9.6060    1.4140 C   0  0  0  0  0  0  0  0  0  0  0  0
    3.7110    9.5770    3.7850 C   0  0  0  0  0  0  0  0  0  0  0  0
    0.0410   10.2640    0.1110 C   0  0  1  0  0  0  0  0  0  0  0  0
   -1.2090    9.6170    0.7820 C   0  0  0  0  0  0  0  0  0  0  0  0
   -0.1490   10.0890   -1.4420 C   0  0  0  0  0  0  0  0  0  0  0  0
    0.5500   11.1210   -2.3480 C   0  0  0  0  0  0  0  0  0  0  0  0
    0.2580   12.5500   -1.8800 C   0  0  2  0  0  0  0  0  0  0  0  0
   -1.2850   12.7890   -2.0080 C   0  0  0  0  0  0  0  0  0  0  0  0
    2.1033   12.8226   -4.6314 H   0  0  0  0  0  0  0  0  0  0  0  0
    0.6776   12.7775   -5.7231 H   0  0  0  0  0  0  0  0  0  0  0  0
    1.7639   14.2081   -5.7231 H   0  0  0  0  0  0  0  0  0  0  0  0
   -0.5738   13.7012   -4.1254 H   0  0  0  0  0  0  0  0  0  0  0  0
    0.5170   15.8673   -5.2077 H   0  0  0  0  0  0  0  0  0  0  0  0
   -0.5587   15.9396   -3.7308 H   0  0  0  0  0  0  0  0  0  0  0  0
    1.9131   15.6436   -2.6034 H   0  0  0  0  0  0  0  0  0  0  0  0
    2.2787   16.6545   -4.0634 H   0  0  0  0  0  0  0  0  0  0  0  0
   -0.0654   17.2118   -2.8058 H   0  0  0  0  0  0  0  0  0  0  0  0
    2.9224   17.6939    0.1584 H   0  0  0  0  0  0  0  0  0  0  0  0
    3.1024   16.6473   -1.2903 H   0  0  0  0  0  0  0  0  0  0  0  0
    3.7897   18.3069   -1.2903 H   0  0  0  0  0  0  0  0  0  0  0  0
    1.0975   18.8220    0.4768 H   0  0  0  0  0  0  0  0  0  0  0  0
    1.0990   20.1328   -0.7514 H   0  0  0  0  0  0  0  0  0  0  0  0
   -0.2108   18.9035   -0.7514 H   0  0  0  0  0  0  0  0  0  0  0  0
    2.0015   13.3700   -2.9107 H   0  0  0  0  0  0  0  0  0  0  0  0
    1.8934   15.3896   -1.5897 H   0  0  0  0  0  0  0  0  0  0  0  0
    0.1574   15.5961   -1.9073 H   0  0  0  0  0  0  0  0  0  0  0  0
    1.2970   14.6412    0.5329 H   0  0  0  0  0  0  0  0  0  0  0  0
   -0.4050   14.4794    0.1085 H   0  0  0  0  0  0  0  0  0  0  0  0
    2.6608   12.4867    0.7528 H   0  0  0  0  0  0  0  0  0  0  0  0
    2.6608   11.5809   -0.7983 H   0  0  0  0  0  0  0  0  0  0  0  0
    2.8940   13.3620   -0.7983 H   0  0  0  0  0  0  0  0  0  0  0  0
   -0.9807   12.1518    0.4530 H   0  0  0  0  0  0  0  0  0  0  0  0
    0.7152   12.9846    2.2045 H   0  0  0  0  0  0  0  0  0  0  0  0
   -0.4807   11.6418    2.5995 H   0  0  0  0  0  0  0  0  0  0  0  0
    1.9785   11.3109    3.4842 H   0  0  0  0  0  0  0  0  0  0  0  0
    2.0682    9.7510   -0.2387 H   0  0  0  0  0  0  0  0  0  0  0  0
    0.4153    7.7304    1.3984 H   0  0  0  0  0  0  0  0  0  0  0  0
    0.8247    7.6274   -0.3715 H   0  0  0  0  0  0  0  0  0  0  0  0
    2.2419    6.1378    1.0059 H   0  0  0  0  0  0  0  0  0  0  0  0
    3.1861    7.4224    0.1552 H   0  0  0  0  0  0  0  0  0  0  0  0
    4.0164    7.2140    2.3965 H   0  0  0  0  0  0  0  0  0  0  0  0
    2.6790    6.8880    4.0350 H   0  0  0  0  0  0  0  0  0  0  0  0
    5.3099    9.8910    2.0240 H   0  0  0  0  0  0  0  0  0  0  0  0
    4.7030    8.7470    0.7792 H   0  0  0  0  0  0  0  0  0  0  0  0
    4.1436   10.4540    0.7792 H   0  0  0  0  0  0  0  0  0  0  0  0
    3.0628    9.0616    4.5090 H   0  0  0  0  0  0  0  0  0  0  0  0
    4.7532    9.2582    3.9340 H   0  0  0  0  0  0  0  0  0  0  0  0
    3.6353   10.6642    3.9340 H   0  0  0  0  0  0  0  0  0  0  0  0
   -1.1066    9.6700    1.8759 H   0  0  0  0  0  0  0  0  0  0  0  0
   -2.1140   10.1599    0.4717 H   0  0  0  0  0  0  0  0  0  0  0  0
   -1.2883    8.5647    0.4717 H   0  0  0  0  0  0  0  0  0  0  0  0
    0.2335    9.0942   -1.7141 H   0  0  0  0  0  0  0  0  0  0  0  0
   -1.2251   10.2332   -1.6184 H   0  0  0  0  0  0  0  0  0  0  0  0
    1.6359   10.9479   -2.3190 H   0  0  0  0  0  0  0  0  0  0  0  0
    0.1679   11.0031   -3.3728 H   0  0  0  0  0  0  0  0  0  0  0  0
   -1.7299   12.8579   -1.0043 H   0  0  0  0  0  0  0  0  0  0  0  0
   -1.4668   13.7260   -2.5548 H   0  0  0  0  0  0  0  0  0  0  0  0
   -1.7417   11.9509   -2.5548 H   0  0  0  0  0  0  0  0  0  0  0  0
  1  2  1  0
  2  3  1  0
  3  4  1  0
  4  5  1  0
  5  6  1  0
  6  7  1  0
  7  8  1  0
  7  9  1  0
  2 10  1  0
 10 11  1  0
 11 12  1  0
 12 13  1  0
 13 14  1  6
 13 15  1  0
 15 16  1  0
 16 17  1  0
 17 18  2  0
 18 19  1  0
 19 20  1  0
 20 21  1  0
 21 22  1  0
 22 23  1  0
 22 24  1  0
 24 25  1  0
 24 26  1  0
 19 27  1  0
 27 28  1  1
 27 29  1  0
 29 30  1  0
 30 31  1  0
 31 32  1  1
  7  5  1  0
 31 10  1  0
 31 13  1  0
 27 15  1  0
 24 18  1  0
  1 33  1  0
  1 34  1  0
  1 35  1  0
  2 36  1  1
  3 37  1  0
  3 38  1  0
  4 39  1  0
  4 40  1  0
  5 41  1  1
  8 42  1  0
  8 43  1  0
  8 44  1  0
  9 45  1  0
  9 46  1  0
  9 47  1  0
 10 48  1  6
 11 49  1  0
 11 50  1  0
 12 51  1  0
 12 52  1  0
 14 53  1  0
 14 54  1  0
 14 55  1  0
 15 56  1  1
 16 57  1  0
 16 58  1  0
 17 59  1  0
 19 60  1  6
 20 61  1  0
 20 62  1  0
 21 63  1  0
 21 64  1  0
 22 65  1  1
 23 66  1  0
 25 67  1  0
 25 68  1  0
 25 69  1  0
 26 70  1  0
 26 71  1  0
 26 72  1  0
 28 73  1  0
 28 74  1  0
 28 75  1  0
 29 76  1  0
 29 77  1  0
 30 78  1  0
 30 79  1  0
 32 80  1  0
 32 81  1  0
 32 82  1  0
M  END
>  <meeko>  (5) 
{"is_sidechain": [false], "intermolecular_energy": 2.731, "internal_energy": -0.839}

$$$$
EPH_relaxed_0001_pdb2pqr_Repair_400_r2_0001_out
     RDKit          3D

 82 86  0  0  0  0  0  0  0  0999 V2000
    2.3740   17.9800   -2.6850 C   0  0  0  0  0  0  0  0  0  0  0  0
    1.0400   17.6400   -2.0160 C   0  0  2  0  0  0  0  0  0  0  0  0
    1.1210   17.7300   -0.4790 C   0  0  0  0  0  0  0  0  0  0  0  0
    0.7630   19.1110    0.0770 C   0  0  0  0  0  0  0  0  0  0  0  0
   -0.6680   19.1780    0.5170 C   0  0  2  0  0  0  0  0  0  0  0  0
   -1.5500   18.2840   -0.1760 O   0  0  0  0  0  0  0  0  0  0  0  0
   -1.7920   19.6870   -0.3660 C   0  0  0  0  0  0  0  0  0  0  0  0
   -1.5320   20.1650   -1.7610 C   0  0  0  0  0  0  0  0  0  0  0  0
   -3.0480   20.1760    0.2850 C   0  0  0  0  0  0  0  0  0  0  0  0
    0.5900   16.2450   -2.4330 C   0  0  1  0  0  0  0  0  0  0  0  0
    0.6520   16.0320   -3.9690 C   0  0  0  0  0  0  0  0  0  0  0  0
    1.0560   14.5530   -4.2000 C   0  0  0  0  0  0  0  0  0  0  0  0
    0.8890   13.8830   -2.8160 C   0  0  1  0  0  0  0  0  0  0  0  0
   -0.6370   13.5790   -2.6980 C   0  0  0  0  0  0  0  0  0  0  0  0
    1.7530   12.6060   -2.5580 C   0  0  2  0  0  0  0  0  0  0  0  0
    1.4570   11.4180   -3.4910 C   0  0  0  0  0  0  0  0  0  0  0  0
    0.4140   10.4680   -3.0020 C   0  0  0  0  0  0  0  0  0  0  0  0
   -0.0550   10.4020   -1.7420 C   0  0  0  0  0  0  0  0  0  0  0  0
    0.5430   11.2770   -0.6320 C   0  0  1  0  0  0  0  0  0  0  0  0
    0.8040   10.4090    0.6270 C   0  0  0  0  0  0  0  0  0  0  0  0
   -0.4400    9.6540    1.0850 C   0  0  0  0  0  0  0  0  0  0  0  0
   -0.9700    8.7510   -0.0250 C   0  0  2  0  0  0  0  0  0  0  0  0
   -0.0170    7.7120   -0.2690 O   0  0  0  0  0  0  0  0  0  0  0  0
   -1.2610    9.5140   -1.3480 C   0  0  0  0  0  0  0  0  0  0  0  0
   -2.4970   10.4280   -1.1610 C   0  0  0  0  0  0  0  0  0  0  0  0
   -1.6540    8.4680   -2.4260 C   0  0  0  0  0  0  0  0  0  0  0  0
    1.8040   12.1520   -1.0430 C   0  0  1  0  0  0  0  0  0  0  0  0
    3.1100   11.3170   -0.8720 C   0  0  0  0  0  0  0  0  0  0  0  0
    1.9260   13.3740   -0.0570 C   0  0  0  0  0  0  0  0  0  0  0  0
    1.1430   14.6470   -0.4290 C   0  0  0  0  0  0  0  0  0  0  0  0
    1.4000   15.0430   -1.8860 C   0  0  2  0  0  0  0  0  0  0  0  0
    2.9240   15.3760   -2.0300 C   0  0  0  0  0  0  0  0  0  0  0  0
    3.1328   18.1734   -1.9125 H   0  0  0  0  0  0  0  0  0  0  0  0
    2.6958   17.1352   -3.3117 H   0  0  0  0  0  0  0  0  0  0  0  0
    2.2521   18.8758   -3.3117 H   0  0  0  0  0  0  0  0  0  0  0  0
    0.3028   18.3843   -2.3515 H   0  0  0  0  0  0  0  0  0  0  0  0
    0.4260   16.9926   -0.0510 H   0  0  0  0  0  0  0  0  0  0  0  0
    2.1667   17.5328   -0.2004 H   0  0  0  0  0  0  0  0  0  0  0  0
    1.4114   19.3272    0.9389 H   0  0  0  0  0  0  0  0  0  0  0  0
    0.9105   19.8513   -0.7231 H   0  0  0  0  0  0  0  0  0  0  0  0
   -0.3650   19.4294    1.5441 H   0  0  0  0  0  0  0  0  0  0  0  0
   -1.0067   21.1308   -1.7257 H   0  0  0  0  0  0  0  0  0  0  0  0
   -0.9102   19.4285   -2.2910 H   0  0  0  0  0  0  0  0  0  0  0  0
   -2.4881   20.2868   -2.2910 H   0  0  0  0  0  0  0  0  0  0  0  0
   -2.9353   20.1321    1.3783 H   0  0  0  0  0  0  0  0  0  0  0  0
   -3.2400   21.2146   -0.0225 H   0  0  0  0  0  0  0  0  0  0  0  0
   -3.8917   19.5407   -0.0225 H   0  0  0  0  0  0  0  0  0  0  0  0
   -0.4231   16.2423   -2.0044 H   0  0  0  0  0  0  0  0  0  0  0  0
   -0.3320   16.2305   -4.4189 H   0  0  0  0  0  0  0  0  0  0  0  0
    1.3771   16.7165   -4.4335 H   0  0  0  0  0  0  0  0  0  0  0  0
    0.3953   14.0812   -4.9422 H   0  0  0  0  0  0  0  0  0  0  0  0
    2.0800   14.4560   -4.5899 H   0  0  0  0  0  0  0  0  0  0  0  0
   -0.9187   13.5229   -1.6362 H   0  0  0  0  0  0  0  0  0  0  0  0
   -1.2095   14.3807   -3.1873 H   0  0  0  0  0  0  0  0  0  0  0  0
   -0.8586   12.6191   -3.1873 H   0  0  0  0  0  0  0  0  0  0  0  0
    2.7642   12.9490   -2.8222 H   0  0  0  0  0  0  0  0  0  0  0  0
    1.1233   11.8206   -4.4587 H   0  0  0  0  0  0  0  0  0  0  0  0
    2.3906   10.8396   -3.5531 H   0  0  0  0  0  0  0  0  0  0  0  0
   -0.0068    9.7623   -3.7334 H   0  0  0  0  0  0  0  0  0  0  0  0
   -0.2138   12.0428   -0.4067 H   0  0  0  0  0  0  0  0  0  0  0  0
    1.5938    9.6794    0.3948 H   0  0  0  0  0  0  0  0  0  0  0  0
    1.1037   11.0843    1.4419 H   0  0  0  0  0  0  0  0  0  0  0  0
   -0.1852    9.0375    1.9596 H   0  0  0  0  0  0  0  0  0  0  0  0
   -1.2192   10.3860    1.3439 H   0  0  0  0  0  0  0  0  0  0  0  0
   -1.9301    8.3369    0.3167 H   0  0  0  0  0  0  0  0  0  0  0  0
    0.5670    7.6610    0.5070 H   0  0  0  0  0  0  0  0  0  0  0  0
   -2.6890   10.5700   -0.0872 H   0  0  0  0  0  0  0  0  0  0  0  0
   -2.3060   11.4038   -1.6315 H   0  0  0  0  0  0  0  0  0  0  0  0
   -3.3740    9.9595   -1.6315 H   0  0  0  0  0  0  0  0  0  0  0  0
   -2.0001    7.5469   -1.9342 H   0  0  0  0  0  0  0  0  0  0  0  0
   -2.4609    8.8739   -3.0538 H   0  0  0  0  0  0  0  0  0  0  0  0
   -0.7794    8.2421   -3.0538 H   0  0  0  0  0  0  0  0  0  0  0  0
    3.3212   11.1819    0.1990 H   0  0  0  0  0  0  0  0  0  0  0  0
    2.9812   10.3333   -1.3472 H   0  0  0  0  0  0  0  0  0  0  0  0
    3.9488   11.8468   -1.3472 H   0  0  0  0  0  0  0  0  0  0  0  0
    1.5718   13.0419    0.9300 H   0  0  0  0  0  0  0  0  0  0  0  0
    2.9856   13.6673   -0.0917 H   0  0  0  0  0  0  0  0  0  0  0  0
    0.0676   14.4611   -0.2910 H   0  0  0  0  0  0  0  0  0  0  0  0
    1.4787   15.4678    0.2218 H   0  0  0  0  0  0  0  0  0  0  0  0
    3.3738   15.4743   -1.0310 H   0  0  0  0  0  0  0  0  0  0  0  0
    3.4259   14.5663   -2.5801 H   0  0  0  0  0  0  0  0  0  0  0  0
    3.0424   16.3212   -2.5801 H   0  0  0  0  0  0  0  0  0  0  0  0
  1  2  1  0
  2  3  1  0
  3  4  1  0
  4  5  1  0
  5  6  1  0
  6  7  1  0
  7  8  1  0
  7  9  1  0
  2 10  1  0
 10 11  1  0
 11 12  1  0
 12 13  1  0
 13 14  1  1
 13 15  1  0
 15 16  1  0
 16 17  1  0
 17 18  2  0
 18 19  1  0
 19 20  1  0
 20 21  1  0
 21 22  1  0
 22 23  1  0
 22 24  1  0
 24 25  1  0
 24 26  1  0
 19 27  1  0
 27 28  1  6
 27 29  1  0
 29 30  1  0
 30 31  1  0
 31 32  1  1
  7  5  1  0
 31 10  1  0
 31 13  1  0
 27 15  1  0
 24 18  1  0
  1 33  1  0
  1 34  1  0
  1 35  1  0
  2 36  1  6
  3 37  1  0
  3 38  1  0
  4 39  1  0
  4 40  1  0
  5 41  1  1
  8 42  1  0
  8 43  1  0
  8 44  1  0
  9 45  1  0
  9 46  1  0
  9 47  1  0
 10 48  1  1
 11 49  1  0
 11 50  1  0
 12 51  1  0
 12 52  1  0
 14 53  1  0
 14 54  1  0
 14 55  1  0
 15 56  1  6
 16 57  1  0
 16 58  1  0
 17 59  1  0
 19 60  1  1
 20 61  1  0
 20 62  1  0
 21 63  1  0
 21 64  1  0
 22 65  1  1
 23 66  1  0
 25 67  1  0
 25 68  1  0
 25 69  1  0
 26 70  1  0
 26 71  1  0
 26 72  1  0
 28 73  1  0
 28 74  1  0
 28 75  1  0
 29 76  1  0
 29 77  1  0
 30 78  1  0
 30 79  1  0
 32 80  1  0
 32 81  1  0
 32 82  1  0
M  END
>  <meeko>  (6) 
{"is_sidechain": [false], "intermolecular_energy": 2.731, "internal_energy": -0.839}

$$$$
EPH_relaxed_0001_pdb2pqr_Repair_400_r2_0001_out
     RDKit          3D

 82 86  0  0  0  0  0  0  0  0999 V2000
    0.4020   18.4410   -0.0750 C   0  0  0  0  0  0  0  0  0  0  0  0
    1.4820   17.3700   -0.2600 C   0  0  2  0  0  0  0  0  0  0  0  0
    2.7130   17.9110   -1.0140 C   0  0  0  0  0  0  0  0  0  0  0  0
    3.9440   18.1040   -0.1240 C   0  0  0  0  0  0  0  0  0  0  0  0
    3.5680   18.5800    1.2470 C   0  0  2  0  0  0  0  0  0  0  0  0
    3.7930   19.9760    1.4790 O   0  0  0  0  0  0  0  0  0  0  0  0
    4.5770   19.0680    2.2690 C   0  0  0  0  0  0  0  0  0  0  0  0
    6.0420   19.1050    1.9640 C   0  0  0  0  0  0  0  0  0  0  0  0
    4.1970   19.0460    3.7170 C   0  0  0  0  0  0  0  0  0  0  0  0
    0.9020   16.1710   -1.0010 C   0  0  1  0  0  0  0  0  0  0  0  0
    0.7570   16.4240   -2.5250 C   0  0  0  0  0  0  0  0  0  0  0  0
    1.0420   15.0730   -3.2320 C   0  0  0  0  0  0  0  0  0  0  0  0
    1.0130   14.0250   -2.0950 C   0  0  1  0  0  0  0  0  0  0  0  0
   -0.5010   13.7270   -1.8620 C   0  0  0  0  0  0  0  0  0  0  0  0
    1.8270   12.7140   -2.3440 C   0  0  2  0  0  0  0  0  0  0  0  0
    1.3470   11.8630   -3.5330 C   0  0  0  0  0  0  0  0  0  0  0  0
    0.3200   10.8300   -3.2040 C   0  0  0  0  0  0  0  0  0  0  0  0
    0.0120   10.4000   -1.9660 C   0  0  0  0  0  0  0  0  0  0  0  0
    0.7950   10.8940   -0.7430 C   0  0  1  0  0  0  0  0  0  0  0  0
    1.1630    9.6860    0.1590 C   0  0  0  0  0  0  0  0  0  0  0  0
   -0.0550    8.8510    0.5430 C   0  0  0  0  0  0  0  0  0  0  0  0
   -0.7730    8.3300   -0.6990 C   0  0  2  0  0  0  0  0  0  0  0  0
    0.0790    7.3930   -1.3640 O   0  0  0  0  0  0  0  0  0  0  0  0
   -1.1840    9.4560   -1.6870 C   0  0  0  0  0  0  0  0  0  0  0  0
   -2.3310   10.2950   -1.0720 C   0  0  0  0  0  0  0  0  0  0  0  0
   -1.7700    8.7860   -2.9590 C   0  0  0  0  0  0  0  0  0  0  0  0
    2.0430   11.8290   -1.0500 C   0  0  1  0  0  0  0  0  0  0  0  0
    3.3090   10.9570   -1.3120 C   0  0  0  0  0  0  0  0  0  0  0  0
    2.3590   12.6990    0.2240 C   0  0  0  0  0  0  0  0  0  0  0  0
    1.6110   14.0390    0.3530 C   0  0  0  0  0  0  0  0  0  0  0  0
    1.7040   14.8460   -0.9460 C   0  0  2  0  0  0  0  0  0  0  0  0
    3.2140   15.1790   -1.1950 C   0  0  0  0  0  0  0  0  0  0  0  0
    0.2325   18.6091    0.9988 H   0  0  0  0  0  0  0  0  0  0  0  0
    0.7315   19.3791   -0.5455 H   0  0  0  0  0  0  0  0  0  0  0  0
   -0.5333   18.1036   -0.5455 H   0  0  0  0  0  0  0  0  0  0  0  0
    1.8181   17.0616    0.7410 H   0  0  0  0  0  0  0  0  0  0  0  0
    2.9704   17.2007   -1.8135 H   0  0  0  0  0  0  0  0  0  0  0  0
    2.4404   18.9023   -1.4051 H   0  0  0  0  0  0  0  0  0  0  0  0
    4.4737   17.1440   -0.0352 H   0  0  0  0  0  0  0  0  0  0  0  0
    4.5862   18.8672   -0.5878 H   0  0  0  0  0  0  0  0  0  0  0  0
    2.7564   17.8399    1.3066 H   0  0  0  0  0  0  0  0  0  0  0  0
    6.6121   19.1194    2.9046 H   0  0  0  0  0  0  0  0  0  0  0  0
    6.3179   18.2135    1.3816 H   0  0  0  0  0  0  0  0  0  0  0  0
    6.2726   20.0093    1.3816 H   0  0  0  0  0  0  0  0  0  0  0  0
    5.1053   19.0986    4.3353 H   0  0  0  0  0  0  0  0  0  0  0  0
    3.5514   19.9083    3.9398 H   0  0  0  0  0  0  0  0  0  0  0  0
    3.6552   18.1150    3.9398 H   0  0  0  0  0  0  0  0  0  0  0  0
   -0.0477   16.0591   -0.4574 H   0  0  0  0  0  0  0  0  0  0  0  0
   -0.2627   16.7653   -2.7570 H   0  0  0  0  0  0  0  0  0  0  0  0
    1.4560   17.2026   -2.8644 H   0  0  0  0  0  0  0  0  0  0  0  0
    0.2663   14.8552   -3.9809 H   0  0  0  0  0  0  0  0  0  0  0  0
    2.0009   15.0779   -3.7709 H   0  0  0  0  0  0  0  0  0  0  0  0
   -0.7048   13.6869   -0.7818 H   0  0  0  0  0  0  0  0  0  0  0  0
   -1.1062   14.5233   -2.3200 H   0  0  0  0  0  0  0  0  0  0  0  0
   -0.7592   12.7608   -2.3200 H   0  0  0  0  0  0  0  0  0  0  0  0
    2.8146   13.1020   -2.6339 H   0  0  0  0  0  0  0  0  0  0  0  0
    0.9181   12.5412   -4.2854 H   0  0  0  0  0  0  0  0  0  0  0  0
    2.2299   11.3120   -3.8892 H   0  0  0  0  0  0  0  0  0  0  0  0
   -0.2314   10.3827   -4.0441 H   0  0  0  0  0  0  0  0  0  0  0  0
    0.1180   11.5713   -0.2018 H   0  0  0  0  0  0  0  0  0  0  0  0
    1.8737    9.0447   -0.3829 H   0  0  0  0  0  0  0  0  0  0  0  0
    1.6020   10.0828    1.0863 H   0  0  0  0  0  0  0  0  0  0  0  0
    0.2722    7.9971    1.1544 H   0  0  0  0  0  0  0  0  0  0  0  0
   -0.7512    9.4861    1.1104 H   0  0  0  0  0  0  0  0  0  0  0  0
   -1.7055    7.8516   -0.3649 H   0  0  0  0  0  0  0  0  0  0  0  0
    0.7050    7.9000   -1.9090 H   0  0  0  0  0  0  0  0  0  0  0  0
   -2.2701   10.2505    0.0254 H   0  0  0  0  0  0  0  0  0  0  0  0
   -2.2386   11.3402   -1.4023 H   0  0  0  0  0  0  0  0  0  0  0  0
   -3.2991    9.8903   -1.4023 H   0  0  0  0  0  0  0  0  0  0  0  0
   -2.4678    7.9882   -2.6648 H   0  0  0  0  0  0  0  0  0  0  0  0
   -2.3047    9.5388   -3.5567 H   0  0  0  0  0  0  0  0  0  0  0  0
   -0.9527    8.3563   -3.5567 H   0  0  0  0  0  0  0  0  0  0  0  0
    3.7502   10.6531   -0.3513 H   0  0  0  0  0  0  0  0  0  0  0  0
    3.0255   10.0617   -1.8848 H   0  0  0  0  0  0  0  0  0  0  0  0
    4.0444   11.5410   -1.8848 H   0  0  0  0  0  0  0  0  0  0  0  0
    2.1132   12.0942    1.1093 H   0  0  0  0  0  0  0  0  0  0  0  0
    3.4210   12.9701    0.1311 H   0  0  0  0  0  0  0  0  0  0  0  0
    0.5528   13.8402    0.5782 H   0  0  0  0  0  0  0  0  0  0  0  0
    2.0738   14.6226    1.1625 H   0  0  0  0  0  0  0  0  0  0  0  0
    3.7285   15.2925   -0.2294 H   0  0  0  0  0  0  0  0  0  0  0  0
    3.6804   14.3621   -1.7652 H   0  0  0  0  0  0  0  0  0  0  0  0
    3.2936   16.1163   -1.7652 H   0  0  0  0  0  0  0  0  0  0  0  0
  1  2  1  0
  2  3  1  0
  3  4  1  0
  4  5  1  0
  5  6  1  0
  6  7  1  0
  7  8  1  0
  7  9  1  0
  2 10  1  0
 10 11  1  0
 11 12  1  0
 12 13  1  0
 13 14  1  1
 13 15  1  0
 15 16  1  0
 16 17  1  0
 17 18  2  0
 18 19  1  0
 19 20  1  0
 20 21  1  0
 21 22  1  0
 22 23  1  0
 22 24  1  0
 24 25  1  0
 24 26  1  0
 19 27  1  0
 27 28  1  6
 27 29  1  0
 29 30  1  0
 30 31  1  0
 31 32  1  6
  7  5  1  0
 31 10  1  0
 31 13  1  0
 27 15  1  0
 24 18  1  0
  1 33  1  0
  1 34  1  0
  1 35  1  0
  2 36  1  1
  3 37  1  0
  3 38  1  0
  4 39  1  0
  4 40  1  0
  5 41  1  1
  8 42  1  0
  8 43  1  0
  8 44  1  0
  9 45  1  0
  9 46  1  0
  9 47  1  0
 10 48  1  1
 11 49  1  0
 11 50  1  0
 12 51  1  0
 12 52  1  0
 14 53  1  0
 14 54  1  0
 14 55  1  0
 15 56  1  6
 16 57  1  0
 16 58  1  0
 17 59  1  0
 19 60  1  1
 20 61  1  0
 20 62  1  0
 21 63  1  0
 21 64  1  0
 22 65  1  1
 23 66  1  0
 25 67  1  0
 25 68  1  0
 25 69  1  0
 26 70  1  0
 26 71  1  0
 26 72  1  0
 28 73  1  0
 28 74  1  0
 28 75  1  0
 29 76  1  0
 29 77  1  0
 30 78  1  0
 30 79  1  0
 32 80  1  0
 32 81  1  0
 32 82  1  0
M  END
>  <meeko>  (7) 
{"is_sidechain": [false], "intermolecular_energy": 2.731, "internal_energy": -0.839}

$$$$
EPH_relaxed_0001_pdb2pqr_Repair_400_r2_0001_out
     RDKit          3D

 82 86  0  0  0  0  0  0  0  0999 V2000
   -0.2100   14.5670   -4.2610 C   0  0  0  0  0  0  0  0  0  0  0  0
    1.1850   13.9350   -4.2220 C   0  0  2  0  0  0  0  0  0  0  0  0
    1.2760   12.6740   -5.1030 C   0  0  0  0  0  0  0  0  0  0  0  0
    2.6630   12.4450   -5.7090 C   0  0  0  0  0  0  0  0  0  0  0  0
    3.3430   11.2550   -5.1030 C   0  0  2  0  0  0  0  0  0  0  0  0
    3.8410   11.4620   -3.7750 O   0  0  0  0  0  0  0  0  0  0  0  0
    4.8270   11.2090   -4.7890 C   0  0  0  0  0  0  0  0  0  0  0  0
    5.7210   12.3750   -5.0730 C   0  0  0  0  0  0  0  0  0  0  0  0
    5.4910    9.8730   -4.6650 C   0  0  0  0  0  0  0  0  0  0  0  0
    1.5610   13.5950   -2.7840 C   0  0  1  0  0  0  0  0  0  0  0  0
    1.4300   14.8110   -1.8290 C   0  0  0  0  0  0  0  0  0  0  0  0
    0.9580   14.2560   -0.4600 C   0  0  0  0  0  0  0  0  0  0  0  0
    1.1510   12.7250   -0.5730 C   0  0  1  0  0  0  0  0  0  0  0  0
    2.6670   12.4900   -0.2870 C   0  0  0  0  0  0  0  0  0  0  0  0
    0.2460   11.8450    0.3500 C   0  0  2  0  0  0  0  0  0  0  0  0
    0.4580   12.0520    1.8600 C   0  0  0  0  0  0  0  0  0  0  0  0
    1.4790   11.1630    2.4880 C   0  0  0  0  0  0  0  0  0  0  0  0
    1.9940   10.0490    1.9350 C   0  0  0  0  0  0  0  0  0  0  0  0
    1.4760    9.5270    0.5880 C   0  0  1  0  0  0  0  0  0  0  0  0
    1.2290    7.9990    0.6850 C   0  0  0  0  0  0  0  0  0  0  0  0
    2.4580    7.2370    1.1720 C   0  0  0  0  0  0  0  0  0  0  0  0
    2.9070    7.7450    2.5400 C   0  0  2  0  0  0  0  0  0  0  0  0
    1.9040    7.4160    3.5060 O   0  0  0  0  0  0  0  0  0  0  0  0
    3.1770    9.2760    2.5670 C   0  0  0  0  0  0  0  0  0  0  0  0
    4.4560    9.5930    1.7530 C   0  0  0  0  0  0  0  0  0  0  0  0
    3.4850    9.6800    4.0340 C   0  0  0  0  0  0  0  0  0  0  0  0
    0.2360   10.3080   -0.0280 C   0  0  1  0  0  0  0  0  0  0  0  0
   -1.0950    9.7210    0.5340 C   0  0  0  0  0  0  0  0  0  0  0  0
    0.2030   10.0740   -1.5840 C   0  0  0  0  0  0  0  0  0  0  0  0
    1.0220   11.0500   -2.4510 C   0  0  0  0  0  0  0  0  0  0  0  0
    0.7250   12.5040   -2.0700 C   0  0  2  0  0  0  0  0  0  0  0  0
   -0.7890   12.7760   -2.3680 C   0  0  0  0  0  0  0  0  0  0  0  0
   -0.5679   14.7292   -3.2336 H   0  0  0  0  0  0  0  0  0  0  0  0
   -0.1612   15.5309   -4.7887 H   0  0  0  0  0  0  0  0  0  0  0  0
   -0.9025   13.8947   -4.7887 H   0  0  0  0  0  0  0  0  0  0  0  0
    1.8940   14.6719   -4.6274 H   0  0  0  0  0  0  0  0  0  0  0  0
    1.0179   11.8003   -4.4865 H   0  0  0  0  0  0  0  0  0  0  0  0
    0.5786   12.8169   -5.9416 H   0  0  0  0  0  0  0  0  0  0  0  0
    2.5565   12.2818   -6.7916 H   0  0  0  0  0  0  0  0  0  0  0  0
    3.2782   13.3333   -5.5029 H   0  0  0  0  0  0  0  0  0  0  0  0
    2.6839   10.5682   -5.6543 H   0  0  0  0  0  0  0  0  0  0  0  0
    6.0598   12.8169   -4.1243 H   0  0  0  0  0  0  0  0  0  0  0  0
    6.5929   12.0361   -5.6517 H   0  0  0  0  0  0  0  0  0  0  0  0
    5.1674   13.1291   -5.6517 H   0  0  0  0  0  0  0  0  0  0  0  0
    5.6154    9.6227   -3.6011 H   0  0  0  0  0  0  0  0  0  0  0  0
    4.8685    9.1076   -5.1514 H   0  0  0  0  0  0  0  0  0  0  0  0
    6.4770    9.9071   -5.1514 H   0  0  0  0  0  0  0  0  0  0  0  0
    2.5895   13.2380   -2.9415 H   0  0  0  0  0  0  0  0  0  0  0  0
    2.4026   15.3130   -1.7193 H   0  0  0  0  0  0  0  0  0  0  0  0
    0.7154   15.5481   -2.2239 H   0  0  0  0  0  0  0  0  0  0  0  0
    1.5701   14.6655    0.3571 H   0  0  0  0  0  0  0  0  0  0  0  0
   -0.0833   14.5300   -0.2350 H   0  0  0  0  0  0  0  0  0  0  0  0
    2.8354   12.4639    0.7997 H   0  0  0  0  0  0  0  0  0  0  0  0
    2.9795   11.5327   -0.7296 H   0  0  0  0  0  0  0  0  0  0  0  0
    3.2547   13.3078   -0.7296 H   0  0  0  0  0  0  0  0  0  0  0  0
   -0.7604   12.2330    0.1343 H   0  0  0  0  0  0  0  0  0  0  0  0
    0.7707   13.0945    2.0196 H   0  0  0  0  0  0  0  0  0  0  0  0
   -0.4999   11.8012    2.3390 H   0  0  0  0  0  0  0  0  0  0  0  0
    1.8417   11.4419    3.4883 H   0  0  0  0  0  0  0  0  0  0  0  0
    2.2721    9.7305   -0.1433 H   0  0  0  0  0  0  0  0  0  0  0  0
    0.4017    7.8195    1.3874 H   0  0  0  0  0  0  0  0  0  0  0  0
    0.9891    7.6349   -0.3249 H   0  0  0  0  0  0  0  0  0  0  0  0
    2.2120    6.1675    1.2479 H   0  0  0  0  0  0  0  0  0  0  0  0
    3.2760    7.3930    0.4533 H   0  0  0  0  0  0  0  0  0  0  0  0
    3.8625    7.2541    2.7767 H   0  0  0  0  0  0  0  0  0  0  0  0
    2.1330    6.5500    3.8840 H   0  0  0  0  0  0  0  0  0  0  0  0
    5.2878    9.7992    2.4426 H   0  0  0  0  0  0  0  0  0  0  0  0
    4.7103    8.7307    1.1191 H   0  0  0  0  0  0  0  0  0  0  0  0
    4.2782   10.4743    1.1191 H   0  0  0  0  0  0  0  0  0  0  0  0
    2.9636    8.9961    4.7198 H   0  0  0  0  0  0  0  0  0  0  0  0
    4.5691    9.6206    4.2108 H   0  0  0  0  0  0  0  0  0  0  0  0
    3.1406   10.7096    4.2108 H   0  0  0  0  0  0  0  0  0  0  0  0
   -1.0660    9.7338    1.6335 H   0  0  0  0  0  0  0  0  0  0  0  0
   -1.9414   10.3294    0.1824 H   0  0  0  0  0  0  0  0  0  0  0  0
   -1.2165    8.6858    0.1824 H   0  0  0  0  0  0  0  0  0  0  0  0
    0.5824    9.0595   -1.7761 H   0  0  0  0  0  0  0  0  0  0  0  0
   -0.8444   10.2377   -1.8775 H   0  0  0  0  0  0  0  0  0  0  0  0
    2.0936   10.8508   -2.3025 H   0  0  0  0  0  0  0  0  0  0  0  0
    0.7448   10.9001   -3.5049 H   0  0  0  0  0  0  0  0  0  0  0  0
   -1.3374   12.8745   -1.4196 H   0  0  0  0  0  0  0  0  0  0  0  0
   -0.8874   13.7062   -2.9468 H   0  0  0  0  0  0  0  0  0  0  0  0
   -1.2050   11.9382   -2.9468 H   0  0  0  0  0  0  0  0  0  0  0  0
  1  2  1  0
  2  3  1  0
  3  4  1  0
  4  5  1  0
  5  6  1  0
  6  7  1  0
  7  8  1  0
  7  9  1  0
  2 10  1  0
 10 11  1  0
 11 12  1  0
 12 13  1  0
 13 14  1  6
 13 15  1  0
 15 16  1  0
 16 17  1  0
 17 18  2  0
 18 19  1  0
 19 20  1  0
 20 21  1  0
 21 22  1  0
 22 23  1  0
 22 24  1  0
 24 25  1  0
 24 26  1  0
 19 27  1  0
 27 28  1  1
 27 29  1  0
 29 30  1  0
 30 31  1  0
 31 32  1  1
  7  5  1  0
 31 10  1  0
 31 13  1  0
 27 15  1  0
 24 18  1  0
  1 33  1  0
  1 34  1  0
  1 35  1  0
  2 36  1  6
  3 37  1  0
  3 38  1  0
  4 39  1  0
  4 40  1  0
  5 41  1  1
  8 42  1  0
  8 43  1  0
  8 44  1  0
  9 45  1  0
  9 46  1  0
  9 47  1  0
 10 48  1  6
 11 49  1  0
 11 50  1  0
 12 51  1  0
 12 52  1  0
 14 53  1  0
 14 54  1  0
 14 55  1  0
 15 56  1  6
 16 57  1  0
 16 58  1  0
 17 59  1  0
 19 60  1  6
 20 61  1  0
 20 62  1  0
 21 63  1  0
 21 64  1  0
 22 65  1  1
 23 66  1  0
 25 67  1  0
 25 68  1  0
 25 69  1  0
 26 70  1  0
 26 71  1  0
 26 72  1  0
 28 73  1  0
 28 74  1  0
 28 75  1  0
 29 76  1  0
 29 77  1  0
 30 78  1  0
 30 79  1  0
 32 80  1  0
 32 81  1  0
 32 82  1  0
M  END
>  <meeko>  (8) 
{"is_sidechain": [false], "intermolecular_energy": 2.731, "internal_energy": -0.839}

$$$$
EPH_relaxed_0001_pdb2pqr_Repair_400_r2_0001_out
     RDKit          3D

 82 86  0  0  0  0  0  0  0  0999 V2000
    2.3550   12.3670   -5.1290 C   0  0  0  0  0  0  0  0  0  0  0  0
    1.0020   13.0270   -4.8520 C   0  0  2  0  0  0  0  0  0  0  0  0
    0.9570   14.4890   -5.3400 C   0  0  0  0  0  0  0  0  0  0  0  0
    0.4280   15.4710   -4.2920 C   0  0  0  0  0  0  0  0  0  0  0  0
    1.5400   16.0880   -3.4980 C   0  0  2  0  0  0  0  0  0  0  0  0
    1.3820   15.9970   -2.0760 O   0  0  0  0  0  0  0  0  0  0  0  0
    1.3660   17.3220   -2.6330 C   0  0  0  0  0  0  0  0  0  0  0  0
    0.0440   18.0140   -2.5180 C   0  0  0  0  0  0  0  0  0  0  0  0
    2.5770   18.1330   -2.2920 C   0  0  0  0  0  0  0  0  0  0  0  0
    0.6890   12.9650   -3.3620 C   0  0  1  0  0  0  0  0  0  0  0  0
   -0.7630   13.4080   -3.0370 C   0  0  0  0  0  0  0  0  0  0  0  0
   -1.2400   12.5370   -1.8460 C   0  0  0  0  0  0  0  0  0  0  0  0
    0.0470   11.8650   -1.3140 C   0  0  1  0  0  0  0  0  0  0  0  0
    0.7230   12.9480   -0.4150 C   0  0  0  0  0  0  0  0  0  0  0  0
   -0.1440   10.5160   -0.5470 C   0  0  2  0  0  0  0  0  0  0  0  0
   -0.9740   10.6120    0.7450 C   0  0  0  0  0  0  0  0  0  0  0  0
   -0.1920   10.8830    1.9870 C   0  0  0  0  0  0  0  0  0  0  0  0
    1.1430   10.7620    2.1130 C   0  0  0  0  0  0  0  0  0  0  0  0
    1.9970   10.2190    0.9600 C   0  0  1  0  0  0  0  0  0  0  0  0
    2.9890    9.1590    1.5050 C   0  0  0  0  0  0  0  0  0  0  0  0
    3.8360    9.6880    2.6580 C   0  0  0  0  0  0  0  0  0  0  0  0
    2.9530   10.1650    3.8090 C   0  0  2  0  0  0  0  0  0  0  0  0
    2.2850    9.0330    4.3760 O   0  0  0  0  0  0  0  0  0  0  0  0
    1.9050   11.2290    3.3770 C   0  0  0  0  0  0  0  0  0  0  0  0
    2.6230   12.5610    3.0480 C   0  0  0  0  0  0  0  0  0  0  0  0
    0.9890   11.5190    4.5970 C   0  0  0  0  0  0  0  0  0  0  0  0
    1.1960    9.7070   -0.3140 C   0  0  1  0  0  0  0  0  0  0  0  0
    0.7870    8.2150   -0.1220 C   0  0  0  0  0  0  0  0  0  0  0  0
    2.1460    9.7490   -1.5690 C   0  0  0  0  0  0  0  0  0  0  0  0
    2.2000   11.0730   -2.3550 C   0  0  0  0  0  0  0  0  0  0  0  0
    0.7900   11.5830   -2.6700 C   0  0  2  0  0  0  0  0  0  0  0  0
    0.0940   10.5240   -3.5910 C   0  0  0  0  0  0  0  0  0  0  0  0
    2.8478   12.1266   -4.1754 H   0  0  0  0  0  0  0  0  0  0  0  0
    2.2010   11.4428   -5.7053 H   0  0  0  0  0  0  0  0  0  0  0  0
    2.9885   13.0573   -5.7053 H   0  0  0  0  0  0  0  0  0  0  0  0
    0.2403   12.4683   -5.4155 H   0  0  0  0  0  0  0  0  0  0  0  0
    1.9766   14.7939   -5.6183 H   0  0  0  0  0  0  0  0  0  0  0  0
    0.2619   14.5225   -6.1919 H   0  0  0  0  0  0  0  0  0  0  0  0
   -0.1313   16.2693   -4.8019 H   0  0  0  0  0  0  0  0  0  0  0  0
   -0.2207   14.9156   -3.5987 H   0  0  0  0  0  0  0  0  0  0  0  0
    2.2711   15.8320   -4.2790 H   0  0  0  0  0  0  0  0  0  0  0  0
   -0.2093   18.1466   -1.4558 H   0  0  0  0  0  0  0  0  0  0  0  0
    0.1013   18.9977   -3.0068 H   0  0  0  0  0  0  0  0  0  0  0  0
   -0.7317   17.4063   -3.0068 H   0  0  0  0  0  0  0  0  0  0  0  0
    2.6773   18.2002   -1.1986 H   0  0  0  0  0  0  0  0  0  0  0  0
    3.4716   17.6511   -2.7134 H   0  0  0  0  0  0  0  0  0  0  0  0
    2.4720   19.1437   -2.7134 H   0  0  0  0  0  0  0  0  0  0  0  0
    1.4747   13.6343   -2.9817 H   0  0  0  0  0  0  0  0  0  0  0  0
   -0.7813   14.4722   -2.7593 H   0  0  0  0  0  0  0  0  0  0  0  0
   -1.4203   13.2785   -3.9095 H   0  0  0  0  0  0  0  0  0  0  0  0
   -1.7016   13.1626   -1.0678 H   0  0  0  0  0  0  0  0  0  0  0  0
   -2.0013   11.8017   -2.1456 H   0  0  0  0  0  0  0  0  0  0  0  0
    0.5656   12.6958    0.6441 H   0  0  0  0  0  0  0  0  0  0  0  0
    1.8017   12.9800   -0.6279 H   0  0  0  0  0  0  0  0  0  0  0  0
    0.2779   13.9312   -0.6279 H   0  0  0  0  0  0  0  0  0  0  0  0
   -0.7528    9.9292   -1.2506 H   0  0  0  0  0  0  0  0  0  0  0  0
   -1.7050   11.4244    0.6197 H   0  0  0  0  0  0  0  0  0  0  0  0
   -1.4340    9.6227    0.8851 H   0  0  0  0  0  0  0  0  0  0  0  0
   -0.7539   11.2092    2.8746 H   0  0  0  0  0  0  0  0  0  0  0  0
    2.5532   11.0803    0.5615 H   0  0  0  0  0  0  0  0  0  0  0  0
    2.4162    8.2890    1.8586 H   0  0  0  0  0  0  0  0  0  0  0  0
    3.6718    8.8888    0.6860 H   0  0  0  0  0  0  0  0  0  0  0  0
    4.4951    8.8846    3.0188 H   0  0  0  0  0  0  0  0  0  0  0  0
    4.4308   10.5393    2.2953 H   0  0  0  0  0  0  0  0  0  0  0  0
    3.6068   10.6517    4.5476 H   0  0  0  0  0  0  0  0  0  0  0  0
    2.1520    9.2140    5.3220 H   0  0  0  0  0  0  0  0  0  0  0  0
    2.8976   13.0703    3.9835 H   0  0  0  0  0  0  0  0  0  0  0  0
    3.5313   12.3533    2.4634 H   0  0  0  0  0  0  0  0  0  0  0  0
    1.9501   13.2056    2.4634 H   0  0  0  0  0  0  0  0  0  0  0  0
    1.5495   11.3416    5.5267 H   0  0  0  0  0  0  0  0  0  0  0  0
    0.6554   12.5667    4.5642 H   0  0  0  0  0  0  0  0  0  0  0  0
    0.1133   10.8542    4.5642 H   0  0  0  0  0  0  0  0  0  0  0  0
    0.7246    7.9873    0.9524 H   0  0  0  0  0  0  0  0  0  0  0  0
   -0.1923    8.0399   -0.5914 H   0  0  0  0  0  0  0  0  0  0  0  0
    1.5401    7.5650   -0.5914 H   0  0  0  0  0  0  0  0  0  0  0  0
    3.1658    9.5260   -1.2221 H   0  0  0  0  0  0  0  0  0  0  0  0
    1.7273    9.0137   -2.2719 H   0  0  0  0  0  0  0  0  0  0  0  0
    2.7291   11.8269   -1.7536 H   0  0  0  0  0  0  0  0  0  0  0  0
    2.7284   10.8960   -3.3034 H   0  0  0  0  0  0  0  0  0  0  0  0
   -0.4038    9.7666   -2.9676 H   0  0  0  0  0  0  0  0  0  0  0  0
   -0.6520   11.0242   -4.2260 H   0  0  0  0  0  0  0  0  0  0  0  0
    0.8491   10.0376   -4.2260 H   0  0  0  0  0  0  0  0  0  0  0  0
  1  2  1  0
  2  3  1  0
  3  4  1  0
  4  5  1  0
  5  6  1  0
  6  7  1  0
  7  8  1  0
  7  9  1  0
  2 10  1  0
 10 11  1  0
 11 12  1  0
 12 13  1  0
 13 14  1  1
 13 15  1  0
 15 16  1  0
 16 17  1  0
 17 18  2  0
 18 19  1  0
 19 20  1  0
 20 21  1  0
 21 22  1  0
 22 23  1  0
 22 24  1  0
 24 25  1  0
 24 26  1  0
 19 27  1  0
 27 28  1  1
 27 29  1  0
 29 30  1  0
 30 31  1  0
 31 32  1  6
  7  5  1  0
 31 10  1  0
 31 13  1  0
 27 15  1  0
 24 18  1  0
  1 33  1  0
  1 34  1  0
  1 35  1  0
  2 36  1  6
  3 37  1  0
  3 38  1  0
  4 39  1  0
  4 40  1  0
  5 41  1  6
  8 42  1  0
  8 43  1  0
  8 44  1  0
  9 45  1  0
  9 46  1  0
  9 47  1  0
 10 48  1  1
 11 49  1  0
 11 50  1  0
 12 51  1  0
 12 52  1  0
 14 53  1  0
 14 54  1  0
 14 55  1  0
 15 56  1  6
 16 57  1  0
 16 58  1  0
 17 59  1  0
 19 60  1  6
 20 61  1  0
 20 62  1  0
 21 63  1  0
 21 64  1  0
 22 65  1  1
 23 66  1  0
 25 67  1  0
 25 68  1  0
 25 69  1  0
 26 70  1  0
 26 71  1  0
 26 72  1  0
 28 73  1  0
 28 74  1  0
 28 75  1  0
 29 76  1  0
 29 77  1  0
 30 78  1  0
 30 79  1  0
 32 80  1  0
 32 81  1  0
 32 82  1  0
M  END
>  <meeko>  (9) 
{"is_sidechain": [false], "intermolecular_energy": 2.731, "internal_energy": -0.839}

$$$$
EPH_relaxed_0001_pdb2pqr_Repair_400_r2_0001_out
     RDKit          3D

 82 86  0  0  0  0  0  0  0  0999 V2000
   -2.0860   10.1940   -0.8050 C   0  0  0  0  0  0  0  0  0  0  0  0
   -0.5570   10.2530   -0.7580 C   0  0  2  0  0  0  0  0  0  0  0  0
    0.0410    9.1310    0.1150 C   0  0  0  0  0  0  0  0  0  0  0  0
    1.5470    8.9350   -0.0810 C   0  0  0  0  0  0  0  0  0  0  0  0
    2.3300    9.4520    1.0880 C   0  0  2  0  0  0  0  0  0  0  0  0
    3.7470    9.2560    0.9930 O   0  0  0  0  0  0  0  0  0  0  0  0
    3.0800    8.5540    2.0550 C   0  0  0  0  0  0  0  0  0  0  0  0
    3.0830    7.0660    1.8960 C   0  0  0  0  0  0  0  0  0  0  0  0
    3.3990    9.0810    3.4190 C   0  0  0  0  0  0  0  0  0  0  0  0
   -0.1050   11.6130   -0.2390 C   0  0  1  0  0  0  0  0  0  0  0  0
    1.0160   11.5040    0.8290 C   0  0  0  0  0  0  0  0  0  0  0  0
    1.9470   12.7260    0.6260 C   0  0  0  0  0  0  0  0  0  0  0  0
    1.1600   13.6650   -0.3170 C   0  0  1  0  0  0  0  0  0  0  0  0
    0.1600   14.4220    0.6130 C   0  0  0  0  0  0  0  0  0  0  0  0
    2.0120   14.6550   -1.1760 C   0  0  2  0  0  0  0  0  0  0  0  0
    2.8320   15.6780   -0.3710 C   0  0  0  0  0  0  0  0  0  0  0  0
    2.1370   16.9670   -0.0830 C   0  0  0  0  0  0  0  0  0  0  0  0
    1.0200   17.4060   -0.6910 C   0  0  0  0  0  0  0  0  0  0  0  0
    0.3940   16.6210   -1.8510 C   0  0  1  0  0  0  0  0  0  0  0  0
    0.0430   17.5950   -3.0070 C   0  0  0  0  0  0  0  0  0  0  0  0
   -0.8340   18.7560   -2.5480 C   0  0  0  0  0  0  0  0  0  0  0  0
   -0.1520   19.5470   -1.4350 C   0  0  2  0  0  0  0  0  0  0  0  0
    1.0060   20.1940   -1.9710 O   0  0  0  0  0  0  0  0  0  0  0  0
    0.2560   18.6680   -0.2190 C   0  0  0  0  0  0  0  0  0  0  0  0
   -1.0120   18.2120    0.5430 C   0  0  0  0  0  0  0  0  0  0  0  0
    1.0580   19.5600    0.7670 C   0  0  0  0  0  0  0  0  0  0  0  0
    1.2100   15.3510   -2.3490 C   0  0  1  0  0  0  0  0  0  0  0  0
    2.2630   15.7810   -3.4150 C   0  0  0  0  0  0  0  0  0  0  0  0
    0.2250   14.3590   -3.0730 C   0  0  0  0  0  0  0  0  0  0  0  0
   -0.4960   13.3260   -2.1860 C   0  0  0  0  0  0  0  0  0  0  0  0
    0.4950   12.6040   -1.2680 C   0  0  2  0  0  0  0  0  0  0  0  0
    1.4990   11.8150   -2.1750 C   0  0  0  0  0  0  0  0  0  0  0  0
   -2.4840   10.1786    0.2203 H   0  0  0  0  0  0  0  0  0  0  0  0
   -2.4709   11.0780   -1.3346 H   0  0  0  0  0  0  0  0  0  0  0  0
   -2.4017    9.2830   -1.3346 H   0  0  0  0  0  0  0  0  0  0  0  0
   -0.1886   10.1052   -1.7839 H   0  0  0  0  0  0  0  0  0  0  0  0
   -0.1426    9.3776    1.1712 H   0  0  0  0  0  0  0  0  0  0  0  0
   -0.4474    8.1931   -0.1880 H   0  0  0  0  0  0  0  0  0  0  0  0
    1.7540    7.8615   -0.2020 H   0  0  0  0  0  0  0  0  0  0  0  0
    1.8527    9.4986   -0.9748 H   0  0  0  0  0  0  0  0  0  0  0  0
    1.6042   10.2633    1.2460 H   0  0  0  0  0  0  0  0  0  0  0  0
    3.0840    6.5912    2.8883 H   0  0  0  0  0  0  0  0  0  0  0  0
    2.1855    6.7547    1.3414 H   0  0  0  0  0  0  0  0  0  0  0  0
    3.9818    6.7583    1.3414 H   0  0  0  0  0  0  0  0  0  0  0  0
    2.9877    8.4015    4.1800 H   0  0  0  0  0  0  0  0  0  0  0  0
    4.4902    9.1493    3.5397 H   0  0  0  0  0  0  0  0  0  0  0  0
    2.9535   10.0795    3.5397 H   0  0  0  0  0  0  0  0  0  0  0  0
   -1.0663   11.9949    0.1353 H   0  0  0  0  0  0  0  0  0  0  0  0
    0.5803   11.5233    1.8388 H   0  0  0  0  0  0  0  0  0  0  0  0
    1.5727   10.5613    0.7225 H   0  0  0  0  0  0  0  0  0  0  0  0
    2.1510   13.2223    1.5863 H   0  0  0  0  0  0  0  0  0  0  0  0
    2.9243   12.4406    0.2094 H   0  0  0  0  0  0  0  0  0  0  0  0
    0.4177   14.2269    1.6645 H   0  0  0  0  0  0  0  0  0  0  0  0
    0.2210   15.5023    0.4149 H   0  0  0  0  0  0  0  0  0  0  0  0
   -0.8632   14.0701    0.4149 H   0  0  0  0  0  0  0  0  0  0  0  0
    2.7480   13.9862   -1.6460 H   0  0  0  0  0  0  0  0  0  0  0  0
    3.1031   15.2159    0.5897 H   0  0  0  0  0  0  0  0  0  0  0  0
    3.6995   15.9333   -0.9973 H   0  0  0  0  0  0  0  0  0  0  0  0
    2.5752   17.6129    0.6921 H   0  0  0  0  0  0  0  0  0  0  0  0
   -0.5263   16.1704   -1.4511 H   0  0  0  0  0  0  0  0  0  0  0  0
    0.9773   18.0013   -3.4217 H   0  0  0  0  0  0  0  0  0  0  0  0
   -0.5219   17.0279   -3.7615 H   0  0  0  0  0  0  0  0  0  0  0  0
   -1.0225   19.4242   -3.4012 H   0  0  0  0  0  0  0  0  0  0  0  0
   -1.7804   18.3500   -2.1614 H   0  0  0  0  0  0  0  0  0  0  0  0
   -0.8796   20.2820   -1.0603 H   0  0  0  0  0  0  0  0  0  0  0  0
    1.3480   19.6360   -2.6910 H   0  0  0  0  0  0  0  0  0  0  0  0
   -0.8320   18.2767    1.6262 H   0  0  0  0  0  0  0  0  0  0  0  0
   -1.8565   18.8628    0.2721 H   0  0  0  0  0  0  0  0  0  0  0  0
   -1.2486   17.1725    0.2721 H   0  0  0  0  0  0  0  0  0  0  0  0
    0.8071   19.2809    1.8010 H   0  0  0  0  0  0  0  0  0  0  0  0
    2.1354   19.4150    0.5993 H   0  0  0  0  0  0  0  0  0  0  0  0
    0.7997   20.6160    0.5993 H   0  0  0  0  0  0  0  0  0  0  0  0
    3.1672   16.1503   -2.9090 H   0  0  0  0  0  0  0  0  0  0  0  0
    2.5219   14.9166   -4.0441 H   0  0  0  0  0  0  0  0  0  0  0  0
    1.8429   16.5796   -4.0441 H   0  0  0  0  0  0  0  0  0  0  0  0
   -0.5457   14.9623   -3.5750 H   0  0  0  0  0  0  0  0  0  0  0  0
    0.8586   13.7660   -3.7490 H   0  0  0  0  0  0  0  0  0  0  0  0
   -1.2466   13.8425   -1.5697 H   0  0  0  0  0  0  0  0  0  0  0  0
   -0.9779   12.5812   -2.8364 H   0  0  0  0  0  0  0  0  0  0  0  0
    2.2062   11.2592   -1.5418 H   0  0  0  0  0  0  0  0  0  0  0  0
    0.9430   11.1097   -2.8101 H   0  0  0  0  0  0  0  0  0  0  0  0
    2.0529   12.5220   -2.8101 H   0  0  0  0  0  0  0  0  0  0  0  0
  1  2  1  0
  2  3  1  0
  3  4  1  0
  4  5  1  0
  5  6  1  0
  6  7  1  0
  7  8  1  0
  7  9  1  0
  2 10  1  0
 10 11  1  0
 11 12  1  0
 12 13  1  0
 13 14  1  1
 13 15  1  0
 15 16  1  0
 16 17  1  0
 17 18  2  0
 18 19  1  0
 19 20  1  0
 20 21  1  0
 21 22  1  0
 22 23  1  0
 22 24  1  0
 24 25  1  0
 24 26  1  0
 19 27  1  0
 27 28  1  6
 27 29  1  0
 29 30  1  0
 30 31  1  0
 31 32  1  6
  7  5  1  0
 31 10  1  0
 31 13  1  0
 27 15  1  0
 24 18  1  0
  1 33  1  0
  1 34  1  0
  1 35  1  0
  2 36  1  6
  3 37  1  0
  3 38  1  0
  4 39  1  0
  4 40  1  0
  5 41  1  1
  8 42  1  0
  8 43  1  0
  8 44  1  0
  9 45  1  0
  9 46  1  0
  9 47  1  0
 10 48  1  1
 11 49  1  0
 11 50  1  0
 12 51  1  0
 12 52  1  0
 14 53  1  0
 14 54  1  0
 14 55  1  0
 15 56  1  6
 16 57  1  0
 16 58  1  0
 17 59  1  0
 19 60  1  1
 20 61  1  0
 20 62  1  0
 21 63  1  0
 21 64  1  0
 22 65  1  1
 23 66  1  0
 25 67  1  0
 25 68  1  0
 25 69  1  0
 26 70  1  0
 26 71  1  0
 26 72  1  0
 28 73  1  0
 28 74  1  0
 28 75  1  0
 29 76  1  0
 29 77  1  0
 30 78  1  0
 30 79  1  0
 32 80  1  0
 32 81  1  0
 32 82  1  0
M  END
>  <meeko>  (10) 
{"is_sidechain": [false], "intermolecular_energy": 2.731, "internal_energy": -0.839}

$$$$
EPH_relaxed_0001_pdb2pqr_Repair_400_r2_0001_out
     RDKit          3D

 82 86  0  0  0  0  0  0  0  0999 V2000
    2.7160   17.3850   -1.4150 C   0  0  0  0  0  0  0  0  0  0  0  0
    1.7940   16.3450   -2.0570 C   0  0  2  0  0  0  0  0  0  0  0  0
    0.4970   16.9760   -2.6010 C   0  0  0  0  0  0  0  0  0  0  0  0
    0.3860   18.4800   -2.3370 C   0  0  0  0  0  0  0  0  0  0  0  0
   -0.8950   18.8280   -1.6410 C   0  0  2  0  0  0  0  0  0  0  0  0
   -0.9960   20.1940   -1.2200 O   0  0  0  0  0  0  0  0  0  0  0  0
   -0.9740   19.2090   -0.1740 C   0  0  0  0  0  0  0  0  0  0  0  0
    0.2510   19.2610    0.6850 C   0  0  0  0  0  0  0  0  0  0  0  0
   -2.2820   19.0540    0.5360 C   0  0  0  0  0  0  0  0  0  0  0  0
    1.4590   15.2540   -1.0480 C   0  0  1  0  0  0  0  0  0  0  0  0
   -0.0260   15.2900   -0.5990 C   0  0  0  0  0  0  0  0  0  0  0  0
   -0.4620   13.8200   -0.3750 C   0  0  0  0  0  0  0  0  0  0  0  0
    0.8590   13.0160   -0.3760 C   0  0  1  0  0  0  0  0  0  0  0  0
    1.4400   13.1960    1.0610 C   0  0  0  0  0  0  0  0  0  0  0  0
    0.7500   11.5070   -0.7710 C   0  0  2  0  0  0  0  0  0  0  0  0
   -0.1080   10.6470    0.1730 C   0  0  0  0  0  0  0  0  0  0  0  0
    0.6300   10.0090    1.3020 C   0  0  0  0  0  0  0  0  0  0  0  0
    1.9670    9.8850    1.3920 C   0  0  0  0  0  0  0  0  0  0  0  0
    2.8790   10.3290    0.2410 C   0  0  1  0  0  0  0  0  0  0  0  0
    3.9340    9.2270   -0.0390 C   0  0  0  0  0  0  0  0  0  0  0  0
    4.7190    8.8380    1.2100 C   0  0  0  0  0  0  0  0  0  0  0  0
    3.7840    8.3480    2.3120 C   0  0  2  0  0  0  0  0  0  0  0  0
    3.1870    7.1160    1.8950 O   0  0  0  0  0  0  0  0  0  0  0  0
    2.6710    9.3720    2.6720 C   0  0  0  0  0  0  0  0  0  0  0  0
    3.2980   10.5850    3.4030 C   0  0  0  0  0  0  0  0  0  0  0  0
    1.7150    8.6980    3.6930 C   0  0  0  0  0  0  0  0  0  0  0  0
    2.1400   10.8160   -1.0800 C   0  0  1  0  0  0  0  0  0  0  0  0
    1.8350    9.5950   -2.0000 C   0  0  0  0  0  0  0  0  0  0  0  0
    3.1070   11.7540   -1.8940 C   0  0  0  0  0  0  0  0  0  0  0  0
    3.0820   13.2530   -1.5390 C   0  0  0  0  0  0  0  0  0  0  0  0
    1.6460   13.7840   -1.5010 C   0  0  2  0  0  0  0  0  0  0  0  0
    1.0430   13.6370   -2.9390 C   0  0  0  0  0  0  0  0  0  0  0  0
    2.6483   17.3087   -0.3197 H   0  0  0  0  0  0  0  0  0  0  0  0
    3.7531   17.2010   -1.7320 H   0  0  0  0  0  0  0  0  0  0  0  0
    2.4090   18.3926   -1.7320 H   0  0  0  0  0  0  0  0  0  0  0  0
    2.3321   15.9084   -2.9113 H   0  0  0  0  0  0  0  0  0  0  0  0
    0.4597   16.8106   -3.6879 H   0  0  0  0  0  0  0  0  0  0  0  0
   -0.3400   16.4947   -2.0740 H   0  0  0  0  0  0  0  0  0  0  0  0
    1.2309   18.7945   -1.7067 H   0  0  0  0  0  0  0  0  0  0  0  0
    0.4018   19.0002   -3.3061 H   0  0  0  0  0  0  0  0  0  0  0  0
   -1.4488   18.0927   -2.2431 H   0  0  0  0  0  0  0  0  0  0  0  0
   -0.0435   19.2485    1.7448 H   0  0  0  0  0  0  0  0  0  0  0  0
    0.8864   18.3890    0.4707 H   0  0  0  0  0  0  0  0  0  0  0  0
    0.8102   20.1837    0.4707 H   0  0  0  0  0  0  0  0  0  0  0  0
   -2.1138   19.0739    1.6229 H   0  0  0  0  0  0  0  0  0  0  0  0
   -2.9525   19.8790    0.2535 H   0  0  0  0  0  0  0  0  0  0  0  0
   -2.7412   18.0952    0.2535 H   0  0  0  0  0  0  0  0  0  0  0  0
    2.1874   15.5013   -0.2617 H   0  0  0  0  0  0  0  0  0  0  0  0
   -0.1252   15.8610    0.3359 H   0  0  0  0  0  0  0  0  0  0  0  0
   -0.6560   15.7772   -1.3578 H   0  0  0  0  0  0  0  0  0  0  0  0
   -0.9816   13.7117    0.5885 H   0  0  0  0  0  0  0  0  0  0  0  0
   -1.1631   13.4708   -1.1474 H   0  0  0  0  0  0  0  0  0  0  0  0
    0.6642   12.9557    1.8029 H   0  0  0  0  0  0  0  0  0  0  0  0
    2.2985   12.5217    1.1965 H   0  0  0  0  0  0  0  0  0  0  0  0
    1.7669   14.2375    1.1965 H   0  0  0  0  0  0  0  0  0  0  0  0
    0.1974   11.5502   -1.7211 H   0  0  0  0  0  0  0  0  0  0  0  0
   -0.8921   11.2898    0.5997 H   0  0  0  0  0  0  0  0  0  0  0  0
   -0.4996    9.8214   -0.4394 H   0  0  0  0  0  0  0  0  0  0  0  0
    0.0302    9.6057    2.1313 H   0  0  0  0  0  0  0  0  0  0  0  0
    3.3799   11.2456    0.5860 H   0  0  0  0  0  0  0  0  0  0  0  0
    3.4183    8.3347   -0.4236 H   0  0  0  0  0  0  0  0  0  0  0  0
    4.6496    9.6282   -0.7717 H   0  0  0  0  0  0  0  0  0  0  0  0
    5.4264    8.0352    0.9549 H   0  0  0  0  0  0  0  0  0  0  0  0
    5.2581    9.7243    1.5757 H   0  0  0  0  0  0  0  0  0  0  0  0
    4.3886    8.2099    3.2205 H   0  0  0  0  0  0  0  0  0  0  0  0
    3.3160    7.0360    0.9340 H   0  0  0  0  0  0  0  0  0  0  0  0
    3.2217   10.4373    4.4904 H   0  0  0  0  0  0  0  0  0  0  0  0
    4.3567   10.6772    3.1189 H   0  0  0  0  0  0  0  0  0  0  0  0
    2.7610   11.5020    3.1189 H   0  0  0  0  0  0  0  0  0  0  0  0
    2.0466    8.9318    4.7154 H   0  0  0  0  0  0  0  0  0  0  0  0
    0.6930    9.0764    3.5435 H   0  0  0  0  0  0  0  0  0  0  0  0
    1.7281    7.6083    3.5435 H   0  0  0  0  0  0  0  0  0  0  0  0
    1.6149    8.7140   -1.3791 H   0  0  0  0  0  0  0  0  0  0  0  0
    0.9661    9.8224   -2.6350 H   0  0  0  0  0  0  0  0  0  0  0  0
    2.7088    9.3870   -2.6350 H   0  0  0  0  0  0  0  0  0  0  0  0
    4.1335   11.3916   -1.7358 H   0  0  0  0  0  0  0  0  0  0  0  0
    2.7539   11.6985   -2.9343 H   0  0  0  0  0  0  0  0  0  0  0  0
    3.5449   13.3966   -0.5515 H   0  0  0  0  0  0  0  0  0  0  0  0
    3.6396   13.8051   -2.3099 H   0  0  0  0  0  0  0  0  0  0  0  0
   -0.0233   13.3771   -2.8647 H   0  0  0  0  0  0  0  0  0  0  0  0
    1.1517   14.5879   -3.4811 H   0  0  0  0  0  0  0  0  0  0  0  0
    1.5771   12.8428   -3.4811 H   0  0  0  0  0  0  0  0  0  0  0  0
  1  2  1  0
  2  3  1  0
  3  4  1  0
  4  5  1  0
  5  6  1  0
  6  7  1  0
  7  8  1  0
  7  9  1  0
  2 10  1  0
 10 11  1  0
 11 12  1  0
 12 13  1  0
 13 14  1  1
 13 15  1  0
 15 16  1  0
 16 17  1  0
 17 18  2  0
 18 19  1  0
 19 20  1  0
 20 21  1  0
 21 22  1  0
 22 23  1  0
 22 24  1  0
 24 25  1  0
 24 26  1  0
 19 27  1  0
 27 28  1  6
 27 29  1  0
 29 30  1  0
 30 31  1  0
 31 32  1  6
  7  5  1  0
 31 10  1  0
 31 13  1  0
 27 15  1  0
 24 18  1  0
  1 33  1  0
  1 34  1  0
  1 35  1  0
  2 36  1  6
  3 37  1  0
  3 38  1  0
  4 39  1  0
  4 40  1  0
  5 41  1  6
  8 42  1  0
  8 43  1  0
  8 44  1  0
  9 45  1  0
  9 46  1  0
  9 47  1  0
 10 48  1  1
 11 49  1  0
 11 50  1  0
 12 51  1  0
 12 52  1  0
 14 53  1  0
 14 54  1  0
 14 55  1  0
 15 56  1  6
 16 57  1  0
 16 58  1  0
 17 59  1  0
 19 60  1  1
 20 61  1  0
 20 62  1  0
 21 63  1  0
 21 64  1  0
 22 65  1  1
 23 66  1  0
 25 67  1  0
 25 68  1  0
 25 69  1  0
 26 70  1  0
 26 71  1  0
 26 72  1  0
 28 73  1  0
 28 74  1  0
 28 75  1  0
 29 76  1  0
 29 77  1  0
 30 78  1  0
 30 79  1  0
 32 80  1  0
 32 81  1  0
 32 82  1  0
M  END
>  <meeko>  (11) 
{"is_sidechain": [false], "intermolecular_energy": 2.731, "internal_energy": -0.839}

$$$$
EPH_relaxed_0001_pdb2pqr_Repair_400_r2_0001_out
     RDKit          3D

 82 86  0  0  0  0  0  0  0  0999 V2000
   -5.1460    5.9160   -1.4670 C   0  0  0  0  0  0  0  0  0  0  0  0
   -5.4040    7.4100   -1.6840 C   0  0  2  0  0  0  0  0  0  0  0  0
   -5.1630    8.2320   -0.4020 C   0  0  0  0  0  0  0  0  0  0  0  0
   -4.1650    9.3790   -0.5850 C   0  0  0  0  0  0  0  0  0  0  0  0
   -2.7630    8.9490   -0.2740 C   0  0  2  0  0  0  0  0  0  0  0  0
   -2.1070    9.7280    0.7340 O   0  0  0  0  0  0  0  0  0  0  0  0
   -1.5410    9.7920   -0.5850 C   0  0  0  0  0  0  0  0  0  0  0  0
   -1.6640   11.1340   -1.2360 C   0  0  0  0  0  0  0  0  0  0  0  0
   -0.2130    9.1110   -0.7040 C   0  0  0  0  0  0  0  0  0  0  0  0
   -6.8290    7.6240   -2.1800 C   0  0  1  0  0  0  0  0  0  0  0  0
   -7.1000    6.9260   -3.5390 C   0  0  0  0  0  0  0  0  0  0  0  0
   -8.5720    6.4410   -3.5080 C   0  0  0  0  0  0  0  0  0  0  0  0
   -9.1930    7.1570   -2.2860 C   0  0  1  0  0  0  0  0  0  0  0  0
   -9.5440    8.5900   -2.7960 C   0  0  0  0  0  0  0  0  0  0  0  0
  -10.4280    6.4590   -1.6290 C   0  0  2  0  0  0  0  0  0  0  0  0
  -11.6610    6.3230   -2.5400 C   0  0  0  0  0  0  0  0  0  0  0  0
  -12.6260    7.4600   -2.4810 C   0  0  0  0  0  0  0  0  0  0  0  0
  -12.6590    8.4090   -1.5270 C   0  0  0  0  0  0  0  0  0  0  0  0
  -11.7220    8.3400   -0.3150 C   0  0  1  0  0  0  0  0  0  0  0  0
  -12.5300    8.6130    0.9810 C   0  0  0  0  0  0  0  0  0  0  0  0
  -13.3090    9.9230    0.9200 C   0  0  0  0  0  0  0  0  0  0  0  0
  -14.2720    9.9300   -0.2640 C   0  0  2  0  0  0  0  0  0  0  0  0
  -15.2870    8.9470   -0.0380 O   0  0  0  0  0  0  0  0  0  0  0  0
  -13.5720    9.6560   -1.6250 C   0  0  0  0  0  0  0  0  0  0  0  0
  -12.6950   10.8720   -2.0130 C   0  0  0  0  0  0  0  0  0  0  0  0
  -14.6730    9.5490   -2.7150 C   0  0  0  0  0  0  0  0  0  0  0  0
  -10.8200    7.0360   -0.2090 C   0  0  1  0  0  0  0  0  0  0  0  0
  -11.6020    5.9070    0.5300 C   0  0  0  0  0  0  0  0  0  0  0  0
   -9.5580    7.3540    0.6770 C   0  0  0  0  0  0  0  0  0  0  0  0
   -8.3270    7.9300   -0.0490 C   0  0  0  0  0  0  0  0  0  0  0  0
   -7.9800    7.0970   -1.2870 C   0  0  2  0  0  0  0  0  0  0  0  0
   -7.6010    5.6560   -0.8020 C   0  0  0  0  0  0  0  0  0  0  0  0
   -5.1092    5.7031   -0.3884 H   0  0  0  0  0  0  0  0  0  0  0  0
   -5.9568    5.3331   -1.9284 H   0  0  0  0  0  0  0  0  0  0  0  0
   -4.1867    5.6388   -1.9284 H   0  0  0  0  0  0  0  0  0  0  0  0
   -4.6896    7.7634   -2.4421 H   0  0  0  0  0  0  0  0  0  0  0  0
   -6.1239    8.6564   -0.0758 H   0  0  0  0  0  0  0  0  0  0  0  0
   -4.7324    7.5469    0.3431 H   0  0  0  0  0  0  0  0  0  0  0  0
   -4.2083    9.7263   -1.6278 H   0  0  0  0  0  0  0  0  0  0  0  0
   -4.4385   10.1858    0.1108 H   0  0  0  0  0  0  0  0  0  0  0  0
   -3.0113    7.9002   -0.4941 H   0  0  0  0  0  0  0  0  0  0  0  0
   -1.7353   11.9120   -0.4617 H   0  0  0  0  0  0  0  0  0  0  0  0
   -0.7792   11.3201   -1.8624 H   0  0  0  0  0  0  0  0  0  0  0  0
   -2.5679   11.1562   -1.8624 H   0  0  0  0  0  0  0  0  0  0  0  0
    0.1856    8.9066    0.3007 H   0  0  0  0  0  0  0  0  0  0  0  0
   -0.3343    8.1638   -1.2500 H   0  0  0  0  0  0  0  0  0  0  0  0
    0.4854    9.7622   -1.2500 H   0  0  0  0  0  0  0  0  0  0  0  0
   -6.8496    8.7234   -2.2108 H   0  0  0  0  0  0  0  0  0  0  0  0
   -6.9528    7.6366   -4.3656 H   0  0  0  0  0  0  0  0  0  0  0  0
   -6.4101    6.0834   -3.6943 H   0  0  0  0  0  0  0  0  0  0  0  0
   -9.0947    6.7271   -4.4327 H   0  0  0  0  0  0  0  0  0  0  0  0
   -8.6490    5.3462   -3.4336 H   0  0  0  0  0  0  0  0  0  0  0  0
   -9.7071    9.2557   -1.9356 H   0  0  0  0  0  0  0  0  0  0  0  0
   -8.7138    8.9757   -3.4059 H   0  0  0  0  0  0  0  0  0  0  0  0
  -10.4585    8.5484   -3.4059 H   0  0  0  0  0  0  0  0  0  0  0  0
  -10.0611    5.4348   -1.4666 H   0  0  0  0  0  0  0  0  0  0  0  0
  -11.3082    6.2302   -3.5778 H   0  0  0  0  0  0  0  0  0  0  0  0
  -12.2091    5.4398   -2.1802 H   0  0  0  0  0  0  0  0  0  0  0  0
  -13.3735    7.5282   -3.2851 H   0  0  0  0  0  0  0  0  0  0  0  0
  -10.9751    9.1339   -0.4629 H   0  0  0  0  0  0  0  0  0  0  0  0
  -13.2404    7.7872    1.1341 H   0  0  0  0  0  0  0  0  0  0  0  0
  -11.8128    8.6896    1.8115 H   0  0  0  0  0  0  0  0  0  0  0  0
  -13.8821   10.0448    1.8510 H   0  0  0  0  0  0  0  0  0  0  0  0
  -12.5951   10.7507    0.7969 H   0  0  0  0  0  0  0  0  0  0  0  0
  -14.7045   10.9391   -0.3319 H   0  0  0  0  0  0  0  0  0  0  0  0
  -15.7110    9.1510    0.8120 H   0  0  0  0  0  0  0  0  0  0  0  0
  -12.3354   11.3706   -1.1008 H   0  0  0  0  0  0  0  0  0  0  0  0
  -11.8349   10.5292   -2.6069 H   0  0  0  0  0  0  0  0  0  0  0  0
  -13.2918   11.5799   -2.6069 H   0  0  0  0  0  0  0  0  0  0  0  0
  -15.6574    9.4533   -2.2336 H   0  0  0  0  0  0  0  0  0  0  0  0
  -14.6576   10.4529   -3.3417 H   0  0  0  0  0  0  0  0  0  0  0  0
  -14.4838    8.6650   -3.3417 H   0  0  0  0  0  0  0  0  0  0  0  0
  -11.5060    6.0455    1.6170 H   0  0  0  0  0  0  0  0  0  0  0  0
  -12.6641    5.9510    0.2471 H   0  0  0  0  0  0  0  0  0  0  0  0
  -11.1874    4.9282    0.2471 H   0  0  0  0  0  0  0  0  0  0  0  0
   -9.8638    8.0822    1.4426 H   0  0  0  0  0  0  0  0  0  0  0  0
   -9.2304    6.3808    1.0714 H   0  0  0  0  0  0  0  0  0  0  0  0
   -8.5432    8.9629   -0.3595 H   0  0  0  0  0  0  0  0  0  0  0  0
   -7.4704    7.9061    0.6407 H   0  0  0  0  0  0  0  0  0  0  0  0
   -7.5940    5.6293    0.2977 H   0  0  0  0  0  0  0  0  0  0  0  0
   -8.3401    4.9351   -1.1816 H   0  0  0  0  0  0  0  0  0  0  0  0
   -6.6029    5.3920   -1.1816 H   0  0  0  0  0  0  0  0  0  0  0  0
  1  2  1  0
  2  3  1  0
  3  4  1  0
  4  5  1  0
  5  6  1  0
  6  7  1  0
  7  8  1  0
  7  9  1  0
  2 10  1  0
 10 11  1  0
 11 12  1  0
 12 13  1  0
 13 14  1  6
 13 15  1  0
 15 16  1  0
 16 17  1  0
 17 18  2  0
 18 19  1  0
 19 20  1  0
 20 21  1  0
 21 22  1  0
 22 23  1  0
 22 24  1  0
 24 25  1  0
 24 26  1  0
 19 27  1  0
 27 28  1  1
 27 29  1  0
 29 30  1  0
 30 31  1  0
 31 32  1  1
  7  5  1  0
 31 10  1  0
 31 13  1  0
 27 15  1  0
 24 18  1  0
  1 33  1  0
  1 34  1  0
  1 35  1  0
  2 36  1  6
  3 37  1  0
  3 38  1  0
  4 39  1  0
  4 40  1  0
  5 41  1  1
  8 42  1  0
  8 43  1  0
  8 44  1  0
  9 45  1  0
  9 46  1  0
  9 47  1  0
 10 48  1  6
 11 49  1  0
 11 50  1  0
 12 51  1  0
 12 52  1  0
 14 53  1  0
 14 54  1  0
 14 55  1  0
 15 56  1  1
 16 57  1  0
 16 58  1  0
 17 59  1  0
 19 60  1  6
 20 61  1  0
 20 62  1  0
 21 63  1  0
 21 64  1  0
 22 65  1  6
 23 66  1  0
 25 67  1  0
 25 68  1  0
 25 69  1  0
 26 70  1  0
 26 71  1  0
 26 72  1  0
 28 73  1  0
 28 74  1  0
 28 75  1  0
 29 76  1  0
 29 77  1  0
 30 78  1  0
 30 79  1  0
 32 80  1  0
 32 81  1  0
 32 82  1  0
M  END
>  <meeko>  (12) 
{"is_sidechain": [false], "intermolecular_energy": 2.731, "internal_energy": -0.839}

$$$$
EPH_relaxed_0001_pdb2pqr_Repair_400_r2_0001_out
     RDKit          3D

 82 86  0  0  0  0  0  0  0  0999 V2000
    1.9900   16.4570   -1.9170 C   0  0  0  0  0  0  0  0  0  0  0  0
    0.6030   16.3820   -1.2730 C   0  0  2  0  0  0  0  0  0  0  0  0
    0.3070   17.6080   -0.3870 C   0  0  0  0  0  0  0  0  0  0  0  0
    1.1910   18.8200   -0.6970 C   0  0  0  0  0  0  0  0  0  0  0  0
    1.8860   19.3280    0.5290 C   0  0  2  0  0  0  0  0  0  0  0  0
    2.9980   20.1940    0.2720 O   0  0  0  0  0  0  0  0  0  0  0  0
    3.3040   18.9430    0.9070 C   0  0  0  0  0  0  0  0  0  0  0  0
    4.1120   18.0110    0.0600 C   0  0  0  0  0  0  0  0  0  0  0  0
    3.7260   19.0800    2.3370 C   0  0  0  0  0  0  0  0  0  0  0  0
    0.4810   15.1040   -0.4510 C   0  0  1  0  0  0  0  0  0  0  0  0
   -0.9910   14.7630   -0.0930 C   0  0  0  0  0  0  0  0  0  0  0  0
   -1.1070   13.2170   -0.1080 C   0  0  0  0  0  0  0  0  0  0  0  0
    0.3550   12.7150   -0.1430 C   0  0  1  0  0  0  0  0  0  0  0  0
    0.8410   12.7910    1.3390 C   0  0  0  0  0  0  0  0  0  0  0  0
    0.5840   11.2950   -0.7540 C   0  0  2  0  0  0  0  0  0  0  0  0
   -0.0970   10.1410    0.0030 C   0  0  0  0  0  0  0  0  0  0  0  0
    0.7270    9.5060    1.0740 C   0  0  0  0  0  0  0  0  0  0  0  0
    2.0570    9.6510    1.2270 C   0  0  0  0  0  0  0  0  0  0  0  0
    2.8850   10.4440    0.2080 C   0  0  1  0  0  0  0  0  0  0  0  0
    4.1600    9.6410   -0.1600 C   0  0  0  0  0  0  0  0  0  0  0  0
    4.9730    9.2390    1.0670 C   0  0  0  0  0  0  0  0  0  0  0  0
    4.1320    8.4030    2.0280 C   0  0  2  0  0  0  0  0  0  0  0  0
    3.8270    7.1520    1.4040 O   0  0  0  0  0  0  0  0  0  0  0  0
    2.8160    9.1070    2.4620 C   0  0  0  0  0  0  0  0  0  0  0  0
    3.1460   10.2980    3.3940 C   0  0  0  0  0  0  0  0  0  0  0  0
    1.9970    8.1010    3.3150 C   0  0  0  0  0  0  0  0  0  0  0  0
    2.0980   10.9620   -1.0720 C   0  0  1  0  0  0  0  0  0  0  0  0
    2.0900    9.8580   -2.1740 C   0  0  0  0  0  0  0  0  0  0  0  0
    2.8660   12.1940   -1.6840 C   0  0  0  0  0  0  0  0  0  0  0  0
    2.5090   13.5830   -1.1220 C   0  0  0  0  0  0  0  0  0  0  0  0
    0.9920   13.7910   -1.0960 C   0  0  2  0  0  0  0  0  0  0  0  0
    0.4770   13.7430   -2.5750 C   0  0  0  0  0  0  0  0  0  0  0  0
    2.7578   16.4985   -1.1303 H   0  0  0  0  0  0  0  0  0  0  0  0
    2.1529   15.5664   -2.5417 H   0  0  0  0  0  0  0  0  0  0  0  0
    2.0559   17.3600   -2.5417 H   0  0  0  0  0  0  0  0  0  0  0  0
   -0.1391   16.3749   -2.0849 H   0  0  0  0  0  0  0  0  0  0  0  0
   -0.7438   17.8977   -0.5349 H   0  0  0  0  0  0  0  0  0  0  0  0
    0.5190   17.3128    0.6512 H   0  0  0  0  0  0  0  0  0  0  0  0
    1.9475   18.5284   -1.4404 H   0  0  0  0  0  0  0  0  0  0  0  0
    0.5471   19.6237   -1.0835 H   0  0  0  0  0  0  0  0  0  0  0  0
    0.9430   19.3192    1.0952 H   0  0  0  0  0  0  0  0  0  0  0  0
    4.6946   17.3390    0.7074 H   0  0  0  0  0  0  0  0  0  0  0  0
    3.4391   17.4161   -0.5750 H   0  0  0  0  0  0  0  0  0  0  0  0
    4.7963   18.5927   -0.5750 H   0  0  0  0  0  0  0  0  0  0  0  0
    2.8872   18.8077    2.9945 H   0  0  0  0  0  0  0  0  0  0  0  0
    4.5777   18.4122    2.5335 H   0  0  0  0  0  0  0  0  0  0  0  0
    4.0231   20.1207    2.5335 H   0  0  0  0  0  0  0  0  0  0  0  0
    1.1166   15.3740    0.4052 H   0  0  0  0  0  0  0  0  0  0  0  0
   -1.2380   15.1519    0.9059 H   0  0  0  0  0  0  0  0  0  0  0  0
   -1.6885   15.2189   -0.8111 H   0  0  0  0  0  0  0  0  0  0  0  0
   -1.6192   12.8575    0.7966 H   0  0  0  0  0  0  0  0  0  0  0  0
   -1.6935   12.8516   -0.9638 H   0  0  0  0  0  0  0  0  0  0  0  0
   -0.0173   12.6568    2.0137 H   0  0  0  0  0  0  0  0  0  0  0  0
    1.5801   11.9975    1.5236 H   0  0  0  0  0  0  0  0  0  0  0  0
    1.3026   13.7722    1.5236 H   0  0  0  0  0  0  0  0  0  0  0  0
    0.0631   11.3681   -1.7201 H   0  0  0  0  0  0  0  0  0  0  0  0
   -1.0137   10.5334    0.4673 H   0  0  0  0  0  0  0  0  0  0  0  0
   -0.2827    9.3551   -0.7439 H   0  0  0  0  0  0  0  0  0  0  0  0
    0.2035    8.8657    1.7992 H   0  0  0  0  0  0  0  0  0  0  0  0
    3.1669   11.3820    0.7086 H   0  0  0  0  0  0  0  0  0  0  0  0
    3.8597    8.7298   -0.6980 H   0  0  0  0  0  0  0  0  0  0  0  0
    4.7942   10.2887   -0.7831 H   0  0  0  0  0  0  0  0  0  0  0  0
    5.8440    8.6496    0.7446 H   0  0  0  0  0  0  0  0  0  0  0  0
    5.2981   10.1519    1.5876 H   0  0  0  0  0  0  0  0  0  0  0  0
    4.7242    8.2559    2.9433 H   0  0  0  0  0  0  0  0  0  0  0  0
    3.5930    7.3340    0.4780 H   0  0  0  0  0  0  0  0  0  0  0  0
    3.0574    9.9784    4.4428 H   0  0  0  0  0  0  0  0  0  0  0  0
    4.1731   10.6412    3.2008 H   0  0  0  0  0  0  0  0  0  0  0  0
    2.4420   11.1208    3.2008 H   0  0  0  0  0  0  0  0  0  0  0  0
    2.1633    8.3053    4.3830 H   0  0  0  0  0  0  0  0  0  0  0  0
    0.9272    8.2095    3.0832 H   0  0  0  0  0  0  0  0  0  0  0  0
    2.3202    7.0754    3.0832 H   0  0  0  0  0  0  0  0  0  0  0  0
    2.0828    8.8659   -1.6990 H   0  0  0  0  0  0  0  0  0  0  0  0
    1.1927    9.9713   -2.8000 H   0  0  0  0  0  0  0  0  0  0  0  0
    2.9889    9.9583   -2.8000 H   0  0  0  0  0  0  0  0  0  0  0  0
    3.9411   12.0331   -1.5158 H   0  0  0  0  0  0  0  0  0  0  0  0
    2.5648   12.2249   -2.7415 H   0  0  0  0  0  0  0  0  0  0  0  0
    2.9014   13.6685   -0.0979 H   0  0  0  0  0  0  0  0  0  0  0  0
    2.9568   14.3496   -1.7715 H   0  0  0  0  0  0  0  0  0  0  0  0
   -0.6182   13.6409   -2.5788 H   0  0  0  0  0  0  0  0  0  0  0  0
    0.7605   14.6715   -3.0923 H   0  0  0  0  0  0  0  0  0  0  0  0
    0.9272   12.8829   -3.0923 H   0  0  0  0  0  0  0  0  0  0  0  0
  1  2  1  0
  2  3  1  0
  3  4  1  0
  4  5  1  0
  5  6  1  0
  6  7  1  0
  7  8  1  0
  7  9  1  0
  2 10  1  0
 10 11  1  0
 11 12  1  0
 12 13  1  0
 13 14  1  1
 13 15  1  0
 15 16  1  0
 16 17  1  0
 17 18  2  0
 18 19  1  0
 19 20  1  0
 20 21  1  0
 21 22  1  0
 22 23  1  0
 22 24  1  0
 24 25  1  0
 24 26  1  0
 19 27  1  0
 27 28  1  6
 27 29  1  0
 29 30  1  0
 30 31  1  0
 31 32  1  6
  7  5  1  0
 31 10  1  0
 31 13  1  0
 27 15  1  0
 24 18  1  0
  1 33  1  0
  1 34  1  0
  1 35  1  0
  2 36  1  6
  3 37  1  0
  3 38  1  0
  4 39  1  0
  4 40  1  0
  5 41  1  1
  8 42  1  0
  8 43  1  0
  8 44  1  0
  9 45  1  0
  9 46  1  0
  9 47  1  0
 10 48  1  1
 11 49  1  0
 11 50  1  0
 12 51  1  0
 12 52  1  0
 14 53  1  0
 14 54  1  0
 14 55  1  0
 15 56  1  6
 16 57  1  0
 16 58  1  0
 17 59  1  0
 19 60  1  1
 20 61  1  0
 20 62  1  0
 21 63  1  0
 21 64  1  0
 22 65  1  1
 23 66  1  0
 25 67  1  0
 25 68  1  0
 25 69  1  0
 26 70  1  0
 26 71  1  0
 26 72  1  0
 28 73  1  0
 28 74  1  0
 28 75  1  0
 29 76  1  0
 29 77  1  0
 30 78  1  0
 30 79  1  0
 32 80  1  0
 32 81  1  0
 32 82  1  0
M  END
>  <meeko>  (13) 
{"is_sidechain": [false], "intermolecular_energy": 2.731, "internal_energy": -0.839}

$$$$
EPH_relaxed_0001_pdb2pqr_Repair_400_r2_0001_out
     RDKit          3D

 82 86  0  0  0  0  0  0  0  0999 V2000
    1.5910    8.9200    0.4760 C   0  0  0  0  0  0  0  0  0  0  0  0
    3.0360    9.3110    0.1530 C   0  0  2  0  0  0  0  0  0  0  0  0
    3.8870    9.4910    1.4270 C   0  0  0  0  0  0  0  0  0  0  0  0
    3.2780    8.8390    2.6710 C   0  0  0  0  0  0  0  0  0  0  0  0
    3.3580    9.7410    3.8650 C   0  0  2  0  0  0  0  0  0  0  0  0
    2.2560    9.6290    4.7750 O   0  0  0  0  0  0  0  0  0  0  0  0
    2.4010   10.8930    4.1090 C   0  0  0  0  0  0  0  0  0  0  0  0
    1.2960   11.2060    3.1500 C   0  0  0  0  0  0  0  0  0  0  0  0
    2.8350   12.0050    5.0130 C   0  0  0  0  0  0  0  0  0  0  0  0
    3.0560   10.5930   -0.6710 C   0  0  1  0  0  0  0  0  0  0  0  0
    3.4800   10.3490   -2.1440 C   0  0  0  0  0  0  0  0  0  0  0  0
    2.6710   11.3460   -3.0130 C   0  0  0  0  0  0  0  0  0  0  0  0
    2.0640   12.3440   -2.0000 C   0  0  1  0  0  0  0  0  0  0  0  0
    3.2150   13.3530   -1.6920 C   0  0  0  0  0  0  0  0  0  0  0  0
    0.7580   13.0780   -2.4490 C   0  0  2  0  0  0  0  0  0  0  0  0
    0.9100   13.9800   -3.6870 C   0  0  0  0  0  0  0  0  0  0  0  0
    1.2740   15.3990   -3.4000 C   0  0  0  0  0  0  0  0  0  0  0  0
    1.1940   16.0000   -2.1990 C   0  0  0  0  0  0  0  0  0  0  0  0
    0.6050   15.2640   -0.9880 C   0  0  1  0  0  0  0  0  0  0  0  0
   -0.3950   16.1950   -0.2530 C   0  0  0  0  0  0  0  0  0  0  0  0
    0.2230   17.5370    0.1240 C   0  0  0  0  0  0  0  0  0  0  0  0
    0.7450   18.2640   -1.1130 C   0  0  2  0  0  0  0  0  0  0  0  0
   -0.3670   18.6270   -1.9370 O   0  0  0  0  0  0  0  0  0  0  0  0
    1.7540   17.4200   -1.9390 C   0  0  0  0  0  0  0  0  0  0  0  0
    3.0830   17.2830   -1.1550 C   0  0  0  0  0  0  0  0  0  0  0  0
    2.0930   18.2110   -3.2310 C   0  0  0  0  0  0  0  0  0  0  0  0
   -0.0010   13.8240   -1.2790 C   0  0  1  0  0  0  0  0  0  0  0  0
   -1.4900   13.9540   -1.7260 C   0  0  0  0  0  0  0  0  0  0  0  0
   -0.0100   12.9900    0.0560 C   0  0  0  0  0  0  0  0  0  0  0  0
    1.2660   12.1920    0.3850 C   0  0  0  0  0  0  0  0  0  0  0  0
    1.7200   11.3630   -0.8200 C   0  0  2  0  0  0  0  0  0  0  0  0
    0.5910   10.3250   -1.1390 C   0  0  0  0  0  0  0  0  0  0  0  0
    1.4562    8.8835    1.5671 H   0  0  0  0  0  0  0  0  0  0  0  0
    0.9049    9.6648    0.0465 H   0  0  0  0  0  0  0  0  0  0  0  0
    1.3740    7.9308    0.0465 H   0  0  0  0  0  0  0  0  0  0  0  0
    3.4794    8.4887   -0.4277 H   0  0  0  0  0  0  0  0  0  0  0  0
    4.8764    9.0441    1.2498 H   0  0  0  0  0  0  0  0  0  0  0  0
    3.9440   10.5714    1.6256 H   0  0  0  0  0  0  0  0  0  0  0  0
    2.2219    8.6059    2.4705 H   0  0  0  0  0  0  0  0  0  0  0  0
    3.8482    7.9249    2.8930 H   0  0  0  0  0  0  0  0  0  0  0  0
    4.4564    9.6812    3.8659 H   0  0  0  0  0  0  0  0  0  0  0  0
    0.3857   11.4639    3.7110 H   0  0  0  0  0  0  0  0  0  0  0  0
    1.5898   12.0563    2.5170 H   0  0  0  0  0  0  0  0  0  0  0  0
    1.1002   10.3280    2.5170 H   0  0  0  0  0  0  0  0  0  0  0  0
    2.7136   11.6940    6.0611 H   0  0  0  0  0  0  0  0  0  0  0  0
    3.8918   12.2424    4.8210 H   0  0  0  0  0  0  0  0  0  0  0  0
    2.2184   12.8955    4.8210 H   0  0  0  0  0  0  0  0  0  0  0  0
    3.7669   11.1847   -0.0755 H   0  0  0  0  0  0  0  0  0  0  0  0
    4.5583   10.5311   -2.2630 H   0  0  0  0  0  0  0  0  0  0  0  0
    3.2807    9.3101   -2.4456 H   0  0  0  0  0  0  0  0  0  0  0  0
    3.3308   11.8664   -3.7228 H   0  0  0  0  0  0  0  0  0  0  0  0
    1.9004   10.8434   -3.6159 H   0  0  0  0  0  0  0  0  0  0  0  0
    3.3315   13.4551   -0.6030 H   0  0  0  0  0  0  0  0  0  0  0  0
    4.1543   12.9820   -2.1280 H   0  0  0  0  0  0  0  0  0  0  0  0
    2.9702   14.3328   -2.1280 H   0  0  0  0  0  0  0  0  0  0  0  0
    0.1143   12.2437   -2.7646 H   0  0  0  0  0  0  0  0  0  0  0  0
    1.6950   13.5502   -4.3266 H   0  0  0  0  0  0  0  0  0  0  0  0
   -0.0800   14.0101   -4.1655 H   0  0  0  0  0  0  0  0  0  0  0  0
    1.6388   16.0050   -4.2424 H   0  0  0  0  0  0  0  0  0  0  0  0
    1.4547   15.0343   -0.3283 H   0  0  0  0  0  0  0  0  0  0  0  0
   -1.2570   16.3766   -0.9118 H   0  0  0  0  0  0  0  0  0  0  0  0
   -0.6954   15.6928    0.6784 H   0  0  0  0  0  0  0  0  0  0  0  0
   -0.5404   18.1603    0.6126 H   0  0  0  0  0  0  0  0  0  0  0  0
    1.0662   17.3559    0.8068 H   0  0  0  0  0  0  0  0  0  0  0  0
    1.2907   19.1543   -0.7672 H   0  0  0  0  0  0  0  0  0  0  0  0
   -0.0310   18.7700   -2.8380 H   0  0  0  0  0  0  0  0  0  0  0  0
    2.8755   17.3044   -0.0750 H   0  0  0  0  0  0  0  0  0  0  0  0
    3.5665   16.3303   -1.4167 H   0  0  0  0  0  0  0  0  0  0  0  0
    3.7507   18.1171   -1.4167 H   0  0  0  0  0  0  0  0  0  0  0  0
    2.5131   19.1912   -2.9612 H   0  0  0  0  0  0  0  0  0  0  0  0
    2.8286   17.6474   -3.8236 H   0  0  0  0  0  0  0  0  0  0  0  0
    1.1775   18.3550   -3.8236 H   0  0  0  0  0  0  0  0  0  0  0  0
   -2.1360   14.0104   -0.8374 H   0  0  0  0  0  0  0  0  0  0  0  0
   -1.6138   14.8664   -2.3279 H   0  0  0  0  0  0  0  0  0  0  0  0
   -1.7701   13.0769   -2.3279 H   0  0  0  0  0  0  0  0  0  0  0  0
   -0.1872   13.6909    0.8851 H   0  0  0  0  0  0  0  0  0  0  0  0
   -0.7954   12.2325   -0.0831 H   0  0  0  0  0  0  0  0  0  0  0  0
    2.0673   12.8928    0.6621 H   0  0  0  0  0  0  0  0  0  0  0  0
    1.0471   11.5084    1.2186 H   0  0  0  0  0  0  0  0  0  0  0  0
    0.1713    9.9391   -0.1983 H   0  0  0  0  0  0  0  0  0  0  0  0
   -0.2034   10.8147   -1.7213 H   0  0  0  0  0  0  0  0  0  0  0  0
    1.0123    9.4923   -1.7213 H   0  0  0  0  0  0  0  0  0  0  0  0
  1  2  1  0
  2  3  1  0
  3  4  1  0
  4  5  1  0
  5  6  1  0
  6  7  1  0
  7  8  1  0
  7  9  1  0
  2 10  1  0
 10 11  1  0
 11 12  1  0
 12 13  1  0
 13 14  1  1
 13 15  1  0
 15 16  1  0
 16 17  1  0
 17 18  2  0
 18 19  1  0
 19 20  1  0
 20 21  1  0
 21 22  1  0
 22 23  1  0
 22 24  1  0
 24 25  1  0
 24 26  1  0
 19 27  1  0
 27 28  1  6
 27 29  1  0
 29 30  1  0
 30 31  1  0
 31 32  1  6
  7  5  1  0
 31 10  1  0
 31 13  1  0
 27 15  1  0
 24 18  1  0
  1 33  1  0
  1 34  1  0
  1 35  1  0
  2 36  1  6
  3 37  1  0
  3 38  1  0
  4 39  1  0
  4 40  1  0
  5 41  1  1
  8 42  1  0
  8 43  1  0
  8 44  1  0
  9 45  1  0
  9 46  1  0
  9 47  1  0
 10 48  1  1
 11 49  1  0
 11 50  1  0
 12 51  1  0
 12 52  1  0
 14 53  1  0
 14 54  1  0
 14 55  1  0
 15 56  1  6
 16 57  1  0
 16 58  1  0
 17 59  1  0
 19 60  1  1
 20 61  1  0
 20 62  1  0
 21 63  1  0
 21 64  1  0
 22 65  1  1
 23 66  1  0
 25 67  1  0
 25 68  1  0
 25 69  1  0
 26 70  1  0
 26 71  1  0
 26 72  1  0
 28 73  1  0
 28 74  1  0
 28 75  1  0
 29 76  1  0
 29 77  1  0
 30 78  1  0
 30 79  1  0
 32 80  1  0
 32 81  1  0
 32 82  1  0
M  END
>  <meeko>  (14) 
{"is_sidechain": [false], "intermolecular_energy": 2.731, "internal_energy": -0.839}

$$$$
EPH_relaxed_0001_pdb2pqr_Repair_400_r2_0001_out
     RDKit          3D

 82 86  0  0  0  0  0  0  0  0999 V2000
    3.1150   18.2200   -3.8340 C   0  0  0  0  0  0  0  0  0  0  0  0
    1.9740   18.1560   -2.8150 C   0  0  2  0  0  0  0  0  0  0  0  0
    1.9250   19.4080   -1.9170 C   0  0  0  0  0  0  0  0  0  0  0  0
    0.5900   20.1550   -1.9750 C   0  0  0  0  0  0  0  0  0  0  0  0
   -0.5060   19.3850   -1.3020 C   0  0  2  0  0  0  0  0  0  0  0  0
   -1.5210   20.1940   -0.6950 O   0  0  0  0  0  0  0  0  0  0  0  0
   -0.7330   19.3920    0.1990 C   0  0  0  0  0  0  0  0  0  0  0  0
    0.1430   20.1850    1.1170 C   0  0  0  0  0  0  0  0  0  0  0  0
   -1.4890   18.2550    0.8130 C   0  0  0  0  0  0  0  0  0  0  0  0
    2.1140   16.9050   -1.9550 C   0  0  1  0  0  0  0  0  0  0  0  0
    2.2530   17.2300   -0.4440 C   0  0  0  0  0  0  0  0  0  0  0  0
    1.5280   16.0970    0.3260 C   0  0  0  0  0  0  0  0  0  0  0  0
    1.2880   14.9960   -0.7340 C   0  0  1  0  0  0  0  0  0  0  0  0
    2.6450   14.2320   -0.8340 C   0  0  0  0  0  0  0  0  0  0  0  0
    0.0960   14.0230   -0.4610 C   0  0  2  0  0  0  0  0  0  0  0  0
    0.2280   13.1710    0.8130 C   0  0  0  0  0  0  0  0  0  0  0  0
    0.8980   11.8490    0.6300 C   0  0  0  0  0  0  0  0  0  0  0  0
    1.1200   11.2420   -0.5500 C   0  0  0  0  0  0  0  0  0  0  0  0
    0.5920   11.8450   -1.8580 C   0  0  1  0  0  0  0  0  0  0  0  0
   -0.0850   10.7350   -2.7040 C   0  0  0  0  0  0  0  0  0  0  0  0
    0.8310    9.5380   -2.9410 C   0  0  0  0  0  0  0  0  0  0  0  0
    1.2880    8.9310   -1.6170 C   0  0  2  0  0  0  0  0  0  0  0  0
    0.1540    8.3590   -0.9570 O   0  0  0  0  0  0  0  0  0  0  0  0
    1.9770    9.9580   -0.6770 C   0  0  0  0  0  0  0  0  0  0  0  0
    3.3580   10.3510   -1.2580 C   0  0  0  0  0  0  0  0  0  0  0  0
    2.2610    9.2510    0.6760 C   0  0  0  0  0  0  0  0  0  0  0  0
   -0.3180   13.1390   -1.7070 C   0  0  1  0  0  0  0  0  0  0  0  0
   -1.8030   12.7210   -1.4830 C   0  0  0  0  0  0  0  0  0  0  0  0
   -0.2830   13.9520   -3.0550 C   0  0  0  0  0  0  0  0  0  0  0  0
    0.8490   14.9840   -3.2150 C   0  0  0  0  0  0  0  0  0  0  0  0
    0.9450   15.8880   -1.9830 C   0  0  2  0  0  0  0  0  0  0  0  0
   -0.3980   16.6870   -1.8700 C   0  0  0  0  0  0  0  0  0  0  0  0
    4.0774   18.2740   -3.3040 H   0  0  0  0  0  0  0  0  0  0  0  0
    3.0940   17.3193   -4.4651 H   0  0  0  0  0  0  0  0  0  0  0  0
    2.9934   19.1127   -4.4651 H   0  0  0  0  0  0  0  0  0  0  0  0
    1.0303   18.1169   -3.3788 H   0  0  0  0  0  0  0  0  0  0  0  0
    2.1039   19.0968   -0.8772 H   0  0  0  0  0  0  0  0  0  0  0  0
    2.6965   20.0993   -2.2869 H   0  0  0  0  0  0  0  0  0  0  0  0
    0.7033   21.1269   -1.4725 H   0  0  0  0  0  0  0  0  0  0  0  0
    0.3168   20.2873   -3.0323 H   0  0  0  0  0  0  0  0  0  0  0  0
   -0.4102   18.5663   -2.0304 H   0  0  0  0  0  0  0  0  0  0  0  0
   -0.1140   19.9523    2.1609 H   0  0  0  0  0  0  0  0  0  0  0  0
    1.1963   19.9270    0.9325 H   0  0  0  0  0  0  0  0  0  0  0  0
   -0.0092   21.2587    0.9325 H   0  0  0  0  0  0  0  0  0  0  0  0
   -1.4387   18.3307    1.9092 H   0  0  0  0  0  0  0  0  0  0  0  0
   -2.5398   18.2967    0.4905 H   0  0  0  0  0  0  0  0  0  0  0  0
   -1.0440   17.3021    0.4905 H   0  0  0  0  0  0  0  0  0  0  0  0
    3.0086   16.4630   -2.4180 H   0  0  0  0  0  0  0  0  0  0  0  0
    3.3151   17.2617   -0.1596 H   0  0  0  0  0  0  0  0  0  0  0  0
    1.8138   18.2108   -0.2091 H   0  0  0  0  0  0  0  0  0  0  0  0
    2.1587   15.7179    1.1436 H   0  0  0  0  0  0  0  0  0  0  0  0
    0.5916   16.4408    0.7896 H   0  0  0  0  0  0  0  0  0  0  0  0
    3.0218   14.0199    0.1775 H   0  0  0  0  0  0  0  0  0  0  0  0
    2.4943   13.2862   -1.3750 H   0  0  0  0  0  0  0  0  0  0  0  0
    3.3755   14.8514   -1.3750 H   0  0  0  0  0  0  0  0  0  0  0  0
   -0.7360   14.7171   -0.2715 H   0  0  0  0  0  0  0  0  0  0  0  0
    0.8084   13.7472    1.5486 H   0  0  0  0  0  0  0  0  0  0  0  0
   -0.7991   12.9490    1.1383 H   0  0  0  0  0  0  0  0  0  0  0  0
    1.2388   11.3274    1.5365 H   0  0  0  0  0  0  0  0  0  0  0  0
    1.4721   12.2347   -2.3905 H   0  0  0  0  0  0  0  0  0  0  0  0
   -0.9864   10.3900   -2.1762 H   0  0  0  0  0  0  0  0  0  0  0  0
   -0.3303   11.1667   -3.6856 H   0  0  0  0  0  0  0  0  0  0  0  0
    0.2859    8.7760   -3.5174 H   0  0  0  0  0  0  0  0  0  0  0  0
    1.7176    9.8785   -3.4961 H   0  0  0  0  0  0  0  0  0  0  0  0
    2.0420    8.1642   -1.8484 H   0  0  0  0  0  0  0  0  0  0  0  0
    0.2030    7.3950   -1.0710 H   0  0  0  0  0  0  0  0  0  0  0  0
    4.0591   10.5505   -0.4342 H   0  0  0  0  0  0  0  0  0  0  0  0
    3.7437    9.5269   -1.8762 H   0  0  0  0  0  0  0  0  0  0  0  0
    3.2520   11.2546   -1.8762 H   0  0  0  0  0  0  0  0  0  0  0  0
    1.9912    9.9226    1.5044 H   0  0  0  0  0  0  0  0  0  0  0  0
    1.6631    8.3300    0.7411 H   0  0  0  0  0  0  0  0  0  0  0  0
    3.3299    8.9996    0.7411 H   0  0  0  0  0  0  0  0  0  0  0  0
   -2.0088   12.6631   -0.4040 H   0  0  0  0  0  0  0  0  0  0  0  0
   -2.4674   13.4670   -1.9435 H   0  0  0  0  0  0  0  0  0  0  0  0
   -1.9807   11.7379   -1.9435 H   0  0  0  0  0  0  0  0  0  0  0  0
   -0.1917   13.2278   -3.8780 H   0  0  0  0  0  0  0  0  0  0  0  0
   -1.2120   14.5411   -3.0598 H   0  0  0  0  0  0  0  0  0  0  0  0
    1.8035   14.4535   -3.3472 H   0  0  0  0  0  0  0  0  0  0  0  0
    0.6313   15.6099   -4.0930 H   0  0  0  0  0  0  0  0  0  0  0  0
   -0.6480   16.8357   -0.8092 H   0  0  0  0  0  0  0  0  0  0  0  0
   -0.2852   17.6650   -2.3608 H   0  0  0  0  0  0  0  0  0  0  0  0
   -1.2037   16.1212   -2.3608 H   0  0  0  0  0  0  0  0  0  0  0  0
  1  2  1  0
  2  3  1  0
  3  4  1  0
  4  5  1  0
  5  6  1  0
  6  7  1  0
  7  8  1  0
  7  9  1  0
  2 10  1  0
 10 11  1  0
 11 12  1  0
 12 13  1  0
 13 14  1  6
 13 15  1  0
 15 16  1  0
 16 17  1  0
 17 18  2  0
 18 19  1  0
 19 20  1  0
 20 21  1  0
 21 22  1  0
 22 23  1  0
 22 24  1  0
 24 25  1  0
 24 26  1  0
 19 27  1  0
 27 28  1  1
 27 29  1  0
 29 30  1  0
 30 31  1  0
 31 32  1  1
  7  5  1  0
 31 10  1  0
 31 13  1  0
 27 15  1  0
 24 18  1  0
  1 33  1  0
  1 34  1  0
  1 35  1  0
  2 36  1  6
  3 37  1  0
  3 38  1  0
  4 39  1  0
  4 40  1  0
  5 41  1  6
  8 42  1  0
  8 43  1  0
  8 44  1  0
  9 45  1  0
  9 46  1  0
  9 47  1  0
 10 48  1  6
 11 49  1  0
 11 50  1  0
 12 51  1  0
 12 52  1  0
 14 53  1  0
 14 54  1  0
 14 55  1  0
 15 56  1  1
 16 57  1  0
 16 58  1  0
 17 59  1  0
 19 60  1  6
 20 61  1  0
 20 62  1  0
 21 63  1  0
 21 64  1  0
 22 65  1  6
 23 66  1  0
 25 67  1  0
 25 68  1  0
 25 69  1  0
 26 70  1  0
 26 71  1  0
 26 72  1  0
 28 73  1  0
 28 74  1  0
 28 75  1  0
 29 76  1  0
 29 77  1  0
 30 78  1  0
 30 79  1  0
 32 80  1  0
 32 81  1  0
 32 82  1  0
M  END
>  <meeko>  (15) 
{"is_sidechain": [false], "intermolecular_energy": 2.731, "internal_energy": -0.839}

$$$$
EPH_relaxed_0001_pdb2pqr_Repair_400_r2_0001_out
     RDKit          3D

 82 86  0  0  0  0  0  0  0  0999 V2000
    1.4380   16.8370   -3.5540 C   0  0  0  0  0  0  0  0  0  0  0  0
    1.4490   15.3150   -3.7150 C   0  0  2  0  0  0  0  0  0  0  0  0
    0.4350   14.8360   -4.7740 C   0  0  0  0  0  0  0  0  0  0  0  0
    1.0650   14.5310   -6.1350 C   0  0  0  0  0  0  0  0  0  0  0  0
    0.8300   15.6400   -7.1160 C   0  0  2  0  0  0  0  0  0  0  0  0
    0.2820   15.2220   -8.3720 O   0  0  0  0  0  0  0  0  0  0  0  0
    1.6020   15.7860   -8.4140 C   0  0  0  0  0  0  0  0  0  0  0  0
    2.6690   14.8110   -8.8020 C   0  0  0  0  0  0  0  0  0  0  0  0
    1.6620   17.1340   -9.0620 C   0  0  0  0  0  0  0  0  0  0  0  0
    1.1580   14.6480   -2.3760 C   0  0  1  0  0  0  0  0  0  0  0  0
   -0.2930   14.8980   -1.8870 C   0  0  0  0  0  0  0  0  0  0  0  0
   -0.7440   13.6120   -1.1480 C   0  0  0  0  0  0  0  0  0  0  0  0
    0.5570   12.8010   -0.9470 C   0  0  1  0  0  0  0  0  0  0  0  0
    1.2350   13.4360    0.3080 C   0  0  0  0  0  0  0  0  0  0  0  0
    0.3910   11.2540   -0.7930 C   0  0  2  0  0  0  0  0  0  0  0  0
   -0.4220   10.8040    0.4340 C   0  0  0  0  0  0  0  0  0  0  0  0
    0.3760   10.5590    1.6720 C   0  0  0  0  0  0  0  0  0  0  0  0
    1.7130   10.4170    1.7260 C   0  0  0  0  0  0  0  0  0  0  0  0
    2.5560   10.4030    0.4440 C   0  0  1  0  0  0  0  0  0  0  0  0
    3.5670    9.2280    0.5020 C   0  0  0  0  0  0  0  0  0  0  0  0
    4.4240    9.2560    1.7630 C   0  0  0  0  0  0  0  0  0  0  0  0
    3.5530    9.2100    3.0160 C   0  0  2  0  0  0  0  0  0  0  0  0
    2.9040    7.9360    3.0800 O   0  0  0  0  0  0  0  0  0  0  0  0
    2.4890   10.3420    3.0640 C   0  0  0  0  0  0  0  0  0  0  0  0
    3.1870   11.7040    3.2980 C   0  0  0  0  0  0  0  0  0  0  0  0
    1.5870   10.0970    4.3040 C   0  0  0  0  0  0  0  0  0  0  0  0
    1.7420   10.4410   -0.9210 C   0  0  1  0  0  0  0  0  0  0  0  0
    1.3520    8.9930   -1.3490 C   0  0  0  0  0  0  0  0  0  0  0  0
    2.6730   11.0040   -2.0590 C   0  0  0  0  0  0  0  0  0  0  0  0
    2.7030   12.5340   -2.2390 C   0  0  0  0  0  0  0  0  0  0  0  0
    1.2840   13.1060   -2.3070 C   0  0  2  0  0  0  0  0  0  0  0  0
    0.5850   12.5020   -3.5730 C   0  0  0  0  0  0  0  0  0  0  0  0
    1.4362   17.0925   -2.4841 H   0  0  0  0  0  0  0  0  0  0  0  0
    2.3331   17.2627   -4.0311 H   0  0  0  0  0  0  0  0  0  0  0  0
    0.5368   17.2497   -4.0311 H   0  0  0  0  0  0  0  0  0  0  0  0
    2.4517   15.0264   -4.0634 H   0  0  0  0  0  0  0  0  0  0  0  0
   -0.0491   13.9208   -4.4024 H   0  0  0  0  0  0  0  0  0  0  0  0
   -0.2812   15.6566   -4.9278 H   0  0  0  0  0  0  0  0  0  0  0  0
    2.1486   14.3949   -6.0037 H   0  0  0  0  0  0  0  0  0  0  0  0
    0.5981   13.6175   -6.5319 H   0  0  0  0  0  0  0  0  0  0  0  0
    0.6160   16.3472   -6.3011 H   0  0  0  0  0  0  0  0  0  0  0  0
    3.1289   14.3907   -7.8954 H   0  0  0  0  0  0  0  0  0  0  0  0
    2.2253   13.9998   -9.3979 H   0  0  0  0  0  0  0  0  0  0  0  0
    3.4370   15.3258   -9.3979 H   0  0  0  0  0  0  0  0  0  0  0  0
    1.6967   17.9127   -8.2859 H   0  0  0  0  0  0  0  0  0  0  0  0
    2.5640   17.2000   -9.6882 H   0  0  0  0  0  0  0  0  0  0  0  0
    0.7695   17.2799   -9.6882 H   0  0  0  0  0  0  0  0  0  0  0  0
    1.9415   15.1171   -1.7627 H   0  0  0  0  0  0  0  0  0  0  0  0
   -0.3187   15.7577   -1.2012 H   0  0  0  0  0  0  0  0  0  0  0  0
   -0.9610   15.1230   -2.7315 H   0  0  0  0  0  0  0  0  0  0  0  0
   -1.2001   13.8610   -0.1785 H   0  0  0  0  0  0  0  0  0  0  0  0
   -1.5025   13.0504   -1.7131 H   0  0  0  0  0  0  0  0  0  0  0  0
    0.7858   13.0153    1.2197 H   0  0  0  0  0  0  0  0  0  0  0  0
    2.3124   13.2145    0.2942 H   0  0  0  0  0  0  0  0  0  0  0  0
    1.0845   14.5256    0.2942 H   0  0  0  0  0  0  0  0  0  0  0  0
   -0.2215   10.9943   -1.6690 H   0  0  0  0  0  0  0  0  0  0  0  0
   -1.1631   11.5859    0.6563 H   0  0  0  0  0  0  0  0  0  0  0  0
   -0.8705    9.8365    0.1642 H   0  0  0  0  0  0  0  0  0  0  0  0
   -0.1761   10.4886    2.6208 H   0  0  0  0  0  0  0  0  0  0  0  0
    3.0974   11.3604    0.4251 H   0  0  0  0  0  0  0  0  0  0  0  0
    3.0085    8.2807    0.4761 H   0  0  0  0  0  0  0  0  0  0  0  0
    4.2409    9.3243   -0.3620 H   0  0  0  0  0  0  0  0  0  0  0  0
    5.0970    8.3859    1.7603 H   0  0  0  0  0  0  0  0  0  0  0  0
    5.0038   10.1907    1.7727 H   0  0  0  0  0  0  0  0  0  0  0  0
    4.2130    9.3632    3.8826 H   0  0  0  0  0  0  0  0  0  0  0  0
    3.5290    7.2710    2.7450 H   0  0  0  0  0  0  0  0  0  0  0  0
    3.2808   11.8871    4.3786 H   0  0  0  0  0  0  0  0  0  0  0  0
    4.1873   11.6867    2.8408 H   0  0  0  0  0  0  0  0  0  0  0  0
    2.5888   12.5059    2.8408 H   0  0  0  0  0  0  0  0  0  0  0  0
    2.1732   10.2562    5.2211 H   0  0  0  0  0  0  0  0  0  0  0  0
    0.7390   10.7973    4.2847 H   0  0  0  0  0  0  0  0  0  0  0  0
    1.2098    9.0639    4.2847 H   0  0  0  0  0  0  0  0  0  0  0  0
    1.1863    8.3777   -0.4524 H   0  0  0  0  0  0  0  0  0  0  0  0
    0.4301    9.0235   -1.9483 H   0  0  0  0  0  0  0  0  0  0  0  0
    2.1646    8.5564   -1.9483 H   0  0  0  0  0  0  0  0  0  0  0  0
    3.6998   10.6743   -1.8424 H   0  0  0  0  0  0  0  0  0  0  0  0
    2.2509   10.6123   -2.9962 H   0  0  0  0  0  0  0  0  0  0  0  0
    3.2328   12.9861   -1.3876 H   0  0  0  0  0  0  0  0  0  0  0  0
    3.2202   12.7661   -3.1817 H   0  0  0  0  0  0  0  0  0  0  0  0
   -0.2124   11.8129   -3.2579 H   0  0  0  0  0  0  0  0  0  0  0  0
    0.1512   13.3141   -4.1749 H   0  0  0  0  0  0  0  0  0  0  0  0
    1.3256   11.9550   -4.1749 H   0  0  0  0  0  0  0  0  0  0  0  0
  1  2  1  0
  2  3  1  0
  3  4  1  0
  4  5  1  0
  5  6  1  0
  6  7  1  0
  7  8  1  0
  7  9  1  0
  2 10  1  0
 10 11  1  0
 11 12  1  0
 12 13  1  0
 13 14  1  1
 13 15  1  0
 15 16  1  0
 16 17  1  0
 17 18  2  0
 18 19  1  0
 19 20  1  0
 20 21  1  0
 21 22  1  0
 22 23  1  0
 22 24  1  0
 24 25  1  0
 24 26  1  0
 19 27  1  0
 27 28  1  6
 27 29  1  0
 29 30  1  0
 30 31  1  0
 31 32  1  6
  7  5  1  0
 31 10  1  0
 31 13  1  0
 27 15  1  0
 24 18  1  0
  1 33  1  0
  1 34  1  0
  1 35  1  0
  2 36  1  6
  3 37  1  0
  3 38  1  0
  4 39  1  0
  4 40  1  0
  5 41  1  1
  8 42  1  0
  8 43  1  0
  8 44  1  0
  9 45  1  0
  9 46  1  0
  9 47  1  0
 10 48  1  1
 11 49  1  0
 11 50  1  0
 12 51  1  0
 12 52  1  0
 14 53  1  0
 14 54  1  0
 14 55  1  0
 15 56  1  6
 16 57  1  0
 16 58  1  0
 17 59  1  0
 19 60  1  1
 20 61  1  0
 20 62  1  0
 21 63  1  0
 21 64  1  0
 22 65  1  1
 23 66  1  0
 25 67  1  0
 25 68  1  0
 25 69  1  0
 26 70  1  0
 26 71  1  0
 26 72  1  0
 28 73  1  0
 28 74  1  0
 28 75  1  0
 29 76  1  0
 29 77  1  0
 30 78  1  0
 30 79  1  0
 32 80  1  0
 32 81  1  0
 32 82  1  0
M  END
>  <meeko>  (16) 
{"is_sidechain": [false], "intermolecular_energy": 2.731, "internal_energy": -0.839}

$$$$
EPH_relaxed_0001_pdb2pqr_Repair_400_r2_0001_out
     RDKit          3D

 82 86  0  0  0  0  0  0  0  0999 V2000
    0.3430    8.8680   -2.4720 C   0  0  0  0  0  0  0  0  0  0  0  0
    1.1140   10.0210   -3.1210 C   0  0  2  0  0  0  0  0  0  0  0  0
    2.6060   10.0130   -2.7320 C   0  0  0  0  0  0  0  0  0  0  0  0
    3.5350   10.5020   -3.8470 C   0  0  0  0  0  0  0  0  0  0  0  0
    4.9200   10.7660   -3.3380 C   0  0  2  0  0  0  0  0  0  0  0  0
    5.4890   12.0100   -3.7670 O   0  0  0  0  0  0  0  0  0  0  0  0
    6.1440   10.8200   -4.2330 C   0  0  0  0  0  0  0  0  0  0  0  0
    6.0400   10.6060   -5.7110 C   0  0  0  0  0  0  0  0  0  0  0  0
    7.4900   10.5930   -3.6190 C   0  0  0  0  0  0  0  0  0  0  0  0
    0.4820   11.3520   -2.7340 C   0  0  1  0  0  0  0  0  0  0  0  0
   -0.8780   11.1790   -2.0080 C   0  0  0  0  0  0  0  0  0  0  0  0
   -0.9720   12.3150   -0.9560 C   0  0  0  0  0  0  0  0  0  0  0  0
    0.1680   13.2890   -1.3320 C   0  0  1  0  0  0  0  0  0  0  0  0
   -0.4090   14.1510   -2.4990 C   0  0  0  0  0  0  0  0  0  0  0  0
    0.7240   14.1820   -0.1750 C   0  0  2  0  0  0  0  0  0  0  0  0
   -0.2940   15.1550    0.4440 C   0  0  0  0  0  0  0  0  0  0  0  0
   -0.3540   16.5050   -0.1900 C   0  0  0  0  0  0  0  0  0  0  0  0
    0.5690   17.0180   -1.0250 C   0  0  0  0  0  0  0  0  0  0  0  0
    1.8640   16.2560   -1.3320 C   0  0  1  0  0  0  0  0  0  0  0  0
    3.0720   17.2240   -1.2250 C   0  0  0  0  0  0  0  0  0  0  0  0
    2.9050   18.4660   -2.0960 C   0  0  0  0  0  0  0  0  0  0  0  0
    1.6370   19.2280   -1.7220 C   0  0  2  0  0  0  0  0  0  0  0  0
    1.7920   19.7620   -0.4040 O   0  0  0  0  0  0  0  0  0  0  0  0
    0.3550   18.3520   -1.7840 C   0  0  0  0  0  0  0  0  0  0  0  0
    0.0200   18.0230   -3.2600 C   0  0  0  0  0  0  0  0  0  0  0  0
   -0.8300   19.2000   -1.2480 C   0  0  0  0  0  0  0  0  0  0  0  0
    2.0870   14.9110   -0.5160 C   0  0  1  0  0  0  0  0  0  0  0  0
    2.7780   15.2230    0.8470 C   0  0  0  0  0  0  0  0  0  0  0  0
    3.0780   13.9830   -1.3140 C   0  0  0  0  0  0  0  0  0  0  0  0
    2.4560   13.0380   -2.3600 C   0  0  0  0  0  0  0  0  0  0  0  0
    1.2770   12.2620   -1.7640 C   0  0  2  0  0  0  0  0  0  0  0  0
    1.8310   11.3690   -0.6020 C   0  0  0  0  0  0  0  0  0  0  0  0
    0.4027    8.9573   -1.3773 H   0  0  0  0  0  0  0  0  0  0  0  0
   -0.7104    8.9085   -2.7863 H   0  0  0  0  0  0  0  0  0  0  0  0
    0.7828    7.9100   -2.7863 H   0  0  0  0  0  0  0  0  0  0  0  0
    1.0562    9.8855   -4.2111 H   0  0  0  0  0  0  0  0  0  0  0  0
    2.7403   10.6656   -1.8568 H   0  0  0  0  0  0  0  0  0  0  0  0
    2.8780    8.9681   -2.5217 H   0  0  0  0  0  0  0  0  0  0  0  0
    3.5843    9.7337   -4.6327 H   0  0  0  0  0  0  0  0  0  0  0  0
    3.1294   11.4448   -4.2428 H   0  0  0  0  0  0  0  0  0  0  0  0
    4.7086   10.2162   -2.4090 H   0  0  0  0  0  0  0  0  0  0  0  0
    5.5670    9.6327   -5.9082 H   0  0  0  0  0  0  0  0  0  0  0  0
    5.4305   11.4066   -6.1554 H   0  0  0  0  0  0  0  0  0  0  0  0
    7.0461   10.6215   -6.1554 H   0  0  0  0  0  0  0  0  0  0  0  0
    7.4002   10.6081   -2.5228 H   0  0  0  0  0  0  0  0  0  0  0  0
    7.8801    9.6164   -3.9415 H   0  0  0  0  0  0  0  0  0  0  0  0
    8.1789   11.3877   -3.9415 H   0  0  0  0  0  0  0  0  0  0  0  0
    0.4214   11.8223   -3.7266 H   0  0  0  0  0  0  0  0  0  0  0  0
   -1.7051   11.2608   -2.7286 H   0  0  0  0  0  0  0  0  0  0  0  0
   -0.9471   10.1910   -1.5293 H   0  0  0  0  0  0  0  0  0  0  0  0
   -1.9482   12.8186   -1.0143 H   0  0  0  0  0  0  0  0  0  0  0  0
   -0.8775   11.9394    0.0736 H   0  0  0  0  0  0  0  0  0  0  0  0
   -0.9757   14.9976   -2.0841 H   0  0  0  0  0  0  0  0  0  0  0  0
    0.4175   14.5310   -3.1176 H   0  0  0  0  0  0  0  0  0  0  0  0
   -1.0753   13.5318   -3.1176 H   0  0  0  0  0  0  0  0  0  0  0  0
    0.9454   13.4423    0.6085 H   0  0  0  0  0  0  0  0  0  0  0  0
   -1.2916   14.6982    0.3656 H   0  0  0  0  0  0  0  0  0  0  0  0
    0.0351   15.3204    1.4805 H   0  0  0  0  0  0  0  0  0  0  0  0
   -1.2257   17.1335    0.0448 H   0  0  0  0  0  0  0  0  0  0  0  0
    1.7657   15.8938   -2.3660 H   0  0  0  0  0  0  0  0  0  0  0  0
    3.1789   17.5401   -0.1768 H   0  0  0  0  0  0  0  0  0  0  0  0
    3.9638   16.6856   -1.5783 H   0  0  0  0  0  0  0  0  0  0  0  0
    3.7752   19.1240   -1.9552 H   0  0  0  0  0  0  0  0  0  0  0  0
    2.8276   18.1500   -3.1468 H   0  0  0  0  0  0  0  0  0  0  0  0
    1.5040   20.0306   -2.4624 H   0  0  0  0  0  0  0  0  0  0  0  0
    1.1350   20.4700   -0.2940 H   0  0  0  0  0  0  0  0  0  0  0  0
   -0.7644   17.2526   -3.2950 H   0  0  0  0  0  0  0  0  0  0  0  0
   -0.3361   18.9322   -3.7666 H   0  0  0  0  0  0  0  0  0  0  0  0
    0.9226   17.6506   -3.7666 H   0  0  0  0  0  0  0  0  0  0  0  0
   -0.8187   19.1919   -0.1481 H   0  0  0  0  0  0  0  0  0  0  0  0
   -0.7328   20.2348   -1.6081 H   0  0  0  0  0  0  0  0  0  0  0  0
   -1.7781   18.7741   -1.6081 H   0  0  0  0  0  0  0  0  0  0  0  0
    2.1144   14.9234    1.6716 H   0  0  0  0  0  0  0  0  0  0  0  0
    3.7231   14.6643    0.9154 H   0  0  0  0  0  0  0  0  0  0  0  0
    2.9839   16.3014    0.9154 H   0  0  0  0  0  0  0  0  0  0  0  0
    3.7941   14.6335   -1.8375 H   0  0  0  0  0  0  0  0  0  0  0  0
    3.5239   13.3207   -0.5574 H   0  0  0  0  0  0  0  0  0  0  0  0
    2.1009   13.6315   -3.2154 H   0  0  0  0  0  0  0  0  0  0  0  0
    3.2227   12.3184   -2.6831 H   0  0  0  0  0  0  0  0  0  0  0  0
    1.5552   11.8136    0.3656 H   0  0  0  0  0  0  0  0  0  0  0  0
    1.4002   10.3597   -0.6779 H   0  0  0  0  0  0  0  0  0  0  0  0
    2.9266   11.3067   -0.6779 H   0  0  0  0  0  0  0  0  0  0  0  0
  1  2  1  0
  2  3  1  0
  3  4  1  0
  4  5  1  0
  5  6  1  0
  6  7  1  0
  7  8  1  0
  7  9  1  0
  2 10  1  0
 10 11  1  0
 11 12  1  0
 12 13  1  0
 13 14  1  6
 13 15  1  0
 15 16  1  0
 16 17  1  0
 17 18  2  0
 18 19  1  0
 19 20  1  0
 20 21  1  0
 21 22  1  0
 22 23  1  0
 22 24  1  0
 24 25  1  0
 24 26  1  0
 19 27  1  0
 27 28  1  1
 27 29  1  0
 29 30  1  0
 30 31  1  0
 31 32  1  1
  7  5  1  0
 31 10  1  0
 31 13  1  0
 27 15  1  0
 24 18  1  0
  1 33  1  0
  1 34  1  0
  1 35  1  0
  2 36  1  6
  3 37  1  0
  3 38  1  0
  4 39  1  0
  4 40  1  0
  5 41  1  1
  8 42  1  0
  8 43  1  0
  8 44  1  0
  9 45  1  0
  9 46  1  0
  9 47  1  0
 10 48  1  6
 11 49  1  0
 11 50  1  0
 12 51  1  0
 12 52  1  0
 14 53  1  0
 14 54  1  0
 14 55  1  0
 15 56  1  1
 16 57  1  0
 16 58  1  0
 17 59  1  0
 19 60  1  6
 20 61  1  0
 20 62  1  0
 21 63  1  0
 21 64  1  0
 22 65  1  6
 23 66  1  0
 25 67  1  0
 25 68  1  0
 25 69  1  0
 26 70  1  0
 26 71  1  0
 26 72  1  0
 28 73  1  0
 28 74  1  0
 28 75  1  0
 29 76  1  0
 29 77  1  0
 30 78  1  0
 30 79  1  0
 32 80  1  0
 32 81  1  0
 32 82  1  0
M  END
>  <meeko>  (17) 
{"is_sidechain": [false], "intermolecular_energy": 2.731, "internal_energy": -0.839}

$$$$
EPH_relaxed_0001_pdb2pqr_Repair_400_r2_0001_out
     RDKit          3D

 82 86  0  0  0  0  0  0  0  0999 V2000
    0.8310   11.2390   -5.3610 C   0  0  0  0  0  0  0  0  0  0  0  0
    1.4120   12.5300   -4.7770 C   0  0  2  0  0  0  0  0  0  0  0  0
    2.9420   12.6070   -4.9450 C   0  0  0  0  0  0  0  0  0  0  0  0
    3.6230   11.2370   -5.0180 C   0  0  0  0  0  0  0  0  0  0  0  0
    4.7810   11.1420   -4.0700 C   0  0  2  0  0  0  0  0  0  0  0  0
    5.7080   12.2330   -4.1470 O   0  0  0  0  0  0  0  0  0  0  0  0
    6.2160   10.9420   -4.5210 C   0  0  0  0  0  0  0  0  0  0  0  0
    6.5690   10.8220   -5.9700 C   0  0  0  0  0  0  0  0  0  0  0  0
    7.1990   10.3750   -3.5440 C   0  0  0  0  0  0  0  0  0  0  0  0
    1.0430   12.6450   -3.3020 C   0  0  1  0  0  0  0  0  0  0  0  0
   -0.3840   13.2160   -3.0860 C   0  0  0  0  0  0  0  0  0  0  0  0
   -0.9640   12.5090   -1.8340 C   0  0  0  0  0  0  0  0  0  0  0  0
    0.2530   11.8100   -1.1830 C   0  0  1  0  0  0  0  0  0  0  0  0
    0.9720   12.9320   -0.3710 C   0  0  0  0  0  0  0  0  0  0  0  0
   -0.0610   10.5640   -0.2920 C   0  0  2  0  0  0  0  0  0  0  0  0
   -0.9270   10.8500    0.9480 C   0  0  0  0  0  0  0  0  0  0  0  0
   -0.1710   11.1950    2.1880 C   0  0  0  0  0  0  0  0  0  0  0  0
    1.1460   10.9970    2.3810 C   0  0  0  0  0  0  0  0  0  0  0  0
    1.9990   10.2810    1.3260 C   0  0  1  0  0  0  0  0  0  0  0  0
    2.8930    9.2190    2.0170 C   0  0  0  0  0  0  0  0  0  0  0  0
    3.7340    9.8070    3.1460 C   0  0  0  0  0  0  0  0  0  0  0  0
    2.8480   10.4590    4.2040 C   0  0  2  0  0  0  0  0  0  0  0  0
    2.0810    9.4410    4.8540 O   0  0  0  0  0  0  0  0  0  0  0  0
    1.8950   11.5410    3.6230 C   0  0  0  0  0  0  0  0  0  0  0  0
    2.7170   12.7800    3.1910 C   0  0  0  0  0  0  0  0  0  0  0  0
    0.9600   12.0170    4.7670 C   0  0  0  0  0  0  0  0  0  0  0  0
    1.2090    9.6950    0.0780 C   0  0  1  0  0  0  0  0  0  0  0  0
    0.6880    8.2620    0.4030 C   0  0  0  0  0  0  0  0  0  0  0  0
    2.2020    9.5420   -1.1340 C   0  0  0  0  0  0  0  0  0  0  0  0
    2.3790   10.7700   -2.0470 C   0  0  0  0  0  0  0  0  0  0  0  0
    1.0210   11.3380   -2.4710 C   0  0  2  0  0  0  0  0  0  0  0  0
    0.2830   10.2390   -3.3080 C   0  0  0  0  0  0  0  0  0  0  0  0
    0.5296   10.5693   -4.5421 H   0  0  0  0  0  0  0  0  0  0  0  0
   -0.0460   11.4788   -5.9802 H   0  0  0  0  0  0  0  0  0  0  0  0
    1.5921   10.7416   -5.9802 H   0  0  0  0  0  0  0  0  0  0  0  0
    0.9766   13.3713   -5.3362 H   0  0  0  0  0  0  0  0  0  0  0  0
    3.1623   13.1543   -5.8734 H   0  0  0  0  0  0  0  0  0  0  0  0
    3.3381   13.1159   -4.0538 H   0  0  0  0  0  0  0  0  0  0  0  0
    2.8881   10.4595   -4.7621 H   0  0  0  0  0  0  0  0  0  0  0  0
    4.0045   11.0977   -6.0403 H   0  0  0  0  0  0  0  0  0  0  0  0
    4.1613   10.6186   -3.3270 H   0  0  0  0  0  0  0  0  0  0  0  0
    7.6064   10.4693   -6.0667 H   0  0  0  0  0  0  0  0  0  0  0  0
    5.8910   10.1039   -6.4543 H   0  0  0  0  0  0  0  0  0  0  0  0
    6.4691   11.8046   -6.4543 H   0  0  0  0  0  0  0  0  0  0  0  0
    6.8536   10.5742   -2.5188 H   0  0  0  0  0  0  0  0  0  0  0  0
    7.2840    9.2891   -3.6977 H   0  0  0  0  0  0  0  0  0  0  0  0
    8.1815   10.8451   -3.6977 H   0  0  0  0  0  0  0  0  0  0  0  0
    1.8599   13.2962   -2.9575 H   0  0  0  0  0  0  0  0  0  0  0  0
   -0.3361   14.3023   -2.9195 H   0  0  0  0  0  0  0  0  0  0  0  0
   -1.0175   13.0400   -3.9679 H   0  0  0  0  0  0  0  0  0  0  0  0
   -1.4060   13.2424   -1.1435 H   0  0  0  0  0  0  0  0  0  0  0  0
   -1.7658   11.8002   -2.0886 H   0  0  0  0  0  0  0  0  0  0  0  0
    0.8498   12.7413    0.7054 H   0  0  0  0  0  0  0  0  0  0  0  0
    2.0427   12.9382   -0.6230 H   0  0  0  0  0  0  0  0  0  0  0  0
    0.5303   13.9074   -0.6230 H   0  0  0  0  0  0  0  0  0  0  0  0
   -0.6854    9.9496   -0.9573 H   0  0  0  0  0  0  0  0  0  0  0  0
   -1.5930   11.6926    0.7104 H   0  0  0  0  0  0  0  0  0  0  0  0
   -1.4617    9.9142    1.1681 H   0  0  0  0  0  0  0  0  0  0  0  0
   -0.7383   11.6494    3.0137 H   0  0  0  0  0  0  0  0  0  0  0  0
    2.6290   11.0567    0.8661 H   0  0  0  0  0  0  0  0  0  0  0  0
    2.2475    8.4308    2.4319 H   0  0  0  0  0  0  0  0  0  0  0  0
    3.5835    8.8200    1.2594 H   0  0  0  0  0  0  0  0  0  0  0  0
    4.3210    9.0029    3.6139 H   0  0  0  0  0  0  0  0  0  0  0  0
    4.3999   10.5744    2.7245 H   0  0  0  0  0  0  0  0  0  0  0  0
    3.5093   10.9738    4.9165 H   0  0  0  0  0  0  0  0  0  0  0  0
    1.9400    9.7210    5.7740 H   0  0  0  0  0  0  0  0  0  0  0  0
    3.0716   13.3145    4.0846 H   0  0  0  0  0  0  0  0  0  0  0  0
    3.5801   12.4563    2.5907 H   0  0  0  0  0  0  0  0  0  0  0  0
    2.0833   13.4494    2.5907 H   0  0  0  0  0  0  0  0  0  0  0  0
    1.4203   11.7827    5.7382 H   0  0  0  0  0  0  0  0  0  0  0  0
    0.8060   13.1032    4.6867 H   0  0  0  0  0  0  0  0  0  0  0  0
   -0.0089   11.5024    4.6867 H   0  0  0  0  0  0  0  0  0  0  0  0
    0.6393    8.1282    1.4937 H   0  0  0  0  0  0  0  0  0  0  0  0
   -0.3156    8.1303   -0.0277 H   0  0  0  0  0  0  0  0  0  0  0  0
    1.3726    7.5165   -0.0277 H   0  0  0  0  0  0  0  0  0  0  0  0
    3.1904    9.2870   -0.7241 H   0  0  0  0  0  0  0  0  0  0  0  0
    1.7552    8.7685   -1.7759 H   0  0  0  0  0  0  0  0  0  0  0  0
    2.9393   11.5449   -1.5033 H   0  0  0  0  0  0  0  0  0  0  0  0
    2.9269   10.4604   -2.9492 H   0  0  0  0  0  0  0  0  0  0  0  0
   -0.1987    9.5216   -2.6274 H   0  0  0  0  0  0  0  0  0  0  0  0
   -0.4809   10.7125   -3.9422 H   0  0  0  0  0  0  0  0  0  0  0  0
    1.0103    9.7111   -3.9422 H   0  0  0  0  0  0  0  0  0  0  0  0
  1  2  1  0
  2  3  1  0
  3  4  1  0
  4  5  1  0
  5  6  1  0
  6  7  1  0
  7  8  1  0
  7  9  1  0
  2 10  1  0
 10 11  1  0
 11 12  1  0
 12 13  1  0
 13 14  1  1
 13 15  1  0
 15 16  1  0
 16 17  1  0
 17 18  2  0
 18 19  1  0
 19 20  1  0
 20 21  1  0
 21 22  1  0
 22 23  1  0
 22 24  1  0
 24 25  1  0
 24 26  1  0
 19 27  1  0
 27 28  1  1
 27 29  1  0
 29 30  1  0
 30 31  1  0
 31 32  1  6
  7  5  1  0
 31 10  1  0
 31 13  1  0
 27 15  1  0
 24 18  1  0
  1 33  1  0
  1 34  1  0
  1 35  1  0
  2 36  1  6
  3 37  1  0
  3 38  1  0
  4 39  1  0
  4 40  1  0
  5 41  1  1
  8 42  1  0
  8 43  1  0
  8 44  1  0
  9 45  1  0
  9 46  1  0
  9 47  1  0
 10 48  1  1
 11 49  1  0
 11 50  1  0
 12 51  1  0
 12 52  1  0
 14 53  1  0
 14 54  1  0
 14 55  1  0
 15 56  1  6
 16 57  1  0
 16 58  1  0
 17 59  1  0
 19 60  1  6
 20 61  1  0
 20 62  1  0
 21 63  1  0
 21 64  1  0
 22 65  1  1
 23 66  1  0
 25 67  1  0
 25 68  1  0
 25 69  1  0
 26 70  1  0
 26 71  1  0
 26 72  1  0
 28 73  1  0
 28 74  1  0
 28 75  1  0
 29 76  1  0
 29 77  1  0
 30 78  1  0
 30 79  1  0
 32 80  1  0
 32 81  1  0
 32 82  1  0
M  END
>  <meeko>  (18) 
{"is_sidechain": [false], "intermolecular_energy": 2.731, "internal_energy": -0.839}

$$$$
EPH_relaxed_0001_pdb2pqr_Repair_400_r2_0001_out
     RDKit          3D

 82 86  0  0  0  0  0  0  0  0999 V2000
   -1.1600   16.1960   -5.5320 C   0  0  0  0  0  0  0  0  0  0  0  0
    0.0240   15.4930   -6.2020 C   0  0  2  0  0  0  0  0  0  0  0  0
   -0.2830   15.1020   -7.6610 C   0  0  0  0  0  0  0  0  0  0  0  0
    0.1570   16.1530   -8.6850 C   0  0  0  0  0  0  0  0  0  0  0  0
    1.5840   15.9590   -9.0990 C   0  0  2  0  0  0  0  0  0  0  0  0
    1.9880   16.7340  -10.2360 O   0  0  0  0  0  0  0  0  0  0  0  0
    1.9950   15.3070  -10.4070 C   0  0  0  0  0  0  0  0  0  0  0  0
    0.9770   14.8070  -11.3830 C   0  0  0  0  0  0  0  0  0  0  0  0
    3.3670   14.7200  -10.5130 C   0  0  0  0  0  0  0  0  0  0  0  0
    0.4140   14.2550   -5.4020 C   0  0  1  0  0  0  0  0  0  0  0  0
    1.4360   13.3580   -6.1500 C   0  0  0  0  0  0  0  0  0  0  0  0
    2.3700   12.7500   -5.0730 C   0  0  0  0  0  0  0  0  0  0  0  0
    1.6610   13.0450   -3.7300 C   0  0  1  0  0  0  0  0  0  0  0  0
    0.5750   11.9320   -3.5970 C   0  0  0  0  0  0  0  0  0  0  0  0
    2.5770   13.1120   -2.4650 C   0  0  2  0  0  0  0  0  0  0  0  0
    3.3120   11.8050   -2.1220 C   0  0  0  0  0  0  0  0  0  0  0  0
    2.5820   10.8860   -1.1990 C   0  0  0  0  0  0  0  0  0  0  0  0
    1.5190   11.2200   -0.4430 C   0  0  0  0  0  0  0  0  0  0  0  0
    1.0070   12.6650   -0.3980 C   0  0  1  0  0  0  0  0  0  0  0  0
    0.7520   13.0780    1.0760 C   0  0  0  0  0  0  0  0  0  0  0  0
   -0.1740   12.1080    1.8040 C   0  0  0  0  0  0  0  0  0  0  0  0
    0.3980   10.6930    1.7870 C   0  0  2  0  0  0  0  0  0  0  0  0
    1.5930   10.6700    2.5740 O   0  0  0  0  0  0  0  0  0  0  0  0
    0.7040   10.1720    0.3550 C   0  0  0  0  0  0  0  0  0  0  0  0
   -0.6230    9.9110   -0.3990 C   0  0  0  0  0  0  0  0  0  0  0  0
    1.4060    8.7940    0.4890 C   0  0  0  0  0  0  0  0  0  0  0  0
    1.8760   13.7340   -1.1900 C   0  0  1  0  0  0  0  0  0  0  0  0
    3.0170   14.2750   -0.2750 C   0  0  0  0  0  0  0  0  0  0  0  0
    0.9700   14.9700   -1.5480 C   0  0  0  0  0  0  0  0  0  0  0  0
    0.1820   14.8950   -2.8700 C   0  0  0  0  0  0  0  0  0  0  0  0
    1.0940   14.4810   -4.0290 C   0  0  2  0  0  0  0  0  0  0  0  0
    2.1830   15.5930   -4.2010 C   0  0  0  0  0  0  0  0  0  0  0  0
   -1.0533   16.1327   -4.4390 H   0  0  0  0  0  0  0  0  0  0  0  0
   -1.1800   17.2524   -5.8379 H   0  0  0  0  0  0  0  0  0  0  0  0
   -2.0971   15.7079   -5.8379 H   0  0  0  0  0  0  0  0  0  0  0  0
    0.8635   16.2036   -6.2203 H   0  0  0  0  0  0  0  0  0  0  0  0
    0.2378   14.1593   -7.8850 H   0  0  0  0  0  0  0  0  0  0  0  0
   -1.3757   15.0078   -7.7458 H   0  0  0  0  0  0  0  0  0  0  0  0
   -0.4860   16.0756   -9.5742 H   0  0  0  0  0  0  0  0  0  0  0  0
    0.0667   17.1452   -8.2188 H   0  0  0  0  0  0  0  0  0  0  0  0
    1.8863   15.7772   -8.0571 H   0  0  0  0  0  0  0  0  0  0  0  0
    0.1204   14.3863  -10.8361 H   0  0  0  0  0  0  0  0  0  0  0  0
    0.6352   15.6397  -12.0152 H   0  0  0  0  0  0  0  0  0  0  0  0
    1.4271   14.0274  -12.0152 H   0  0  0  0  0  0  0  0  0  0  0  0
    3.7708   14.5472   -9.5045 H   0  0  0  0  0  0  0  0  0  0  0  0
    3.3162   13.7648  -11.0562 H   0  0  0  0  0  0  0  0  0  0  0  0
    4.0228   15.4163  -11.0562 H   0  0  0  0  0  0  0  0  0  0  0  0
   -0.5802   13.8063   -5.2601 H   0  0  0  0  0  0  0  0  0  0  0  0
    0.9116   12.5574   -6.6922 H   0  0  0  0  0  0  0  0  0  0  0  0
    2.0090   13.9413   -6.8858 H   0  0  0  0  0  0  0  0  0  0  0  0
    2.4819   11.6661   -5.2232 H   0  0  0  0  0  0  0  0  0  0  0  0
    3.3837   13.1753   -5.1118 H   0  0  0  0  0  0  0  0  0  0  0  0
    0.3816   11.7338   -2.5324 H   0  0  0  0  0  0  0  0  0  0  0  0
   -0.3538   12.2661   -4.0824 H   0  0  0  0  0  0  0  0  0  0  0  0
    0.9318   11.0117   -4.0824 H   0  0  0  0  0  0  0  0  0  0  0  0
    3.3587   13.8205   -2.7764 H   0  0  0  0  0  0  0  0  0  0  0  0
    3.5002   11.2643   -3.0613 H   0  0  0  0  0  0  0  0  0  0  0  0
    4.2296   12.1018   -1.5930 H   0  0  0  0  0  0  0  0  0  0  0  0
    2.9429    9.8491   -1.1309 H   0  0  0  0  0  0  0  0  0  0  0  0
    0.0593   12.6694   -0.9564 H   0  0  0  0  0  0  0  0  0  0  0  0
    1.7159   13.1095    1.6051 H   0  0  0  0  0  0  0  0  0  0  0  0
    0.2627   14.0631    1.0667 H   0  0  0  0  0  0  0  0  0  0  0  0
   -0.2916   12.4365    2.8472 H   0  0  0  0  0  0  0  0  0  0  0  0
   -1.1475   12.0999    1.2919 H   0  0  0  0  0  0  0  0  0  0  0  0
   -0.3669   10.0228    2.2063 H   0  0  0  0  0  0  0  0  0  0  0  0
    1.3830   11.0580    3.4400 H   0  0  0  0  0  0  0  0  0  0  0  0
   -1.4328    9.7517    0.3283 H   0  0  0  0  0  0  0  0  0  0  0  0
   -0.8628   10.7792   -1.0305 H   0  0  0  0  0  0  0  0  0  0  0  0
   -0.5161    9.0167   -1.0305 H   0  0  0  0  0  0  0  0  0  0  0  0
    1.5312    8.5483    1.5539 H   0  0  0  0  0  0  0  0  0  0  0  0
    0.7919    8.0209    0.0040 H   0  0  0  0  0  0  0  0  0  0  0  0
    2.3924    8.8363    0.0040 H   0  0  0  0  0  0  0  0  0  0  0  0
    2.7354   14.1415    0.7799 H   0  0  0  0  0  0  0  0  0  0  0  0
    3.9450   13.7210   -0.4798 H   0  0  0  0  0  0  0  0  0  0  0  0
    3.1754   15.3441   -0.4798 H   0  0  0  0  0  0  0  0  0  0  0  0
    0.2417   15.0956   -0.7333 H   0  0  0  0  0  0  0  0  0  0  0  0
    1.6680   15.8104   -1.6766 H   0  0  0  0  0  0  0  0  0  0  0  0
   -0.6258   14.1557   -2.7660 H   0  0  0  0  0  0  0  0  0  0  0  0
   -0.2327   15.8902   -3.0882 H   0  0  0  0  0  0  0  0  0  0  0  0
    2.5177   15.9348   -3.2105 H   0  0  0  0  0  0  0  0  0  0  0  0
    3.0398   15.1843   -4.7567 H   0  0  0  0  0  0  0  0  0  0  0  0
    1.7565   16.4411   -4.7567 H   0  0  0  0  0  0  0  0  0  0  0  0
  1  2  1  0
  2  3  1  0
  3  4  1  0
  4  5  1  0
  5  6  1  0
  6  7  1  0
  7  8  1  0
  7  9  1  0
  2 10  1  0
 10 11  1  0
 11 12  1  0
 12 13  1  0
 13 14  1  1
 13 15  1  0
 15 16  1  0
 16 17  1  0
 17 18  2  0
 18 19  1  0
 19 20  1  0
 20 21  1  0
 21 22  1  0
 22 23  1  0
 22 24  1  0
 24 25  1  0
 24 26  1  0
 19 27  1  0
 27 28  1  1
 27 29  1  0
 29 30  1  0
 30 31  1  0
 31 32  1  6
  7  5  1  0
 31 10  1  0
 31 13  1  0
 27 15  1  0
 24 18  1  0
  1 33  1  0
  1 34  1  0
  1 35  1  0
  2 36  1  6
  3 37  1  0
  3 38  1  0
  4 39  1  0
  4 40  1  0
  5 41  1  1
  8 42  1  0
  8 43  1  0
  8 44  1  0
  9 45  1  0
  9 46  1  0
  9 47  1  0
 10 48  1  1
 11 49  1  0
 11 50  1  0
 12 51  1  0
 12 52  1  0
 14 53  1  0
 14 54  1  0
 14 55  1  0
 15 56  1  6
 16 57  1  0
 16 58  1  0
 17 59  1  0
 19 60  1  6
 20 61  1  0
 20 62  1  0
 21 63  1  0
 21 64  1  0
 22 65  1  1
 23 66  1  0
 25 67  1  0
 25 68  1  0
 25 69  1  0
 26 70  1  0
 26 71  1  0
 26 72  1  0
 28 73  1  0
 28 74  1  0
 28 75  1  0
 29 76  1  0
 29 77  1  0
 30 78  1  0
 30 79  1  0
 32 80  1  0
 32 81  1  0
 32 82  1  0
M  END
>  <meeko>  (19) 
{"is_sidechain": [false], "intermolecular_energy": 2.731, "internal_energy": -0.839}

$$$$
EPH_relaxed_0001_pdb2pqr_Repair_400_r2_0001_out
     RDKit          3D

 82 86  0  0  0  0  0  0  0  0999 V2000
   -3.6700    7.1810   -3.4030 C   0  0  0  0  0  0  0  0  0  0  0  0
   -3.7140    7.2680   -1.8750 C   0  0  2  0  0  0  0  0  0  0  0  0
   -5.1350    7.0460   -1.3210 C   0  0  0  0  0  0  0  0  0  0  0  0
   -6.2420    7.2950   -2.3480 C   0  0  0  0  0  0  0  0  0  0  0  0
   -7.5730    7.5040   -1.6900 C   0  0  2  0  0  0  0  0  0  0  0  0
   -8.1470    6.3250   -1.1130 O   0  0  0  0  0  0  0  0  0  0  0  0
   -8.8670    6.9080   -2.2110 C   0  0  0  0  0  0  0  0  0  0  0  0
   -8.8940    6.0570   -3.4420 C   0  0  0  0  0  0  0  0  0  0  0  0
  -10.1610    7.5470   -1.8130 C   0  0  0  0  0  0  0  0  0  0  0  0
   -3.1810    8.6210   -1.4160 C   0  0  1  0  0  0  0  0  0  0  0  0
   -3.8550    9.1160   -0.1090 C   0  0  0  0  0  0  0  0  0  0  0  0
   -2.7700    9.8800    0.6920 C   0  0  0  0  0  0  0  0  0  0  0  0
   -1.6140   10.0850   -0.3150 C   0  0  1  0  0  0  0  0  0  0  0  0
   -2.0380   11.3250   -1.1640 C   0  0  0  0  0  0  0  0  0  0  0  0
   -0.1870   10.2670    0.2990 C   0  0  2  0  0  0  0  0  0  0  0  0
   -0.0140   11.5070    1.1930 C   0  0  0  0  0  0  0  0  0  0  0  0
    0.4380   12.7430    0.4890 C   0  0  0  0  0  0  0  0  0  0  0  0
    0.9680   12.7890   -0.7480 C   0  0  0  0  0  0  0  0  0  0  0  0
    1.2480   11.5010   -1.5330 C   0  0  1  0  0  0  0  0  0  0  0  0
    2.6680   11.5720   -2.1530 C   0  0  0  0  0  0  0  0  0  0  0  0
    2.8770   12.8260   -2.9960 C   0  0  0  0  0  0  0  0  0  0  0  0
    2.6460   14.0860   -2.1650 C   0  0  2  0  0  0  0  0  0  0  0  0
    3.6710   14.1760   -1.1700 O   0  0  0  0  0  0  0  0  0  0  0  0
    1.2500   14.1220   -1.4830 C   0  0  0  0  0  0  0  0  0  0  0  0
    0.1520   14.3290   -2.5550 C   0  0  0  0  0  0  0  0  0  0  0  0
    1.2000   15.3730   -0.5640 C   0  0  0  0  0  0  0  0  0  0  0  0
    0.9900   10.1420   -0.7510 C   0  0  1  0  0  0  0  0  0  0  0  0
    2.2640    9.7420    0.0540 C   0  0  0  0  0  0  0  0  0  0  0  0
    0.7430    8.9880   -1.7930 C   0  0  0  0  0  0  0  0  0  0  0  0
   -0.7070    8.7820   -2.2710 C   0  0  0  0  0  0  0  0  0  0  0  0
   -1.6710    8.7150   -1.0820 C   0  0  2  0  0  0  0  0  0  0  0  0
   -1.2840    7.4640   -0.2210 C   0  0  0  0  0  0  0  0  0  0  0  0
   -3.1924    6.2366   -3.7029 H   0  0  0  0  0  0  0  0  0  0  0  0
   -4.6945    7.2166   -3.8019 H   0  0  0  0  0  0  0  0  0  0  0  0
   -3.0915    8.0273   -3.8019 H   0  0  0  0  0  0  0  0  0  0  0  0
   -3.0767    6.4634   -1.4794 H   0  0  0  0  0  0  0  0  0  0  0  0
   -5.2129    6.0058   -0.9718 H   0  0  0  0  0  0  0  0  0  0  0  0
   -5.2805    7.7736   -0.5089 H   0  0  0  0  0  0  0  0  0  0  0  0
   -5.9895    8.1911   -2.9339 H   0  0  0  0  0  0  0  0  0  0  0  0
   -6.3150    6.4083   -2.9948 H   0  0  0  0  0  0  0  0  0  0  0  0
   -7.2961    8.5291   -1.4029 H   0  0  0  0  0  0  0  0  0  0  0  0
   -8.9277    4.9960   -3.1536 H   0  0  0  0  0  0  0  0  0  0  0  0
   -9.7848    6.3033   -4.0385 H   0  0  0  0  0  0  0  0  0  0  0  0
   -7.9894    6.2463   -4.0385 H   0  0  0  0  0  0  0  0  0  0  0  0
  -10.2307    7.5814   -0.7158 H   0  0  0  0  0  0  0  0  0  0  0  0
  -10.2039    8.5699   -2.2154 H   0  0  0  0  0  0  0  0  0  0  0  0
  -10.9992    6.9592   -2.2154 H   0  0  0  0  0  0  0  0  0  0  0  0
   -3.4063    9.2207   -2.3102 H   0  0  0  0  0  0  0  0  0  0  0  0
   -4.6937    9.7871   -0.3460 H   0  0  0  0  0  0  0  0  0  0  0  0
   -4.2551    8.2727    0.4730 H   0  0  0  0  0  0  0  0  0  0  0  0
   -3.1560   10.8485    1.0426 H   0  0  0  0  0  0  0  0  0  0  0  0
   -2.4493    9.3304    1.5892 H   0  0  0  0  0  0  0  0  0  0  0  0
   -2.3200   12.1497   -0.4930 H   0  0  0  0  0  0  0  0  0  0  0  0
   -1.1965   11.6400   -1.7986 H   0  0  0  0  0  0  0  0  0  0  0  0
   -2.8962   11.0588   -1.7986 H   0  0  0  0  0  0  0  0  0  0  0  0
   -0.1076    9.4011    0.9727 H   0  0  0  0  0  0  0  0  0  0  0  0
   -0.9828   11.7214    1.6678 H   0  0  0  0  0  0  0  0  0  0  0  0
    0.7823   11.2567    1.9094 H   0  0  0  0  0  0  0  0  0  0  0  0
    0.3290   13.6968    1.0260 H   0  0  0  0  0  0  0  0  0  0  0  0
    0.4932   11.4612   -2.3321 H   0  0  0  0  0  0  0  0  0  0  0  0
    3.4084   11.5667   -1.3395 H   0  0  0  0  0  0  0  0  0  0  0  0
    2.7869   10.7015   -2.8149 H   0  0  0  0  0  0  0  0  0  0  0  0
    3.9070   12.8330   -3.3819 H   0  0  0  0  0  0  0  0  0  0  0  0
    2.1556   12.8155   -3.8264 H   0  0  0  0  0  0  0  0  0  0  0  0
    2.6819   14.9454   -2.8507 H   0  0  0  0  0  0  0  0  0  0  0  0
    3.8230   13.2810   -0.8230 H   0  0  0  0  0  0  0  0  0  0  0  0
   -0.8136   14.5110   -2.0605 H   0  0  0  0  0  0  0  0  0  0  0  0
    0.4112   15.1941   -3.1830 H   0  0  0  0  0  0  0  0  0  0  0  0
    0.0784   13.4289   -3.1830 H   0  0  0  0  0  0  0  0  0  0  0  0
    1.2127   15.0552    0.4890 H   0  0  0  0  0  0  0  0  0  0  0  0
    2.0734   16.0108   -0.7651 H   0  0  0  0  0  0  0  0  0  0  0  0
    0.2785   15.9391   -0.7651 H   0  0  0  0  0  0  0  0  0  0  0  0
    2.0527    9.8083    1.1315 H   0  0  0  0  0  0  0  0  0  0  0  0
    2.5500    8.7108   -0.2008 H   0  0  0  0  0  0  0  0  0  0  0  0
    3.0881   10.4246   -0.2008 H   0  0  0  0  0  0  0  0  0  0  0  0
    1.3582    9.2027   -2.6793 H   0  0  0  0  0  0  0  0  0  0  0  0
    1.0057    8.0606   -1.2629 H   0  0  0  0  0  0  0  0  0  0  0  0
   -0.9946    9.6217   -2.9208 H   0  0  0  0  0  0  0  0  0  0  0  0
   -0.7633    7.8320   -2.8227 H   0  0  0  0  0  0  0  0  0  0  0  0
   -1.3618    7.7156    0.8470 H   0  0  0  0  0  0  0  0  0  0  0  0
   -1.9673    6.6337   -0.4528 H   0  0  0  0  0  0  0  0  0  0  0  0
   -0.2512    7.1646   -0.4528 H   0  0  0  0  0  0  0  0  0  0  0  0
  1  2  1  0
  2  3  1  0
  3  4  1  0
  4  5  1  0
  5  6  1  0
  6  7  1  0
  7  8  1  0
  7  9  1  0
  2 10  1  0
 10 11  1  0
 11 12  1  0
 12 13  1  0
 13 14  1  6
 13 15  1  0
 15 16  1  0
 16 17  1  0
 17 18  2  0
 18 19  1  0
 19 20  1  0
 20 21  1  0
 21 22  1  0
 22 23  1  0
 22 24  1  0
 24 25  1  0
 24 26  1  0
 19 27  1  0
 27 28  1  1
 27 29  1  0
 29 30  1  0
 30 31  1  0
 31 32  1  1
  7  5  1  0
 31 10  1  0
 31 13  1  0
 27 15  1  0
 24 18  1  0
  1 33  1  0
  1 34  1  0
  1 35  1  0
  2 36  1  1
  3 37  1  0
  3 38  1  0
  4 39  1  0
  4 40  1  0
  5 41  1  1
  8 42  1  0
  8 43  1  0
  8 44  1  0
  9 45  1  0
  9 46  1  0
  9 47  1  0
 10 48  1  6
 11 49  1  0
 11 50  1  0
 12 51  1  0
 12 52  1  0
 14 53  1  0
 14 54  1  0
 14 55  1  0
 15 56  1  1
 16 57  1  0
 16 58  1  0
 17 59  1  0
 19 60  1  6
 20 61  1  0
 20 62  1  0
 21 63  1  0
 21 64  1  0
 22 65  1  6
 23 66  1  0
 25 67  1  0
 25 68  1  0
 25 69  1  0
 26 70  1  0
 26 71  1  0
 26 72  1  0
 28 73  1  0
 28 74  1  0
 28 75  1  0
 29 76  1  0
 29 77  1  0
 30 78  1  0
 30 79  1  0
 32 80  1  0
 32 81  1  0
 32 82  1  0
M  END
>  <meeko>  (20) 
{"is_sidechain": [false], "intermolecular_energy": 2.731, "internal_energy": -0.839}

$$$$
