EPH_relaxed_0001_pdb2pqr_Repair_66_r2_0001_out
     RDKit          3D

 82 86  0  0  0  0  0  0  0  0999 V2000
   -1.7340    8.5720   -1.8710 C   0  0  0  0  0  0  0  0  0  0  0  0
   -2.1120    9.0920   -0.4810 C   0  0  2  0  0  0  0  0  0  0  0  0
   -3.6060    9.4610   -0.3850 C   0  0  0  0  0  0  0  0  0  0  0  0
   -4.5280    8.2520   -0.2090 C   0  0  0  0  0  0  0  0  0  0  0  0
   -5.2370    7.9050   -1.4830 C   0  0  2  0  0  0  0  0  0  0  0  0
   -6.3370    8.7640   -1.8090 O   0  0  0  0  0  0  0  0  0  0  0  0
   -6.6640    7.3930   -1.5330 C   0  0  0  0  0  0  0  0  0  0  0  0
   -7.4680    7.1980   -0.2860 C   0  0  0  0  0  0  0  0  0  0  0  0
   -7.1070    6.6240   -2.7390 C   0  0  0  0  0  0  0  0  0  0  0  0
   -1.2530   10.3010   -0.1280 C   0  0  1  0  0  0  0  0  0  0  0  0
   -0.2320    9.9990    1.0010 C   0  0  0  0  0  0  0  0  0  0  0  0
    1.0420   10.8230    0.6840 C   0  0  0  0  0  0  0  0  0  0  0  0
    0.6010   11.8160   -0.4170 C   0  0  1  0  0  0  0  0  0  0  0  0
   -0.1100   12.9750    0.3500 C   0  0  0  0  0  0  0  0  0  0  0  0
    1.7300   12.3520   -1.3560 C   0  0  2  0  0  0  0  0  0  0  0  0
    2.8290   13.1700   -0.6550 C   0  0  0  0  0  0  0  0  0  0  0  0
    2.5800   14.6400   -0.5800 C   0  0  0  0  0  0  0  0  0  0  0  0
    1.6650   15.3160   -1.2980 C   0  0  0  0  0  0  0  0  0  0  0  0
    0.8270   14.6090   -2.3720 C   0  0  1  0  0  0  0  0  0  0  0  0
    0.8130   15.4670   -3.6650 C   0  0  0  0  0  0  0  0  0  0  0  0
    0.3500   16.8980   -3.4120 C   0  0  0  0  0  0  0  0  0  0  0  0
    1.2420   17.5860   -2.3820 C   0  0  2  0  0  0  0  0  0  0  0  0
    2.5490   17.7510   -2.9410 O   0  0  0  0  0  0  0  0  0  0  0  0
    1.3410   16.8080   -1.0410 C   0  0  0  0  0  0  0  0  0  0  0  0
   -0.0110   16.8900   -0.2900 C   0  0  0  0  0  0  0  0  0  0  0  0
    2.3800   17.5340   -0.1430 C   0  0  0  0  0  0  0  0  0  0  0  0
    1.1990   13.0890   -2.6520 C   0  0  1  0  0  0  0  0  0  0  0  0
    2.3410   13.0070   -3.7110 C   0  0  0  0  0  0  0  0  0  0  0  0
   -0.0470   12.3640   -3.2850 C   0  0  0  0  0  0  0  0  0  0  0  0
   -1.0660   11.7500   -2.3050 C   0  0  0  0  0  0  0  0  0  0  0  0
   -0.3620   10.8930   -1.2490 C   0  0  2  0  0  0  0  0  0  0  0  0
    0.3440    9.7060   -1.9880 C   0  0  0  0  0  0  0  0  0  0  0  0
   -1.0900    7.6861   -1.7684 H   0  0  0  0  0  0  0  0  0  0  0  0
   -2.6467    8.3001   -2.4215 H   0  0  0  0  0  0  0  0  0  0  0  0
   -1.1937    9.3563   -2.4215 H   0  0  0  0  0  0  0  0  0  0  0  0
   -1.9262    8.2805    0.2380 H   0  0  0  0  0  0  0  0  0  0  0  0
   -3.7436   10.1311    0.4764 H   0  0  0  0  0  0  0  0  0  0  0  0
   -3.8809    9.9393   -1.3367 H   0  0  0  0  0  0  0  0  0  0  0  0
   -3.9263    7.3884    0.1106 H   0  0  0  0  0  0  0  0  0  0  0  0
   -5.2858    8.5060    0.5468 H   0  0  0  0  0  0  0  0  0  0  0  0
   -4.3031    7.5320   -1.9288 H   0  0  0  0  0  0  0  0  0  0  0  0
   -6.8251    7.3539    0.5929 H   0  0  0  0  0  0  0  0  0  0  0  0
   -8.2966    7.9212   -0.2671 H   0  0  0  0  0  0  0  0  0  0  0  0
   -7.8732    6.1755   -0.2671 H   0  0  0  0  0  0  0  0  0  0  0  0
   -7.6324    5.7119   -2.4196 H   0  0  0  0  0  0  0  0  0  0  0  0
   -7.7852    7.2459   -3.3417 H   0  0  0  0  0  0  0  0  0  0  0  0
   -6.2288    6.3493   -3.3417 H   0  0  0  0  0  0  0  0  0  0  0  0
   -2.0440   11.0165    0.1408 H   0  0  0  0  0  0  0  0  0  0  0  0
   -0.6448   10.2995    1.9753 H   0  0  0  0  0  0  0  0  0  0  0  0
   -0.0048    8.9239    1.0508 H   0  0  0  0  0  0  0  0  0  0  0  0
    1.3876   11.3628    1.5779 H   0  0  0  0  0  0  0  0  0  0  0  0
    1.8799   10.1877    0.3612 H   0  0  0  0  0  0  0  0  0  0  0  0
   -0.0106   12.8129    1.4334 H   0  0  0  0  0  0  0  0  0  0  0  0
    0.3554   13.9340    0.0785 H   0  0  0  0  0  0  0  0  0  0  0  0
   -1.1758   12.9947    0.0785 H   0  0  0  0  0  0  0  0  0  0  0  0
    2.2169   11.4247   -1.6923 H   0  0  0  0  0  0  0  0  0  0  0  0
    2.9327   12.7900    0.3721 H   0  0  0  0  0  0  0  0  0  0  0  0
    3.7363   13.0458   -1.2644 H   0  0  0  0  0  0  0  0  0  0  0  0
    3.1972   15.2197    0.1221 H   0  0  0  0  0  0  0  0  0  0  0  0
   -0.1914   14.5332   -1.9631 H   0  0  0  0  0  0  0  0  0  0  0  0
    1.8308   15.4940   -4.0813 H   0  0  0  0  0  0  0  0  0  0  0  0
    0.1016   15.0046   -4.3650 H   0  0  0  0  0  0  0  0  0  0  0  0
    0.3895   17.4613   -4.3560 H   0  0  0  0  0  0  0  0  0  0  0  0
   -0.6786   16.8706   -3.0232 H   0  0  0  0  0  0  0  0  0  0  0  0
    0.7853   18.5587   -2.1468 H   0  0  0  0  0  0  0  0  0  0  0  0
    2.9210   16.8640   -3.0860 H   0  0  0  0  0  0  0  0  0  0  0  0
    0.1709   16.8790    0.7948 H   0  0  0  0  0  0  0  0  0  0  0  0
   -0.5277   17.8211   -0.5657 H   0  0  0  0  0  0  0  0  0  0  0  0
   -0.6364   16.0281   -0.5657 H   0  0  0  0  0  0  0  0  0  0  0  0
    2.1338   17.3620    0.9152 H   0  0  0  0  0  0  0  0  0  0  0  0
    3.3854   17.1408   -0.3541 H   0  0  0  0  0  0  0  0  0  0  0  0
    2.3565   18.6133   -0.3541 H   0  0  0  0  0  0  0  0  0  0  0  0
    3.3119   12.9373   -3.1986 H   0  0  0  0  0  0  0  0  0  0  0  0
    2.1940   12.1171   -4.3407 H   0  0  0  0  0  0  0  0  0  0  0  0
    2.3226   13.9088   -4.3407 H   0  0  0  0  0  0  0  0  0  0  0  0
   -0.5818   13.1002   -3.9031 H   0  0  0  0  0  0  0  0  0  0  0  0
    0.3684   11.5103   -3.8405 H   0  0  0  0  0  0  0  0  0  0  0  0
   -1.6159   12.5598   -1.8032 H   0  0  0  0  0  0  0  0  0  0  0  0
   -1.7573   11.1099   -2.8727 H   0  0  0  0  0  0  0  0  0  0  0  0
    0.7594    9.0076   -1.2466 H   0  0  0  0  0  0  0  0  0  0  0  0
   -0.3877    9.1793   -2.6182 H   0  0  0  0  0  0  0  0  0  0  0  0
    1.1561   10.0975   -2.6182 H   0  0  0  0  0  0  0  0  0  0  0  0
  1  2  1  0
  2  3  1  0
  3  4  1  0
  4  5  1  0
  5  6  1  0
  6  7  1  0
  7  8  1  0
  7  9  1  0
  2 10  1  0
 10 11  1  0
 11 12  1  0
 12 13  1  0
 13 14  1  1
 13 15  1  0
 15 16  1  0
 16 17  1  0
 17 18  2  0
 18 19  1  0
 19 20  1  0
 20 21  1  0
 21 22  1  0
 22 23  1  0
 22 24  1  0
 24 25  1  0
 24 26  1  0
 19 27  1  0
 27 28  1  6
 27 29  1  0
 29 30  1  0
 30 31  1  0
 31 32  1  6
  7  5  1  0
 31 10  1  0
 31 13  1  0
 27 15  1  0
 24 18  1  0
  1 33  1  0
  1 34  1  0
  1 35  1  0
  2 36  1  1
  3 37  1  0
  3 38  1  0
  4 39  1  0
  4 40  1  0
  5 41  1  6
  8 42  1  0
  8 43  1  0
  8 44  1  0
  9 45  1  0
  9 46  1  0
  9 47  1  0
 10 48  1  1
 11 49  1  0
 11 50  1  0
 12 51  1  0
 12 52  1  0
 14 53  1  0
 14 54  1  0
 14 55  1  0
 15 56  1  6
 16 57  1  0
 16 58  1  0
 17 59  1  0
 19 60  1  1
 20 61  1  0
 20 62  1  0
 21 63  1  0
 21 64  1  0
 22 65  1  1
 23 66  1  0
 25 67  1  0
 25 68  1  0
 25 69  1  0
 26 70  1  0
 26 71  1  0
 26 72  1  0
 28 73  1  0
 28 74  1  0
 28 75  1  0
 29 76  1  0
 29 77  1  0
 30 78  1  0
 30 79  1  0
 32 80  1  0
 32 81  1  0
 32 82  1  0
M  END
>  <meeko>  (1) 
{"is_sidechain": [false], "intermolecular_energy": 2.731, "internal_energy": -0.839}

$$$$
EPH_relaxed_0001_pdb2pqr_Repair_66_r2_0001_out
     RDKit          3D

 82 86  0  0  0  0  0  0  0  0999 V2000
    2.4790   17.9320   -2.6500 C   0  0  0  0  0  0  0  0  0  0  0  0
    1.1290   17.6110   -2.0020 C   0  0  2  0  0  0  0  0  0  0  0  0
    1.1850   17.7090   -0.4640 C   0  0  0  0  0  0  0  0  0  0  0  0
    0.8470   19.1010    0.0760 C   0  0  0  0  0  0  0  0  0  0  0  0
   -0.5930   19.2060    0.4770 C   0  0  2  0  0  0  0  0  0  0  0  0
   -1.4640   18.2670   -0.1680 O   0  0  0  0  0  0  0  0  0  0  0  0
   -1.6940   19.6540   -0.4660 C   0  0  0  0  0  0  0  0  0  0  0  0
   -1.4010   20.0280   -1.8850 C   0  0  0  0  0  0  0  0  0  0  0  0
   -2.9620   20.1940    0.1190 C   0  0  0  0  0  0  0  0  0  0  0  0
    0.6710   16.2190   -2.4190 C   0  0  1  0  0  0  0  0  0  0  0  0
    0.7830   15.9860   -3.9490 C   0  0  0  0  0  0  0  0  0  0  0  0
    1.1690   14.4980   -4.1480 C   0  0  0  0  0  0  0  0  0  0  0  0
    0.9430   13.8470   -2.7630 C   0  0  1  0  0  0  0  0  0  0  0  0
   -0.5910   13.5700   -2.6960 C   0  0  0  0  0  0  0  0  0  0  0  0
    1.7760   12.5590   -2.4600 C   0  0  2  0  0  0  0  0  0  0  0  0
    1.4930   11.3660   -3.3890 C   0  0  0  0  0  0  0  0  0  0  0  0
    0.4170   10.4390   -2.9260 C   0  0  0  0  0  0  0  0  0  0  0  0
   -0.0960   10.3960   -1.6820 C   0  0  0  0  0  0  0  0  0  0  0  0
    0.4770   11.2750   -0.5630 C   0  0  1  0  0  0  0  0  0  0  0  0
    0.6800   10.4180    0.7150 C   0  0  0  0  0  0  0  0  0  0  0  0
   -0.5920    9.6890    1.1380 C   0  0  0  0  0  0  0  0  0  0  0  0
   -1.0980    8.7820    0.0200 C   0  0  2  0  0  0  0  0  0  0  0  0
   -0.1550    7.7240   -0.1780 O   0  0  0  0  0  0  0  0  0  0  0  0
   -1.3300    9.5330   -1.3210 C   0  0  0  0  0  0  0  0  0  0  0  0
   -2.5560   10.4690   -1.1880 C   0  0  0  0  0  0  0  0  0  0  0  0
   -1.7020    8.4800   -2.4000 C   0  0  0  0  0  0  0  0  0  0  0  0
    1.7670   12.1240   -0.9390 C   0  0  1  0  0  0  0  0  0  0  0  0
    3.0510   11.2700   -0.7120 C   0  0  0  0  0  0  0  0  0  0  0  0
    1.8740   13.3550    0.0360 C   0  0  0  0  0  0  0  0  0  0  0  0
    1.1260   14.6370   -0.3770 C   0  0  0  0  0  0  0  0  0  0  0  0
    1.4410   15.0100   -1.8290 C   0  0  2  0  0  0  0  0  0  0  0  0
    2.9740   15.3160   -1.9230 C   0  0  0  0  0  0  0  0  0  0  0  0
    3.2291   18.1104   -1.8655 H   0  0  0  0  0  0  0  0  0  0  0  0
    2.7965   17.0843   -3.2750 H   0  0  0  0  0  0  0  0  0  0  0  0
    2.3810   18.8319   -3.2750 H   0  0  0  0  0  0  0  0  0  0  0  0
    0.4059   18.3614   -2.3541 H   0  0  0  0  0  0  0  0  0  0  0  0
    0.4669   16.9895   -0.0437 H   0  0  0  0  0  0  0  0  0  0  0  0
    2.2209   17.4908   -0.1652 H   0  0  0  0  0  0  0  0  0  0  0  0
    1.4773   19.3053    0.9541 H   0  0  0  0  0  0  0  0  0  0  0  0
    1.0344   19.8333   -0.7231 H   0  0  0  0  0  0  0  0  0  0  0  0
   -0.3116   19.5309    1.4896 H   0  0  0  0  0  0  0  0  0  0  0  0
   -0.7227   20.8938   -1.9034 H   0  0  0  0  0  0  0  0  0  0  0  0
   -0.9254   19.1787   -2.3973 H   0  0  0  0  0  0  0  0  0  0  0  0
   -2.3395   20.2865   -2.3973 H   0  0  0  0  0  0  0  0  0  0  0  0
   -2.8997   20.1675    1.2169 H   0  0  0  0  0  0  0  0  0  0  0  0
   -3.1070   21.2320   -0.2151 H   0  0  0  0  0  0  0  0  0  0  0  0
   -3.8109   19.5793   -0.2151 H   0  0  0  0  0  0  0  0  0  0  0  0
   -0.3566   16.2385   -2.0270 H   0  0  0  0  0  0  0  0  0  0  0  0
   -0.1810   16.1955   -4.4356 H   0  0  0  0  0  0  0  0  0  0  0  0
    1.5356   16.6523   -4.3958 H   0  0  0  0  0  0  0  0  0  0  0  0
    0.5263   14.0284   -4.9072 H   0  0  0  0  0  0  0  0  0  0  0  0
    2.2042   14.3794   -4.5005 H   0  0  0  0  0  0  0  0  0  0  0  0
   -0.9077   13.5128   -1.6441 H   0  0  0  0  0  0  0  0  0  0  0  0
   -1.1330   14.3848   -3.1983 H   0  0  0  0  0  0  0  0  0  0  0  0
   -0.8138   12.6171   -3.1983 H   0  0  0  0  0  0  0  0  0  0  0  0
    2.8018   12.8809   -2.6925 H   0  0  0  0  0  0  0  0  0  0  0  0
    1.2002   11.7627   -4.3723 H   0  0  0  0  0  0  0  0  0  0  0  0
    2.4182   10.7715   -3.4120 H   0  0  0  0  0  0  0  0  0  0  0  0
    0.0095    9.7320   -3.6636 H   0  0  0  0  0  0  0  0  0  0  0  0
   -0.2745   12.0558   -0.3746 H   0  0  0  0  0  0  0  0  0  0  0  0
    1.4650    9.6728    0.5190 H   0  0  0  0  0  0  0  0  0  0  0  0
    0.9628   11.0981    1.5320 H   0  0  0  0  0  0  0  0  0  0  0  0
   -0.3782    9.0786    2.0278 H   0  0  0  0  0  0  0  0  0  0  0  0
   -1.3673   10.4366    1.3617 H   0  0  0  0  0  0  0  0  0  0  0  0
   -2.0766    8.3886    0.3323 H   0  0  0  0  0  0  0  0  0  0  0  0
   -0.5110    7.1380   -0.8670 H   0  0  0  0  0  0  0  0  0  0  0  0
   -2.7755   10.6366   -0.1232 H   0  0  0  0  0  0  0  0  0  0  0  0
   -2.3368   11.4316   -1.6731 H   0  0  0  0  0  0  0  0  0  0  0  0
   -3.4268   10.0038   -1.6731 H   0  0  0  0  0  0  0  0  0  0  0  0
   -2.0299    7.5519   -1.9089 H   0  0  0  0  0  0  0  0  0  0  0  0
   -2.5167    8.8703   -3.0277 H   0  0  0  0  0  0  0  0  0  0  0  0
   -0.8230    8.2719   -3.0277 H   0  0  0  0  0  0  0  0  0  0  0  0
    3.2273   11.1528    0.3674 H   0  0  0  0  0  0  0  0  0  0  0  0
    2.9185   10.2794   -1.1716 H   0  0  0  0  0  0  0  0  0  0  0  0
    3.9133   11.7751   -1.1716 H   0  0  0  0  0  0  0  0  0  0  0  0
    1.4797   13.0402    1.0135 H   0  0  0  0  0  0  0  0  0  0  0  0
    2.9389   13.6307    0.0347 H   0  0  0  0  0  0  0  0  0  0  0  0
    0.0434   14.4712   -0.2745 H   0  0  0  0  0  0  0  0  0  0  0  0
    1.4522   15.4600    0.2759 H   0  0  0  0  0  0  0  0  0  0  0  0
    3.3940   15.3998   -0.9098 H   0  0  0  0  0  0  0  0  0  0  0  0
    3.4782   14.5008   -2.4626 H   0  0  0  0  0  0  0  0  0  0  0  0
    3.1266   16.2623   -2.4626 H   0  0  0  0  0  0  0  0  0  0  0  0
  1  2  1  0
  2  3  1  0
  3  4  1  0
  4  5  1  0
  5  6  1  0
  6  7  1  0
  7  8  1  0
  7  9  1  0
  2 10  1  0
 10 11  1  0
 11 12  1  0
 12 13  1  0
 13 14  1  1
 13 15  1  0
 15 16  1  0
 16 17  1  0
 17 18  2  0
 18 19  1  0
 19 20  1  0
 20 21  1  0
 21 22  1  0
 22 23  1  0
 22 24  1  0
 24 25  1  0
 24 26  1  0
 19 27  1  0
 27 28  1  6
 27 29  1  0
 29 30  1  0
 30 31  1  0
 31 32  1  1
  7  5  1  0
 31 10  1  0
 31 13  1  0
 27 15  1  0
 24 18  1  0
  1 33  1  0
  1 34  1  0
  1 35  1  0
  2 36  1  6
  3 37  1  0
  3 38  1  0
  4 39  1  0
  4 40  1  0
  5 41  1  1
  8 42  1  0
  8 43  1  0
  8 44  1  0
  9 45  1  0
  9 46  1  0
  9 47  1  0
 10 48  1  1
 11 49  1  0
 11 50  1  0
 12 51  1  0
 12 52  1  0
 14 53  1  0
 14 54  1  0
 14 55  1  0
 15 56  1  6
 16 57  1  0
 16 58  1  0
 17 59  1  0
 19 60  1  1
 20 61  1  0
 20 62  1  0
 21 63  1  0
 21 64  1  0
 22 65  1  1
 23 66  1  0
 25 67  1  0
 25 68  1  0
 25 69  1  0
 26 70  1  0
 26 71  1  0
 26 72  1  0
 28 73  1  0
 28 74  1  0
 28 75  1  0
 29 76  1  0
 29 77  1  0
 30 78  1  0
 30 79  1  0
 32 80  1  0
 32 81  1  0
 32 82  1  0
M  END
>  <meeko>  (2) 
{"is_sidechain": [false], "intermolecular_energy": 2.731, "internal_energy": -0.839}

$$$$
EPH_relaxed_0001_pdb2pqr_Repair_66_r2_0001_out
     RDKit          3D

 82 86  0  0  0  0  0  0  0  0999 V2000
    1.9660   19.6110   -0.6180 C   0  0  0  0  0  0  0  0  0  0  0  0
    2.3800   18.3890    0.2070 C   0  0  2  0  0  0  0  0  0  0  0  0
    3.8260   17.9460   -0.0960 C   0  0  0  0  0  0  0  0  0  0  0  0
    4.7920   18.1600    1.0720 C   0  0  0  0  0  0  0  0  0  0  0  0
    4.1610   18.9540    2.1750 C   0  0  2  0  0  0  0  0  0  0  0  0
    4.9060   20.1100    2.5830 O   0  0  0  0  0  0  0  0  0  0  0  0
    4.7560   19.0730    3.5660 C   0  0  0  0  0  0  0  0  0  0  0  0
    6.0360   18.3880    3.9280 C   0  0  0  0  0  0  0  0  0  0  0  0
    3.8530   19.4450    4.7010 C   0  0  0  0  0  0  0  0  0  0  0  0
    1.4170   17.2360   -0.0530 C   0  0  1  0  0  0  0  0  0  0  0  0
    0.1250   17.6900   -0.7840 C   0  0  0  0  0  0  0  0  0  0  0  0
   -0.2860   16.5310   -1.7270 C   0  0  0  0  0  0  0  0  0  0  0  0
    0.5780   15.3310   -1.2710 C   0  0  1  0  0  0  0  0  0  0  0  0
   -0.1670   14.7520   -0.0270 C   0  0  0  0  0  0  0  0  0  0  0  0
    0.8520   14.2290   -2.3450 C   0  0  2  0  0  0  0  0  0  0  0  0
   -0.3990   13.5010   -2.8670 C   0  0  0  0  0  0  0  0  0  0  0  0
   -0.7830   12.2720   -2.1110 C   0  0  0  0  0  0  0  0  0  0  0  0
    0.0010   11.6130   -1.2380 C   0  0  0  0  0  0  0  0  0  0  0  0
    1.4570   12.0390   -1.0100 C   0  0  1  0  0  0  0  0  0  0  0  0
    2.3730   10.7880   -1.0350 C   0  0  0  0  0  0  0  0  0  0  0  0
    1.9200    9.7110   -0.0540 C   0  0  0  0  0  0  0  0  0  0  0  0
    0.4880    9.2720   -0.3490 C   0  0  2  0  0  0  0  0  0  0  0  0
    0.4630    8.6040   -1.6140 O   0  0  0  0  0  0  0  0  0  0  0  0
   -0.5250   10.4510   -0.3600 C   0  0  0  0  0  0  0  0  0  0  0  0
   -0.7210   10.9820    1.0810 C   0  0  0  0  0  0  0  0  0  0  0  0
   -1.9020    9.8930   -0.8090 C   0  0  0  0  0  0  0  0  0  0  0  0
    1.9930   13.2060   -1.9470 C   0  0  1  0  0  0  0  0  0  0  0  0
    2.5410   12.6100   -3.2800 C   0  0  0  0  0  0  0  0  0  0  0  0
    3.2110   13.9130   -1.2430 C   0  0  0  0  0  0  0  0  0  0  0  0
    2.8820   15.0730   -0.2840 C   0  0  0  0  0  0  0  0  0  0  0  0
    1.9240   16.0720   -0.9410 C   0  0  2  0  0  0  0  0  0  0  0  0
    2.6540   16.6890   -2.1830 C   0  0  0  0  0  0  0  0  0  0  0  0
    1.6876   20.4327    0.0582 H   0  0  0  0  0  0  0  0  0  0  0  0
    2.8072   19.9272   -1.2524 H   0  0  0  0  0  0  0  0  0  0  0  0
    1.1059   19.3508   -1.2524 H   0  0  0  0  0  0  0  0  0  0  0  0
    2.3384   18.6766    1.2679 H   0  0  0  0  0  0  0  0  0  0  0  0
    3.8159   16.8750   -0.3467 H   0  0  0  0  0  0  0  0  0  0  0  0
    4.1853   18.5683   -0.9288 H   0  0  0  0  0  0  0  0  0  0  0  0
    5.0959   17.1796    1.4674 H   0  0  0  0  0  0  0  0  0  0  0  0
    5.6614   18.7216    0.6994 H   0  0  0  0  0  0  0  0  0  0  0  0
    3.1537   18.6861    1.8236 H   0  0  0  0  0  0  0  0  0  0  0  0
    6.1284   18.3385    5.0230 H   0  0  0  0  0  0  0  0  0  0  0  0
    6.0365   17.3691    3.5136 H   0  0  0  0  0  0  0  0  0  0  0  0
    6.8841   18.9528    3.5136 H   0  0  0  0  0  0  0  0  0  0  0  0
    4.3587   19.2367    5.6554 H   0  0  0  0  0  0  0  0  0  0  0  0
    3.6105   20.5163    4.6407 H   0  0  0  0  0  0  0  0  0  0  0  0
    2.9263   18.8554    4.6407 H   0  0  0  0  0  0  0  0  0  0  0  0
    1.2675   16.8847    0.9786 H   0  0  0  0  0  0  0  0  0  0  0  0
   -0.6742   17.8860   -0.0541 H   0  0  0  0  0  0  0  0  0  0  0  0
    0.2966   18.6176   -1.3498 H   0  0  0  0  0  0  0  0  0  0  0  0
   -1.3564   16.3025   -1.6176 H   0  0  0  0  0  0  0  0  0  0  0  0
   -0.1279   16.7797   -2.7868 H   0  0  0  0  0  0  0  0  0  0  0  0
    0.3105   15.1231    0.8919 H   0  0  0  0  0  0  0  0  0  0  0  0
   -1.2193   15.0717   -0.0482 H   0  0  0  0  0  0  0  0  0  0  0  0
   -0.1170   13.6533   -0.0482 H   0  0  0  0  0  0  0  0  0  0  0  0
    1.2314   14.8161   -3.1943 H   0  0  0  0  0  0  0  0  0  0  0  0
   -1.2439   14.2041   -2.8248 H   0  0  0  0  0  0  0  0  0  0  0  0
   -0.1543   13.1676   -3.8863 H   0  0  0  0  0  0  0  0  0  0  0  0
   -1.7929   11.8710   -2.2822 H   0  0  0  0  0  0  0  0  0  0  0  0
    1.4851   12.5023   -0.0127 H   0  0  0  0  0  0  0  0  0  0  0  0
    2.3652   10.3656   -2.0506 H   0  0  0  0  0  0  0  0  0  0  0  0
    3.3825   11.1076   -0.7370 H   0  0  0  0  0  0  0  0  0  0  0  0
    2.5881    8.8414   -0.1402 H   0  0  0  0  0  0  0  0  0  0  0  0
    1.9576   10.1253    0.9643 H   0  0  0  0  0  0  0  0  0  0  0  0
    0.1753    8.5986    0.4626 H   0  0  0  0  0  0  0  0  0  0  0  0
    1.3770    8.5610   -1.9430 H   0  0  0  0  0  0  0  0  0  0  0  0
   -0.4332   10.2022    1.8014 H   0  0  0  0  0  0  0  0  0  0  0  0
   -0.0920   11.8716    1.2327 H   0  0  0  0  0  0  0  0  0  0  0  0
   -1.7771   11.2495    1.2327 H   0  0  0  0  0  0  0  0  0  0  0  0
   -2.5053    9.6485    0.0777 H   0  0  0  0  0  0  0  0  0  0  0  0
   -2.4256   10.6499   -1.4114 H   0  0  0  0  0  0  0  0  0  0  0  0
   -1.7510    8.9851   -1.4114 H   0  0  0  0  0  0  0  0  0  0  0  0
    3.2698   11.8174   -3.0550 H   0  0  0  0  0  0  0  0  0  0  0  0
    1.7087   12.1882   -3.8626 H   0  0  0  0  0  0  0  0  0  0  0  0
    3.0310   13.4040   -3.8626 H   0  0  0  0  0  0  0  0  0  0  0  0
    3.7519   13.1480   -0.6666 H   0  0  0  0  0  0  0  0  0  0  0  0
    3.7894   14.3701   -2.0595 H   0  0  0  0  0  0  0  0  0  0  0  0
    2.4118   14.6671    0.6239 H   0  0  0  0  0  0  0  0  0  0  0  0
    3.8163   15.5962   -0.0324 H   0  0  0  0  0  0  0  0  0  0  0  0
    3.4525   17.3639   -1.8411 H   0  0  0  0  0  0  0  0  0  0  0  0
    3.0907   15.8821   -2.7898 H   0  0  0  0  0  0  0  0  0  0  0  0
    1.9312   17.2540   -2.7898 H   0  0  0  0  0  0  0  0  0  0  0  0
  1  2  1  0
  2  3  1  0
  3  4  1  0
  4  5  1  0
  5  6  1  0
  6  7  1  0
  7  8  1  0
  7  9  1  0
  2 10  1  0
 10 11  1  0
 11 12  1  0
 12 13  1  0
 13 14  1  1
 13 15  1  0
 15 16  1  0
 16 17  1  0
 17 18  2  0
 18 19  1  0
 19 20  1  0
 20 21  1  0
 21 22  1  0
 22 23  1  0
 22 24  1  0
 24 25  1  0
 24 26  1  0
 19 27  1  0
 27 28  1  6
 27 29  1  0
 29 30  1  0
 30 31  1  0
 31 32  1  6
  7  5  1  0
 31 10  1  0
 31 13  1  0
 27 15  1  0
 24 18  1  0
  1 33  1  0
  1 34  1  0
  1 35  1  0
  2 36  1  1
  3 37  1  0
  3 38  1  0
  4 39  1  0
  4 40  1  0
  5 41  1  1
  8 42  1  0
  8 43  1  0
  8 44  1  0
  9 45  1  0
  9 46  1  0
  9 47  1  0
 10 48  1  1
 11 49  1  0
 11 50  1  0
 12 51  1  0
 12 52  1  0
 14 53  1  0
 14 54  1  0
 14 55  1  0
 15 56  1  6
 16 57  1  0
 16 58  1  0
 17 59  1  0
 19 60  1  1
 20 61  1  0
 20 62  1  0
 21 63  1  0
 21 64  1  0
 22 65  1  1
 23 66  1  0
 25 67  1  0
 25 68  1  0
 25 69  1  0
 26 70  1  0
 26 71  1  0
 26 72  1  0
 28 73  1  0
 28 74  1  0
 28 75  1  0
 29 76  1  0
 29 77  1  0
 30 78  1  0
 30 79  1  0
 32 80  1  0
 32 81  1  0
 32 82  1  0
M  END
>  <meeko>  (3) 
{"is_sidechain": [false], "intermolecular_energy": 2.731, "internal_energy": -0.839}

$$$$
EPH_relaxed_0001_pdb2pqr_Repair_66_r2_0001_out
     RDKit          3D

 82 86  0  0  0  0  0  0  0  0999 V2000
    2.0810   18.1310   -2.6940 C   0  0  0  0  0  0  0  0  0  0  0  0
    0.8000   17.6980   -1.9760 C   0  0  2  0  0  0  0  0  0  0  0  0
    0.9440   17.7640   -0.4420 C   0  0  0  0  0  0  0  0  0  0  0  0
    2.3610   18.1000    0.0300 C   0  0  0  0  0  0  0  0  0  0  0  0
    2.3620   19.2070    1.0400 C   0  0  2  0  0  0  0  0  0  0  0  0
    3.3840   20.1940    0.8460 O   0  0  0  0  0  0  0  0  0  0  0  0
    3.4730   19.4160    2.0510 C   0  0  0  0  0  0  0  0  0  0  0  0
    4.6620   18.5090    2.1030 C   0  0  0  0  0  0  0  0  0  0  0  0
    3.1720   20.1940    3.2940 C   0  0  0  0  0  0  0  0  0  0  0  0
    0.4160   16.2870   -2.4030 C   0  0  1  0  0  0  0  0  0  0  0  0
    0.5140   16.0800   -3.9380 C   0  0  0  0  0  0  0  0  0  0  0  0
    0.9820   14.6190   -4.1640 C   0  0  0  0  0  0  0  0  0  0  0  0
    0.8190   13.9400   -2.7840 C   0  0  1  0  0  0  0  0  0  0  0  0
   -0.6950   13.5730   -2.6940 C   0  0  0  0  0  0  0  0  0  0  0  0
    1.7310   12.6990   -2.5130 C   0  0  2  0  0  0  0  0  0  0  0  0
    1.5000   11.5020   -3.4520 C   0  0  0  0  0  0  0  0  0  0  0  0
    0.4890   10.5090   -2.9830 C   0  0  0  0  0  0  0  0  0  0  0  0
    0.0010   10.4210   -1.7320 C   0  0  0  0  0  0  0  0  0  0  0  0
    0.5420   11.3170   -0.6110 C   0  0  1  0  0  0  0  0  0  0  0  0
    0.8160   10.4580    0.6520 C   0  0  0  0  0  0  0  0  0  0  0  0
   -0.4030    9.6510    1.0870 C   0  0  0  0  0  0  0  0  0  0  0  0
   -0.8760    8.7300   -0.0350 C   0  0  2  0  0  0  0  0  0  0  0  0
    0.1230    7.7310   -0.2620 O   0  0  0  0  0  0  0  0  0  0  0  0
   -1.1740    9.4830   -1.3610 C   0  0  0  0  0  0  0  0  0  0  0  0
   -2.4500   10.3450   -1.1950 C   0  0  0  0  0  0  0  0  0  0  0  0
   -1.5040    8.4240   -2.4470 C   0  0  0  0  0  0  0  0  0  0  0  0
    1.7730   12.2450   -0.9980 C   0  0  1  0  0  0  0  0  0  0  0  0
    3.1090   11.4640   -0.8040 C   0  0  0  0  0  0  0  0  0  0  0  0
    1.8260   13.4680   -0.0070 C   0  0  0  0  0  0  0  0  0  0  0  0
    0.9990   14.7090   -0.3910 C   0  0  0  0  0  0  0  0  0  0  0  0
    1.2650   15.1180   -1.8430 C   0  0  2  0  0  0  0  0  0  0  0  0
    2.7760   15.5140   -1.9590 C   0  0  0  0  0  0  0  0  0  0  0  0
    2.8485   18.3904   -1.9500 H   0  0  0  0  0  0  0  0  0  0  0  0
    2.4450   17.3060   -3.3239 H   0  0  0  0  0  0  0  0  0  0  0  0
    1.8698   19.0077   -3.3239 H   0  0  0  0  0  0  0  0  0  0  0  0
    0.0053   18.4020   -2.2637 H   0  0  0  0  0  0  0  0  0  0  0  0
    0.2592   18.5365   -0.0620 H   0  0  0  0  0  0  0  0  0  0  0  0
    0.7051   16.7629   -0.0537 H   0  0  0  0  0  0  0  0  0  0  0  0
    2.8074   17.2030    0.4841 H   0  0  0  0  0  0  0  0  0  0  0  0
    2.9429   18.4320   -0.8425 H   0  0  0  0  0  0  0  0  0  0  0  0
    1.2693   19.1409    1.1479 H   0  0  0  0  0  0  0  0  0  0  0  0
    4.9247   18.3086    3.1522 H   0  0  0  0  0  0  0  0  0  0  0  0
    4.4230   17.5617    1.5975 H   0  0  0  0  0  0  0  0  0  0  0  0
    5.5124   18.9899    1.5975 H   0  0  0  0  0  0  0  0  0  0  0  0
    3.4090   19.5814    4.1764 H   0  0  0  0  0  0  0  0  0  0  0  0
    3.7806   21.1102    3.3095 H   0  0  0  0  0  0  0  0  0  0  0  0
    2.1053   20.4621    3.3095 H   0  0  0  0  0  0  0  0  0  0  0  0
   -0.6036   16.2416   -1.9927 H   0  0  0  0  0  0  0  0  0  0  0  0
   -0.4691   16.2393   -4.4051 H   0  0  0  0  0  0  0  0  0  0  0  0
    1.2188   16.7944   -4.3884 H   0  0  0  0  0  0  0  0  0  0  0  0
    0.3538   14.1221   -4.9180 H   0  0  0  0  0  0  0  0  0  0  0  0
    2.0156   14.5647   -4.5365 H   0  0  0  0  0  0  0  0  0  0  0  0
   -0.9926   13.5009   -1.6375 H   0  0  0  0  0  0  0  0  0  0  0  0
   -1.2914   14.3526   -3.1905 H   0  0  0  0  0  0  0  0  0  0  0  0
   -0.8682   12.6069   -3.1905 H   0  0  0  0  0  0  0  0  0  0  0  0
    2.7319   13.0831   -2.7595 H   0  0  0  0  0  0  0  0  0  0  0  0
    1.1668   11.8926   -4.4248 H   0  0  0  0  0  0  0  0  0  0  0  0
    2.4575   10.9625   -3.4982 H   0  0  0  0  0  0  0  0  0  0  0  0
    0.1108    9.7880   -3.7227 H   0  0  0  0  0  0  0  0  0  0  0  0
   -0.2500   12.0502   -0.3985 H   0  0  0  0  0  0  0  0  0  0  0  0
    1.6395    9.7623    0.4333 H   0  0  0  0  0  0  0  0  0  0  0  0
    1.0722   11.1440    1.4729 H   0  0  0  0  0  0  0  0  0  0  0  0
   -0.1378    9.0428    1.9644 H   0  0  0  0  0  0  0  0  0  0  0  0
   -1.2162   10.3491    1.3347 H   0  0  0  0  0  0  0  0  0  0  0  0
   -1.8251    8.2768    0.2873 H   0  0  0  0  0  0  0  0  0  0  0  0
    0.9250    8.1830   -0.5750 H   0  0  0  0  0  0  0  0  0  0  0  0
   -2.6600   10.4868   -0.1246 H   0  0  0  0  0  0  0  0  0  0  0  0
   -2.2954   11.3244   -1.6713 H   0  0  0  0  0  0  0  0  0  0  0  0
   -3.3009    9.8359   -1.6713 H   0  0  0  0  0  0  0  0  0  0  0  0
   -1.7978    7.4812   -1.9625 H   0  0  0  0  0  0  0  0  0  0  0  0
   -2.3315    8.7874   -3.0740 H   0  0  0  0  0  0  0  0  0  0  0  0
   -0.6165    8.2530   -3.0740 H   0  0  0  0  0  0  0  0  0  0  0  0
    3.3117   11.3455    0.2706 H   0  0  0  0  0  0  0  0  0  0  0  0
    3.0255   10.4725   -1.2729 H   0  0  0  0  0  0  0  0  0  0  0  0
    3.9320   12.0232   -1.2729 H   0  0  0  0  0  0  0  0  0  0  0  0
    1.4668   13.1187    0.9723 H   0  0  0  0  0  0  0  0  0  0  0  0
    2.8732   13.8044   -0.0206 H   0  0  0  0  0  0  0  0  0  0  0  0
   -0.0702   14.4797   -0.2720 H   0  0  0  0  0  0  0  0  0  0  0  0
    1.2901   15.5414    0.2666 H   0  0  0  0  0  0  0  0  0  0  0  0
    3.2040   15.6262   -0.9519 H   0  0  0  0  0  0  0  0  0  0  0  0
    3.3203   14.7282   -2.5033 H   0  0  0  0  0  0  0  0  0  0  0  0
    2.8649   16.4658   -2.5033 H   0  0  0  0  0  0  0  0  0  0  0  0
  1  2  1  0
  2  3  1  0
  3  4  1  0
  4  5  1  0
  5  6  1  0
  6  7  1  0
  7  8  1  0
  7  9  1  0
  2 10  1  0
 10 11  1  0
 11 12  1  0
 12 13  1  0
 13 14  1  1
 13 15  1  0
 15 16  1  0
 16 17  1  0
 17 18  2  0
 18 19  1  0
 19 20  1  0
 20 21  1  0
 21 22  1  0
 22 23  1  0
 22 24  1  0
 24 25  1  0
 24 26  1  0
 19 27  1  0
 27 28  1  6
 27 29  1  0
 29 30  1  0
 30 31  1  0
 31 32  1  1
  7  5  1  0
 31 10  1  0
 31 13  1  0
 27 15  1  0
 24 18  1  0
  1 33  1  0
  1 34  1  0
  1 35  1  0
  2 36  1  6
  3 37  1  0
  3 38  1  0
  4 39  1  0
  4 40  1  0
  5 41  1  1
  8 42  1  0
  8 43  1  0
  8 44  1  0
  9 45  1  0
  9 46  1  0
  9 47  1  0
 10 48  1  1
 11 49  1  0
 11 50  1  0
 12 51  1  0
 12 52  1  0
 14 53  1  0
 14 54  1  0
 14 55  1  0
 15 56  1  6
 16 57  1  0
 16 58  1  0
 17 59  1  0
 19 60  1  1
 20 61  1  0
 20 62  1  0
 21 63  1  0
 21 64  1  0
 22 65  1  1
 23 66  1  0
 25 67  1  0
 25 68  1  0
 25 69  1  0
 26 70  1  0
 26 71  1  0
 26 72  1  0
 28 73  1  0
 28 74  1  0
 28 75  1  0
 29 76  1  0
 29 77  1  0
 30 78  1  0
 30 79  1  0
 32 80  1  0
 32 81  1  0
 32 82  1  0
M  END
>  <meeko>  (4) 
{"is_sidechain": [false], "intermolecular_energy": 2.731, "internal_energy": -0.839}

$$$$
EPH_relaxed_0001_pdb2pqr_Repair_66_r2_0001_out
     RDKit          3D

 82 86  0  0  0  0  0  0  0  0999 V2000
   -3.3560    9.2200    0.5280 C   0  0  0  0  0  0  0  0  0  0  0  0
   -2.5620    9.6230   -0.7180 C   0  0  2  0  0  0  0  0  0  0  0  0
   -1.8930    8.4120   -1.3980 C   0  0  0  0  0  0  0  0  0  0  0  0
   -2.8210    7.6500   -2.3490 C   0  0  0  0  0  0  0  0  0  0  0  0
   -4.2550    7.7540   -1.9260 C   0  0  2  0  0  0  0  0  0  0  0  0
   -4.8000    6.5540   -1.3610 O   0  0  0  0  0  0  0  0  0  0  0  0
   -5.3820    6.9940   -2.5990 C   0  0  0  0  0  0  0  0  0  0  0  0
   -5.1250    6.0760   -3.7520 C   0  0  0  0  0  0  0  0  0  0  0  0
   -6.7790    7.5130   -2.4570 C   0  0  0  0  0  0  0  0  0  0  0  0
   -1.5080   10.6610   -0.3490 C   0  0  1  0  0  0  0  0  0  0  0  0
   -0.4070   10.0890    0.5830 C   0  0  0  0  0  0  0  0  0  0  0  0
    0.9190   10.7880    0.1900 C   0  0  0  0  0  0  0  0  0  0  0  0
    0.4870   11.9650   -0.7150 C   0  0  1  0  0  0  0  0  0  0  0  0
    0.0420   13.0880    0.2740 C   0  0  0  0  0  0  0  0  0  0  0  0
    1.5540   12.4830   -1.7330 C   0  0  2  0  0  0  0  0  0  0  0  0
    2.8330   13.0600   -1.1020 C   0  0  0  0  0  0  0  0  0  0  0  0
    2.8000   14.5260   -0.8210 C   0  0  0  0  0  0  0  0  0  0  0  0
    1.9040   15.3980   -1.3210 C   0  0  0  0  0  0  0  0  0  0  0  0
    0.8520   14.9480   -2.3420 C   0  0  1  0  0  0  0  0  0  0  0  0
    0.7970   15.9670   -3.5110 C   0  0  0  0  0  0  0  0  0  0  0  0
    0.5690   17.3970   -3.0310 C   0  0  0  0  0  0  0  0  0  0  0  0
    1.6680   17.8280   -2.0620 C   0  0  2  0  0  0  0  0  0  0  0  0
    2.9060   17.9060   -2.7750 O   0  0  0  0  0  0  0  0  0  0  0  0
    1.8240   16.8700   -0.8470 C   0  0  0  0  0  0  0  0  0  0  0  0
    0.5980   17.0130    0.0890 C   0  0  0  0  0  0  0  0  0  0  0  0
    3.0550   17.3390   -0.0250 C   0  0  0  0  0  0  0  0  0  0  0  0
    0.9740   13.4460   -2.8470 C   0  0  1  0  0  0  0  0  0  0  0  0
    1.9540   13.3690   -4.0570 C   0  0  0  0  0  0  0  0  0  0  0  0
   -0.4280   12.9680   -3.3800 C   0  0  0  0  0  0  0  0  0  0  0  0
   -1.3930   12.3560   -2.3470 C   0  0  0  0  0  0  0  0  0  0  0  0
   -0.6900   11.2860   -1.5060 C   0  0  2  0  0  0  0  0  0  0  0  0
   -0.2500   10.1320   -2.4710 C   0  0  0  0  0  0  0  0  0  0  0  0
   -2.7937    9.5054    1.4293 H   0  0  0  0  0  0  0  0  0  0  0  0
   -4.3288    9.7335    0.5248 H   0  0  0  0  0  0  0  0  0  0  0  0
   -3.5158    8.1317    0.5248 H   0  0  0  0  0  0  0  0  0  0  0  0
   -3.2731   10.0541   -1.4381 H   0  0  0  0  0  0  0  0  0  0  0  0
   -1.0262    8.7711   -1.9721 H   0  0  0  0  0  0  0  0  0  0  0  0
   -1.6063    7.7123   -0.5991 H   0  0  0  0  0  0  0  0  0  0  0  0
   -2.7165    8.0689   -3.3607 H   0  0  0  0  0  0  0  0  0  0  0  0
   -2.5342    6.5882   -2.3303 H   0  0  0  0  0  0  0  0  0  0  0  0
   -4.1293    8.8176   -1.6751 H   0  0  0  0  0  0  0  0  0  0  0  0
   -4.8465    5.0813   -3.3737 H   0  0  0  0  0  0  0  0  0  0  0  0
   -6.0346    5.9937   -4.3650 H   0  0  0  0  0  0  0  0  0  0  0  0
   -4.3049    6.4780   -4.3650 H   0  0  0  0  0  0  0  0  0  0  0  0
   -7.0289    7.6059   -1.3898 H   0  0  0  0  0  0  0  0  0  0  0  0
   -6.8545    8.4992   -2.9384 H   0  0  0  0  0  0  0  0  0  0  0  0
   -7.4801    6.8153   -2.9384 H   0  0  0  0  0  0  0  0  0  0  0  0
   -2.1536   11.4242    0.1101 H   0  0  0  0  0  0  0  0  0  0  0  0
   -0.6513   10.3035    1.6339 H   0  0  0  0  0  0  0  0  0  0  0  0
   -0.3254    8.9974    0.4742 H   0  0  0  0  0  0  0  0  0  0  0  0
    1.4428   11.1576    1.0839 H   0  0  0  0  0  0  0  0  0  0  0  0
    1.6155   10.1051   -0.3184 H   0  0  0  0  0  0  0  0  0  0  0  0
    0.1795   12.7410    1.3087 H   0  0  0  0  0  0  0  0  0  0  0  0
    0.6514   13.9880    0.1051 H   0  0  0  0  0  0  0  0  0  0  0  0
   -1.0185   13.3263    0.1051 H   0  0  0  0  0  0  0  0  0  0  0  0
    1.8631   11.5573   -2.2405 H   0  0  0  0  0  0  0  0  0  0  0  0
    3.0094   12.5356   -0.1513 H   0  0  0  0  0  0  0  0  0  0  0  0
    3.6322   12.9100   -1.8428 H   0  0  0  0  0  0  0  0  0  0  0  0
    3.5727   14.9275   -0.1489 H   0  0  0  0  0  0  0  0  0  0  0  0
   -0.1089   14.9413   -1.8066 H   0  0  0  0  0  0  0  0  0  0  0  0
    1.7500   15.9268   -4.0588 H   0  0  0  0  0  0  0  0  0  0  0  0
   -0.0519   15.6916   -4.1541 H   0  0  0  0  0  0  0  0  0  0  0  0
    0.5688   18.0726   -3.8991 H   0  0  0  0  0  0  0  0  0  0  0  0
   -0.3980   17.4426   -2.5087 H   0  0  0  0  0  0  0  0  0  0  0  0
    1.3821   18.8085   -1.6535 H   0  0  0  0  0  0  0  0  0  0  0  0
    3.0940   17.0240   -3.1360 H   0  0  0  0  0  0  0  0  0  0  0  0
    0.9302   16.9742    1.1369 H   0  0  0  0  0  0  0  0  0  0  0  0
    0.1006   17.9752   -0.1026 H   0  0  0  0  0  0  0  0  0  0  0  0
   -0.1075   16.1911   -0.1026 H   0  0  0  0  0  0  0  0  0  0  0  0
    2.8326   17.2543    1.0490 H   0  0  0  0  0  0  0  0  0  0  0  0
    3.9220   16.7082   -0.2708 H   0  0  0  0  0  0  0  0  0  0  0  0
    3.2825   18.3868   -0.2708 H   0  0  0  0  0  0  0  0  0  0  0  0
    2.9870   13.2878   -3.6876 H   0  0  0  0  0  0  0  0  0  0  0  0
    1.7129   12.4870   -4.6686 H   0  0  0  0  0  0  0  0  0  0  0  0
    1.8536   14.2778   -4.6686 H   0  0  0  0  0  0  0  0  0  0  0  0
   -0.9285   13.8395   -3.8272 H   0  0  0  0  0  0  0  0  0  0  0  0
   -0.2051   12.1523   -4.0836 H   0  0  0  0  0  0  0  0  0  0  0  0
   -1.7606   13.1518   -1.6825 H   0  0  0  0  0  0  0  0  0  0  0  0
   -2.2297   11.8857   -2.8844 H   0  0  0  0  0  0  0  0  0  0  0  0
    0.0804    9.2654   -1.8795 H   0  0  0  0  0  0  0  0  0  0  0  0
   -1.1000    9.8404   -3.1054 H   0  0  0  0  0  0  0  0  0  0  0  0
    0.5784   10.4803   -3.1054 H   0  0  0  0  0  0  0  0  0  0  0  0
  1  2  1  0
  2  3  1  0
  3  4  1  0
  4  5  1  0
  5  6  1  0
  6  7  1  0
  7  8  1  0
  7  9  1  0
  2 10  1  0
 10 11  1  0
 11 12  1  0
 12 13  1  0
 13 14  1  1
 13 15  1  0
 15 16  1  0
 16 17  1  0
 17 18  2  0
 18 19  1  0
 19 20  1  0
 20 21  1  0
 21 22  1  0
 22 23  1  0
 22 24  1  0
 24 25  1  0
 24 26  1  0
 19 27  1  0
 27 28  1  6
 27 29  1  0
 29 30  1  0
 30 31  1  0
 31 32  1  6
  7  5  1  0
 31 10  1  0
 31 13  1  0
 27 15  1  0
 24 18  1  0
  1 33  1  0
  1 34  1  0
  1 35  1  0
  2 36  1  6
  3 37  1  0
  3 38  1  0
  4 39  1  0
  4 40  1  0
  5 41  1  1
  8 42  1  0
  8 43  1  0
  8 44  1  0
  9 45  1  0
  9 46  1  0
  9 47  1  0
 10 48  1  1
 11 49  1  0
 11 50  1  0
 12 51  1  0
 12 52  1  0
 14 53  1  0
 14 54  1  0
 14 55  1  0
 15 56  1  6
 16 57  1  0
 16 58  1  0
 17 59  1  0
 19 60  1  1
 20 61  1  0
 20 62  1  0
 21 63  1  0
 21 64  1  0
 22 65  1  1
 23 66  1  0
 25 67  1  0
 25 68  1  0
 25 69  1  0
 26 70  1  0
 26 71  1  0
 26 72  1  0
 28 73  1  0
 28 74  1  0
 28 75  1  0
 29 76  1  0
 29 77  1  0
 30 78  1  0
 30 79  1  0
 32 80  1  0
 32 81  1  0
 32 82  1  0
M  END
>  <meeko>  (5) 
{"is_sidechain": [false], "intermolecular_energy": 2.731, "internal_energy": -0.839}

$$$$
EPH_relaxed_0001_pdb2pqr_Repair_66_r2_0001_out
     RDKit          3D

 82 86  0  0  0  0  0  0  0  0999 V2000
    3.7510   17.9330    0.6900 C   0  0  0  0  0  0  0  0  0  0  0  0
    2.6910   18.3860   -0.3190 C   0  0  2  0  0  0  0  0  0  0  0  0
    1.9610   19.6650    0.1390 C   0  0  0  0  0  0  0  0  0  0  0  0
    0.7410   19.3940    1.0230 C   0  0  0  0  0  0  0  0  0  0  0  0
   -0.4850   20.0810    0.5010 C   0  0  2  0  0  0  0  0  0  0  0  0
   -1.5560   20.1940    1.4470 O   0  0  0  0  0  0  0  0  0  0  0  0
   -1.8130   19.3790    0.2920 C   0  0  0  0  0  0  0  0  0  0  0  0
   -1.9840   17.9240    0.6000 C   0  0  0  0  0  0  0  0  0  0  0  0
   -2.7970   19.9790   -0.6630 C   0  0  0  0  0  0  0  0  0  0  0  0
    1.6830   17.2660   -0.5520 C   0  0  1  0  0  0  0  0  0  0  0  0
    0.4830   17.7150   -1.4280 C   0  0  0  0  0  0  0  0  0  0  0  0
    0.0780   16.4930   -2.2910 C   0  0  0  0  0  0  0  0  0  0  0  0
    0.8280   15.3000   -1.6540 C   0  0  1  0  0  0  0  0  0  0  0  0
   -0.0460   14.8840   -0.4290 C   0  0  0  0  0  0  0  0  0  0  0  0
    1.1190   14.0850   -2.5940 C   0  0  2  0  0  0  0  0  0  0  0  0
   -0.1290   13.3770   -3.1510 C   0  0  0  0  0  0  0  0  0  0  0  0
   -0.6460   12.2500   -2.3200 C   0  0  0  0  0  0  0  0  0  0  0  0
    0.0250   11.6380   -1.3270 C   0  0  0  0  0  0  0  0  0  0  0  0
    1.4820   12.0060   -1.0170 C   0  0  1  0  0  0  0  0  0  0  0  0
    2.3190   10.7110   -0.8490 C   0  0  0  0  0  0  0  0  0  0  0  0
    1.7250    9.7610    0.1860 C   0  0  0  0  0  0  0  0  0  0  0  0
    0.2970    9.3720   -0.1870 C   0  0  2  0  0  0  0  0  0  0  0  0
    0.3310    8.5860   -1.3820 O   0  0  0  0  0  0  0  0  0  0  0  0
   -0.6380   10.5960   -0.3920 C   0  0  0  0  0  0  0  0  0  0  0  0
   -0.9150   11.2740    0.9720 C   0  0  0  0  0  0  0  0  0  0  0  0
   -2.0070   10.0710   -0.9020 C   0  0  0  0  0  0  0  0  0  0  0  0
    2.1600   13.0470   -2.0090 C   0  0  1  0  0  0  0  0  0  0  0  0
    2.7740   12.2950   -3.2300 C   0  0  0  0  0  0  0  0  0  0  0  0
    3.3590   13.7520   -1.2730 C   0  0  0  0  0  0  0  0  0  0  0  0
    3.0270   15.0160   -0.4570 C   0  0  0  0  0  0  0  0  0  0  0  0
    2.1870   15.9960   -1.2820 C   0  0  2  0  0  0  0  0  0  0  0  0
    3.0490   16.4490   -2.5100 C   0  0  0  0  0  0  0  0  0  0  0  0
    3.3766   18.0930    1.7119 H   0  0  0  0  0  0  0  0  0  0  0  0
    3.9658   16.8645    0.5413 H   0  0  0  0  0  0  0  0  0  0  0  0
    4.6717   18.5163    0.5413 H   0  0  0  0  0  0  0  0  0  0  0  0
    3.2097   18.6215   -1.2600 H   0  0  0  0  0  0  0  0  0  0  0  0
    2.6702   20.2853    0.7066 H   0  0  0  0  0  0  0  0  0  0  0  0
    1.5954   20.1688   -0.7679 H   0  0  0  0  0  0  0  0  0  0  0  0
    0.5566   18.3100    1.0536 H   0  0  0  0  0  0  0  0  0  0  0  0
    0.9521   19.7862    2.0288 H   0  0  0  0  0  0  0  0  0  0  0  0
    0.1239   20.7181   -0.1573 H   0  0  0  0  0  0  0  0  0  0  0  0
   -2.0010   17.7795    1.6903 H   0  0  0  0  0  0  0  0  0  0  0  0
   -2.9303   17.5665    0.1680 H   0  0  0  0  0  0  0  0  0  0  0  0
   -1.1463   17.3568    0.1680 H   0  0  0  0  0  0  0  0  0  0  0  0
   -3.6030   20.4705   -0.0984 H   0  0  0  0  0  0  0  0  0  0  0  0
   -2.2880   20.7206   -1.2962 H   0  0  0  0  0  0  0  0  0  0  0  0
   -3.2232   19.1869   -1.2962 H   0  0  0  0  0  0  0  0  0  0  0  0
    1.4309   17.0249    0.4912 H   0  0  0  0  0  0  0  0  0  0  0  0
   -0.3579   18.0232   -0.7894 H   0  0  0  0  0  0  0  0  0  0  0  0
    0.7547   18.5729   -2.0606 H   0  0  0  0  0  0  0  0  0  0  0  0
   -1.0097   16.3334   -2.2520 H   0  0  0  0  0  0  0  0  0  0  0  0
    0.3343   16.6283   -3.3521 H   0  0  0  0  0  0  0  0  0  0  0  0
    0.4835   15.1360    0.5017 H   0  0  0  0  0  0  0  0  0  0  0  0
   -1.0046   15.4224   -0.4628 H   0  0  0  0  0  0  0  0  0  0  0  0
   -0.2326   13.8005   -0.4628 H   0  0  0  0  0  0  0  0  0  0  0  0
    1.6001   14.5660   -3.4584 H   0  0  0  0  0  0  0  0  0  0  0  0
   -0.9301   14.1248   -3.2461 H   0  0  0  0  0  0  0  0  0  0  0  0
    0.1752   12.9334   -4.1105 H   0  0  0  0  0  0  0  0  0  0  0  0
   -1.6620   11.8890   -2.5379 H   0  0  0  0  0  0  0  0  0  0  0  0
    1.4601   12.5614   -0.0678 H   0  0  0  0  0  0  0  0  0  0  0  0
    2.3650   10.1926   -1.8181 H   0  0  0  0  0  0  0  0  0  0  0  0
    3.3198   11.0033   -0.4984 H   0  0  0  0  0  0  0  0  0  0  0  0
    2.3436    8.8529    0.2381 H   0  0  0  0  0  0  0  0  0  0  0  0
    1.7070   10.2704    1.1608 H   0  0  0  0  0  0  0  0  0  0  0  0
   -0.1191    8.7981    0.6541 H   0  0  0  0  0  0  0  0  0  0  0  0
    1.0340    8.9450   -1.9500 H   0  0  0  0  0  0  0  0  0  0  0  0
   -0.6350   10.5887    1.7857 H   0  0  0  0  0  0  0  0  0  0  0  0
   -0.3220   12.1972    1.0497 H   0  0  0  0  0  0  0  0  0  0  0  0
   -1.9848   11.5178    1.0497 H   0  0  0  0  0  0  0  0  0  0  0  0
   -2.6485    9.8250   -0.0429 H   0  0  0  0  0  0  0  0  0  0  0  0
   -2.4929   10.8466   -1.5122 H   0  0  0  0  0  0  0  0  0  0  0  0
   -1.8497    9.1694   -1.5122 H   0  0  0  0  0  0  0  0  0  0  0  0
    3.4317   11.4894   -2.8716 H   0  0  0  0  0  0  0  0  0  0  0  0
    1.9659   11.8646   -3.8397 H   0  0  0  0  0  0  0  0  0  0  0  0
    3.3573   13.0007   -3.8397 H   0  0  0  0  0  0  0  0  0  0  0  0
    3.8041   13.0188   -0.5843 H   0  0  0  0  0  0  0  0  0  0  0  0
    4.0276   14.0954   -2.0761 H   0  0  0  0  0  0  0  0  0  0  0  0
    2.4627   14.7263    0.4417 H   0  0  0  0  0  0  0  0  0  0  0  0
    3.9689   15.5105   -0.1773 H   0  0  0  0  0  0  0  0  0  0  0  0
    3.9700   16.9330   -2.1529 H   0  0  0  0  0  0  0  0  0  0  0  0
    3.3088   15.5709   -3.1195 H   0  0  0  0  0  0  0  0  0  0  0  0
    2.4732   17.1610   -3.1195 H   0  0  0  0  0  0  0  0  0  0  0  0
  1  2  1  0
  2  3  1  0
  3  4  1  0
  4  5  1  0
  5  6  1  0
  6  7  1  0
  7  8  1  0
  7  9  1  0
  2 10  1  0
 10 11  1  0
 11 12  1  0
 12 13  1  0
 13 14  1  1
 13 15  1  0
 15 16  1  0
 16 17  1  0
 17 18  2  0
 18 19  1  0
 19 20  1  0
 20 21  1  0
 21 22  1  0
 22 23  1  0
 22 24  1  0
 24 25  1  0
 24 26  1  0
 19 27  1  0
 27 28  1  6
 27 29  1  0
 29 30  1  0
 30 31  1  0
 31 32  1  6
  7  5  1  0
 31 10  1  0
 31 13  1  0
 27 15  1  0
 24 18  1  0
  1 33  1  0
  1 34  1  0
  1 35  1  0
  2 36  1  6
  3 37  1  0
  3 38  1  0
  4 39  1  0
  4 40  1  0
  5 41  1  6
  8 42  1  0
  8 43  1  0
  8 44  1  0
  9 45  1  0
  9 46  1  0
  9 47  1  0
 10 48  1  1
 11 49  1  0
 11 50  1  0
 12 51  1  0
 12 52  1  0
 14 53  1  0
 14 54  1  0
 14 55  1  0
 15 56  1  6
 16 57  1  0
 16 58  1  0
 17 59  1  0
 19 60  1  1
 20 61  1  0
 20 62  1  0
 21 63  1  0
 21 64  1  0
 22 65  1  1
 23 66  1  0
 25 67  1  0
 25 68  1  0
 25 69  1  0
 26 70  1  0
 26 71  1  0
 26 72  1  0
 28 73  1  0
 28 74  1  0
 28 75  1  0
 29 76  1  0
 29 77  1  0
 30 78  1  0
 30 79  1  0
 32 80  1  0
 32 81  1  0
 32 82  1  0
M  END
>  <meeko>  (6) 
{"is_sidechain": [false], "intermolecular_energy": 2.731, "internal_energy": -0.839}

$$$$
EPH_relaxed_0001_pdb2pqr_Repair_66_r2_0001_out
     RDKit          3D

 82 86  0  0  0  0  0  0  0  0999 V2000
    3.5160   17.5800    0.5940 C   0  0  0  0  0  0  0  0  0  0  0  0
    3.2790   16.7360   -0.6620 C   0  0  2  0  0  0  0  0  0  0  0  0
    2.9660   17.6060   -1.8960 C   0  0  0  0  0  0  0  0  0  0  0  0
    2.3530   18.9660   -1.5500 C   0  0  0  0  0  0  0  0  0  0  0  0
    0.8550   18.9160   -1.5520 C   0  0  2  0  0  0  0  0  0  0  0  0
    0.2140   20.1930   -1.6630 O   0  0  0  0  0  0  0  0  0  0  0  0
   -0.0020   19.4800   -0.4340 C   0  0  0  0  0  0  0  0  0  0  0  0
    0.6110   20.1340    0.7650 C   0  0  0  0  0  0  0  0  0  0  0  0
   -1.3980   18.9640   -0.2730 C   0  0  0  0  0  0  0  0  0  0  0  0
    2.1430   15.7500   -0.4180 C   0  0  1  0  0  0  0  0  0  0  0  0
    0.7980   16.4550   -0.0970 C   0  0  0  0  0  0  0  0  0  0  0  0
   -0.3230   15.5860   -0.7240 C   0  0  0  0  0  0  0  0  0  0  0  0
    0.3730   14.2550   -1.0900 C   0  0  1  0  0  0  0  0  0  0  0  0
    0.4260   13.4490    0.2450 C   0  0  0  0  0  0  0  0  0  0  0  0
   -0.2840   13.4250   -2.2410 C   0  0  2  0  0  0  0  0  0  0  0  0
   -1.7140   12.9330   -1.9550 C   0  0  0  0  0  0  0  0  0  0  0  0
   -1.8090   11.5890   -1.3110 C   0  0  0  0  0  0  0  0  0  0  0  0
   -0.8130   10.6870   -1.2330 C   0  0  0  0  0  0  0  0  0  0  0  0
    0.5370   10.9430   -1.9160 C   0  0  1  0  0  0  0  0  0  0  0  0
    0.9750    9.6720   -2.6910 C   0  0  0  0  0  0  0  0  0  0  0  0
    0.9930    8.4270   -1.8100 C   0  0  0  0  0  0  0  0  0  0  0  0
   -0.3810    8.1730   -1.1960 C   0  0  2  0  0  0  0  0  0  0  0  0
   -1.2970    7.8300   -2.2410 O   0  0  0  0  0  0  0  0  0  0  0  0
   -0.9300    9.3880   -0.3980 C   0  0  0  0  0  0  0  0  0  0  0  0
   -0.1090    9.5710    0.9020 C   0  0  0  0  0  0  0  0  0  0  0  0
   -2.3790    9.0520    0.0480 C   0  0  0  0  0  0  0  0  0  0  0  0
    0.6270   12.2590   -2.8010 C   0  0  1  0  0  0  0  0  0  0  0  0
    0.1290   11.9620   -4.2490 C   0  0  0  0  0  0  0  0  0  0  0  0
    2.1370   12.6890   -2.9310 C   0  0  0  0  0  0  0  0  0  0  0  0
    2.6940   13.6070   -1.8260 C   0  0  0  0  0  0  0  0  0  0  0  0
    1.7640   14.7990   -1.5820 C   0  0  2  0  0  0  0  0  0  0  0  0
    1.7090   15.6420   -2.9020 C   0  0  0  0  0  0  0  0  0  0  0  0
    3.3428   16.9633    1.4882 H   0  0  0  0  0  0  0  0  0  0  0  0
    4.5524   17.9486    0.5979 H   0  0  0  0  0  0  0  0  0  0  0  0
    2.8230   18.4342    0.5979 H   0  0  0  0  0  0  0  0  0  0  0  0
    4.2089   16.1875   -0.8727 H   0  0  0  0  0  0  0  0  0  0  0  0
    3.9025   17.7771   -2.4470 H   0  0  0  0  0  0  0  0  0  0  0  0
    2.2214   17.0602   -2.4940 H   0  0  0  0  0  0  0  0  0  0  0  0
    2.6982   19.2686   -0.5503 H   0  0  0  0  0  0  0  0  0  0  0  0
    2.6728   19.6903   -2.3136 H   0  0  0  0  0  0  0  0  0  0  0  0
    0.8645   17.9360   -2.0515 H   0  0  0  0  0  0  0  0  0  0  0  0
    0.1931   19.6882    1.6796 H   0  0  0  0  0  0  0  0  0  0  0  0
    1.7005   19.9830    0.7482 H   0  0  0  0  0  0  0  0  0  0  0  0
    0.3899   21.2114    0.7482 H   0  0  0  0  0  0  0  0  0  0  0  0
   -1.6353   18.8763    0.7975 H   0  0  0  0  0  0  0  0  0  0  0  0
   -2.1036   19.6607   -0.7491 H   0  0  0  0  0  0  0  0  0  0  0  0
   -1.4809   17.9758   -0.7491 H   0  0  0  0  0  0  0  0  0  0  0  0
    2.5748   15.1739    0.4137 H   0  0  0  0  0  0  0  0  0  0  0  0
    0.6580   16.5262    0.9917 H   0  0  0  0  0  0  0  0  0  0  0  0
    0.7804   17.4767   -0.5043 H   0  0  0  0  0  0  0  0  0  0  0  0
   -1.1324   15.4143    0.0009 H   0  0  0  0  0  0  0  0  0  0  0  0
   -0.7852   16.0687   -1.5977 H   0  0  0  0  0  0  0  0  0  0  0  0
    0.3802   14.1450    1.0956 H   0  0  0  0  0  0  0  0  0  0  0  0
   -0.4286   12.7580    0.2903 H   0  0  0  0  0  0  0  0  0  0  0  0
    1.3638   12.8758    0.2903 H   0  0  0  0  0  0  0  0  0  0  0  0
   -0.3786   14.1696   -3.0451 H   0  0  0  0  0  0  0  0  0  0  0  0
   -2.1983   13.6635   -1.2903 H   0  0  0  0  0  0  0  0  0  0  0  0
   -2.2044   12.8364   -2.9349 H   0  0  0  0  0  0  0  0  0  0  0  0
   -2.7747   11.3128   -0.8624 H   0  0  0  0  0  0  0  0  0  0  0  0
    1.2526   11.1513   -1.1070 H   0  0  0  0  0  0  0  0  0  0  0  0
    0.2732    9.5061   -3.5216 H   0  0  0  0  0  0  0  0  0  0  0  0
    1.9998    9.8389   -3.0542 H   0  0  0  0  0  0  0  0  0  0  0  0
    1.2807    7.5583   -2.4204 H   0  0  0  0  0  0  0  0  0  0  0  0
    1.7174    8.5828   -0.9970 H   0  0  0  0  0  0  0  0  0  0  0  0
   -0.2728    7.3484   -0.4760 H   0  0  0  0  0  0  0  0  0  0  0  0
   -1.8670    7.1160   -1.9090 H   0  0  0  0  0  0  0  0  0  0  0  0
   -0.7644    9.4249    1.7732 H   0  0  0  0  0  0  0  0  0  0  0  0
    0.7057    8.8324    0.9282 H   0  0  0  0  0  0  0  0  0  0  0  0
    0.3149   10.5857    0.9282 H   0  0  0  0  0  0  0  0  0  0  0  0
   -2.4310    9.0399    1.1467 H   0  0  0  0  0  0  0  0  0  0  0  0
   -3.0691    9.8140   -0.3434 H   0  0  0  0  0  0  0  0  0  0  0  0
   -2.6633    8.0641   -0.3434 H   0  0  0  0  0  0  0  0  0  0  0  0
   -0.8149   11.3990   -4.2039 H   0  0  0  0  0  0  0  0  0  0  0  0
   -0.0347   12.9101   -4.7822 H   0  0  0  0  0  0  0  0  0  0  0  0
    0.8854   11.3674   -4.7822 H   0  0  0  0  0  0  0  0  0  0  0  0
    2.7448   11.7722   -2.9401 H   0  0  0  0  0  0  0  0  0  0  0  0
    2.1889   13.2847   -3.8543 H   0  0  0  0  0  0  0  0  0  0  0  0
    2.7915   13.0302   -0.8944 H   0  0  0  0  0  0  0  0  0  0  0  0
    3.6745   13.9877   -2.1480 H   0  0  0  0  0  0  0  0  0  0  0  0
    1.6393   16.7109   -2.6518 H   0  0  0  0  0  0  0  0  0  0  0  0
    2.6208   15.4619   -3.4904 H   0  0  0  0  0  0  0  0  0  0  0  0
    0.8283   15.3449   -3.4904 H   0  0  0  0  0  0  0  0  0  0  0  0
  1  2  1  0
  2  3  1  0
  3  4  1  0
  4  5  1  0
  5  6  1  0
  6  7  1  0
  7  8  1  0
  7  9  1  0
  2 10  1  0
 10 11  1  0
 11 12  1  0
 12 13  1  0
 13 14  1  1
 13 15  1  0
 15 16  1  0
 16 17  1  0
 17 18  2  0
 18 19  1  0
 19 20  1  0
 20 21  1  0
 21 22  1  0
 22 23  1  0
 22 24  1  0
 24 25  1  0
 24 26  1  0
 19 27  1  0
 27 28  1  6
 27 29  1  0
 29 30  1  0
 30 31  1  0
 31 32  1  6
  7  5  1  0
 31 10  1  0
 31 13  1  0
 27 15  1  0
 24 18  1  0
  1 33  1  0
  1 34  1  0
  1 35  1  0
  2 36  1  6
  3 37  1  0
  3 38  1  0
  4 39  1  0
  4 40  1  0
  5 41  1  6
  8 42  1  0
  8 43  1  0
  8 44  1  0
  9 45  1  0
  9 46  1  0
  9 47  1  0
 10 48  1  1
 11 49  1  0
 11 50  1  0
 12 51  1  0
 12 52  1  0
 14 53  1  0
 14 54  1  0
 14 55  1  0
 15 56  1  6
 16 57  1  0
 16 58  1  0
 17 59  1  0
 19 60  1  1
 20 61  1  0
 20 62  1  0
 21 63  1  0
 21 64  1  0
 22 65  1  1
 23 66  1  0
 25 67  1  0
 25 68  1  0
 25 69  1  0
 26 70  1  0
 26 71  1  0
 26 72  1  0
 28 73  1  0
 28 74  1  0
 28 75  1  0
 29 76  1  0
 29 77  1  0
 30 78  1  0
 30 79  1  0
 32 80  1  0
 32 81  1  0
 32 82  1  0
M  END
>  <meeko>  (7) 
{"is_sidechain": [false], "intermolecular_energy": 2.731, "internal_energy": -0.839}

$$$$
EPH_relaxed_0001_pdb2pqr_Repair_66_r2_0001_out
     RDKit          3D

 82 86  0  0  0  0  0  0  0  0999 V2000
    0.0380   10.3930   -3.5790 C   0  0  0  0  0  0  0  0  0  0  0  0
    1.1060   10.2200   -2.4960 C   0  0  2  0  0  0  0  0  0  0  0  0
    0.8590    8.9680   -1.6300 C   0  0  0  0  0  0  0  0  0  0  0  0
    0.1310    9.2630   -0.3160 C   0  0  0  0  0  0  0  0  0  0  0  0
   -1.2730    8.7400   -0.3300 C   0  0  2  0  0  0  0  0  0  0  0  0
   -1.9110    8.7720   -1.6140 O   0  0  0  0  0  0  0  0  0  0  0  0
   -2.4880    9.6090   -0.5980 C   0  0  0  0  0  0  0  0  0  0  0  0
   -2.3540   11.0740   -0.8700 C   0  0  0  0  0  0  0  0  0  0  0  0
   -3.8250    9.1390   -0.1170 C   0  0  0  0  0  0  0  0  0  0  0  0
    1.1570   11.4620   -1.6140 C   0  0  1  0  0  0  0  0  0  0  0  0
    2.2220   11.3530   -0.4900 C   0  0  0  0  0  0  0  0  0  0  0  0
    2.8020   12.7760   -0.2840 C   0  0  0  0  0  0  0  0  0  0  0  0
    1.8330   13.7070   -1.0490 C   0  0  1  0  0  0  0  0  0  0  0  0
    0.6300   13.9200   -0.0770 C   0  0  0  0  0  0  0  0  0  0  0  0
    2.4260   15.0670   -1.5410 C   0  0  2  0  0  0  0  0  0  0  0  0
    2.9100   16.0100   -0.4260 C   0  0  0  0  0  0  0  0  0  0  0  0
    1.8850   16.9650    0.0920 C   0  0  0  0  0  0  0  0  0  0  0  0
    0.7170   17.2600   -0.5090 C   0  0  0  0  0  0  0  0  0  0  0  0
    0.3720   16.6810   -1.8860 C   0  0  1  0  0  0  0  0  0  0  0  0
   -0.1770   17.8080   -2.7990 C   0  0  0  0  0  0  0  0  0  0  0  0
   -1.3500   18.5530   -2.1690 C   0  0  0  0  0  0  0  0  0  0  0  0
   -0.9500   19.1640   -0.8280 C   0  0  2  0  0  0  0  0  0  0  0  0
    0.0150   20.1940   -1.0610 O   0  0  0  0  0  0  0  0  0  0  0  0
   -0.3730   18.1230    0.1720 C   0  0  0  0  0  0  0  0  0  0  0  0
   -1.5050   17.1840    0.6560 C   0  0  0  0  0  0  0  0  0  0  0  0
    0.1210   18.8910    1.4280 C   0  0  0  0  0  0  0  0  0  0  0  0
    1.5160   15.8300   -2.5880 C   0  0  1  0  0  0  0  0  0  0  0  0
    2.4610   16.7720   -3.3950 C   0  0  0  0  0  0  0  0  0  0  0  0
    0.8620   14.8530   -3.6360 C   0  0  0  0  0  0  0  0  0  0  0  0
    0.4050   13.4780   -3.1130 C   0  0  0  0  0  0  0  0  0  0  0  0
    1.5140   12.8060   -2.2970 C   0  0  2  0  0  0  0  0  0  0  0  0
    2.7290   12.5580   -3.2550 C   0  0  0  0  0  0  0  0  0  0  0  0
   -0.9421   10.5518   -3.1054 H   0  0  0  0  0  0  0  0  0  0  0  0
    0.2879   11.2624   -4.2049 H   0  0  0  0  0  0  0  0  0  0  0  0
    0.0007    9.4892   -4.2049 H   0  0  0  0  0  0  0  0  0  0  0  0
    2.0725   10.0839   -3.0033 H   0  0  0  0  0  0  0  0  0  0  0  0
    0.2526    8.2577   -2.2112 H   0  0  0  0  0  0  0  0  0  0  0  0
    1.8457    8.5595   -1.3664 H   0  0  0  0  0  0  0  0  0  0  0  0
    0.6801    8.7876    0.5101 H   0  0  0  0  0  0  0  0  0  0  0  0
    0.0888   10.3544   -0.1853 H   0  0  0  0  0  0  0  0  0  0  0  0
   -1.0397    8.0260    0.4737 H   0  0  0  0  0  0  0  0  0  0  0  0
   -2.3040   11.6208    0.0831 H   0  0  0  0  0  0  0  0  0  0  0  0
   -1.4353   11.2574   -1.4466 H   0  0  0  0  0  0  0  0  0  0  0  0
   -3.2242   11.4210   -1.4466 H   0  0  0  0  0  0  0  0  0  0  0  0
   -3.8381    9.1344    0.9829 H   0  0  0  0  0  0  0  0  0  0  0  0
   -4.6077    9.8159   -0.4902 H   0  0  0  0  0  0  0  0  0  0  0  0
   -4.0119    8.1213   -0.4902 H   0  0  0  0  0  0  0  0  0  0  0  0
    0.1140   11.4828   -1.2651 H   0  0  0  0  0  0  0  0  0  0  0  0
    1.7559   10.9956    0.4401 H   0  0  0  0  0  0  0  0  0  0  0  0
    3.0134   10.6397   -0.7635 H   0  0  0  0  0  0  0  0  0  0  0  0
    2.8261   13.0345    0.7849 H   0  0  0  0  0  0  0  0  0  0  0  0
    3.8366   12.8613   -0.6477 H   0  0  0  0  0  0  0  0  0  0  0  0
    0.9833   13.8575    0.9629 H   0  0  0  0  0  0  0  0  0  0  0  0
    0.1861   14.9107   -0.2545 H   0  0  0  0  0  0  0  0  0  0  0  0
   -0.1270   13.1419   -0.2545 H   0  0  0  0  0  0  0  0  0  0  0  0
    3.3322   14.7484   -2.0769 H   0  0  0  0  0  0  0  0  0  0  0  0
    3.2548   15.3918    0.4160 H   0  0  0  0  0  0  0  0  0  0  0  0
    3.7029   16.6277   -0.8730 H   0  0  0  0  0  0  0  0  0  0  0  0
    2.1028   17.4698    1.0448 H   0  0  0  0  0  0  0  0  0  0  0  0
   -0.4103   15.9278   -1.7109 H   0  0  0  0  0  0  0  0  0  0  0  0
    0.6318   18.5268   -2.9968 H   0  0  0  0  0  0  0  0  0  0  0  0
   -0.5386   17.3397   -3.7263 H   0  0  0  0  0  0  0  0  0  0  0  0
   -1.6737   19.3554   -2.8482 H   0  0  0  0  0  0  0  0  0  0  0  0
   -2.1697   17.8392   -1.9996 H   0  0  0  0  0  0  0  0  0  0  0  0
   -1.8614   19.5707   -0.3654 H   0  0  0  0  0  0  0  0  0  0  0  0
   -0.3690   21.0330   -0.7520 H   0  0  0  0  0  0  0  0  0  0  0  0
   -1.5236   17.1686    1.7557 H   0  0  0  0  0  0  0  0  0  0  0  0
   -2.4712   17.5494    0.2781 H   0  0  0  0  0  0  0  0  0  0  0  0
   -1.3244   16.1669    0.2781 H   0  0  0  0  0  0  0  0  0  0  0  0
   -0.2161   18.3669    2.3344 H   0  0  0  0  0  0  0  0  0  0  0  0
    1.2199   18.9392    1.4196 H   0  0  0  0  0  0  0  0  0  0  0  0
   -0.2908   19.9110    1.4196 H   0  0  0  0  0  0  0  0  0  0  0  0
    3.0633   17.3724   -2.6973 H   0  0  0  0  0  0  0  0  0  0  0  0
    3.1272   16.1680   -4.0285 H   0  0  0  0  0  0  0  0  0  0  0  0
    1.8591   17.4401   -4.0285 H   0  0  0  0  0  0  0  0  0  0  0  0
   -0.0195   15.3585   -4.0573 H   0  0  0  0  0  0  0  0  0  0  0  0
    1.6590   14.6344   -4.3620 H   0  0  0  0  0  0  0  0  0  0  0  0
   -0.4808   13.6119   -2.4747 H   0  0  0  0  0  0  0  0  0  0  0  0
    0.1653   12.8369   -3.9741 H   0  0  0  0  0  0  0  0  0  0  0  0
    3.6345   12.3732   -2.6585 H   0  0  0  0  0  0  0  0  0  0  0  0
    2.5231   11.6834   -3.8895 H   0  0  0  0  0  0  0  0  0  0  0  0
    2.8823   13.4434   -3.8895 H   0  0  0  0  0  0  0  0  0  0  0  0
  1  2  1  0
  2  3  1  0
  3  4  1  0
  4  5  1  0
  5  6  1  0
  6  7  1  0
  7  8  1  0
  7  9  1  0
  2 10  1  0
 10 11  1  0
 11 12  1  0
 12 13  1  0
 13 14  1  1
 13 15  1  0
 15 16  1  0
 16 17  1  0
 17 18  2  0
 18 19  1  0
 19 20  1  0
 20 21  1  0
 21 22  1  0
 22 23  1  0
 22 24  1  0
 24 25  1  0
 24 26  1  0
 19 27  1  0
 27 28  1  6
 27 29  1  0
 29 30  1  0
 30 31  1  0
 31 32  1  6
  7  5  1  0
 31 10  1  0
 31 13  1  0
 27 15  1  0
 24 18  1  0
  1 33  1  0
  1 34  1  0
  1 35  1  0
  2 36  1  6
  3 37  1  0
  3 38  1  0
  4 39  1  0
  4 40  1  0
  5 41  1  1
  8 42  1  0
  8 43  1  0
  8 44  1  0
  9 45  1  0
  9 46  1  0
  9 47  1  0
 10 48  1  1
 11 49  1  0
 11 50  1  0
 12 51  1  0
 12 52  1  0
 14 53  1  0
 14 54  1  0
 14 55  1  0
 15 56  1  6
 16 57  1  0
 16 58  1  0
 17 59  1  0
 19 60  1  1
 20 61  1  0
 20 62  1  0
 21 63  1  0
 21 64  1  0
 22 65  1  1
 23 66  1  0
 25 67  1  0
 25 68  1  0
 25 69  1  0
 26 70  1  0
 26 71  1  0
 26 72  1  0
 28 73  1  0
 28 74  1  0
 28 75  1  0
 29 76  1  0
 29 77  1  0
 30 78  1  0
 30 79  1  0
 32 80  1  0
 32 81  1  0
 32 82  1  0
M  END
>  <meeko>  (8) 
{"is_sidechain": [false], "intermolecular_energy": 2.731, "internal_energy": -0.839}

$$$$
EPH_relaxed_0001_pdb2pqr_Repair_66_r2_0001_out
     RDKit          3D

 82 86  0  0  0  0  0  0  0  0999 V2000
   -5.0070    6.1710   -1.8130 C   0  0  0  0  0  0  0  0  0  0  0  0
   -5.4000    7.6510   -1.8190 C   0  0  2  0  0  0  0  0  0  0  0  0
   -5.2120    8.3080   -0.4370 C   0  0  0  0  0  0  0  0  0  0  0  0
   -4.0750    9.3320   -0.3920 C   0  0  0  0  0  0  0  0  0  0  0  0
   -2.7580    8.7150   -0.7570 C   0  0  2  0  0  0  0  0  0  0  0  0
   -1.6920    8.9910    0.1610 O   0  0  0  0  0  0  0  0  0  0  0  0
   -1.5410    9.5230   -1.1650 C   0  0  0  0  0  0  0  0  0  0  0  0
   -1.5820   11.0180   -1.2300 C   0  0  0  0  0  0  0  0  0  0  0  0
   -0.4700    8.8500   -1.9660 C   0  0  0  0  0  0  0  0  0  0  0  0
   -6.8470    7.8020   -2.2750 C   0  0  1  0  0  0  0  0  0  0  0  0
   -7.1280    7.0790   -3.6190 C   0  0  0  0  0  0  0  0  0  0  0  0
   -8.5780    6.5350   -3.5390 C   0  0  0  0  0  0  0  0  0  0  0  0
   -9.1910    7.2390   -2.3060 C   0  0  1  0  0  0  0  0  0  0  0  0
   -9.6150    8.6510   -2.8200 C   0  0  0  0  0  0  0  0  0  0  0  0
  -10.3780    6.4990   -1.6060 C   0  0  2  0  0  0  0  0  0  0  0  0
  -11.6300    6.3040   -2.4790 C   0  0  0  0  0  0  0  0  0  0  0  0
  -12.6380    7.4020   -2.4020 C   0  0  0  0  0  0  0  0  0  0  0  0
  -12.6820    8.3590   -1.4570 C   0  0  0  0  0  0  0  0  0  0  0  0
  -11.7070    8.3410   -0.2730 C   0  0  1  0  0  0  0  0  0  0  0  0
  -12.4870    8.5950    1.0440 C   0  0  0  0  0  0  0  0  0  0  0  0
  -13.3210    9.8720    0.9930 C   0  0  0  0  0  0  0  0  0  0  0  0
  -14.3180    9.8270   -0.1620 C   0  0  2  0  0  0  0  0  0  0  0  0
  -15.2850    8.8060    0.1030 O   0  0  0  0  0  0  0  0  0  0  0  0
  -13.6480    9.5670   -1.5400 C   0  0  0  0  0  0  0  0  0  0  0  0
  -12.8320   10.8130   -1.9660 C   0  0  0  0  0  0  0  0  0  0  0  0
  -14.7740    9.4040   -2.5960 C   0  0  0  0  0  0  0  0  0  0  0  0
  -10.7510    7.0750   -0.1810 C   0  0  1  0  0  0  0  0  0  0  0  0
  -11.4650    5.9240    0.5920 C   0  0  0  0  0  0  0  0  0  0  0  0
   -9.4770    7.4540    0.6640 C   0  0  0  0  0  0  0  0  0  0  0  0
   -8.2930    8.0710   -0.1040 C   0  0  0  0  0  0  0  0  0  0  0  0
   -7.9490    7.2390   -1.3430 C   0  0  2  0  0  0  0  0  0  0  0  0
   -7.4970    5.8200   -0.8560 C   0  0  0  0  0  0  0  0  0  0  0  0
   -4.9139    5.8205   -0.7745 H   0  0  0  0  0  0  0  0  0  0  0  0
   -5.7804    5.5841   -2.3301 H   0  0  0  0  0  0  0  0  0  0  0  0
   -4.0443    6.0452   -2.3301 H   0  0  0  0  0  0  0  0  0  0  0  0
   -4.7317    8.1680   -2.5233 H   0  0  0  0  0  0  0  0  0  0  0  0
   -6.1484    8.8166   -0.1640 H   0  0  0  0  0  0  0  0  0  0  0  0
   -4.9496    7.5051    0.2676 H   0  0  0  0  0  0  0  0  0  0  0  0
   -4.2974   10.1430   -1.1011 H   0  0  0  0  0  0  0  0  0  0  0  0
   -4.0003    9.7165    0.6359 H   0  0  0  0  0  0  0  0  0  0  0  0
   -3.2629    7.8554   -1.2219 H   0  0  0  0  0  0  0  0  0  0  0  0
   -1.5933   11.4292   -0.2098 H   0  0  0  0  0  0  0  0  0  0  0  0
   -0.6936   11.3863   -1.7640 H   0  0  0  0  0  0  0  0  0  0  0  0
   -2.4892   11.3371   -1.7640 H   0  0  0  0  0  0  0  0  0  0  0  0
    0.2621    8.3900   -1.2860 H   0  0  0  0  0  0  0  0  0  0  0  0
   -0.9205    8.0723   -2.6003 H   0  0  0  0  0  0  0  0  0  0  0  0
    0.0353    9.5933   -2.6003 H   0  0  0  0  0  0  0  0  0  0  0  0
   -6.9140    8.8992   -2.3159 H   0  0  0  0  0  0  0  0  0  0  0  0
   -7.0342    7.7860   -4.4564 H   0  0  0  0  0  0  0  0  0  0  0  0
   -6.4088    6.2639   -3.7872 H   0  0  0  0  0  0  0  0  0  0  0  0
   -9.1391    6.7894   -4.4503 H   0  0  0  0  0  0  0  0  0  0  0  0
   -8.6082    5.4389   -3.4515 H   0  0  0  0  0  0  0  0  0  0  0  0
   -9.8128    9.3096   -1.9614 H   0  0  0  0  0  0  0  0  0  0  0  0
   -8.8053    9.0774   -3.4304 H   0  0  0  0  0  0  0  0  0  0  0  0
  -10.5257    8.5608   -3.4304 H   0  0  0  0  0  0  0  0  0  0  0  0
   -9.9661    5.4919   -1.4446 H   0  0  0  0  0  0  0  0  0  0  0  0
  -11.3040    6.2147   -3.5258 H   0  0  0  0  0  0  0  0  0  0  0  0
  -12.1313    5.4031   -2.0954 H   0  0  0  0  0  0  0  0  0  0  0  0
  -13.4107    7.4315   -3.1843 H   0  0  0  0  0  0  0  0  0  0  0  0
  -10.9974    9.1624   -0.4512 H   0  0  0  0  0  0  0  0  0  0  0  0
  -13.1580    7.7427    1.2265 H   0  0  0  0  0  0  0  0  0  0  0  0
  -11.7495    8.7098    1.8521 H   0  0  0  0  0  0  0  0  0  0  0  0
  -13.8711    9.9807    1.9393 H   0  0  0  0  0  0  0  0  0  0  0  0
  -12.6454   10.7266    0.8404 H   0  0  0  0  0  0  0  0  0  0  0  0
  -14.7931   10.8170   -0.2262 H   0  0  0  0  0  0  0  0  0  0  0  0
  -14.8020    8.0030    0.3590 H   0  0  0  0  0  0  0  0  0  0  0  0
  -12.4826   11.3465   -1.0697 H   0  0  0  0  0  0  0  0  0  0  0  0
  -11.9656   10.4966   -2.5654 H   0  0  0  0  0  0  0  0  0  0  0  0
  -13.4683   11.4807   -2.5654 H   0  0  0  0  0  0  0  0  0  0  0  0
  -15.7382    9.2644   -2.0853 H   0  0  0  0  0  0  0  0  0  0  0  0
  -14.8195   10.3049   -3.2255 H   0  0  0  0  0  0  0  0  0  0  0  0
  -14.5622    8.5272   -3.2255 H   0  0  0  0  0  0  0  0  0  0  0  0
  -11.3619    6.0902    1.6745 H   0  0  0  0  0  0  0  0  0  0  0  0
  -12.5316    5.9084    0.3234 H   0  0  0  0  0  0  0  0  0  0  0  0
  -11.0051    4.9615    0.3234 H   0  0  0  0  0  0  0  0  0  0  0  0
   -9.7896    8.1778    1.4311 H   0  0  0  0  0  0  0  0  0  0  0  0
   -9.0985    6.4994    1.0582 H   0  0  0  0  0  0  0  0  0  0  0  0
   -8.5603    9.0907   -0.4183 H   0  0  0  0  0  0  0  0  0  0  0  0
   -7.4162    8.0898    0.5600 H   0  0  0  0  0  0  0  0  0  0  0  0
   -7.4891    5.7951    0.2437 H   0  0  0  0  0  0  0  0  0  0  0  0
   -8.1981    5.0618   -1.2349 H   0  0  0  0  0  0  0  0  0  0  0  0
   -6.4865    5.6070   -1.2349 H   0  0  0  0  0  0  0  0  0  0  0  0
  1  2  1  0
  2  3  1  0
  3  4  1  0
  4  5  1  0
  5  6  1  0
  6  7  1  0
  7  8  1  0
  7  9  1  0
  2 10  1  0
 10 11  1  0
 11 12  1  0
 12 13  1  0
 13 14  1  6
 13 15  1  0
 15 16  1  0
 16 17  1  0
 17 18  2  0
 18 19  1  0
 19 20  1  0
 20 21  1  0
 21 22  1  0
 22 23  1  0
 22 24  1  0
 24 25  1  0
 24 26  1  0
 19 27  1  0
 27 28  1  1
 27 29  1  0
 29 30  1  0
 30 31  1  0
 31 32  1  1
  7  5  1  0
 31 10  1  0
 31 13  1  0
 27 15  1  0
 24 18  1  0
  1 33  1  0
  1 34  1  0
  1 35  1  0
  2 36  1  6
  3 37  1  0
  3 38  1  0
  4 39  1  0
  4 40  1  0
  5 41  1  6
  8 42  1  0
  8 43  1  0
  8 44  1  0
  9 45  1  0
  9 46  1  0
  9 47  1  0
 10 48  1  6
 11 49  1  0
 11 50  1  0
 12 51  1  0
 12 52  1  0
 14 53  1  0
 14 54  1  0
 14 55  1  0
 15 56  1  1
 16 57  1  0
 16 58  1  0
 17 59  1  0
 19 60  1  6
 20 61  1  0
 20 62  1  0
 21 63  1  0
 21 64  1  0
 22 65  1  6
 23 66  1  0
 25 67  1  0
 25 68  1  0
 25 69  1  0
 26 70  1  0
 26 71  1  0
 26 72  1  0
 28 73  1  0
 28 74  1  0
 28 75  1  0
 29 76  1  0
 29 77  1  0
 30 78  1  0
 30 79  1  0
 32 80  1  0
 32 81  1  0
 32 82  1  0
M  END
>  <meeko>  (9) 
{"is_sidechain": [false], "intermolecular_energy": 2.731, "internal_energy": -0.839}

$$$$
EPH_relaxed_0001_pdb2pqr_Repair_66_r2_0001_out
     RDKit          3D

 82 86  0  0  0  0  0  0  0  0999 V2000
    0.4400    8.8100   -2.4000 C   0  0  0  0  0  0  0  0  0  0  0  0
    1.1810    9.9580   -3.0920 C   0  0  2  0  0  0  0  0  0  0  0  0
    2.6820    9.9760   -2.7390 C   0  0  0  0  0  0  0  0  0  0  0  0
    3.5600   10.6180   -3.8170 C   0  0  0  0  0  0  0  0  0  0  0  0
    4.9600   10.8430   -3.3300 C   0  0  2  0  0  0  0  0  0  0  0  0
    5.5730   12.0480   -3.8060 O   0  0  0  0  0  0  0  0  0  0  0  0
    6.1750   10.8170   -4.2380 C   0  0  0  0  0  0  0  0  0  0  0  0
    6.0470   10.5590   -5.7070 C   0  0  0  0  0  0  0  0  0  0  0  0
    7.5180   10.5570   -3.6290 C   0  0  0  0  0  0  0  0  0  0  0  0
    0.5410   11.2900   -2.7180 C   0  0  1  0  0  0  0  0  0  0  0  0
   -0.8320   11.1170   -2.0170 C   0  0  0  0  0  0  0  0  0  0  0  0
   -0.9450   12.2540   -0.9690 C   0  0  0  0  0  0  0  0  0  0  0  0
    0.2010   13.2290   -1.3260 C   0  0  1  0  0  0  0  0  0  0  0  0
   -0.3560   14.0880   -2.5040 C   0  0  0  0  0  0  0  0  0  0  0  0
    0.7350   14.1240   -0.1610 C   0  0  2  0  0  0  0  0  0  0  0  0
   -0.2940   15.0970    0.4390 C   0  0  0  0  0  0  0  0  0  0  0  0
   -0.3440   16.4460   -0.1990 C   0  0  0  0  0  0  0  0  0  0  0  0
    0.5940   16.9590   -1.0180 C   0  0  0  0  0  0  0  0  0  0  0  0
    1.8950   16.1970   -1.3000 C   0  0  1  0  0  0  0  0  0  0  0  0
    3.1000   17.1660   -1.1740 C   0  0  0  0  0  0  0  0  0  0  0  0
    2.9480   18.4060   -2.0490 C   0  0  0  0  0  0  0  0  0  0  0  0
    1.6720   19.1680   -1.7000 C   0  0  2  0  0  0  0  0  0  0  0  0
    1.8030   19.7040   -0.3790 O   0  0  0  0  0  0  0  0  0  0  0  0
    0.3920   18.2900   -1.7830 C   0  0  0  0  0  0  0  0  0  0  0  0
    0.0840   17.9590   -3.2640 C   0  0  0  0  0  0  0  0  0  0  0  0
   -0.8020   19.1390   -1.2700 C   0  0  0  0  0  0  0  0  0  0  0  0
    2.1040   14.8530   -0.4780 C   0  0  1  0  0  0  0  0  0  0  0  0
    2.7700   15.1680    0.8960 C   0  0  0  0  0  0  0  0  0  0  0  0
    3.1100   13.9250   -1.2570 C   0  0  0  0  0  0  0  0  0  0  0  0
    2.5070   12.9780   -2.3110 C   0  0  0  0  0  0  0  0  0  0  0  0
    1.3180   12.2010   -1.7360 C   0  0  2  0  0  0  0  0  0  0  0  0
    1.8520   11.3100   -0.5630 C   0  0  0  0  0  0  0  0  0  0  0  0
    0.5167    8.9289   -1.3091 H   0  0  0  0  0  0  0  0  0  0  0  0
   -0.6191    8.8254   -2.6969 H   0  0  0  0  0  0  0  0  0  0  0  0
    0.8902    7.8513   -2.6969 H   0  0  0  0  0  0  0  0  0  0  0  0
    1.0993    9.7987   -4.1773 H   0  0  0  0  0  0  0  0  0  0  0  0
    2.8121   10.5401   -1.8037 H   0  0  0  0  0  0  0  0  0  0  0  0
    3.0028    8.9280   -2.6450 H   0  0  0  0  0  0  0  0  0  0  0  0
    3.5899    9.9548   -4.6941 H   0  0  0  0  0  0  0  0  0  0  0  0
    3.1258   11.5949   -4.0762 H   0  0  0  0  0  0  0  0  0  0  0  0
    4.7371   10.3338   -2.3808 H   0  0  0  0  0  0  0  0  0  0  0  0
    5.5633    9.5841   -5.8673 H   0  0  0  0  0  0  0  0  0  0  0  0
    5.4372   11.3508   -6.1666 H   0  0  0  0  0  0  0  0  0  0  0  0
    7.0464   10.5525   -6.1666 H   0  0  0  0  0  0  0  0  0  0  0  0
    7.4328   10.5735   -2.5324 H   0  0  0  0  0  0  0  0  0  0  0  0
    7.8832    9.5715   -3.9536 H   0  0  0  0  0  0  0  0  0  0  0  0
    8.2246   11.3350   -3.9536 H   0  0  0  0  0  0  0  0  0  0  0  0
    0.4978   11.7594   -3.7119 H   0  0  0  0  0  0  0  0  0  0  0  0
   -1.6458   11.1975   -2.7527 H   0  0  0  0  0  0  0  0  0  0  0  0
   -0.9098   10.1295   -1.5387 H   0  0  0  0  0  0  0  0  0  0  0  0
   -1.9204   12.7567   -1.0451 H   0  0  0  0  0  0  0  0  0  0  0  0
   -0.8681   11.8797    0.0625 H   0  0  0  0  0  0  0  0  0  0  0  0
   -0.9127   14.9466   -2.1004 H   0  0  0  0  0  0  0  0  0  0  0  0
    0.4797   14.4501   -3.1209 H   0  0  0  0  0  0  0  0  0  0  0  0
   -1.0275   13.4728   -3.1209 H   0  0  0  0  0  0  0  0  0  0  0  0
    0.9420   13.3852    0.6273 H   0  0  0  0  0  0  0  0  0  0  0  0
   -1.2898   14.6393    0.3446 H   0  0  0  0  0  0  0  0  0  0  0  0
    0.0171   15.2645    1.4807 H   0  0  0  0  0  0  0  0  0  0  0  0
   -1.2208   17.0737    0.0182 H   0  0  0  0  0  0  0  0  0  0  0  0
    1.8156   15.8323   -2.3348 H   0  0  0  0  0  0  0  0  0  0  0  0
    3.1886   17.4837   -0.1246 H   0  0  0  0  0  0  0  0  0  0  0  0
    3.9979   16.6275   -1.5114 H   0  0  0  0  0  0  0  0  0  0  0  0
    3.8148   19.0650   -1.8929 H   0  0  0  0  0  0  0  0  0  0  0  0
    2.8903   18.0883   -3.1005 H   0  0  0  0  0  0  0  0  0  0  0  0
    1.5514   19.9690   -2.4442 H   0  0  0  0  0  0  0  0  0  0  0  0
    1.9560   18.9600    0.2270 H   0  0  0  0  0  0  0  0  0  0  0  0
   -0.6646   17.1545   -3.3119 H   0  0  0  0  0  0  0  0  0  0  0  0
   -0.3086   18.8555   -3.7661 H   0  0  0  0  0  0  0  0  0  0  0  0
    1.0064   17.6319   -3.7661 H   0  0  0  0  0  0  0  0  0  0  0  0
   -0.8047   19.1409   -0.1700 H   0  0  0  0  0  0  0  0  0  0  0  0
   -0.7032   20.1708   -1.6382 H   0  0  0  0  0  0  0  0  0  0  0  0
   -1.7442   18.7069   -1.6382 H   0  0  0  0  0  0  0  0  0  0  0  0
    2.1004   14.8513    1.7092 H   0  0  0  0  0  0  0  0  0  0  0  0
    3.7238   14.6256    0.9741 H   0  0  0  0  0  0  0  0  0  0  0  0
    2.9557   16.2494    0.9741 H   0  0  0  0  0  0  0  0  0  0  0  0
    3.8341   14.5754   -1.7694 H   0  0  0  0  0  0  0  0  0  0  0  0
    3.5443   13.2649   -0.4917 H   0  0  0  0  0  0  0  0  0  0  0  0
    2.1666   13.5699   -3.1734 H   0  0  0  0  0  0  0  0  0  0  0  0
    3.2801   12.2583   -2.6182 H   0  0  0  0  0  0  0  0  0  0  0  0
    1.5778   11.7675    0.3991 H   0  0  0  0  0  0  0  0  0  0  0  0
    1.4061   10.3068   -0.6323 H   0  0  0  0  0  0  0  0  0  0  0  0
    2.9469   11.2302   -0.6323 H   0  0  0  0  0  0  0  0  0  0  0  0
  1  2  1  0
  2  3  1  0
  3  4  1  0
  4  5  1  0
  5  6  1  0
  6  7  1  0
  7  8  1  0
  7  9  1  0
  2 10  1  0
 10 11  1  0
 11 12  1  0
 12 13  1  0
 13 14  1  6
 13 15  1  0
 15 16  1  0
 16 17  1  0
 17 18  2  0
 18 19  1  0
 19 20  1  0
 20 21  1  0
 21 22  1  0
 22 23  1  0
 22 24  1  0
 24 25  1  0
 24 26  1  0
 19 27  1  0
 27 28  1  1
 27 29  1  0
 29 30  1  0
 30 31  1  0
 31 32  1  1
  7  5  1  0
 31 10  1  0
 31 13  1  0
 27 15  1  0
 24 18  1  0
  1 33  1  0
  1 34  1  0
  1 35  1  0
  2 36  1  6
  3 37  1  0
  3 38  1  0
  4 39  1  0
  4 40  1  0
  5 41  1  1
  8 42  1  0
  8 43  1  0
  8 44  1  0
  9 45  1  0
  9 46  1  0
  9 47  1  0
 10 48  1  6
 11 49  1  0
 11 50  1  0
 12 51  1  0
 12 52  1  0
 14 53  1  0
 14 54  1  0
 14 55  1  0
 15 56  1  1
 16 57  1  0
 16 58  1  0
 17 59  1  0
 19 60  1  6
 20 61  1  0
 20 62  1  0
 21 63  1  0
 21 64  1  0
 22 65  1  6
 23 66  1  0
 25 67  1  0
 25 68  1  0
 25 69  1  0
 26 70  1  0
 26 71  1  0
 26 72  1  0
 28 73  1  0
 28 74  1  0
 28 75  1  0
 29 76  1  0
 29 77  1  0
 30 78  1  0
 30 79  1  0
 32 80  1  0
 32 81  1  0
 32 82  1  0
M  END
>  <meeko>  (10) 
{"is_sidechain": [false], "intermolecular_energy": 2.731, "internal_energy": -0.839}

$$$$
EPH_relaxed_0001_pdb2pqr_Repair_66_r2_0001_out
     RDKit          3D

 82 86  0  0  0  0  0  0  0  0999 V2000
    0.9500   18.8070   -2.4800 C   0  0  0  0  0  0  0  0  0  0  0  0
    0.3300   17.8240   -1.4830 C   0  0  2  0  0  0  0  0  0  0  0  0
    0.9720   17.9330   -0.0850 C   0  0  0  0  0  0  0  0  0  0  0  0
    1.4080   19.3540    0.2820 C   0  0  0  0  0  0  0  0  0  0  0  0
    2.4490   19.3530    1.3610 C   0  0  2  0  0  0  0  0  0  0  0  0
    3.5800   20.1940    1.1030 O   0  0  0  0  0  0  0  0  0  0  0  0
    3.8430   18.7840    1.1780 C   0  0  0  0  0  0  0  0  0  0  0  0
    4.2730   18.1750   -0.1200 C   0  0  0  0  0  0  0  0  0  0  0  0
    4.6160   18.3780    2.3940 C   0  0  0  0  0  0  0  0  0  0  0  0
    0.4630   16.3990   -2.0070 C   0  0  1  0  0  0  0  0  0  0  0  0
    1.4750   16.2850   -3.1790 C   0  0  0  0  0  0  0  0  0  0  0  0
    2.1740   14.9090   -3.0340 C   0  0  0  0  0  0  0  0  0  0  0  0
    1.3190   14.1450   -1.9960 C   0  0  1  0  0  0  0  0  0  0  0  0
    0.1080   13.5860   -2.8080 C   0  0  0  0  0  0  0  0  0  0  0  0
    2.0480   13.0160   -1.1970 C   0  0  2  0  0  0  0  0  0  0  0  0
    2.5770   11.8500   -2.0490 C   0  0  0  0  0  0  0  0  0  0  0  0
    1.6260   10.7150   -2.2370 C   0  0  0  0  0  0  0  0  0  0  0  0
    0.5100   10.5010   -1.5150 C   0  0  0  0  0  0  0  0  0  0  0  0
    0.1610   11.4000   -0.3220 C   0  0  1  0  0  0  0  0  0  0  0  0
   -0.2530   10.5190    0.8860 C   0  0  0  0  0  0  0  0  0  0  0  0
   -1.3740    9.5430    0.5420 C   0  0  0  0  0  0  0  0  0  0  0  0
   -0.9670    8.6290   -0.6100 C   0  0  2  0  0  0  0  0  0  0  0  0
    0.0950    7.7770   -0.1680 O   0  0  0  0  0  0  0  0  0  0  0  0
   -0.5200    9.4050   -1.8800 C   0  0  0  0  0  0  0  0  0  0  0  0
   -1.7480   10.0890   -2.5300 C   0  0  0  0  0  0  0  0  0  0  0  0
   -0.0020    8.3690   -2.9140 C   0  0  0  0  0  0  0  0  0  0  0  0
    1.2470   12.4940    0.0640 C   0  0  1  0  0  0  0  0  0  0  0  0
    2.2990   11.8790    1.0370 C   0  0  0  0  0  0  0  0  0  0  0  0
    0.5430   13.6620    0.8520 C   0  0  0  0  0  0  0  0  0  0  0  0
   -0.0530   14.8070    0.0110 C   0  0  0  0  0  0  0  0  0  0  0  0
    0.9620   15.3200   -1.0140 C   0  0  2  0  0  0  0  0  0  0  0  0
    2.1820   15.9090   -0.2270 C   0  0  0  0  0  0  0  0  0  0  0  0
    1.4587   19.6135   -1.9316 H   0  0  0  0  0  0  0  0  0  0  0  0
    1.6780   18.2777   -3.1123 H   0  0  0  0  0  0  0  0  0  0  0  0
    0.1587   19.2360   -3.1123 H   0  0  0  0  0  0  0  0  0  0  0  0
   -0.7337   18.0843   -1.3795 H   0  0  0  0  0  0  0  0  0  0  0  0
    0.2399   17.5906    0.6612 H   0  0  0  0  0  0  0  0  0  0  0  0
    1.8793   17.3113   -0.0982 H   0  0  0  0  0  0  0  0  0  0  0  0
    1.8222   19.8421   -0.6126 H   0  0  0  0  0  0  0  0  0  0  0  0
    0.5275   19.8974    0.6553 H   0  0  0  0  0  0  0  0  0  0  0  0
    1.6819   19.1923    2.1328 H   0  0  0  0  0  0  0  0  0  0  0  0
    4.8970   17.2912    0.0786 H   0  0  0  0  0  0  0  0  0  0  0  0
    3.3853   17.8751   -0.6962 H   0  0  0  0  0  0  0  0  0  0  0  0
    4.8527   18.9112   -0.6962 H   0  0  0  0  0  0  0  0  0  0  0  0
    4.0595   18.6703    3.2967 H   0  0  0  0  0  0  0  0  0  0  0  0
    4.7606   17.2876    2.3894 H   0  0  0  0  0  0  0  0  0  0  0  0
    5.5959   18.8778    2.3894 H   0  0  0  0  0  0  0  0  0  0  0  0
   -0.5849   16.2040   -2.2789 H   0  0  0  0  0  0  0  0  0  0  0  0
    0.9470   16.3420   -4.1423 H   0  0  0  0  0  0  0  0  0  0  0  0
    2.2075   17.1051   -3.1496 H   0  0  0  0  0  0  0  0  0  0  0  0
    2.1852   14.3757   -3.9960 H   0  0  0  0  0  0  0  0  0  0  0  0
    3.2239   15.0053   -2.7202 H   0  0  0  0  0  0  0  0  0  0  0  0
   -0.6660   13.2287   -2.1128 H   0  0  0  0  0  0  0  0  0  0  0  0
   -0.3080   14.3832   -3.4416 H   0  0  0  0  0  0  0  0  0  0  0  0
    0.4449   12.7523   -3.4416 H   0  0  0  0  0  0  0  0  0  0  0  0
    2.9399   13.5353   -0.8164 H   0  0  0  0  0  0  0  0  0  0  0  0
    2.8355   12.2450   -3.0426 H   0  0  0  0  0  0  0  0  0  0  0  0
    3.4374   11.4385   -1.5010 H   0  0  0  0  0  0  0  0  0  0  0  0
    1.8566    9.9919   -3.0332 H   0  0  0  0  0  0  0  0  0  0  0  0
   -0.6913   12.0160   -0.6447 H   0  0  0  0  0  0  0  0  0  0  0  0
    0.6237    9.9451    1.2206 H   0  0  0  0  0  0  0  0  0  0  0  0
   -0.6243   11.1887    1.6757 H   0  0  0  0  0  0  0  0  0  0  0  0
   -1.6005    8.9288    1.4260 H   0  0  0  0  0  0  0  0  0  0  0  0
   -2.2598   10.1193    0.2368 H   0  0  0  0  0  0  0  0  0  0  0  0
   -1.8535    8.0442   -0.8965 H   0  0  0  0  0  0  0  0  0  0  0  0
    0.8260    7.8650   -0.8020 H   0  0  0  0  0  0  0  0  0  0  0  0
   -2.4190   10.4628   -1.7426 H   0  0  0  0  0  0  0  0  0  0  0  0
   -1.4116   10.9297   -3.1546 H   0  0  0  0  0  0  0  0  0  0  0  0
   -2.2857    9.3604   -3.1546 H   0  0  0  0  0  0  0  0  0  0  0  0
    0.4292    7.5066   -2.3845 H   0  0  0  0  0  0  0  0  0  0  0  0
   -0.8374    8.0316   -3.5450 H   0  0  0  0  0  0  0  0  0  0  0  0
    0.7692    8.8349   -3.5450 H   0  0  0  0  0  0  0  0  0  0  0  0
    1.9877   12.0610    2.0762 H   0  0  0  0  0  0  0  0  0  0  0  0
    2.3724   10.7957    0.8606 H   0  0  0  0  0  0  0  0  0  0  0  0
    3.2790   12.3465    0.8606 H   0  0  0  0  0  0  0  0  0  0  0  0
   -0.2749   13.2207    1.4404 H   0  0  0  0  0  0  0  0  0  0  0  0
    1.3408   14.1283    1.4487 H   0  0  0  0  0  0  0  0  0  0  0  0
   -0.9441   14.4385   -0.5184 H   0  0  0  0  0  0  0  0  0  0  0  0
   -0.3200   15.6346    0.6846 H   0  0  0  0  0  0  0  0  0  0  0  0
    1.9984   15.8204    0.8539 H   0  0  0  0  0  0  0  0  0  0  0  0
    3.0926   15.3513   -0.4912 H   0  0  0  0  0  0  0  0  0  0  0  0
    2.3116   16.9689   -0.4912 H   0  0  0  0  0  0  0  0  0  0  0  0
  1  2  1  0
  2  3  1  0
  3  4  1  0
  4  5  1  0
  5  6  1  0
  6  7  1  0
  7  8  1  0
  7  9  1  0
  2 10  1  0
 10 11  1  0
 11 12  1  0
 12 13  1  0
 13 14  1  6
 13 15  1  0
 15 16  1  0
 16 17  1  0
 17 18  2  0
 18 19  1  0
 19 20  1  0
 20 21  1  0
 21 22  1  0
 22 23  1  0
 22 24  1  0
 24 25  1  0
 24 26  1  0
 19 27  1  0
 27 28  1  1
 27 29  1  0
 29 30  1  0
 30 31  1  0
 31 32  1  1
  7  5  1  0
 31 10  1  0
 31 13  1  0
 27 15  1  0
 24 18  1  0
  1 33  1  0
  1 34  1  0
  1 35  1  0
  2 36  1  1
  3 37  1  0
  3 38  1  0
  4 39  1  0
  4 40  1  0
  5 41  1  1
  8 42  1  0
  8 43  1  0
  8 44  1  0
  9 45  1  0
  9 46  1  0
  9 47  1  0
 10 48  1  6
 11 49  1  0
 11 50  1  0
 12 51  1  0
 12 52  1  0
 14 53  1  0
 14 54  1  0
 14 55  1  0
 15 56  1  1
 16 57  1  0
 16 58  1  0
 17 59  1  0
 19 60  1  6
 20 61  1  0
 20 62  1  0
 21 63  1  0
 21 64  1  0
 22 65  1  6
 23 66  1  0
 25 67  1  0
 25 68  1  0
 25 69  1  0
 26 70  1  0
 26 71  1  0
 26 72  1  0
 28 73  1  0
 28 74  1  0
 28 75  1  0
 29 76  1  0
 29 77  1  0
 30 78  1  0
 30 79  1  0
 32 80  1  0
 32 81  1  0
 32 82  1  0
M  END
>  <meeko>  (11) 
{"is_sidechain": [false], "intermolecular_energy": 2.731, "internal_energy": -0.839}

$$$$
EPH_relaxed_0001_pdb2pqr_Repair_66_r2_0001_out
     RDKit          3D

 82 86  0  0  0  0  0  0  0  0999 V2000
    0.1690   17.7280   -2.5080 C   0  0  0  0  0  0  0  0  0  0  0  0
   -0.0010   16.8970   -1.2340 C   0  0  2  0  0  0  0  0  0  0  0  0
    0.0490   17.7670    0.0380 C   0  0  0  0  0  0  0  0  0  0  0  0
    0.7480   19.1140   -0.1650 C   0  0  0  0  0  0  0  0  0  0  0  0
    1.8020   19.3530    0.8730 C   0  0  2  0  0  0  0  0  0  0  0  0
    2.8820   20.1940    0.4470 O   0  0  0  0  0  0  0  0  0  0  0  0
    3.2230   18.8340    0.7580 C   0  0  0  0  0  0  0  0  0  0  0  0
    3.6680   18.0320   -0.4240 C   0  0  0  0  0  0  0  0  0  0  0  0
    4.0340   18.6860    2.0080 C   0  0  0  0  0  0  0  0  0  0  0  0
    1.0730   15.8180   -1.1700 C   0  0  1  0  0  0  0  0  0  0  0  0
    1.2970   15.2820    0.2700 C   0  0  0  0  0  0  0  0  0  0  0  0
    1.6310   13.7740    0.1390 C   0  0  0  0  0  0  0  0  0  0  0  0
    1.9140   13.5660   -1.3670 C   0  0  1  0  0  0  0  0  0  0  0  0
    3.3880   14.0390   -1.5670 C   0  0  0  0  0  0  0  0  0  0  0  0
    1.6910   12.1200   -1.9190 C   0  0  2  0  0  0  0  0  0  0  0  0
    2.5980   11.0400   -1.3040 C   0  0  0  0  0  0  0  0  0  0  0  0
    3.8900   10.8110   -2.0160 C   0  0  0  0  0  0  0  0  0  0  0  0
    4.1840   11.2360   -3.2590 C   0  0  0  0  0  0  0  0  0  0  0  0
    3.1300   11.9450   -4.1190 C   0  0  1  0  0  0  0  0  0  0  0  0
    3.1380   11.3430   -5.5480 C   0  0  0  0  0  0  0  0  0  0  0  0
    4.5240   11.3670   -6.1860 C   0  0  0  0  0  0  0  0  0  0  0  0
    5.5310   10.6030   -5.3310 C   0  0  2  0  0  0  0  0  0  0  0  0
    5.1830    9.2150   -5.3380 O   0  0  0  0  0  0  0  0  0  0  0  0
    5.6040   11.1150   -3.8650 C   0  0  0  0  0  0  0  0  0  0  0  0
    6.2660   12.5150   -3.8350 C   0  0  0  0  0  0  0  0  0  0  0  0
    6.5500   10.1710   -3.0750 C   0  0  0  0  0  0  0  0  0  0  0  0
    1.6690   12.0260   -3.4990 C   0  0  1  0  0  0  0  0  0  0  0  0
    0.8680   10.7370   -3.8560 C   0  0  0  0  0  0  0  0  0  0  0  0
    0.8960   13.2280   -4.1590 C   0  0  0  0  0  0  0  0  0  0  0  0
    1.0620   14.6090   -3.4970 C   0  0  0  0  0  0  0  0  0  0  0  0
    0.8300   14.5230   -1.9850 C   0  0  2  0  0  0  0  0  0  0  0  0
   -0.6520   14.0710   -1.7530 C   0  0  0  0  0  0  0  0  0  0  0  0
    0.3827   18.7728   -2.2385 H   0  0  0  0  0  0  0  0  0  0  0  0
    1.0031   17.3242   -3.1006 H   0  0  0  0  0  0  0  0  0  0  0  0
   -0.7567   17.6842   -3.1006 H   0  0  0  0  0  0  0  0  0  0  0  0
   -0.9957   16.4291   -1.2745 H   0  0  0  0  0  0  0  0  0  0  0  0
   -0.9825   17.9574    0.3693 H   0  0  0  0  0  0  0  0  0  0  0  0
    0.6338   17.2107    0.7853 H   0  0  0  0  0  0  0  0  0  0  0  0
    1.2179   19.1256   -1.1595 H   0  0  0  0  0  0  0  0  0  0  0  0
   -0.0070   19.9091   -0.0767 H   0  0  0  0  0  0  0  0  0  0  0  0
    1.0560   19.2887    1.6788 H   0  0  0  0  0  0  0  0  0  0  0  0
    4.1746   17.1190   -0.0779 H   0  0  0  0  0  0  0  0  0  0  0  0
    2.7929   17.7579   -1.0316 H   0  0  0  0  0  0  0  0  0  0  0  0
    4.3636   18.6294   -1.0316 H   0  0  0  0  0  0  0  0  0  0  0  0
    3.3809   18.8052    2.8851 H   0  0  0  0  0  0  0  0  0  0  0  0
    4.4972   17.6885    2.0286 H   0  0  0  0  0  0  0  0  0  0  0  0
    4.8197   19.4556    2.0286 H   0  0  0  0  0  0  0  0  0  0  0  0
    1.9203   16.3766   -1.5944 H   0  0  0  0  0  0  0  0  0  0  0  0
    2.1327   15.8150    0.7469 H   0  0  0  0  0  0  0  0  0  0  0  0
    0.4030   15.4359    0.8922 H   0  0  0  0  0  0  0  0  0  0  0  0
    2.5168   13.5190    0.7393 H   0  0  0  0  0  0  0  0  0  0  0  0
    0.8142   13.1330    0.5022 H   0  0  0  0  0  0  0  0  0  0  0  0
    3.8608   14.1907   -0.5854 H   0  0  0  0  0  0  0  0  0  0  0  0
    3.9454   13.2746   -2.1283 H   0  0  0  0  0  0  0  0  0  0  0  0
    3.3966   14.9850   -2.1283 H   0  0  0  0  0  0  0  0  0  0  0  0
    0.6734   11.8885   -1.5713 H   0  0  0  0  0  0  0  0  0  0  0  0
    2.8277   11.3374   -0.2702 H   0  0  0  0  0  0  0  0  0  0  0  0
    2.0389   10.0955   -1.3769 H   0  0  0  0  0  0  0  0  0  0  0  0
    4.6675   10.2473   -1.4796 H   0  0  0  0  0  0  0  0  0  0  0  0
    3.4304   13.0025   -4.1576 H   0  0  0  0  0  0  0  0  0  0  0  0
    2.7933   10.2999   -5.4930 H   0  0  0  0  0  0  0  0  0  0  0  0
    2.4726   11.9572   -6.1725 H   0  0  0  0  0  0  0  0  0  0  0  0
    4.4703   10.9016   -7.1813 H   0  0  0  0  0  0  0  0  0  0  0  0
    4.8548   12.4129   -6.2679 H   0  0  0  0  0  0  0  0  0  0  0  0
    6.5263   10.7657   -5.7703 H   0  0  0  0  0  0  0  0  0  0  0  0
    5.6000    8.8120   -6.1190 H   0  0  0  0  0  0  0  0  0  0  0  0
    6.4141   12.8283   -2.7910 H   0  0  0  0  0  0  0  0  0  0  0  0
    7.2390   12.4716   -4.3463 H   0  0  0  0  0  0  0  0  0  0  0  0
    5.6151   13.2394   -4.3463 H   0  0  0  0  0  0  0  0  0  0  0  0
    6.3999   10.3208   -1.9956 H   0  0  0  0  0  0  0  0  0  0  0  0
    6.3258    9.1259   -3.3348 H   0  0  0  0  0  0  0  0  0  0  0  0
    7.5946   10.3974   -3.3348 H   0  0  0  0  0  0  0  0  0  0  0  0
    0.5543   10.2321   -2.9304 H   0  0  0  0  0  0  0  0  0  0  0  0
   -0.0206   11.0087   -4.4447 H   0  0  0  0  0  0  0  0  0  0  0  0
    1.5051   10.0606   -4.4447 H   0  0  0  0  0  0  0  0  0  0  0  0
    1.2416   13.3144   -5.1997 H   0  0  0  0  0  0  0  0  0  0  0  0
   -0.1699   12.9812   -4.0456 H   0  0  0  0  0  0  0  0  0  0  0  0
    2.0812   14.9778   -3.6844 H   0  0  0  0  0  0  0  0  0  0  0  0
    0.3189   15.2963   -3.9276 H   0  0  0  0  0  0  0  0  0  0  0  0
   -0.8519   14.0100   -0.6730 H   0  0  0  0  0  0  0  0  0  0  0  0
   -1.3343   14.8019   -2.2115 H   0  0  0  0  0  0  0  0  0  0  0  0
   -0.8103   13.0837   -2.2115 H   0  0  0  0  0  0  0  0  0  0  0  0
  1  2  1  0
  2  3  1  0
  3  4  1  0
  4  5  1  0
  5  6  1  0
  6  7  1  0
  7  8  1  0
  7  9  1  0
  2 10  1  0
 10 11  1  0
 11 12  1  0
 12 13  1  0
 13 14  1  1
 13 15  1  0
 15 16  1  0
 16 17  1  0
 17 18  2  0
 18 19  1  0
 19 20  1  0
 20 21  1  0
 21 22  1  0
 22 23  1  0
 22 24  1  0
 24 25  1  0
 24 26  1  0
 19 27  1  0
 27 28  1  1
 27 29  1  0
 29 30  1  0
 30 31  1  0
 31 32  1  6
  7  5  1  0
 31 10  1  0
 31 13  1  0
 27 15  1  0
 24 18  1  0
  1 33  1  0
  1 34  1  0
  1 35  1  0
  2 36  1  6
  3 37  1  0
  3 38  1  0
  4 39  1  0
  4 40  1  0
  5 41  1  1
  8 42  1  0
  8 43  1  0
  8 44  1  0
  9 45  1  0
  9 46  1  0
  9 47  1  0
 10 48  1  6
 11 49  1  0
 11 50  1  0
 12 51  1  0
 12 52  1  0
 14 53  1  0
 14 54  1  0
 14 55  1  0
 15 56  1  1
 16 57  1  0
 16 58  1  0
 17 59  1  0
 19 60  1  6
 20 61  1  0
 20 62  1  0
 21 63  1  0
 21 64  1  0
 22 65  1  6
 23 66  1  0
 25 67  1  0
 25 68  1  0
 25 69  1  0
 26 70  1  0
 26 71  1  0
 26 72  1  0
 28 73  1  0
 28 74  1  0
 28 75  1  0
 29 76  1  0
 29 77  1  0
 30 78  1  0
 30 79  1  0
 32 80  1  0
 32 81  1  0
 32 82  1  0
M  END
>  <meeko>  (12) 
{"is_sidechain": [false], "intermolecular_energy": 2.731, "internal_energy": -0.839}

$$$$
EPH_relaxed_0001_pdb2pqr_Repair_66_r2_0001_out
     RDKit          3D

 82 86  0  0  0  0  0  0  0  0999 V2000
    3.0880   18.8210   -1.2710 C   0  0  0  0  0  0  0  0  0  0  0  0
    2.6800   17.7660   -2.3030 C   0  0  2  0  0  0  0  0  0  0  0  0
    1.2500   17.9930   -2.8320 C   0  0  0  0  0  0  0  0  0  0  0  0
    0.5960   19.2750   -2.3090 C   0  0  0  0  0  0  0  0  0  0  0  0
   -0.7730   19.0140   -1.7570 C   0  0  2  0  0  0  0  0  0  0  0  0
   -1.5700   20.1870   -1.5530 O   0  0  0  0  0  0  0  0  0  0  0  0
   -1.2140   19.4500   -0.3730 C   0  0  0  0  0  0  0  0  0  0  0  0
   -0.2880   20.1830    0.5470 C   0  0  0  0  0  0  0  0  0  0  0  0
   -2.3680   18.7420    0.2670 C   0  0  0  0  0  0  0  0  0  0  0  0
    2.7950   16.3730   -1.6960 C   0  0  1  0  0  0  0  0  0  0  0  0
    3.4980   16.3800   -0.3120 C   0  0  0  0  0  0  0  0  0  0  0  0
    2.8210   15.2760    0.5400 C   0  0  0  0  0  0  0  0  0  0  0  0
    1.9910   14.4550   -0.4750 C   0  0  1  0  0  0  0  0  0  0  0  0
    3.0170   13.4870   -1.1430 C   0  0  0  0  0  0  0  0  0  0  0  0
    0.7610   13.6820    0.1030 C   0  0  2  0  0  0  0  0  0  0  0  0
    1.1000   12.5990    1.1420 C   0  0  0  0  0  0  0  0  0  0  0  0
    1.3390   11.2350    0.5850 C   0  0  0  0  0  0  0  0  0  0  0  0
    1.0090   10.8270   -0.6550 C   0  0  0  0  0  0  0  0  0  0  0  0
    0.2380   11.7490   -1.6080 C   0  0  1  0  0  0  0  0  0  0  0  0
   -0.9230   10.9590   -2.2670 C   0  0  0  0  0  0  0  0  0  0  0  0
   -0.4470    9.6800   -2.9490 C   0  0  0  0  0  0  0  0  0  0  0  0
    0.2630    8.7630   -1.9560 C   0  0  2  0  0  0  0  0  0  0  0  0
   -0.6900    8.2960   -0.9970 O   0  0  0  0  0  0  0  0  0  0  0  0
    1.4470    9.4540   -1.2230 C   0  0  0  0  0  0  0  0  0  0  0  0
    2.6100    9.6890   -2.2180 C   0  0  0  0  0  0  0  0  0  0  0  0
    1.9850    8.4690   -0.1510 C   0  0  0  0  0  0  0  0  0  0  0  0
   -0.2370   13.1370   -0.9970 C   0  0  1  0  0  0  0  0  0  0  0  0
   -1.6200   12.9640   -0.2970 C   0  0  0  0  0  0  0  0  0  0  0  0
   -0.4580   14.1650   -2.1680 C   0  0  0  0  0  0  0  0  0  0  0  0
    0.7690   14.9840   -2.6140 C   0  0  0  0  0  0  0  0  0  0  0  0
    1.4770   15.6110   -1.4090 C   0  0  2  0  0  0  0  0  0  0  0  0
    0.4760   16.6060   -0.7300 C   0  0  0  0  0  0  0  0  0  0  0  0
    2.9336   18.4217   -0.2577 H   0  0  0  0  0  0  0  0  0  0  0  0
    4.1494   19.0756   -1.4069 H   0  0  0  0  0  0  0  0  0  0  0  0
    2.4741   19.7236   -1.4069 H   0  0  0  0  0  0  0  0  0  0  0  0
    3.3665   17.8573   -3.1576 H   0  0  0  0  0  0  0  0  0  0  0  0
    1.2904   18.0468   -3.9299 H   0  0  0  0  0  0  0  0  0  0  0  0
    0.6381   17.1515   -2.4751 H   0  0  0  0  0  0  0  0  0  0  0  0
    1.2266   19.6977   -1.5130 H   0  0  0  0  0  0  0  0  0  0  0  0
    0.4984   19.9776   -3.1497 H   0  0  0  0  0  0  0  0  0  0  0  0
   -0.8231   18.0456   -2.2764 H   0  0  0  0  0  0  0  0  0  0  0  0
   -0.5609   19.9670    1.5905 H   0  0  0  0  0  0  0  0  0  0  0  0
    0.7461   19.8561    0.3633 H   0  0  0  0  0  0  0  0  0  0  0  0
   -0.3688   21.2645    0.3633 H   0  0  0  0  0  0  0  0  0  0  0  0
   -2.2728   18.8004    1.3613 H   0  0  0  0  0  0  0  0  0  0  0  0
   -3.3091   19.2183   -0.0451 H   0  0  0  0  0  0  0  0  0  0  0  0
   -2.3698   17.6872   -0.0451 H   0  0  0  0  0  0  0  0  0  0  0  0
    3.3543   15.8687   -2.4978 H   0  0  0  0  0  0  0  0  0  0  0  0
    4.5698   16.1629   -0.4306 H   0  0  0  0  0  0  0  0  0  0  0  0
    3.4068   17.3636    0.1720 H   0  0  0  0  0  0  0  0  0  0  0  0
    3.5771   14.6422    1.0264 H   0  0  0  0  0  0  0  0  0  0  0  0
    2.2002   15.6930    1.3467 H   0  0  0  0  0  0  0  0  0  0  0  0
    3.5809   12.9550   -0.3626 H   0  0  0  0  0  0  0  0  0  0  0  0
    2.4803   12.7586   -1.7686 H   0  0  0  0  0  0  0  0  0  0  0  0
    3.7130   14.0652   -1.7686 H   0  0  0  0  0  0  0  0  0  0  0  0
    0.2268   14.4685    0.6563 H   0  0  0  0  0  0  0  0  0  0  0  0
    2.0093   12.9125    1.6757 H   0  0  0  0  0  0  0  0  0  0  0  0
    0.2164   12.5125    1.7914 H   0  0  0  0  0  0  0  0  0  0  0  0
    1.8261   10.5007    1.2435 H   0  0  0  0  0  0  0  0  0  0  0  0
    0.9591   12.0627   -2.3771 H   0  0  0  0  0  0  0  0  0  0  0  0
   -1.6544   10.6929   -1.4896 H   0  0  0  0  0  0  0  0  0  0  0  0
   -1.3692   11.6030   -3.0391 H   0  0  0  0  0  0  0  0  0  0  0  0
   -1.3155    9.1516   -3.3693 H   0  0  0  0  0  0  0  0  0  0  0  0
    0.2618    9.9502   -3.7456 H   0  0  0  0  0  0  0  0  0  0  0  0
    0.6929    7.9273   -2.5277 H   0  0  0  0  0  0  0  0  0  0  0  0
   -0.3610    8.5360   -0.1140 H   0  0  0  0  0  0  0  0  0  0  0  0
    3.5386    9.8766   -1.6589 H   0  0  0  0  0  0  0  0  0  0  0  0
    2.7367    8.7983   -2.8509 H   0  0  0  0  0  0  0  0  0  0  0  0
    2.3809   10.5590   -2.8509 H   0  0  0  0  0  0  0  0  0  0  0  0
    1.7687    8.8650    0.8522 H   0  0  0  0  0  0  0  0  0  0  0  0
    1.4956    7.4914   -0.2727 H   0  0  0  0  0  0  0  0  0  0  0  0
    3.0720    8.3525   -0.2727 H   0  0  0  0  0  0  0  0  0  0  0  0
   -1.4833   12.9811    0.7943 H   0  0  0  0  0  0  0  0  0  0  0  0
   -2.2875   13.7856   -0.5958 H   0  0  0  0  0  0  0  0  0  0  0  0
   -2.0646   12.0032   -0.5958 H   0  0  0  0  0  0  0  0  0  0  0  0
   -0.8178   13.6019   -3.0418 H   0  0  0  0  0  0  0  0  0  0  0  0
   -1.1693   14.9045   -1.7716 H   0  0  0  0  0  0  0  0  0  0  0  0
    1.4722   14.3214   -3.1398 H   0  0  0  0  0  0  0  0  0  0  0  0
    0.4290   15.7908   -3.2800 H   0  0  0  0  0  0  0  0  0  0  0  0
    0.5605   16.5220    0.3635 H   0  0  0  0  0  0  0  0  0  0  0  0
    0.7154   17.6344   -1.0383 H   0  0  0  0  0  0  0  0  0  0  0  0
   -0.5510   16.3604   -1.0383 H   0  0  0  0  0  0  0  0  0  0  0  0
  1  2  1  0
  2  3  1  0
  3  4  1  0
  4  5  1  0
  5  6  1  0
  6  7  1  0
  7  8  1  0
  7  9  1  0
  2 10  1  0
 10 11  1  0
 11 12  1  0
 12 13  1  0
 13 14  1  6
 13 15  1  0
 15 16  1  0
 16 17  1  0
 17 18  2  0
 18 19  1  0
 19 20  1  0
 20 21  1  0
 21 22  1  0
 22 23  1  0
 22 24  1  0
 24 25  1  0
 24 26  1  0
 19 27  1  0
 27 28  1  1
 27 29  1  0
 29 30  1  0
 30 31  1  0
 31 32  1  1
  7  5  1  0
 31 10  1  0
 31 13  1  0
 27 15  1  0
 24 18  1  0
  1 33  1  0
  1 34  1  0
  1 35  1  0
  2 36  1  6
  3 37  1  0
  3 38  1  0
  4 39  1  0
  4 40  1  0
  5 41  1  6
  8 42  1  0
  8 43  1  0
  8 44  1  0
  9 45  1  0
  9 46  1  0
  9 47  1  0
 10 48  1  6
 11 49  1  0
 11 50  1  0
 12 51  1  0
 12 52  1  0
 14 53  1  0
 14 54  1  0
 14 55  1  0
 15 56  1  1
 16 57  1  0
 16 58  1  0
 17 59  1  0
 19 60  1  6
 20 61  1  0
 20 62  1  0
 21 63  1  0
 21 64  1  0
 22 65  1  6
 23 66  1  0
 25 67  1  0
 25 68  1  0
 25 69  1  0
 26 70  1  0
 26 71  1  0
 26 72  1  0
 28 73  1  0
 28 74  1  0
 28 75  1  0
 29 76  1  0
 29 77  1  0
 30 78  1  0
 30 79  1  0
 32 80  1  0
 32 81  1  0
 32 82  1  0
M  END
>  <meeko>  (13) 
{"is_sidechain": [false], "intermolecular_energy": 2.731, "internal_energy": -0.839}

$$$$
EPH_relaxed_0001_pdb2pqr_Repair_66_r2_0001_out
     RDKit          3D

 82 86  0  0  0  0  0  0  0  0999 V2000
   -0.8600   16.3470   -5.8260 C   0  0  0  0  0  0  0  0  0  0  0  0
    0.2320   15.6470   -6.6410 C   0  0  2  0  0  0  0  0  0  0  0  0
   -0.1700   15.4740   -8.1200 C   0  0  0  0  0  0  0  0  0  0  0  0
    0.4710   16.5010   -9.0570 C   0  0  0  0  0  0  0  0  0  0  0  0
    1.8720   16.1160   -9.4250 C   0  0  2  0  0  0  0  0  0  0  0  0
    2.3430   16.6790  -10.6570 O   0  0  0  0  0  0  0  0  0  0  0  0
    2.2140   15.2490  -10.6220 C   0  0  0  0  0  0  0  0  0  0  0  0
    1.1490   14.7120  -11.5260 C   0  0  0  0  0  0  0  0  0  0  0  0
    3.5240   14.5250  -10.6310 C   0  0  0  0  0  0  0  0  0  0  0  0
    0.5520   14.2910   -6.0250 C   0  0  1  0  0  0  0  0  0  0  0  0
    1.8110   13.6330   -6.6500 C   0  0  0  0  0  0  0  0  0  0  0  0
    2.5240   12.8610   -5.5100 C   0  0  0  0  0  0  0  0  0  0  0  0
    1.4910   12.8210   -4.3600 C   0  0  1  0  0  0  0  0  0  0  0  0
    0.5300   11.6470   -4.7250 C   0  0  0  0  0  0  0  0  0  0  0  0
    2.0700   12.6660   -2.9160 C   0  0  2  0  0  0  0  0  0  0  0  0
    2.8390   11.3580   -2.6580 C   0  0  0  0  0  0  0  0  0  0  0  0
    2.0140   10.2240   -2.1470 C   0  0  0  0  0  0  0  0  0  0  0  0
    0.7730   10.3270   -1.6350 C   0  0  0  0  0  0  0  0  0  0  0  0
    0.1130   11.6990   -1.4410 C   0  0  1  0  0  0  0  0  0  0  0  0
   -0.5250   11.7710   -0.0290 C   0  0  0  0  0  0  0  0  0  0  0  0
   -1.4870   10.6180    0.2380 C   0  0  0  0  0  0  0  0  0  0  0  0
   -0.7800    9.2730    0.0930 C   0  0  2  0  0  0  0  0  0  0  0  0
    0.1910    9.1480    1.1360 O   0  0  0  0  0  0  0  0  0  0  0  0
   -0.0900    9.0890   -1.2880 C   0  0  0  0  0  0  0  0  0  0  0  0
   -1.1660    8.9230   -2.3890 C   0  0  0  0  0  0  0  0  0  0  0  0
    0.7030    7.7560   -1.2520 C   0  0  0  0  0  0  0  0  0  0  0  0
    1.0260   12.9590   -1.7640 C   0  0  1  0  0  0  0  0  0  0  0  0
    1.8530   13.3540   -0.5030 C   0  0  0  0  0  0  0  0  0  0  0  0
    0.1030   14.1920   -2.0930 C   0  0  0  0  0  0  0  0  0  0  0  0
   -0.3380   14.3580   -3.5600 C   0  0  0  0  0  0  0  0  0  0  0  0
    0.8600   14.2530   -4.5080 C   0  0  2  0  0  0  0  0  0  0  0  0
    1.8340   15.4360   -4.1790 C   0  0  0  0  0  0  0  0  0  0  0  0
   -0.6569   16.2168   -4.7528 H   0  0  0  0  0  0  0  0  0  0  0  0
   -0.8689   17.4196   -6.0700 H   0  0  0  0  0  0  0  0  0  0  0  0
   -1.8383   15.9073   -6.0700 H   0  0  0  0  0  0  0  0  0  0  0  0
    1.1268   16.2862   -6.6146 H   0  0  0  0  0  0  0  0  0  0  0  0
    0.1338   14.4686   -8.4470 H   0  0  0  0  0  0  0  0  0  0  0  0
   -1.2584   15.6232   -8.1765 H   0  0  0  0  0  0  0  0  0  0  0  0
   -0.1319   16.5720   -9.9743 H   0  0  0  0  0  0  0  0  0  0  0  0
    0.5070   17.4678   -8.5335 H   0  0  0  0  0  0  0  0  0  0  0  0
    2.1599   16.0571   -8.3650 H   0  0  0  0  0  0  0  0  0  0  0  0
    0.3287   14.2984  -10.9210 H   0  0  0  0  0  0  0  0  0  0  0  0
    0.7634   15.5234  -12.1607 H   0  0  0  0  0  0  0  0  0  0  0  0
    1.5721   13.9195  -12.1607 H   0  0  0  0  0  0  0  0  0  0  0  0
    3.8504   14.3446   -9.5961 H   0  0  0  0  0  0  0  0  0  0  0  0
    3.4077   13.5631  -11.1517 H   0  0  0  0  0  0  0  0  0  0  0  0
    4.2766   15.1352  -11.1517 H   0  0  0  0  0  0  0  0  0  0  0  0
   -0.3943   13.7687   -6.2292 H   0  0  0  0  0  0  0  0  0  0  0  0
    1.5176   12.9392   -7.4516 H   0  0  0  0  0  0  0  0  0  0  0  0
    2.4758   14.3908   -7.0901 H   0  0  0  0  0  0  0  0  0  0  0  0
    2.7838   11.8425   -5.8342 H   0  0  0  0  0  0  0  0  0  0  0  0
    3.4665   13.3407   -5.2074 H   0  0  0  0  0  0  0  0  0  0  0  0
    0.1505   11.1834   -3.8024 H   0  0  0  0  0  0  0  0  0  0  0  0
   -0.3140   12.0339   -5.3149 H   0  0  0  0  0  0  0  0  0  0  0  0
    1.0760   10.8961   -5.3149 H   0  0  0  0  0  0  0  0  0  0  0  0
    2.8222   13.4677   -2.8766 H   0  0  0  0  0  0  0  0  0  0  0  0
    3.3008   11.0426   -3.6053 H   0  0  0  0  0  0  0  0  0  0  0  0
    3.5684   11.5847   -1.8665 H   0  0  0  0  0  0  0  0  0  0  0  0
    2.4576    9.2185   -2.1926 H   0  0  0  0  0  0  0  0  0  0  0  0
   -0.6714   11.7713   -2.2088 H   0  0  0  0  0  0  0  0  0  0  0  0
    0.2777   11.7416    0.7225 H   0  0  0  0  0  0  0  0  0  0  0  0
   -1.1008   12.7064    0.0298 H   0  0  0  0  0  0  0  0  0  0  0  0
   -1.8824   10.7085    1.2605 H   0  0  0  0  0  0  0  0  0  0  0  0
   -2.3047   10.6658   -0.4962 H   0  0  0  0  0  0  0  0  0  0  0  0
   -1.5467    8.4877    0.1676 H   0  0  0  0  0  0  0  0  0  0  0  0
    0.7660    9.9310    1.0990 H   0  0  0  0  0  0  0  0  0  0  0  0
   -2.1496    8.7713   -1.9205 H   0  0  0  0  0  0  0  0  0  0  0  0
   -1.1933    9.8276   -3.0143 H   0  0  0  0  0  0  0  0  0  0  0  0
   -0.9195    8.0523   -3.0143 H   0  0  0  0  0  0  0  0  0  0  0  0
    0.8781    7.4616   -0.2067 H   0  0  0  0  0  0  0  0  0  0  0  0
    0.1247    6.9714   -1.7619 H   0  0  0  0  0  0  0  0  0  0  0  0
    1.6685    7.8898   -1.7619 H   0  0  0  0  0  0  0  0  0  0  0  0
    1.2905   13.0853    0.4033 H   0  0  0  0  0  0  0  0  0  0  0  0
    2.8131   12.8172   -0.5113 H   0  0  0  0  0  0  0  0  0  0  0  0
    2.0389   14.4381   -0.5113 H   0  0  0  0  0  0  0  0  0  0  0  0
   -0.8061   14.0999   -1.4806 H   0  0  0  0  0  0  0  0  0  0  0  0
    0.7177   15.0778   -1.8753 H   0  0  0  0  0  0  0  0  0  0  0  0
   -1.0639   13.5699   -3.8089 H   0  0  0  0  0  0  0  0  0  0  0  0
   -0.7931   15.3523   -3.6789 H   0  0  0  0  0  0  0  0  0  0  0  0
    1.9235   15.5447   -3.0880 H   0  0  0  0  0  0  0  0  0  0  0  0
    2.8244   15.2259   -4.6090 H   0  0  0  0  0  0  0  0  0  0  0  0
    1.4377   16.3677   -4.6090 H   0  0  0  0  0  0  0  0  0  0  0  0
  1  2  1  0
  2  3  1  0
  3  4  1  0
  4  5  1  0
  5  6  1  0
  6  7  1  0
  7  8  1  0
  7  9  1  0
  2 10  1  0
 10 11  1  0
 11 12  1  0
 12 13  1  0
 13 14  1  6
 13 15  1  0
 15 16  1  0
 16 17  1  0
 17 18  2  0
 18 19  1  0
 19 20  1  0
 20 21  1  0
 21 22  1  0
 22 23  1  0
 22 24  1  0
 24 25  1  0
 24 26  1  0
 19 27  1  0
 27 28  1  1
 27 29  1  0
 29 30  1  0
 30 31  1  0
 31 32  1  1
  7  5  1  0
 31 10  1  0
 31 13  1  0
 27 15  1  0
 24 18  1  0
  1 33  1  0
  1 34  1  0
  1 35  1  0
  2 36  1  6
  3 37  1  0
  3 38  1  0
  4 39  1  0
  4 40  1  0
  5 41  1  1
  8 42  1  0
  8 43  1  0
  8 44  1  0
  9 45  1  0
  9 46  1  0
  9 47  1  0
 10 48  1  1
 11 49  1  0
 11 50  1  0
 12 51  1  0
 12 52  1  0
 14 53  1  0
 14 54  1  0
 14 55  1  0
 15 56  1  6
 16 57  1  0
 16 58  1  0
 17 59  1  0
 19 60  1  6
 20 61  1  0
 20 62  1  0
 21 63  1  0
 21 64  1  0
 22 65  1  1
 23 66  1  0
 25 67  1  0
 25 68  1  0
 25 69  1  0
 26 70  1  0
 26 71  1  0
 26 72  1  0
 28 73  1  0
 28 74  1  0
 28 75  1  0
 29 76  1  0
 29 77  1  0
 30 78  1  0
 30 79  1  0
 32 80  1  0
 32 81  1  0
 32 82  1  0
M  END
>  <meeko>  (14) 
{"is_sidechain": [false], "intermolecular_energy": 2.731, "internal_energy": -0.839}

$$$$
EPH_relaxed_0001_pdb2pqr_Repair_66_r2_0001_out
     RDKit          3D

 82 86  0  0  0  0  0  0  0  0999 V2000
   -3.7180    7.1990   -3.4040 C   0  0  0  0  0  0  0  0  0  0  0  0
   -3.7530    7.2760   -1.8750 C   0  0  2  0  0  0  0  0  0  0  0  0
   -5.1730    7.0590   -1.3150 C   0  0  0  0  0  0  0  0  0  0  0  0
   -6.2810    7.2490   -2.3560 C   0  0  0  0  0  0  0  0  0  0  0  0
   -7.6120    7.4920   -1.7100 C   0  0  2  0  0  0  0  0  0  0  0  0
   -8.2190    6.3280   -1.1350 O   0  0  0  0  0  0  0  0  0  0  0  0
   -8.9150    6.9250   -2.2420 C   0  0  0  0  0  0  0  0  0  0  0  0
   -8.9510    6.0700   -3.4700 C   0  0  0  0  0  0  0  0  0  0  0  0
  -10.1970    7.5950   -1.8570 C   0  0  0  0  0  0  0  0  0  0  0  0
   -3.2100    8.6220   -1.4110 C   0  0  1  0  0  0  0  0  0  0  0  0
   -3.8280    9.0830   -0.0630 C   0  0  0  0  0  0  0  0  0  0  0  0
   -2.7130    9.8370    0.7050 C   0  0  0  0  0  0  0  0  0  0  0  0
   -1.6050   10.0750   -0.3480 C   0  0  1  0  0  0  0  0  0  0  0  0
   -2.0760   11.3290   -1.1480 C   0  0  0  0  0  0  0  0  0  0  0  0
   -0.1530   10.2530    0.2040 C   0  0  2  0  0  0  0  0  0  0  0  0
    0.0510   11.4740    1.1180 C   0  0  0  0  0  0  0  0  0  0  0  0
    0.4630   12.7300    0.4230 C   0  0  0  0  0  0  0  0  0  0  0  0
    0.9350   12.8080   -0.8350 C   0  0  0  0  0  0  0  0  0  0  0  0
    1.1880   11.5410   -1.6620 C   0  0  1  0  0  0  0  0  0  0  0  0
    2.5780   11.6370   -2.3440 C   0  0  0  0  0  0  0  0  0  0  0  0
    2.7390   12.9120   -3.1670 C   0  0  0  0  0  0  0  0  0  0  0  0
    2.5380   14.1500   -2.2970 C   0  0  2  0  0  0  0  0  0  0  0  0
    3.6060   14.2270   -1.3480 O   0  0  0  0  0  0  0  0  0  0  0  0
    1.1740   14.1600   -1.5520 C   0  0  0  0  0  0  0  0  0  0  0  0
    0.0260   14.3820   -2.5680 C   0  0  0  0  0  0  0  0  0  0  0  0
    1.1570   15.3890   -0.6030 C   0  0  0  0  0  0  0  0  0  0  0  0
    0.9760   10.1620   -0.9000 C   0  0  1  0  0  0  0  0  0  0  0  0
    2.2880    9.7550   -0.1630 C   0  0  0  0  0  0  0  0  0  0  0  0
    0.6900    9.0300   -1.9560 C   0  0  0  0  0  0  0  0  0  0  0  0
   -0.7790    8.8230   -2.3720 C   0  0  0  0  0  0  0  0  0  0  0  0
   -1.6870    8.7210   -1.1430 C   0  0  2  0  0  0  0  0  0  0  0  0
   -1.2520    7.4550   -0.3300 C   0  0  0  0  0  0  0  0  0  0  0  0
   -3.2811    6.2379   -3.7128 H   0  0  0  0  0  0  0  0  0  0  0  0
   -4.7415    7.2803   -3.7988 H   0  0  0  0  0  0  0  0  0  0  0  0
   -3.1062    8.0236   -3.7988 H   0  0  0  0  0  0  0  0  0  0  0  0
   -3.1185    6.4652   -1.4877 H   0  0  0  0  0  0  0  0  0  0  0  0
   -5.2383    6.0339   -0.9215 H   0  0  0  0  0  0  0  0  0  0  0  0
   -5.3307    7.8186   -0.5352 H   0  0  0  0  0  0  0  0  0  0  0  0
   -6.0299    8.1116   -2.9907 H   0  0  0  0  0  0  0  0  0  0  0  0
   -6.3524    6.3281   -2.9533 H   0  0  0  0  0  0  0  0  0  0  0  0
   -7.3137    8.5110   -1.4225 H   0  0  0  0  0  0  0  0  0  0  0  0
   -8.9956    5.0104   -3.1779 H   0  0  0  0  0  0  0  0  0  0  0  0
   -9.8393    6.3234   -4.0673 H   0  0  0  0  0  0  0  0  0  0  0  0
   -8.0446    6.2478   -4.0673 H   0  0  0  0  0  0  0  0  0  0  0  0
  -10.2746    7.6356   -0.7605 H   0  0  0  0  0  0  0  0  0  0  0  0
  -10.2132    8.6169   -2.2638 H   0  0  0  0  0  0  0  0  0  0  0  0
  -11.0452    7.0249   -2.2638 H   0  0  0  0  0  0  0  0  0  0  0  0
   -3.4799    9.2391   -2.2807 H   0  0  0  0  0  0  0  0  0  0  0  0
   -4.6810    9.7528   -0.2467 H   0  0  0  0  0  0  0  0  0  0  0  0
   -4.1959    8.2240    0.5173 H   0  0  0  0  0  0  0  0  0  0  0  0
   -3.0895   10.7940    1.0954 H   0  0  0  0  0  0  0  0  0  0  0  0
   -2.3477    9.2690    1.5733 H   0  0  0  0  0  0  0  0  0  0  0  0
   -2.3737   12.1215   -0.4456 H   0  0  0  0  0  0  0  0  0  0  0  0
   -1.2524   11.6906   -1.7812 H   0  0  0  0  0  0  0  0  0  0  0  0
   -2.9340   11.0590   -1.7812 H   0  0  0  0  0  0  0  0  0  0  0  0
   -0.0364    9.3715    0.8516 H   0  0  0  0  0  0  0  0  0  0  0  0
   -0.8972   11.6699    1.6400 H   0  0  0  0  0  0  0  0  0  0  0  0
    0.8800   11.2138    1.7925 H   0  0  0  0  0  0  0  0  0  0  0  0
    0.3732   13.6704    0.9866 H   0  0  0  0  0  0  0  0  0  0  0  0
    0.3980   11.5141   -2.4270 H   0  0  0  0  0  0  0  0  0  0  0  0
    3.3548   11.6194   -1.5654 H   0  0  0  0  0  0  0  0  0  0  0  0
    2.6731   10.7824   -3.0300 H   0  0  0  0  0  0  0  0  0  0  0  0
    3.7499   12.9361   -3.5999 H   0  0  0  0  0  0  0  0  0  0  0  0
    1.9802   12.9148   -3.9634 H   0  0  0  0  0  0  0  0  0  0  0  0
    2.5374   15.0246   -2.9641 H   0  0  0  0  0  0  0  0  0  0  0  0
    3.8010   15.1670   -1.2000 H   0  0  0  0  0  0  0  0  0  0  0  0
   -0.9136   14.5637   -2.0256 H   0  0  0  0  0  0  0  0  0  0  0  0
    0.2587   15.2518   -3.1999 H   0  0  0  0  0  0  0  0  0  0  0  0
   -0.0823   13.4882   -3.1999 H   0  0  0  0  0  0  0  0  0  0  0  0
    1.1618   15.0455    0.4420 H   0  0  0  0  0  0  0  0  0  0  0  0
    2.0467   16.0085   -0.7894 H   0  0  0  0  0  0  0  0  0  0  0  0
    0.2505   15.9836   -0.7894 H   0  0  0  0  0  0  0  0  0  0  0  0
    2.1283    9.8045    0.9242 H   0  0  0  0  0  0  0  0  0  0  0  0
    2.5646    8.7288   -0.4466 H   0  0  0  0  0  0  0  0  0  0  0  0
    3.0968   10.4445   -0.4466 H   0  0  0  0  0  0  0  0  0  0  0  0
    1.2624    9.2698   -2.8642 H   0  0  0  0  0  0  0  0  0  0  0  0
    0.9834    8.0930   -1.4601 H   0  0  0  0  0  0  0  0  0  0  0  0
   -1.1020    9.6749   -2.9884 H   0  0  0  0  0  0  0  0  0  0  0  0
   -0.8535    7.8853   -2.9422 H   0  0  0  0  0  0  0  0  0  0  0  0
   -1.3251    7.6677    0.7468 H   0  0  0  0  0  0  0  0  0  0  0  0
   -1.9121    6.6122   -0.5829 H   0  0  0  0  0  0  0  0  0  0  0  0
   -0.2133    7.1959   -0.5829 H   0  0  0  0  0  0  0  0  0  0  0  0
  1  2  1  0
  2  3  1  0
  3  4  1  0
  4  5  1  0
  5  6  1  0
  6  7  1  0
  7  8  1  0
  7  9  1  0
  2 10  1  0
 10 11  1  0
 11 12  1  0
 12 13  1  0
 13 14  1  6
 13 15  1  0
 15 16  1  0
 16 17  1  0
 17 18  2  0
 18 19  1  0
 19 20  1  0
 20 21  1  0
 21 22  1  0
 22 23  1  0
 22 24  1  0
 24 25  1  0
 24 26  1  0
 19 27  1  0
 27 28  1  1
 27 29  1  0
 29 30  1  0
 30 31  1  0
 31 32  1  1
  7  5  1  0
 31 10  1  0
 31 13  1  0
 27 15  1  0
 24 18  1  0
  1 33  1  0
  1 34  1  0
  1 35  1  0
  2 36  1  1
  3 37  1  0
  3 38  1  0
  4 39  1  0
  4 40  1  0
  5 41  1  1
  8 42  1  0
  8 43  1  0
  8 44  1  0
  9 45  1  0
  9 46  1  0
  9 47  1  0
 10 48  1  6
 11 49  1  0
 11 50  1  0
 12 51  1  0
 12 52  1  0
 14 53  1  0
 14 54  1  0
 14 55  1  0
 15 56  1  1
 16 57  1  0
 16 58  1  0
 17 59  1  0
 19 60  1  6
 20 61  1  0
 20 62  1  0
 21 63  1  0
 21 64  1  0
 22 65  1  6
 23 66  1  0
 25 67  1  0
 25 68  1  0
 25 69  1  0
 26 70  1  0
 26 71  1  0
 26 72  1  0
 28 73  1  0
 28 74  1  0
 28 75  1  0
 29 76  1  0
 29 77  1  0
 30 78  1  0
 30 79  1  0
 32 80  1  0
 32 81  1  0
 32 82  1  0
M  END
>  <meeko>  (15) 
{"is_sidechain": [false], "intermolecular_energy": 2.731, "internal_energy": -0.839}

$$$$
EPH_relaxed_0001_pdb2pqr_Repair_66_r2_0001_out
     RDKit          3D

 82 86  0  0  0  0  0  0  0  0999 V2000
   -2.0340    7.8780   -1.9410 C   0  0  0  0  0  0  0  0  0  0  0  0
   -2.1000    8.5690   -0.5760 C   0  0  2  0  0  0  0  0  0  0  0  0
   -3.5340    8.6030   -0.0110 C   0  0  0  0  0  0  0  0  0  0  0  0
   -4.6200    8.4400   -1.0780 C   0  0  0  0  0  0  0  0  0  0  0  0
   -5.7080    7.5140   -0.6240 C   0  0  2  0  0  0  0  0  0  0  0  0
   -6.0460    6.4830   -1.5610 O   0  0  0  0  0  0  0  0  0  0  0  0
   -7.0750    7.4450   -1.2790 C   0  0  0  0  0  0  0  0  0  0  0  0
   -7.4280    8.3170   -2.4430 C   0  0  0  0  0  0  0  0  0  0  0  0
   -8.2200    6.8900   -0.4900 C   0  0  0  0  0  0  0  0  0  0  0  0
   -1.5490    9.9860   -0.6840 C   0  0  1  0  0  0  0  0  0  0  0  0
   -1.0210   10.5270    0.6720 C   0  0  0  0  0  0  0  0  0  0  0  0
    0.2030   11.4220    0.3510 C   0  0  0  0  0  0  0  0  0  0  0  0
    0.1390   11.6350   -1.1800 C   0  0  1  0  0  0  0  0  0  0  0  0
   -0.9070   12.7760   -1.3830 C   0  0  0  0  0  0  0  0  0  0  0  0
    1.4940   11.9610   -1.8890 C   0  0  2  0  0  0  0  0  0  0  0  0
    2.1650   13.2720   -1.4430 C   0  0  0  0  0  0  0  0  0  0  0  0
    1.7840   14.4830   -2.2300 C   0  0  0  0  0  0  0  0  0  0  0  0
    1.1640   14.4760   -3.4240 C   0  0  0  0  0  0  0  0  0  0  0  0
    0.8680   13.1580   -4.1510 C   0  0  1  0  0  0  0  0  0  0  0  0
    1.2820   13.2830   -5.6410 C   0  0  0  0  0  0  0  0  0  0  0  0
    0.6390   14.4850   -6.3270 C   0  0  0  0  0  0  0  0  0  0  0  0
    1.0040   15.7820   -5.6100 C   0  0  2  0  0  0  0  0  0  0  0  0
    2.4070   16.0170   -5.7670 O   0  0  0  0  0  0  0  0  0  0  0  0
    0.6420   15.7690   -4.0990 C   0  0  0  0  0  0  0  0  0  0  0  0
   -0.8970   15.8180   -3.9310 C   0  0  0  0  0  0  0  0  0  0  0  0
    1.1900   17.0770   -3.4650 C   0  0  0  0  0  0  0  0  0  0  0  0
    1.4450   11.8440   -3.4660 C   0  0  1  0  0  0  0  0  0  0  0  0
    2.9090   11.5960   -3.9410 C   0  0  0  0  0  0  0  0  0  0  0  0
    0.6050   10.6030   -3.9480 C   0  0  0  0  0  0  0  0  0  0  0  0
   -0.6580   10.2600   -3.1350 C   0  0  0  0  0  0  0  0  0  0  0  0
   -0.3470   10.2110   -1.6350 C   0  0  2  0  0  0  0  0  0  0  0  0
    0.6860    9.0580   -1.3980 C   0  0  0  0  0  0  0  0  0  0  0  0
   -1.9303    6.7923   -1.7977 H   0  0  0  0  0  0  0  0  0  0  0  0
   -2.9562    8.0873   -2.5029 H   0  0  0  0  0  0  0  0  0  0  0  0
   -1.1681    8.2581   -2.5029 H   0  0  0  0  0  0  0  0  0  0  0  0
   -1.4843    7.9827    0.1219 H   0  0  0  0  0  0  0  0  0  0  0  0
   -3.6391    7.7869    0.7190 H   0  0  0  0  0  0  0  0  0  0  0  0
   -3.6768    9.5942    0.4442 H   0  0  0  0  0  0  0  0  0  0  0  0
   -5.0579    9.4256   -1.2946 H   0  0  0  0  0  0  0  0  0  0  0  0
   -4.1556    8.0090   -1.9772 H   0  0  0  0  0  0  0  0  0  0  0  0
   -5.3974    7.6251    0.4254 H   0  0  0  0  0  0  0  0  0  0  0  0
   -7.8171    9.2783   -2.0763 H   0  0  0  0  0  0  0  0  0  0  0  0
   -6.5306    8.4938   -3.0541 H   0  0  0  0  0  0  0  0  0  0  0  0
   -8.1957    7.8198   -3.0541 H   0  0  0  0  0  0  0  0  0  0  0  0
   -8.0086    6.9925    0.5846 H   0  0  0  0  0  0  0  0  0  0  0  0
   -9.1381    7.4431   -0.7375 H   0  0  0  0  0  0  0  0  0  0  0  0
   -8.3546    5.8267   -0.7375 H   0  0  0  0  0  0  0  0  0  0  0  0
   -2.4396   10.5006   -1.0740 H   0  0  0  0  0  0  0  0  0  0  0  0
   -1.8013   11.1183    1.1735 H   0  0  0  0  0  0  0  0  0  0  0  0
   -0.7415    9.7023    1.3441 H   0  0  0  0  0  0  0  0  0  0  0  0
    0.1306   12.3835    0.8803 H   0  0  0  0  0  0  0  0  0  0  0  0
    1.1506   10.9631    0.6693 H   0  0  0  0  0  0  0  0  0  0  0  0
   -1.2438   13.1434   -0.4024 H   0  0  0  0  0  0  0  0  0  0  0  0
   -0.4451   13.6012   -1.9448 H   0  0  0  0  0  0  0  0  0  0  0  0
   -1.7692   12.3874   -1.9448 H   0  0  0  0  0  0  0  0  0  0  0  0
    2.1485   11.1533   -1.5295 H   0  0  0  0  0  0  0  0  0  0  0  0
    1.8958   13.4512   -0.3916 H   0  0  0  0  0  0  0  0  0  0  0  0
    3.2442   13.1317   -1.6034 H   0  0  0  0  0  0  0  0  0  0  0  0
    2.0312   15.4634   -1.7968 H   0  0  0  0  0  0  0  0  0  0  0  0
   -0.2192   13.0081   -4.0774 H   0  0  0  0  0  0  0  0  0  0  0  0
    2.3755   13.3888   -5.6957 H   0  0  0  0  0  0  0  0  0  0  0  0
    0.9370   12.3772   -6.1610 H   0  0  0  0  0  0  0  0  0  0  0  0
    0.9922   14.5372   -7.3675 H   0  0  0  0  0  0  0  0  0  0  0  0
   -0.4538   14.3630   -6.2974 H   0  0  0  0  0  0  0  0  0  0  0  0
    0.4129   16.5892   -6.0671 H   0  0  0  0  0  0  0  0  0  0  0  0
    2.5140   16.7420   -6.4070 H   0  0  0  0  0  0  0  0  0  0  0  0
   -1.1489   15.8260   -2.8603 H   0  0  0  0  0  0  0  0  0  0  0  0
   -1.2890   16.7291   -4.4067 H   0  0  0  0  0  0  0  0  0  0  0  0
   -1.3461   14.9337   -4.4067 H   0  0  0  0  0  0  0  0  0  0  0  0
    1.1558   16.9953   -2.3686 H   0  0  0  0  0  0  0  0  0  0  0  0
    2.2295   17.2339   -3.7887 H   0  0  0  0  0  0  0  0  0  0  0  0
    0.5727   17.9280   -3.7887 H   0  0  0  0  0  0  0  0  0  0  0  0
    3.5649   11.4849   -3.0649 H   0  0  0  0  0  0  0  0  0  0  0  0
    2.9475   10.6785   -4.5466 H   0  0  0  0  0  0  0  0  0  0  0  0
    3.2476   12.4496   -4.5466 H   0  0  0  0  0  0  0  0  0  0  0  0
    0.2912   10.7961   -4.9845 H   0  0  0  0  0  0  0  0  0  0  0  0
    1.2722    9.7376   -3.8215 H   0  0  0  0  0  0  0  0  0  0  0  0
   -1.4241   11.0276   -3.3190 H   0  0  0  0  0  0  0  0  0  0  0  0
   -1.0212    9.2709   -3.4509 H   0  0  0  0  0  0  0  0  0  0  0  0
    0.8231    8.9049   -0.3174 H   0  0  0  0  0  0  0  0  0  0  0  0
    0.3113    8.1303   -1.8551 H   0  0  0  0  0  0  0  0  0  0  0  0
    1.6492    9.3289   -1.8551 H   0  0  0  0  0  0  0  0  0  0  0  0
  1  2  1  0
  2  3  1  0
  3  4  1  0
  4  5  1  0
  5  6  1  0
  6  7  1  0
  7  8  1  0
  7  9  1  0
  2 10  1  0
 10 11  1  0
 11 12  1  0
 12 13  1  0
 13 14  1  1
 13 15  1  0
 15 16  1  0
 16 17  1  0
 17 18  2  0
 18 19  1  0
 19 20  1  0
 20 21  1  0
 21 22  1  0
 22 23  1  0
 22 24  1  0
 24 25  1  0
 24 26  1  0
 19 27  1  0
 27 28  1  6
 27 29  1  0
 29 30  1  0
 30 31  1  0
 31 32  1  6
  7  5  1  0
 31 10  1  0
 31 13  1  0
 27 15  1  0
 24 18  1  0
  1 33  1  0
  1 34  1  0
  1 35  1  0
  2 36  1  1
  3 37  1  0
  3 38  1  0
  4 39  1  0
  4 40  1  0
  5 41  1  1
  8 42  1  0
  8 43  1  0
  8 44  1  0
  9 45  1  0
  9 46  1  0
  9 47  1  0
 10 48  1  6
 11 49  1  0
 11 50  1  0
 12 51  1  0
 12 52  1  0
 14 53  1  0
 14 54  1  0
 14 55  1  0
 15 56  1  1
 16 57  1  0
 16 58  1  0
 17 59  1  0
 19 60  1  6
 20 61  1  0
 20 62  1  0
 21 63  1  0
 21 64  1  0
 22 65  1  6
 23 66  1  0
 25 67  1  0
 25 68  1  0
 25 69  1  0
 26 70  1  0
 26 71  1  0
 26 72  1  0
 28 73  1  0
 28 74  1  0
 28 75  1  0
 29 76  1  0
 29 77  1  0
 30 78  1  0
 30 79  1  0
 32 80  1  0
 32 81  1  0
 32 82  1  0
M  END
>  <meeko>  (16) 
{"is_sidechain": [false], "intermolecular_energy": 2.731, "internal_energy": -0.839}

$$$$
EPH_relaxed_0001_pdb2pqr_Repair_66_r2_0001_out
     RDKit          3D

 82 86  0  0  0  0  0  0  0  0999 V2000
    0.1630    9.4210   -2.6770 C   0  0  0  0  0  0  0  0  0  0  0  0
    1.2110   10.4600   -3.0850 C   0  0  2  0  0  0  0  0  0  0  0  0
    2.6230    9.8490   -3.1940 C   0  0  0  0  0  0  0  0  0  0  0  0
    3.5930   10.6870   -4.0300 C   0  0  0  0  0  0  0  0  0  0  0  0
    4.9540   10.7470   -3.4050 C   0  0  2  0  0  0  0  0  0  0  0  0
    5.6670   11.9680   -3.6400 O   0  0  0  0  0  0  0  0  0  0  0  0
    6.2420   10.7790   -4.2070 C   0  0  0  0  0  0  0  0  0  0  0  0
    6.2310   10.7520   -5.7030 C   0  0  0  0  0  0  0  0  0  0  0  0
    7.5110   10.3460   -3.5400 C   0  0  0  0  0  0  0  0  0  0  0  0
    1.2170   11.6120   -2.0870 C   0  0  1  0  0  0  0  0  0  0  0  0
    2.2950   11.4400   -0.9840 C   0  0  0  0  0  0  0  0  0  0  0  0
    2.8170   12.8600   -0.6440 C   0  0  0  0  0  0  0  0  0  0  0  0
    1.8030   13.8180   -1.3110 C   0  0  1  0  0  0  0  0  0  0  0  0
    0.6010   13.8850   -0.3170 C   0  0  0  0  0  0  0  0  0  0  0  0
    2.3340   15.2440   -1.6720 C   0  0  2  0  0  0  0  0  0  0  0  0
    2.7880   16.0940   -0.4720 C   0  0  0  0  0  0  0  0  0  0  0  0
    1.7290   16.9500    0.1400 C   0  0  0  0  0  0  0  0  0  0  0  0
    0.5440   17.2520   -0.4240 C   0  0  0  0  0  0  0  0  0  0  0  0
    0.2110   16.7940   -1.8500 C   0  0  1  0  0  0  0  0  0  0  0  0
   -0.3920   17.9800   -2.6470 C   0  0  0  0  0  0  0  0  0  0  0  0
   -1.5900   18.6100   -1.9420 C   0  0  0  0  0  0  0  0  0  0  0  0
   -1.2040   19.1050   -0.5500 C   0  0  2  0  0  0  0  0  0  0  0  0
   -0.2850   20.1930   -0.6860 O   0  0  0  0  0  0  0  0  0  0  0  0
   -0.5760   17.9980    0.3420 C   0  0  0  0  0  0  0  0  0  0  0  0
   -1.6630   16.9690    0.7380 C   0  0  0  0  0  0  0  0  0  0  0  0
   -0.1040   18.6620    1.6640 C   0  0  0  0  0  0  0  0  0  0  0  0
    1.3840   16.0650   -2.6360 C   0  0  1  0  0  0  0  0  0  0  0  0
    2.2810   17.1200   -3.3520 C   0  0  0  0  0  0  0  0  0  0  0  0
    0.7630   15.1670   -3.7700 C   0  0  0  0  0  0  0  0  0  0  0  0
    0.3690   13.7290   -3.3810 C   0  0  0  0  0  0  0  0  0  0  0  0
    1.5120   13.0290   -2.6390 C   0  0  2  0  0  0  0  0  0  0  0  0
    2.7280   12.9270   -3.6210 C   0  0  0  0  0  0  0  0  0  0  0  0
    0.1083    9.3668   -1.5797 H   0  0  0  0  0  0  0  0  0  0  0  0
   -0.8184    9.7127   -3.0791 H   0  0  0  0  0  0  0  0  0  0  0  0
    0.4462    8.4371   -3.0791 H   0  0  0  0  0  0  0  0  0  0  0  0
    0.9356   10.8339   -4.0822 H   0  0  0  0  0  0  0  0  0  0  0  0
    3.0368    9.7476   -2.1798 H   0  0  0  0  0  0  0  0  0  0  0  0
    2.5154    8.8794   -3.7023 H   0  0  0  0  0  0  0  0  0  0  0  0
    3.6798   10.2391   -5.0309 H   0  0  0  0  0  0  0  0  0  0  0  0
    3.1975   11.7117   -4.0897 H   0  0  0  0  0  0  0  0  0  0  0  0
    4.6227   10.1172   -2.5662 H   0  0  0  0  0  0  0  0  0  0  0  0
    5.8371    9.7851   -6.0494 H   0  0  0  0  0  0  0  0  0  0  0  0
    5.5921   11.5644   -6.0797 H   0  0  0  0  0  0  0  0  0  0  0  0
    7.2557   10.8866   -6.0797 H   0  0  0  0  0  0  0  0  0  0  0  0
    7.3845   10.3891   -2.4481 H   0  0  0  0  0  0  0  0  0  0  0  0
    7.7502    9.3154   -3.8410 H   0  0  0  0  0  0  0  0  0  0  0  0
    8.3303   11.0154   -3.8410 H   0  0  0  0  0  0  0  0  0  0  0  0
    0.1772   11.5552   -1.7326 H   0  0  0  0  0  0  0  0  0  0  0  0
    1.8523   10.9751   -0.0907 H   0  0  0  0  0  0  0  0  0  0  0  0
    3.1130   10.7904   -1.3288 H   0  0  0  0  0  0  0  0  0  0  0  0
    2.8396   13.0151    0.4448 H   0  0  0  0  0  0  0  0  0  0  0  0
    3.8440   13.0240   -1.0024 H   0  0  0  0  0  0  0  0  0  0  0  0
    0.9780   13.8640    0.7162 H   0  0  0  0  0  0  0  0  0  0  0  0
    0.0390   14.8159   -0.4834 H   0  0  0  0  0  0  0  0  0  0  0  0
   -0.0609   13.0224   -0.4834 H   0  0  0  0  0  0  0  0  0  0  0  0
    3.2478   15.0185   -2.2412 H   0  0  0  0  0  0  0  0  0  0  0  0
    3.1647   15.4120    0.3045 H   0  0  0  0  0  0  0  0  0  0  0  0
    3.5513   16.7847   -0.8597 H   0  0  0  0  0  0  0  0  0  0  0  0
    1.9340   17.3696    1.1360 H   0  0  0  0  0  0  0  0  0  0  0  0
   -0.5377   15.9950   -1.7454 H   0  0  0  0  0  0  0  0  0  0  0  0
    0.3844   18.7482   -2.7774 H   0  0  0  0  0  0  0  0  0  0  0  0
   -0.7413   17.5891   -3.6141 H   0  0  0  0  0  0  0  0  0  0  0  0
   -1.9532   19.4598   -2.5387 H   0  0  0  0  0  0  0  0  0  0  0  0
   -2.3775   17.8489   -1.8388 H   0  0  0  0  0  0  0  0  0  0  0  0
   -2.1277   19.4262   -0.0464 H   0  0  0  0  0  0  0  0  0  0  0  0
   -0.0470   20.4910    0.2080 H   0  0  0  0  0  0  0  0  0  0  0  0
   -1.7278   16.9077    1.8344 H   0  0  0  0  0  0  0  0  0  0  0  0
   -2.6342   17.2864    0.3305 H   0  0  0  0  0  0  0  0  0  0  0  0
   -1.3993   15.9819    0.3305 H   0  0  0  0  0  0  0  0  0  0  0  0
   -0.5041   18.0992    2.5202 H   0  0  0  0  0  0  0  0  0  0  0  0
    0.9953   18.6582    1.7041 H   0  0  0  0  0  0  0  0  0  0  0  0
   -0.4688   19.6990    1.7041 H   0  0  0  0  0  0  0  0  0  0  0  0
    2.8005   17.7310   -2.5992 H   0  0  0  0  0  0  0  0  0  0  0  0
    3.0220   16.6049   -3.9810 H   0  0  0  0  0  0  0  0  0  0  0  0
    1.6535   17.7685   -3.9810 H   0  0  0  0  0  0  0  0  0  0  0  0
   -0.1428   15.6726   -4.1361 H   0  0  0  0  0  0  0  0  0  0  0  0
    1.5623   15.0539   -4.5172 H   0  0  0  0  0  0  0  0  0  0  0  0
   -0.5162   13.7624   -2.7289 H   0  0  0  0  0  0  0  0  0  0  0  0
    0.1496   13.1648   -4.2994 H   0  0  0  0  0  0  0  0  0  0  0  0
    3.6606   12.8488   -3.0429 H   0  0  0  0  0  0  0  0  0  0  0  0
    2.6136   12.0353   -4.2549 H   0  0  0  0  0  0  0  0  0  0  0  0
    2.7638   13.8253   -4.2549 H   0  0  0  0  0  0  0  0  0  0  0  0
  1  2  1  0
  2  3  1  0
  3  4  1  0
  4  5  1  0
  5  6  1  0
  6  7  1  0
  7  8  1  0
  7  9  1  0
  2 10  1  0
 10 11  1  0
 11 12  1  0
 12 13  1  0
 13 14  1  1
 13 15  1  0
 15 16  1  0
 16 17  1  0
 17 18  2  0
 18 19  1  0
 19 20  1  0
 20 21  1  0
 21 22  1  0
 22 23  1  0
 22 24  1  0
 24 25  1  0
 24 26  1  0
 19 27  1  0
 27 28  1  6
 27 29  1  0
 29 30  1  0
 30 31  1  0
 31 32  1  6
  7  5  1  0
 31 10  1  0
 31 13  1  0
 27 15  1  0
 24 18  1  0
  1 33  1  0
  1 34  1  0
  1 35  1  0
  2 36  1  6
  3 37  1  0
  3 38  1  0
  4 39  1  0
  4 40  1  0
  5 41  1  1
  8 42  1  0
  8 43  1  0
  8 44  1  0
  9 45  1  0
  9 46  1  0
  9 47  1  0
 10 48  1  1
 11 49  1  0
 11 50  1  0
 12 51  1  0
 12 52  1  0
 14 53  1  0
 14 54  1  0
 14 55  1  0
 15 56  1  6
 16 57  1  0
 16 58  1  0
 17 59  1  0
 19 60  1  1
 20 61  1  0
 20 62  1  0
 21 63  1  0
 21 64  1  0
 22 65  1  1
 23 66  1  0
 25 67  1  0
 25 68  1  0
 25 69  1  0
 26 70  1  0
 26 71  1  0
 26 72  1  0
 28 73  1  0
 28 74  1  0
 28 75  1  0
 29 76  1  0
 29 77  1  0
 30 78  1  0
 30 79  1  0
 32 80  1  0
 32 81  1  0
 32 82  1  0
M  END
>  <meeko>  (17) 
{"is_sidechain": [false], "intermolecular_energy": 2.731, "internal_energy": -0.839}

$$$$
EPH_relaxed_0001_pdb2pqr_Repair_66_r2_0001_out
     RDKit          3D

 82 86  0  0  0  0  0  0  0  0999 V2000
    1.5700   10.7730   -4.6930 C   0  0  0  0  0  0  0  0  0  0  0  0
    0.8200   10.5820   -3.3710 C   0  0  2  0  0  0  0  0  0  0  0  0
   -0.3070    9.5370   -3.4880 C   0  0  0  0  0  0  0  0  0  0  0  0
   -0.2070    8.4060   -2.4610 C   0  0  0  0  0  0  0  0  0  0  0  0
    0.1340    8.9250   -1.0970 C   0  0  2  0  0  0  0  0  0  0  0  0
   -0.2090    8.0450   -0.0180 O   0  0  0  0  0  0  0  0  0  0  0  0
   -0.9090    9.2990   -0.0590 C   0  0  0  0  0  0  0  0  0  0  0  0
   -2.3730    9.1700   -0.3430 C   0  0  0  0  0  0  0  0  0  0  0  0
   -0.5210   10.2420    1.0370 C   0  0  0  0  0  0  0  0  0  0  0  0
    0.2480   11.9150   -2.9020 C   0  0  1  0  0  0  0  0  0  0  0  0
   -1.0840   11.7520   -2.1230 C   0  0  0  0  0  0  0  0  0  0  0  0
   -1.0950   12.8440   -1.0220 C   0  0  0  0  0  0  0  0  0  0  0  0
    0.0580   13.7990   -1.4090 C   0  0  1  0  0  0  0  0  0  0  0  0
   -0.5420   14.7270   -2.5120 C   0  0  0  0  0  0  0  0  0  0  0  0
    0.6920   14.6250   -0.2420 C   0  0  2  0  0  0  0  0  0  0  0  0
   -0.2660   15.6010    0.4620 C   0  0  0  0  0  0  0  0  0  0  0  0
   -0.3110   16.9780   -0.1130 C   0  0  0  0  0  0  0  0  0  0  0  0
    0.5910   17.4980   -0.9670 C   0  0  0  0  0  0  0  0  0  0  0  0
    1.8470   16.7110   -1.3630 C   0  0  1  0  0  0  0  0  0  0  0  0
    3.0880   17.6370   -1.2710 C   0  0  0  0  0  0  0  0  0  0  0  0
    2.9230   18.9190   -2.0820 C   0  0  0  0  0  0  0  0  0  0  0  0
    1.6970   19.7020   -1.6200 C   0  0  2  0  0  0  0  0  0  0  0  0
    1.9270   20.1750   -0.2890 O   0  0  0  0  0  0  0  0  0  0  0  0
    0.3860   18.8680   -1.6600 C   0  0  0  0  0  0  0  0  0  0  0  0
   -0.0240   18.6130   -3.1310 C   0  0  0  0  0  0  0  0  0  0  0  0
   -0.7460   19.7290   -1.0370 C   0  0  0  0  0  0  0  0  0  0  0  0
    2.0610   15.3260   -0.6140 C   0  0  1  0  0  0  0  0  0  0  0  0
    2.8210   15.5590    0.7280 C   0  0  0  0  0  0  0  0  0  0  0  0
    2.9870   14.4040   -1.4930 C   0  0  0  0  0  0  0  0  0  0  0  0
    2.2890   13.5230   -2.5470 C   0  0  0  0  0  0  0  0  0  0  0  0
    1.1140   12.7580   -1.9320 C   0  0  2  0  0  0  0  0  0  0  0  0
    1.6890   11.8000   -0.8340 C   0  0  0  0  0  0  0  0  0  0  0  0
    2.6168   11.0396   -4.4855 H   0  0  0  0  0  0  0  0  0  0  0  0
    1.5375    9.8379   -5.2714 H   0  0  0  0  0  0  0  0  0  0  0  0
    1.0942   11.5786   -5.2714 H   0  0  0  0  0  0  0  0  0  0  0  0
    1.5424   10.2059   -2.6316 H   0  0  0  0  0  0  0  0  0  0  0  0
   -1.2707   10.0486   -3.3484 H   0  0  0  0  0  0  0  0  0  0  0  0
   -0.2163    9.0766   -4.4829 H   0  0  0  0  0  0  0  0  0  0  0  0
   -1.1731    7.8824   -2.4120 H   0  0  0  0  0  0  0  0  0  0  0  0
    0.5952    7.7238   -2.7789 H   0  0  0  0  0  0  0  0  0  0  0  0
    1.0062    9.4645   -1.4947 H   0  0  0  0  0  0  0  0  0  0  0  0
   -2.9276    9.1211    0.6057 H   0  0  0  0  0  0  0  0  0  0  0  0
   -2.7124   10.0417   -0.9217 H   0  0  0  0  0  0  0  0  0  0  0  0
   -2.5548    8.2524   -0.9217 H   0  0  0  0  0  0  0  0  0  0  0  0
   -0.7149    9.7708    2.0119 H   0  0  0  0  0  0  0  0  0  0  0  0
    0.5491   10.4823    0.9522 H   0  0  0  0  0  0  0  0  0  0  0  0
   -1.1121   11.1658    0.9522 H   0  0  0  0  0  0  0  0  0  0  0  0
    0.1588   12.4291   -3.8704 H   0  0  0  0  0  0  0  0  0  0  0  0
   -1.9389   11.8895   -2.8015 H   0  0  0  0  0  0  0  0  0  0  0  0
   -1.1638   10.7469   -1.6832 H   0  0  0  0  0  0  0  0  0  0  0  0
   -2.0563   13.3786   -1.0148 H   0  0  0  0  0  0  0  0  0  0  0  0
   -0.9669   12.4220   -0.0143 H   0  0  0  0  0  0  0  0  0  0  0  0
   -1.0807   15.5602   -2.0370 H   0  0  0  0  0  0  0  0  0  0  0  0
    0.2702   15.1250   -3.1380 H   0  0  0  0  0  0  0  0  0  0  0  0
   -1.2382   14.1497   -3.1380 H   0  0  0  0  0  0  0  0  0  0  0  0
    0.9230   13.8464    0.4999 H   0  0  0  0  0  0  0  0  0  0  0  0
   -1.2801   15.1781    0.4105 H   0  0  0  0  0  0  0  0  0  0  0  0
    0.1139   15.7125    1.4883 H   0  0  0  0  0  0  0  0  0  0  0  0
   -1.1514   17.6217    0.1860 H   0  0  0  0  0  0  0  0  0  0  0  0
    1.6936   16.3959   -2.4057 H   0  0  0  0  0  0  0  0  0  0  0  0
    3.2504   17.9052   -0.2166 H   0  0  0  0  0  0  0  0  0  0  0  0
    3.9460   17.0876   -1.6858 H   0  0  0  0  0  0  0  0  0  0  0  0
    3.8189   19.5441   -1.9536 H   0  0  0  0  0  0  0  0  0  0  0  0
    2.7901   18.6505   -3.1404 H   0  0  0  0  0  0  0  0  0  0  0  0
    1.5568   20.5388   -2.3201 H   0  0  0  0  0  0  0  0  0  0  0  0
    1.4820   19.5630    0.3220 H   0  0  0  0  0  0  0  0  0  0  0  0
   -0.9578   18.0322   -3.1559 H   0  0  0  0  0  0  0  0  0  0  0  0
   -0.1771   19.5755   -3.6411 H   0  0  0  0  0  0  0  0  0  0  0  0
    0.7716   18.0501   -3.6411 H   0  0  0  0  0  0  0  0  0  0  0  0
   -0.6821   19.6804    0.0601 H   0  0  0  0  0  0  0  0  0  0  0  0
   -0.6352   20.7731   -1.3649 H   0  0  0  0  0  0  0  0  0  0  0  0
   -1.7226   19.3434   -1.3649 H   0  0  0  0  0  0  0  0  0  0  0  0
    2.1465   15.3522    1.5720 H   0  0  0  0  0  0  0  0  0  0  0  0
    3.6895   14.8858    0.7792 H   0  0  0  0  0  0  0  0  0  0  0  0
    3.1630   16.6032    0.7792 H   0  0  0  0  0  0  0  0  0  0  0  0
    3.6993   15.0546   -2.0216 H   0  0  0  0  0  0  0  0  0  0  0  0
    3.4461   13.6980   -0.7854 H   0  0  0  0  0  0  0  0  0  0  0  0
    1.9155   14.1627   -3.3602 H   0  0  0  0  0  0  0  0  0  0  0  0
    3.0176   12.7948   -2.9330 H   0  0  0  0  0  0  0  0  0  0  0  0
    1.4495   12.1990    0.1627 H   0  0  0  0  0  0  0  0  0  0  0  0
    1.2406   10.8019   -0.9468 H   0  0  0  0  0  0  0  0  0  0  0  0
    2.7807   11.7263   -0.9468 H   0  0  0  0  0  0  0  0  0  0  0  0
  1  2  1  0
  2  3  1  0
  3  4  1  0
  4  5  1  0
  5  6  1  0
  6  7  1  0
  7  8  1  0
  7  9  1  0
  2 10  1  0
 10 11  1  0
 11 12  1  0
 12 13  1  0
 13 14  1  6
 13 15  1  0
 15 16  1  0
 16 17  1  0
 17 18  2  0
 18 19  1  0
 19 20  1  0
 20 21  1  0
 21 22  1  0
 22 23  1  0
 22 24  1  0
 24 25  1  0
 24 26  1  0
 19 27  1  0
 27 28  1  1
 27 29  1  0
 29 30  1  0
 30 31  1  0
 31 32  1  1
  7  5  1  0
 31 10  1  0
 31 13  1  0
 27 15  1  0
 24 18  1  0
  1 33  1  0
  1 34  1  0
  1 35  1  0
  2 36  1  1
  3 37  1  0
  3 38  1  0
  4 39  1  0
  4 40  1  0
  5 41  1  6
  8 42  1  0
  8 43  1  0
  8 44  1  0
  9 45  1  0
  9 46  1  0
  9 47  1  0
 10 48  1  6
 11 49  1  0
 11 50  1  0
 12 51  1  0
 12 52  1  0
 14 53  1  0
 14 54  1  0
 14 55  1  0
 15 56  1  1
 16 57  1  0
 16 58  1  0
 17 59  1  0
 19 60  1  6
 20 61  1  0
 20 62  1  0
 21 63  1  0
 21 64  1  0
 22 65  1  6
 23 66  1  0
 25 67  1  0
 25 68  1  0
 25 69  1  0
 26 70  1  0
 26 71  1  0
 26 72  1  0
 28 73  1  0
 28 74  1  0
 28 75  1  0
 29 76  1  0
 29 77  1  0
 30 78  1  0
 30 79  1  0
 32 80  1  0
 32 81  1  0
 32 82  1  0
M  END
>  <meeko>  (18) 
{"is_sidechain": [false], "intermolecular_energy": 2.731, "internal_energy": -0.839}

$$$$
EPH_relaxed_0001_pdb2pqr_Repair_66_r2_0001_out
     RDKit          3D

 82 86  0  0  0  0  0  0  0  0999 V2000
    2.8680   18.3300   -3.4570 C   0  0  0  0  0  0  0  0  0  0  0  0
    1.9820   18.0870   -2.2320 C   0  0  2  0  0  0  0  0  0  0  0  0
    2.2040   19.1480   -1.1350 C   0  0  0  0  0  0  0  0  0  0  0  0
    3.5250   18.9850   -0.3790 C   0  0  0  0  0  0  0  0  0  0  0  0
    3.3120   18.9240    1.1030 C   0  0  2  0  0  0  0  0  0  0  0  0
    3.3520   20.1940    1.7660 O   0  0  0  0  0  0  0  0  0  0  0  0
    4.3880   19.2630    2.1180 C   0  0  0  0  0  0  0  0  0  0  0  0
    5.7580   19.6870    1.6900 C   0  0  0  0  0  0  0  0  0  0  0  0
    4.2620   18.7150    3.5050 C   0  0  0  0  0  0  0  0  0  0  0  0
    2.2420   16.6950   -1.6700 C   0  0  1  0  0  0  0  0  0  0  0  0
    2.8570   16.7310   -0.2450 C   0  0  0  0  0  0  0  0  0  0  0  0
    2.2820   15.5120    0.5210 C   0  0  0  0  0  0  0  0  0  0  0  0
    1.6260   14.6370   -0.5730 C   0  0  1  0  0  0  0  0  0  0  0  0
    2.8060   13.8390   -1.2090 C   0  0  0  0  0  0  0  0  0  0  0  0
    0.4750   13.6890   -0.1020 C   0  0  2  0  0  0  0  0  0  0  0  0
    0.8920   12.6130    0.9160 C   0  0  0  0  0  0  0  0  0  0  0  0
    1.3390   11.3160    0.3250 C   0  0  0  0  0  0  0  0  0  0  0  0
    1.1370   10.9250   -0.9470 C   0  0  0  0  0  0  0  0  0  0  0  0
    0.3090   11.7820   -1.9120 C   0  0  1  0  0  0  0  0  0  0  0  0
   -0.6990   10.8800   -2.6710 C   0  0  0  0  0  0  0  0  0  0  0  0
   -0.0220    9.7040   -3.3690 C   0  0  0  0  0  0  0  0  0  0  0  0
    0.7420    8.8430   -2.3670 C   0  0  2  0  0  0  0  0  0  0  0  0
   -0.1960    8.2160   -1.4880 O   0  0  0  0  0  0  0  0  0  0  0  0
    1.7820    9.6460   -1.5360 C   0  0  0  0  0  0  0  0  0  0  0  0
    2.9600   10.0720   -2.4470 C   0  0  0  0  0  0  0  0  0  0  0  0
    2.3810    8.6910   -0.4690 C   0  0  0  0  0  0  0  0  0  0  0  0
   -0.3780   13.0700   -1.2820 C   0  0  1  0  0  0  0  0  0  0  0  0
   -1.7640   12.6900   -0.6780 C   0  0  0  0  0  0  0  0  0  0  0  0
   -0.6630   14.1130   -2.4260 C   0  0  0  0  0  0  0  0  0  0  0  0
    0.4710   15.1010   -2.7640 C   0  0  0  0  0  0  0  0  0  0  0  0
    1.0210   15.7580   -1.4940 C   0  0  2  0  0  0  0  0  0  0  0  0
   -0.1390   16.5870   -0.8440 C   0  0  0  0  0  0  0  0  0  0  0  0
    3.8803   18.6076   -3.1281 H   0  0  0  0  0  0  0  0  0  0  0  0
    2.9177   17.4123   -4.0615 H   0  0  0  0  0  0  0  0  0  0  0  0
    2.4425   19.1446   -4.0615 H   0  0  0  0  0  0  0  0  0  0  0  0
    0.9351   18.1655   -2.5604 H   0  0  0  0  0  0  0  0  0  0  0  0
    2.1940   20.1419   -1.6062 H   0  0  0  0  0  0  0  0  0  0  0  0
    1.3955   19.0237   -0.3996 H   0  0  0  0  0  0  0  0  0  0  0  0
    4.0114   18.0547   -0.7078 H   0  0  0  0  0  0  0  0  0  0  0  0
    4.1558   19.8589   -0.5989 H   0  0  0  0  0  0  0  0  0  0  0  0
    2.6472   18.0542    0.9953 H   0  0  0  0  0  0  0  0  0  0  0  0
    6.3770   19.8786    2.5789 H   0  0  0  0  0  0  0  0  0  0  0  0
    6.2175   18.8890    1.0883 H   0  0  0  0  0  0  0  0  0  0  0  0
    5.6864   20.6050    1.0883 H   0  0  0  0  0  0  0  0  0  0  0  0
    4.4465   19.5174    4.2344 H   0  0  0  0  0  0  0  0  0  0  0  0
    3.2481   18.3137    3.6500 H   0  0  0  0  0  0  0  0  0  0  0  0
    4.9988   17.9112    3.6500 H   0  0  0  0  0  0  0  0  0  0  0  0
    2.9072   16.3025   -2.4533 H   0  0  0  0  0  0  0  0  0  0  0  0
    3.9531   16.6590   -0.3035 H   0  0  0  0  0  0  0  0  0  0  0  0
    2.6102   17.6722    0.2681 H   0  0  0  0  0  0  0  0  0  0  0  0
    3.0853   14.9594    1.0303 H   0  0  0  0  0  0  0  0  0  0  0  0
    1.5663   15.8098    1.3015 H   0  0  0  0  0  0  0  0  0  0  0  0
    3.4336   13.4146   -0.4115 H   0  0  0  0  0  0  0  0  0  0  0  0
    2.4051   13.0259   -1.8320 H   0  0  0  0  0  0  0  0  0  0  0  0
    3.4114   14.5139   -1.8320 H   0  0  0  0  0  0  0  0  0  0  0  0
   -0.1883   14.3755    0.4445 H   0  0  0  0  0  0  0  0  0  0  0  0
    1.7203   13.0163    1.5170 H   0  0  0  0  0  0  0  0  0  0  0  0
   -0.0087   12.3852    1.5049 H   0  0  0  0  0  0  0  0  0  0  0  0
    1.8791   10.6215    0.9853 H   0  0  0  0  0  0  0  0  0  0  0  0
    1.0265   12.2193   -2.6219 H   0  0  0  0  0  0  0  0  0  0  0  0
   -1.4326   10.4879   -1.9512 H   0  0  0  0  0  0  0  0  0  0  0  0
   -1.1803   11.4955   -3.4453 H   0  0  0  0  0  0  0  0  0  0  0  0
   -0.7884    9.0882   -3.8624 H   0  0  0  0  0  0  0  0  0  0  0  0
    0.6900   10.0972   -4.1096 H   0  0  0  0  0  0  0  0  0  0  0  0
    1.3095    8.0952   -2.9404 H   0  0  0  0  0  0  0  0  0  0  0  0
    0.1950    8.2090   -0.5970 H   0  0  0  0  0  0  0  0  0  0  0  0
    3.8125   10.3803   -1.8239 H   0  0  0  0  0  0  0  0  0  0  0  0
    3.2575    9.2245   -3.0820 H   0  0  0  0  0  0  0  0  0  0  0  0
    2.6466   10.9137   -3.0820 H   0  0  0  0  0  0  0  0  0  0  0  0
    2.1437    9.0693    0.5363 H   0  0  0  0  0  0  0  0  0  0  0  0
    1.9510    7.6862   -0.5935 H   0  0  0  0  0  0  0  0  0  0  0  0
    3.4728    8.6407   -0.5935 H   0  0  0  0  0  0  0  0  0  0  0  0
   -1.7025   12.7069    0.4201 H   0  0  0  0  0  0  0  0  0  0  0  0
   -2.5212   13.4137   -1.0140 H   0  0  0  0  0  0  0  0  0  0  0  0
   -2.0463   11.6813   -1.0140 H   0  0  0  0  0  0  0  0  0  0  0  0
   -0.8960   13.5483   -3.3408 H   0  0  0  0  0  0  0  0  0  0  0  0
   -1.4857   14.7375   -2.0477 H   0  0  0  0  0  0  0  0  0  0  0  0
    1.2833   14.5577   -3.2690 H   0  0  0  0  0  0  0  0  0  0  0  0
    0.0682   15.8869   -3.4198 H   0  0  0  0  0  0  0  0  0  0  0  0
   -0.0604   16.5308    0.2518 H   0  0  0  0  0  0  0  0  0  0  0  0
   -0.0632   17.6368   -1.1637 H   0  0  0  0  0  0  0  0  0  0  0  0
   -1.1077   16.1753   -1.1637 H   0  0  0  0  0  0  0  0  0  0  0  0
  1  2  1  0
  2  3  1  0
  3  4  1  0
  4  5  1  0
  5  6  1  0
  6  7  1  0
  7  8  1  0
  7  9  1  0
  2 10  1  0
 10 11  1  0
 11 12  1  0
 12 13  1  0
 13 14  1  6
 13 15  1  0
 15 16  1  0
 16 17  1  0
 17 18  2  0
 18 19  1  0
 19 20  1  0
 20 21  1  0
 21 22  1  0
 22 23  1  0
 22 24  1  0
 24 25  1  0
 24 26  1  0
 19 27  1  0
 27 28  1  1
 27 29  1  0
 29 30  1  0
 30 31  1  0
 31 32  1  1
  7  5  1  0
 31 10  1  0
 31 13  1  0
 27 15  1  0
 24 18  1  0
  1 33  1  0
  1 34  1  0
  1 35  1  0
  2 36  1  6
  3 37  1  0
  3 38  1  0
  4 39  1  0
  4 40  1  0
  5 41  1  1
  8 42  1  0
  8 43  1  0
  8 44  1  0
  9 45  1  0
  9 46  1  0
  9 47  1  0
 10 48  1  6
 11 49  1  0
 11 50  1  0
 12 51  1  0
 12 52  1  0
 14 53  1  0
 14 54  1  0
 14 55  1  0
 15 56  1  1
 16 57  1  0
 16 58  1  0
 17 59  1  0
 19 60  1  6
 20 61  1  0
 20 62  1  0
 21 63  1  0
 21 64  1  0
 22 65  1  6
 23 66  1  0
 25 67  1  0
 25 68  1  0
 25 69  1  0
 26 70  1  0
 26 71  1  0
 26 72  1  0
 28 73  1  0
 28 74  1  0
 28 75  1  0
 29 76  1  0
 29 77  1  0
 30 78  1  0
 30 79  1  0
 32 80  1  0
 32 81  1  0
 32 82  1  0
M  END
>  <meeko>  (19) 
{"is_sidechain": [false], "intermolecular_energy": 2.731, "internal_energy": -0.839}

$$$$
EPH_relaxed_0001_pdb2pqr_Repair_66_r2_0001_out
     RDKit          3D

 82 86  0  0  0  0  0  0  0  0999 V2000
    0.8840   14.8770   -2.6070 C   0  0  0  0  0  0  0  0  0  0  0  0
    1.1550   14.2090   -3.9580 C   0  0  2  0  0  0  0  0  0  0  0  0
    0.4610   14.9480   -5.1210 C   0  0  0  0  0  0  0  0  0  0  0  0
    0.9930   14.5580   -6.5020 C   0  0  0  0  0  0  0  0  0  0  0  0
    0.7660   15.6440   -7.5100 C   0  0  2  0  0  0  0  0  0  0  0  0
    0.4150   15.1810   -8.8200 O   0  0  0  0  0  0  0  0  0  0  0  0
    1.6680   15.8750   -8.7090 C   0  0  0  0  0  0  0  0  0  0  0  0
    2.8650   15.0130   -8.9620 C   0  0  0  0  0  0  0  0  0  0  0  0
    1.6690   17.2250   -9.3540 C   0  0  0  0  0  0  0  0  0  0  0  0
    0.7000   12.7550   -3.9200 C   0  0  1  0  0  0  0  0  0  0  0  0
    1.8250   11.7660   -4.3250 C   0  0  0  0  0  0  0  0  0  0  0  0
    1.6300   10.4900   -3.4670 C   0  0  0  0  0  0  0  0  0  0  0  0
    0.2220   10.6490   -2.8460 C   0  0  1  0  0  0  0  0  0  0  0  0
   -0.7650   10.1990   -3.9680 C   0  0  0  0  0  0  0  0  0  0  0  0
   -0.0340    9.8810   -1.5080 C   0  0  2  0  0  0  0  0  0  0  0  0
    0.0660    8.3490   -1.6070 C   0  0  0  0  0  0  0  0  0  0  0  0
   -1.2120    7.6460   -1.9290 C   0  0  0  0  0  0  0  0  0  0  0  0
   -2.4420    8.1860   -1.8500 C   0  0  0  0  0  0  0  0  0  0  0  0
   -2.6460    9.6070   -1.3090 C   0  0  1  0  0  0  0  0  0  0  0  0
   -3.8170    9.6100   -0.2910 C   0  0  0  0  0  0  0  0  0  0  0  0
   -5.0980    9.0180   -0.8710 C   0  0  0  0  0  0  0  0  0  0  0  0
   -4.8700    7.5850   -1.3450 C   0  0  2  0  0  0  0  0  0  0  0  0
   -4.6040    6.7590   -0.2070 O   0  0  0  0  0  0  0  0  0  0  0  0
   -3.7060    7.4560   -2.3680 C   0  0  0  0  0  0  0  0  0  0  0  0
   -4.1220    8.0980   -3.7140 C   0  0  0  0  0  0  0  0  0  0  0  0
   -3.4890    5.9460   -2.6560 C   0  0  0  0  0  0  0  0  0  0  0  0
   -1.3460   10.3270   -0.7460 C   0  0  1  0  0  0  0  0  0  0  0  0
   -1.1380    9.9540    0.7540 C   0  0  0  0  0  0  0  0  0  0  0  0
   -1.5630   11.8860   -0.7890 C   0  0  0  0  0  0  0  0  0  0  0  0
   -1.1790   12.6050   -2.0970 C   0  0  0  0  0  0  0  0  0  0  0  0
    0.2230   12.1950   -2.5560 C   0  0  2  0  0  0  0  0  0  0  0  0
    1.2410   12.6550   -1.4570 C   0  0  0  0  0  0  0  0  0  0  0  0
    1.1631   14.1891   -1.7953 H   0  0  0  0  0  0  0  0  0  0  0  0
    1.4794   15.7985   -2.5276 H   0  0  0  0  0  0  0  0  0  0  0  0
   -0.1851   15.1232   -2.5276 H   0  0  0  0  0  0  0  0  0  0  0  0
    2.2393   14.2545   -4.1377 H   0  0  0  0  0  0  0  0  0  0  0  0
   -0.6143   14.7190   -5.0856 H   0  0  0  0  0  0  0  0  0  0  0  0
    0.6661   16.0206   -4.9885 H   0  0  0  0  0  0  0  0  0  0  0  0
    2.0727   14.3621   -6.4259 H   0  0  0  0  0  0  0  0  0  0  0  0
    0.4525   13.6605   -6.8370 H   0  0  0  0  0  0  0  0  0  0  0  0
    0.3874   16.3210   -6.7301 H   0  0  0  0  0  0  0  0  0  0  0  0
    3.3005   14.6994   -8.0018 H   0  0  0  0  0  0  0  0  0  0  0  0
    2.5623   14.1242   -9.5351 H   0  0  0  0  0  0  0  0  0  0  0  0
    3.6120   15.5819   -9.5351 H   0  0  0  0  0  0  0  0  0  0  0  0
    1.6696   18.0029   -8.5763 H   0  0  0  0  0  0  0  0  0  0  0  0
    2.5672   17.3316   -9.9800 H   0  0  0  0  0  0  0  0  0  0  0  0
    0.7709   17.3330   -9.9800 H   0  0  0  0  0  0  0  0  0  0  0  0
   -0.1454   12.8077   -4.6218 H   0  0  0  0  0  0  0  0  0  0  0  0
    1.7455   11.5193   -5.3940 H   0  0  0  0  0  0  0  0  0  0  0  0
    2.8183   12.2074   -4.1558 H   0  0  0  0  0  0  0  0  0  0  0  0
    1.6778    9.5884   -4.0954 H   0  0  0  0  0  0  0  0  0  0  0  0
    2.4129   10.3776   -2.7025 H   0  0  0  0  0  0  0  0  0  0  0  0
   -1.6753    9.7840   -3.5108 H   0  0  0  0  0  0  0  0  0  0  0  0
   -1.0303   11.0651   -4.5920 H   0  0  0  0  0  0  0  0  0  0  0  0
   -0.2851    9.4307   -4.5920 H   0  0  0  0  0  0  0  0  0  0  0  0
    0.8175   10.1965   -0.8872 H   0  0  0  0  0  0  0  0  0  0  0  0
    0.7952    8.1061   -2.3939 H   0  0  0  0  0  0  0  0  0  0  0  0
    0.3631    7.9981   -0.6077 H   0  0  0  0  0  0  0  0  0  0  0  0
   -1.1418    6.5988   -2.2584 H   0  0  0  0  0  0  0  0  0  0  0  0
   -2.9054   10.2296   -2.1780 H   0  0  0  0  0  0  0  0  0  0  0  0
   -3.5216    9.0183    0.5880 H   0  0  0  0  0  0  0  0  0  0  0  0
   -4.0242   10.6567   -0.0235 H   0  0  0  0  0  0  0  0  0  0  0  0
   -5.8791    9.0212   -0.0965 H   0  0  0  0  0  0  0  0  0  0  0  0
   -5.4084    9.6278   -1.7322 H   0  0  0  0  0  0  0  0  0  0  0  0
   -5.7831    7.2609   -1.8659 H   0  0  0  0  0  0  0  0  0  0  0  0
   -4.1830    5.9430   -0.5270 H   0  0  0  0  0  0  0  0  0  0  0  0
   -4.7108    9.0067   -3.5203 H   0  0  0  0  0  0  0  0  0  0  0  0
   -3.2216    8.3601   -4.2890 H   0  0  0  0  0  0  0  0  0  0  0  0
   -4.7291    7.3833   -4.2890 H   0  0  0  0  0  0  0  0  0  0  0  0
   -3.4104    5.3989   -1.7049 H   0  0  0  0  0  0  0  0  0  0  0  0
   -4.3404    5.5568   -3.2336 H   0  0  0  0  0  0  0  0  0  0  0  0
   -2.5624    5.8123   -3.2336 H   0  0  0  0  0  0  0  0  0  0  0  0
   -1.5749   10.7375    1.3906 H   0  0  0  0  0  0  0  0  0  0  0  0
   -1.6306    8.9933    0.9647 H   0  0  0  0  0  0  0  0  0  0  0  0
   -0.0618    9.8682    0.9647 H   0  0  0  0  0  0  0  0  0  0  0  0
   -2.6301   12.0787   -0.6042 H   0  0  0  0  0  0  0  0  0  0  0  0
   -0.8824   12.2926   -0.0264 H   0  0  0  0  0  0  0  0  0  0  0  0
   -1.9055   12.3409   -2.8796 H   0  0  0  0  0  0  0  0  0  0  0  0
   -1.1857   13.6900   -1.9160 H   0  0  0  0  0  0  0  0  0  0  0  0
    0.8164   12.4631   -0.4606 H   0  0  0  0  0  0  0  0  0  0  0  0
    2.1804   12.0939   -1.5695 H   0  0  0  0  0  0  0  0  0  0  0  0
    1.4408   13.7308   -1.5695 H   0  0  0  0  0  0  0  0  0  0  0  0
  1  2  1  0
  2  3  1  0
  3  4  1  0
  4  5  1  0
  5  6  1  0
  6  7  1  0
  7  8  1  0
  7  9  1  0
  2 10  1  0
 10 11  1  0
 11 12  1  0
 12 13  1  0
 13 14  1  6
 13 15  1  0
 15 16  1  0
 16 17  1  0
 17 18  2  0
 18 19  1  0
 19 20  1  0
 20 21  1  0
 21 22  1  0
 22 23  1  0
 22 24  1  0
 24 25  1  0
 24 26  1  0
 19 27  1  0
 27 28  1  1
 27 29  1  0
 29 30  1  0
 30 31  1  0
 31 32  1  1
  7  5  1  0
 31 10  1  0
 31 13  1  0
 27 15  1  0
 24 18  1  0
  1 33  1  0
  1 34  1  0
  1 35  1  0
  2 36  1  6
  3 37  1  0
  3 38  1  0
  4 39  1  0
  4 40  1  0
  5 41  1  1
  8 42  1  0
  8 43  1  0
  8 44  1  0
  9 45  1  0
  9 46  1  0
  9 47  1  0
 10 48  1  6
 11 49  1  0
 11 50  1  0
 12 51  1  0
 12 52  1  0
 14 53  1  0
 14 54  1  0
 14 55  1  0
 15 56  1  1
 16 57  1  0
 16 58  1  0
 17 59  1  0
 19 60  1  6
 20 61  1  0
 20 62  1  0
 21 63  1  0
 21 64  1  0
 22 65  1  6
 23 66  1  0
 25 67  1  0
 25 68  1  0
 25 69  1  0
 26 70  1  0
 26 71  1  0
 26 72  1  0
 28 73  1  0
 28 74  1  0
 28 75  1  0
 29 76  1  0
 29 77  1  0
 30 78  1  0
 30 79  1  0
 32 80  1  0
 32 81  1  0
 32 82  1  0
M  END
>  <meeko>  (20) 
{"is_sidechain": [false], "intermolecular_energy": 2.731, "internal_energy": -0.839}

$$$$
