EPH_relaxed_0001_pdb2pqr_Repair_284_r2_0001_out
     RDKit          3D

 82 86  0  0  0  0  0  0  0  0999 V2000
   -1.7100    8.5890   -1.8790 C   0  0  0  0  0  0  0  0  0  0  0  0
   -2.0880    9.1090   -0.4900 C   0  0  2  0  0  0  0  0  0  0  0  0
   -3.5820    9.4810   -0.3960 C   0  0  0  0  0  0  0  0  0  0  0  0
   -4.5100    8.2720   -0.2500 C   0  0  0  0  0  0  0  0  0  0  0  0
   -5.2080    7.9500   -1.5360 C   0  0  2  0  0  0  0  0  0  0  0  0
   -6.3590    8.7600   -1.8110 O   0  0  0  0  0  0  0  0  0  0  0  0
   -6.6040    7.3590   -1.6050 C   0  0  0  0  0  0  0  0  0  0  0  0
   -7.3840    7.0540   -0.3640 C   0  0  0  0  0  0  0  0  0  0  0  0
   -7.0120    6.6290   -2.8460 C   0  0  0  0  0  0  0  0  0  0  0  0
   -1.2280   10.3150   -0.1330 C   0  0  1  0  0  0  0  0  0  0  0  0
   -0.1990   10.0050    0.9870 C   0  0  0  0  0  0  0  0  0  0  0  0
    1.0730   10.8310    0.6680 C   0  0  0  0  0  0  0  0  0  0  0  0
    0.6250   11.8310   -0.4230 C   0  0  1  0  0  0  0  0  0  0  0  0
   -0.0810   12.9850    0.3560 C   0  0  0  0  0  0  0  0  0  0  0  0
    1.7480   12.3740   -1.3660 C   0  0  2  0  0  0  0  0  0  0  0  0
    2.8510   13.1870   -0.6660 C   0  0  0  0  0  0  0  0  0  0  0  0
    2.6030   14.6560   -0.5790 C   0  0  0  0  0  0  0  0  0  0  0  0
    1.6830   15.3380   -1.2870 C   0  0  0  0  0  0  0  0  0  0  0  0
    0.8390   14.6380   -2.3610 C   0  0  1  0  0  0  0  0  0  0  0  0
    0.8170   15.5050   -3.6470 C   0  0  0  0  0  0  0  0  0  0  0  0
    0.3550   16.9350   -3.3820 C   0  0  0  0  0  0  0  0  0  0  0  0
    1.2540   17.6150   -2.3530 C   0  0  2  0  0  0  0  0  0  0  0  0
    2.5570   17.7840   -2.9190 O   0  0  0  0  0  0  0  0  0  0  0  0
    1.3610   16.8280   -1.0170 C   0  0  0  0  0  0  0  0  0  0  0  0
    0.0140   16.9050   -0.2580 C   0  0  0  0  0  0  0  0  0  0  0  0
    2.4060   17.5480   -0.1220 C   0  0  0  0  0  0  0  0  0  0  0  0
    1.2090   13.1210   -2.6530 C   0  0  1  0  0  0  0  0  0  0  0  0
    2.3440   13.0450   -3.7200 C   0  0  0  0  0  0  0  0  0  0  0  0
   -0.0410   12.4000   -3.2830 C   0  0  0  0  0  0  0  0  0  0  0  0
   -1.0540   11.7790   -2.3020 C   0  0  0  0  0  0  0  0  0  0  0  0
   -0.3440   10.9150   -1.2560 C   0  0  2  0  0  0  0  0  0  0  0  0
    0.3570    9.7330   -2.0080 C   0  0  0  0  0  0  0  0  0  0  0  0
   -1.0660    7.7031   -1.7761 H   0  0  0  0  0  0  0  0  0  0  0  0
   -2.6226    8.3170   -2.4296 H   0  0  0  0  0  0  0  0  0  0  0  0
   -1.1697    9.3732   -2.4296 H   0  0  0  0  0  0  0  0  0  0  0  0
   -1.9037    8.2963    0.2280 H   0  0  0  0  0  0  0  0  0  0  0  0
   -3.7228   10.1342    0.4778 H   0  0  0  0  0  0  0  0  0  0  0  0
   -3.8490    9.9787   -1.3399 H   0  0  0  0  0  0  0  0  0  0  0  0
   -3.9142    7.4008    0.0600 H   0  0  0  0  0  0  0  0  0  0  0  0
   -5.2741    8.5155    0.5029 H   0  0  0  0  0  0  0  0  0  0  0  0
   -4.2580    7.6549   -2.0055 H   0  0  0  0  0  0  0  0  0  0  0  0
   -6.7744    7.2924    0.5201 H   0  0  0  0  0  0  0  0  0  0  0  0
   -8.3024    7.6592   -0.3501 H   0  0  0  0  0  0  0  0  0  0  0  0
   -7.6483    5.9863   -0.3501 H   0  0  0  0  0  0  0  0  0  0  0  0
   -7.5316    5.6994   -2.5705 H   0  0  0  0  0  0  0  0  0  0  0  0
   -7.6862    7.2637   -3.4399 H   0  0  0  0  0  0  0  0  0  0  0  0
   -6.1182    6.3873   -3.4399 H   0  0  0  0  0  0  0  0  0  0  0  0
   -2.0174   11.0281    0.1470 H   0  0  0  0  0  0  0  0  0  0  0  0
   -0.6053   10.2984    1.9662 H   0  0  0  0  0  0  0  0  0  0  0  0
    0.0286    8.9296    1.0270 H   0  0  0  0  0  0  0  0  0  0  0  0
    1.4242   11.3647    1.5634 H   0  0  0  0  0  0  0  0  0  0  0  0
    1.9091   10.1981    0.3359 H   0  0  0  0  0  0  0  0  0  0  0  0
    0.0233   12.8146    1.4377 H   0  0  0  0  0  0  0  0  0  0  0  0
    0.3843   13.9455    0.0896 H   0  0  0  0  0  0  0  0  0  0  0  0
   -1.1480   13.0081    0.0896 H   0  0  0  0  0  0  0  0  0  0  0  0
    2.2321   11.4491   -1.7127 H   0  0  0  0  0  0  0  0  0  0  0  0
    2.9608   12.7997    0.3577 H   0  0  0  0  0  0  0  0  0  0  0  0
    3.7544   13.0671   -1.2820 H   0  0  0  0  0  0  0  0  0  0  0  0
    3.2248   15.2305    0.1234 H   0  0  0  0  0  0  0  0  0  0  0  0
   -0.1770   14.5586   -1.9470 H   0  0  0  0  0  0  0  0  0  0  0  0
    1.8323   15.5352   -4.0691 H   0  0  0  0  0  0  0  0  0  0  0  0
    0.1010   15.0473   -4.3455 H   0  0  0  0  0  0  0  0  0  0  0  0
    0.3888   17.5047   -4.3224 H   0  0  0  0  0  0  0  0  0  0  0  0
   -0.6715   16.9057   -2.9877 H   0  0  0  0  0  0  0  0  0  0  0  0
    0.7991   18.5861   -2.1081 H   0  0  0  0  0  0  0  0  0  0  0  0
    3.1930   17.3450   -2.3290 H   0  0  0  0  0  0  0  0  0  0  0  0
    0.2026   16.8942    0.8257 H   0  0  0  0  0  0  0  0  0  0  0  0
   -0.5076   17.8344   -0.5302 H   0  0  0  0  0  0  0  0  0  0  0  0
   -0.6101   16.0411   -0.5302 H   0  0  0  0  0  0  0  0  0  0  0  0
    2.1605   17.3789    0.9368 H   0  0  0  0  0  0  0  0  0  0  0  0
    3.4084   17.1480   -0.3344 H   0  0  0  0  0  0  0  0  0  0  0  0
    2.3893   18.6272   -0.3344 H   0  0  0  0  0  0  0  0  0  0  0  0
    3.3188   12.9797   -3.2144 H   0  0  0  0  0  0  0  0  0  0  0  0
    2.1969   12.1547   -4.3491 H   0  0  0  0  0  0  0  0  0  0  0  0
    2.3169   13.9470   -4.3491 H   0  0  0  0  0  0  0  0  0  0  0  0
   -0.5796   13.1404   -3.8928 H   0  0  0  0  0  0  0  0  0  0  0  0
    0.3714   11.5500   -3.8464 H   0  0  0  0  0  0  0  0  0  0  0  0
   -1.6014   12.5851   -1.7916 H   0  0  0  0  0  0  0  0  0  0  0  0
   -1.7482   11.1426   -2.8704 H   0  0  0  0  0  0  0  0  0  0  0  0
    0.7750    9.0281   -1.2742 H   0  0  0  0  0  0  0  0  0  0  0  0
   -0.3784    9.2123   -2.6389 H   0  0  0  0  0  0  0  0  0  0  0  0
    1.1666   10.1286   -2.6389 H   0  0  0  0  0  0  0  0  0  0  0  0
  1  2  1  0
  2  3  1  0
  3  4  1  0
  4  5  1  0
  5  6  1  0
  6  7  1  0
  7  8  1  0
  7  9  1  0
  2 10  1  0
 10 11  1  0
 11 12  1  0
 12 13  1  0
 13 14  1  1
 13 15  1  0
 15 16  1  0
 16 17  1  0
 17 18  2  0
 18 19  1  0
 19 20  1  0
 20 21  1  0
 21 22  1  0
 22 23  1  0
 22 24  1  0
 24 25  1  0
 24 26  1  0
 19 27  1  0
 27 28  1  6
 27 29  1  0
 29 30  1  0
 30 31  1  0
 31 32  1  6
  7  5  1  0
 31 10  1  0
 31 13  1  0
 27 15  1  0
 24 18  1  0
  1 33  1  0
  1 34  1  0
  1 35  1  0
  2 36  1  1
  3 37  1  0
  3 38  1  0
  4 39  1  0
  4 40  1  0
  5 41  1  6
  8 42  1  0
  8 43  1  0
  8 44  1  0
  9 45  1  0
  9 46  1  0
  9 47  1  0
 10 48  1  1
 11 49  1  0
 11 50  1  0
 12 51  1  0
 12 52  1  0
 14 53  1  0
 14 54  1  0
 14 55  1  0
 15 56  1  6
 16 57  1  0
 16 58  1  0
 17 59  1  0
 19 60  1  1
 20 61  1  0
 20 62  1  0
 21 63  1  0
 21 64  1  0
 22 65  1  1
 23 66  1  0
 25 67  1  0
 25 68  1  0
 25 69  1  0
 26 70  1  0
 26 71  1  0
 26 72  1  0
 28 73  1  0
 28 74  1  0
 28 75  1  0
 29 76  1  0
 29 77  1  0
 30 78  1  0
 30 79  1  0
 32 80  1  0
 32 81  1  0
 32 82  1  0
M  END
>  <meeko>  (1) 
{"is_sidechain": [false], "intermolecular_energy": 2.731, "internal_energy": -0.839}

$$$$
EPH_relaxed_0001_pdb2pqr_Repair_284_r2_0001_out
     RDKit          3D

 82 86  0  0  0  0  0  0  0  0999 V2000
    4.2870   17.3570   -0.5920 C   0  0  0  0  0  0  0  0  0  0  0  0
    2.9240   17.9750   -0.2660 C   0  0  2  0  0  0  0  0  0  0  0  0
    2.9410   18.7460    1.0690 C   0  0  0  0  0  0  0  0  0  0  0  0
    4.2810   18.6720    1.8060 C   0  0  0  0  0  0  0  0  0  0  0  0
    4.1750   19.2050    3.2030 C   0  0  2  0  0  0  0  0  0  0  0  0
    5.1560   20.1940    3.5420 O   0  0  0  0  0  0  0  0  0  0  0  0
    5.2220   18.9590    4.2730 C   0  0  0  0  0  0  0  0  0  0  0  0
    6.4500   18.1510    3.9920 C   0  0  0  0  0  0  0  0  0  0  0  0
    4.8210   19.0870    5.7090 C   0  0  0  0  0  0  0  0  0  0  0  0
    1.8570   16.8870   -0.2270 C   0  0  1  0  0  0  0  0  0  0  0  0
    0.4320   17.4390   -0.4950 C   0  0  0  0  0  0  0  0  0  0  0  0
   -0.3330   16.3420   -1.2790 C   0  0  0  0  0  0  0  0  0  0  0  0
    0.5530   15.0800   -1.1480 C   0  0  1  0  0  0  0  0  0  0  0  0
    0.2090   14.4930    0.2570 C   0  0  0  0  0  0  0  0  0  0  0  0
    0.3990   14.0080   -2.2760 C   0  0  2  0  0  0  0  0  0  0  0  0
   -0.9970   13.3700   -2.3830 C   0  0  0  0  0  0  0  0  0  0  0  0
   -1.1980   12.1350   -1.5690 C   0  0  0  0  0  0  0  0  0  0  0  0
   -0.2200   11.4000   -1.0080 C   0  0  0  0  0  0  0  0  0  0  0  0
    1.2570   11.7380   -1.2500 C   0  0  1  0  0  0  0  0  0  0  0  0
    2.0350   10.4400   -1.5930 C   0  0  0  0  0  0  0  0  0  0  0  0
    1.8510    9.3520   -0.5400 C   0  0  0  0  0  0  0  0  0  0  0  0
    0.3740    9.0030   -0.3690 C   0  0  2  0  0  0  0  0  0  0  0  0
   -0.0960    8.3880   -1.5720 O   0  0  0  0  0  0  0  0  0  0  0  0
   -0.5110   10.2340   -0.0310 C   0  0  0  0  0  0  0  0  0  0  0  0
   -0.2030   10.7170    1.4080 C   0  0  0  0  0  0  0  0  0  0  0  0
   -1.9930    9.7700   -0.0250 C   0  0  0  0  0  0  0  0  0  0  0  0
    1.5390   12.9100   -2.2850 C   0  0  1  0  0  0  0  0  0  0  0  0
    1.5930   12.3380   -3.7350 C   0  0  0  0  0  0  0  0  0  0  0  0
    2.9610   13.5210   -1.9950 C   0  0  0  0  0  0  0  0  0  0  0  0
    3.0300   14.6590   -0.9590 C   0  0  0  0  0  0  0  0  0  0  0  0
    1.9790   15.7330   -1.2540 C   0  0  2  0  0  0  0  0  0  0  0  0
    2.3120   16.3580   -2.6510 C   0  0  0  0  0  0  0  0  0  0  0  0
    4.8143   17.1179    0.3433 H   0  0  0  0  0  0  0  0  0  0  0  0
    4.1419   16.4366   -1.1767 H   0  0  0  0  0  0  0  0  0  0  0  0
    4.8837   18.0726   -1.1767 H   0  0  0  0  0  0  0  0  0  0  0  0
    2.6886   18.6979   -1.0610 H   0  0  0  0  0  0  0  0  0  0  0  0
    2.7162   19.8028    0.8625 H   0  0  0  0  0  0  0  0  0  0  0  0
    2.1895   18.2764    1.7208 H   0  0  0  0  0  0  0  0  0  0  0  0
    4.6070   17.6223    1.8486 H   0  0  0  0  0  0  0  0  0  0  0  0
    5.0086   19.2885    1.2578 H   0  0  0  0  0  0  0  0  0  0  0  0
    3.0827   19.0749    3.1956 H   0  0  0  0  0  0  0  0  0  0  0  0
    6.9135   17.8460    4.9418 H   0  0  0  0  0  0  0  0  0  0  0  0
    6.1758   17.2563    3.4138 H   0  0  0  0  0  0  0  0  0  0  0  0
    7.1632   18.7569    3.4138 H   0  0  0  0  0  0  0  0  0  0  0  0
    5.6708   18.8157    6.3526 H   0  0  0  0  0  0  0  0  0  0  0  0
    4.5218   20.1253    5.9150 H   0  0  0  0  0  0  0  0  0  0  0  0
    3.9756   18.4141    5.9150 H   0  0  0  0  0  0  0  0  0  0  0  0
    2.0222   16.5032    0.7905 H   0  0  0  0  0  0  0  0  0  0  0  0
   -0.0778   17.6495    0.4567 H   0  0  0  0  0  0  0  0  0  0  0  0
    0.4734   18.3773   -1.0677 H   0  0  0  0  0  0  0  0  0  0  0  0
   -1.3247   16.1681   -0.8361 H   0  0  0  0  0  0  0  0  0  0  0  0
   -0.5067   16.6230   -2.3282 H   0  0  0  0  0  0  0  0  0  0  0  0
    0.6001   15.1604    1.0390 H   0  0  0  0  0  0  0  0  0  0  0  0
   -0.8827   14.4066    0.3610 H   0  0  0  0  0  0  0  0  0  0  0  0
    0.6671   13.4984    0.3610 H   0  0  0  0  0  0  0  0  0  0  0  0
    0.5244   14.6064   -3.1904 H   0  0  0  0  0  0  0  0  0  0  0  0
   -1.7373   14.1157   -2.0576 H   0  0  0  0  0  0  0  0  0  0  0  0
   -1.1119   13.0641   -3.4333 H   0  0  0  0  0  0  0  0  0  0  0  0
   -2.2333   11.7969   -1.4146 H   0  0  0  0  0  0  0  0  0  0  0  0
    1.6318   12.1596   -0.3057 H   0  0  0  0  0  0  0  0  0  0  0  0
    1.6758   10.0588   -2.5603 H   0  0  0  0  0  0  0  0  0  0  0  0
    3.1051   10.6920   -1.6292 H   0  0  0  0  0  0  0  0  0  0  0  0
    2.3999    8.4515   -0.8528 H   0  0  0  0  0  0  0  0  0  0  0  0
    2.2377    9.7235    0.4204 H   0  0  0  0  0  0  0  0  0  0  0  0
    0.2940    8.3157    0.4861 H   0  0  0  0  0  0  0  0  0  0  0  0
    0.3800    8.7940   -2.3160 H   0  0  0  0  0  0  0  0  0  0  0  0
   -0.6482   10.0189    2.1322 H   0  0  0  0  0  0  0  0  0  0  0  0
    0.8862   10.7547    1.5569 H   0  0  0  0  0  0  0  0  0  0  0  0
   -0.6283   11.7205    1.5569 H   0  0  0  0  0  0  0  0  0  0  0  0
   -2.3391    9.6616    1.0135 H   0  0  0  0  0  0  0  0  0  0  0  0
   -2.6132   10.5170   -0.5421 H   0  0  0  0  0  0  0  0  0  0  0  0
   -2.0765    8.8027   -0.5421 H   0  0  0  0  0  0  0  0  0  0  0  0
    1.6963   11.2436   -3.6938 H   0  0  0  0  0  0  0  0  0  0  0  0
    0.6662   12.5991   -4.2669 H   0  0  0  0  0  0  0  0  0  0  0  0
    2.4546   12.7679   -4.2669 H   0  0  0  0  0  0  0  0  0  0  0  0
    3.6068   12.7056   -1.6372 H   0  0  0  0  0  0  0  0  0  0  0  0
    3.2775   13.9769   -2.9447 H   0  0  0  0  0  0  0  0  0  0  0  0
    2.8492   14.2443    0.0437 H   0  0  0  0  0  0  0  0  0  0  0  0
    4.0272   15.1204   -1.0106 H   0  0  0  0  0  0  0  0  0  0  0  0
    2.8249   17.3207   -2.5091 H   0  0  0  0  0  0  0  0  0  0  0  0
    2.9651   15.6738   -3.2125 H   0  0  0  0  0  0  0  0  0  0  0  0
    1.3798   16.5185   -3.2125 H   0  0  0  0  0  0  0  0  0  0  0  0
  1  2  1  0
  2  3  1  0
  3  4  1  0
  4  5  1  0
  5  6  1  0
  6  7  1  0
  7  8  1  0
  7  9  1  0
  2 10  1  0
 10 11  1  0
 11 12  1  0
 12 13  1  0
 13 14  1  1
 13 15  1  0
 15 16  1  0
 16 17  1  0
 17 18  2  0
 18 19  1  0
 19 20  1  0
 20 21  1  0
 21 22  1  0
 22 23  1  0
 22 24  1  0
 24 25  1  0
 24 26  1  0
 19 27  1  0
 27 28  1  6
 27 29  1  0
 29 30  1  0
 30 31  1  0
 31 32  1  6
  7  5  1  0
 31 10  1  0
 31 13  1  0
 27 15  1  0
 24 18  1  0
  1 33  1  0
  1 34  1  0
  1 35  1  0
  2 36  1  6
  3 37  1  0
  3 38  1  0
  4 39  1  0
  4 40  1  0
  5 41  1  1
  8 42  1  0
  8 43  1  0
  8 44  1  0
  9 45  1  0
  9 46  1  0
  9 47  1  0
 10 48  1  1
 11 49  1  0
 11 50  1  0
 12 51  1  0
 12 52  1  0
 14 53  1  0
 14 54  1  0
 14 55  1  0
 15 56  1  6
 16 57  1  0
 16 58  1  0
 17 59  1  0
 19 60  1  1
 20 61  1  0
 20 62  1  0
 21 63  1  0
 21 64  1  0
 22 65  1  1
 23 66  1  0
 25 67  1  0
 25 68  1  0
 25 69  1  0
 26 70  1  0
 26 71  1  0
 26 72  1  0
 28 73  1  0
 28 74  1  0
 28 75  1  0
 29 76  1  0
 29 77  1  0
 30 78  1  0
 30 79  1  0
 32 80  1  0
 32 81  1  0
 32 82  1  0
M  END
>  <meeko>  (2) 
{"is_sidechain": [false], "intermolecular_energy": 2.731, "internal_energy": -0.839}

$$$$
EPH_relaxed_0001_pdb2pqr_Repair_284_r2_0001_out
     RDKit          3D

 82 86  0  0  0  0  0  0  0  0999 V2000
    2.3570   17.9720   -2.7190 C   0  0  0  0  0  0  0  0  0  0  0  0
    1.0840   17.5820   -1.9630 C   0  0  2  0  0  0  0  0  0  0  0  0
    1.2810   17.6240   -0.4340 C   0  0  0  0  0  0  0  0  0  0  0  0
    0.9570   18.9840    0.1910 C   0  0  0  0  0  0  0  0  0  0  0  0
   -0.4910   19.0930    0.5610 C   0  0  2  0  0  0  0  0  0  0  0  0
   -1.3700   18.2610   -0.2060 O   0  0  0  0  0  0  0  0  0  0  0  0
   -1.5480   19.6780   -0.3570 C   0  0  0  0  0  0  0  0  0  0  0  0
   -1.1990   20.1940   -1.7180 C   0  0  0  0  0  0  0  0  0  0  0  0
   -2.8160   20.1940    0.2490 C   0  0  0  0  0  0  0  0  0  0  0  0
    0.6300   16.1910   -2.3910 C   0  0  1  0  0  0  0  0  0  0  0  0
    0.7130   15.9830   -3.9270 C   0  0  0  0  0  0  0  0  0  0  0  0
    1.1090   14.5020   -4.1560 C   0  0  0  0  0  0  0  0  0  0  0  0
    0.9180   13.8290   -2.7770 C   0  0  1  0  0  0  0  0  0  0  0  0
   -0.6120   13.5360   -2.6830 C   0  0  0  0  0  0  0  0  0  0  0  0
    1.7690   12.5440   -2.5110 C   0  0  2  0  0  0  0  0  0  0  0  0
    1.4780   11.3620   -3.4510 C   0  0  0  0  0  0  0  0  0  0  0  0
    0.4210   10.4180   -2.9810 C   0  0  0  0  0  0  0  0  0  0  0  0
   -0.0670   10.3510   -1.7280 C   0  0  0  0  0  0  0  0  0  0  0  0
    0.5200   11.2180   -0.6070 C   0  0  1  0  0  0  0  0  0  0  0  0
    0.7570   10.3450    0.6530 C   0  0  0  0  0  0  0  0  0  0  0  0
   -0.4990    9.5970    1.0910 C   0  0  0  0  0  0  0  0  0  0  0  0
   -1.0190    8.7020   -0.0310 C   0  0  2  0  0  0  0  0  0  0  0  0
   -0.0710    7.6560   -0.2630 O   0  0  0  0  0  0  0  0  0  0  0  0
   -1.2850    9.4710   -1.3550 C   0  0  0  0  0  0  0  0  0  0  0  0
   -2.5170   10.3930   -1.1830 C   0  0  0  0  0  0  0  0  0  0  0  0
   -1.6690    8.4310   -2.4420 C   0  0  0  0  0  0  0  0  0  0  0  0
    1.7940   12.0860   -0.9960 C   0  0  1  0  0  0  0  0  0  0  0  0
    3.0910   11.2410   -0.8090 C   0  0  0  0  0  0  0  0  0  0  0  0
    1.9100   13.3030   -0.0040 C   0  0  0  0  0  0  0  0  0  0  0  0
    1.1420   14.5840   -0.3840 C   0  0  0  0  0  0  0  0  0  0  0  0
    1.4230   14.9820   -1.8360 C   0  0  2  0  0  0  0  0  0  0  0  0
    2.9520   15.3040   -1.9560 C   0  0  0  0  0  0  0  0  0  0  0  0
    3.1515   18.2154   -1.9982 H   0  0  0  0  0  0  0  0  0  0  0  0
    2.6801   17.1316   -3.3510 H   0  0  0  0  0  0  0  0  0  0  0  0
    2.1540   18.8491   -3.3510 H   0  0  0  0  0  0  0  0  0  0  0  0
    0.3093   18.3205   -2.2171 H   0  0  0  0  0  0  0  0  0  0  0  0
    0.6254   16.8673    0.0216 H   0  0  0  0  0  0  0  0  0  0  0  0
    2.3460   17.4271   -0.2414 H   0  0  0  0  0  0  0  0  0  0  0  0
    1.5672   19.1145    1.0969 H   0  0  0  0  0  0  0  0  0  0  0  0
    1.1810   19.7645   -0.5510 H   0  0  0  0  0  0  0  0  0  0  0  0
   -0.2309   19.2956    1.6104 H   0  0  0  0  0  0  0  0  0  0  0  0
   -0.5852   21.1015   -1.6198 H   0  0  0  0  0  0  0  0  0  0  0  0
   -0.6337   19.4267   -2.2672 H   0  0  0  0  0  0  0  0  0  0  0  0
   -2.1216   20.4330   -2.2672 H   0  0  0  0  0  0  0  0  0  0  0  0
   -2.7377   20.1621    1.3457 H   0  0  0  0  0  0  0  0  0  0  0  0
   -2.9824   21.2314   -0.0767 H   0  0  0  0  0  0  0  0  0  0  0  0
   -3.6595   19.5676   -0.0767 H   0  0  0  0  0  0  0  0  0  0  0  0
   -0.3892   16.1936   -1.9773 H   0  0  0  0  0  0  0  0  0  0  0  0
   -0.2626   16.1905   -4.3908 H   0  0  0  0  0  0  0  0  0  0  0  0
    1.4496   16.6636   -4.3789 H   0  0  0  0  0  0  0  0  0  0  0  0
    0.4552   14.0372   -4.9087 H   0  0  0  0  0  0  0  0  0  0  0  0
    2.1378   14.3987   -4.5315 H   0  0  0  0  0  0  0  0  0  0  0  0
   -0.9101   13.4789   -1.6257 H   0  0  0  0  0  0  0  0  0  0  0  0
   -1.1711   14.3434   -3.1785 H   0  0  0  0  0  0  0  0  0  0  0  0
   -0.8332   12.5792   -3.1785 H   0  0  0  0  0  0  0  0  0  0  0  0
    2.7866   12.8791   -2.7604 H   0  0  0  0  0  0  0  0  0  0  0  0
    1.1616   11.7701   -4.4222 H   0  0  0  0  0  0  0  0  0  0  0  0
    2.4081   10.7768   -3.5006 H   0  0  0  0  0  0  0  0  0  0  0  0
    0.0059    9.7180   -3.7211 H   0  0  0  0  0  0  0  0  0  0  0  0
   -0.2356   11.9877   -0.3913 H   0  0  0  0  0  0  0  0  0  0  0  0
    1.5451    9.6107    0.4301 H   0  0  0  0  0  0  0  0  0  0  0  0
    1.0496   11.0160    1.4741 H   0  0  0  0  0  0  0  0  0  0  0  0
   -0.2610    8.9753    1.9667 H   0  0  0  0  0  0  0  0  0  0  0  0
   -1.2768   10.3331    1.3425 H   0  0  0  0  0  0  0  0  0  0  0  0
   -1.9877    8.2946    0.2940 H   0  0  0  0  0  0  0  0  0  0  0  0
    0.3950    7.8600   -1.0920 H   0  0  0  0  0  0  0  0  0  0  0  0
   -2.7165   10.5423   -0.1116 H   0  0  0  0  0  0  0  0  0  0  0  0
   -2.3167   11.3649   -1.6576 H   0  0  0  0  0  0  0  0  0  0  0  0
   -3.3930    9.9268   -1.6576 H   0  0  0  0  0  0  0  0  0  0  0  0
   -2.0112    7.5043   -1.9582 H   0  0  0  0  0  0  0  0  0  0  0  0
   -2.4765    8.8371   -3.0690 H   0  0  0  0  0  0  0  0  0  0  0  0
   -0.7914    8.2149   -3.0690 H   0  0  0  0  0  0  0  0  0  0  0  0
    3.2918   11.1102    0.2646 H   0  0  0  0  0  0  0  0  0  0  0  0
    2.9578   10.2558   -1.2798 H   0  0  0  0  0  0  0  0  0  0  0  0
    3.9384   11.7609   -1.2798 H   0  0  0  0  0  0  0  0  0  0  0  0
    1.5379   12.9702    0.9762 H   0  0  0  0  0  0  0  0  0  0  0  0
    2.9722   13.5882   -0.0208 H   0  0  0  0  0  0  0  0  0  0  0  0
    0.0633   14.4063   -0.2620 H   0  0  0  0  0  0  0  0  0  0  0  0
    1.4748   15.4004    0.2739 H   0  0  0  0  0  0  0  0  0  0  0  0
    3.3874   15.3957   -0.9500 H   0  0  0  0  0  0  0  0  0  0  0  0
    3.4560   14.4923   -2.5011 H   0  0  0  0  0  0  0  0  0  0  0  0
    3.0858   16.2500   -2.5011 H   0  0  0  0  0  0  0  0  0  0  0  0
  1  2  1  0
  2  3  1  0
  3  4  1  0
  4  5  1  0
  5  6  1  0
  6  7  1  0
  7  8  1  0
  7  9  1  0
  2 10  1  0
 10 11  1  0
 11 12  1  0
 12 13  1  0
 13 14  1  1
 13 15  1  0
 15 16  1  0
 16 17  1  0
 17 18  2  0
 18 19  1  0
 19 20  1  0
 20 21  1  0
 21 22  1  0
 22 23  1  0
 22 24  1  0
 24 25  1  0
 24 26  1  0
 19 27  1  0
 27 28  1  6
 27 29  1  0
 29 30  1  0
 30 31  1  0
 31 32  1  1
  7  5  1  0
 31 10  1  0
 31 13  1  0
 27 15  1  0
 24 18  1  0
  1 33  1  0
  1 34  1  0
  1 35  1  0
  2 36  1  1
  3 37  1  0
  3 38  1  0
  4 39  1  0
  4 40  1  0
  5 41  1  1
  8 42  1  0
  8 43  1  0
  8 44  1  0
  9 45  1  0
  9 46  1  0
  9 47  1  0
 10 48  1  1
 11 49  1  0
 11 50  1  0
 12 51  1  0
 12 52  1  0
 14 53  1  0
 14 54  1  0
 14 55  1  0
 15 56  1  6
 16 57  1  0
 16 58  1  0
 17 59  1  0
 19 60  1  1
 20 61  1  0
 20 62  1  0
 21 63  1  0
 21 64  1  0
 22 65  1  1
 23 66  1  0
 25 67  1  0
 25 68  1  0
 25 69  1  0
 26 70  1  0
 26 71  1  0
 26 72  1  0
 28 73  1  0
 28 74  1  0
 28 75  1  0
 29 76  1  0
 29 77  1  0
 30 78  1  0
 30 79  1  0
 32 80  1  0
 32 81  1  0
 32 82  1  0
M  END
>  <meeko>  (3) 
{"is_sidechain": [false], "intermolecular_energy": 2.731, "internal_energy": -0.839}

$$$$
EPH_relaxed_0001_pdb2pqr_Repair_284_r2_0001_out
     RDKit          3D

 82 86  0  0  0  0  0  0  0  0999 V2000
    0.3910   18.4180   -0.0510 C   0  0  0  0  0  0  0  0  0  0  0  0
    1.4810   17.3630   -0.2630 C   0  0  2  0  0  0  0  0  0  0  0  0
    2.6930   17.9250   -1.0320 C   0  0  0  0  0  0  0  0  0  0  0  0
    3.9210   18.1700   -0.1520 C   0  0  0  0  0  0  0  0  0  0  0  0
    3.5370   18.6450    1.2170 C   0  0  2  0  0  0  0  0  0  0  0  0
    3.7800   20.0380    1.4570 O   0  0  0  0  0  0  0  0  0  0  0  0
    4.5420   19.1150    2.2520 C   0  0  0  0  0  0  0  0  0  0  0  0
    6.0100   19.1310    1.9630 C   0  0  0  0  0  0  0  0  0  0  0  0
    4.1450   19.0930    3.6950 C   0  0  0  0  0  0  0  0  0  0  0  0
    0.9040   16.1620   -1.0040 C   0  0  1  0  0  0  0  0  0  0  0  0
    0.7680   16.4120   -2.5300 C   0  0  0  0  0  0  0  0  0  0  0  0
    1.0550   15.0590   -3.2320 C   0  0  0  0  0  0  0  0  0  0  0  0
    1.0190   14.0130   -2.0930 C   0  0  1  0  0  0  0  0  0  0  0  0
   -0.4970   13.7180   -1.8670 C   0  0  0  0  0  0  0  0  0  0  0  0
    1.8330   12.7010   -2.3340 C   0  0  2  0  0  0  0  0  0  0  0  0
    1.3580   11.8480   -3.5230 C   0  0  0  0  0  0  0  0  0  0  0  0
    0.3290   10.8170   -3.1980 C   0  0  0  0  0  0  0  0  0  0  0  0
    0.0130   10.3900   -1.9610 C   0  0  0  0  0  0  0  0  0  0  0  0
    0.7890   10.8860   -0.7350 C   0  0  1  0  0  0  0  0  0  0  0  0
    1.1500    9.6800    0.1720 C   0  0  0  0  0  0  0  0  0  0  0  0
   -0.0700    8.8470    0.5520 C   0  0  0  0  0  0  0  0  0  0  0  0
   -0.7820    8.3240   -0.6930 C   0  0  2  0  0  0  0  0  0  0  0  0
    0.0730    7.3840   -1.3520 O   0  0  0  0  0  0  0  0  0  0  0  0
   -1.1860    9.4490   -1.6870 C   0  0  0  0  0  0  0  0  0  0  0  0
   -2.3360   10.2900   -1.0800 C   0  0  0  0  0  0  0  0  0  0  0  0
   -1.7650    8.7750   -2.9600 C   0  0  0  0  0  0  0  0  0  0  0  0
    2.0400   11.8190   -1.0360 C   0  0  1  0  0  0  0  0  0  0  0  0
    3.3070   10.9450   -1.2890 C   0  0  0  0  0  0  0  0  0  0  0  0
    2.3500   12.6910    0.2370 C   0  0  0  0  0  0  0  0  0  0  0  0
    1.6020   14.0330    0.3580 C   0  0  0  0  0  0  0  0  0  0  0  0
    1.7040   14.8370   -0.9420 C   0  0  2  0  0  0  0  0  0  0  0  0
    3.2160   15.1680   -1.1830 C   0  0  0  0  0  0  0  0  0  0  0  0
    0.2332   18.5707    1.0269 H   0  0  0  0  0  0  0  0  0  0  0  0
    0.7031   19.3658   -0.5138 H   0  0  0  0  0  0  0  0  0  0  0  0
   -0.5461   18.0751   -0.5138 H   0  0  0  0  0  0  0  0  0  0  0  0
    1.8374   17.0514    0.7299 H   0  0  0  0  0  0  0  0  0  0  0  0
    2.9677   17.2076   -1.8193 H   0  0  0  0  0  0  0  0  0  0  0  0
    2.3903   18.9007   -1.4399 H   0  0  0  0  0  0  0  0  0  0  0  0
    4.4852   17.2304   -0.0580 H   0  0  0  0  0  0  0  0  0  0  0  0
    4.5324   18.9515   -0.6268 H   0  0  0  0  0  0  0  0  0  0  0  0
    2.7145   17.9161    1.2652 H   0  0  0  0  0  0  0  0  0  0  0  0
    6.5700   19.1371    2.9097 H   0  0  0  0  0  0  0  0  0  0  0  0
    6.2794   18.2357    1.3834 H   0  0  0  0  0  0  0  0  0  0  0  0
    6.2598   20.0319    1.3834 H   0  0  0  0  0  0  0  0  0  0  0  0
    5.0460   19.1429    4.3240 H   0  0  0  0  0  0  0  0  0  0  0  0
    3.4989   19.9567    3.9107 H   0  0  0  0  0  0  0  0  0  0  0  0
    3.5983   18.1632    3.9107 H   0  0  0  0  0  0  0  0  0  0  0  0
   -0.0484   16.0518   -0.4648 H   0  0  0  0  0  0  0  0  0  0  0  0
   -0.2498   16.7542   -2.7686 H   0  0  0  0  0  0  0  0  0  0  0  0
    1.4700   17.1888   -2.8672 H   0  0  0  0  0  0  0  0  0  0  0  0
    0.2829   14.8405   -3.9844 H   0  0  0  0  0  0  0  0  0  0  0  0
    2.0169   15.0617   -3.7656 H   0  0  0  0  0  0  0  0  0  0  0  0
   -0.7057   13.6774   -0.7877 H   0  0  0  0  0  0  0  0  0  0  0  0
   -1.0984   14.5160   -2.3270 H   0  0  0  0  0  0  0  0  0  0  0  0
   -0.7553   12.7528   -2.3270 H   0  0  0  0  0  0  0  0  0  0  0  0
    2.8230   13.0864   -2.6193 H   0  0  0  0  0  0  0  0  0  0  0  0
    0.9336   12.5251   -4.2789 H   0  0  0  0  0  0  0  0  0  0  0  0
    2.2422   11.2952   -3.8730 H   0  0  0  0  0  0  0  0  0  0  0  0
   -0.2175   10.3680   -4.0405 H   0  0  0  0  0  0  0  0  0  0  0  0
    0.1094   11.5656   -0.2000 H   0  0  0  0  0  0  0  0  0  0  0  0
    1.8629    9.0366   -0.3644 H   0  0  0  0  0  0  0  0  0  0  0  0
    1.5837   10.0792    1.1007 H   0  0  0  0  0  0  0  0  0  0  0  0
    0.2536    7.9942    1.1668 H   0  0  0  0  0  0  0  0  0  0  0  0
   -0.7685    9.4835    1.1150 H   0  0  0  0  0  0  0  0  0  0  0  0
   -1.7168    7.8477   -0.3625 H   0  0  0  0  0  0  0  0  0  0  0  0
   -0.4500    6.9440   -2.0430 H   0  0  0  0  0  0  0  0  0  0  0  0
   -2.2802   10.2492    0.0178 H   0  0  0  0  0  0  0  0  0  0  0  0
   -2.2422   11.3341   -1.4133 H   0  0  0  0  0  0  0  0  0  0  0  0
   -3.3025    9.8841   -1.4133 H   0  0  0  0  0  0  0  0  0  0  0  0
   -2.4559    7.9707   -2.6671 H   0  0  0  0  0  0  0  0  0  0  0  0
   -2.3060    9.5236   -3.5575 H   0  0  0  0  0  0  0  0  0  0  0  0
   -0.9434    8.3531   -3.5575 H   0  0  0  0  0  0  0  0  0  0  0  0
    3.7433   10.6440   -0.3251 H   0  0  0  0  0  0  0  0  0  0  0  0
    3.0256   10.0480   -1.8602 H   0  0  0  0  0  0  0  0  0  0  0  0
    4.0456   11.5266   -1.8602 H   0  0  0  0  0  0  0  0  0  0  0  0
    2.0986   12.0887    1.1224 H   0  0  0  0  0  0  0  0  0  0  0  0
    3.4130   12.9604    0.1499 H   0  0  0  0  0  0  0  0  0  0  0  0
    0.5422   13.8357    0.5768 H   0  0  0  0  0  0  0  0  0  0  0  0
    2.0603   14.6180    1.1690 H   0  0  0  0  0  0  0  0  0  0  0  0
    3.7258   15.2796   -0.2147 H   0  0  0  0  0  0  0  0  0  0  0  0
    3.6841   14.3511   -1.7518 H   0  0  0  0  0  0  0  0  0  0  0  0
    3.2999   16.1058   -1.7518 H   0  0  0  0  0  0  0  0  0  0  0  0
  1  2  1  0
  2  3  1  0
  3  4  1  0
  4  5  1  0
  5  6  1  0
  6  7  1  0
  7  8  1  0
  7  9  1  0
  2 10  1  0
 10 11  1  0
 11 12  1  0
 12 13  1  0
 13 14  1  1
 13 15  1  0
 15 16  1  0
 16 17  1  0
 17 18  2  0
 18 19  1  0
 19 20  1  0
 20 21  1  0
 21 22  1  0
 22 23  1  0
 22 24  1  0
 24 25  1  0
 24 26  1  0
 19 27  1  0
 27 28  1  6
 27 29  1  0
 29 30  1  0
 30 31  1  0
 31 32  1  6
  7  5  1  0
 31 10  1  0
 31 13  1  0
 27 15  1  0
 24 18  1  0
  1 33  1  0
  1 34  1  0
  1 35  1  0
  2 36  1  1
  3 37  1  0
  3 38  1  0
  4 39  1  0
  4 40  1  0
  5 41  1  1
  8 42  1  0
  8 43  1  0
  8 44  1  0
  9 45  1  0
  9 46  1  0
  9 47  1  0
 10 48  1  1
 11 49  1  0
 11 50  1  0
 12 51  1  0
 12 52  1  0
 14 53  1  0
 14 54  1  0
 14 55  1  0
 15 56  1  6
 16 57  1  0
 16 58  1  0
 17 59  1  0
 19 60  1  1
 20 61  1  0
 20 62  1  0
 21 63  1  0
 21 64  1  0
 22 65  1  1
 23 66  1  0
 25 67  1  0
 25 68  1  0
 25 69  1  0
 26 70  1  0
 26 71  1  0
 26 72  1  0
 28 73  1  0
 28 74  1  0
 28 75  1  0
 29 76  1  0
 29 77  1  0
 30 78  1  0
 30 79  1  0
 32 80  1  0
 32 81  1  0
 32 82  1  0
M  END
>  <meeko>  (4) 
{"is_sidechain": [false], "intermolecular_energy": 2.731, "internal_energy": -0.839}

$$$$
EPH_relaxed_0001_pdb2pqr_Repair_284_r2_0001_out
     RDKit          3D

 82 86  0  0  0  0  0  0  0  0999 V2000
   -3.4140    9.3240    0.5380 C   0  0  0  0  0  0  0  0  0  0  0  0
   -2.5810    9.6870   -0.6940 C   0  0  2  0  0  0  0  0  0  0  0  0
   -1.9110    8.4500   -1.3270 C   0  0  0  0  0  0  0  0  0  0  0  0
   -2.8240    7.6780   -2.2830 C   0  0  0  0  0  0  0  0  0  0  0  0
   -4.2620    7.7670   -1.8700 C   0  0  2  0  0  0  0  0  0  0  0  0
   -4.8040    6.5570   -1.3250 O   0  0  0  0  0  0  0  0  0  0  0  0
   -5.3800    7.0080   -2.5610 C   0  0  0  0  0  0  0  0  0  0  0  0
   -5.1080    6.1060   -3.7240 C   0  0  0  0  0  0  0  0  0  0  0  0
   -6.7810    7.5160   -2.4240 C   0  0  0  0  0  0  0  0  0  0  0  0
   -1.5230   10.7180   -0.3210 C   0  0  1  0  0  0  0  0  0  0  0  0
   -0.4330   10.1420    0.6210 C   0  0  0  0  0  0  0  0  0  0  0  0
    0.9020   10.8300    0.2350 C   0  0  0  0  0  0  0  0  0  0  0  0
    0.4840   12.0070   -0.6770 C   0  0  1  0  0  0  0  0  0  0  0  0
    0.0400   13.1370    0.3040 C   0  0  0  0  0  0  0  0  0  0  0  0
    1.5620   12.5140   -1.6900 C   0  0  2  0  0  0  0  0  0  0  0  0
    2.8400   13.0840   -1.0510 C   0  0  0  0  0  0  0  0  0  0  0  0
    2.8160   14.5510   -0.7760 C   0  0  0  0  0  0  0  0  0  0  0  0
    1.9300   15.4280   -1.2860 C   0  0  0  0  0  0  0  0  0  0  0  0
    0.8820   14.9810   -2.3130 C   0  0  1  0  0  0  0  0  0  0  0  0
    0.8420   15.9960   -3.4860 C   0  0  0  0  0  0  0  0  0  0  0  0
    0.6220   17.4290   -3.0130 C   0  0  0  0  0  0  0  0  0  0  0  0
    1.7160   17.8560   -2.0380 C   0  0  2  0  0  0  0  0  0  0  0  0
    2.9600   17.9240   -2.7410 O   0  0  0  0  0  0  0  0  0  0  0  0
    1.8560   16.9020   -0.8180 C   0  0  0  0  0  0  0  0  0  0  0  0
    0.6250   17.0580    0.1080 C   0  0  0  0  0  0  0  0  0  0  0  0
    3.0840   17.3650    0.0110 C   0  0  0  0  0  0  0  0  0  0  0  0
    0.9970   13.4770   -2.8110 C   0  0  1  0  0  0  0  0  0  0  0  0
    1.9860   13.3880   -4.0140 C   0  0  0  0  0  0  0  0  0  0  0  0
   -0.4050   13.0060   -3.3530 C   0  0  0  0  0  0  0  0  0  0  0  0
   -1.3810   12.4050   -2.3240 C   0  0  0  0  0  0  0  0  0  0  0  0
   -0.6910   11.3330   -1.4750 C   0  0  2  0  0  0  0  0  0  0  0  0
   -0.2530   10.1730   -2.4320 C   0  0  0  0  0  0  0  0  0  0  0  0
   -2.8484    9.5705    1.4487 H   0  0  0  0  0  0  0  0  0  0  0  0
   -4.3549    9.8937    0.5253 H   0  0  0  0  0  0  0  0  0  0  0  0
   -3.6373    8.2470    0.5253 H   0  0  0  0  0  0  0  0  0  0  0  0
   -3.2658   10.1115   -1.4429 H   0  0  0  0  0  0  0  0  0  0  0  0
   -1.0245    8.7832   -1.8865 H   0  0  0  0  0  0  0  0  0  0  0  0
   -1.6551    7.7663   -0.5041 H   0  0  0  0  0  0  0  0  0  0  0  0
   -2.7171    8.0972   -3.2943 H   0  0  0  0  0  0  0  0  0  0  0  0
   -2.5261    6.6193   -2.2613 H   0  0  0  0  0  0  0  0  0  0  0  0
   -4.1446    8.8281   -1.6049 H   0  0  0  0  0  0  0  0  0  0  0  0
   -4.8087    5.1135   -3.3561 H   0  0  0  0  0  0  0  0  0  0  0  0
   -6.0176    6.0115   -4.3353 H   0  0  0  0  0  0  0  0  0  0  0  0
   -4.2978    6.5301   -4.3353 H   0  0  0  0  0  0  0  0  0  0  0  0
   -7.0350    7.6081   -1.3577 H   0  0  0  0  0  0  0  0  0  0  0  0
   -6.8627    8.5010   -2.9068 H   0  0  0  0  0  0  0  0  0  0  0  0
   -7.4750    6.8123   -2.9068 H   0  0  0  0  0  0  0  0  0  0  0  0
   -2.1668   11.4872    0.1305 H   0  0  0  0  0  0  0  0  0  0  0  0
   -0.6834   10.3624    1.6692 H   0  0  0  0  0  0  0  0  0  0  0  0
   -0.3585    9.0495    0.5168 H   0  0  0  0  0  0  0  0  0  0  0  0
    1.4223   11.1988    1.1313 H   0  0  0  0  0  0  0  0  0  0  0  0
    1.5975   10.1404   -0.2658 H   0  0  0  0  0  0  0  0  0  0  0  0
    0.1741   12.7958    1.3411 H   0  0  0  0  0  0  0  0  0  0  0  0
    0.6525   14.0342    0.1311 H   0  0  0  0  0  0  0  0  0  0  0  0
   -1.0194   13.3773    0.1311 H   0  0  0  0  0  0  0  0  0  0  0  0
    1.8680   11.5849   -2.1931 H   0  0  0  0  0  0  0  0  0  0  0  0
    3.0048   12.5620   -0.0969 H   0  0  0  0  0  0  0  0  0  0  0  0
    3.6439   12.9252   -1.7848 H   0  0  0  0  0  0  0  0  0  0  0  0
    3.5868   14.9494   -0.0999 H   0  0  0  0  0  0  0  0  0  0  0  0
   -0.0827   14.9827   -1.7844 H   0  0  0  0  0  0  0  0  0  0  0  0
    1.7981   15.9465   -4.0277 H   0  0  0  0  0  0  0  0  0  0  0  0
   -0.0050   15.7246   -4.1332 H   0  0  0  0  0  0  0  0  0  0  0  0
    0.6334   18.1012   -3.8837 H   0  0  0  0  0  0  0  0  0  0  0  0
   -0.3482   17.4834   -2.4976 H   0  0  0  0  0  0  0  0  0  0  0  0
    1.4334   18.8400   -1.6358 H   0  0  0  0  0  0  0  0  0  0  0  0
    2.8000   17.6180   -3.6500 H   0  0  0  0  0  0  0  0  0  0  0  0
    0.9488   17.0170    1.1585 H   0  0  0  0  0  0  0  0  0  0  0  0
    0.1387   18.0250   -0.0883 H   0  0  0  0  0  0  0  0  0  0  0  0
   -0.0871   16.2429   -0.0883 H   0  0  0  0  0  0  0  0  0  0  0  0
    2.8558   17.2790    1.0836 H   0  0  0  0  0  0  0  0  0  0  0  0
    3.9501   16.7317   -0.2316 H   0  0  0  0  0  0  0  0  0  0  0  0
    3.3163   18.4125   -0.2316 H   0  0  0  0  0  0  0  0  0  0  0  0
    3.0151   13.2954   -3.6366 H   0  0  0  0  0  0  0  0  0  0  0  0
    1.7397   12.5084   -4.6269 H   0  0  0  0  0  0  0  0  0  0  0  0
    1.9007   14.2975   -4.6269 H   0  0  0  0  0  0  0  0  0  0  0  0
   -0.8964   13.8789   -3.8075 H   0  0  0  0  0  0  0  0  0  0  0  0
   -0.1828   12.1863   -4.0520 H   0  0  0  0  0  0  0  0  0  0  0  0
   -1.7469   13.2059   -1.6646 H   0  0  0  0  0  0  0  0  0  0  0  0
   -2.2179   11.9391   -2.8649 H   0  0  0  0  0  0  0  0  0  0  0  0
    0.0734    9.3086   -1.8350 H   0  0  0  0  0  0  0  0  0  0  0  0
   -1.1026    9.8806   -3.0665 H   0  0  0  0  0  0  0  0  0  0  0  0
    0.5779   10.5151   -3.0665 H   0  0  0  0  0  0  0  0  0  0  0  0
  1  2  1  0
  2  3  1  0
  3  4  1  0
  4  5  1  0
  5  6  1  0
  6  7  1  0
  7  8  1  0
  7  9  1  0
  2 10  1  0
 10 11  1  0
 11 12  1  0
 12 13  1  0
 13 14  1  1
 13 15  1  0
 15 16  1  0
 16 17  1  0
 17 18  2  0
 18 19  1  0
 19 20  1  0
 20 21  1  0
 21 22  1  0
 22 23  1  0
 22 24  1  0
 24 25  1  0
 24 26  1  0
 19 27  1  0
 27 28  1  6
 27 29  1  0
 29 30  1  0
 30 31  1  0
 31 32  1  6
  7  5  1  0
 31 10  1  0
 31 13  1  0
 27 15  1  0
 24 18  1  0
  1 33  1  0
  1 34  1  0
  1 35  1  0
  2 36  1  6
  3 37  1  0
  3 38  1  0
  4 39  1  0
  4 40  1  0
  5 41  1  1
  8 42  1  0
  8 43  1  0
  8 44  1  0
  9 45  1  0
  9 46  1  0
  9 47  1  0
 10 48  1  1
 11 49  1  0
 11 50  1  0
 12 51  1  0
 12 52  1  0
 14 53  1  0
 14 54  1  0
 14 55  1  0
 15 56  1  6
 16 57  1  0
 16 58  1  0
 17 59  1  0
 19 60  1  1
 20 61  1  0
 20 62  1  0
 21 63  1  0
 21 64  1  0
 22 65  1  1
 23 66  1  0
 25 67  1  0
 25 68  1  0
 25 69  1  0
 26 70  1  0
 26 71  1  0
 26 72  1  0
 28 73  1  0
 28 74  1  0
 28 75  1  0
 29 76  1  0
 29 77  1  0
 30 78  1  0
 30 79  1  0
 32 80  1  0
 32 81  1  0
 32 82  1  0
M  END
>  <meeko>  (5) 
{"is_sidechain": [false], "intermolecular_energy": 2.731, "internal_energy": -0.839}

$$$$
EPH_relaxed_0001_pdb2pqr_Repair_284_r2_0001_out
     RDKit          3D

 82 86  0  0  0  0  0  0  0  0999 V2000
    3.8080   17.9020    0.6320 C   0  0  0  0  0  0  0  0  0  0  0  0
    2.6750   18.4000   -0.2700 C   0  0  2  0  0  0  0  0  0  0  0  0
    1.9480   19.6190    0.3320 C   0  0  0  0  0  0  0  0  0  0  0  0
    0.6440   19.2640    1.0510 C   0  0  0  0  0  0  0  0  0  0  0  0
   -0.5210   20.0290    0.4970 C   0  0  2  0  0  0  0  0  0  0  0  0
   -1.6280   20.1680    1.3970 O   0  0  0  0  0  0  0  0  0  0  0  0
   -1.8710   19.4020    0.2070 C   0  0  0  0  0  0  0  0  0  0  0  0
   -2.1280   17.9490    0.4600 C   0  0  0  0  0  0  0  0  0  0  0  0
   -2.7790   20.0790   -0.7710 C   0  0  0  0  0  0  0  0  0  0  0  0
    1.6810   17.2740   -0.5250 C   0  0  1  0  0  0  0  0  0  0  0  0
    0.4950   17.7160   -1.4240 C   0  0  0  0  0  0  0  0  0  0  0  0
    0.1160   16.4930   -2.2980 C   0  0  0  0  0  0  0  0  0  0  0  0
    0.8620   15.3030   -1.6490 C   0  0  1  0  0  0  0  0  0  0  0  0
   -0.0330   14.8780   -0.4430 C   0  0  0  0  0  0  0  0  0  0  0  0
    1.1810   14.0930   -2.5870 C   0  0  2  0  0  0  0  0  0  0  0  0
   -0.0500   13.3780   -3.1690 C   0  0  0  0  0  0  0  0  0  0  0  0
   -0.5750   12.2440   -2.3520 C   0  0  0  0  0  0  0  0  0  0  0  0
    0.0810   11.6350   -1.3470 C   0  0  0  0  0  0  0  0  0  0  0  0
    1.5290   12.0140   -1.0070 C   0  0  1  0  0  0  0  0  0  0  0  0
    2.3720   10.7240   -0.8260 C   0  0  0  0  0  0  0  0  0  0  0  0
    1.7650    9.7670    0.1950 C   0  0  0  0  0  0  0  0  0  0  0  0
    0.3470    9.3680   -0.2070 C   0  0  2  0  0  0  0  0  0  0  0  0
    0.4110    8.5860   -1.4040 O   0  0  0  0  0  0  0  0  0  0  0  0
   -0.5930   10.5860   -0.4280 C   0  0  0  0  0  0  0  0  0  0  0  0
   -0.9020   11.2580    0.9320 C   0  0  0  0  0  0  0  0  0  0  0  0
   -1.9480   10.0520   -0.9670 C   0  0  0  0  0  0  0  0  0  0  0  0
    2.2180   13.0620   -1.9830 C   0  0  1  0  0  0  0  0  0  0  0  0
    2.8620   12.3180   -3.1930 C   0  0  0  0  0  0  0  0  0  0  0  0
    3.3970   13.7740   -1.2220 C   0  0  0  0  0  0  0  0  0  0  0  0
    3.0390   15.0340   -0.4090 C   0  0  0  0  0  0  0  0  0  0  0  0
    2.2090   16.0090   -1.2480 C   0  0  2  0  0  0  0  0  0  0  0  0
    3.0910   16.4720   -2.4570 C   0  0  0  0  0  0  0  0  0  0  0  0
    3.5201   18.0286    1.6861 H   0  0  0  0  0  0  0  0  0  0  0  0
    3.9975   16.8376    0.4289 H   0  0  0  0  0  0  0  0  0  0  0  0
    4.7203   18.4821    0.4289 H   0  0  0  0  0  0  0  0  0  0  0  0
    3.1250   18.7205   -1.2212 H   0  0  0  0  0  0  0  0  0  0  0  0
    2.6218   20.1037    1.0538 H   0  0  0  0  0  0  0  0  0  0  0  0
    1.6835   20.2816   -0.5053 H   0  0  0  0  0  0  0  0  0  0  0  0
    0.4527   18.1874    0.9315 H   0  0  0  0  0  0  0  0  0  0  0  0
    0.7547   19.5293    2.1128 H   0  0  0  0  0  0  0  0  0  0  0  0
    0.1486   20.6538   -0.1123 H   0  0  0  0  0  0  0  0  0  0  0  0
   -2.1604   17.7657    1.5441 H   0  0  0  0  0  0  0  0  0  0  0  0
   -3.0906   17.6633    0.0109 H   0  0  0  0  0  0  0  0  0  0  0  0
   -1.3218   17.3504    0.0109 H   0  0  0  0  0  0  0  0  0  0  0  0
   -3.5449   20.6500   -0.2257 H   0  0  0  0  0  0  0  0  0  0  0  0
   -2.1929   20.7623   -1.4031 H   0  0  0  0  0  0  0  0  0  0  0  0
   -3.2666   19.3223   -1.4031 H   0  0  0  0  0  0  0  0  0  0  0  0
    1.4102   17.0288    0.5126 H   0  0  0  0  0  0  0  0  0  0  0  0
   -0.3607   18.0164   -0.8015 H   0  0  0  0  0  0  0  0  0  0  0  0
    0.7730   18.5772   -2.0493 H   0  0  0  0  0  0  0  0  0  0  0  0
   -0.9711   16.3256   -2.2811 H   0  0  0  0  0  0  0  0  0  0  0  0
    0.3925   16.6329   -3.3535 H   0  0  0  0  0  0  0  0  0  0  0  0
    0.4806   15.1219    0.4987 H   0  0  0  0  0  0  0  0  0  0  0  0
   -0.9905   15.4176   -0.4889 H   0  0  0  0  0  0  0  0  0  0  0  0
   -0.2199   13.7950   -0.4889 H   0  0  0  0  0  0  0  0  0  0  0  0
    1.6753   14.5786   -3.4413 H   0  0  0  0  0  0  0  0  0  0  0  0
   -0.8547   14.1202   -3.2768 H   0  0  0  0  0  0  0  0  0  0  0  0
    0.2761   12.9395   -4.1237 H   0  0  0  0  0  0  0  0  0  0  0  0
   -1.5832   11.8751   -2.5918 H   0  0  0  0  0  0  0  0  0  0  0  0
    1.4848   12.5673   -0.0573 H   0  0  0  0  0  0  0  0  0  0  0  0
    2.4403   10.2085   -1.7953 H   0  0  0  0  0  0  0  0  0  0  0  0
    3.3637   11.0225   -0.4554 H   0  0  0  0  0  0  0  0  0  0  0  0
    2.3893    8.8635    0.2571 H   0  0  0  0  0  0  0  0  0  0  0  0
    1.7240   10.2739    1.1704 H   0  0  0  0  0  0  0  0  0  0  0  0
   -0.0814    8.7887    0.6242 H   0  0  0  0  0  0  0  0  0  0  0  0
    0.8340    9.1300   -2.0890 H   0  0  0  0  0  0  0  0  0  0  0  0
   -0.5946   10.5894    1.7496 H   0  0  0  0  0  0  0  0  0  0  0  0
   -0.3495   12.2063    1.0064 H   0  0  0  0  0  0  0  0  0  0  0  0
   -1.9815   11.4558    1.0064 H   0  0  0  0  0  0  0  0  0  0  0  0
   -2.6028    9.7939   -0.1216 H   0  0  0  0  0  0  0  0  0  0  0  0
   -2.4298   10.8275   -1.5806 H   0  0  0  0  0  0  0  0  0  0  0  0
   -1.7712    9.1563   -1.5806 H   0  0  0  0  0  0  0  0  0  0  0  0
    3.5400   11.5347   -2.8231 H   0  0  0  0  0  0  0  0  0  0  0  0
    2.0710   11.8595   -3.8046 H   0  0  0  0  0  0  0  0  0  0  0  0
    3.4292   13.0351   -3.8046 H   0  0  0  0  0  0  0  0  0  0  0  0
    3.8342   13.0423   -0.5266 H   0  0  0  0  0  0  0  0  0  0  0  0
    4.0787   14.1245   -2.0109 H   0  0  0  0  0  0  0  0  0  0  0  0
    2.4589   14.7377    0.4774 H   0  0  0  0  0  0  0  0  0  0  0  0
    3.9713   15.5347   -0.1088 H   0  0  0  0  0  0  0  0  0  0  0  0
    4.0061   16.9524   -2.0805 H   0  0  0  0  0  0  0  0  0  0  0  0
    3.3606   15.5991   -3.0697 H   0  0  0  0  0  0  0  0  0  0  0  0
    2.5256   17.1896   -3.0697 H   0  0  0  0  0  0  0  0  0  0  0  0
  1  2  1  0
  2  3  1  0
  3  4  1  0
  4  5  1  0
  5  6  1  0
  6  7  1  0
  7  8  1  0
  7  9  1  0
  2 10  1  0
 10 11  1  0
 11 12  1  0
 12 13  1  0
 13 14  1  1
 13 15  1  0
 15 16  1  0
 16 17  1  0
 17 18  2  0
 18 19  1  0
 19 20  1  0
 20 21  1  0
 21 22  1  0
 22 23  1  0
 22 24  1  0
 24 25  1  0
 24 26  1  0
 19 27  1  0
 27 28  1  6
 27 29  1  0
 29 30  1  0
 30 31  1  0
 31 32  1  6
  7  5  1  0
 31 10  1  0
 31 13  1  0
 27 15  1  0
 24 18  1  0
  1 33  1  0
  1 34  1  0
  1 35  1  0
  2 36  1  6
  3 37  1  0
  3 38  1  0
  4 39  1  0
  4 40  1  0
  5 41  1  6
  8 42  1  0
  8 43  1  0
  8 44  1  0
  9 45  1  0
  9 46  1  0
  9 47  1  0
 10 48  1  1
 11 49  1  0
 11 50  1  0
 12 51  1  0
 12 52  1  0
 14 53  1  0
 14 54  1  0
 14 55  1  0
 15 56  1  6
 16 57  1  0
 16 58  1  0
 17 59  1  0
 19 60  1  1
 20 61  1  0
 20 62  1  0
 21 63  1  0
 21 64  1  0
 22 65  1  1
 23 66  1  0
 25 67  1  0
 25 68  1  0
 25 69  1  0
 26 70  1  0
 26 71  1  0
 26 72  1  0
 28 73  1  0
 28 74  1  0
 28 75  1  0
 29 76  1  0
 29 77  1  0
 30 78  1  0
 30 79  1  0
 32 80  1  0
 32 81  1  0
 32 82  1  0
M  END
>  <meeko>  (6) 
{"is_sidechain": [false], "intermolecular_energy": 2.731, "internal_energy": -0.839}

$$$$
EPH_relaxed_0001_pdb2pqr_Repair_284_r2_0001_out
     RDKit          3D

 82 86  0  0  0  0  0  0  0  0999 V2000
    3.6620   17.5930    0.1890 C   0  0  0  0  0  0  0  0  0  0  0  0
    3.1500   16.9320   -1.0940 C   0  0  2  0  0  0  0  0  0  0  0  0
    2.6180   17.9660   -2.1070 C   0  0  0  0  0  0  0  0  0  0  0  0
    1.8860   19.1440   -1.4580 C   0  0  0  0  0  0  0  0  0  0  0  0
    0.3990   18.9720   -1.5150 C   0  0  2  0  0  0  0  0  0  0  0  0
   -0.3390   20.1920   -1.6700 O   0  0  0  0  0  0  0  0  0  0  0  0
   -0.5440   19.4780   -0.4400 C   0  0  0  0  0  0  0  0  0  0  0  0
   -0.0340   20.1940    0.7720 C   0  0  0  0  0  0  0  0  0  0  0  0
   -1.8990   18.8530   -0.3240 C   0  0  0  0  0  0  0  0  0  0  0  0
    2.0590   15.9220   -0.7590 C   0  0  1  0  0  0  0  0  0  0  0  0
    0.6950   16.5960   -0.4500 C   0  0  0  0  0  0  0  0  0  0  0  0
   -0.4050   15.6480   -0.9900 C   0  0  0  0  0  0  0  0  0  0  0  0
    0.3340   14.3220   -1.2880 C   0  0  1  0  0  0  0  0  0  0  0  0
    0.4490   13.6070    0.0950 C   0  0  0  0  0  0  0  0  0  0  0  0
   -0.3170   13.3950   -2.3650 C   0  0  2  0  0  0  0  0  0  0  0  0
   -1.7200   12.8690   -2.0120 C   0  0  0  0  0  0  0  0  0  0  0  0
   -1.7470   11.5680   -1.2810 C   0  0  0  0  0  0  0  0  0  0  0  0
   -0.7160   10.7100   -1.1710 C   0  0  0  0  0  0  0  0  0  0  0  0
    0.6070   10.9710   -1.9030 C   0  0  1  0  0  0  0  0  0  0  0  0
    1.0760    9.6700   -2.6050 C   0  0  0  0  0  0  0  0  0  0  0  0
    1.1630    8.4870   -1.6470 C   0  0  0  0  0  0  0  0  0  0  0  0
   -0.1860    8.2220   -0.9830 C   0  0  2  0  0  0  0  0  0  0  0  0
   -1.1110    7.7780   -1.9800 O   0  0  0  0  0  0  0  0  0  0  0  0
   -0.7630    9.4660   -0.2510 C   0  0  0  0  0  0  0  0  0  0  0  0
    0.0810    9.7640    1.0130 C   0  0  0  0  0  0  0  0  0  0  0  0
   -2.1870    9.1050    0.2530 C   0  0  0  0  0  0  0  0  0  0  0  0
    0.6260   12.2300   -2.8730 C   0  0  1  0  0  0  0  0  0  0  0  0
    0.1060   11.8210   -4.2850 C   0  0  0  0  0  0  0  0  0  0  0  0
    2.1140   12.7070   -3.0680 C   0  0  0  0  0  0  0  0  0  0  0  0
    2.6610   13.7150   -2.0400 C   0  0  0  0  0  0  0  0  0  0  0  0
    1.6910   14.8840   -1.8490 C   0  0  2  0  0  0  0  0  0  0  0  0
    1.5730   15.6360   -3.2180 C   0  0  0  0  0  0  0  0  0  0  0  0
    3.2525   17.0644    1.0624 H   0  0  0  0  0  0  0  0  0  0  0  0
    4.7607   17.5447    0.2131 H   0  0  0  0  0  0  0  0  0  0  0  0
    3.3406   18.6447    0.2131 H   0  0  0  0  0  0  0  0  0  0  0  0
    4.0012   16.4172   -1.5635 H   0  0  0  0  0  0  0  0  0  0  0  0
    3.4698   18.3601   -2.6807 H   0  0  0  0  0  0  0  0  0  0  0  0
    1.8876   17.4454   -2.7438 H   0  0  0  0  0  0  0  0  0  0  0  0
    2.1959   19.2199   -0.4053 H   0  0  0  0  0  0  0  0  0  0  0  0
    2.1469   20.0573   -2.0128 H   0  0  0  0  0  0  0  0  0  0  0  0
    0.5076   17.9897   -1.9980 H   0  0  0  0  0  0  0  0  0  0  0  0
   -0.3962   19.6856    1.6777 H   0  0  0  0  0  0  0  0  0  0  0  0
    1.0660   20.1902    0.7644 H   0  0  0  0  0  0  0  0  0  0  0  0
   -0.3971   21.2323    0.7644 H   0  0  0  0  0  0  0  0  0  0  0  0
   -2.1580   18.7336    0.7384 H   0  0  0  0  0  0  0  0  0  0  0  0
   -2.6436   19.4986   -0.8126 H   0  0  0  0  0  0  0  0  0  0  0  0
   -1.8913   17.8675   -0.8126 H   0  0  0  0  0  0  0  0  0  0  0  0
    2.5318   15.4176    0.0966 H   0  0  0  0  0  0  0  0  0  0  0  0
    0.5775   16.7332    0.6351 H   0  0  0  0  0  0  0  0  0  0  0  0
    0.6285   17.5873   -0.9222 H   0  0  0  0  0  0  0  0  0  0  0  0
   -1.1898   15.4939   -0.2348 H   0  0  0  0  0  0  0  0  0  0  0  0
   -0.9063   16.0553   -1.8804 H   0  0  0  0  0  0  0  0  0  0  0  0
    0.3301   14.3462    0.9009 H   0  0  0  0  0  0  0  0  0  0  0  0
   -0.3378   12.8429    0.1793 H   0  0  0  0  0  0  0  0  0  0  0  0
    1.4357   13.1281    0.1793 H   0  0  0  0  0  0  0  0  0  0  0  0
   -0.4601   14.0822   -3.2119 H   0  0  0  0  0  0  0  0  0  0  0  0
   -2.2175   13.6225   -1.3837 H   0  0  0  0  0  0  0  0  0  0  0  0
   -2.2285   12.6903   -2.9709 H   0  0  0  0  0  0  0  0  0  0  0  0
   -2.6903   11.2864   -0.7902 H   0  0  0  0  0  0  0  0  0  0  0  0
    1.3323   11.2581   -1.1274 H   0  0  0  0  0  0  0  0  0  0  0  0
    0.3622    9.4241   -3.4050 H   0  0  0  0  0  0  0  0  0  0  0  0
    2.0849    9.8512   -3.0040 H   0  0  0  0  0  0  0  0  0  0  0  0
    1.4704    7.5918   -2.2075 H   0  0  0  0  0  0  0  0  0  0  0  0
    1.8992    8.7225   -0.8644 H   0  0  0  0  0  0  0  0  0  0  0  0
   -0.0300    7.4505   -0.2146 H   0  0  0  0  0  0  0  0  0  0  0  0
   -1.8940    8.3520   -1.9310 H   0  0  0  0  0  0  0  0  0  0  0  0
   -0.5173    9.5528    1.9116 H   0  0  0  0  0  0  0  0  0  0  0  0
    0.9789    9.1285    1.0126 H   0  0  0  0  0  0  0  0  0  0  0  0
    0.3808   10.8223    1.0126 H   0  0  0  0  0  0  0  0  0  0  0  0
   -2.1970    9.1025    1.3530 H   0  0  0  0  0  0  0  0  0  0  0  0
   -2.9070    9.8490   -0.1185 H   0  0  0  0  0  0  0  0  0  0  0  0
   -2.4656    8.1078   -0.1185 H   0  0  0  0  0  0  0  0  0  0  0  0
   -0.7544   11.1442   -4.1770 H   0  0  0  0  0  0  0  0  0  0  0  0
   -0.2025   12.7211   -4.8370 H   0  0  0  0  0  0  0  0  0  0  0  0
    0.9081   11.3092   -4.8370 H   0  0  0  0  0  0  0  0  0  0  0  0
    2.7566   11.8149   -3.0335 H   0  0  0  0  0  0  0  0  0  0  0  0
    2.1206   13.2434   -4.0283 H   0  0  0  0  0  0  0  0  0  0  0  0
    2.8035   13.2045   -1.0761 H   0  0  0  0  0  0  0  0  0  0  0  0
    3.6179   14.1104   -2.4115 H   0  0  0  0  0  0  0  0  0  0  0  0
    1.4049   16.7075   -3.0345 H   0  0  0  0  0  0  0  0  0  0  0  0
    2.5029   15.5035   -3.7905 H   0  0  0  0  0  0  0  0  0  0  0  0
    0.7283   15.2251   -3.7905 H   0  0  0  0  0  0  0  0  0  0  0  0
  1  2  1  0
  2  3  1  0
  3  4  1  0
  4  5  1  0
  5  6  1  0
  6  7  1  0
  7  8  1  0
  7  9  1  0
  2 10  1  0
 10 11  1  0
 11 12  1  0
 12 13  1  0
 13 14  1  1
 13 15  1  0
 15 16  1  0
 16 17  1  0
 17 18  2  0
 18 19  1  0
 19 20  1  0
 20 21  1  0
 21 22  1  0
 22 23  1  0
 22 24  1  0
 24 25  1  0
 24 26  1  0
 19 27  1  0
 27 28  1  6
 27 29  1  0
 29 30  1  0
 30 31  1  0
 31 32  1  6
  7  5  1  0
 31 10  1  0
 31 13  1  0
 27 15  1  0
 24 18  1  0
  1 33  1  0
  1 34  1  0
  1 35  1  0
  2 36  1  6
  3 37  1  0
  3 38  1  0
  4 39  1  0
  4 40  1  0
  5 41  1  6
  8 42  1  0
  8 43  1  0
  8 44  1  0
  9 45  1  0
  9 46  1  0
  9 47  1  0
 10 48  1  1
 11 49  1  0
 11 50  1  0
 12 51  1  0
 12 52  1  0
 14 53  1  0
 14 54  1  0
 14 55  1  0
 15 56  1  6
 16 57  1  0
 16 58  1  0
 17 59  1  0
 19 60  1  1
 20 61  1  0
 20 62  1  0
 21 63  1  0
 21 64  1  0
 22 65  1  1
 23 66  1  0
 25 67  1  0
 25 68  1  0
 25 69  1  0
 26 70  1  0
 26 71  1  0
 26 72  1  0
 28 73  1  0
 28 74  1  0
 28 75  1  0
 29 76  1  0
 29 77  1  0
 30 78  1  0
 30 79  1  0
 32 80  1  0
 32 81  1  0
 32 82  1  0
M  END
>  <meeko>  (7) 
{"is_sidechain": [false], "intermolecular_energy": 2.731, "internal_energy": -0.839}

$$$$
EPH_relaxed_0001_pdb2pqr_Repair_284_r2_0001_out
     RDKit          3D

 82 86  0  0  0  0  0  0  0  0999 V2000
   -5.2040    5.8650   -1.5280 C   0  0  0  0  0  0  0  0  0  0  0  0
   -5.4440    7.3570   -1.7760 C   0  0  2  0  0  0  0  0  0  0  0  0
   -5.1650    8.2060   -0.5190 C   0  0  0  0  0  0  0  0  0  0  0  0
   -4.1500    9.3300   -0.7490 C   0  0  0  0  0  0  0  0  0  0  0  0
   -2.7640    8.9140   -0.3590 C   0  0  2  0  0  0  0  0  0  0  0  0
   -2.1960    9.6640    0.7230 O   0  0  0  0  0  0  0  0  0  0  0  0
   -1.5420    9.7920   -0.5500 C   0  0  0  0  0  0  0  0  0  0  0  0
   -1.6490   11.1570   -1.1550 C   0  0  0  0  0  0  0  0  0  0  0  0
   -0.1950    9.1410   -0.6040 C   0  0  0  0  0  0  0  0  0  0  0  0
   -6.8750    7.5820   -2.2490 C   0  0  1  0  0  0  0  0  0  0  0  0
   -7.1730    6.8860   -3.6040 C   0  0  0  0  0  0  0  0  0  0  0  0
   -8.6480    6.4120   -3.5480 C   0  0  0  0  0  0  0  0  0  0  0  0
   -9.2430    7.1330   -2.3160 C   0  0  1  0  0  0  0  0  0  0  0  0
   -9.5920    8.5680   -2.8210 C   0  0  0  0  0  0  0  0  0  0  0  0
  -10.4730    6.4440   -1.6410 C   0  0  2  0  0  0  0  0  0  0  0  0
  -11.7220    6.3170   -2.5310 C   0  0  0  0  0  0  0  0  0  0  0  0
  -12.6770    7.4610   -2.4570 C   0  0  0  0  0  0  0  0  0  0  0  0
  -12.6880    8.4100   -1.5020 C   0  0  0  0  0  0  0  0  0  0  0  0
  -11.7310    8.3340   -0.3050 C   0  0  1  0  0  0  0  0  0  0  0  0
  -12.5160    8.6130    1.0040 C   0  0  0  0  0  0  0  0  0  0  0  0
  -13.2870    9.9280    0.9550 C   0  0  0  0  0  0  0  0  0  0  0  0
  -14.2690    9.9430   -0.2130 C   0  0  2  0  0  0  0  0  0  0  0  0
  -15.2870    8.9670    0.0290 O   0  0  0  0  0  0  0  0  0  0  0  0
  -13.5930    9.6640   -1.5850 C   0  0  0  0  0  0  0  0  0  0  0  0
  -12.7130   10.8730   -1.9870 C   0  0  0  0  0  0  0  0  0  0  0  0
  -14.7120    9.5660   -2.6570 C   0  0  0  0  0  0  0  0  0  0  0  0
  -10.8380    7.0230   -0.2140 C   0  0  1  0  0  0  0  0  0  0  0  0
  -11.6170    5.9000    0.5370 C   0  0  0  0  0  0  0  0  0  0  0  0
   -9.5590    7.3310    0.6510 C   0  0  0  0  0  0  0  0  0  0  0  0
   -8.3360    7.8990   -0.0940 C   0  0  0  0  0  0  0  0  0  0  0  0
   -8.0160    7.0630   -1.3370 C   0  0  2  0  0  0  0  0  0  0  0  0
   -7.6390    5.6200   -0.8590 C   0  0  0  0  0  0  0  0  0  0  0  0
   -5.1732    5.6736   -0.4452 H   0  0  0  0  0  0  0  0  0  0  0  0
   -6.0199    5.2822   -1.9803 H   0  0  0  0  0  0  0  0  0  0  0  0
   -4.2465    5.5675   -1.9803 H   0  0  0  0  0  0  0  0  0  0  0  0
   -4.7397    7.6804   -2.5566 H   0  0  0  0  0  0  0  0  0  0  0  0
   -6.1121    8.6558   -0.1863 H   0  0  0  0  0  0  0  0  0  0  0  0
   -4.7332    7.5319    0.2354 H   0  0  0  0  0  0  0  0  0  0  0  0
   -4.1540    9.6013   -1.8150 H   0  0  0  0  0  0  0  0  0  0  0  0
   -4.4397   10.1868   -0.1230 H   0  0  0  0  0  0  0  0  0  0  0  0
   -2.9735    7.8707   -0.6377 H   0  0  0  0  0  0  0  0  0  0  0  0
   -1.7080   11.9092   -0.3546 H   0  0  0  0  0  0  0  0  0  0  0  0
   -0.7634   11.3526   -1.7775 H   0  0  0  0  0  0  0  0  0  0  0  0
   -2.5542   11.2122   -1.7775 H   0  0  0  0  0  0  0  0  0  0  0  0
    0.1686    8.9653    0.4192 H   0  0  0  0  0  0  0  0  0  0  0  0
   -0.2727    8.1810   -1.1354 H   0  0  0  0  0  0  0  0  0  0  0  0
    0.5089    9.7983   -1.1354 H   0  0  0  0  0  0  0  0  0  0  0  0
   -6.8880    8.6815   -2.2794 H   0  0  0  0  0  0  0  0  0  0  0  0
   -7.0343    7.5956   -4.4330 H   0  0  0  0  0  0  0  0  0  0  0  0
   -6.4918    6.0387   -3.7712 H   0  0  0  0  0  0  0  0  0  0  0  0
   -9.1840    6.7017   -4.4638 H   0  0  0  0  0  0  0  0  0  0  0  0
   -8.7319    5.3179   -3.4718 H   0  0  0  0  0  0  0  0  0  0  0  0
   -9.7533    9.2312   -1.9583 H   0  0  0  0  0  0  0  0  0  0  0  0
   -8.7616    8.9543   -3.4303 H   0  0  0  0  0  0  0  0  0  0  0  0
  -10.5070    8.5298   -3.4303 H   0  0  0  0  0  0  0  0  0  0  0  0
  -10.1108    5.4168   -1.4871 H   0  0  0  0  0  0  0  0  0  0  0  0
  -11.3873    6.2207   -3.5744 H   0  0  0  0  0  0  0  0  0  0  0  0
  -12.2708    5.4384   -2.1611 H   0  0  0  0  0  0  0  0  0  0  0  0
  -13.4361    7.5353   -3.2496 H   0  0  0  0  0  0  0  0  0  0  0  0
  -10.9803    9.1220   -0.4648 H   0  0  0  0  0  0  0  0  0  0  0  0
  -13.2293    7.7921    1.1691 H   0  0  0  0  0  0  0  0  0  0  0  0
  -11.7849    8.6851    1.8227 H   0  0  0  0  0  0  0  0  0  0  0  0
  -13.8442   10.0535    1.8951 H   0  0  0  0  0  0  0  0  0  0  0  0
  -12.5690   10.7504    0.8198 H   0  0  0  0  0  0  0  0  0  0  0  0
  -14.6952   10.9553   -0.2735 H   0  0  0  0  0  0  0  0  0  0  0  0
  -15.7360    8.7940   -0.8160 H   0  0  0  0  0  0  0  0  0  0  0  0
  -12.3462   11.3770   -1.0807 H   0  0  0  0  0  0  0  0  0  0  0  0
  -11.8577   10.5219   -2.5830 H   0  0  0  0  0  0  0  0  0  0  0  0
  -13.3100   11.5790   -2.5830 H   0  0  0  0  0  0  0  0  0  0  0  0
  -15.6895    9.4804   -2.1599 H   0  0  0  0  0  0  0  0  0  0  0  0
  -14.6980   10.4688   -3.2853 H   0  0  0  0  0  0  0  0  0  0  0  0
  -14.5413    8.6794   -3.2853 H   0  0  0  0  0  0  0  0  0  0  0  0
  -11.5155    6.0463    1.6225 H   0  0  0  0  0  0  0  0  0  0  0  0
  -12.6805    5.9427    0.2591 H   0  0  0  0  0  0  0  0  0  0  0  0
  -11.2045    4.9189    0.2591 H   0  0  0  0  0  0  0  0  0  0  0  0
   -9.8469    8.0604    1.4224 H   0  0  0  0  0  0  0  0  0  0  0  0
   -9.2319    6.3548    1.0383 H   0  0  0  0  0  0  0  0  0  0  0  0
   -8.5498    8.9334   -0.4010 H   0  0  0  0  0  0  0  0  0  0  0  0
   -7.4685    7.8702    0.5817 H   0  0  0  0  0  0  0  0  0  0  0  0
   -7.6307    5.5884    0.2405 H   0  0  0  0  0  0  0  0  0  0  0  0
   -8.3797    4.9020   -1.2409 H   0  0  0  0  0  0  0  0  0  0  0  0
   -6.6418    5.3561   -1.2409 H   0  0  0  0  0  0  0  0  0  0  0  0
  1  2  1  0
  2  3  1  0
  3  4  1  0
  4  5  1  0
  5  6  1  0
  6  7  1  0
  7  8  1  0
  7  9  1  0
  2 10  1  0
 10 11  1  0
 11 12  1  0
 12 13  1  0
 13 14  1  6
 13 15  1  0
 15 16  1  0
 16 17  1  0
 17 18  2  0
 18 19  1  0
 19 20  1  0
 20 21  1  0
 21 22  1  0
 22 23  1  0
 22 24  1  0
 24 25  1  0
 24 26  1  0
 19 27  1  0
 27 28  1  1
 27 29  1  0
 29 30  1  0
 30 31  1  0
 31 32  1  1
  7  5  1  0
 31 10  1  0
 31 13  1  0
 27 15  1  0
 24 18  1  0
  1 33  1  0
  1 34  1  0
  1 35  1  0
  2 36  1  6
  3 37  1  0
  3 38  1  0
  4 39  1  0
  4 40  1  0
  5 41  1  1
  8 42  1  0
  8 43  1  0
  8 44  1  0
  9 45  1  0
  9 46  1  0
  9 47  1  0
 10 48  1  6
 11 49  1  0
 11 50  1  0
 12 51  1  0
 12 52  1  0
 14 53  1  0
 14 54  1  0
 14 55  1  0
 15 56  1  1
 16 57  1  0
 16 58  1  0
 17 59  1  0
 19 60  1  6
 20 61  1  0
 20 62  1  0
 21 63  1  0
 21 64  1  0
 22 65  1  6
 23 66  1  0
 25 67  1  0
 25 68  1  0
 25 69  1  0
 26 70  1  0
 26 71  1  0
 26 72  1  0
 28 73  1  0
 28 74  1  0
 28 75  1  0
 29 76  1  0
 29 77  1  0
 30 78  1  0
 30 79  1  0
 32 80  1  0
 32 81  1  0
 32 82  1  0
M  END
>  <meeko>  (8) 
{"is_sidechain": [false], "intermolecular_energy": 2.731, "internal_energy": -0.839}

$$$$
EPH_relaxed_0001_pdb2pqr_Repair_284_r2_0001_out
     RDKit          3D

 82 86  0  0  0  0  0  0  0  0999 V2000
    0.4390    8.8420   -2.5160 C   0  0  0  0  0  0  0  0  0  0  0  0
    1.1960    9.9990   -3.1750 C   0  0  2  0  0  0  0  0  0  0  0  0
    2.6910   10.0030   -2.7980 C   0  0  0  0  0  0  0  0  0  0  0  0
    3.5960   10.6020   -3.8790 C   0  0  0  0  0  0  0  0  0  0  0  0
    4.9850   10.8400   -3.3690 C   0  0  2  0  0  0  0  0  0  0  0  0
    5.5870   12.0610   -3.8200 O   0  0  0  0  0  0  0  0  0  0  0  0
    6.2140   10.8450   -4.2590 C   0  0  0  0  0  0  0  0  0  0  0  0
    6.1100   10.6050   -5.7330 C   0  0  0  0  0  0  0  0  0  0  0  0
    7.5510   10.5960   -3.6340 C   0  0  0  0  0  0  0  0  0  0  0  0
    0.5570   11.3270   -2.7860 C   0  0  1  0  0  0  0  0  0  0  0  0
   -0.8300   11.1480   -2.1120 C   0  0  0  0  0  0  0  0  0  0  0  0
   -0.9550   12.2640   -1.0430 C   0  0  0  0  0  0  0  0  0  0  0  0
    0.2030   13.2390   -1.3600 C   0  0  1  0  0  0  0  0  0  0  0  0
   -0.3280   14.1260   -2.5300 C   0  0  0  0  0  0  0  0  0  0  0  0
    0.7210   14.1070   -0.1680 C   0  0  2  0  0  0  0  0  0  0  0  0
   -0.3130   15.0750    0.4330 C   0  0  0  0  0  0  0  0  0  0  0  0
   -0.3440   16.4360   -0.1780 C   0  0  0  0  0  0  0  0  0  0  0  0
    0.6110   16.9600   -0.9690 C   0  0  0  0  0  0  0  0  0  0  0  0
    1.9130   16.1960   -1.2440 C   0  0  1  0  0  0  0  0  0  0  0  0
    3.1210   17.1550   -1.0760 C   0  0  0  0  0  0  0  0  0  0  0  0
    2.9920   18.4130   -1.9290 C   0  0  0  0  0  0  0  0  0  0  0  0
    1.7140   19.1750   -1.5860 C   0  0  2  0  0  0  0  0  0  0  0  0
    1.8250   19.6840   -0.2530 O   0  0  0  0  0  0  0  0  0  0  0  0
    0.4310   18.3080   -1.7100 C   0  0  0  0  0  0  0  0  0  0  0  0
    0.1470   18.0080   -3.2030 C   0  0  0  0  0  0  0  0  0  0  0  0
   -0.7680   19.1530   -1.2020 C   0  0  0  0  0  0  0  0  0  0  0  0
    2.0990   14.8340   -0.4460 C   0  0  1  0  0  0  0  0  0  0  0  0
    2.7420   15.1170    0.9470 C   0  0  0  0  0  0  0  0  0  0  0  0
    3.1130   13.9160   -1.2250 C   0  0  0  0  0  0  0  0  0  0  0  0
    2.5240   12.9940   -2.3090 C   0  0  0  0  0  0  0  0  0  0  0  0
    1.3210   12.2130   -1.7710 C   0  0  2  0  0  0  0  0  0  0  0  0
    1.8290   11.2960   -0.6070 C   0  0  0  0  0  0  0  0  0  0  0  0
    0.5021    8.9384   -1.4221 H   0  0  0  0  0  0  0  0  0  0  0  0
   -0.6159    8.8701   -2.8263 H   0  0  0  0  0  0  0  0  0  0  0  0
    0.8872    7.8866   -2.8263 H   0  0  0  0  0  0  0  0  0  0  0  0
    1.1302    9.8602   -4.2642 H   0  0  0  0  0  0  0  0  0  0  0  0
    2.8153   10.5902   -1.8762 H   0  0  0  0  0  0  0  0  0  0  0  0
    2.9936    8.9532   -2.6703 H   0  0  0  0  0  0  0  0  0  0  0  0
    3.6429    9.9068   -4.7302 H   0  0  0  0  0  0  0  0  0  0  0  0
    3.1718   11.5701   -4.1839 H   0  0  0  0  0  0  0  0  0  0  0  0
    4.7560   10.3139   -2.4305 H   0  0  0  0  0  0  0  0  0  0  0  0
    5.6785    9.6093   -5.9128 H   0  0  0  0  0  0  0  0  0  0  0  0
    5.4634   11.3718   -6.1846 H   0  0  0  0  0  0  0  0  0  0  0  0
    7.1116   10.6576   -6.1846 H   0  0  0  0  0  0  0  0  0  0  0  0
    7.4528   10.6143   -2.5385 H   0  0  0  0  0  0  0  0  0  0  0  0
    7.9270    9.6124   -3.9521 H   0  0  0  0  0  0  0  0  0  0  0  0
    8.2559   11.3783   -3.9521 H   0  0  0  0  0  0  0  0  0  0  0  0
    0.5345   11.8164   -3.7709 H   0  0  0  0  0  0  0  0  0  0  0  0
   -1.6304   11.2484   -2.8599 H   0  0  0  0  0  0  0  0  0  0  0  0
   -0.9216   10.1515   -1.6553 H   0  0  0  0  0  0  0  0  0  0  0  0
   -1.9260   12.7742   -1.1259 H   0  0  0  0  0  0  0  0  0  0  0  0
   -0.8986   11.8683   -0.0182 H   0  0  0  0  0  0  0  0  0  0  0  0
   -0.8519   15.0011   -2.1181 H   0  0  0  0  0  0  0  0  0  0  0  0
    0.5175   14.4622   -3.1481 H   0  0  0  0  0  0  0  0  0  0  0  0
   -1.0237   13.5396   -3.1481 H   0  0  0  0  0  0  0  0  0  0  0  0
    0.9092   13.3511    0.6086 H   0  0  0  0  0  0  0  0  0  0  0  0
   -1.3096   14.6255    0.3119 H   0  0  0  0  0  0  0  0  0  0  0  0
   -0.0191   15.2200    1.4830 H   0  0  0  0  0  0  0  0  0  0  0  0
   -1.2213   17.0642    0.0360 H   0  0  0  0  0  0  0  0  0  0  0  0
    1.8507   15.8535   -2.2875 H   0  0  0  0  0  0  0  0  0  0  0  0
    3.1917   17.4513   -0.0190 H   0  0  0  0  0  0  0  0  0  0  0  0
    4.0222   16.6181   -1.4070 H   0  0  0  0  0  0  0  0  0  0  0  0
    3.8597   19.0636   -1.7448 H   0  0  0  0  0  0  0  0  0  0  0  0
    2.9515   18.1172   -2.9877 H   0  0  0  0  0  0  0  0  0  0  0  0
    1.6109   19.9916   -2.3158 H   0  0  0  0  0  0  0  0  0  0  0  0
    2.0440   20.6290   -0.3160 H   0  0  0  0  0  0  0  0  0  0  0  0
   -0.6074   17.2111   -3.2798 H   0  0  0  0  0  0  0  0  0  0  0  0
   -0.2289   18.9174   -3.6947 H   0  0  0  0  0  0  0  0  0  0  0  0
    1.0756   17.6825   -3.6947 H   0  0  0  0  0  0  0  0  0  0  0  0
   -0.7738   19.1571   -0.1020 H   0  0  0  0  0  0  0  0  0  0  0  0
   -0.6725   20.1845   -1.5720 H   0  0  0  0  0  0  0  0  0  0  0  0
   -1.7073   18.7162   -1.5720 H   0  0  0  0  0  0  0  0  0  0  0  0
    2.0456   14.8105    1.7414 H   0  0  0  0  0  0  0  0  0  0  0  0
    3.6787   14.5480    1.0409 H   0  0  0  0  0  0  0  0  0  0  0  0
    2.9551   16.1921    1.0409 H   0  0  0  0  0  0  0  0  0  0  0  0
    3.8502   14.5721   -1.7109 H   0  0  0  0  0  0  0  0  0  0  0  0
    3.5291   13.2378   -0.4655 H   0  0  0  0  0  0  0  0  0  0  0  0
    2.2024   13.6052   -3.1652 H   0  0  0  0  0  0  0  0  0  0  0  0
    3.2984   12.2762   -2.6172 H   0  0  0  0  0  0  0  0  0  0  0  0
    1.5745   11.7555    0.3595 H   0  0  0  0  0  0  0  0  0  0  0  0
    1.3490   10.3091   -0.6816 H   0  0  0  0  0  0  0  0  0  0  0  0
    2.9203   11.1795   -0.6816 H   0  0  0  0  0  0  0  0  0  0  0  0
  1  2  1  0
  2  3  1  0
  3  4  1  0
  4  5  1  0
  5  6  1  0
  6  7  1  0
  7  8  1  0
  7  9  1  0
  2 10  1  0
 10 11  1  0
 11 12  1  0
 12 13  1  0
 13 14  1  6
 13 15  1  0
 15 16  1  0
 16 17  1  0
 17 18  2  0
 18 19  1  0
 19 20  1  0
 20 21  1  0
 21 22  1  0
 22 23  1  0
 22 24  1  0
 24 25  1  0
 24 26  1  0
 19 27  1  0
 27 28  1  1
 27 29  1  0
 29 30  1  0
 30 31  1  0
 31 32  1  1
  7  5  1  0
 31 10  1  0
 31 13  1  0
 27 15  1  0
 24 18  1  0
  1 33  1  0
  1 34  1  0
  1 35  1  0
  2 36  1  6
  3 37  1  0
  3 38  1  0
  4 39  1  0
  4 40  1  0
  5 41  1  1
  8 42  1  0
  8 43  1  0
  8 44  1  0
  9 45  1  0
  9 46  1  0
  9 47  1  0
 10 48  1  6
 11 49  1  0
 11 50  1  0
 12 51  1  0
 12 52  1  0
 14 53  1  0
 14 54  1  0
 14 55  1  0
 15 56  1  1
 16 57  1  0
 16 58  1  0
 17 59  1  0
 19 60  1  6
 20 61  1  0
 20 62  1  0
 21 63  1  0
 21 64  1  0
 22 65  1  6
 23 66  1  0
 25 67  1  0
 25 68  1  0
 25 69  1  0
 26 70  1  0
 26 71  1  0
 26 72  1  0
 28 73  1  0
 28 74  1  0
 28 75  1  0
 29 76  1  0
 29 77  1  0
 30 78  1  0
 30 79  1  0
 32 80  1  0
 32 81  1  0
 32 82  1  0
M  END
>  <meeko>  (9) 
{"is_sidechain": [false], "intermolecular_energy": 2.731, "internal_energy": -0.839}

$$$$
EPH_relaxed_0001_pdb2pqr_Repair_284_r2_0001_out
     RDKit          3D

 82 86  0  0  0  0  0  0  0  0999 V2000
    2.7180   19.3540   -0.5700 C   0  0  0  0  0  0  0  0  0  0  0  0
    2.7620   18.4400   -1.7980 C   0  0  2  0  0  0  0  0  0  0  0  0
    1.4800   18.5490   -2.6480 C   0  0  0  0  0  0  0  0  0  0  0  0
    0.5540   19.6910   -2.2220 C   0  0  0  0  0  0  0  0  0  0  0  0
   -0.7310   19.1780   -1.6460 C   0  0  2  0  0  0  0  0  0  0  0  0
   -1.6800   20.1940   -1.2990 O   0  0  0  0  0  0  0  0  0  0  0  0
   -1.1580   19.4150   -0.2100 C   0  0  0  0  0  0  0  0  0  0  0  0
   -0.3030   20.1940    0.7400 C   0  0  0  0  0  0  0  0  0  0  0  0
   -2.1600   18.4870    0.4010 C   0  0  0  0  0  0  0  0  0  0  0  0
    2.9770   16.9950   -1.3630 C   0  0  1  0  0  0  0  0  0  0  0  0
    3.6870   16.8850    0.0120 C   0  0  0  0  0  0  0  0  0  0  0  0
    3.0940   15.6410    0.7230 C   0  0  0  0  0  0  0  0  0  0  0  0
    2.3150   14.8930   -0.3840 C   0  0  1  0  0  0  0  0  0  0  0  0
    3.4010   14.0860   -1.1630 C   0  0  0  0  0  0  0  0  0  0  0  0
    1.1460   13.9730    0.0950 C   0  0  2  0  0  0  0  0  0  0  0  0
    1.5660   12.7980    0.9960 C   0  0  0  0  0  0  0  0  0  0  0  0
    1.8950   11.5310    0.2780 C   0  0  0  0  0  0  0  0  0  0  0  0
    1.5850   11.2540   -1.0020 C   0  0  0  0  0  0  0  0  0  0  0  0
    0.7450   12.2290   -1.8380 C   0  0  1  0  0  0  0  0  0  0  0  0
   -0.3640   11.4450   -2.5880 C   0  0  0  0  0  0  0  0  0  0  0  0
    0.1940   10.2940   -3.4200 C   0  0  0  0  0  0  0  0  0  0  0  0
    0.9730    9.3160   -2.5440 C   0  0  2  0  0  0  0  0  0  0  0  0
    0.0610    8.6720   -1.6490 O   0  0  0  0  0  0  0  0  0  0  0  0
    2.1110    9.9940   -1.7310 C   0  0  0  0  0  0  0  0  0  0  0  0
    3.2480   10.4260   -2.6900 C   0  0  0  0  0  0  0  0  0  0  0  0
    2.7240    8.9250   -0.7860 C   0  0  0  0  0  0  0  0  0  0  0  0
    0.1800   13.4960   -1.0640 C   0  0  1  0  0  0  0  0  0  0  0  0
   -1.1830   13.1450   -0.3920 C   0  0  0  0  0  0  0  0  0  0  0  0
   -0.1200   14.6410   -2.1020 C   0  0  0  0  0  0  0  0  0  0  0  0
    1.0440   15.5910   -2.4440 C   0  0  0  0  0  0  0  0  0  0  0  0
    1.7170   16.1150   -1.1720 C   0  0  2  0  0  0  0  0  0  0  0  0
    0.6540   16.9490   -0.3790 C   0  0  0  0  0  0  0  0  0  0  0  0
    2.7475   18.7422    0.3437 H   0  0  0  0  0  0  0  0  0  0  0  0
    3.5846   20.0313   -0.5858 H   0  0  0  0  0  0  0  0  0  0  0  0
    1.7904   19.9450   -0.5858 H   0  0  0  0  0  0  0  0  0  0  0  0
    3.6037   18.7683   -2.4255 H   0  0  0  0  0  0  0  0  0  0  0  0
    1.7712   18.7108   -3.6963 H   0  0  0  0  0  0  0  0  0  0  0  0
    0.9206   17.6123   -2.5073 H   0  0  0  0  0  0  0  0  0  0  0  0
    1.0662   20.3010   -1.4633 H   0  0  0  0  0  0  0  0  0  0  0  0
    0.3151   20.2892   -3.1137 H   0  0  0  0  0  0  0  0  0  0  0  0
   -0.6656   18.2642   -2.2548 H   0  0  0  0  0  0  0  0  0  0  0  0
   -0.5801   19.9415    1.7741 H   0  0  0  0  0  0  0  0  0  0  0  0
    0.7546   19.9426    0.5720 H   0  0  0  0  0  0  0  0  0  0  0  0
   -0.4552   21.2704    0.5720 H   0  0  0  0  0  0  0  0  0  0  0  0
   -2.0948   18.5474    1.4974 H   0  0  0  0  0  0  0  0  0  0  0  0
   -3.1712   18.7746    0.0774 H   0  0  0  0  0  0  0  0  0  0  0  0
   -1.9506   17.4567    0.0774 H   0  0  0  0  0  0  0  0  0  0  0  0
    3.5641   16.6301   -2.2186 H   0  0  0  0  0  0  0  0  0  0  0  0
    4.7706   16.7596   -0.1301 H   0  0  0  0  0  0  0  0  0  0  0  0
    3.5310   17.7943    0.6111 H   0  0  0  0  0  0  0  0  0  0  0  0
    3.8958   15.0071    1.1295 H   0  0  0  0  0  0  0  0  0  0  0  0
    2.4518   15.9134    1.5735 H   0  0  0  0  0  0  0  0  0  0  0  0
    4.0714   13.5878   -0.4472 H   0  0  0  0  0  0  0  0  0  0  0  0
    2.9127   13.3299   -1.7953 H   0  0  0  0  0  0  0  0  0  0  0  0
    3.9841   14.7717   -1.7953 H   0  0  0  0  0  0  0  0  0  0  0  0
    0.5636   14.6487    0.7386 H   0  0  0  0  0  0  0  0  0  0  0  0
    2.4550   13.1069    1.5654 H   0  0  0  0  0  0  0  0  0  0  0  0
    0.6948   12.5724    1.6286 H   0  0  0  0  0  0  0  0  0  0  0  0
    2.4368   10.7583    0.8432 H   0  0  0  0  0  0  0  0  0  0  0  0
    1.4366   12.6826   -2.5632 H   0  0  0  0  0  0  0  0  0  0  0  0
   -1.0686   11.0365   -1.8486 H   0  0  0  0  0  0  0  0  0  0  0  0
   -0.8603   12.1448   -3.2765 H   0  0  0  0  0  0  0  0  0  0  0  0
   -0.6390    9.7611   -3.9018 H   0  0  0  0  0  0  0  0  0  0  0  0
    0.8759   10.7067   -4.1780 H   0  0  0  0  0  0  0  0  0  0  0  0
    1.4558    8.5875   -3.2120 H   0  0  0  0  0  0  0  0  0  0  0  0
   -0.3300    7.9170   -2.1210 H   0  0  0  0  0  0  0  0  0  0  0  0
    4.1174   10.7563   -2.1026 H   0  0  0  0  0  0  0  0  0  0  0  0
    3.5360    9.5746   -3.3242 H   0  0  0  0  0  0  0  0  0  0  0  0
    2.8980   11.2538   -3.3242 H   0  0  0  0  0  0  0  0  0  0  0  0
    2.5548    9.2201    0.2601 H   0  0  0  0  0  0  0  0  0  0  0  0
    2.2466    7.9521   -0.9744 H   0  0  0  0  0  0  0  0  0  0  0  0
    3.8048    8.8456   -0.9744 H   0  0  0  0  0  0  0  0  0  0  0  0
   -1.0707   13.1739    0.7019 H   0  0  0  0  0  0  0  0  0  0  0  0
   -1.9438   13.8765   -0.7020 H   0  0  0  0  0  0  0  0  0  0  0  0
   -1.4958   12.1370   -0.7020 H   0  0  0  0  0  0  0  0  0  0  0  0
   -0.4466   14.1644   -3.0381 H   0  0  0  0  0  0  0  0  0  0  0  0
   -0.8775   15.2760   -1.6193 H   0  0  0  0  0  0  0  0  0  0  0  0
    1.7869   15.0474   -3.0461 H   0  0  0  0  0  0  0  0  0  0  0  0
    0.6436   16.4472   -3.0067 H   0  0  0  0  0  0  0  0  0  0  0  0
    0.8182   16.8202    0.7010 H   0  0  0  0  0  0  0  0  0  0  0  0
    0.7531   18.0128   -0.6406 H   0  0  0  0  0  0  0  0  0  0  0  0
   -0.3557   16.5996   -0.6406 H   0  0  0  0  0  0  0  0  0  0  0  0
  1  2  1  0
  2  3  1  0
  3  4  1  0
  4  5  1  0
  5  6  1  0
  6  7  1  0
  7  8  1  0
  7  9  1  0
  2 10  1  0
 10 11  1  0
 11 12  1  0
 12 13  1  0
 13 14  1  6
 13 15  1  0
 15 16  1  0
 16 17  1  0
 17 18  2  0
 18 19  1  0
 19 20  1  0
 20 21  1  0
 21 22  1  0
 22 23  1  0
 22 24  1  0
 24 25  1  0
 24 26  1  0
 19 27  1  0
 27 28  1  1
 27 29  1  0
 29 30  1  0
 30 31  1  0
 31 32  1  1
  7  5  1  0
 31 10  1  0
 31 13  1  0
 27 15  1  0
 24 18  1  0
  1 33  1  0
  1 34  1  0
  1 35  1  0
  2 36  1  6
  3 37  1  0
  3 38  1  0
  4 39  1  0
  4 40  1  0
  5 41  1  6
  8 42  1  0
  8 43  1  0
  8 44  1  0
  9 45  1  0
  9 46  1  0
  9 47  1  0
 10 48  1  6
 11 49  1  0
 11 50  1  0
 12 51  1  0
 12 52  1  0
 14 53  1  0
 14 54  1  0
 14 55  1  0
 15 56  1  1
 16 57  1  0
 16 58  1  0
 17 59  1  0
 19 60  1  6
 20 61  1  0
 20 62  1  0
 21 63  1  0
 21 64  1  0
 22 65  1  6
 23 66  1  0
 25 67  1  0
 25 68  1  0
 25 69  1  0
 26 70  1  0
 26 71  1  0
 26 72  1  0
 28 73  1  0
 28 74  1  0
 28 75  1  0
 29 76  1  0
 29 77  1  0
 30 78  1  0
 30 79  1  0
 32 80  1  0
 32 81  1  0
 32 82  1  0
M  END
>  <meeko>  (10) 
{"is_sidechain": [false], "intermolecular_energy": 2.731, "internal_energy": -0.839}

$$$$
EPH_relaxed_0001_pdb2pqr_Repair_284_r2_0001_out
     RDKit          3D

 82 86  0  0  0  0  0  0  0  0999 V2000
   -3.7790    7.2220   -3.3550 C   0  0  0  0  0  0  0  0  0  0  0  0
   -3.7500    7.2990   -1.8260 C   0  0  2  0  0  0  0  0  0  0  0  0
   -5.1440    7.0770   -1.2060 C   0  0  0  0  0  0  0  0  0  0  0  0
   -6.2660    6.9600   -2.2420 C   0  0  0  0  0  0  0  0  0  0  0  0
   -7.6070    7.2590   -1.6430 C   0  0  2  0  0  0  0  0  0  0  0  0
   -8.3330    6.1070   -1.1950 O   0  0  0  0  0  0  0  0  0  0  0  0
   -8.9200    6.8430   -2.2800 C   0  0  0  0  0  0  0  0  0  0  0  0
   -8.9560    6.0940   -3.5750 C   0  0  0  0  0  0  0  0  0  0  0  0
  -10.1640    7.5840   -1.9030 C   0  0  0  0  0  0  0  0  0  0  0  0
   -3.1930    8.6470   -1.3840 C   0  0  1  0  0  0  0  0  0  0  0  0
   -3.8030    9.1350   -0.0430 C   0  0  0  0  0  0  0  0  0  0  0  0
   -2.6780    9.8910    0.7110 C   0  0  0  0  0  0  0  0  0  0  0  0
   -1.5710   10.1010   -0.3480 C   0  0  1  0  0  0  0  0  0  0  0  0
   -2.0310   11.3470   -1.1670 C   0  0  0  0  0  0  0  0  0  0  0  0
   -0.1170   10.2740    0.1980 C   0  0  2  0  0  0  0  0  0  0  0  0
    0.1020   11.5070    1.0920 C   0  0  0  0  0  0  0  0  0  0  0  0
    0.5240   12.7470    0.3750 C   0  0  0  0  0  0  0  0  0  0  0  0
    0.9940   12.8010   -0.8850 C   0  0  0  0  0  0  0  0  0  0  0  0
    1.2330   11.5180   -1.6920 C   0  0  1  0  0  0  0  0  0  0  0  0
    2.6220   11.5900   -2.3780 C   0  0  0  0  0  0  0  0  0  0  0  0
    2.7940   12.8500   -3.2210 C   0  0  0  0  0  0  0  0  0  0  0  0
    2.6060   14.1040   -2.3720 C   0  0  2  0  0  0  0  0  0  0  0  0
    3.6770   14.1850   -1.4260 O   0  0  0  0  0  0  0  0  0  0  0  0
    1.2440   14.1390   -1.6230 C   0  0  0  0  0  0  0  0  0  0  0  0
    0.0970   14.3560   -2.6400 C   0  0  0  0  0  0  0  0  0  0  0  0
    1.2420   15.3840   -0.6940 C   0  0  0  0  0  0  0  0  0  0  0  0
    1.0090   10.1540   -0.9070 C   0  0  1  0  0  0  0  0  0  0  0  0
    2.3190    9.7460   -0.1660 C   0  0  0  0  0  0  0  0  0  0  0  0
    0.7100    9.0080   -1.9440 C   0  0  0  0  0  0  0  0  0  0  0  0
   -0.7620    8.8090   -2.3540 C   0  0  0  0  0  0  0  0  0  0  0  0
   -1.6690    8.7360   -1.1210 C   0  0  2  0  0  0  0  0  0  0  0  0
   -1.2440    7.4780   -0.2890 C   0  0  0  0  0  0  0  0  0  0  0  0
   -4.1509    6.2344   -3.6654 H   0  0  0  0  0  0  0  0  0  0  0  0
   -4.4440    8.0047   -3.7490 H   0  0  0  0  0  0  0  0  0  0  0  0
   -2.7629    7.3716   -3.7490 H   0  0  0  0  0  0  0  0  0  0  0  0
   -3.0966    6.4902   -1.4670 H   0  0  0  0  0  0  0  0  0  0  0  0
   -5.1180    6.1492   -0.6157 H   0  0  0  0  0  0  0  0  0  0  0  0
   -5.3663    7.9602   -0.5891 H   0  0  0  0  0  0  0  0  0  0  0  0
   -6.0733    7.6720   -3.0581 H   0  0  0  0  0  0  0  0  0  0  0  0
   -6.2806    5.9258   -2.6164 H   0  0  0  0  0  0  0  0  0  0  0  0
   -7.2463    8.2249   -1.2597 H   0  0  0  0  0  0  0  0  0  0  0  0
   -9.0079    5.0140   -3.3726 H   0  0  0  0  0  0  0  0  0  0  0  0
   -9.8404    6.4018   -4.1522 H   0  0  0  0  0  0  0  0  0  0  0  0
   -8.0462    6.3156   -4.1522 H   0  0  0  0  0  0  0  0  0  0  0  0
  -10.2443    7.6319   -0.8070 H   0  0  0  0  0  0  0  0  0  0  0  0
  -10.1215    8.6041   -2.3124 H   0  0  0  0  0  0  0  0  0  0  0  0
  -11.0407    7.0608   -2.3124 H   0  0  0  0  0  0  0  0  0  0  0  0
   -3.4592    9.2526   -2.2628 H   0  0  0  0  0  0  0  0  0  0  0  0
   -4.6500    9.8100   -0.2354 H   0  0  0  0  0  0  0  0  0  0  0  0
   -4.1778    8.2889    0.5517 H   0  0  0  0  0  0  0  0  0  0  0  0
   -3.0442   10.8578    1.0868 H   0  0  0  0  0  0  0  0  0  0  0  0
   -2.3161    9.3337    1.5876 H   0  0  0  0  0  0  0  0  0  0  0  0
   -2.3276   12.1504   -0.4767 H   0  0  0  0  0  0  0  0  0  0  0  0
   -1.2023   11.6955   -1.8008 H   0  0  0  0  0  0  0  0  0  0  0  0
   -2.8874   11.0734   -1.8008 H   0  0  0  0  0  0  0  0  0  0  0  0
   -0.0086    9.4022    0.8599 H   0  0  0  0  0  0  0  0  0  0  0  0
   -0.8425   11.7207    1.6139 H   0  0  0  0  0  0  0  0  0  0  0  0
    0.9302   11.2495    1.7686 H   0  0  0  0  0  0  0  0  0  0  0  0
    0.4439   13.6972    0.9233 H   0  0  0  0  0  0  0  0  0  0  0  0
    0.4414   11.4856   -2.4551 H   0  0  0  0  0  0  0  0  0  0  0  0
    3.4002   11.5769   -1.6007 H   0  0  0  0  0  0  0  0  0  0  0  0
    2.7071   10.7240   -3.0510 H   0  0  0  0  0  0  0  0  0  0  0  0
    3.8046   12.8574   -3.6553 H   0  0  0  0  0  0  0  0  0  0  0  0
    2.0338   12.8470   -4.0160 H   0  0  0  0  0  0  0  0  0  0  0  0
    2.6113   14.9673   -3.0536 H   0  0  0  0  0  0  0  0  0  0  0  0
    4.4430   14.5750   -1.8810 H   0  0  0  0  0  0  0  0  0  0  0  0
   -0.8440   14.5340   -2.0989 H   0  0  0  0  0  0  0  0  0  0  0  0
    0.3270   15.2266   -3.2718 H   0  0  0  0  0  0  0  0  0  0  0  0
   -0.0069   13.4616   -3.2718 H   0  0  0  0  0  0  0  0  0  0  0  0
    1.2425   15.0576    0.3565 H   0  0  0  0  0  0  0  0  0  0  0  0
    2.1392   15.9894   -0.8903 H   0  0  0  0  0  0  0  0  0  0  0  0
    0.3429   15.9865   -0.8903 H   0  0  0  0  0  0  0  0  0  0  0  0
    2.1565    9.7966    0.9208 H   0  0  0  0  0  0  0  0  0  0  0  0
    2.5952    8.7193   -0.4480 H   0  0  0  0  0  0  0  0  0  0  0  0
    3.1294   10.4343   -0.4480 H   0  0  0  0  0  0  0  0  0  0  0  0
    1.2830    9.2274   -2.8570 H   0  0  0  0  0  0  0  0  0  0  0  0
    0.9952    8.0762   -1.4336 H   0  0  0  0  0  0  0  0  0  0  0  0
   -1.0777    9.6540   -2.9836 H   0  0  0  0  0  0  0  0  0  0  0  0
   -0.8470    7.8630   -2.9088 H   0  0  0  0  0  0  0  0  0  0  0  0
   -1.3208    7.7053    0.7845 H   0  0  0  0  0  0  0  0  0  0  0  0
   -1.9073    6.6353   -0.5337 H   0  0  0  0  0  0  0  0  0  0  0  0
   -0.2055    7.2103   -0.5337 H   0  0  0  0  0  0  0  0  0  0  0  0
  1  2  1  0
  2  3  1  0
  3  4  1  0
  4  5  1  0
  5  6  1  0
  6  7  1  0
  7  8  1  0
  7  9  1  0
  2 10  1  0
 10 11  1  0
 11 12  1  0
 12 13  1  0
 13 14  1  6
 13 15  1  0
 15 16  1  0
 16 17  1  0
 17 18  2  0
 18 19  1  0
 19 20  1  0
 20 21  1  0
 21 22  1  0
 22 23  1  0
 22 24  1  0
 24 25  1  0
 24 26  1  0
 19 27  1  0
 27 28  1  1
 27 29  1  0
 29 30  1  0
 30 31  1  0
 31 32  1  1
  7  5  1  0
 31 10  1  0
 31 13  1  0
 27 15  1  0
 24 18  1  0
  1 33  1  0
  1 34  1  0
  1 35  1  0
  2 36  1  1
  3 37  1  0
  3 38  1  0
  4 39  1  0
  4 40  1  0
  5 41  1  1
  8 42  1  0
  8 43  1  0
  8 44  1  0
  9 45  1  0
  9 46  1  0
  9 47  1  0
 10 48  1  6
 11 49  1  0
 11 50  1  0
 12 51  1  0
 12 52  1  0
 14 53  1  0
 14 54  1  0
 14 55  1  0
 15 56  1  1
 16 57  1  0
 16 58  1  0
 17 59  1  0
 19 60  1  6
 20 61  1  0
 20 62  1  0
 21 63  1  0
 21 64  1  0
 22 65  1  6
 23 66  1  0
 25 67  1  0
 25 68  1  0
 25 69  1  0
 26 70  1  0
 26 71  1  0
 26 72  1  0
 28 73  1  0
 28 74  1  0
 28 75  1  0
 29 76  1  0
 29 77  1  0
 30 78  1  0
 30 79  1  0
 32 80  1  0
 32 81  1  0
 32 82  1  0
M  END
>  <meeko>  (11) 
{"is_sidechain": [false], "intermolecular_energy": 2.731, "internal_energy": -0.839}

$$$$
EPH_relaxed_0001_pdb2pqr_Repair_284_r2_0001_out
     RDKit          3D

 82 86  0  0  0  0  0  0  0  0999 V2000
   -0.8630   16.3360   -5.8310 C   0  0  0  0  0  0  0  0  0  0  0  0
    0.2290   15.6370   -6.6440 C   0  0  2  0  0  0  0  0  0  0  0  0
   -0.1710   15.4600   -8.1230 C   0  0  0  0  0  0  0  0  0  0  0  0
    0.4630   16.4920   -9.0600 C   0  0  0  0  0  0  0  0  0  0  0  0
    1.8620   16.1110   -9.4390 C   0  0  2  0  0  0  0  0  0  0  0  0
    2.3250   16.6800  -10.6700 O   0  0  0  0  0  0  0  0  0  0  0  0
    2.1980   15.2490  -10.6420 C   0  0  0  0  0  0  0  0  0  0  0  0
    1.1280   14.7160  -11.5420 C   0  0  0  0  0  0  0  0  0  0  0  0
    3.5090   14.5270  -10.6610 C   0  0  0  0  0  0  0  0  0  0  0  0
    0.5510   14.2810   -6.0260 C   0  0  1  0  0  0  0  0  0  0  0  0
    1.8140   13.6260   -6.6460 C   0  0  0  0  0  0  0  0  0  0  0  0
    2.5250   12.8570   -5.5030 C   0  0  0  0  0  0  0  0  0  0  0  0
    1.4880   12.8150   -4.3560 C   0  0  1  0  0  0  0  0  0  0  0  0
    0.5310   11.6380   -4.7240 C   0  0  0  0  0  0  0  0  0  0  0  0
    2.0620   12.6630   -2.9100 C   0  0  2  0  0  0  0  0  0  0  0  0
    2.8330   11.3570   -2.6490 C   0  0  0  0  0  0  0  0  0  0  0  0
    2.0090   10.2210   -2.1390 C   0  0  0  0  0  0  0  0  0  0  0  0
    0.7670   10.3220   -1.6320 C   0  0  0  0  0  0  0  0  0  0  0  0
    0.1030   11.6920   -1.4410 C   0  0  1  0  0  0  0  0  0  0  0  0
   -0.5410   11.7640   -0.0310 C   0  0  0  0  0  0  0  0  0  0  0  0
   -1.5010   10.6090    0.2330 C   0  0  0  0  0  0  0  0  0  0  0  0
   -0.7900    9.2650    0.0920 C   0  0  2  0  0  0  0  0  0  0  0  0
    0.1780    9.1440    1.1390 O   0  0  0  0  0  0  0  0  0  0  0  0
   -0.0950    9.0820   -1.2870 C   0  0  0  0  0  0  0  0  0  0  0  0
   -1.1670    8.9130   -2.3910 C   0  0  0  0  0  0  0  0  0  0  0  0
    0.7020    7.7510   -1.2460 C   0  0  0  0  0  0  0  0  0  0  0  0
    1.0130   12.9550   -1.7620 C   0  0  1  0  0  0  0  0  0  0  0  0
    1.8350   13.3520   -0.4980 C   0  0  0  0  0  0  0  0  0  0  0  0
    0.0880   14.1840   -2.0950 C   0  0  0  0  0  0  0  0  0  0  0  0
   -0.3480   14.3480   -3.5640 C   0  0  0  0  0  0  0  0  0  0  0  0
    0.8540   14.2460   -4.5070 C   0  0  2  0  0  0  0  0  0  0  0  0
    1.8240   15.4310   -4.1760 C   0  0  0  0  0  0  0  0  0  0  0  0
   -0.6606   16.2064   -4.7576 H   0  0  0  0  0  0  0  0  0  0  0  0
   -0.8724   17.4084   -6.0755 H   0  0  0  0  0  0  0  0  0  0  0  0
   -1.8409   15.8955   -6.0755 H   0  0  0  0  0  0  0  0  0  0  0  0
    1.1220   16.2788   -6.6178 H   0  0  0  0  0  0  0  0  0  0  0  0
    0.1407   14.4569   -8.4494 H   0  0  0  0  0  0  0  0  0  0  0  0
   -1.2605   15.6004   -8.1803 H   0  0  0  0  0  0  0  0  0  0  0  0
   -0.1460   16.5661   -9.9730 H   0  0  0  0  0  0  0  0  0  0  0  0
    0.5013   17.4564   -8.5323 H   0  0  0  0  0  0  0  0  0  0  0  0
    2.1562   16.0480   -8.3810 H   0  0  0  0  0  0  0  0  0  0  0  0
    0.3075   14.3073  -10.9340 H   0  0  0  0  0  0  0  0  0  0  0  0
    0.7445   15.5284  -12.1768 H   0  0  0  0  0  0  0  0  0  0  0  0
    1.5454   13.9205  -12.1768 H   0  0  0  0  0  0  0  0  0  0  0  0
    3.8417   14.3438   -9.6286 H   0  0  0  0  0  0  0  0  0  0  0  0
    3.3911   13.5666  -11.1842 H   0  0  0  0  0  0  0  0  0  0  0  0
    4.2577   15.1400  -11.1842 H   0  0  0  0  0  0  0  0  0  0  0  0
   -0.3926   13.7552   -6.2336 H   0  0  0  0  0  0  0  0  0  0  0  0
    1.5253   12.9308   -7.4481 H   0  0  0  0  0  0  0  0  0  0  0  0
    2.4783   14.3853   -7.0844 H   0  0  0  0  0  0  0  0  0  0  0  0
    2.7887   11.8389   -5.8254 H   0  0  0  0  0  0  0  0  0  0  0  0
    3.4651   13.3397   -5.1976 H   0  0  0  0  0  0  0  0  0  0  0  0
    0.1520   11.1718   -3.8026 H   0  0  0  0  0  0  0  0  0  0  0  0
   -0.3135   12.0230   -5.3144 H   0  0  0  0  0  0  0  0  0  0  0  0
    1.0802   10.8898   -5.3144 H   0  0  0  0  0  0  0  0  0  0  0  0
    2.8121   13.4665   -2.8676 H   0  0  0  0  0  0  0  0  0  0  0  0
    3.2979   11.0419   -3.5948 H   0  0  0  0  0  0  0  0  0  0  0  0
    3.5598   11.5860   -1.8557 H   0  0  0  0  0  0  0  0  0  0  0  0
    2.4553    9.2165   -2.1814 H   0  0  0  0  0  0  0  0  0  0  0  0
   -0.6786   11.7607   -2.2119 H   0  0  0  0  0  0  0  0  0  0  0  0
    0.2588   11.7373    0.7237 H   0  0  0  0  0  0  0  0  0  0  0  0
   -1.1192   12.6981    0.0247 H   0  0  0  0  0  0  0  0  0  0  0  0
   -1.9008   10.6994    1.2538 H   0  0  0  0  0  0  0  0  0  0  0  0
   -2.3157   10.6542   -0.5047 H   0  0  0  0  0  0  0  0  0  0  0  0
   -1.5543    8.4773    0.1650 H   0  0  0  0  0  0  0  0  0  0  0  0
    0.8840    8.5560    0.8200 H   0  0  0  0  0  0  0  0  0  0  0  0
   -2.1515    8.7578   -1.9255 H   0  0  0  0  0  0  0  0  0  0  0  0
   -1.1955    9.8177   -3.0160 H   0  0  0  0  0  0  0  0  0  0  0  0
   -0.9158    8.0434   -3.0160 H   0  0  0  0  0  0  0  0  0  0  0  0
    0.8762    7.4600   -0.1996 H   0  0  0  0  0  0  0  0  0  0  0  0
    0.1268    6.9634   -1.7547 H   0  0  0  0  0  0  0  0  0  0  0  0
    1.6679    7.8862   -1.7547 H   0  0  0  0  0  0  0  0  0  0  0  0
    1.2712   13.0797    0.4064 H   0  0  0  0  0  0  0  0  0  0  0  0
    2.7975   12.8194   -0.5043 H   0  0  0  0  0  0  0  0  0  0  0  0
    2.0162   14.4369   -0.5043 H   0  0  0  0  0  0  0  0  0  0  0  0
   -0.8232   14.0893   -1.4861 H   0  0  0  0  0  0  0  0  0  0  0  0
    0.6991   15.0719   -1.8754 H   0  0  0  0  0  0  0  0  0  0  0  0
   -1.0706   13.5576   -3.8153 H   0  0  0  0  0  0  0  0  0  0  0  0
   -0.8057   15.3409   -3.6853 H   0  0  0  0  0  0  0  0  0  0  0  0
    1.9122   15.5388   -3.0849 H   0  0  0  0  0  0  0  0  0  0  0  0
    2.8154   15.2242   -4.6054 H   0  0  0  0  0  0  0  0  0  0  0  0
    1.4254   16.3620   -4.6054 H   0  0  0  0  0  0  0  0  0  0  0  0
  1  2  1  0
  2  3  1  0
  3  4  1  0
  4  5  1  0
  5  6  1  0
  6  7  1  0
  7  8  1  0
  7  9  1  0
  2 10  1  0
 10 11  1  0
 11 12  1  0
 12 13  1  0
 13 14  1  6
 13 15  1  0
 15 16  1  0
 16 17  1  0
 17 18  2  0
 18 19  1  0
 19 20  1  0
 20 21  1  0
 21 22  1  0
 22 23  1  0
 22 24  1  0
 24 25  1  0
 24 26  1  0
 19 27  1  0
 27 28  1  1
 27 29  1  0
 29 30  1  0
 30 31  1  0
 31 32  1  1
  7  5  1  0
 31 10  1  0
 31 13  1  0
 27 15  1  0
 24 18  1  0
  1 33  1  0
  1 34  1  0
  1 35  1  0
  2 36  1  6
  3 37  1  0
  3 38  1  0
  4 39  1  0
  4 40  1  0
  5 41  1  1
  8 42  1  0
  8 43  1  0
  8 44  1  0
  9 45  1  0
  9 46  1  0
  9 47  1  0
 10 48  1  1
 11 49  1  0
 11 50  1  0
 12 51  1  0
 12 52  1  0
 14 53  1  0
 14 54  1  0
 14 55  1  0
 15 56  1  6
 16 57  1  0
 16 58  1  0
 17 59  1  0
 19 60  1  6
 20 61  1  0
 20 62  1  0
 21 63  1  0
 21 64  1  0
 22 65  1  1
 23 66  1  0
 25 67  1  0
 25 68  1  0
 25 69  1  0
 26 70  1  0
 26 71  1  0
 26 72  1  0
 28 73  1  0
 28 74  1  0
 28 75  1  0
 29 76  1  0
 29 77  1  0
 30 78  1  0
 30 79  1  0
 32 80  1  0
 32 81  1  0
 32 82  1  0
M  END
>  <meeko>  (12) 
{"is_sidechain": [false], "intermolecular_energy": 2.731, "internal_energy": -0.839}

$$$$
EPH_relaxed_0001_pdb2pqr_Repair_284_r2_0001_out
     RDKit          3D

 82 86  0  0  0  0  0  0  0  0999 V2000
    2.5110    9.6430   -2.0070 C   0  0  0  0  0  0  0  0  0  0  0  0
    1.0960   10.1080   -1.6520 C   0  0  2  0  0  0  0  0  0  0  0  0
    0.1940   10.2260   -2.8970 C   0  0  0  0  0  0  0  0  0  0  0  0
   -1.0730    9.3710   -2.8230 C   0  0  0  0  0  0  0  0  0  0  0  0
   -1.4830    9.1090   -1.4060 C   0  0  2  0  0  0  0  0  0  0  0  0
   -2.8990    9.1050   -1.1830 O   0  0  0  0  0  0  0  0  0  0  0  0
   -2.1570   10.1440   -0.5250 C   0  0  0  0  0  0  0  0  0  0  0  0
   -2.4580   11.5210   -1.0290 C   0  0  0  0  0  0  0  0  0  0  0  0
   -2.0780    9.9800    0.9610 C   0  0  0  0  0  0  0  0  0  0  0  0
    1.1560   11.4450   -0.9230 C   0  0  1  0  0  0  0  0  0  0  0  0
    2.2140   11.4590    0.2130 C   0  0  0  0  0  0  0  0  0  0  0  0
    2.8090   12.8900    0.2520 C   0  0  0  0  0  0  0  0  0  0  0  0
    1.8530   13.7340   -0.6240 C   0  0  1  0  0  0  0  0  0  0  0  0
    0.6490   14.0730    0.3090 C   0  0  0  0  0  0  0  0  0  0  0  0
    2.4630   15.0200   -1.2700 C   0  0  2  0  0  0  0  0  0  0  0  0
    2.9520   16.0830   -0.2700 C   0  0  0  0  0  0  0  0  0  0  0  0
    1.9360   17.1030    0.1240 C   0  0  0  0  0  0  0  0  0  0  0  0
    0.7740   17.3370   -0.5140 C   0  0  0  0  0  0  0  0  0  0  0  0
    0.4290   16.6020   -1.8160 C   0  0  1  0  0  0  0  0  0  0  0  0
   -0.1030   17.6190   -2.8590 C   0  0  0  0  0  0  0  0  0  0  0  0
   -1.2710   18.4450   -2.3280 C   0  0  0  0  0  0  0  0  0  0  0  0
   -0.8710   19.2070   -1.0670 C   0  0  2  0  0  0  0  0  0  0  0  0
    0.1060   20.1920   -1.4140 O   0  0  0  0  0  0  0  0  0  0  0  0
   -0.3110   18.2860    0.0530 C   0  0  0  0  0  0  0  0  0  0  0  0
   -1.4550   17.4220    0.6380 C   0  0  0  0  0  0  0  0  0  0  0  0
    0.1850   19.1920    1.2120 C   0  0  0  0  0  0  0  0  0  0  0  0
    1.5670   15.6630   -2.4050 C   0  0  1  0  0  0  0  0  0  0  0  0
    2.5260   16.4930   -3.3120 C   0  0  0  0  0  0  0  0  0  0  0  0
    0.9080   14.5760   -3.3340 C   0  0  0  0  0  0  0  0  0  0  0  0
    0.4340   13.2770   -2.6540 C   0  0  0  0  0  0  0  0  0  0  0  0
    1.5310   12.6940   -1.7580 C   0  0  2  0  0  0  0  0  0  0  0  0
    2.7480   12.3230   -2.6720 C   0  0  0  0  0  0  0  0  0  0  0  0
    3.0783    9.4566   -1.0832 H   0  0  0  0  0  0  0  0  0  0  0  0
    2.4552    8.7159   -2.5964 H   0  0  0  0  0  0  0  0  0  0  0  0
    3.0160   10.4224   -2.5964 H   0  0  0  0  0  0  0  0  0  0  0  0
    0.6523    9.3459   -0.9945 H   0  0  0  0  0  0  0  0  0  0  0  0
   -0.1038   11.2787   -3.0114 H   0  0  0  0  0  0  0  0  0  0  0  0
    0.7791    9.8595   -3.7533 H   0  0  0  0  0  0  0  0  0  0  0  0
   -1.8893    9.8981   -3.3386 H   0  0  0  0  0  0  0  0  0  0  0  0
   -0.8626    8.4041   -3.3033 H   0  0  0  0  0  0  0  0  0  0  0  0
   -0.6069    8.4629   -1.2475 H   0  0  0  0  0  0  0  0  0  0  0  0
   -2.6063   12.1994   -0.1759 H   0  0  0  0  0  0  0  0  0  0  0  0
   -1.6170   11.8795   -1.6407 H   0  0  0  0  0  0  0  0  0  0  0  0
   -3.3719   11.4959   -1.6407 H   0  0  0  0  0  0  0  0  0  0  0  0
   -2.5054   10.8672    1.4510 H   0  0  0  0  0  0  0  0  0  0  0  0
   -2.6444    9.0864    1.2619 H   0  0  0  0  0  0  0  0  0  0  0  0
   -1.0261    9.8659    1.2619 H   0  0  0  0  0  0  0  0  0  0  0  0
    0.1116   11.5179   -0.5854 H   0  0  0  0  0  0  0  0  0  0  0  0
    1.7391   11.2198    1.1759 H   0  0  0  0  0  0  0  0  0  0  0  0
    2.9986   10.7097    0.0314 H   0  0  0  0  0  0  0  0  0  0  0  0
    2.8314   13.2733    1.2828 H   0  0  0  0  0  0  0  0  0  0  0  0
    3.8461   12.9207   -0.1134 H   0  0  0  0  0  0  0  0  0  0  0  0
    0.9630   13.9846    1.3595 H   0  0  0  0  0  0  0  0  0  0  0  0
    0.3111   15.1012    0.1126 H   0  0  0  0  0  0  0  0  0  0  0  0
   -0.1758   13.3722    0.1126 H   0  0  0  0  0  0  0  0  0  0  0  0
    3.3680   14.6315   -1.7599 H   0  0  0  0  0  0  0  0  0  0  0  0
    3.2845   15.5647    0.6415 H   0  0  0  0  0  0  0  0  0  0  0  0
    3.7549   16.6348   -0.7808 H   0  0  0  0  0  0  0  0  0  0  0  0
    2.1554   17.7155    1.0110 H   0  0  0  0  0  0  0  0  0  0  0  0
   -0.3623   15.8827   -1.5583 H   0  0  0  0  0  0  0  0  0  0  0  0
    0.7146   18.3012   -3.1351 H   0  0  0  0  0  0  0  0  0  0  0  0
   -0.4649   17.0485   -3.7271 H   0  0  0  0  0  0  0  0  0  0  0  0
   -1.5835   19.1642   -3.0994 H   0  0  0  0  0  0  0  0  0  0  0  0
   -2.0984   17.7642   -2.0794 H   0  0  0  0  0  0  0  0  0  0  0  0
   -1.7801   19.6757   -0.6621 H   0  0  0  0  0  0  0  0  0  0  0  0
    0.7250   20.2680   -0.6680 H   0  0  0  0  0  0  0  0  0  0  0  0
   -1.4132   17.4535    1.7368 H   0  0  0  0  0  0  0  0  0  0  0  0
   -2.4235   17.8160    0.2964 H   0  0  0  0  0  0  0  0  0  0  0  0
   -1.3410   16.3826    0.2964 H   0  0  0  0  0  0  0  0  0  0  0  0
   -0.0697   18.7268    2.1757 H   0  0  0  0  0  0  0  0  0  0  0  0
    1.2759   19.3143    1.1407 H   0  0  0  0  0  0  0  0  0  0  0  0
   -0.2998   20.1768    1.1407 H   0  0  0  0  0  0  0  0  0  0  0  0
    3.2077   17.0830   -2.6817 H   0  0  0  0  0  0  0  0  0  0  0  0
    3.1112   15.8117   -3.9471 H   0  0  0  0  0  0  0  0  0  0  0  0
    1.9357   17.1699   -3.9471 H   0  0  0  0  0  0  0  0  0  0  0  0
    0.0340   15.0368   -3.8174 H   0  0  0  0  0  0  0  0  0  0  0  0
    1.7057   14.2652   -4.0247 H   0  0  0  0  0  0  0  0  0  0  0  0
   -0.4530   13.4949   -2.0410 H   0  0  0  0  0  0  0  0  0  0  0  0
    0.1917   12.5411   -3.4349 H   0  0  0  0  0  0  0  0  0  0  0  0
    3.6116   12.0597   -2.0436 H   0  0  0  0  0  0  0  0  0  0  0  0
    2.4816   11.4653   -3.3071 H   0  0  0  0  0  0  0  0  0  0  0  0
    3.0054   13.1835   -3.3071 H   0  0  0  0  0  0  0  0  0  0  0  0
  1  2  1  0
  2  3  1  0
  3  4  1  0
  4  5  1  0
  5  6  1  0
  6  7  1  0
  7  8  1  0
  7  9  1  0
  2 10  1  0
 10 11  1  0
 11 12  1  0
 12 13  1  0
 13 14  1  1
 13 15  1  0
 15 16  1  0
 16 17  1  0
 17 18  2  0
 18 19  1  0
 19 20  1  0
 20 21  1  0
 21 22  1  0
 22 23  1  0
 22 24  1  0
 24 25  1  0
 24 26  1  0
 19 27  1  0
 27 28  1  6
 27 29  1  0
 29 30  1  0
 30 31  1  0
 31 32  1  6
  7  5  1  0
 31 10  1  0
 31 13  1  0
 27 15  1  0
 24 18  1  0
  1 33  1  0
  1 34  1  0
  1 35  1  0
  2 36  1  1
  3 37  1  0
  3 38  1  0
  4 39  1  0
  4 40  1  0
  5 41  1  1
  8 42  1  0
  8 43  1  0
  8 44  1  0
  9 45  1  0
  9 46  1  0
  9 47  1  0
 10 48  1  1
 11 49  1  0
 11 50  1  0
 12 51  1  0
 12 52  1  0
 14 53  1  0
 14 54  1  0
 14 55  1  0
 15 56  1  6
 16 57  1  0
 16 58  1  0
 17 59  1  0
 19 60  1  1
 20 61  1  0
 20 62  1  0
 21 63  1  0
 21 64  1  0
 22 65  1  1
 23 66  1  0
 25 67  1  0
 25 68  1  0
 25 69  1  0
 26 70  1  0
 26 71  1  0
 26 72  1  0
 28 73  1  0
 28 74  1  0
 28 75  1  0
 29 76  1  0
 29 77  1  0
 30 78  1  0
 30 79  1  0
 32 80  1  0
 32 81  1  0
 32 82  1  0
M  END
>  <meeko>  (13) 
{"is_sidechain": [false], "intermolecular_energy": 2.731, "internal_energy": -0.839}

$$$$
EPH_relaxed_0001_pdb2pqr_Repair_284_r2_0001_out
     RDKit          3D

 82 86  0  0  0  0  0  0  0  0999 V2000
   -2.1930    7.7720   -2.3210 C   0  0  0  0  0  0  0  0  0  0  0  0
   -2.2070    8.3730   -0.9130 C   0  0  2  0  0  0  0  0  0  0  0  0
   -3.6140    8.3420   -0.2820 C   0  0  0  0  0  0  0  0  0  0  0  0
   -4.7450    8.2120   -1.3060 C   0  0  0  0  0  0  0  0  0  0  0  0
   -5.9100    7.4510   -0.7510 C   0  0  2  0  0  0  0  0  0  0  0  0
   -5.8040    6.0260   -0.8660 O   0  0  0  0  0  0  0  0  0  0  0  0
   -6.8680    6.6440   -1.6090 C   0  0  0  0  0  0  0  0  0  0  0  0
   -6.7020    6.5580   -3.0940 C   0  0  0  0  0  0  0  0  0  0  0  0
   -8.2320    6.3450   -1.0710 C   0  0  0  0  0  0  0  0  0  0  0  0
   -1.6870    9.8050   -0.9540 C   0  0  1  0  0  0  0  0  0  0  0  0
   -1.2590   10.3260    0.4440 C   0  0  0  0  0  0  0  0  0  0  0  0
   -0.0400   11.2580    0.2210 C   0  0  0  0  0  0  0  0  0  0  0  0
   -0.0140   11.5060   -1.3060 C   0  0  1  0  0  0  0  0  0  0  0  0
   -1.0740   12.6260   -1.5480 C   0  0  0  0  0  0  0  0  0  0  0  0
    1.3730   11.8820   -1.9210 C   0  0  2  0  0  0  0  0  0  0  0  0
    1.9810   13.1980   -1.4050 C   0  0  0  0  0  0  0  0  0  0  0  0
    1.6190   14.4170   -2.1860 C   0  0  0  0  0  0  0  0  0  0  0  0
    1.0750   14.4240   -3.4170 C   0  0  0  0  0  0  0  0  0  0  0  0
    0.8590   13.1170   -4.1900 C   0  0  1  0  0  0  0  0  0  0  0  0
    1.3620   13.2890   -5.6480 C   0  0  0  0  0  0  0  0  0  0  0  0
    0.7320   14.4900   -6.3460 C   0  0  0  0  0  0  0  0  0  0  0  0
    1.0180   15.7780   -5.5780 C   0  0  2  0  0  0  0  0  0  0  0  0
    2.4210   16.0510   -5.6420 O   0  0  0  0  0  0  0  0  0  0  0  0
    0.5640   15.7200   -4.0930 C   0  0  0  0  0  0  0  0  0  0  0  0
   -0.9830   15.7280   -4.0220 C   0  0  0  0  0  0  0  0  0  0  0  0
    1.0370   17.0250   -3.3980 C   0  0  0  0  0  0  0  0  0  0  0  0
    1.4250   11.8020   -3.5000 C   0  0  1  0  0  0  0  0  0  0  0  0
    2.9220   11.6000   -3.8870 C   0  0  0  0  0  0  0  0  0  0  0  0
    0.6490   10.5520   -4.0620 C   0  0  0  0  0  0  0  0  0  0  0  0
   -0.6520   10.1590   -3.3370 C   0  0  0  0  0  0  0  0  0  0  0  0
   -0.4350   10.0820   -1.8230 C   0  0  2  0  0  0  0  0  0  0  0  0
    0.6110    8.9490   -1.5470 C   0  0  0  0  0  0  0  0  0  0  0  0
   -2.1674    6.6745   -2.2510 H   0  0  0  0  0  0  0  0  0  0  0  0
   -3.0987    8.0839   -2.8618 H   0  0  0  0  0  0  0  0  0  0  0  0
   -1.3029    8.1257   -2.8618 H   0  0  0  0  0  0  0  0  0  0  0  0
   -1.5489    7.7559   -0.2836 H   0  0  0  0  0  0  0  0  0  0  0  0
   -3.6676    7.4848    0.4053 H   0  0  0  0  0  0  0  0  0  0  0  0
   -3.7563    9.3031    0.2339 H   0  0  0  0  0  0  0  0  0  0  0  0
   -5.0817    9.2185   -1.5950 H   0  0  0  0  0  0  0  0  0  0  0  0
   -4.3584    7.6609   -2.1759 H   0  0  0  0  0  0  0  0  0  0  0  0
   -6.0768    8.2205    0.0171 H   0  0  0  0  0  0  0  0  0  0  0  0
   -5.7477    6.0636   -3.3282 H   0  0  0  0  0  0  0  0  0  0  0  0
   -7.5313    5.9761   -3.5226 H   0  0  0  0  0  0  0  0  0  0  0  0
   -6.7050    7.5711   -3.5226 H   0  0  0  0  0  0  0  0  0  0  0  0
   -8.2020    6.3516    0.0286 H   0  0  0  0  0  0  0  0  0  0  0  0
   -8.9406    7.1091   -1.4231 H   0  0  0  0  0  0  0  0  0  0  0  0
   -8.5560    5.3545   -1.4231 H   0  0  0  0  0  0  0  0  0  0  0  0
   -2.5646   10.3072   -1.3871 H   0  0  0  0  0  0  0  0  0  0  0  0
   -2.0840   10.8862    0.9082 H   0  0  0  0  0  0  0  0  0  0  0  0
   -1.0011    9.4924    1.1138 H   0  0  0  0  0  0  0  0  0  0  0  0
   -0.1697   12.2045    0.7662 H   0  0  0  0  0  0  0  0  0  0  0  0
    0.8974   10.8146    0.5881 H   0  0  0  0  0  0  0  0  0  0  0  0
   -1.4335   13.0059   -0.5803 H   0  0  0  0  0  0  0  0  0  0  0  0
   -0.6154   13.4481   -2.1171 H   0  0  0  0  0  0  0  0  0  0  0  0
   -1.9201   12.2133   -2.1171 H   0  0  0  0  0  0  0  0  0  0  0  0
    2.0243   11.0821   -1.5390 H   0  0  0  0  0  0  0  0  0  0  0  0
    1.6427   13.3454   -0.3688 H   0  0  0  0  0  0  0  0  0  0  0  0
    3.0712   13.0877   -1.5011 H   0  0  0  0  0  0  0  0  0  0  0  0
    1.8132   15.3923   -1.7158 H   0  0  0  0  0  0  0  0  0  0  0  0
   -0.2263   12.9378   -4.1882 H   0  0  0  0  0  0  0  0  0  0  0  0
    2.4536   13.4237   -5.6309 H   0  0  0  0  0  0  0  0  0  0  0  0
    1.0741   12.3877   -6.2091 H   0  0  0  0  0  0  0  0  0  0  0  0
    1.1478   14.5758   -7.3607 H   0  0  0  0  0  0  0  0  0  0  0  0
   -0.3570   14.3405   -6.3885 H   0  0  0  0  0  0  0  0  0  0  0  0
    0.4350   16.5811   -6.0525 H   0  0  0  0  0  0  0  0  0  0  0  0
    2.7640   16.0450   -4.7320 H   0  0  0  0  0  0  0  0  0  0  0  0
   -1.3017   15.7296   -2.9692 H   0  0  0  0  0  0  0  0  0  0  0  0
   -1.3684   16.6281   -4.5232 H   0  0  0  0  0  0  0  0  0  0  0  0
   -1.3777   14.8319   -4.5232 H   0  0  0  0  0  0  0  0  0  0  0  0
    0.9905   16.8967   -2.3065 H   0  0  0  0  0  0  0  0  0  0  0  0
    2.0722   17.2455   -3.6975 H   0  0  0  0  0  0  0  0  0  0  0  0
    0.3834   17.8576   -3.6975 H   0  0  0  0  0  0  0  0  0  0  0  0
    3.5291   11.5181   -2.9734 H   0  0  0  0  0  0  0  0  0  0  0  0
    3.0264   10.6796   -4.4803 H   0  0  0  0  0  0  0  0  0  0  0  0
    3.2666   12.4598   -4.4803 H   0  0  0  0  0  0  0  0  0  0  0  0
    0.3948   10.7623   -5.1114 H   0  0  0  0  0  0  0  0  0  0  0  0
    1.3294    9.7004   -3.9144 H   0  0  0  0  0  0  0  0  0  0  0  0
   -1.4249   10.9117   -3.5518 H   0  0  0  0  0  0  0  0  0  0  0  0
   -0.9680    9.1686   -3.6965 H   0  0  0  0  0  0  0  0  0  0  0  0
    0.7319    8.8181   -0.4615 H   0  0  0  0  0  0  0  0  0  0  0  0
    0.2579    8.0074   -1.9928 H   0  0  0  0  0  0  0  0  0  0  0  0
    1.5777    9.2259   -1.9928 H   0  0  0  0  0  0  0  0  0  0  0  0
  1  2  1  0
  2  3  1  0
  3  4  1  0
  4  5  1  0
  5  6  1  0
  6  7  1  0
  7  8  1  0
  7  9  1  0
  2 10  1  0
 10 11  1  0
 11 12  1  0
 12 13  1  0
 13 14  1  1
 13 15  1  0
 15 16  1  0
 16 17  1  0
 17 18  2  0
 18 19  1  0
 19 20  1  0
 20 21  1  0
 21 22  1  0
 22 23  1  0
 22 24  1  0
 24 25  1  0
 24 26  1  0
 19 27  1  0
 27 28  1  1
 27 29  1  0
 29 30  1  0
 30 31  1  0
 31 32  1  6
  7  5  1  0
 31 10  1  0
 31 13  1  0
 27 15  1  0
 24 18  1  0
  1 33  1  0
  1 34  1  0
  1 35  1  0
  2 36  1  1
  3 37  1  0
  3 38  1  0
  4 39  1  0
  4 40  1  0
  5 41  1  1
  8 42  1  0
  8 43  1  0
  8 44  1  0
  9 45  1  0
  9 46  1  0
  9 47  1  0
 10 48  1  6
 11 49  1  0
 11 50  1  0
 12 51  1  0
 12 52  1  0
 14 53  1  0
 14 54  1  0
 14 55  1  0
 15 56  1  1
 16 57  1  0
 16 58  1  0
 17 59  1  0
 19 60  1  6
 20 61  1  0
 20 62  1  0
 21 63  1  0
 21 64  1  0
 22 65  1  6
 23 66  1  0
 25 67  1  0
 25 68  1  0
 25 69  1  0
 26 70  1  0
 26 71  1  0
 26 72  1  0
 28 73  1  0
 28 74  1  0
 28 75  1  0
 29 76  1  0
 29 77  1  0
 30 78  1  0
 30 79  1  0
 32 80  1  0
 32 81  1  0
 32 82  1  0
M  END
>  <meeko>  (14) 
{"is_sidechain": [false], "intermolecular_energy": 2.731, "internal_energy": -0.839}

$$$$
EPH_relaxed_0001_pdb2pqr_Repair_284_r2_0001_out
     RDKit          3D

 82 86  0  0  0  0  0  0  0  0999 V2000
   -0.2240    9.1840   -1.7740 C   0  0  0  0  0  0  0  0  0  0  0  0
    0.7180   10.1940   -2.4360 C   0  0  2  0  0  0  0  0  0  0  0  0
    2.1100    9.5930   -2.7170 C   0  0  0  0  0  0  0  0  0  0  0  0
    2.9020   10.3480   -3.7880 C   0  0  0  0  0  0  0  0  0  0  0  0
    4.2930   10.6630   -3.3290 C   0  0  2  0  0  0  0  0  0  0  0  0
    4.8600   11.8470   -3.9050 O   0  0  0  0  0  0  0  0  0  0  0  0
    5.5070   10.6080   -4.2380 C   0  0  0  0  0  0  0  0  0  0  0  0
    5.3840   10.2270   -5.6800 C   0  0  0  0  0  0  0  0  0  0  0  0
    6.8590   10.4480   -3.6180 C   0  0  0  0  0  0  0  0  0  0  0  0
    0.8520   11.4320   -1.5580 C   0  0  1  0  0  0  0  0  0  0  0  0
    1.9780   11.2940   -0.4990 C   0  0  0  0  0  0  0  0  0  0  0  0
    2.6060   12.7010   -0.3280 C   0  0  0  0  0  0  0  0  0  0  0  0
    1.6170   13.6580   -1.0340 C   0  0  1  0  0  0  0  0  0  0  0  0
    0.4800   13.9000    0.0080 C   0  0  0  0  0  0  0  0  0  0  0  0
    2.2140   15.0040   -1.5590 C   0  0  2  0  0  0  0  0  0  0  0  0
    2.7870   15.9320   -0.4740 C   0  0  0  0  0  0  0  0  0  0  0  0
    1.8200   16.9120    0.1040 C   0  0  0  0  0  0  0  0  0  0  0  0
    0.6260   17.2380   -0.4260 C   0  0  0  0  0  0  0  0  0  0  0  0
    0.1850   16.6700   -1.7820 C   0  0  1  0  0  0  0  0  0  0  0  0
   -0.3880   17.8130   -2.6600 C   0  0  0  0  0  0  0  0  0  0  0  0
   -1.5020   18.5860   -1.9610 C   0  0  0  0  0  0  0  0  0  0  0  0
   -1.0080   19.1840   -0.6460 C   0  0  2  0  0  0  0  0  0  0  0  0
   -0.0320   20.1900   -0.9350 O   0  0  0  0  0  0  0  0  0  0  0  0
   -0.4000   18.1270    0.3180 C   0  0  0  0  0  0  0  0  0  0  0  0
   -1.5250   17.2160    0.8680 C   0  0  0  0  0  0  0  0  0  0  0  0
    0.1870   18.8800    1.5430 C   0  0  0  0  0  0  0  0  0  0  0  0
    1.2640   15.7920   -2.5500 C   0  0  1  0  0  0  0  0  0  0  0  0
    2.1830   16.7110   -3.4110 C   0  0  0  0  0  0  0  0  0  0  0  0
    0.5250   14.8340   -3.5580 C   0  0  0  0  0  0  0  0  0  0  0  0
    0.0650   13.4700   -3.0090 C   0  0  0  0  0  0  0  0  0  0  0  0
    1.2020   12.7680   -2.2610 C   0  0  2  0  0  0  0  0  0  0  0  0
    2.3520   12.4920   -3.2890 C   0  0  0  0  0  0  0  0  0  0  0  0
   -0.1438    9.2700   -0.6803 H   0  0  0  0  0  0  0  0  0  0  0  0
   -1.2592    9.3909   -2.0831 H   0  0  0  0  0  0  0  0  0  0  0  0
    0.0544    8.1657   -2.0831 H   0  0  0  0  0  0  0  0  0  0  0  0
    0.2775   10.4716   -3.4050 H   0  0  0  0  0  0  0  0  0  0  0  0
    2.6895    9.6072   -1.7821 H   0  0  0  0  0  0  0  0  0  0  0  0
    1.9490    8.5729   -3.0958 H   0  0  0  0  0  0  0  0  0  0  0  0
    2.9576    9.7271   -4.6943 H   0  0  0  0  0  0  0  0  0  0  0  0
    2.3848   11.2972   -3.9918 H   0  0  0  0  0  0  0  0  0  0  0  0
    4.0910   10.2248   -2.3405 H   0  0  0  0  0  0  0  0  0  0  0  0
    5.0469    9.1827   -5.7559 H   0  0  0  0  0  0  0  0  0  0  0  0
    4.6527   10.8851   -6.1720 H   0  0  0  0  0  0  0  0  0  0  0  0
    6.3621   10.3332   -6.1720 H   0  0  0  0  0  0  0  0  0  0  0  0
    6.7635   10.4593   -2.5222 H   0  0  0  0  0  0  0  0  0  0  0  0
    7.2983    9.4916   -3.9379 H   0  0  0  0  0  0  0  0  0  0  0  0
    7.5094   11.2754   -3.9379 H   0  0  0  0  0  0  0  0  0  0  0  0
   -0.1676   11.4785   -1.1477 H   0  0  0  0  0  0  0  0  0  0  0  0
    1.5585   10.9477    0.4571 H   0  0  0  0  0  0  0  0  0  0  0  0
    2.7330   10.5607   -0.8186 H   0  0  0  0  0  0  0  0  0  0  0  0
    2.7006   12.9572    0.7376 H   0  0  0  0  0  0  0  0  0  0  0  0
    3.6190   12.7602   -0.7528 H   0  0  0  0  0  0  0  0  0  0  0  0
    0.8900   13.8127    1.0250 H   0  0  0  0  0  0  0  0  0  0  0  0
    0.0614   14.9074   -0.1334 H   0  0  0  0  0  0  0  0  0  0  0  0
   -0.3126   13.1504   -0.1334 H   0  0  0  0  0  0  0  0  0  0  0  0
    3.0786   14.6636   -2.1477 H   0  0  0  0  0  0  0  0  0  0  0  0
    3.1646   15.3034    0.3459 H   0  0  0  0  0  0  0  0  0  0  0  0
    3.5677   16.5300   -0.9668 H   0  0  0  0  0  0  0  0  0  0  0  0
    2.1074   17.4096    1.0420 H   0  0  0  0  0  0  0  0  0  0  0  0
   -0.6047   15.9364   -1.5625 H   0  0  0  0  0  0  0  0  0  0  0  0
    0.4259   18.5114   -2.9046 H   0  0  0  0  0  0  0  0  0  0  0  0
   -0.8157   17.3564   -3.5648 H   0  0  0  0  0  0  0  0  0  0  0  0
   -1.8450   19.3977   -2.6194 H   0  0  0  0  0  0  0  0  0  0  0  0
   -2.3279   17.8927   -1.7435 H   0  0  0  0  0  0  0  0  0  0  0  0
   -1.8800   19.6130   -0.1305 H   0  0  0  0  0  0  0  0  0  0  0  0
    0.1040   20.2000   -1.8970 H   0  0  0  0  0  0  0  0  0  0  0  0
   -1.5051   17.2321    1.9677 H   0  0  0  0  0  0  0  0  0  0  0  0
   -2.4997   17.5824    0.5135 H   0  0  0  0  0  0  0  0  0  0  0  0
   -1.3693   16.1864    0.5135 H   0  0  0  0  0  0  0  0  0  0  0  0
   -0.1773   18.4126    2.4697 H   0  0  0  0  0  0  0  0  0  0  0  0
    1.2854   18.8281    1.5134 H   0  0  0  0  0  0  0  0  0  0  0  0
   -0.1313   19.9325    1.5134 H   0  0  0  0  0  0  0  0  0  0  0  0
    2.8041   17.3321   -2.7489 H   0  0  0  0  0  0  0  0  0  0  0  0
    2.8317   16.0896   -4.0458 H   0  0  0  0  0  0  0  0  0  0  0  0
    1.5616   17.3597   -4.0458 H   0  0  0  0  0  0  0  0  0  0  0  0
   -0.3667   15.3624   -3.9265 H   0  0  0  0  0  0  0  0  0  0  0  0
    1.2718   14.5967   -4.3300 H   0  0  0  0  0  0  0  0  0  0  0  0
   -0.7775   13.6255   -2.3190 H   0  0  0  0  0  0  0  0  0  0  0  0
   -0.2415   12.8370   -3.8548 H   0  0  0  0  0  0  0  0  0  0  0  0
    3.2827   12.2686   -2.7468 H   0  0  0  0  0  0  0  0  0  0  0  0
    2.0807   11.6335   -3.9209 H   0  0  0  0  0  0  0  0  0  0  0  0
    2.4999   13.3802   -3.9209 H   0  0  0  0  0  0  0  0  0  0  0  0
  1  2  1  0
  2  3  1  0
  3  4  1  0
  4  5  1  0
  5  6  1  0
  6  7  1  0
  7  8  1  0
  7  9  1  0
  2 10  1  0
 10 11  1  0
 11 12  1  0
 12 13  1  0
 13 14  1  1
 13 15  1  0
 15 16  1  0
 16 17  1  0
 17 18  2  0
 18 19  1  0
 19 20  1  0
 20 21  1  0
 21 22  1  0
 22 23  1  0
 22 24  1  0
 24 25  1  0
 24 26  1  0
 19 27  1  0
 27 28  1  6
 27 29  1  0
 29 30  1  0
 30 31  1  0
 31 32  1  6
  7  5  1  0
 31 10  1  0
 31 13  1  0
 27 15  1  0
 24 18  1  0
  1 33  1  0
  1 34  1  0
  1 35  1  0
  2 36  1  6
  3 37  1  0
  3 38  1  0
  4 39  1  0
  4 40  1  0
  5 41  1  1
  8 42  1  0
  8 43  1  0
  8 44  1  0
  9 45  1  0
  9 46  1  0
  9 47  1  0
 10 48  1  1
 11 49  1  0
 11 50  1  0
 12 51  1  0
 12 52  1  0
 14 53  1  0
 14 54  1  0
 14 55  1  0
 15 56  1  6
 16 57  1  0
 16 58  1  0
 17 59  1  0
 19 60  1  1
 20 61  1  0
 20 62  1  0
 21 63  1  0
 21 64  1  0
 22 65  1  1
 23 66  1  0
 25 67  1  0
 25 68  1  0
 25 69  1  0
 26 70  1  0
 26 71  1  0
 26 72  1  0
 28 73  1  0
 28 74  1  0
 28 75  1  0
 29 76  1  0
 29 77  1  0
 30 78  1  0
 30 79  1  0
 32 80  1  0
 32 81  1  0
 32 82  1  0
M  END
>  <meeko>  (15) 
{"is_sidechain": [false], "intermolecular_energy": 2.731, "internal_energy": -0.839}

$$$$
EPH_relaxed_0001_pdb2pqr_Repair_284_r2_0001_out
     RDKit          3D

 82 86  0  0  0  0  0  0  0  0999 V2000
    2.8320   11.3660   -5.3620 C   0  0  0  0  0  0  0  0  0  0  0  0
    1.8210   11.0560   -4.2550 C   0  0  2  0  0  0  0  0  0  0  0  0
    0.7010   10.1130   -4.7380 C   0  0  0  0  0  0  0  0  0  0  0  0
   -0.3660    9.8300   -3.6770 C   0  0  0  0  0  0  0  0  0  0  0  0
    0.1850    9.0290   -2.5370 C   0  0  2  0  0  0  0  0  0  0  0  0
   -0.6410    7.9330   -2.1200 O   0  0  0  0  0  0  0  0  0  0  0  0
   -0.4520    8.9860   -1.1600 C   0  0  0  0  0  0  0  0  0  0  0  0
   -1.6960    9.7580   -0.8510 C   0  0  0  0  0  0  0  0  0  0  0  0
    0.3960    8.5900    0.0090 C   0  0  0  0  0  0  0  0  0  0  0  0
    1.2180   12.3520   -3.7240 C   0  0  1  0  0  0  0  0  0  0  0  0
   -0.3210   12.2630   -3.5400 C   0  0  0  0  0  0  0  0  0  0  0  0
   -0.6720   13.1160   -2.2940 C   0  0  0  0  0  0  0  0  0  0  0  0
    0.6110   13.9280   -2.0030 C   0  0  1  0  0  0  0  0  0  0  0  0
    0.5600   15.1300   -2.9970 C   0  0  0  0  0  0  0  0  0  0  0  0
    0.8060   14.4070   -0.5270 C   0  0  2  0  0  0  0  0  0  0  0  0
   -0.2710   15.3750   -0.0080 C   0  0  0  0  0  0  0  0  0  0  0  0
    0.0180   16.8240   -0.2200 C   0  0  0  0  0  0  0  0  0  0  0  0
    1.2170   17.3430   -0.5430 C   0  0  0  0  0  0  0  0  0  0  0  0
    2.4630   16.4520   -0.6320 C   0  0  1  0  0  0  0  0  0  0  0  0
    3.6400   17.1320    0.1160 C   0  0  0  0  0  0  0  0  0  0  0  0
    3.9030   18.5520   -0.3740 C   0  0  0  0  0  0  0  0  0  0  0  0
    2.6580   19.4230   -0.2160 C   0  0  2  0  0  0  0  0  0  0  0  0
    2.3900   19.5940    1.1790 O   0  0  0  0  0  0  0  0  0  0  0  0
    1.4050   18.8330   -0.9210 C   0  0  0  0  0  0  0  0  0  0  0  0
    1.5780   18.9280   -2.4570 C   0  0  0  0  0  0  0  0  0  0  0  0
    0.1900   19.7330   -0.5650 C   0  0  0  0  0  0  0  0  0  0  0  0
    2.2620   14.9350   -0.2040 C   0  0  1  0  0  0  0  0  0  0  0  0
    2.4580   14.7860    1.3360 C   0  0  0  0  0  0  0  0  0  0  0  0
    3.3810   14.0570   -0.8800 C   0  0  0  0  0  0  0  0  0  0  0  0
    3.0800   13.5140   -2.2900 C   0  0  0  0  0  0  0  0  0  0  0  0
    1.7020   12.8470   -2.3390 C   0  0  2  0  0  0  0  0  0  0  0  0
    1.7310   11.6200   -1.3650 C   0  0  0  0  0  0  0  0  0  0  0  0
    3.7911   11.6601   -4.9108 H   0  0  0  0  0  0  0  0  0  0  0  0
    2.9790   10.4716   -5.9853 H   0  0  0  0  0  0  0  0  0  0  0  0
    2.4524   12.1890   -5.9853 H   0  0  0  0  0  0  0  0  0  0  0  0
    2.3619   10.5394   -3.4484 H   0  0  0  0  0  0  0  0  0  0  0  0
    0.2112   10.5731   -5.6089 H   0  0  0  0  0  0  0  0  0  0  0  0
    1.1744    9.1506   -4.9823 H   0  0  0  0  0  0  0  0  0  0  0  0
   -0.7461   10.7868   -3.2896 H   0  0  0  0  0  0  0  0  0  0  0  0
   -1.1716    9.2474   -4.1477 H   0  0  0  0  0  0  0  0  0  0  0  0
    1.2159    9.2240   -2.8675 H   0  0  0  0  0  0  0  0  0  0  0  0
   -1.8189    9.8342    0.2395 H   0  0  0  0  0  0  0  0  0  0  0  0
   -1.6182   10.7668   -1.2826 H   0  0  0  0  0  0  0  0  0  0  0  0
   -2.5654    9.2405   -1.2826 H   0  0  0  0  0  0  0  0  0  0  0  0
   -0.1299    8.8356    0.9434 H   0  0  0  0  0  0  0  0  0  0  0  0
    0.5904    7.5080   -0.0288 H   0  0  0  0  0  0  0  0  0  0  0  0
    1.3504    9.1355   -0.0288 H   0  0  0  0  0  0  0  0  0  0  0  0
    1.5526   13.0460   -4.5092 H   0  0  0  0  0  0  0  0  0  0  0  0
   -0.8325   12.6617   -4.4285 H   0  0  0  0  0  0  0  0  0  0  0  0
   -0.6436   11.2196   -3.4083 H   0  0  0  0  0  0  0  0  0  0  0  0
   -1.5163   13.7877   -2.5085 H   0  0  0  0  0  0  0  0  0  0  0  0
   -0.9772   12.4971   -1.4374 H   0  0  0  0  0  0  0  0  0  0  0  0
    0.5200   16.0724   -2.4310 H   0  0  0  0  0  0  0  0  0  0  0  0
    1.4594   15.1205   -3.6303 H   0  0  0  0  0  0  0  0  0  0  0  0
   -0.3353   15.0444   -3.6303 H   0  0  0  0  0  0  0  0  0  0  0  0
    0.6707   13.4761    0.0431 H   0  0  0  0  0  0  0  0  0  0  0  0
   -1.2156   15.1385   -0.5197 H   0  0  0  0  0  0  0  0  0  0  0  0
   -0.3114   15.2292    1.0815 H   0  0  0  0  0  0  0  0  0  0  0  0
   -0.8198   17.5270   -0.1023 H   0  0  0  0  0  0  0  0  0  0  0  0
    2.7010   16.3670   -1.7026 H   0  0  0  0  0  0  0  0  0  0  0  0
    3.4017   17.1680    1.1893 H   0  0  0  0  0  0  0  0  0  0  0  0
    4.5458   16.5390   -0.0784 H   0  0  0  0  0  0  0  0  0  0  0  0
    4.7248   18.9888    0.2124 H   0  0  0  0  0  0  0  0  0  0  0  0
    4.1706   18.5118   -1.4402 H   0  0  0  0  0  0  0  0  0  0  0  0
    2.8655   20.3879   -0.7017 H   0  0  0  0  0  0  0  0  0  0  0  0
    1.8930   18.8150    1.4810 H   0  0  0  0  0  0  0  0  0  0  0  0
    2.5206   19.4456   -2.6885 H   0  0  0  0  0  0  0  0  0  0  0  0
    1.6004   17.9157   -2.8868 H   0  0  0  0  0  0  0  0  0  0  0  0
    0.7358   19.4902   -2.8868 H   0  0  0  0  0  0  0  0  0  0  0  0
    0.0942   19.8040    0.5285 H   0  0  0  0  0  0  0  0  0  0  0  0
    0.3423   20.7379   -0.9857 H   0  0  0  0  0  0  0  0  0  0  0  0
   -0.7269   19.2945   -0.9857 H   0  0  0  0  0  0  0  0  0  0  0  0
    1.6888   15.3707    1.8618 H   0  0  0  0  0  0  0  0  0  0  0  0
    2.3682   13.7261    1.6162 H   0  0  0  0  0  0  0  0  0  0  0  0
    3.4553   15.1561    1.6162 H   0  0  0  0  0  0  0  0  0  0  0  0
    4.2910   14.6714   -0.9471 H   0  0  0  0  0  0  0  0  0  0  0  0
    3.4728   13.1659   -0.2417 H   0  0  0  0  0  0  0  0  0  0  0  0
    3.1023   14.3467   -3.0084 H   0  0  0  0  0  0  0  0  0  0  0  0
    3.8420   12.7632   -2.5463 H   0  0  0  0  0  0  0  0  0  0  0  0
    1.7226   11.9774   -0.3247 H   0  0  0  0  0  0  0  0  0  0  0  0
    0.8475   10.9894   -1.5433 H   0  0  0  0  0  0  0  0  0  0  0  0
    2.6433   11.0318   -1.5433 H   0  0  0  0  0  0  0  0  0  0  0  0
  1  2  1  0
  2  3  1  0
  3  4  1  0
  4  5  1  0
  5  6  1  0
  6  7  1  0
  7  8  1  0
  7  9  1  0
  2 10  1  0
 10 11  1  0
 11 12  1  0
 12 13  1  0
 13 14  1  6
 13 15  1  0
 15 16  1  0
 16 17  1  0
 17 18  2  0
 18 19  1  0
 19 20  1  0
 20 21  1  0
 21 22  1  0
 22 23  1  0
 22 24  1  0
 24 25  1  0
 24 26  1  0
 19 27  1  0
 27 28  1  1
 27 29  1  0
 29 30  1  0
 30 31  1  0
 31 32  1  1
  7  5  1  0
 31 10  1  0
 31 13  1  0
 27 15  1  0
 24 18  1  0
  1 33  1  0
  1 34  1  0
  1 35  1  0
  2 36  1  1
  3 37  1  0
  3 38  1  0
  4 39  1  0
  4 40  1  0
  5 41  1  1
  8 42  1  0
  8 43  1  0
  8 44  1  0
  9 45  1  0
  9 46  1  0
  9 47  1  0
 10 48  1  6
 11 49  1  0
 11 50  1  0
 12 51  1  0
 12 52  1  0
 14 53  1  0
 14 54  1  0
 14 55  1  0
 15 56  1  1
 16 57  1  0
 16 58  1  0
 17 59  1  0
 19 60  1  6
 20 61  1  0
 20 62  1  0
 21 63  1  0
 21 64  1  0
 22 65  1  6
 23 66  1  0
 25 67  1  0
 25 68  1  0
 25 69  1  0
 26 70  1  0
 26 71  1  0
 26 72  1  0
 28 73  1  0
 28 74  1  0
 28 75  1  0
 29 76  1  0
 29 77  1  0
 30 78  1  0
 30 79  1  0
 32 80  1  0
 32 81  1  0
 32 82  1  0
M  END
>  <meeko>  (16) 
{"is_sidechain": [false], "intermolecular_energy": 2.731, "internal_energy": -0.839}

$$$$
EPH_relaxed_0001_pdb2pqr_Repair_284_r2_0001_out
     RDKit          3D

 82 86  0  0  0  0  0  0  0  0999 V2000
    0.8980   14.9020   -2.5970 C   0  0  0  0  0  0  0  0  0  0  0  0
    1.1780   14.2290   -3.9440 C   0  0  2  0  0  0  0  0  0  0  0  0
    0.4870   14.9600   -5.1120 C   0  0  0  0  0  0  0  0  0  0  0  0
    1.0740   14.6190   -6.4850 C   0  0  0  0  0  0  0  0  0  0  0  0
    0.8310   15.7130   -7.4790 C   0  0  2  0  0  0  0  0  0  0  0  0
    0.3770   15.2650   -8.7630 O   0  0  0  0  0  0  0  0  0  0  0  0
    1.6630   15.9050   -8.7330 C   0  0  0  0  0  0  0  0  0  0  0  0
    2.8050   14.9930   -9.0590 C   0  0  0  0  0  0  0  0  0  0  0  0
    1.6810   17.2540   -9.3810 C   0  0  0  0  0  0  0  0  0  0  0  0
    0.7270   12.7740   -3.9010 C   0  0  1  0  0  0  0  0  0  0  0  0
    1.8580   11.7860   -4.2910 C   0  0  0  0  0  0  0  0  0  0  0  0
    1.6590   10.5140   -3.4280 C   0  0  0  0  0  0  0  0  0  0  0  0
    0.2460   10.6730   -2.8190 C   0  0  1  0  0  0  0  0  0  0  0  0
   -0.7300   10.2130   -3.9460 C   0  0  0  0  0  0  0  0  0  0  0  0
   -0.0180    9.9110   -1.4790 C   0  0  2  0  0  0  0  0  0  0  0  0
    0.0860    8.3780   -1.5690 C   0  0  0  0  0  0  0  0  0  0  0  0
   -1.1870    7.6710   -1.8970 C   0  0  0  0  0  0  0  0  0  0  0  0
   -2.4200    8.2070   -1.8310 C   0  0  0  0  0  0  0  0  0  0  0  0
   -2.6320    9.6310   -1.2990 C   0  0  1  0  0  0  0  0  0  0  0  0
   -3.8110    9.6360   -0.2910 C   0  0  0  0  0  0  0  0  0  0  0  0
   -5.0850    9.0370   -0.8780 C   0  0  0  0  0  0  0  0  0  0  0  0
   -4.8490    7.6020   -1.3430 C   0  0  2  0  0  0  0  0  0  0  0  0
   -4.5900    6.7830   -0.1980 O   0  0  0  0  0  0  0  0  0  0  0  0
   -3.6770    7.4700   -2.3550 C   0  0  0  0  0  0  0  0  0  0  0  0
   -4.0840    8.1040   -3.7080 C   0  0  0  0  0  0  0  0  0  0  0  0
   -3.4540    5.9590   -2.6330 C   0  0  0  0  0  0  0  0  0  0  0  0
   -1.3380   10.3580   -0.7300 C   0  0  1  0  0  0  0  0  0  0  0  0
   -1.1420    9.9930    0.7740 C   0  0  0  0  0  0  0  0  0  0  0  0
   -1.5590   11.9160   -0.7830 C   0  0  0  0  0  0  0  0  0  0  0  0
   -1.1670   12.6280   -2.0920 C   0  0  0  0  0  0  0  0  0  0  0  0
    0.2410   12.2200   -2.5380 C   0  0  2  0  0  0  0  0  0  0  0  0
    1.2480   12.6890   -1.4330 C   0  0  0  0  0  0  0  0  0  0  0  0
    1.1813   14.2210   -1.7809 H   0  0  0  0  0  0  0  0  0  0  0  0
    1.4850   15.8292   -2.5213 H   0  0  0  0  0  0  0  0  0  0  0  0
   -0.1735   15.1392   -2.5213 H   0  0  0  0  0  0  0  0  0  0  0  0
    2.2628   14.2771   -4.1195 H   0  0  0  0  0  0  0  0  0  0  0  0
   -0.5782   14.6857   -5.1118 H   0  0  0  0  0  0  0  0  0  0  0  0
    0.6429   16.0374   -4.9543 H   0  0  0  0  0  0  0  0  0  0  0  0
    2.1584   14.4663   -6.3811 H   0  0  0  0  0  0  0  0  0  0  0  0
    0.5806   13.7068   -6.8518 H   0  0  0  0  0  0  0  0  0  0  0  0
    0.5330   16.4060   -6.6784 H   0  0  0  0  0  0  0  0  0  0  0  0
    3.2611   14.6288   -8.1266 H   0  0  0  0  0  0  0  0  0  0  0  0
    2.4360   14.1383   -9.6449 H   0  0  0  0  0  0  0  0  0  0  0  0
    3.5569   15.5419   -9.6449 H   0  0  0  0  0  0  0  0  0  0  0  0
    1.6914   18.0335   -8.6049 H   0  0  0  0  0  0  0  0  0  0  0  0
    2.5805   17.3480  -10.0072 H   0  0  0  0  0  0  0  0  0  0  0  0
    0.7843   17.3720  -10.0072 H   0  0  0  0  0  0  0  0  0  0  0  0
   -0.1130   12.8207   -4.6097 H   0  0  0  0  0  0  0  0  0  0  0  0
    1.7884   11.5334   -5.3594 H   0  0  0  0  0  0  0  0  0  0  0  0
    2.8486   12.2309   -4.1155 H   0  0  0  0  0  0  0  0  0  0  0  0
    1.7137    9.6093   -4.0513 H   0  0  0  0  0  0  0  0  0  0  0  0
    2.4361   10.4072   -2.6568 H   0  0  0  0  0  0  0  0  0  0  0  0
   -1.6370    9.7855   -3.4937 H   0  0  0  0  0  0  0  0  0  0  0  0
   -1.0035   11.0770   -4.5695 H   0  0  0  0  0  0  0  0  0  0  0  0
   -0.2376    9.4522   -4.5695 H   0  0  0  0  0  0  0  0  0  0  0  0
    0.8283   10.2312   -0.8536 H   0  0  0  0  0  0  0  0  0  0  0  0
    0.8219    8.1324   -2.3488 H   0  0  0  0  0  0  0  0  0  0  0  0
    0.3759    8.0331   -0.5655 H   0  0  0  0  0  0  0  0  0  0  0  0
   -1.1111    6.6223   -2.2203 H   0  0  0  0  0  0  0  0  0  0  0  0
   -2.8860   10.2486   -2.1731 H   0  0  0  0  0  0  0  0  0  0  0  0
   -3.5210    9.0501    0.5937 H   0  0  0  0  0  0  0  0  0  0  0  0
   -4.0236   10.6835   -0.0311 H   0  0  0  0  0  0  0  0  0  0  0  0
   -5.8722    9.0417   -0.1097 H   0  0  0  0  0  0  0  0  0  0  0  0
   -5.3902    9.6414   -1.7449 H   0  0  0  0  0  0  0  0  0  0  0  0
   -5.7567    7.2732   -1.8702 H   0  0  0  0  0  0  0  0  0  0  0  0
   -3.6580    6.9080    0.0490 H   0  0  0  0  0  0  0  0  0  0  0  0
   -4.6699    9.0166   -3.5238 H   0  0  0  0  0  0  0  0  0  0  0  0
   -3.1798    8.3581   -4.2806 H   0  0  0  0  0  0  0  0  0  0  0  0
   -4.6914    7.3877   -4.2806 H   0  0  0  0  0  0  0  0  0  0  0  0
   -3.3742    5.4184   -1.6783 H   0  0  0  0  0  0  0  0  0  0  0  0
   -4.3034    5.5629   -3.2088 H   0  0  0  0  0  0  0  0  0  0  0  0
   -2.5264    5.8251   -3.2088 H   0  0  0  0  0  0  0  0  0  0  0  0
   -1.5690   10.7881    1.4029 H   0  0  0  0  0  0  0  0  0  0  0  0
   -1.6507    9.0419    0.9898 H   0  0  0  0  0  0  0  0  0  0  0  0
   -0.0681    9.8917    0.9898 H   0  0  0  0  0  0  0  0  0  0  0  0
   -2.6280   12.1069   -0.6073 H   0  0  0  0  0  0  0  0  0  0  0  0
   -0.8857   12.3289   -0.0174 H   0  0  0  0  0  0  0  0  0  0  0  0
   -1.8864   12.3565   -2.8786 H   0  0  0  0  0  0  0  0  0  0  0  0
   -1.1787   13.7140   -1.9176 H   0  0  0  0  0  0  0  0  0  0  0  0
    0.8206   12.4900   -0.4391 H   0  0  0  0  0  0  0  0  0  0  0  0
    2.1944   12.1390   -1.5420 H   0  0  0  0  0  0  0  0  0  0  0  0
    1.4360   13.7673   -1.5420 H   0  0  0  0  0  0  0  0  0  0  0  0
  1  2  1  0
  2  3  1  0
  3  4  1  0
  4  5  1  0
  5  6  1  0
  6  7  1  0
  7  8  1  0
  7  9  1  0
  2 10  1  0
 10 11  1  0
 11 12  1  0
 12 13  1  0
 13 14  1  6
 13 15  1  0
 15 16  1  0
 16 17  1  0
 17 18  2  0
 18 19  1  0
 19 20  1  0
 20 21  1  0
 21 22  1  0
 22 23  1  0
 22 24  1  0
 24 25  1  0
 24 26  1  0
 19 27  1  0
 27 28  1  1
 27 29  1  0
 29 30  1  0
 30 31  1  0
 31 32  1  1
  7  5  1  0
 31 10  1  0
 31 13  1  0
 27 15  1  0
 24 18  1  0
  1 33  1  0
  1 34  1  0
  1 35  1  0
  2 36  1  6
  3 37  1  0
  3 38  1  0
  4 39  1  0
  4 40  1  0
  5 41  1  1
  8 42  1  0
  8 43  1  0
  8 44  1  0
  9 45  1  0
  9 46  1  0
  9 47  1  0
 10 48  1  6
 11 49  1  0
 11 50  1  0
 12 51  1  0
 12 52  1  0
 14 53  1  0
 14 54  1  0
 14 55  1  0
 15 56  1  1
 16 57  1  0
 16 58  1  0
 17 59  1  0
 19 60  1  6
 20 61  1  0
 20 62  1  0
 21 63  1  0
 21 64  1  0
 22 65  1  6
 23 66  1  0
 25 67  1  0
 25 68  1  0
 25 69  1  0
 26 70  1  0
 26 71  1  0
 26 72  1  0
 28 73  1  0
 28 74  1  0
 28 75  1  0
 29 76  1  0
 29 77  1  0
 30 78  1  0
 30 79  1  0
 32 80  1  0
 32 81  1  0
 32 82  1  0
M  END
>  <meeko>  (17) 
{"is_sidechain": [false], "intermolecular_energy": 2.731, "internal_energy": -0.839}

$$$$
EPH_relaxed_0001_pdb2pqr_Repair_284_r2_0001_out
     RDKit          3D

 82 86  0  0  0  0  0  0  0  0999 V2000
   -1.7460   14.8140    0.3610 C   0  0  0  0  0  0  0  0  0  0  0  0
   -0.3860   15.5110    0.2730 C   0  0  2  0  0  0  0  0  0  0  0  0
   -0.3620   16.6040   -0.8140 C   0  0  0  0  0  0  0  0  0  0  0  0
   -0.0160   17.9960   -0.2790 C   0  0  0  0  0  0  0  0  0  0  0  0
    1.4450   18.1230    0.0300 C   0  0  2  0  0  0  0  0  0  0  0  0
    2.0730   19.2910   -0.5150 O   0  0  0  0  0  0  0  0  0  0  0  0
    2.5350   18.0280   -1.0220 C   0  0  0  0  0  0  0  0  0  0  0  0
    2.2090   17.7960   -2.4640 C   0  0  0  0  0  0  0  0  0  0  0  0
    3.9220   17.6740   -0.5850 C   0  0  0  0  0  0  0  0  0  0  0  0
    0.7080   14.4840    0.0030 C   0  0  1  0  0  0  0  0  0  0  0  0
    0.8510   13.4480    1.1500 C   0  0  0  0  0  0  0  0  0  0  0  0
    1.2280   12.0980    0.4880 C   0  0  0  0  0  0  0  0  0  0  0  0
    1.6130   12.4690   -0.9630 C   0  0  1  0  0  0  0  0  0  0  0  0
    3.0860   12.9790   -0.8700 C   0  0  0  0  0  0  0  0  0  0  0  0
    1.4610   11.3360   -2.0300 C   0  0  2  0  0  0  0  0  0  0  0  0
    2.3520   10.1020   -1.8020 C   0  0  0  0  0  0  0  0  0  0  0  0
    3.6920   10.1530   -2.4570 C   0  0  0  0  0  0  0  0  0  0  0  0
    4.0560   11.0130   -3.4270 C   0  0  0  0  0  0  0  0  0  0  0  0
    3.0440   11.9950   -4.0300 C   0  0  1  0  0  0  0  0  0  0  0  0
    3.1590   11.9720   -5.5770 C   0  0  0  0  0  0  0  0  0  0  0  0
    4.5820   12.2300   -6.0620 C   0  0  0  0  0  0  0  0  0  0  0  0
    5.5500   11.1990   -5.4870 C   0  0  2  0  0  0  0  0  0  0  0  0
    5.2360    9.9160   -6.0370 O   0  0  0  0  0  0  0  0  0  0  0  0
    5.5150   11.1250   -3.9350 C   0  0  0  0  0  0  0  0  0  0  0  0
    6.1400   12.4100   -3.3390 C   0  0  0  0  0  0  0  0  0  0  0  0
    6.4300    9.9510   -3.4930 C   0  0  0  0  0  0  0  0  0  0  0  0
    1.5440   11.8400   -3.5280 C   0  0  1  0  0  0  0  0  0  0  0  0
    0.7980   10.7810   -4.3960 C   0  0  0  0  0  0  0  0  0  0  0  0
    0.7870   13.2040   -3.7430 C   0  0  0  0  0  0  0  0  0  0  0  0
    0.8760   14.2350   -2.6020 C   0  0  0  0  0  0  0  0  0  0  0  0
    0.5490   13.5900   -1.2520 C   0  0  2  0  0  0  0  0  0  0  0  0
   -0.9340   13.0870   -1.3080 C   0  0  0  0  0  0  0  0  0  0  0  0
   -2.0187   14.6742    1.4175 H   0  0  0  0  0  0  0  0  0  0  0  0
   -2.5079   15.4327   -0.1356 H   0  0  0  0  0  0  0  0  0  0  0  0
   -1.6887   13.8342   -0.1356 H   0  0  0  0  0  0  0  0  0  0  0  0
   -0.2039   16.0033    1.2397 H   0  0  0  0  0  0  0  0  0  0  0  0
    0.3876   16.3261   -1.5695 H   0  0  0  0  0  0  0  0  0  0  0  0
   -1.3775   16.6636   -1.2326 H   0  0  0  0  0  0  0  0  0  0  0  0
   -0.2869   18.7465   -1.0362 H   0  0  0  0  0  0  0  0  0  0  0  0
   -0.5789   18.1553    0.6525 H   0  0  0  0  0  0  0  0  0  0  0  0
    1.3079   17.6183    0.9977 H   0  0  0  0  0  0  0  0  0  0  0  0
    1.3149   17.1597   -2.5400 H   0  0  0  0  0  0  0  0  0  0  0  0
    2.0155   18.7606   -2.9560 H   0  0  0  0  0  0  0  0  0  0  0  0
    3.0570   17.2971   -2.9560 H   0  0  0  0  0  0  0  0  0  0  0  0
    3.9684   17.6622    0.5140 H   0  0  0  0  0  0  0  0  0  0  0  0
    4.1864   16.6796   -0.9739 H   0  0  0  0  0  0  0  0  0  0  0  0
    4.6306   18.4201   -0.9739 H   0  0  0  0  0  0  0  0  0  0  0  0
    1.5680   15.1584   -0.1220 H   0  0  0  0  0  0  0  0  0  0  0  0
    1.6415   13.7618    1.8476 H   0  0  0  0  0  0  0  0  0  0  0  0
   -0.0844   13.3601    1.7220 H   0  0  0  0  0  0  0  0  0  0  0  0
    2.0786   11.6342    1.0089 H   0  0  0  0  0  0  0  0  0  0  0  0
    0.4047   11.3696    0.5278 H   0  0  0  0  0  0  0  0  0  0  0  0
    3.3735   13.0785    0.1871 H   0  0  0  0  0  0  0  0  0  0  0  0
    3.7549   12.2601   -1.3658 H   0  0  0  0  0  0  0  0  0  0  0  0
    3.1672   13.9576   -1.3658 H   0  0  0  0  0  0  0  0  0  0  0  0
    0.4285   10.9942   -1.8656 H   0  0  0  0  0  0  0  0  0  0  0  0
    2.5073    9.9905   -0.7187 H   0  0  0  0  0  0  0  0  0  0  0  0
    1.8213    9.2547   -2.2608 H   0  0  0  0  0  0  0  0  0  0  0  0
    4.4458    9.4268   -2.1188 H   0  0  0  0  0  0  0  0  0  0  0  0
    3.3211   12.9892   -3.6494 H   0  0  0  0  0  0  0  0  0  0  0  0
    2.8364   10.9850   -5.9399 H   0  0  0  0  0  0  0  0  0  0  0  0
    2.5210   12.7768   -5.9711 H   0  0  0  0  0  0  0  0  0  0  0  0
    4.6042   12.1713   -7.1602 H   0  0  0  0  0  0  0  0  0  0  0  0
    4.8923   13.2297   -5.7238 H   0  0  0  0  0  0  0  0  0  0  0  0
    6.5679   11.5115   -5.7630 H   0  0  0  0  0  0  0  0  0  0  0  0
    5.5850    9.8910   -6.9450 H   0  0  0  0  0  0  0  0  0  0  0  0
    6.1134   12.3553   -2.2407 H   0  0  0  0  0  0  0  0  0  0  0  0
    7.1830   12.5010   -3.6764 H   0  0  0  0  0  0  0  0  0  0  0  0
    5.5677   13.2867   -3.6764 H   0  0  0  0  0  0  0  0  0  0  0  0
    6.4646    9.9066   -2.3944 H   0  0  0  0  0  0  0  0  0  0  0  0
    6.0284    9.0052   -3.8857 H   0  0  0  0  0  0  0  0  0  0  0  0
    7.4452   10.1095   -3.8857 H   0  0  0  0  0  0  0  0  0  0  0  0
    0.2901   10.0600   -3.7386 H   0  0  0  0  0  0  0  0  0  0  0  0
    0.0546   11.2852   -5.0309 H   0  0  0  0  0  0  0  0  0  0  0  0
    1.5231   10.2507   -5.0309 H   0  0  0  0  0  0  0  0  0  0  0  0
    1.1982   13.6737   -4.6487 H   0  0  0  0  0  0  0  0  0  0  0  0
   -0.2779   12.9354   -3.8059 H   0  0  0  0  0  0  0  0  0  0  0  0
    1.8960   14.6453   -2.5668 H   0  0  0  0  0  0  0  0  0  0  0  0
    0.1452   15.0343   -2.7944 H   0  0  0  0  0  0  0  0  0  0  0  0
   -1.3161   12.9574   -0.2847 H   0  0  0  0  0  0  0  0  0  0  0  0
   -1.5520   13.8258   -1.8393 H   0  0  0  0  0  0  0  0  0  0  0  0
   -0.9750   12.1247   -1.8393 H   0  0  0  0  0  0  0  0  0  0  0  0
  1  2  1  0
  2  3  1  0
  3  4  1  0
  4  5  1  0
  5  6  1  0
  6  7  1  0
  7  8  1  0
  7  9  1  0
  2 10  1  0
 10 11  1  0
 11 12  1  0
 12 13  1  0
 13 14  1  1
 13 15  1  0
 15 16  1  0
 16 17  1  0
 17 18  2  0
 18 19  1  0
 19 20  1  0
 20 21  1  0
 21 22  1  0
 22 23  1  0
 22 24  1  0
 24 25  1  0
 24 26  1  0
 19 27  1  0
 27 28  1  6
 27 29  1  0
 29 30  1  0
 30 31  1  0
 31 32  1  6
  7  5  1  0
 31 10  1  0
 31 13  1  0
 27 15  1  0
 24 18  1  0
  1 33  1  0
  1 34  1  0
  1 35  1  0
  2 36  1  1
  3 37  1  0
  3 38  1  0
  4 39  1  0
  4 40  1  0
  5 41  1  1
  8 42  1  0
  8 43  1  0
  8 44  1  0
  9 45  1  0
  9 46  1  0
  9 47  1  0
 10 48  1  6
 11 49  1  0
 11 50  1  0
 12 51  1  0
 12 52  1  0
 14 53  1  0
 14 54  1  0
 14 55  1  0
 15 56  1  6
 16 57  1  0
 16 58  1  0
 17 59  1  0
 19 60  1  1
 20 61  1  0
 20 62  1  0
 21 63  1  0
 21 64  1  0
 22 65  1  1
 23 66  1  0
 25 67  1  0
 25 68  1  0
 25 69  1  0
 26 70  1  0
 26 71  1  0
 26 72  1  0
 28 73  1  0
 28 74  1  0
 28 75  1  0
 29 76  1  0
 29 77  1  0
 30 78  1  0
 30 79  1  0
 32 80  1  0
 32 81  1  0
 32 82  1  0
M  END
>  <meeko>  (18) 
{"is_sidechain": [false], "intermolecular_energy": 2.731, "internal_energy": -0.839}

$$$$
EPH_relaxed_0001_pdb2pqr_Repair_284_r2_0001_out
     RDKit          3D

 82 86  0  0  0  0  0  0  0  0999 V2000
   -2.4470    7.7980    0.0030 C   0  0  0  0  0  0  0  0  0  0  0  0
   -3.1240    9.1690   -0.0640 C   0  0  2  0  0  0  0  0  0  0  0  0
   -4.5940    9.0690   -0.5200 C   0  0  0  0  0  0  0  0  0  0  0  0
   -5.1140    7.6320   -0.6110 C   0  0  0  0  0  0  0  0  0  0  0  0
   -5.8910    7.4020   -1.8720 C   0  0  2  0  0  0  0  0  0  0  0  0
   -6.8240    8.4410   -2.1980 O   0  0  0  0  0  0  0  0  0  0  0  0
   -7.3870    7.1540   -1.8990 C   0  0  0  0  0  0  0  0  0  0  0  0
   -8.1960    7.1210   -0.6390 C   0  0  0  0  0  0  0  0  0  0  0  0
   -7.9770    6.4620   -3.0880 C   0  0  0  0  0  0  0  0  0  0  0  0
   -2.3490   10.0870   -1.0020 C   0  0  1  0  0  0  0  0  0  0  0  0
   -2.9840   11.4980   -1.1160 C   0  0  0  0  0  0  0  0  0  0  0  0
   -1.8140   12.5030   -1.2750 C   0  0  0  0  0  0  0  0  0  0  0  0
   -0.5800   11.6210   -1.5790 C   0  0  1  0  0  0  0  0  0  0  0  0
   -0.6810   11.3030   -3.1040 C   0  0  0  0  0  0  0  0  0  0  0  0
    0.8120   12.2270   -1.2060 C   0  0  2  0  0  0  0  0  0  0  0  0
    1.1860   13.5150   -1.9600 C   0  0  0  0  0  0  0  0  0  0  0  0
    1.9310   13.3120   -3.2380 C   0  0  0  0  0  0  0  0  0  0  0  0
    2.5340   12.1700   -3.6190 C   0  0  0  0  0  0  0  0  0  0  0  0
    2.5850   10.9560   -2.6830 C   0  0  1  0  0  0  0  0  0  0  0  0
    4.0240   10.3760   -2.6660 C   0  0  0  0  0  0  0  0  0  0  0  0
    4.5430   10.0570   -4.0640 C   0  0  0  0  0  0  0  0  0  0  0  0
    4.5310   11.3020   -4.9470 C   0  0  2  0  0  0  0  0  0  0  0  0
    5.4880   12.2370   -4.4400 O   0  0  0  0  0  0  0  0  0  0  0  0
    3.1350   11.9790   -5.0340 C   0  0  0  0  0  0  0  0  0  0  0  0
    2.1730   11.0850   -5.8540 C   0  0  0  0  0  0  0  0  0  0  0  0
    3.2920   13.2980   -5.8370 C   0  0  0  0  0  0  0  0  0  0  0  0
    1.9990   11.1810   -1.2230 C   0  0  1  0  0  0  0  0  0  0  0  0
    3.1090   11.7520   -0.2870 C   0  0  0  0  0  0  0  0  0  0  0  0
    1.5800    9.7900   -0.6170 C   0  0  0  0  0  0  0  0  0  0  0  0
    0.1520    9.3010   -0.9220 C   0  0  0  0  0  0  0  0  0  0  0  0
   -0.8770   10.3990   -0.6350 C   0  0  2  0  0  0  0  0  0  0  0  0
   -0.8150   10.7240    0.8960 C   0  0  0  0  0  0  0  0  0  0  0  0
   -2.3049    7.5103    1.0551 H   0  0  0  0  0  0  0  0  0  0  0  0
   -3.0801    7.0515   -0.4990 H   0  0  0  0  0  0  0  0  0  0  0  0
   -1.4694    7.8469   -0.4990 H   0  0  0  0  0  0  0  0  0  0  0  0
   -3.1213    9.5890    0.9526 H   0  0  0  0  0  0  0  0  0  0  0  0
   -5.2187    9.6195    0.1988 H   0  0  0  0  0  0  0  0  0  0  0  0
   -4.6458    9.4942   -1.5332 H   0  0  0  0  0  0  0  0  0  0  0  0
   -4.2582    6.9412   -0.5887 H   0  0  0  0  0  0  0  0  0  0  0  0
   -5.7855    7.4558    0.2423 H   0  0  0  0  0  0  0  0  0  0  0  0
   -5.0453    6.8619   -2.3227 H   0  0  0  0  0  0  0  0  0  0  0  0
   -7.5223    7.1485    0.2301 H   0  0  0  0  0  0  0  0  0  0  0  0
   -8.8665    7.9925   -0.6109 H   0  0  0  0  0  0  0  0  0  0  0  0
   -8.7933    6.1977   -0.6109 H   0  0  0  0  0  0  0  0  0  0  0  0
   -8.6560    5.6656   -2.7492 H   0  0  0  0  0  0  0  0  0  0  0  0
   -8.5377    7.1886   -3.6943 H   0  0  0  0  0  0  0  0  0  0  0  0
   -7.1708    6.0232   -3.6943 H   0  0  0  0  0  0  0  0  0  0  0  0
   -2.3876    9.4859   -1.9225 H   0  0  0  0  0  0  0  0  0  0  0  0
   -3.6463   11.5457   -1.9930 H   0  0  0  0  0  0  0  0  0  0  0  0
   -3.5882   11.7324   -0.2272 H   0  0  0  0  0  0  0  0  0  0  0  0
   -2.0089   13.1975   -2.1055 H   0  0  0  0  0  0  0  0  0  0  0  0
   -1.6723   13.1233   -0.3777 H   0  0  0  0  0  0  0  0  0  0  0  0
   -1.0114   10.2627   -3.2405 H   0  0  0  0  0  0  0  0  0  0  0  0
   -1.4074   11.9830   -3.5730 H   0  0  0  0  0  0  0  0  0  0  0  0
    0.3046   11.4392   -3.5730 H   0  0  0  0  0  0  0  0  0  0  0  0
    0.6661   12.5270   -0.1578 H   0  0  0  0  0  0  0  0  0  0  0  0
    0.2564   14.0560   -2.1906 H   0  0  0  0  0  0  0  0  0  0  0  0
    1.8654   14.0699   -1.2963 H   0  0  0  0  0  0  0  0  0  0  0  0
    1.9924   14.1678   -3.9264 H   0  0  0  0  0  0  0  0  0  0  0  0
    1.8896   10.2159   -3.1057 H   0  0  0  0  0  0  0  0  0  0  0  0
    4.6954   11.1124   -2.2002 H   0  0  0  0  0  0  0  0  0  0  0  0
    3.9978    9.4349   -2.0970 H   0  0  0  0  0  0  0  0  0  0  0  0
    5.5733    9.6793   -3.9881 H   0  0  0  0  0  0  0  0  0  0  0  0
    3.8880    9.2984   -4.5173 H   0  0  0  0  0  0  0  0  0  0  0  0
    4.7890   10.9836   -5.9678 H   0  0  0  0  0  0  0  0  0  0  0  0
    5.9550   12.6230   -5.2000 H   0  0  0  0  0  0  0  0  0  0  0  0
    1.5428   10.4994   -5.1685 H   0  0  0  0  0  0  0  0  0  0  0  0
    1.5349   11.7181   -6.4880 H   0  0  0  0  0  0  0  0  0  0  0  0
    2.7578   10.4023   -6.4880 H   0  0  0  0  0  0  0  0  0  0  0  0
    3.3925   14.1424   -5.1392 H   0  0  0  0  0  0  0  0  0  0  0  0
    4.1892   13.2370   -6.4705 H   0  0  0  0  0  0  0  0  0  0  0  0
    2.4055   13.4494   -6.4705 H   0  0  0  0  0  0  0  0  0  0  0  0
    2.8166   11.6016    0.7627 H   0  0  0  0  0  0  0  0  0  0  0  0
    4.0573   11.2298   -0.4819 H   0  0  0  0  0  0  0  0  0  0  0  0
    3.2356   12.8272   -0.4819 H   0  0  0  0  0  0  0  0  0  0  0  0
    2.2800    9.0344   -1.0032 H   0  0  0  0  0  0  0  0  0  0  0  0
    1.6089    9.9309    0.4735 H   0  0  0  0  0  0  0  0  0  0  0  0
    0.0880    9.0163   -1.9826 H   0  0  0  0  0  0  0  0  0  0  0  0
   -0.0680    8.4372   -0.2774 H   0  0  0  0  0  0  0  0  0  0  0  0
   -0.9904    9.8043    1.4735 H   0  0  0  0  0  0  0  0  0  0  0  0
    0.1767   11.1296    1.1449 H   0  0  0  0  0  0  0  0  0  0  0  0
   -1.5877   11.4663    1.1449 H   0  0  0  0  0  0  0  0  0  0  0  0
  1  2  1  0
  2  3  1  0
  3  4  1  0
  4  5  1  0
  5  6  1  0
  6  7  1  0
  7  8  1  0
  7  9  1  0
  2 10  1  0
 10 11  1  0
 11 12  1  0
 12 13  1  0
 13 14  1  6
 13 15  1  0
 15 16  1  0
 16 17  1  0
 17 18  2  0
 18 19  1  0
 19 20  1  0
 20 21  1  0
 21 22  1  0
 22 23  1  0
 22 24  1  0
 24 25  1  0
 24 26  1  0
 19 27  1  0
 27 28  1  1
 27 29  1  0
 29 30  1  0
 30 31  1  0
 31 32  1  1
  7  5  1  0
 31 10  1  0
 31 13  1  0
 27 15  1  0
 24 18  1  0
  1 33  1  0
  1 34  1  0
  1 35  1  0
  2 36  1  1
  3 37  1  0
  3 38  1  0
  4 39  1  0
  4 40  1  0
  5 41  1  6
  8 42  1  0
  8 43  1  0
  8 44  1  0
  9 45  1  0
  9 46  1  0
  9 47  1  0
 10 48  1  6
 11 49  1  0
 11 50  1  0
 12 51  1  0
 12 52  1  0
 14 53  1  0
 14 54  1  0
 14 55  1  0
 15 56  1  1
 16 57  1  0
 16 58  1  0
 17 59  1  0
 19 60  1  6
 20 61  1  0
 20 62  1  0
 21 63  1  0
 21 64  1  0
 22 65  1  6
 23 66  1  0
 25 67  1  0
 25 68  1  0
 25 69  1  0
 26 70  1  0
 26 71  1  0
 26 72  1  0
 28 73  1  0
 28 74  1  0
 28 75  1  0
 29 76  1  0
 29 77  1  0
 30 78  1  0
 30 79  1  0
 32 80  1  0
 32 81  1  0
 32 82  1  0
M  END
>  <meeko>  (19) 
{"is_sidechain": [false], "intermolecular_energy": 2.731, "internal_energy": -0.839}

$$$$
