EPH_relaxed_0001_pdb2pqr_Repair_51_r2_0001_out
     RDKit          3D

 82 86  0  0  0  0  0  0  0  0999 V2000
   -1.6880    8.5800   -1.8840 C   0  0  0  0  0  0  0  0  0  0  0  0
   -2.0630    9.0820   -0.4870 C   0  0  2  0  0  0  0  0  0  0  0  0
   -3.5620    9.4280   -0.3760 C   0  0  0  0  0  0  0  0  0  0  0  0
   -4.4700    8.1990   -0.2700 C   0  0  0  0  0  0  0  0  0  0  0  0
   -5.2610    7.9850   -1.5250 C   0  0  2  0  0  0  0  0  0  0  0  0
   -6.3690    8.8780   -1.6950 O   0  0  0  0  0  0  0  0  0  0  0  0
   -6.6940    7.4880   -1.5360 C   0  0  0  0  0  0  0  0  0  0  0  0
   -7.4210    7.1750   -0.2660 C   0  0  0  0  0  0  0  0  0  0  0  0
   -7.2190    6.8460   -2.7820 C   0  0  0  0  0  0  0  0  0  0  0  0
   -1.2200   10.3010   -0.1290 C   0  0  1  0  0  0  0  0  0  0  0  0
   -0.2060   10.0120    1.0100 C   0  0  0  0  0  0  0  0  0  0  0  0
    1.0620   10.8490    0.7020 C   0  0  0  0  0  0  0  0  0  0  0  0
    0.6210   11.8340   -0.4050 C   0  0  1  0  0  0  0  0  0  0  0  0
   -0.1090   12.9870    0.3520 C   0  0  0  0  0  0  0  0  0  0  0  0
    1.7520   12.3800   -1.3360 C   0  0  2  0  0  0  0  0  0  0  0  0
    2.8360   13.2100   -0.6270 C   0  0  0  0  0  0  0  0  0  0  0  0
    2.5720   14.6780   -0.5580 C   0  0  0  0  0  0  0  0  0  0  0  0
    1.6560   15.3430   -1.2860 C   0  0  0  0  0  0  0  0  0  0  0  0
    0.8360   14.6250   -2.3660 C   0  0  1  0  0  0  0  0  0  0  0  0
    0.8240   15.4780   -3.6610 C   0  0  0  0  0  0  0  0  0  0  0  0
    0.3440   16.9060   -3.4170 C   0  0  0  0  0  0  0  0  0  0  0  0
    1.2190   17.6060   -2.3810 C   0  0  2  0  0  0  0  0  0  0  0  0
    2.5300   17.7820   -2.9280 O   0  0  0  0  0  0  0  0  0  0  0  0
    1.3150   16.8320   -1.0360 C   0  0  0  0  0  0  0  0  0  0  0  0
   -0.0450   16.9020   -0.2980 C   0  0  0  0  0  0  0  0  0  0  0  0
    2.3370   17.5710   -0.1310 C   0  0  0  0  0  0  0  0  0  0  0  0
    1.2250   13.1080   -2.6380 C   0  0  1  0  0  0  0  0  0  0  0  0
    2.3770   13.0340   -3.6860 C   0  0  0  0  0  0  0  0  0  0  0  0
   -0.0070   12.3680   -3.2800 C   0  0  0  0  0  0  0  0  0  0  0  0
   -1.0280   11.7460   -2.3080 C   0  0  0  0  0  0  0  0  0  0  0  0
   -0.3250   10.8990   -1.2430 C   0  0  2  0  0  0  0  0  0  0  0  0
    0.3990    9.7170   -1.9730 C   0  0  0  0  0  0  0  0  0  0  0  0
   -1.0319    7.7017   -1.7941 H   0  0  0  0  0  0  0  0  0  0  0  0
   -2.6009    8.3013   -2.4308 H   0  0  0  0  0  0  0  0  0  0  0  0
   -1.1618    9.3763   -2.4308 H   0  0  0  0  0  0  0  0  0  0  0  0
   -1.8591    8.2666    0.2226 H   0  0  0  0  0  0  0  0  0  0  0  0
   -3.7101   10.0479    0.5205 H   0  0  0  0  0  0  0  0  0  0  0  0
   -3.8402    9.9552   -1.3005 H   0  0  0  0  0  0  0  0  0  0  0  0
   -3.8479    7.3109   -0.0848 H   0  0  0  0  0  0  0  0  0  0  0  0
   -5.1764    8.3645    0.5568 H   0  0  0  0  0  0  0  0  0  0  0  0
   -4.3607    7.6535   -2.0632 H   0  0  0  0  0  0  0  0  0  0  0  0
   -6.7907    7.4464    0.5937 H   0  0  0  0  0  0  0  0  0  0  0  0
   -8.3585    7.7492   -0.2291 H   0  0  0  0  0  0  0  0  0  0  0  0
   -7.6482    6.0993   -0.2291 H   0  0  0  0  0  0  0  0  0  0  0  0
   -7.8941    6.0204   -2.5126 H   0  0  0  0  0  0  0  0  0  0  0  0
   -7.7696    7.5915   -3.3746 H   0  0  0  0  0  0  0  0  0  0  0  0
   -6.3791    6.4543   -3.3746 H   0  0  0  0  0  0  0  0  0  0  0  0
   -2.0207   11.0090    0.1309 H   0  0  0  0  0  0  0  0  0  0  0  0
   -0.6305   10.3102    1.9800 H   0  0  0  0  0  0  0  0  0  0  0  0
    0.0320    8.9394    1.0646 H   0  0  0  0  0  0  0  0  0  0  0  0
    1.3938   11.3948    1.5976 H   0  0  0  0  0  0  0  0  0  0  0  0
    1.9094   10.2217    0.3883 H   0  0  0  0  0  0  0  0  0  0  0  0
   -0.0114   12.8329    1.4368 H   0  0  0  0  0  0  0  0  0  0  0  0
    0.3438   13.9509    0.0764 H   0  0  0  0  0  0  0  0  0  0  0  0
   -1.1739   12.9900    0.0764 H   0  0  0  0  0  0  0  0  0  0  0  0
    2.2512   11.4574   -1.6671 H   0  0  0  0  0  0  0  0  0  0  0  0
    2.9337   12.8335    0.4019 H   0  0  0  0  0  0  0  0  0  0  0  0
    3.7502   13.0931   -1.2276 H   0  0  0  0  0  0  0  0  0  0  0  0
    3.1775   15.2657    0.1476 H   0  0  0  0  0  0  0  0  0  0  0  0
   -0.1851   14.5408   -1.9658 H   0  0  0  0  0  0  0  0  0  0  0  0
    1.8449   15.5141   -4.0689 H   0  0  0  0  0  0  0  0  0  0  0  0
    0.1230   15.0060   -4.3651 H   0  0  0  0  0  0  0  0  0  0  0  0
    0.3869   17.4667   -4.3624 H   0  0  0  0  0  0  0  0  0  0  0  0
   -0.6880   16.8696   -3.0379 H   0  0  0  0  0  0  0  0  0  0  0  0
    0.7494   18.5743   -2.1534 H   0  0  0  0  0  0  0  0  0  0  0  0
    3.0720   17.0270   -2.6430 H   0  0  0  0  0  0  0  0  0  0  0  0
    0.1265   16.8932    0.7885 H   0  0  0  0  0  0  0  0  0  0  0  0
   -0.5675   17.8282   -0.5792 H   0  0  0  0  0  0  0  0  0  0  0  0
   -0.6599   16.0343   -0.5792 H   0  0  0  0  0  0  0  0  0  0  0  0
    2.0884   17.3913    0.9254 H   0  0  0  0  0  0  0  0  0  0  0  0
    3.3497   17.1949   -0.3385 H   0  0  0  0  0  0  0  0  0  0  0  0
    2.2971   18.6505   -0.3385 H   0  0  0  0  0  0  0  0  0  0  0  0
    3.3436   12.9719   -3.1646 H   0  0  0  0  0  0  0  0  0  0  0  0
    2.2425   12.1426   -4.3164 H   0  0  0  0  0  0  0  0  0  0  0  0
    2.3577   13.9352   -4.3164 H   0  0  0  0  0  0  0  0  0  0  0  0
   -0.5439   13.0966   -3.9051 H   0  0  0  0  0  0  0  0  0  0  0  0
    0.4227   11.5172   -3.8291 H   0  0  0  0  0  0  0  0  0  0  0  0
   -1.5910   12.5513   -1.8135 H   0  0  0  0  0  0  0  0  0  0  0  0
   -1.7071   11.0970   -2.8804 H   0  0  0  0  0  0  0  0  0  0  0  0
    0.8209    9.0282   -1.2262 H   0  0  0  0  0  0  0  0  0  0  0  0
   -0.3236    9.1773   -2.6027 H   0  0  0  0  0  0  0  0  0  0  0  0
    1.2081   10.1155   -2.6027 H   0  0  0  0  0  0  0  0  0  0  0  0
  1  2  1  0
  2  3  1  0
  3  4  1  0
  4  5  1  0
  5  6  1  0
  6  7  1  0
  7  8  1  0
  7  9  1  0
  2 10  1  0
 10 11  1  0
 11 12  1  0
 12 13  1  0
 13 14  1  1
 13 15  1  0
 15 16  1  0
 16 17  1  0
 17 18  2  0
 18 19  1  0
 19 20  1  0
 20 21  1  0
 21 22  1  0
 22 23  1  0
 22 24  1  0
 24 25  1  0
 24 26  1  0
 19 27  1  0
 27 28  1  6
 27 29  1  0
 29 30  1  0
 30 31  1  0
 31 32  1  6
  7  5  1  0
 31 10  1  0
 31 13  1  0
 27 15  1  0
 24 18  1  0
  1 33  1  0
  1 34  1  0
  1 35  1  0
  2 36  1  1
  3 37  1  0
  3 38  1  0
  4 39  1  0
  4 40  1  0
  5 41  1  6
  8 42  1  0
  8 43  1  0
  8 44  1  0
  9 45  1  0
  9 46  1  0
  9 47  1  0
 10 48  1  1
 11 49  1  0
 11 50  1  0
 12 51  1  0
 12 52  1  0
 14 53  1  0
 14 54  1  0
 14 55  1  0
 15 56  1  6
 16 57  1  0
 16 58  1  0
 17 59  1  0
 19 60  1  1
 20 61  1  0
 20 62  1  0
 21 63  1  0
 21 64  1  0
 22 65  1  1
 23 66  1  0
 25 67  1  0
 25 68  1  0
 25 69  1  0
 26 70  1  0
 26 71  1  0
 26 72  1  0
 28 73  1  0
 28 74  1  0
 28 75  1  0
 29 76  1  0
 29 77  1  0
 30 78  1  0
 30 79  1  0
 32 80  1  0
 32 81  1  0
 32 82  1  0
M  END
>  <meeko>  (1) 
{"is_sidechain": [false], "intermolecular_energy": 2.731, "internal_energy": -0.839}

$$$$
EPH_relaxed_0001_pdb2pqr_Repair_51_r2_0001_out
     RDKit          3D

 82 86  0  0  0  0  0  0  0  0999 V2000
    4.2900   17.5510   -0.6730 C   0  0  0  0  0  0  0  0  0  0  0  0
    2.9300   18.1360   -0.2820 C   0  0  2  0  0  0  0  0  0  0  0  0
    2.9830   18.8700    1.0730 C   0  0  0  0  0  0  0  0  0  0  0  0
    4.2950   18.6640    1.8350 C   0  0  0  0  0  0  0  0  0  0  0  0
    4.2350   19.2500    3.2130 C   0  0  2  0  0  0  0  0  0  0  0  0
    5.2740   20.1920    3.5090 O   0  0  0  0  0  0  0  0  0  0  0  0
    5.2770   18.9820    4.2820 C   0  0  0  0  0  0  0  0  0  0  0  0
    6.4540   18.0950    4.0210 C   0  0  0  0  0  0  0  0  0  0  0  0
    4.8980   19.1820    5.7170 C   0  0  0  0  0  0  0  0  0  0  0  0
    1.8830   17.0300   -0.2340 C   0  0  1  0  0  0  0  0  0  0  0  0
    0.4470   17.5560   -0.4990 C   0  0  0  0  0  0  0  0  0  0  0  0
   -0.3010   16.4430   -1.2770 C   0  0  0  0  0  0  0  0  0  0  0  0
    0.6070   15.1980   -1.1450 C   0  0  1  0  0  0  0  0  0  0  0  0
    0.2780   14.6090    0.2630 C   0  0  0  0  0  0  0  0  0  0  0  0
    0.4680   14.1190   -2.2680 C   0  0  2  0  0  0  0  0  0  0  0  0
   -0.9170   13.4560   -2.3690 C   0  0  0  0  0  0  0  0  0  0  0  0
   -1.0940   12.2210   -1.5500 C   0  0  0  0  0  0  0  0  0  0  0  0
   -0.1010   11.5050   -0.9890 C   0  0  0  0  0  0  0  0  0  0  0  0
    1.3690   11.8680   -1.2390 C   0  0  1  0  0  0  0  0  0  0  0  0
    2.1680   10.5830   -1.5800 C   0  0  0  0  0  0  0  0  0  0  0  0
    2.0070    9.4950   -0.5220 C   0  0  0  0  0  0  0  0  0  0  0  0
    0.5370    9.1210   -0.3450 C   0  0  2  0  0  0  0  0  0  0  0  0
    0.0730    8.4930   -1.5440 O   0  0  0  0  0  0  0  0  0  0  0  0
   -0.3680   10.3380   -0.0070 C   0  0  0  0  0  0  0  0  0  0  0  0
   -0.0640   10.8310    1.4290 C   0  0  0  0  0  0  0  0  0  0  0  0
   -1.8410    9.8480    0.0060 C   0  0  0  0  0  0  0  0  0  0  0  0
    1.6260   13.0410   -2.2790 C   0  0  1  0  0  0  0  0  0  0  0  0
    1.6860   12.4650   -3.7270 C   0  0  0  0  0  0  0  0  0  0  0  0
    3.0380   13.6780   -1.9960 C   0  0  0  0  0  0  0  0  0  0  0  0
    3.0910   14.8200   -0.9630 C   0  0  0  0  0  0  0  0  0  0  0  0
    2.0210   15.8750   -1.2580 C   0  0  2  0  0  0  0  0  0  0  0  0
    2.3380   16.5010   -2.6590 C   0  0  0  0  0  0  0  0  0  0  0  0
    4.8589   17.3063    0.2361 H   0  0  0  0  0  0  0  0  0  0  0  0
    4.1391   16.6382   -1.2680 H   0  0  0  0  0  0  0  0  0  0  0  0
    4.8489   18.2883   -1.2680 H   0  0  0  0  0  0  0  0  0  0  0  0
    2.6545   18.8754   -1.0484 H   0  0  0  0  0  0  0  0  0  0  0  0
    2.8535   19.9469    0.8897 H   0  0  0  0  0  0  0  0  0  0  0  0
    2.1802   18.4503    1.6970 H   0  0  0  0  0  0  0  0  0  0  0  0
    4.4949   17.5853    1.9150 H   0  0  0  0  0  0  0  0  0  0  0  0
    5.0966   19.1741    1.2807 H   0  0  0  0  0  0  0  0  0  0  0  0
    3.1371   19.1823    3.2192 H   0  0  0  0  0  0  0  0  0  0  0  0
    6.8868   17.7689    4.9783 H   0  0  0  0  0  0  0  0  0  0  0  0
    6.1296   17.2149    3.4465 H   0  0  0  0  0  0  0  0  0  0  0  0
    7.2107   18.6494    3.4465 H   0  0  0  0  0  0  0  0  0  0  0  0
    5.6841   18.7672    6.3651 H   0  0  0  0  0  0  0  0  0  0  0  0
    4.7849   20.2572    5.9200 H   0  0  0  0  0  0  0  0  0  0  0  0
    3.9466   18.6685    5.9200 H   0  0  0  0  0  0  0  0  0  0  0  0
    2.0588   16.6531    0.7843 H   0  0  0  0  0  0  0  0  0  0  0  0
   -0.0633   17.7605    0.4538 H   0  0  0  0  0  0  0  0  0  0  0  0
    0.4698   18.4930   -1.0747 H   0  0  0  0  0  0  0  0  0  0  0  0
   -1.2881   16.2530   -0.8302 H   0  0  0  0  0  0  0  0  0  0  0  0
   -0.4830   16.7175   -2.3265 H   0  0  0  0  0  0  0  0  0  0  0  0
    0.6568   15.2872    1.0418 H   0  0  0  0  0  0  0  0  0  0  0  0
   -0.8114   14.5004    0.3696 H   0  0  0  0  0  0  0  0  0  0  0  0
    0.7568   13.6244    0.3696 H   0  0  0  0  0  0  0  0  0  0  0  0
    0.5804   14.7178   -3.1839 H   0  0  0  0  0  0  0  0  0  0  0  0
   -1.6695   14.1898   -2.0445 H   0  0  0  0  0  0  0  0  0  0  0  0
   -1.0293   13.1442   -3.4179 H   0  0  0  0  0  0  0  0  0  0  0  0
   -2.1228   11.8655   -1.3911 H   0  0  0  0  0  0  0  0  0  0  0  0
    1.7405   12.2999   -0.2980 H   0  0  0  0  0  0  0  0  0  0  0  0
    1.8120   10.1921   -2.5446 H   0  0  0  0  0  0  0  0  0  0  0  0
    3.2334   10.8536   -1.6208 H   0  0  0  0  0  0  0  0  0  0  0  0
    2.5706    8.6032   -0.8337 H   0  0  0  0  0  0  0  0  0  0  0  0
    2.3906    9.8763    0.4358 H   0  0  0  0  0  0  0  0  0  0  0  0
    0.4719    8.4349    0.5124 H   0  0  0  0  0  0  0  0  0  0  0  0
   -0.0280    7.5440   -1.3600 H   0  0  0  0  0  0  0  0  0  0  0  0
   -0.4968   10.1291    2.1570 H   0  0  0  0  0  0  0  0  0  0  0  0
    1.0249   10.8857    1.5751 H   0  0  0  0  0  0  0  0  0  0  0  0
   -0.5041   11.8285    1.5751 H   0  0  0  0  0  0  0  0  0  0  0  0
   -2.1807    9.7350    1.0461 H   0  0  0  0  0  0  0  0  0  0  0  0
   -2.4765   10.5831   -0.5095 H   0  0  0  0  0  0  0  0  0  0  0  0
   -1.9095    8.8787   -0.5095 H   0  0  0  0  0  0  0  0  0  0  0  0
    1.7999   11.3718   -3.6823 H   0  0  0  0  0  0  0  0  0  0  0  0
    0.7569   12.7154   -4.2600 H   0  0  0  0  0  0  0  0  0  0  0  0
    2.5435   12.9015   -4.2600 H   0  0  0  0  0  0  0  0  0  0  0  0
    3.6996   12.8751   -1.6386 H   0  0  0  0  0  0  0  0  0  0  0  0
    3.3425   14.1370   -2.9481 H   0  0  0  0  0  0  0  0  0  0  0  0
    2.9202   14.4051    0.0413 H   0  0  0  0  0  0  0  0  0  0  0  0
    4.0801   15.2981   -1.0186 H   0  0  0  0  0  0  0  0  0  0  0  0
    2.8311   17.4748   -2.5224 H   0  0  0  0  0  0  0  0  0  0  0  0
    3.0040   15.8281   -3.2191 H   0  0  0  0  0  0  0  0  0  0  0  0
    1.4015   16.6396   -3.2191 H   0  0  0  0  0  0  0  0  0  0  0  0
  1  2  1  0
  2  3  1  0
  3  4  1  0
  4  5  1  0
  5  6  1  0
  6  7  1  0
  7  8  1  0
  7  9  1  0
  2 10  1  0
 10 11  1  0
 11 12  1  0
 12 13  1  0
 13 14  1  1
 13 15  1  0
 15 16  1  0
 16 17  1  0
 17 18  2  0
 18 19  1  0
 19 20  1  0
 20 21  1  0
 21 22  1  0
 22 23  1  0
 22 24  1  0
 24 25  1  0
 24 26  1  0
 19 27  1  0
 27 28  1  6
 27 29  1  0
 29 30  1  0
 30 31  1  0
 31 32  1  6
  7  5  1  0
 31 10  1  0
 31 13  1  0
 27 15  1  0
 24 18  1  0
  1 33  1  0
  1 34  1  0
  1 35  1  0
  2 36  1  6
  3 37  1  0
  3 38  1  0
  4 39  1  0
  4 40  1  0
  5 41  1  1
  8 42  1  0
  8 43  1  0
  8 44  1  0
  9 45  1  0
  9 46  1  0
  9 47  1  0
 10 48  1  1
 11 49  1  0
 11 50  1  0
 12 51  1  0
 12 52  1  0
 14 53  1  0
 14 54  1  0
 14 55  1  0
 15 56  1  6
 16 57  1  0
 16 58  1  0
 17 59  1  0
 19 60  1  1
 20 61  1  0
 20 62  1  0
 21 63  1  0
 21 64  1  0
 22 65  1  1
 23 66  1  0
 25 67  1  0
 25 68  1  0
 25 69  1  0
 26 70  1  0
 26 71  1  0
 26 72  1  0
 28 73  1  0
 28 74  1  0
 28 75  1  0
 29 76  1  0
 29 77  1  0
 30 78  1  0
 30 79  1  0
 32 80  1  0
 32 81  1  0
 32 82  1  0
M  END
>  <meeko>  (2) 
{"is_sidechain": [false], "intermolecular_energy": 2.731, "internal_energy": -0.839}

$$$$
EPH_relaxed_0001_pdb2pqr_Repair_51_r2_0001_out
     RDKit          3D

 82 86  0  0  0  0  0  0  0  0999 V2000
    0.3490   18.5180   -0.2390 C   0  0  0  0  0  0  0  0  0  0  0  0
    1.4240   17.4330   -0.3530 C   0  0  2  0  0  0  0  0  0  0  0  0
    2.6880   17.9430   -1.0730 C   0  0  0  0  0  0  0  0  0  0  0  0
    3.9050   18.0850   -0.1540 C   0  0  0  0  0  0  0  0  0  0  0  0
    3.5180   18.5900    1.2030 C   0  0  2  0  0  0  0  0  0  0  0  0
    3.7240   19.9950    1.4000 O   0  0  0  0  0  0  0  0  0  0  0  0
    4.5180   19.1180    2.2150 C   0  0  0  0  0  0  0  0  0  0  0  0
    5.9830   19.1660    1.9130 C   0  0  0  0  0  0  0  0  0  0  0  0
    4.1340   19.1270    3.6620 C   0  0  0  0  0  0  0  0  0  0  0  0
    0.8620   16.2190   -1.0830 C   0  0  1  0  0  0  0  0  0  0  0  0
    0.7400   16.4460   -2.6140 C   0  0  0  0  0  0  0  0  0  0  0  0
    1.0430   15.0860   -3.2930 C   0  0  0  0  0  0  0  0  0  0  0  0
    1.0010   14.0560   -2.1400 C   0  0  1  0  0  0  0  0  0  0  0  0
   -0.5160   13.7550   -1.9260 C   0  0  0  0  0  0  0  0  0  0  0  0
    1.8250   12.7450   -2.3540 C   0  0  2  0  0  0  0  0  0  0  0  0
    1.3680   11.8720   -3.5360 C   0  0  0  0  0  0  0  0  0  0  0  0
    0.3410   10.8390   -3.2070 C   0  0  0  0  0  0  0  0  0  0  0  0
    0.0150   10.4280   -1.9670 C   0  0  0  0  0  0  0  0  0  0  0  0
    0.7760   10.9470   -0.7400 C   0  0  1  0  0  0  0  0  0  0  0  0
    1.1350    9.7560    0.1880 C   0  0  0  0  0  0  0  0  0  0  0  0
   -0.0850    8.9210    0.5670 C   0  0  0  0  0  0  0  0  0  0  0  0
   -0.7800    8.3760   -0.6780 C   0  0  2  0  0  0  0  0  0  0  0  0
    0.0870    7.4320   -1.3140 O   0  0  0  0  0  0  0  0  0  0  0  0
   -1.1810    9.4840   -1.6910 C   0  0  0  0  0  0  0  0  0  0  0  0
   -2.3420   10.3270   -1.1090 C   0  0  0  0  0  0  0  0  0  0  0  0
   -1.7430    8.7890   -2.9610 C   0  0  0  0  0  0  0  0  0  0  0  0
    2.0240   11.8830   -1.0420 C   0  0  1  0  0  0  0  0  0  0  0  0
    3.2980   11.0130   -1.2690 C   0  0  0  0  0  0  0  0  0  0  0  0
    2.3150   12.7750    0.2220 C   0  0  0  0  0  0  0  0  0  0  0  0
    1.5590   14.1140    0.3170 C   0  0  0  0  0  0  0  0  0  0  0  0
    1.6690   14.8990   -0.9940 C   0  0  2  0  0  0  0  0  0  0  0  0
    3.1820   15.2360   -1.2240 C   0  0  0  0  0  0  0  0  0  0  0  0
    0.1460   18.7229    0.8225 H   0  0  0  0  0  0  0  0  0  0  0  0
    0.7025   19.4373   -0.7288 H   0  0  0  0  0  0  0  0  0  0  0  0
   -0.5735   18.1730   -0.7288 H   0  0  0  0  0  0  0  0  0  0  0  0
    1.7177   17.1487    0.6682 H   0  0  0  0  0  0  0  0  0  0  0  0
    2.9399   17.2346   -1.8760 H   0  0  0  0  0  0  0  0  0  0  0  0
    2.4561   18.9474   -1.4569 H   0  0  0  0  0  0  0  0  0  0  0  0
    4.3861   17.1018   -0.0448 H   0  0  0  0  0  0  0  0  0  0  0  0
    4.5944   18.8126   -0.6073 H   0  0  0  0  0  0  0  0  0  0  0  0
    2.7161   17.8409    1.2794 H   0  0  0  0  0  0  0  0  0  0  0  0
    6.5511   19.1846    2.8548 H   0  0  0  0  0  0  0  0  0  0  0  0
    6.2668   18.2767    1.3311 H   0  0  0  0  0  0  0  0  0  0  0  0
    6.2079   20.0720    1.3311 H   0  0  0  0  0  0  0  0  0  0  0  0
    5.0421   19.1057    4.2825 H   0  0  0  0  0  0  0  0  0  0  0  0
    3.5599   20.0388    3.8834 H   0  0  0  0  0  0  0  0  0  0  0  0
    3.5179   18.2431    3.8834 H   0  0  0  0  0  0  0  0  0  0  0  0
   -0.0954   16.1115   -0.5521 H   0  0  0  0  0  0  0  0  0  0  0  0
   -0.2776   16.7778   -2.8679 H   0  0  0  0  0  0  0  0  0  0  0  0
    1.4403   17.2226   -2.9553 H   0  0  0  0  0  0  0  0  0  0  0  0
    0.2807   14.8519   -4.0507 H   0  0  0  0  0  0  0  0  0  0  0  0
    2.0108   15.0874   -3.8159 H   0  0  0  0  0  0  0  0  0  0  0  0
   -0.7328   13.7120   -0.8484 H   0  0  0  0  0  0  0  0  0  0  0  0
   -1.1168   14.5514   -2.3894 H   0  0  0  0  0  0  0  0  0  0  0  0
   -0.7672   12.7895   -2.3894 H   0  0  0  0  0  0  0  0  0  0  0  0
    2.8154   13.1327   -2.6347 H   0  0  0  0  0  0  0  0  0  0  0  0
    0.9479   12.5356   -4.3061 H   0  0  0  0  0  0  0  0  0  0  0  0
    2.2592   11.3196   -3.8685 H   0  0  0  0  0  0  0  0  0  0  0  0
   -0.1942   10.3748   -4.0485 H   0  0  0  0  0  0  0  0  0  0  0  0
    0.0872   11.6303   -0.2217 H   0  0  0  0  0  0  0  0  0  0  0  0
    1.8573    9.1093   -0.3317 H   0  0  0  0  0  0  0  0  0  0  0  0
    1.5570   10.1707    1.1154 H   0  0  0  0  0  0  0  0  0  0  0  0
    0.2366    8.0790    1.1976 H   0  0  0  0  0  0  0  0  0  0  0  0
   -0.7933    9.5613    1.1131 H   0  0  0  0  0  0  0  0  0  0  0  0
   -1.7153    7.8982   -0.3510 H   0  0  0  0  0  0  0  0  0  0  0  0
    0.8340    7.9270   -1.6920 H   0  0  0  0  0  0  0  0  0  0  0  0
   -2.3015   10.2976   -0.0101 H   0  0  0  0  0  0  0  0  0  0  0  0
   -2.2470   11.3679   -1.4517 H   0  0  0  0  0  0  0  0  0  0  0  0
   -3.3024    9.9144   -1.4517 H   0  0  0  0  0  0  0  0  0  0  0  0
   -2.4090    7.9654   -2.6640 H   0  0  0  0  0  0  0  0  0  0  0  0
   -2.3074    9.5194   -3.5593 H   0  0  0  0  0  0  0  0  0  0  0  0
   -0.9107    8.3899   -3.5593 H   0  0  0  0  0  0  0  0  0  0  0  0
    3.7222   10.7233   -0.2963 H   0  0  0  0  0  0  0  0  0  0  0  0
    3.0287   10.1093   -1.8354 H   0  0  0  0  0  0  0  0  0  0  0  0
    4.0417   11.5927   -1.8354 H   0  0  0  0  0  0  0  0  0  0  0  0
    2.0573   12.1836    1.1130 H   0  0  0  0  0  0  0  0  0  0  0  0
    3.3772   13.0495    0.1418 H   0  0  0  0  0  0  0  0  0  0  0  0
    0.4983   13.9143    0.5291 H   0  0  0  0  0  0  0  0  0  0  0  0
    2.0063   14.7133    1.1237 H   0  0  0  0  0  0  0  0  0  0  0  0
    3.6846   15.3479   -0.2520 H   0  0  0  0  0  0  0  0  0  0  0  0
    3.6570   14.4216   -1.7907 H   0  0  0  0  0  0  0  0  0  0  0  0
    3.2665   16.1750   -1.7907 H   0  0  0  0  0  0  0  0  0  0  0  0
  1  2  1  0
  2  3  1  0
  3  4  1  0
  4  5  1  0
  5  6  1  0
  6  7  1  0
  7  8  1  0
  7  9  1  0
  2 10  1  0
 10 11  1  0
 11 12  1  0
 12 13  1  0
 13 14  1  1
 13 15  1  0
 15 16  1  0
 16 17  1  0
 17 18  2  0
 18 19  1  0
 19 20  1  0
 20 21  1  0
 21 22  1  0
 22 23  1  0
 22 24  1  0
 24 25  1  0
 24 26  1  0
 19 27  1  0
 27 28  1  6
 27 29  1  0
 29 30  1  0
 30 31  1  0
 31 32  1  6
  7  5  1  0
 31 10  1  0
 31 13  1  0
 27 15  1  0
 24 18  1  0
  1 33  1  0
  1 34  1  0
  1 35  1  0
  2 36  1  1
  3 37  1  0
  3 38  1  0
  4 39  1  0
  4 40  1  0
  5 41  1  1
  8 42  1  0
  8 43  1  0
  8 44  1  0
  9 45  1  0
  9 46  1  0
  9 47  1  0
 10 48  1  1
 11 49  1  0
 11 50  1  0
 12 51  1  0
 12 52  1  0
 14 53  1  0
 14 54  1  0
 14 55  1  0
 15 56  1  6
 16 57  1  0
 16 58  1  0
 17 59  1  0
 19 60  1  1
 20 61  1  0
 20 62  1  0
 21 63  1  0
 21 64  1  0
 22 65  1  1
 23 66  1  0
 25 67  1  0
 25 68  1  0
 25 69  1  0
 26 70  1  0
 26 71  1  0
 26 72  1  0
 28 73  1  0
 28 74  1  0
 28 75  1  0
 29 76  1  0
 29 77  1  0
 30 78  1  0
 30 79  1  0
 32 80  1  0
 32 81  1  0
 32 82  1  0
M  END
>  <meeko>  (3) 
{"is_sidechain": [false], "intermolecular_energy": 2.731, "internal_energy": -0.839}

$$$$
EPH_relaxed_0001_pdb2pqr_Repair_51_r2_0001_out
     RDKit          3D

 82 86  0  0  0  0  0  0  0  0999 V2000
    2.6170   17.9410   -2.5840 C   0  0  0  0  0  0  0  0  0  0  0  0
    1.2390   17.6640   -1.9770 C   0  0  2  0  0  0  0  0  0  0  0  0
    1.2490   17.7740   -0.4390 C   0  0  0  0  0  0  0  0  0  0  0  0
    0.9020   19.1710    0.0810 C   0  0  0  0  0  0  0  0  0  0  0  0
   -0.5370   19.2710    0.4850 C   0  0  2  0  0  0  0  0  0  0  0  0
   -1.3940   18.2830   -0.1020 O   0  0  0  0  0  0  0  0  0  0  0  0
   -1.6510   19.6460   -0.4740 C   0  0  0  0  0  0  0  0  0  0  0  0
   -1.3730   19.9470   -1.9140 C   0  0  0  0  0  0  0  0  0  0  0  0
   -2.9260   20.1940    0.0880 C   0  0  0  0  0  0  0  0  0  0  0  0
    0.7540   16.2810   -2.3970 C   0  0  1  0  0  0  0  0  0  0  0  0
    0.8300   16.0630   -3.9320 C   0  0  0  0  0  0  0  0  0  0  0  0
    1.1930   14.5720   -4.1540 C   0  0  0  0  0  0  0  0  0  0  0  0
    0.9890   13.9110   -2.7700 C   0  0  1  0  0  0  0  0  0  0  0  0
   -0.5470   13.6520   -2.6720 C   0  0  0  0  0  0  0  0  0  0  0  0
    1.8120   12.6090   -2.4980 C   0  0  2  0  0  0  0  0  0  0  0  0
    1.4930   11.4290   -3.4320 C   0  0  0  0  0  0  0  0  0  0  0  0
    0.4160   10.5110   -2.9550 C   0  0  0  0  0  0  0  0  0  0  0  0
   -0.0710   10.4620   -1.7010 C   0  0  0  0  0  0  0  0  0  0  0  0
    0.5370   11.3220   -0.5860 C   0  0  1  0  0  0  0  0  0  0  0  0
    0.7560   10.4510    0.6790 C   0  0  0  0  0  0  0  0  0  0  0  0
   -0.5150    9.7330    1.1230 C   0  0  0  0  0  0  0  0  0  0  0  0
   -1.0570    8.8430    0.0070 C   0  0  2  0  0  0  0  0  0  0  0  0
   -0.1320    7.7760   -0.2210 O   0  0  0  0  0  0  0  0  0  0  0  0
   -1.3070    9.6100   -1.3220 C   0  0  0  0  0  0  0  0  0  0  0  0
   -2.5190   10.5610   -1.1530 C   0  0  0  0  0  0  0  0  0  0  0  0
   -1.7160    8.5730   -2.4020 C   0  0  0  0  0  0  0  0  0  0  0  0
    1.8290   12.1590   -0.9810 C   0  0  1  0  0  0  0  0  0  0  0  0
    3.1070   11.2860   -0.7910 C   0  0  0  0  0  0  0  0  0  0  0  0
    1.9730   13.3790    0.0040 C   0  0  0  0  0  0  0  0  0  0  0  0
    1.2330   14.6740   -0.3820 C   0  0  0  0  0  0  0  0  0  0  0  0
    1.5210   15.0580   -1.8360 C   0  0  2  0  0  0  0  0  0  0  0  0
    3.0560   15.3460   -1.9600 C   0  0  0  0  0  0  0  0  0  0  0  0
    3.3501   18.0884   -1.7773 H   0  0  0  0  0  0  0  0  0  0  0  0
    2.9225   17.0863   -3.2054 H   0  0  0  0  0  0  0  0  0  0  0  0
    2.5685   18.8474   -3.2054 H   0  0  0  0  0  0  0  0  0  0  0  0
    0.5494   18.4315   -2.3584 H   0  0  0  0  0  0  0  0  0  0  0  0
    0.5150   17.0611   -0.0352 H   0  0  0  0  0  0  0  0  0  0  0  0
    2.2746   17.5538   -0.1080 H   0  0  0  0  0  0  0  0  0  0  0  0
    1.5334   19.3933    0.9538 H   0  0  0  0  0  0  0  0  0  0  0  0
    1.0812   19.8926   -0.7297 H   0  0  0  0  0  0  0  0  0  0  0  0
   -0.2561   19.6557    1.4765 H   0  0  0  0  0  0  0  0  0  0  0  0
   -0.6281   20.7535   -1.9828 H   0  0  0  0  0  0  0  0  0  0  0  0
   -0.9835   19.0450   -2.4086 H   0  0  0  0  0  0  0  0  0  0  0  0
   -2.3031   20.2637   -2.4086 H   0  0  0  0  0  0  0  0  0  0  0  0
   -2.8806   20.1745    1.1869 H   0  0  0  0  0  0  0  0  0  0  0  0
   -3.0624   21.2302   -0.2550 H   0  0  0  0  0  0  0  0  0  0  0  0
   -3.7717   19.5799   -0.2550 H   0  0  0  0  0  0  0  0  0  0  0  0
   -0.2645   16.3081   -1.9822 H   0  0  0  0  0  0  0  0  0  0  0  0
   -0.1416   16.2895   -4.3954 H   0  0  0  0  0  0  0  0  0  0  0  0
    1.5808   16.7247   -4.3885 H   0  0  0  0  0  0  0  0  0  0  0  0
    0.5280   14.1177   -4.9032 H   0  0  0  0  0  0  0  0  0  0  0  0
    2.2185   14.4437   -4.5307 H   0  0  0  0  0  0  0  0  0  0  0  0
   -0.8436   13.6020   -1.6139 H   0  0  0  0  0  0  0  0  0  0  0  0
   -1.0893   14.4714   -3.1665 H   0  0  0  0  0  0  0  0  0  0  0  0
   -0.7906   12.7001   -3.1665 H   0  0  0  0  0  0  0  0  0  0  0  0
    2.8368   12.9195   -2.7498 H   0  0  0  0  0  0  0  0  0  0  0  0
    1.1838   11.8393   -4.4046 H   0  0  0  0  0  0  0  0  0  0  0  0
    2.4098   10.8231   -3.4808 H   0  0  0  0  0  0  0  0  0  0  0  0
   -0.0158    9.8162   -3.6904 H   0  0  0  0  0  0  0  0  0  0  0  0
   -0.2009   12.1098   -0.3742 H   0  0  0  0  0  0  0  0  0  0  0  0
    1.5276    9.6984    0.4595 H   0  0  0  0  0  0  0  0  0  0  0  0
    1.0637   11.1204    1.4958 H   0  0  0  0  0  0  0  0  0  0  0  0
   -0.2889    9.1111    2.0017 H   0  0  0  0  0  0  0  0  0  0  0  0
   -1.2760   10.4875    1.3713 H   0  0  0  0  0  0  0  0  0  0  0  0
   -2.0339    8.4592    0.3362 H   0  0  0  0  0  0  0  0  0  0  0  0
    0.5520    7.8270    0.4680 H   0  0  0  0  0  0  0  0  0  0  0  0
   -2.7168   10.7162   -0.0821 H   0  0  0  0  0  0  0  0  0  0  0  0
   -2.2958   11.5275   -1.6285 H   0  0  0  0  0  0  0  0  0  0  0  0
   -3.4047   10.1143   -1.6285 H   0  0  0  0  0  0  0  0  0  0  0  0
   -2.0774    7.6567   -1.9123 H   0  0  0  0  0  0  0  0  0  0  0  0
   -2.5157    8.9932   -3.0296 H   0  0  0  0  0  0  0  0  0  0  0  0
   -0.8447    8.3341   -3.0296 H   0  0  0  0  0  0  0  0  0  0  0  0
    3.3032   11.1520    0.2830 H   0  0  0  0  0  0  0  0  0  0  0  0
    2.9531   10.3035   -1.2610 H   0  0  0  0  0  0  0  0  0  0  0  0
    3.9663   11.7867   -1.2610 H   0  0  0  0  0  0  0  0  0  0  0  0
    1.5951   13.0599    0.9865 H   0  0  0  0  0  0  0  0  0  0  0  0
    3.0412   13.6408   -0.0160 H   0  0  0  0  0  0  0  0  0  0  0  0
    0.1508   14.5205   -0.2581 H   0  0  0  0  0  0  0  0  0  0  0  0
    1.5843   15.4864    0.2712 H   0  0  0  0  0  0  0  0  0  0  0  0
    3.4959   15.4285   -0.9552 H   0  0  0  0  0  0  0  0  0  0  0  0
    3.5405   14.5231   -2.5059 H   0  0  0  0  0  0  0  0  0  0  0  0
    3.2093   16.2886   -2.5059 H   0  0  0  0  0  0  0  0  0  0  0  0
  1  2  1  0
  2  3  1  0
  3  4  1  0
  4  5  1  0
  5  6  1  0
  6  7  1  0
  7  8  1  0
  7  9  1  0
  2 10  1  0
 10 11  1  0
 11 12  1  0
 12 13  1  0
 13 14  1  1
 13 15  1  0
 15 16  1  0
 16 17  1  0
 17 18  2  0
 18 19  1  0
 19 20  1  0
 20 21  1  0
 21 22  1  0
 22 23  1  0
 22 24  1  0
 24 25  1  0
 24 26  1  0
 19 27  1  0
 27 28  1  6
 27 29  1  0
 29 30  1  0
 30 31  1  0
 31 32  1  1
  7  5  1  0
 31 10  1  0
 31 13  1  0
 27 15  1  0
 24 18  1  0
  1 33  1  0
  1 34  1  0
  1 35  1  0
  2 36  1  6
  3 37  1  0
  3 38  1  0
  4 39  1  0
  4 40  1  0
  5 41  1  1
  8 42  1  0
  8 43  1  0
  8 44  1  0
  9 45  1  0
  9 46  1  0
  9 47  1  0
 10 48  1  1
 11 49  1  0
 11 50  1  0
 12 51  1  0
 12 52  1  0
 14 53  1  0
 14 54  1  0
 14 55  1  0
 15 56  1  6
 16 57  1  0
 16 58  1  0
 17 59  1  0
 19 60  1  1
 20 61  1  0
 20 62  1  0
 21 63  1  0
 21 64  1  0
 22 65  1  1
 23 66  1  0
 25 67  1  0
 25 68  1  0
 25 69  1  0
 26 70  1  0
 26 71  1  0
 26 72  1  0
 28 73  1  0
 28 74  1  0
 28 75  1  0
 29 76  1  0
 29 77  1  0
 30 78  1  0
 30 79  1  0
 32 80  1  0
 32 81  1  0
 32 82  1  0
M  END
>  <meeko>  (4) 
{"is_sidechain": [false], "intermolecular_energy": 2.731, "internal_energy": -0.839}

$$$$
EPH_relaxed_0001_pdb2pqr_Repair_51_r2_0001_out
     RDKit          3D

 82 86  0  0  0  0  0  0  0  0999 V2000
   -3.3570    9.2950    0.5100 C   0  0  0  0  0  0  0  0  0  0  0  0
   -2.5310    9.6710   -0.7230 C   0  0  2  0  0  0  0  0  0  0  0  0
   -1.8520    8.4440   -1.3630 C   0  0  0  0  0  0  0  0  0  0  0  0
   -2.7490    7.6850   -2.3450 C   0  0  0  0  0  0  0  0  0  0  0  0
   -4.1790    7.6760   -1.8950 C   0  0  2  0  0  0  0  0  0  0  0  0
   -4.6950    6.3790   -1.5670 O   0  0  0  0  0  0  0  0  0  0  0  0
   -5.3020    7.0370   -2.6910 C   0  0  0  0  0  0  0  0  0  0  0  0
   -5.0440    6.3650   -4.0030 C   0  0  0  0  0  0  0  0  0  0  0  0
   -6.7060    7.4910   -2.4370 C   0  0  0  0  0  0  0  0  0  0  0  0
   -1.4820   10.7110   -0.3490 C   0  0  1  0  0  0  0  0  0  0  0  0
   -0.3820   10.1420    0.5860 C   0  0  0  0  0  0  0  0  0  0  0  0
    0.9430   10.8460    0.1980 C   0  0  0  0  0  0  0  0  0  0  0  0
    0.5090   12.0230   -0.7070 C   0  0  1  0  0  0  0  0  0  0  0  0
    0.0580   13.1430    0.2820 C   0  0  0  0  0  0  0  0  0  0  0  0
    1.5780   12.5460   -1.7210 C   0  0  2  0  0  0  0  0  0  0  0  0
    2.8530   13.1260   -1.0840 C   0  0  0  0  0  0  0  0  0  0  0  0
    2.8140   14.5910   -0.8010 C   0  0  0  0  0  0  0  0  0  0  0  0
    1.9180   15.4610   -1.3020 C   0  0  0  0  0  0  0  0  0  0  0  0
    0.8700   15.0100   -2.3280 C   0  0  1  0  0  0  0  0  0  0  0  0
    0.8150   16.0300   -3.4960 C   0  0  0  0  0  0  0  0  0  0  0  0
    0.5820   17.4580   -3.0140 C   0  0  0  0  0  0  0  0  0  0  0  0
    1.6750   17.8910   -2.0410 C   0  0  2  0  0  0  0  0  0  0  0  0
    2.9160   17.9750   -2.7490 O   0  0  0  0  0  0  0  0  0  0  0  0
    1.8310   16.9330   -0.8270 C   0  0  0  0  0  0  0  0  0  0  0  0
    0.6020   17.0700    0.1050 C   0  0  0  0  0  0  0  0  0  0  0  0
    3.0570   17.4040   -0.0000 C   0  0  0  0  0  0  0  0  0  0  0  0
    0.9990   13.5090   -2.8350 C   0  0  1  0  0  0  0  0  0  0  0  0
    1.9830   13.4370   -4.0420 C   0  0  0  0  0  0  0  0  0  0  0  0
   -0.4000   13.0270   -3.3730 C   0  0  0  0  0  0  0  0  0  0  0  0
   -1.3660   12.4100   -2.3440 C   0  0  0  0  0  0  0  0  0  0  0  0
   -0.6620   11.3410   -1.5030 C   0  0  2  0  0  0  0  0  0  0  0  0
   -0.2160   10.1900   -2.4680 C   0  0  0  0  0  0  0  0  0  0  0  0
   -2.7946    9.5510    1.4201 H   0  0  0  0  0  0  0  0  0  0  0  0
   -4.3070    9.8494    0.4979 H   0  0  0  0  0  0  0  0  0  0  0  0
   -3.5628    8.2145    0.4979 H   0  0  0  0  0  0  0  0  0  0  0  0
   -3.2220   10.0920   -1.4682 H   0  0  0  0  0  0  0  0  0  0  0  0
   -0.9567    8.7853   -1.9034 H   0  0  0  0  0  0  0  0  0  0  0  0
   -1.6101    7.7484   -0.5459 H   0  0  0  0  0  0  0  0  0  0  0  0
   -2.6884    8.1692   -3.3308 H   0  0  0  0  0  0  0  0  0  0  0  0
   -2.3985    6.6436   -2.3957 H   0  0  0  0  0  0  0  0  0  0  0  0
   -4.0687    8.6735   -1.4445 H   0  0  0  0  0  0  0  0  0  0  0  0
   -4.6549    5.3515   -3.8256 H   0  0  0  0  0  0  0  0  0  0  0  0
   -5.9822    6.3028   -4.5739 H   0  0  0  0  0  0  0  0  0  0  0  0
   -4.3053    6.9467   -4.5739 H   0  0  0  0  0  0  0  0  0  0  0  0
   -6.8824    7.5480   -1.3527 H   0  0  0  0  0  0  0  0  0  0  0  0
   -6.8572    8.4838   -2.8858 H   0  0  0  0  0  0  0  0  0  0  0  0
   -7.4099    6.7747   -2.8858 H   0  0  0  0  0  0  0  0  0  0  0  0
   -2.1319   11.4709    0.1094 H   0  0  0  0  0  0  0  0  0  0  0  0
   -0.6304   10.3546    1.6363 H   0  0  0  0  0  0  0  0  0  0  0  0
   -0.2962    9.0508    0.4764 H   0  0  0  0  0  0  0  0  0  0  0  0
    1.4628   11.2162    1.0939 H   0  0  0  0  0  0  0  0  0  0  0  0
    1.6436   10.1662   -0.3090 H   0  0  0  0  0  0  0  0  0  0  0  0
    0.1975   12.7965    1.3166 H   0  0  0  0  0  0  0  0  0  0  0  0
    0.6624   14.0464    0.1132 H   0  0  0  0  0  0  0  0  0  0  0  0
   -1.0038   13.3754    0.1132 H   0  0  0  0  0  0  0  0  0  0  0  0
    1.8916   11.6224   -2.2295 H   0  0  0  0  0  0  0  0  0  0  0  0
    3.0274   12.6006   -0.1334 H   0  0  0  0  0  0  0  0  0  0  0  0
    3.6557   12.9796   -1.8217 H   0  0  0  0  0  0  0  0  0  0  0  0
    3.5831   14.9937   -0.1255 H   0  0  0  0  0  0  0  0  0  0  0  0
   -0.0926   15.0008   -1.7956 H   0  0  0  0  0  0  0  0  0  0  0  0
    1.7694   15.9932   -4.0417 H   0  0  0  0  0  0  0  0  0  0  0  0
   -0.0312   15.7531   -4.1419 H   0  0  0  0  0  0  0  0  0  0  0  0
    0.5830   18.1351   -3.8809 H   0  0  0  0  0  0  0  0  0  0  0  0
   -0.3867   17.4993   -2.4945 H   0  0  0  0  0  0  0  0  0  0  0  0
    1.3828   18.8696   -1.6325 H   0  0  0  0  0  0  0  0  0  0  0  0
    3.4940   18.5840   -2.2590 H   0  0  0  0  0  0  0  0  0  0  0  0
    0.9313   17.0333    1.1539 H   0  0  0  0  0  0  0  0  0  0  0  0
    0.1003   18.0296   -0.0884 H   0  0  0  0  0  0  0  0  0  0  0  0
   -0.0987   16.2444   -0.0884 H   0  0  0  0  0  0  0  0  0  0  0  0
    2.8308   17.3171    1.0730 H   0  0  0  0  0  0  0  0  0  0  0  0
    3.9267   16.7760   -0.2434 H   0  0  0  0  0  0  0  0  0  0  0  0
    3.2825   18.4528   -0.2434 H   0  0  0  0  0  0  0  0  0  0  0  0
    3.0153   13.3615   -3.6695 H   0  0  0  0  0  0  0  0  0  0  0  0
    1.7485   12.5536   -4.6541 H   0  0  0  0  0  0  0  0  0  0  0  0
    1.8796   14.3451   -4.6541 H   0  0  0  0  0  0  0  0  0  0  0  0
   -0.9022   13.8975   -3.8203 H   0  0  0  0  0  0  0  0  0  0  0  0
   -0.1722   12.2132   -4.0772 H   0  0  0  0  0  0  0  0  0  0  0  0
   -1.7382   13.2034   -1.6792 H   0  0  0  0  0  0  0  0  0  0  0  0
   -2.1995   11.9380   -2.8847 H   0  0  0  0  0  0  0  0  0  0  0  0
    0.1192    9.3251   -1.8768 H   0  0  0  0  0  0  0  0  0  0  0  0
   -1.0645    9.8939   -3.1024 H   0  0  0  0  0  0  0  0  0  0  0  0
    0.6105   10.5429   -3.1024 H   0  0  0  0  0  0  0  0  0  0  0  0
  1  2  1  0
  2  3  1  0
  3  4  1  0
  4  5  1  0
  5  6  1  0
  6  7  1  0
  7  8  1  0
  7  9  1  0
  2 10  1  0
 10 11  1  0
 11 12  1  0
 12 13  1  0
 13 14  1  1
 13 15  1  0
 15 16  1  0
 16 17  1  0
 17 18  2  0
 18 19  1  0
 19 20  1  0
 20 21  1  0
 21 22  1  0
 22 23  1  0
 22 24  1  0
 24 25  1  0
 24 26  1  0
 19 27  1  0
 27 28  1  6
 27 29  1  0
 29 30  1  0
 30 31  1  0
 31 32  1  6
  7  5  1  0
 31 10  1  0
 31 13  1  0
 27 15  1  0
 24 18  1  0
  1 33  1  0
  1 34  1  0
  1 35  1  0
  2 36  1  6
  3 37  1  0
  3 38  1  0
  4 39  1  0
  4 40  1  0
  5 41  1  1
  8 42  1  0
  8 43  1  0
  8 44  1  0
  9 45  1  0
  9 46  1  0
  9 47  1  0
 10 48  1  1
 11 49  1  0
 11 50  1  0
 12 51  1  0
 12 52  1  0
 14 53  1  0
 14 54  1  0
 14 55  1  0
 15 56  1  6
 16 57  1  0
 16 58  1  0
 17 59  1  0
 19 60  1  1
 20 61  1  0
 20 62  1  0
 21 63  1  0
 21 64  1  0
 22 65  1  1
 23 66  1  0
 25 67  1  0
 25 68  1  0
 25 69  1  0
 26 70  1  0
 26 71  1  0
 26 72  1  0
 28 73  1  0
 28 74  1  0
 28 75  1  0
 29 76  1  0
 29 77  1  0
 30 78  1  0
 30 79  1  0
 32 80  1  0
 32 81  1  0
 32 82  1  0
M  END
>  <meeko>  (5) 
{"is_sidechain": [false], "intermolecular_energy": 2.731, "internal_energy": -0.839}

$$$$
EPH_relaxed_0001_pdb2pqr_Repair_51_r2_0001_out
     RDKit          3D

 82 86  0  0  0  0  0  0  0  0999 V2000
    3.7580   17.3070    0.8050 C   0  0  0  0  0  0  0  0  0  0  0  0
    3.5430   16.4780   -0.4640 C   0  0  2  0  0  0  0  0  0  0  0  0
    3.3810   17.3630   -1.7160 C   0  0  0  0  0  0  0  0  0  0  0  0
    2.8250   18.7580   -1.4150 C   0  0  0  0  0  0  0  0  0  0  0  0
    1.3640   18.8530   -1.7390 C   0  0  2  0  0  0  0  0  0  0  0  0
    0.8860   20.1860   -1.9610 O   0  0  0  0  0  0  0  0  0  0  0  0
    0.3450   19.5010   -0.8210 C   0  0  0  0  0  0  0  0  0  0  0  0
    0.7450   20.0960    0.4930 C   0  0  0  0  0  0  0  0  0  0  0  0
   -1.0960   19.1240   -0.9720 C   0  0  0  0  0  0  0  0  0  0  0  0
    2.3220   15.5810   -0.2980 C   0  0  1  0  0  0  0  0  0  0  0  0
    1.0140   16.3870   -0.0820 C   0  0  0  0  0  0  0  0  0  0  0  0
   -0.1200   15.5960   -0.7840 C   0  0  0  0  0  0  0  0  0  0  0  0
    0.5000   14.2130   -1.0890 C   0  0  1  0  0  0  0  0  0  0  0  0
    0.3950   13.4210    0.2510 C   0  0  0  0  0  0  0  0  0  0  0  0
   -0.1310   13.4200   -2.2800 C   0  0  2  0  0  0  0  0  0  0  0  0
   -1.6110   13.0380   -2.0970 C   0  0  0  0  0  0  0  0  0  0  0  0
   -1.8520   11.7130   -1.4540 C   0  0  0  0  0  0  0  0  0  0  0  0
   -0.9340   10.7410   -1.2970 C   0  0  0  0  0  0  0  0  0  0  0  0
    0.4770   10.8880   -1.8800 C   0  0  1  0  0  0  0  0  0  0  0  0
    0.8740    9.5800   -2.6120 C   0  0  0  0  0  0  0  0  0  0  0  0
    0.7360    8.3470   -1.7240 C   0  0  0  0  0  0  0  0  0  0  0  0
   -0.6950    8.2020   -1.2120 C   0  0  2  0  0  0  0  0  0  0  0  0
   -1.5540    7.9160   -2.3190 O   0  0  0  0  0  0  0  0  0  0  0  0
   -1.2080    9.4640   -0.4640 C   0  0  0  0  0  0  0  0  0  0  0  0
   -0.4730    9.6010    0.8920 C   0  0  0  0  0  0  0  0  0  0  0  0
   -2.7070    9.2410   -0.1240 C   0  0  0  0  0  0  0  0  0  0  0  0
    0.7300   12.1840   -2.7650 C   0  0  1  0  0  0  0  0  0  0  0  0
    0.3180   11.9070   -4.2430 C   0  0  0  0  0  0  0  0  0  0  0  0
    2.2720   12.5000   -2.7850 C   0  0  0  0  0  0  0  0  0  0  0  0
    2.8140   13.3870   -1.6480 C   0  0  0  0  0  0  0  0  0  0  0  0
    1.9600   14.6470   -1.4810 C   0  0  2  0  0  0  0  0  0  0  0  0
    2.0640   15.4760   -2.8060 C   0  0  0  0  0  0  0  0  0  0  0  0
    3.5937   16.6734    1.6891 H   0  0  0  0  0  0  0  0  0  0  0  0
    4.7868   17.6961    0.8189 H   0  0  0  0  0  0  0  0  0  0  0  0
    3.0480   18.1471    0.8189 H   0  0  0  0  0  0  0  0  0  0  0  0
    4.4410   15.8600   -0.6115 H   0  0  0  0  0  0  0  0  0  0  0  0
    4.3666   17.4768   -2.1909 H   0  0  0  0  0  0  0  0  0  0  0  0
    2.6546   16.8618   -2.3727 H   0  0  0  0  0  0  0  0  0  0  0  0
    2.9684   18.9762   -0.3464 H   0  0  0  0  0  0  0  0  0  0  0  0
    3.3636   19.4848   -2.0408 H   0  0  0  0  0  0  0  0  0  0  0  0
    1.3874   17.8753   -2.2426 H   0  0  0  0  0  0  0  0  0  0  0  0
    0.3351   19.4862    1.3116 H   0  0  0  0  0  0  0  0  0  0  0  0
    1.8423   20.1184    0.5665 H   0  0  0  0  0  0  0  0  0  0  0  0
    0.3516   21.1206    0.5665 H   0  0  0  0  0  0  0  0  0  0  0  0
   -1.5501   19.0052    0.0228 H   0  0  0  0  0  0  0  0  0  0  0  0
   -1.6256   19.9138   -1.5249 H   0  0  0  0  0  0  0  0  0  0  0  0
   -1.1710   18.1760   -1.5249 H   0  0  0  0  0  0  0  0  0  0  0  0
    2.6472   14.9843    0.5670 H   0  0  0  0  0  0  0  0  0  0  0  0
    0.8005   16.4816    0.9929 H   0  0  0  0  0  0  0  0  0  0  0  0
    1.1026   17.4021   -0.4965 H   0  0  0  0  0  0  0  0  0  0  0  0
   -0.9906   15.4932   -0.1195 H   0  0  0  0  0  0  0  0  0  0  0  0
   -0.4803   16.1010   -1.6924 H   0  0  0  0  0  0  0  0  0  0  0  0
    0.4874   14.1179    1.0970 H   0  0  0  0  0  0  0  0  0  0  0  0
   -0.5786   12.9114    0.3004 H   0  0  0  0  0  0  0  0  0  0  0  0
    1.2021   12.6753    0.3004 H   0  0  0  0  0  0  0  0  0  0  0  0
   -0.1114   14.1600   -3.0936 H   0  0  0  0  0  0  0  0  0  0  0  0
   -2.0868   13.8098   -1.4741 H   0  0  0  0  0  0  0  0  0  0  0  0
   -2.0346   12.9666   -3.1097 H   0  0  0  0  0  0  0  0  0  0  0  0
   -2.8657   11.5137   -1.0763 H   0  0  0  0  0  0  0  0  0  0  0  0
    1.1449   11.0522   -1.0216 H   0  0  0  0  0  0  0  0  0  0  0  0
    0.2236    9.4563   -3.4905 H   0  0  0  0  0  0  0  0  0  0  0  0
    1.9320    9.6669   -2.9002 H   0  0  0  0  0  0  0  0  0  0  0  0
    1.0027    7.4524   -2.3058 H   0  0  0  0  0  0  0  0  0  0  0  0
    1.4086    8.4584   -0.8608 H   0  0  0  0  0  0  0  0  0  0  0  0
   -0.7026    7.3797   -0.4814 H   0  0  0  0  0  0  0  0  0  0  0  0
   -1.1740    7.1610   -2.8000 H   0  0  0  0  0  0  0  0  0  0  0  0
   -1.1918    9.4670    1.7138 H   0  0  0  0  0  0  0  0  0  0  0  0
    0.3120    8.8337    0.9627 H   0  0  0  0  0  0  0  0  0  0  0  0
   -0.0171   10.5996    0.9627 H   0  0  0  0  0  0  0  0  0  0  0  0
   -2.8363    9.2218    0.9682 H   0  0  0  0  0  0  0  0  0  0  0  0
   -3.3053   10.0600   -0.5497 H   0  0  0  0  0  0  0  0  0  0  0  0
   -3.0410    8.2833   -0.5497 H   0  0  0  0  0  0  0  0  0  0  0  0
   -0.5947   11.2933   -4.2604 H   0  0  0  0  0  0  0  0  0  0  0  0
    0.1279   12.8615   -4.7557 H   0  0  0  0  0  0  0  0  0  0  0  0
    1.1302   11.3708   -4.7557 H   0  0  0  0  0  0  0  0  0  0  0  0
    2.8088   11.5408   -2.7435 H   0  0  0  0  0  0  0  0  0  0  0  0
    2.4351   13.0801   -3.7053 H   0  0  0  0  0  0  0  0  0  0  0  0
    2.8000   12.8157   -0.7081 H   0  0  0  0  0  0  0  0  0  0  0  0
    3.8411   13.6903   -1.8991 H   0  0  0  0  0  0  0  0  0  0  0  0
    2.1975   16.5405   -2.5630 H   0  0  0  0  0  0  0  0  0  0  0  0
    2.9249   15.1230   -3.3927 H   0  0  0  0  0  0  0  0  0  0  0  0
    1.1426   15.3466   -3.3927 H   0  0  0  0  0  0  0  0  0  0  0  0
  1  2  1  0
  2  3  1  0
  3  4  1  0
  4  5  1  0
  5  6  1  0
  6  7  1  0
  7  8  1  0
  7  9  1  0
  2 10  1  0
 10 11  1  0
 11 12  1  0
 12 13  1  0
 13 14  1  1
 13 15  1  0
 15 16  1  0
 16 17  1  0
 17 18  2  0
 18 19  1  0
 19 20  1  0
 20 21  1  0
 21 22  1  0
 22 23  1  0
 22 24  1  0
 24 25  1  0
 24 26  1  0
 19 27  1  0
 27 28  1  6
 27 29  1  0
 29 30  1  0
 30 31  1  0
 31 32  1  6
  7  5  1  0
 31 10  1  0
 31 13  1  0
 27 15  1  0
 24 18  1  0
  1 33  1  0
  1 34  1  0
  1 35  1  0
  2 36  1  6
  3 37  1  0
  3 38  1  0
  4 39  1  0
  4 40  1  0
  5 41  1  6
  8 42  1  0
  8 43  1  0
  8 44  1  0
  9 45  1  0
  9 46  1  0
  9 47  1  0
 10 48  1  1
 11 49  1  0
 11 50  1  0
 12 51  1  0
 12 52  1  0
 14 53  1  0
 14 54  1  0
 14 55  1  0
 15 56  1  6
 16 57  1  0
 16 58  1  0
 17 59  1  0
 19 60  1  1
 20 61  1  0
 20 62  1  0
 21 63  1  0
 21 64  1  0
 22 65  1  1
 23 66  1  0
 25 67  1  0
 25 68  1  0
 25 69  1  0
 26 70  1  0
 26 71  1  0
 26 72  1  0
 28 73  1  0
 28 74  1  0
 28 75  1  0
 29 76  1  0
 29 77  1  0
 30 78  1  0
 30 79  1  0
 32 80  1  0
 32 81  1  0
 32 82  1  0
M  END
>  <meeko>  (6) 
{"is_sidechain": [false], "intermolecular_energy": 2.731, "internal_energy": -0.839}

$$$$
EPH_relaxed_0001_pdb2pqr_Repair_51_r2_0001_out
     RDKit          3D

 82 86  0  0  0  0  0  0  0  0999 V2000
   -5.0480    6.0970   -1.5500 C   0  0  0  0  0  0  0  0  0  0  0  0
   -5.3770    7.5850   -1.7000 C   0  0  2  0  0  0  0  0  0  0  0  0
   -5.1750    8.3600   -0.3830 C   0  0  0  0  0  0  0  0  0  0  0  0
   -4.0550    9.4020   -0.4480 C   0  0  0  0  0  0  0  0  0  0  0  0
   -2.7370    8.7790   -0.7930 C   0  0  2  0  0  0  0  0  0  0  0  0
   -1.6780    9.0670    0.1290 O   0  0  0  0  0  0  0  0  0  0  0  0
   -1.5140    9.5790   -1.2030 C   0  0  0  0  0  0  0  0  0  0  0  0
   -1.5530   11.0730   -1.2900 C   0  0  0  0  0  0  0  0  0  0  0  0
   -0.4390    8.8920   -1.9850 C   0  0  0  0  0  0  0  0  0  0  0  0
   -6.8120    7.7530   -2.1870 C   0  0  1  0  0  0  0  0  0  0  0  0
   -7.0720    7.0310   -3.5360 C   0  0  0  0  0  0  0  0  0  0  0  0
   -8.5300    6.5040   -3.4880 C   0  0  0  0  0  0  0  0  0  0  0  0
   -9.1620    7.2180   -2.2690 C   0  0  1  0  0  0  0  0  0  0  0  0
   -9.5570    8.6330   -2.7940 C   0  0  0  0  0  0  0  0  0  0  0  0
  -10.3720    6.4930   -1.5950 C   0  0  2  0  0  0  0  0  0  0  0  0
  -11.6070    6.3110   -2.4950 C   0  0  0  0  0  0  0  0  0  0  0  0
  -12.6040    7.4210   -2.4420 C   0  0  0  0  0  0  0  0  0  0  0  0
  -12.6570    8.3800   -1.4990 C   0  0  0  0  0  0  0  0  0  0  0  0
  -11.7080    8.3530   -0.2930 C   0  0  1  0  0  0  0  0  0  0  0  0
  -12.5140    8.6180    1.0050 C   0  0  0  0  0  0  0  0  0  0  0  0
  -13.3310    9.9050    0.9350 C   0  0  0  0  0  0  0  0  0  0  0  0
  -14.3030    9.8700   -0.2420 C   0  0  2  0  0  0  0  0  0  0  0  0
  -15.2870    8.8610    0.0030 O   0  0  0  0  0  0  0  0  0  0  0  0
  -13.6060    9.6000   -1.6050 C   0  0  0  0  0  0  0  0  0  0  0  0
  -12.7660   10.8350   -2.0140 C   0  0  0  0  0  0  0  0  0  0  0  0
  -14.7110    9.4490   -2.6850 C   0  0  0  0  0  0  0  0  0  0  0  0
  -10.7700    7.0760   -0.1790 C   0  0  1  0  0  0  0  0  0  0  0  0
  -11.5140    5.9340    0.5790 C   0  0  0  0  0  0  0  0  0  0  0  0
   -9.5100    7.4400    0.6930 C   0  0  0  0  0  0  0  0  0  0  0  0
   -8.3020    8.0420   -0.0490 C   0  0  0  0  0  0  0  0  0  0  0  0
   -7.9410    7.2040   -1.2790 C   0  0  2  0  0  0  0  0  0  0  0  0
   -7.5170    5.7810   -0.7810 C   0  0  0  0  0  0  0  0  0  0  0  0
   -4.9912    5.8399   -0.4820 H   0  0  0  0  0  0  0  0  0  0  0  0
   -5.8352    5.4972   -2.0301 H   0  0  0  0  0  0  0  0  0  0  0  0
   -4.0813    5.8850   -2.0301 H   0  0  0  0  0  0  0  0  0  0  0  0
   -4.6804    8.0048   -2.4407 H   0  0  0  0  0  0  0  0  0  0  0  0
   -6.1148    8.8752   -0.1355 H   0  0  0  0  0  0  0  0  0  0  0  0
   -4.8859    7.6243    0.3820 H   0  0  0  0  0  0  0  0  0  0  0  0
   -4.3075   10.1492   -1.2147 H   0  0  0  0  0  0  0  0  0  0  0  0
   -3.9639    9.8694    0.5436 H   0  0  0  0  0  0  0  0  0  0  0  0
   -3.2399    7.9137   -1.2495 H   0  0  0  0  0  0  0  0  0  0  0  0
   -1.5641   11.4992   -0.2760 H   0  0  0  0  0  0  0  0  0  0  0  0
   -0.6639   11.4322   -1.8290 H   0  0  0  0  0  0  0  0  0  0  0  0
   -2.4596   11.3854   -1.8290 H   0  0  0  0  0  0  0  0  0  0  0  0
    0.2811    8.4318   -1.2924 H   0  0  0  0  0  0  0  0  0  0  0  0
   -0.8876    8.1128   -2.6187 H   0  0  0  0  0  0  0  0  0  0  0  0
    0.0797    9.6264   -2.6187 H   0  0  0  0  0  0  0  0  0  0  0  0
   -6.8651    8.8509   -2.2298 H   0  0  0  0  0  0  0  0  0  0  0  0
   -6.9512    7.7355   -4.3721 H   0  0  0  0  0  0  0  0  0  0  0  0
   -6.3590    6.2070   -3.6867 H   0  0  0  0  0  0  0  0  0  0  0  0
   -9.0675    6.7635   -4.4120 H   0  0  0  0  0  0  0  0  0  0  0  0
   -8.5754    5.4085   -3.4000 H   0  0  0  0  0  0  0  0  0  0  0  0
   -9.7437    9.3017   -1.9408 H   0  0  0  0  0  0  0  0  0  0  0  0
   -8.7378    9.0390   -3.4057 H   0  0  0  0  0  0  0  0  0  0  0  0
  -10.4680    8.5560   -3.4057 H   0  0  0  0  0  0  0  0  0  0  0  0
   -9.9752    5.4815   -1.4236 H   0  0  0  0  0  0  0  0  0  0  0  0
  -11.2592    6.2159   -3.5342 H   0  0  0  0  0  0  0  0  0  0  0  0
  -12.1270    5.4168   -2.1208 H   0  0  0  0  0  0  0  0  0  0  0  0
  -13.3590    7.4583   -3.2411 H   0  0  0  0  0  0  0  0  0  0  0  0
  -10.9848    9.1657   -0.4555 H   0  0  0  0  0  0  0  0  0  0  0  0
  -13.1994    7.7741    1.1728 H   0  0  0  0  0  0  0  0  0  0  0  0
  -11.7933    8.7248    1.8292 H   0  0  0  0  0  0  0  0  0  0  0  0
  -13.9004   10.0214    1.8689 H   0  0  0  0  0  0  0  0  0  0  0  0
  -12.6422   10.7515    0.7969 H   0  0  0  0  0  0  0  0  0  0  0  0
  -14.7648   10.8655   -0.3180 H   0  0  0  0  0  0  0  0  0  0  0  0
  -16.1610    9.2840   -0.0530 H   0  0  0  0  0  0  0  0  0  0  0  0
  -12.4131   11.3539   -1.1106 H   0  0  0  0  0  0  0  0  0  0  0  0
  -11.9015   10.5091   -2.6110 H   0  0  0  0  0  0  0  0  0  0  0  0
  -13.3868   11.5193   -2.6110 H   0  0  0  0  0  0  0  0  0  0  0  0
  -15.6868    9.3157   -2.1951 H   0  0  0  0  0  0  0  0  0  0  0  0
  -14.7362   10.3521   -3.3126 H   0  0  0  0  0  0  0  0  0  0  0  0
  -14.4930    8.5723   -3.3126 H   0  0  0  0  0  0  0  0  0  0  0  0
  -11.4138    6.0878    1.6636 H   0  0  0  0  0  0  0  0  0  0  0  0
  -12.5790    5.9446    0.3040 H   0  0  0  0  0  0  0  0  0  0  0  0
  -11.0740    4.9641    0.3040 H   0  0  0  0  0  0  0  0  0  0  0  0
   -9.8303    8.1680    1.4529 H   0  0  0  0  0  0  0  0  0  0  0  0
   -9.1518    6.4809    1.0953 H   0  0  0  0  0  0  0  0  0  0  0  0
   -8.5500    9.0644   -0.3703 H   0  0  0  0  0  0  0  0  0  0  0  0
   -7.4399    8.0516    0.6342 H   0  0  0  0  0  0  0  0  0  0  0  0
   -7.5119    5.7639    0.3189 H   0  0  0  0  0  0  0  0  0  0  0  0
   -8.2314    5.0333   -1.1560 H   0  0  0  0  0  0  0  0  0  0  0  0
   -6.5099    5.5463   -1.1560 H   0  0  0  0  0  0  0  0  0  0  0  0
  1  2  1  0
  2  3  1  0
  3  4  1  0
  4  5  1  0
  5  6  1  0
  6  7  1  0
  7  8  1  0
  7  9  1  0
  2 10  1  0
 10 11  1  0
 11 12  1  0
 12 13  1  0
 13 14  1  6
 13 15  1  0
 15 16  1  0
 16 17  1  0
 17 18  2  0
 18 19  1  0
 19 20  1  0
 20 21  1  0
 21 22  1  0
 22 23  1  0
 22 24  1  0
 24 25  1  0
 24 26  1  0
 19 27  1  0
 27 28  1  1
 27 29  1  0
 29 30  1  0
 30 31  1  0
 31 32  1  1
  7  5  1  0
 31 10  1  0
 31 13  1  0
 27 15  1  0
 24 18  1  0
  1 33  1  0
  1 34  1  0
  1 35  1  0
  2 36  1  6
  3 37  1  0
  3 38  1  0
  4 39  1  0
  4 40  1  0
  5 41  1  6
  8 42  1  0
  8 43  1  0
  8 44  1  0
  9 45  1  0
  9 46  1  0
  9 47  1  0
 10 48  1  6
 11 49  1  0
 11 50  1  0
 12 51  1  0
 12 52  1  0
 14 53  1  0
 14 54  1  0
 14 55  1  0
 15 56  1  1
 16 57  1  0
 16 58  1  0
 17 59  1  0
 19 60  1  6
 20 61  1  0
 20 62  1  0
 21 63  1  0
 21 64  1  0
 22 65  1  6
 23 66  1  0
 25 67  1  0
 25 68  1  0
 25 69  1  0
 26 70  1  0
 26 71  1  0
 26 72  1  0
 28 73  1  0
 28 74  1  0
 28 75  1  0
 29 76  1  0
 29 77  1  0
 30 78  1  0
 30 79  1  0
 32 80  1  0
 32 81  1  0
 32 82  1  0
M  END
>  <meeko>  (7) 
{"is_sidechain": [false], "intermolecular_energy": 2.731, "internal_energy": -0.839}

$$$$
EPH_relaxed_0001_pdb2pqr_Repair_51_r2_0001_out
     RDKit          3D

 82 86  0  0  0  0  0  0  0  0999 V2000
    0.4300    8.7940   -2.3470 C   0  0  0  0  0  0  0  0  0  0  0  0
    1.1640    9.9340   -3.0590 C   0  0  2  0  0  0  0  0  0  0  0  0
    2.6680    9.9570   -2.7200 C   0  0  0  0  0  0  0  0  0  0  0  0
    3.5330   10.6000   -3.8070 C   0  0  0  0  0  0  0  0  0  0  0  0
    4.9340   10.8420   -3.3300 C   0  0  2  0  0  0  0  0  0  0  0  0
    5.5390   12.0410   -3.8320 O   0  0  0  0  0  0  0  0  0  0  0  0
    6.1460   10.8050   -4.2410 C   0  0  0  0  0  0  0  0  0  0  0  0
    6.0150   10.5170   -5.7040 C   0  0  0  0  0  0  0  0  0  0  0  0
    7.4920   10.5640   -3.6320 C   0  0  0  0  0  0  0  0  0  0  0  0
    0.5270   11.2700   -2.6940 C   0  0  1  0  0  0  0  0  0  0  0  0
   -0.8470   11.1050   -1.9920 C   0  0  0  0  0  0  0  0  0  0  0  0
   -0.9580   12.2490   -0.9510 C   0  0  0  0  0  0  0  0  0  0  0  0
    0.1910   13.2180   -1.3130 C   0  0  1  0  0  0  0  0  0  0  0  0
   -0.3630   14.0720   -2.4970 C   0  0  0  0  0  0  0  0  0  0  0  0
    0.7260   14.1190   -0.1530 C   0  0  2  0  0  0  0  0  0  0  0  0
   -0.3010   15.0990    0.4400 C   0  0  0  0  0  0  0  0  0  0  0  0
   -0.3470   16.4440   -0.2060 C   0  0  0  0  0  0  0  0  0  0  0  0
    0.5920   16.9490   -1.0280 C   0  0  0  0  0  0  0  0  0  0  0  0
    1.8920   16.1820   -1.3040 C   0  0  1  0  0  0  0  0  0  0  0  0
    3.0990   17.1490   -1.1820 C   0  0  0  0  0  0  0  0  0  0  0  0
    2.9510   18.3840   -2.0660 C   0  0  0  0  0  0  0  0  0  0  0  0
    1.6770   19.1510   -1.7210 C   0  0  2  0  0  0  0  0  0  0  0  0
    1.8090   19.6950   -0.4040 O   0  0  0  0  0  0  0  0  0  0  0  0
    0.3950   18.2770   -1.8000 C   0  0  0  0  0  0  0  0  0  0  0  0
    0.0870   17.9370   -3.2790 C   0  0  0  0  0  0  0  0  0  0  0  0
   -0.7980   19.1310   -1.2930 C   0  0  0  0  0  0  0  0  0  0  0  0
    2.0970   14.8430   -0.4740 C   0  0  1  0  0  0  0  0  0  0  0  0
    2.7630   15.1640    0.8990 C   0  0  0  0  0  0  0  0  0  0  0  0
    3.1010   13.9080   -1.2460 C   0  0  0  0  0  0  0  0  0  0  0  0
    2.4960   12.9560   -2.2960 C   0  0  0  0  0  0  0  0  0  0  0  0
    1.3060   12.1860   -1.7160 C   0  0  2  0  0  0  0  0  0  0  0  0
    1.8360   11.3000   -0.5370 C   0  0  0  0  0  0  0  0  0  0  0  0
    0.5153    8.9265   -1.2583 H   0  0  0  0  0  0  0  0  0  0  0  0
   -0.6314    8.8046   -2.6356 H   0  0  0  0  0  0  0  0  0  0  0  0
    0.8789    7.8321   -2.6356 H   0  0  0  0  0  0  0  0  0  0  0  0
    1.0723    9.7619   -4.1416 H   0  0  0  0  0  0  0  0  0  0  0  0
    2.8052   10.5229   -1.7868 H   0  0  0  0  0  0  0  0  0  0  0  0
    2.9931    8.9102   -2.6272 H   0  0  0  0  0  0  0  0  0  0  0  0
    3.5641    9.9313   -4.6798 H   0  0  0  0  0  0  0  0  0  0  0  0
    3.0877   11.5709   -4.0699 H   0  0  0  0  0  0  0  0  0  0  0  0
    4.7170   10.3500   -2.3704 H   0  0  0  0  0  0  0  0  0  0  0  0
    5.5632    9.5238   -5.8432 H   0  0  0  0  0  0  0  0  0  0  0  0
    5.3752   11.2797   -6.1720 H   0  0  0  0  0  0  0  0  0  0  0  0
    7.0103   10.5359   -6.1720 H   0  0  0  0  0  0  0  0  0  0  0  0
    7.4064   10.5793   -2.5354 H   0  0  0  0  0  0  0  0  0  0  0  0
    7.8711    9.5837   -3.9565 H   0  0  0  0  0  0  0  0  0  0  0  0
    8.1877   11.3519   -3.9565 H   0  0  0  0  0  0  0  0  0  0  0  0
    0.4857   11.7328   -3.6910 H   0  0  0  0  0  0  0  0  0  0  0  0
   -1.6604   11.1828   -2.7285 H   0  0  0  0  0  0  0  0  0  0  0  0
   -0.9271   10.1208   -1.5072 H   0  0  0  0  0  0  0  0  0  0  0  0
   -1.9319   12.7541   -1.0313 H   0  0  0  0  0  0  0  0  0  0  0  0
   -0.8834   11.8810    0.0829 H   0  0  0  0  0  0  0  0  0  0  0  0
   -0.9211   14.9323   -2.0989 H   0  0  0  0  0  0  0  0  0  0  0  0
    0.4744   14.4315   -3.1131 H   0  0  0  0  0  0  0  0  0  0  0  0
   -1.0326   13.4539   -3.1131 H   0  0  0  0  0  0  0  0  0  0  0  0
    0.9300   13.3846    0.6401 H   0  0  0  0  0  0  0  0  0  0  0  0
   -1.2980   14.6435    0.3476 H   0  0  0  0  0  0  0  0  0  0  0  0
    0.0100   15.2722    1.4808 H   0  0  0  0  0  0  0  0  0  0  0  0
   -1.2218   17.0757    0.0076 H   0  0  0  0  0  0  0  0  0  0  0  0
    1.8129   15.8113   -2.3366 H   0  0  0  0  0  0  0  0  0  0  0  0
    3.1864   17.4735   -0.1346 H   0  0  0  0  0  0  0  0  0  0  0  0
    3.9964   16.6064   -1.5139 H   0  0  0  0  0  0  0  0  0  0  0  0
    3.8196   19.0417   -1.9144 H   0  0  0  0  0  0  0  0  0  0  0  0
    2.8930   18.0601   -3.1156 H   0  0  0  0  0  0  0  0  0  0  0  0
    1.5587   19.9480   -2.4699 H   0  0  0  0  0  0  0  0  0  0  0  0
    0.9560   19.5800    0.0480 H   0  0  0  0  0  0  0  0  0  0  0  0
   -0.6509   17.1224   -3.3220 H   0  0  0  0  0  0  0  0  0  0  0  0
   -0.3191   18.8265   -3.7828 H   0  0  0  0  0  0  0  0  0  0  0  0
    1.0122   17.6206   -3.7828 H   0  0  0  0  0  0  0  0  0  0  0  0
   -0.8044   19.1356   -0.1930 H   0  0  0  0  0  0  0  0  0  0  0  0
   -0.6947   20.1616   -1.6633 H   0  0  0  0  0  0  0  0  0  0  0  0
   -1.7403   18.7010   -1.6633 H   0  0  0  0  0  0  0  0  0  0  0  0
    2.0970   14.8430    1.7135 H   0  0  0  0  0  0  0  0  0  0  0  0
    3.7208   14.6286    0.9760 H   0  0  0  0  0  0  0  0  0  0  0  0
    2.9409   16.2468    0.9760 H   0  0  0  0  0  0  0  0  0  0  0  0
    3.8276   14.5533   -1.7613 H   0  0  0  0  0  0  0  0  0  0  0  0
    3.5326   13.2511   -0.4764 H   0  0  0  0  0  0  0  0  0  0  0  0
    2.1569   13.5438   -3.1618 H   0  0  0  0  0  0  0  0  0  0  0  0
    3.2673   12.2330   -2.6000 H   0  0  0  0  0  0  0  0  0  0  0  0
    1.5595   11.7623    0.4221 H   0  0  0  0  0  0  0  0  0  0  0  0
    1.3895   10.2968   -0.6028 H   0  0  0  0  0  0  0  0  0  0  0  0
    2.9310   11.2190   -0.6028 H   0  0  0  0  0  0  0  0  0  0  0  0
  1  2  1  0
  2  3  1  0
  3  4  1  0
  4  5  1  0
  5  6  1  0
  6  7  1  0
  7  8  1  0
  7  9  1  0
  2 10  1  0
 10 11  1  0
 11 12  1  0
 12 13  1  0
 13 14  1  6
 13 15  1  0
 15 16  1  0
 16 17  1  0
 17 18  2  0
 18 19  1  0
 19 20  1  0
 20 21  1  0
 21 22  1  0
 22 23  1  0
 22 24  1  0
 24 25  1  0
 24 26  1  0
 19 27  1  0
 27 28  1  1
 27 29  1  0
 29 30  1  0
 30 31  1  0
 31 32  1  1
  7  5  1  0
 31 10  1  0
 31 13  1  0
 27 15  1  0
 24 18  1  0
  1 33  1  0
  1 34  1  0
  1 35  1  0
  2 36  1  6
  3 37  1  0
  3 38  1  0
  4 39  1  0
  4 40  1  0
  5 41  1  1
  8 42  1  0
  8 43  1  0
  8 44  1  0
  9 45  1  0
  9 46  1  0
  9 47  1  0
 10 48  1  6
 11 49  1  0
 11 50  1  0
 12 51  1  0
 12 52  1  0
 14 53  1  0
 14 54  1  0
 14 55  1  0
 15 56  1  1
 16 57  1  0
 16 58  1  0
 17 59  1  0
 19 60  1  6
 20 61  1  0
 20 62  1  0
 21 63  1  0
 21 64  1  0
 22 65  1  6
 23 66  1  0
 25 67  1  0
 25 68  1  0
 25 69  1  0
 26 70  1  0
 26 71  1  0
 26 72  1  0
 28 73  1  0
 28 74  1  0
 28 75  1  0
 29 76  1  0
 29 77  1  0
 30 78  1  0
 30 79  1  0
 32 80  1  0
 32 81  1  0
 32 82  1  0
M  END
>  <meeko>  (8) 
{"is_sidechain": [false], "intermolecular_energy": 2.731, "internal_energy": -0.839}

$$$$
EPH_relaxed_0001_pdb2pqr_Repair_51_r2_0001_out
     RDKit          3D

 82 86  0  0  0  0  0  0  0  0999 V2000
   -0.2680   10.5360   -4.0450 C   0  0  0  0  0  0  0  0  0  0  0  0
    0.9190   10.3440   -3.0970 C   0  0  2  0  0  0  0  0  0  0  0  0
    0.8360    9.0120   -2.3250 C   0  0  0  0  0  0  0  0  0  0  0  0
   -0.5790    8.6580   -1.8590 C   0  0  0  0  0  0  0  0  0  0  0  0
   -0.7960    9.0200   -0.4210 C   0  0  2  0  0  0  0  0  0  0  0  0
   -2.1710    9.0810   -0.0200 O   0  0  0  0  0  0  0  0  0  0  0  0
   -1.4420   10.3180    0.0270 C   0  0  0  0  0  0  0  0  0  0  0  0
   -1.9100   11.3390   -0.9630 C   0  0  0  0  0  0  0  0  0  0  0  0
   -1.1750   10.8080    1.4160 C   0  0  0  0  0  0  0  0  0  0  0  0
    0.9960   11.5100   -2.1190 C   0  0  1  0  0  0  0  0  0  0  0  0
    2.0610   11.2900   -1.0110 C   0  0  0  0  0  0  0  0  0  0  0  0
    2.6690   12.6810   -0.6940 C   0  0  0  0  0  0  0  0  0  0  0  0
    1.7170   13.6890   -1.3780 C   0  0  1  0  0  0  0  0  0  0  0  0
    0.5210   13.8470   -0.3880 C   0  0  0  0  0  0  0  0  0  0  0  0
    2.3350   15.0720   -1.7620 C   0  0  2  0  0  0  0  0  0  0  0  0
    2.8400   15.9130   -0.5760 C   0  0  0  0  0  0  0  0  0  0  0  0
    1.8360   16.8430    0.0190 C   0  0  0  0  0  0  0  0  0  0  0  0
    0.6730   17.2080   -0.5510 C   0  0  0  0  0  0  0  0  0  0  0  0
    0.3120   16.7480   -1.9700 C   0  0  1  0  0  0  0  0  0  0  0  0
   -0.2160   17.9550   -2.7870 C   0  0  0  0  0  0  0  0  0  0  0  0
   -1.3720   18.6700   -2.0950 C   0  0  0  0  0  0  0  0  0  0  0  0
   -0.9580   19.1640   -0.7110 C   0  0  2  0  0  0  0  0  0  0  0  0
    0.0270   20.1900   -0.8640 O   0  0  0  0  0  0  0  0  0  0  0  0
   -0.3990   18.0350    0.2000 C   0  0  0  0  0  0  0  0  0  0  0  0
   -1.5490   17.0820    0.6120 C   0  0  0  0  0  0  0  0  0  0  0  0
    0.1120   18.6900    1.5120 C   0  0  0  0  0  0  0  0  0  0  0  0
    1.4390   15.9340   -2.7410 C   0  0  1  0  0  0  0  0  0  0  0  0
    2.4000   16.9190   -3.4740 C   0  0  0  0  0  0  0  0  0  0  0  0
    0.7630   15.0570   -3.8610 C   0  0  0  0  0  0  0  0  0  0  0  0
    0.2810   13.6530   -3.4480 C   0  0  0  0  0  0  0  0  0  0  0  0
    1.3780   12.8970   -2.6940 C   0  0  2  0  0  0  0  0  0  0  0  0
    2.5860   12.7030   -3.6720 C   0  0  0  0  0  0  0  0  0  0  0  0
   -1.1861   10.6845   -3.4576 H   0  0  0  0  0  0  0  0  0  0  0  0
   -0.0919   11.4173   -4.6792 H   0  0  0  0  0  0  0  0  0  0  0  0
   -0.3787    9.6441   -4.6792 H   0  0  0  0  0  0  0  0  0  0  0  0
    1.8315   10.3128   -3.7105 H   0  0  0  0  0  0  0  0  0  0  0  0
    1.1970    8.2068   -2.9818 H   0  0  0  0  0  0  0  0  0  0  0  0
    1.4532    9.1250   -1.4215 H   0  0  0  0  0  0  0  0  0  0  0  0
   -1.3054    9.2051   -2.4778 H   0  0  0  0  0  0  0  0  0  0  0  0
   -0.7122    7.5710   -1.9628 H   0  0  0  0  0  0  0  0  0  0  0  0
    0.1416    8.5237   -0.1302 H   0  0  0  0  0  0  0  0  0  0  0  0
   -2.3104   12.2124   -0.4275 H   0  0  0  0  0  0  0  0  0  0  0  0
   -1.0653   11.6516   -1.5945 H   0  0  0  0  0  0  0  0  0  0  0  0
   -2.6982   10.9031   -1.5945 H   0  0  0  0  0  0  0  0  0  0  0  0
   -1.5701   10.0830    2.1428 H   0  0  0  0  0  0  0  0  0  0  0  0
   -0.0907   10.9208    1.5629 H   0  0  0  0  0  0  0  0  0  0  0  0
   -1.6680   11.7803    1.5629 H   0  0  0  0  0  0  0  0  0  0  0  0
   -0.0456   11.5238   -1.7656 H   0  0  0  0  0  0  0  0  0  0  0  0
    1.5899   10.8682   -0.1109 H   0  0  0  0  0  0  0  0  0  0  0  0
    2.8376   10.5854   -1.3433 H   0  0  0  0  0  0  0  0  0  0  0  0
    2.7005   12.8524    0.3921 H   0  0  0  0  0  0  0  0  0  0  0  0
    3.7041   12.7752   -1.0540 H   0  0  0  0  0  0  0  0  0  0  0  0
    0.8922   13.7980    0.6463 H   0  0  0  0  0  0  0  0  0  0  0  0
    0.0315   14.8176   -0.5562 H   0  0  0  0  0  0  0  0  0  0  0  0
   -0.2037   13.0368   -0.5562 H   0  0  0  0  0  0  0  0  0  0  0  0
    3.2332   14.7798   -2.3258 H   0  0  0  0  0  0  0  0  0  0  0  0
    3.1732   15.2226    0.2128 H   0  0  0  0  0  0  0  0  0  0  0  0
    3.6449   16.5483   -0.9742 H   0  0  0  0  0  0  0  0  0  0  0  0
    2.0663   17.2662    1.0079 H   0  0  0  0  0  0  0  0  0  0  0  0
   -0.4857   15.9995   -1.8544 H   0  0  0  0  0  0  0  0  0  0  0  0
    0.6067   18.6711   -2.9294 H   0  0  0  0  0  0  0  0  0  0  0  0
   -0.5891   17.5700   -3.7475 H   0  0  0  0  0  0  0  0  0  0  0  0
   -1.6810   19.5304   -2.7068 H   0  0  0  0  0  0  0  0  0  0  0  0
   -2.2050   17.9608   -1.9800 H   0  0  0  0  0  0  0  0  0  0  0  0
   -1.8604   19.5502   -0.2145 H   0  0  0  0  0  0  0  0  0  0  0  0
   -0.0730   20.5640   -1.7560 H   0  0  0  0  0  0  0  0  0  0  0  0
   -1.6088   17.0324    1.7093 H   0  0  0  0  0  0  0  0  0  0  0  0
   -2.5004   17.4600    0.2096 H   0  0  0  0  0  0  0  0  0  0  0  0
   -1.3543   16.0769    0.2096 H   0  0  0  0  0  0  0  0  0  0  0  0
   -0.3063   18.1538    2.3766 H   0  0  0  0  0  0  0  0  0  0  0  0
    1.2103   18.6376    1.5444 H   0  0  0  0  0  0  0  0  0  0  0  0
   -0.2060   19.7425    1.5444 H   0  0  0  0  0  0  0  0  0  0  0  0
    2.9665   17.4996   -2.7310 H   0  0  0  0  0  0  0  0  0  0  0  0
    3.0986   16.3489   -4.1040 H   0  0  0  0  0  0  0  0  0  0  0  0
    1.8129   17.6034   -4.1040 H   0  0  0  0  0  0  0  0  0  0  0  0
   -0.1098   15.6114   -4.2362 H   0  0  0  0  0  0  0  0  0  0  0  0
    1.5534   14.8823   -4.6058 H   0  0  0  0  0  0  0  0  0  0  0  0
   -0.6003   13.7521   -2.7972 H   0  0  0  0  0  0  0  0  0  0  0  0
    0.0268   13.0879   -4.3569 H   0  0  0  0  0  0  0  0  0  0  0  0
    3.5081   12.5549   -3.0909 H   0  0  0  0  0  0  0  0  0  0  0  0
    2.4067   11.8221   -4.3060 H   0  0  0  0  0  0  0  0  0  0  0  0
    2.6915   13.5957   -4.3060 H   0  0  0  0  0  0  0  0  0  0  0  0
  1  2  1  0
  2  3  1  0
  3  4  1  0
  4  5  1  0
  5  6  1  0
  6  7  1  0
  7  8  1  0
  7  9  1  0
  2 10  1  0
 10 11  1  0
 11 12  1  0
 12 13  1  0
 13 14  1  1
 13 15  1  0
 15 16  1  0
 16 17  1  0
 17 18  2  0
 18 19  1  0
 19 20  1  0
 20 21  1  0
 21 22  1  0
 22 23  1  0
 22 24  1  0
 24 25  1  0
 24 26  1  0
 19 27  1  0
 27 28  1  6
 27 29  1  0
 29 30  1  0
 30 31  1  0
 31 32  1  6
  7  5  1  0
 31 10  1  0
 31 13  1  0
 27 15  1  0
 24 18  1  0
  1 33  1  0
  1 34  1  0
  1 35  1  0
  2 36  1  6
  3 37  1  0
  3 38  1  0
  4 39  1  0
  4 40  1  0
  5 41  1  1
  8 42  1  0
  8 43  1  0
  8 44  1  0
  9 45  1  0
  9 46  1  0
  9 47  1  0
 10 48  1  1
 11 49  1  0
 11 50  1  0
 12 51  1  0
 12 52  1  0
 14 53  1  0
 14 54  1  0
 14 55  1  0
 15 56  1  6
 16 57  1  0
 16 58  1  0
 17 59  1  0
 19 60  1  1
 20 61  1  0
 20 62  1  0
 21 63  1  0
 21 64  1  0
 22 65  1  1
 23 66  1  0
 25 67  1  0
 25 68  1  0
 25 69  1  0
 26 70  1  0
 26 71  1  0
 26 72  1  0
 28 73  1  0
 28 74  1  0
 28 75  1  0
 29 76  1  0
 29 77  1  0
 30 78  1  0
 30 79  1  0
 32 80  1  0
 32 81  1  0
 32 82  1  0
M  END
>  <meeko>  (9) 
{"is_sidechain": [false], "intermolecular_energy": 2.731, "internal_energy": -0.839}

$$$$
EPH_relaxed_0001_pdb2pqr_Repair_51_r2_0001_out
     RDKit          3D

 82 86  0  0  0  0  0  0  0  0999 V2000
   -3.7200    7.1980   -3.4090 C   0  0  0  0  0  0  0  0  0  0  0  0
   -3.7530    7.2790   -1.8800 C   0  0  2  0  0  0  0  0  0  0  0  0
   -5.1720    7.0620   -1.3180 C   0  0  0  0  0  0  0  0  0  0  0  0
   -6.2830    7.2830   -2.3480 C   0  0  0  0  0  0  0  0  0  0  0  0
   -7.6160    7.4810   -1.6930 C   0  0  2  0  0  0  0  0  0  0  0  0
   -8.1920    6.2920   -1.1370 O   0  0  0  0  0  0  0  0  0  0  0  0
   -8.9080    6.8930   -2.2290 C   0  0  0  0  0  0  0  0  0  0  0  0
   -8.9290    6.0610   -3.4730 C   0  0  0  0  0  0  0  0  0  0  0  0
  -10.2040    7.5240   -1.8250 C   0  0  0  0  0  0  0  0  0  0  0  0
   -3.2110    8.6270   -1.4190 C   0  0  1  0  0  0  0  0  0  0  0  0
   -3.8280    9.0900   -0.0720 C   0  0  0  0  0  0  0  0  0  0  0  0
   -2.7120    9.8470    0.6930 C   0  0  0  0  0  0  0  0  0  0  0  0
   -1.6060   10.0840   -0.3620 C   0  0  1  0  0  0  0  0  0  0  0  0
   -2.0800   11.3360   -1.1650 C   0  0  0  0  0  0  0  0  0  0  0  0
   -0.1540   10.2660    0.1880 C   0  0  2  0  0  0  0  0  0  0  0  0
    0.0500   11.4890    1.0990 C   0  0  0  0  0  0  0  0  0  0  0  0
    0.4590   12.7430    0.4000 C   0  0  0  0  0  0  0  0  0  0  0  0
    0.9290   12.8190   -0.8590 C   0  0  0  0  0  0  0  0  0  0  0  0
    1.1830   11.5500   -1.6830 C   0  0  1  0  0  0  0  0  0  0  0  0
    2.5720   11.6470   -2.3680 C   0  0  0  0  0  0  0  0  0  0  0  0
    2.7310   12.9200   -3.1930 C   0  0  0  0  0  0  0  0  0  0  0  0
    2.5280   14.1600   -2.3270 C   0  0  2  0  0  0  0  0  0  0  0  0
    3.5980   14.2400   -1.3790 O   0  0  0  0  0  0  0  0  0  0  0  0
    1.1660   14.1700   -1.5790 C   0  0  0  0  0  0  0  0  0  0  0  0
    0.0170   14.3880   -2.5940 C   0  0  0  0  0  0  0  0  0  0  0  0
    1.1490   15.4010   -0.6330 C   0  0  0  0  0  0  0  0  0  0  0  0
    0.9740   10.1730   -0.9180 C   0  0  1  0  0  0  0  0  0  0  0  0
    2.2880    9.7690   -0.1820 C   0  0  0  0  0  0  0  0  0  0  0  0
    0.6880    9.0380   -1.9710 C   0  0  0  0  0  0  0  0  0  0  0  0
   -0.7810    8.8280   -2.3850 C   0  0  0  0  0  0  0  0  0  0  0  0
   -1.6880    8.7280   -1.1540 C   0  0  2  0  0  0  0  0  0  0  0  0
   -1.2500    7.4650   -0.3380 C   0  0  0  0  0  0  0  0  0  0  0  0
   -3.3214    6.2197   -3.7158 H   0  0  0  0  0  0  0  0  0  0  0  0
   -4.7392    7.3192   -3.8047 H   0  0  0  0  0  0  0  0  0  0  0  0
   -3.0757    7.9969   -3.8047 H   0  0  0  0  0  0  0  0  0  0  0  0
   -3.1166    6.4700   -1.4919 H   0  0  0  0  0  0  0  0  0  0  0  0
   -5.2439    6.0293   -0.9460 H   0  0  0  0  0  0  0  0  0  0  0  0
   -5.3194    7.8065   -0.5218 H   0  0  0  0  0  0  0  0  0  0  0  0
   -6.0432    8.1754   -2.9448 H   0  0  0  0  0  0  0  0  0  0  0  0
   -6.3435    6.3875   -2.9839 H   0  0  0  0  0  0  0  0  0  0  0  0
   -7.3409    8.5016   -1.3885 H   0  0  0  0  0  0  0  0  0  0  0  0
   -8.9559    4.9955   -3.2011 H   0  0  0  0  0  0  0  0  0  0  0  0
   -9.8211    6.3107   -4.0661 H   0  0  0  0  0  0  0  0  0  0  0  0
   -8.0254    6.2654   -4.0661 H   0  0  0  0  0  0  0  0  0  0  0  0
  -10.2698    7.5560   -0.7274 H   0  0  0  0  0  0  0  0  0  0  0  0
  -10.2541    8.5473   -2.2254 H   0  0  0  0  0  0  0  0  0  0  0  0
  -11.0404    6.9323   -2.2254 H   0  0  0  0  0  0  0  0  0  0  0  0
   -3.4828    9.2425   -2.2892 H   0  0  0  0  0  0  0  0  0  0  0  0
   -4.6818    9.7586   -0.2562 H   0  0  0  0  0  0  0  0  0  0  0  0
   -4.1948    8.2321    0.5106 H   0  0  0  0  0  0  0  0  0  0  0  0
   -3.0889   10.8044    1.0820 H   0  0  0  0  0  0  0  0  0  0  0  0
   -2.3448    9.2811    1.5618 H   0  0  0  0  0  0  0  0  0  0  0  0
   -2.3802   12.1290   -0.4642 H   0  0  0  0  0  0  0  0  0  0  0  0
   -1.2569   11.6986   -1.7983 H   0  0  0  0  0  0  0  0  0  0  0  0
   -2.9369   11.0626   -1.7983 H   0  0  0  0  0  0  0  0  0  0  0  0
   -0.0357    9.3869    0.8386 H   0  0  0  0  0  0  0  0  0  0  0  0
   -0.8975   11.6850    1.6223 H   0  0  0  0  0  0  0  0  0  0  0  0
    0.8802   11.2315    1.7731 H   0  0  0  0  0  0  0  0  0  0  0  0
    0.3686   13.6847    0.9613 H   0  0  0  0  0  0  0  0  0  0  0  0
    0.3917   11.5195   -2.4465 H   0  0  0  0  0  0  0  0  0  0  0  0
    3.3501   11.6314   -1.5907 H   0  0  0  0  0  0  0  0  0  0  0  0
    2.6662   10.7917   -3.0533 H   0  0  0  0  0  0  0  0  0  0  0  0
    3.7420   12.9447   -3.6257 H   0  0  0  0  0  0  0  0  0  0  0  0
    1.9719   12.9196   -3.9891 H   0  0  0  0  0  0  0  0  0  0  0  0
    2.5235   15.0325   -2.9969 H   0  0  0  0  0  0  0  0  0  0  0  0
    3.2070   14.1950   -0.4900 H   0  0  0  0  0  0  0  0  0  0  0  0
   -0.9229   14.5663   -2.0511 H   0  0  0  0  0  0  0  0  0  0  0  0
    0.2463   15.2587   -3.2260 H   0  0  0  0  0  0  0  0  0  0  0  0
   -0.0886   13.4939   -3.2260 H   0  0  0  0  0  0  0  0  0  0  0  0
    1.1537   15.0599    0.4128 H   0  0  0  0  0  0  0  0  0  0  0  0
    2.0387   16.0200   -0.8208 H   0  0  0  0  0  0  0  0  0  0  0  0
    0.2426   15.9952   -0.8208 H   0  0  0  0  0  0  0  0  0  0  0  0
    2.1291    9.8179    0.9054 H   0  0  0  0  0  0  0  0  0  0  0  0
    2.5670    8.7436   -0.4661 H   0  0  0  0  0  0  0  0  0  0  0  0
    3.0949   10.4606   -0.4661 H   0  0  0  0  0  0  0  0  0  0  0  0
    1.2591    9.2763   -2.8804 H   0  0  0  0  0  0  0  0  0  0  0  0
    0.9830    8.1026   -1.4729 H   0  0  0  0  0  0  0  0  0  0  0  0
   -1.1058    9.6778   -3.0033 H   0  0  0  0  0  0  0  0  0  0  0  0
   -0.8549    7.8888   -2.9528 H   0  0  0  0  0  0  0  0  0  0  0  0
   -1.3245    7.6798    0.7382 H   0  0  0  0  0  0  0  0  0  0  0  0
   -1.9075    6.6198   -0.5896 H   0  0  0  0  0  0  0  0  0  0  0  0
   -0.2104    7.2083   -0.5896 H   0  0  0  0  0  0  0  0  0  0  0  0
  1  2  1  0
  2  3  1  0
  3  4  1  0
  4  5  1  0
  5  6  1  0
  6  7  1  0
  7  8  1  0
  7  9  1  0
  2 10  1  0
 10 11  1  0
 11 12  1  0
 12 13  1  0
 13 14  1  6
 13 15  1  0
 15 16  1  0
 16 17  1  0
 17 18  2  0
 18 19  1  0
 19 20  1  0
 20 21  1  0
 21 22  1  0
 22 23  1  0
 22 24  1  0
 24 25  1  0
 24 26  1  0
 19 27  1  0
 27 28  1  1
 27 29  1  0
 29 30  1  0
 30 31  1  0
 31 32  1  1
  7  5  1  0
 31 10  1  0
 31 13  1  0
 27 15  1  0
 24 18  1  0
  1 33  1  0
  1 34  1  0
  1 35  1  0
  2 36  1  1
  3 37  1  0
  3 38  1  0
  4 39  1  0
  4 40  1  0
  5 41  1  1
  8 42  1  0
  8 43  1  0
  8 44  1  0
  9 45  1  0
  9 46  1  0
  9 47  1  0
 10 48  1  6
 11 49  1  0
 11 50  1  0
 12 51  1  0
 12 52  1  0
 14 53  1  0
 14 54  1  0
 14 55  1  0
 15 56  1  1
 16 57  1  0
 16 58  1  0
 17 59  1  0
 19 60  1  6
 20 61  1  0
 20 62  1  0
 21 63  1  0
 21 64  1  0
 22 65  1  6
 23 66  1  0
 25 67  1  0
 25 68  1  0
 25 69  1  0
 26 70  1  0
 26 71  1  0
 26 72  1  0
 28 73  1  0
 28 74  1  0
 28 75  1  0
 29 76  1  0
 29 77  1  0
 30 78  1  0
 30 79  1  0
 32 80  1  0
 32 81  1  0
 32 82  1  0
M  END
>  <meeko>  (10) 
{"is_sidechain": [false], "intermolecular_energy": 2.731, "internal_energy": -0.839}

$$$$
EPH_relaxed_0001_pdb2pqr_Repair_51_r2_0001_out
     RDKit          3D

 82 86  0  0  0  0  0  0  0  0999 V2000
   -0.8920   16.3480   -5.8440 C   0  0  0  0  0  0  0  0  0  0  0  0
    0.2050   15.6560   -6.6590 C   0  0  2  0  0  0  0  0  0  0  0  0
   -0.1930   15.4820   -8.1380 C   0  0  0  0  0  0  0  0  0  0  0  0
    0.4590   16.5020   -9.0750 C   0  0  0  0  0  0  0  0  0  0  0  0
    1.8610   16.1090   -9.4320 C   0  0  2  0  0  0  0  0  0  0  0  0
    2.3460   16.6700  -10.6590 O   0  0  0  0  0  0  0  0  0  0  0  0
    2.2080   15.2400  -10.6270 C   0  0  0  0  0  0  0  0  0  0  0  0
    1.1480   14.7100  -11.5400 C   0  0  0  0  0  0  0  0  0  0  0  0
    3.5140   14.5080  -10.6240 C   0  0  0  0  0  0  0  0  0  0  0  0
    0.5320   14.3000   -6.0440 C   0  0  1  0  0  0  0  0  0  0  0  0
    1.7980   13.6530   -6.6650 C   0  0  0  0  0  0  0  0  0  0  0  0
    2.5120   12.8830   -5.5240 C   0  0  0  0  0  0  0  0  0  0  0  0
    1.4750   12.8340   -4.3780 C   0  0  1  0  0  0  0  0  0  0  0  0
    0.5230   11.6530   -4.7490 C   0  0  0  0  0  0  0  0  0  0  0  0
    2.0490   12.6800   -2.9320 C   0  0  2  0  0  0  0  0  0  0  0  0
    2.8260   11.3760   -2.6740 C   0  0  0  0  0  0  0  0  0  0  0  0
    2.0060   10.2360   -2.1680 C   0  0  0  0  0  0  0  0  0  0  0  0
    0.7630   10.3300   -1.6600 C   0  0  0  0  0  0  0  0  0  0  0  0
    0.0930   11.6970   -1.4670 C   0  0  1  0  0  0  0  0  0  0  0  0
   -0.5510   11.7620   -0.0570 C   0  0  0  0  0  0  0  0  0  0  0  0
   -1.5060   10.6020    0.2050 C   0  0  0  0  0  0  0  0  0  0  0  0
   -0.7890    9.2620    0.0590 C   0  0  2  0  0  0  0  0  0  0  0  0
    0.1790    9.1410    1.1060 O   0  0  0  0  0  0  0  0  0  0  0  0
   -0.0930    9.0860   -1.3190 C   0  0  0  0  0  0  0  0  0  0  0  0
   -1.1640    8.9140   -2.4250 C   0  0  0  0  0  0  0  0  0  0  0  0
    0.7100    7.7570   -1.2820 C   0  0  0  0  0  0  0  0  0  0  0  0
    0.9990   12.9640   -1.7840 C   0  0  1  0  0  0  0  0  0  0  0  0
    1.8190   13.3620   -0.5180 C   0  0  0  0  0  0  0  0  0  0  0  0
    0.0680   14.1900   -2.1130 C   0  0  0  0  0  0  0  0  0  0  0  0
   -0.3680   14.3560   -3.5820 C   0  0  0  0  0  0  0  0  0  0  0  0
    0.8350   14.2620   -4.5250 C   0  0  2  0  0  0  0  0  0  0  0  0
    1.7990   15.4510   -4.1910 C   0  0  0  0  0  0  0  0  0  0  0  0
   -0.6879   16.2192   -4.7708 H   0  0  0  0  0  0  0  0  0  0  0  0
   -0.9087   17.4205   -6.0880 H   0  0  0  0  0  0  0  0  0  0  0  0
   -1.8671   15.9012   -6.0880 H   0  0  0  0  0  0  0  0  0  0  0  0
    1.0954   16.3013   -6.6309 H   0  0  0  0  0  0  0  0  0  0  0  0
    0.1046   14.4736   -8.4614 H   0  0  0  0  0  0  0  0  0  0  0  0
   -1.2801   15.6386   -8.1989 H   0  0  0  0  0  0  0  0  0  0  0  0
   -0.1374   16.5718   -9.9966 H   0  0  0  0  0  0  0  0  0  0  0  0
    0.4959   17.4708   -8.5554 H   0  0  0  0  0  0  0  0  0  0  0  0
    2.1395   16.0478   -8.3696 H   0  0  0  0  0  0  0  0  0  0  0  0
    0.3221   14.2970  -10.9422 H   0  0  0  0  0  0  0  0  0  0  0  0
    0.7696   15.5250  -12.1746 H   0  0  0  0  0  0  0  0  0  0  0  0
    1.5729   13.9183  -12.1746 H   0  0  0  0  0  0  0  0  0  0  0  0
    3.8320   14.3297   -9.5862 H   0  0  0  0  0  0  0  0  0  0  0  0
    3.3956   13.5447  -11.1418 H   0  0  0  0  0  0  0  0  0  0  0  0
    4.2739   15.1117  -11.1418 H   0  0  0  0  0  0  0  0  0  0  0  0
   -0.4095   13.7709   -6.2527 H   0  0  0  0  0  0  0  0  0  0  0  0
    1.5130   12.9593   -7.4697 H   0  0  0  0  0  0  0  0  0  0  0  0
    2.4591   14.4169   -7.1001 H   0  0  0  0  0  0  0  0  0  0  0  0
    2.7795   11.8668   -5.8494 H   0  0  0  0  0  0  0  0  0  0  0  0
    3.4504   13.3680   -5.2170 H   0  0  0  0  0  0  0  0  0  0  0  0
    0.1448   11.1839   -3.8287 H   0  0  0  0  0  0  0  0  0  0  0  0
   -0.3225   12.0353   -5.3398 H   0  0  0  0  0  0  0  0  0  0  0  0
    1.0760   10.9080   -5.3398 H   0  0  0  0  0  0  0  0  0  0  0  0
    2.7956   13.4866   -2.8874 H   0  0  0  0  0  0  0  0  0  0  0  0
    3.2930   11.0654   -3.6203 H   0  0  0  0  0  0  0  0  0  0  0  0
    3.5517   11.6056   -1.8799 H   0  0  0  0  0  0  0  0  0  0  0  0
    2.4560    9.2333   -2.2142 H   0  0  0  0  0  0  0  0  0  0  0  0
   -0.6885   11.7655   -2.2381 H   0  0  0  0  0  0  0  0  0  0  0  0
    0.2492   11.7370    0.6974 H   0  0  0  0  0  0  0  0  0  0  0  0
   -1.1337   12.6932    0.0008 H   0  0  0  0  0  0  0  0  0  0  0  0
   -1.9048   10.6876    1.2266 H   0  0  0  0  0  0  0  0  0  0  0  0
   -2.3222   10.6458   -0.5311 H   0  0  0  0  0  0  0  0  0  0  0  0
   -1.5505    8.4713    0.1283 H   0  0  0  0  0  0  0  0  0  0  0  0
    0.7740    9.9080    1.0460 H   0  0  0  0  0  0  0  0  0  0  0  0
   -2.1485    8.7559   -1.9606 H   0  0  0  0  0  0  0  0  0  0  0  0
   -1.1944    9.8188   -3.0499 H   0  0  0  0  0  0  0  0  0  0  0  0
   -0.9096    8.0452   -3.0499 H   0  0  0  0  0  0  0  0  0  0  0  0
    0.8868    7.4644   -0.2365 H   0  0  0  0  0  0  0  0  0  0  0  0
    0.1372    6.9682   -1.7917 H   0  0  0  0  0  0  0  0  0  0  0  0
    1.6747    7.8972   -1.7917 H   0  0  0  0  0  0  0  0  0  0  0  0
    1.2546   13.0880    0.3855 H   0  0  0  0  0  0  0  0  0  0  0  0
    2.7825   12.8313   -0.5234 H   0  0  0  0  0  0  0  0  0  0  0  0
    1.9981   14.4473   -0.5234 H   0  0  0  0  0  0  0  0  0  0  0  0
   -0.8429   14.0890   -1.5047 H   0  0  0  0  0  0  0  0  0  0  0  0
    0.6743   15.0803   -1.8900 H   0  0  0  0  0  0  0  0  0  0  0  0
   -1.0869   13.5630   -3.8357 H   0  0  0  0  0  0  0  0  0  0  0  0
   -0.8300   15.3472   -3.7008 H   0  0  0  0  0  0  0  0  0  0  0  0
    1.8854   15.5575   -3.0996 H   0  0  0  0  0  0  0  0  0  0  0  0
    2.7919   15.2495   -4.6195 H   0  0  0  0  0  0  0  0  0  0  0  0
    1.3966   16.3808   -4.6195 H   0  0  0  0  0  0  0  0  0  0  0  0
  1  2  1  0
  2  3  1  0
  3  4  1  0
  4  5  1  0
  5  6  1  0
  6  7  1  0
  7  8  1  0
  7  9  1  0
  2 10  1  0
 10 11  1  0
 11 12  1  0
 12 13  1  0
 13 14  1  6
 13 15  1  0
 15 16  1  0
 16 17  1  0
 17 18  2  0
 18 19  1  0
 19 20  1  0
 20 21  1  0
 21 22  1  0
 22 23  1  0
 22 24  1  0
 24 25  1  0
 24 26  1  0
 19 27  1  0
 27 28  1  1
 27 29  1  0
 29 30  1  0
 30 31  1  0
 31 32  1  1
  7  5  1  0
 31 10  1  0
 31 13  1  0
 27 15  1  0
 24 18  1  0
  1 33  1  0
  1 34  1  0
  1 35  1  0
  2 36  1  6
  3 37  1  0
  3 38  1  0
  4 39  1  0
  4 40  1  0
  5 41  1  1
  8 42  1  0
  8 43  1  0
  8 44  1  0
  9 45  1  0
  9 46  1  0
  9 47  1  0
 10 48  1  1
 11 49  1  0
 11 50  1  0
 12 51  1  0
 12 52  1  0
 14 53  1  0
 14 54  1  0
 14 55  1  0
 15 56  1  6
 16 57  1  0
 16 58  1  0
 17 59  1  0
 19 60  1  6
 20 61  1  0
 20 62  1  0
 21 63  1  0
 21 64  1  0
 22 65  1  1
 23 66  1  0
 25 67  1  0
 25 68  1  0
 25 69  1  0
 26 70  1  0
 26 71  1  0
 26 72  1  0
 28 73  1  0
 28 74  1  0
 28 75  1  0
 29 76  1  0
 29 77  1  0
 30 78  1  0
 30 79  1  0
 32 80  1  0
 32 81  1  0
 32 82  1  0
M  END
>  <meeko>  (11) 
{"is_sidechain": [false], "intermolecular_energy": 2.731, "internal_energy": -0.839}

$$$$
EPH_relaxed_0001_pdb2pqr_Repair_51_r2_0001_out
     RDKit          3D

 82 86  0  0  0  0  0  0  0  0999 V2000
   -0.2870   15.0570   -7.6800 C   0  0  0  0  0  0  0  0  0  0  0  0
    1.0740   15.0600   -6.9770 C   0  0  2  0  0  0  0  0  0  0  0  0
    2.2430   15.1650   -7.9760 C   0  0  0  0  0  0  0  0  0  0  0  0
    2.2720   16.4840   -8.7540 C   0  0  0  0  0  0  0  0  0  0  0  0
    1.8770   16.2910  -10.1870 C   0  0  2  0  0  0  0  0  0  0  0  0
    1.2050   15.0550  -10.4610 O   0  0  0  0  0  0  0  0  0  0  0  0
    2.4860   15.2330  -11.0870 C   0  0  0  0  0  0  0  0  0  0  0  0
    3.5420   14.2970  -10.5890 C   0  0  0  0  0  0  0  0  0  0  0  0
    2.4100   15.4250  -12.5700 C   0  0  0  0  0  0  0  0  0  0  0  0
    1.2240   13.8020   -6.1300 C   0  0  1  0  0  0  0  0  0  0  0  0
    2.6580   13.2120   -6.1850 C   0  0  0  0  0  0  0  0  0  0  0  0
    2.9520   12.6180   -4.7840 C   0  0  0  0  0  0  0  0  0  0  0  0
    1.5770   12.5870   -4.0770 C   0  0  1  0  0  0  0  0  0  0  0  0
    0.8790   11.2990   -4.6140 C   0  0  0  0  0  0  0  0  0  0  0  0
    1.6020   12.6210   -2.5140 C   0  0  2  0  0  0  0  0  0  0  0  0
    2.2960   11.4210   -1.8470 C   0  0  0  0  0  0  0  0  0  0  0  0
    1.4060   10.2660   -1.5270 C   0  0  0  0  0  0  0  0  0  0  0  0
    0.0610   10.2990   -1.5030 C   0  0  0  0  0  0  0  0  0  0  0  0
   -0.6990   11.6130   -1.7210 C   0  0  1  0  0  0  0  0  0  0  0  0
   -1.8080   11.7550   -0.6450 C   0  0  0  0  0  0  0  0  0  0  0  0
   -2.7360   10.5460   -0.5990 C   0  0  0  0  0  0  0  0  0  0  0  0
   -1.9510    9.2660   -0.3230 C   0  0  2  0  0  0  0  0  0  0  0  0
   -1.4180    9.3290    1.0040 O   0  0  0  0  0  0  0  0  0  0  0  0
   -0.8000    9.0220   -1.3380 C   0  0  0  0  0  0  0  0  0  0  0  0
   -1.3940    8.6540   -2.7200 C   0  0  0  0  0  0  0  0  0  0  0  0
   -0.0010    7.7780   -0.8640 C   0  0  0  0  0  0  0  0  0  0  0  0
    0.1980   12.9190   -1.8490 C   0  0  1  0  0  0  0  0  0  0  0  0
    0.4900   13.5050   -0.4340 C   0  0  0  0  0  0  0  0  0  0  0  0
   -0.6100   14.0230   -2.6280 C   0  0  0  0  0  0  0  0  0  0  0  0
   -0.5000   14.0110   -4.1650 C   0  0  0  0  0  0  0  0  0  0  0  0
    0.9640   13.9340   -4.6080 C   0  0  2  0  0  0  0  0  0  0  0  0
    1.6870   15.2280   -4.1010 C   0  0  0  0  0  0  0  0  0  0  0  0
   -1.0887   15.0552   -6.9268 H   0  0  0  0  0  0  0  0  0  0  0  0
   -0.3768   15.9549   -8.3090 H   0  0  0  0  0  0  0  0  0  0  0  0
   -0.3728   14.1587   -8.3090 H   0  0  0  0  0  0  0  0  0  0  0  0
    1.1110   15.9496   -6.3311 H   0  0  0  0  0  0  0  0  0  0  0  0
    3.1862   15.0703   -7.4179 H   0  0  0  0  0  0  0  0  0  0  0  0
    2.1087   14.3599   -8.7134 H   0  0  0  0  0  0  0  0  0  0  0  0
    1.5727   17.1909   -8.2835 H   0  0  0  0  0  0  0  0  0  0  0  0
    3.3006   16.8731   -8.7312 H   0  0  0  0  0  0  0  0  0  0  0  0
    1.7286   17.3732  -10.3166 H   0  0  0  0  0  0  0  0  0  0  0  0
    3.5425   14.2966   -9.4890 H   0  0  0  0  0  0  0  0  0  0  0  0
    3.3342   13.2811  -10.9560 H   0  0  0  0  0  0  0  0  0  0  0  0
    4.5256   14.6253  -10.9560 H   0  0  0  0  0  0  0  0  0  0  0  0
    2.0133   16.4271  -12.7901 H   0  0  0  0  0  0  0  0  0  0  0  0
    3.4155   15.3250  -13.0047 H   0  0  0  0  0  0  0  0  0  0  0  0
    1.7453   14.6639  -13.0047 H   0  0  0  0  0  0  0  0  0  0  0  0
    0.4467   13.1754   -6.5918 H   0  0  0  0  0  0  0  0  0  0  0  0
    2.7140   12.4235   -6.9499 H   0  0  0  0  0  0  0  0  0  0  0  0
    3.3936   13.9866   -6.4475 H   0  0  0  0  0  0  0  0  0  0  0  0
    3.3665   11.6029   -4.8718 H   0  0  0  0  0  0  0  0  0  0  0  0
    3.6939   13.2094   -4.2275 H   0  0  0  0  0  0  0  0  0  0  0  0
    0.5449   10.6825   -3.7665 H   0  0  0  0  0  0  0  0  0  0  0  0
    0.0104   11.5812   -5.2271 H   0  0  0  0  0  0  0  0  0  0  0  0
    1.5896   10.7253   -5.2271 H   0  0  0  0  0  0  0  0  0  0  0  0
    2.2433   13.4905   -2.3075 H   0  0  0  0  0  0  0  0  0  0  0  0
    3.0848   11.0643   -2.5257 H   0  0  0  0  0  0  0  0  0  0  0  0
    2.6770   11.7877   -0.8824 H   0  0  0  0  0  0  0  0  0  0  0  0
    1.8905    9.3071   -1.2909 H   0  0  0  0  0  0  0  0  0  0  0  0
   -1.1553   11.5386   -2.7191 H   0  0  0  0  0  0  0  0  0  0  0  0
   -1.3313   11.8713    0.3395 H   0  0  0  0  0  0  0  0  0  0  0  0
   -2.4165   12.6333   -0.9064 H   0  0  0  0  0  0  0  0  0  0  0  0
   -3.4785   10.6922    0.1994 H   0  0  0  0  0  0  0  0  0  0  0  0
   -3.2346   10.4487   -1.5747 H   0  0  0  0  0  0  0  0  0  0  0  0
   -2.6479    8.4219   -0.4313 H   0  0  0  0  0  0  0  0  0  0  0  0
   -0.4480    9.3290    0.9310 H   0  0  0  0  0  0  0  0  0  0  0  0
   -2.3214    8.0794   -2.5793 H   0  0  0  0  0  0  0  0  0  0  0  0
   -1.6143    9.5741   -3.2812 H   0  0  0  0  0  0  0  0  0  0  0  0
   -0.6683    8.0471   -3.2812 H   0  0  0  0  0  0  0  0  0  0  0  0
    0.0166    7.7506    0.2355 H   0  0  0  0  0  0  0  0  0  0  0  0
   -0.4825    6.8656   -1.2458 H   0  0  0  0  0  0  0  0  0  0  0  0
    1.0289    7.8364   -1.2458 H   0  0  0  0  0  0  0  0  0  0  0  0
    0.1389   12.8004    0.3343 H   0  0  0  0  0  0  0  0  0  0  0  0
    1.5724   13.6635   -0.3190 H   0  0  0  0  0  0  0  0  0  0  0  0
   -0.0353   14.4646   -0.3190 H   0  0  0  0  0  0  0  0  0  0  0  0
   -1.6724   13.9021   -2.3696 H   0  0  0  0  0  0  0  0  0  0  0  0
   -0.1650   14.9792   -2.3154 H   0  0  0  0  0  0  0  0  0  0  0  0
   -1.0415   13.1378   -4.5579 H   0  0  0  0  0  0  0  0  0  0  0  0
   -0.9367   14.9419   -4.5557 H   0  0  0  0  0  0  0  0  0  0  0  0
    1.6925   15.2379   -3.0011 H   0  0  0  0  0  0  0  0  0  0  0  0
    2.7221   15.2393   -4.4730 H   0  0  0  0  0  0  0  0  0  0  0  0
    1.1540   16.1154   -4.4730 H   0  0  0  0  0  0  0  0  0  0  0  0
  1  2  1  0
  2  3  1  0
  3  4  1  0
  4  5  1  0
  5  6  1  0
  6  7  1  0
  7  8  1  0
  7  9  1  0
  2 10  1  0
 10 11  1  0
 11 12  1  0
 12 13  1  0
 13 14  1  1
 13 15  1  0
 15 16  1  0
 16 17  1  0
 17 18  2  0
 18 19  1  0
 19 20  1  0
 20 21  1  0
 21 22  1  0
 22 23  1  0
 22 24  1  0
 24 25  1  0
 24 26  1  0
 19 27  1  0
 27 28  1  1
 27 29  1  0
 29 30  1  0
 30 31  1  0
 31 32  1  1
  7  5  1  0
 31 10  1  0
 31 13  1  0
 27 15  1  0
 24 18  1  0
  1 33  1  0
  1 34  1  0
  1 35  1  0
  2 36  1  1
  3 37  1  0
  3 38  1  0
  4 39  1  0
  4 40  1  0
  5 41  1  6
  8 42  1  0
  8 43  1  0
  8 44  1  0
  9 45  1  0
  9 46  1  0
  9 47  1  0
 10 48  1  6
 11 49  1  0
 11 50  1  0
 12 51  1  0
 12 52  1  0
 14 53  1  0
 14 54  1  0
 14 55  1  0
 15 56  1  6
 16 57  1  0
 16 58  1  0
 17 59  1  0
 19 60  1  6
 20 61  1  0
 20 62  1  0
 21 63  1  0
 21 64  1  0
 22 65  1  1
 23 66  1  0
 25 67  1  0
 25 68  1  0
 25 69  1  0
 26 70  1  0
 26 71  1  0
 26 72  1  0
 28 73  1  0
 28 74  1  0
 28 75  1  0
 29 76  1  0
 29 77  1  0
 30 78  1  0
 30 79  1  0
 32 80  1  0
 32 81  1  0
 32 82  1  0
M  END
>  <meeko>  (12) 
{"is_sidechain": [false], "intermolecular_energy": 2.731, "internal_energy": -0.839}

$$$$
EPH_relaxed_0001_pdb2pqr_Repair_51_r2_0001_out
     RDKit          3D

 82 86  0  0  0  0  0  0  0  0999 V2000
   -2.1350    7.8000   -2.1590 C   0  0  0  0  0  0  0  0  0  0  0  0
   -2.2610    8.4710   -0.7880 C   0  0  2  0  0  0  0  0  0  0  0  0
   -3.7170    8.4840   -0.2800 C   0  0  0  0  0  0  0  0  0  0  0  0
   -4.7230    7.9100   -1.2810 C   0  0  0  0  0  0  0  0  0  0  0  0
   -5.8990    7.2890   -0.5890 C   0  0  2  0  0  0  0  0  0  0  0  0
   -6.4360    6.1310   -1.2430 O   0  0  0  0  0  0  0  0  0  0  0  0
   -7.3010    7.2760   -1.1710 C   0  0  0  0  0  0  0  0  0  0  0  0
   -7.6000    7.8980   -2.4990 C   0  0  0  0  0  0  0  0  0  0  0  0
   -8.4600    7.0980   -0.2400 C   0  0  0  0  0  0  0  0  0  0  0  0
   -1.7190    9.8940   -0.8540 C   0  0  1  0  0  0  0  0  0  0  0  0
   -1.2670   10.4250    0.5320 C   0  0  0  0  0  0  0  0  0  0  0  0
   -0.0360   11.3350    0.2830 C   0  0  0  0  0  0  0  0  0  0  0  0
   -0.0240   11.5630   -1.2470 C   0  0  1  0  0  0  0  0  0  0  0  0
   -1.0690   12.6960   -1.4920 C   0  0  0  0  0  0  0  0  0  0  0  0
    1.3620   11.9090   -1.8820 C   0  0  2  0  0  0  0  0  0  0  0  0
    1.9960   13.2220   -1.3900 C   0  0  0  0  0  0  0  0  0  0  0  0
    1.6450   14.4370   -2.1830 C   0  0  0  0  0  0  0  0  0  0  0  0
    1.0860   14.4360   -3.4080 C   0  0  0  0  0  0  0  0  0  0  0  0
    0.8410   13.1230   -4.1620 C   0  0  1  0  0  0  0  0  0  0  0  0
    1.3300   13.2680   -5.6270 C   0  0  0  0  0  0  0  0  0  0  0  0
    0.7110   14.4700   -6.3340 C   0  0  0  0  0  0  0  0  0  0  0  0
    1.0260   15.7630   -5.5870 C   0  0  2  0  0  0  0  0  0  0  0  0
    2.4320   16.0130   -5.6690 O   0  0  0  0  0  0  0  0  0  0  0  0
    0.5880   15.7310   -4.0960 C   0  0  0  0  0  0  0  0  0  0  0  0
   -0.9580   15.7640   -4.0070 C   0  0  0  0  0  0  0  0  0  0  0  0
    1.0890   17.0380   -3.4230 C   0  0  0  0  0  0  0  0  0  0  0  0
    1.3950   11.8080   -3.4610 C   0  0  1  0  0  0  0  0  0  0  0  0
    2.8840   11.5780   -3.8620 C   0  0  0  0  0  0  0  0  0  0  0  0
    0.5930   10.5640   -3.9980 C   0  0  0  0  0  0  0  0  0  0  0  0
   -0.7060   10.2000   -3.2530 C   0  0  0  0  0  0  0  0  0  0  0  0
   -0.4720   10.1400   -1.7410 C   0  0  2  0  0  0  0  0  0  0  0  0
    0.5590    8.9940   -1.4610 C   0  0  0  0  0  0  0  0  0  0  0  0
   -1.9335    6.7270   -2.0249 H   0  0  0  0  0  0  0  0  0  0  0  0
   -3.0732    7.9298   -2.7184 H   0  0  0  0  0  0  0  0  0  0  0  0
   -1.3078    8.2613   -2.7184 H   0  0  0  0  0  0  0  0  0  0  0  0
   -1.6677    7.8805   -0.0743 H   0  0  0  0  0  0  0  0  0  0  0  0
   -3.7679    7.8888    0.6436 H   0  0  0  0  0  0  0  0  0  0  0  0
   -3.9911    9.5367   -0.1165 H   0  0  0  0  0  0  0  0  0  0  0  0
   -5.0800    8.7210   -1.9328 H   0  0  0  0  0  0  0  0  0  0  0  0
   -4.2170    7.1283   -1.8666 H   0  0  0  0  0  0  0  0  0  0  0  0
   -5.5108    7.5927    0.3944 H   0  0  0  0  0  0  0  0  0  0  0  0
   -8.0719    8.8798   -2.3461 H   0  0  0  0  0  0  0  0  0  0  0  0
   -6.6644    8.0248   -3.0635 H   0  0  0  0  0  0  0  0  0  0  0  0
   -8.2834    7.2466   -3.0635 H   0  0  0  0  0  0  0  0  0  0  0  0
   -8.1064    7.1523    0.8002 H   0  0  0  0  0  0  0  0  0  0  0  0
   -9.1989    7.8932   -0.4181 H   0  0  0  0  0  0  0  0  0  0  0  0
   -8.9262    6.1177   -0.4181 H   0  0  0  0  0  0  0  0  0  0  0  0
   -2.5931   10.4049   -1.2842 H   0  0  0  0  0  0  0  0  0  0  0  0
   -2.0777   11.0038    0.9986 H   0  0  0  0  0  0  0  0  0  0  0  0
   -1.0146    9.5959    1.2094 H   0  0  0  0  0  0  0  0  0  0  0  0
   -0.1446   12.2903    0.8174 H   0  0  0  0  0  0  0  0  0  0  0  0
    0.8986   10.8817    0.6450 H   0  0  0  0  0  0  0  0  0  0  0  0
   -1.4249   13.0819   -0.5253 H   0  0  0  0  0  0  0  0  0  0  0  0
   -0.5991   13.5113   -2.0617 H   0  0  0  0  0  0  0  0  0  0  0  0
   -1.9195   12.2934   -2.0617 H   0  0  0  0  0  0  0  0  0  0  0  0
    2.0050   11.1039   -1.4968 H   0  0  0  0  0  0  0  0  0  0  0  0
    1.6712   13.3881   -0.3523 H   0  0  0  0  0  0  0  0  0  0  0  0
    3.0832   13.0931   -1.4966 H   0  0  0  0  0  0  0  0  0  0  0  0
    1.8611   15.4151   -1.7285 H   0  0  0  0  0  0  0  0  0  0  0  0
   -0.2469   12.9613   -4.1463 H   0  0  0  0  0  0  0  0  0  0  0  0
    2.4237   13.3856   -5.6237 H   0  0  0  0  0  0  0  0  0  0  0  0
    1.0217   12.3642   -6.1730 H   0  0  0  0  0  0  0  0  0  0  0  0
    1.1165   14.5357   -7.3544 H   0  0  0  0  0  0  0  0  0  0  0  0
   -0.3806   14.3374   -6.3620 H   0  0  0  0  0  0  0  0  0  0  0  0
    0.4508   16.5687   -6.0665 H   0  0  0  0  0  0  0  0  0  0  0  0
    2.7650   16.1240   -4.7630 H   0  0  0  0  0  0  0  0  0  0  0  0
   -1.2644   15.7705   -2.9506 H   0  0  0  0  0  0  0  0  0  0  0  0
   -1.3346   16.6704   -4.5036 H   0  0  0  0  0  0  0  0  0  0  0  0
   -1.3729   14.8745   -4.5036 H   0  0  0  0  0  0  0  0  0  0  0  0
    1.0464   16.9269   -2.3294 H   0  0  0  0  0  0  0  0  0  0  0  0
    2.1263   17.2349   -3.7314 H   0  0  0  0  0  0  0  0  0  0  0  0
    0.4491   17.8778   -3.7314 H   0  0  0  0  0  0  0  0  0  0  0  0
    3.4978   11.4832   -2.9541 H   0  0  0  0  0  0  0  0  0  0  0  0
    2.9653   10.6567   -4.4574 H   0  0  0  0  0  0  0  0  0  0  0  0
    3.2395   12.4319   -4.4574 H   0  0  0  0  0  0  0  0  0  0  0  0
    0.3297   10.7654   -5.0469 H   0  0  0  0  0  0  0  0  0  0  0  0
    1.2617    9.7037   -3.8474 H   0  0  0  0  0  0  0  0  0  0  0  0
   -1.4701   10.9612   -3.4690 H   0  0  0  0  0  0  0  0  0  0  0  0
   -1.0413    9.2100   -3.5957 H   0  0  0  0  0  0  0  0  0  0  0  0
    0.6763    8.8636   -0.3751 H   0  0  0  0  0  0  0  0  0  0  0  0
    0.1946    8.0562   -1.9057 H   0  0  0  0  0  0  0  0  0  0  0  0
    1.5300    9.2576   -1.9057 H   0  0  0  0  0  0  0  0  0  0  0  0
  1  2  1  0
  2  3  1  0
  3  4  1  0
  4  5  1  0
  5  6  1  0
  6  7  1  0
  7  8  1  0
  7  9  1  0
  2 10  1  0
 10 11  1  0
 11 12  1  0
 12 13  1  0
 13 14  1  1
 13 15  1  0
 15 16  1  0
 16 17  1  0
 17 18  2  0
 18 19  1  0
 19 20  1  0
 20 21  1  0
 21 22  1  0
 22 23  1  0
 22 24  1  0
 24 25  1  0
 24 26  1  0
 19 27  1  0
 27 28  1  6
 27 29  1  0
 29 30  1  0
 30 31  1  0
 31 32  1  6
  7  5  1  0
 31 10  1  0
 31 13  1  0
 27 15  1  0
 24 18  1  0
  1 33  1  0
  1 34  1  0
  1 35  1  0
  2 36  1  1
  3 37  1  0
  3 38  1  0
  4 39  1  0
  4 40  1  0
  5 41  1  1
  8 42  1  0
  8 43  1  0
  8 44  1  0
  9 45  1  0
  9 46  1  0
  9 47  1  0
 10 48  1  6
 11 49  1  0
 11 50  1  0
 12 51  1  0
 12 52  1  0
 14 53  1  0
 14 54  1  0
 14 55  1  0
 15 56  1  1
 16 57  1  0
 16 58  1  0
 17 59  1  0
 19 60  1  6
 20 61  1  0
 20 62  1  0
 21 63  1  0
 21 64  1  0
 22 65  1  6
 23 66  1  0
 25 67  1  0
 25 68  1  0
 25 69  1  0
 26 70  1  0
 26 71  1  0
 26 72  1  0
 28 73  1  0
 28 74  1  0
 28 75  1  0
 29 76  1  0
 29 77  1  0
 30 78  1  0
 30 79  1  0
 32 80  1  0
 32 81  1  0
 32 82  1  0
M  END
>  <meeko>  (13) 
{"is_sidechain": [false], "intermolecular_energy": 2.731, "internal_energy": -0.839}

$$$$
EPH_relaxed_0001_pdb2pqr_Repair_51_r2_0001_out
     RDKit          3D

 82 86  0  0  0  0  0  0  0  0999 V2000
   -0.4210    9.3990   -2.2260 C   0  0  0  0  0  0  0  0  0  0  0  0
    0.7980   10.2440   -2.6080 C   0  0  2  0  0  0  0  0  0  0  0  0
    2.1090    9.4350   -2.5470 C   0  0  0  0  0  0  0  0  0  0  0  0
    3.0700    9.7310   -3.7010 C   0  0  0  0  0  0  0  0  0  0  0  0
    4.2980   10.4480   -3.2290 C   0  0  2  0  0  0  0  0  0  0  0  0
    4.5170   11.7260   -3.8410 O   0  0  0  0  0  0  0  0  0  0  0  0
    5.5020   10.7160   -4.1140 C   0  0  0  0  0  0  0  0  0  0  0  0
    5.5360   10.2690   -5.5420 C   0  0  0  0  0  0  0  0  0  0  0  0
    6.8250   10.9720   -3.4630 C   0  0  0  0  0  0  0  0  0  0  0  0
    0.8930   11.4610   -1.6960 C   0  0  1  0  0  0  0  0  0  0  0  0
    1.9840   11.3040   -0.6030 C   0  0  0  0  0  0  0  0  0  0  0  0
    2.5950   12.7100   -0.3750 C   0  0  0  0  0  0  0  0  0  0  0  0
    1.6240   13.6780   -1.0900 C   0  0  1  0  0  0  0  0  0  0  0  0
    0.4500   13.8870   -0.0820 C   0  0  0  0  0  0  0  0  0  0  0  0
    2.2280   15.0410   -1.5620 C   0  0  2  0  0  0  0  0  0  0  0  0
    2.7580   15.9450   -0.4350 C   0  0  0  0  0  0  0  0  0  0  0  0
    1.7640   16.9030    0.1330 C   0  0  0  0  0  0  0  0  0  0  0  0
    0.5870   17.2350   -0.4290 C   0  0  0  0  0  0  0  0  0  0  0  0
    0.1960   16.6980   -1.8120 C   0  0  1  0  0  0  0  0  0  0  0  0
   -0.3550   17.8590   -2.6810 C   0  0  0  0  0  0  0  0  0  0  0  0
   -1.4980   18.6070   -2.0020 C   0  0  0  0  0  0  0  0  0  0  0  0
   -1.0530   19.1750   -0.6560 C   0  0  2  0  0  0  0  0  0  0  0  0
   -0.0750   20.1940   -0.8870 O   0  0  0  0  0  0  0  0  0  0  0  0
   -0.4700   18.0990    0.3010 C   0  0  0  0  0  0  0  0  0  0  0  0
   -1.6070   17.1670    0.7900 C   0  0  0  0  0  0  0  0  0  0  0  0
    0.0690   18.8240    1.5640 C   0  0  0  0  0  0  0  0  0  0  0  0
    1.3070   15.8460   -2.5650 C   0  0  1  0  0  0  0  0  0  0  0  0
    2.2480   16.7930   -3.3710 C   0  0  0  0  0  0  0  0  0  0  0  0
    0.6090   14.9090   -3.6200 C   0  0  0  0  0  0  0  0  0  0  0  0
    0.1410   13.5290   -3.1220 C   0  0  0  0  0  0  0  0  0  0  0  0
    1.2570   12.8160   -2.3530 C   0  0  2  0  0  0  0  0  0  0  0  0
    2.4430   12.5730   -3.3470 C   0  0  0  0  0  0  0  0  0  0  0  0
   -0.5002    9.3441   -1.1302 H   0  0  0  0  0  0  0  0  0  0  0  0
   -1.3308    9.8612   -2.6367 H   0  0  0  0  0  0  0  0  0  0  0  0
   -0.3074    8.3849   -2.6367 H   0  0  0  0  0  0  0  0  0  0  0  0
    0.6609   10.5700   -3.6496 H   0  0  0  0  0  0  0  0  0  0  0  0
    2.6189    9.6712   -1.6014 H   0  0  0  0  0  0  0  0  0  0  0  0
    1.8344    8.3725   -2.6223 H   0  0  0  0  0  0  0  0  0  0  0  0
    3.3692    8.7812   -4.1684 H   0  0  0  0  0  0  0  0  0  0  0  0
    2.5505   10.3788   -4.4225 H   0  0  0  0  0  0  0  0  0  0  0  0
    4.2026   10.0026   -2.2277 H   0  0  0  0  0  0  0  0  0  0  0  0
    5.6194    9.1729   -5.5812 H   0  0  0  0  0  0  0  0  0  0  0  0
    4.6112   10.5847   -6.0471 H   0  0  0  0  0  0  0  0  0  0  0  0
    6.4024   10.7209   -6.0471 H   0  0  0  0  0  0  0  0  0  0  0  0
    6.7062   10.9490   -2.3697 H   0  0  0  0  0  0  0  0  0  0  0  0
    7.5412   10.1958   -3.7704 H   0  0  0  0  0  0  0  0  0  0  0  0
    7.2000   11.9594   -3.7704 H   0  0  0  0  0  0  0  0  0  0  0  0
   -0.1403   11.4908   -1.3201 H   0  0  0  0  0  0  0  0  0  0  0  0
    1.5351   10.9304    0.3292 H   0  0  0  0  0  0  0  0  0  0  0  0
    2.7551   10.5845   -0.9155 H   0  0  0  0  0  0  0  0  0  0  0  0
    2.6511   12.9395    0.6993 H   0  0  0  0  0  0  0  0  0  0  0  0
    3.6214   12.7867   -0.7630 H   0  0  0  0  0  0  0  0  0  0  0  0
    0.8335   13.8187    0.9467 H   0  0  0  0  0  0  0  0  0  0  0  0
    0.0021   14.8790   -0.2413 H   0  0  0  0  0  0  0  0  0  0  0  0
   -0.3127   13.1105   -0.2413 H   0  0  0  0  0  0  0  0  0  0  0  0
    3.1142   14.7219   -2.1302 H   0  0  0  0  0  0  0  0  0  0  0  0
    3.1123   15.2985    0.3814 H   0  0  0  0  0  0  0  0  0  0  0  0
    3.5514   16.5599   -0.8850 H   0  0  0  0  0  0  0  0  0  0  0  0
    2.0149   17.3781    1.0928 H   0  0  0  0  0  0  0  0  0  0  0  0
   -0.5954   15.9543   -1.6369 H   0  0  0  0  0  0  0  0  0  0  0  0
    0.4616   18.5686   -2.8801 H   0  0  0  0  0  0  0  0  0  0  0  0
   -0.7479   17.4223   -3.6110 H   0  0  0  0  0  0  0  0  0  0  0  0
   -1.8242   19.4328   -2.6514 H   0  0  0  0  0  0  0  0  0  0  0  0
   -2.3260   17.9035   -1.8305 H   0  0  0  0  0  0  0  0  0  0  0  0
   -1.9451   19.5849   -0.1598 H   0  0  0  0  0  0  0  0  0  0  0  0
   -0.5330   20.9580   -1.2780 H   0  0  0  0  0  0  0  0  0  0  0  0
   -1.6229   17.1539    1.8898 H   0  0  0  0  0  0  0  0  0  0  0  0
   -2.5720   17.5373    0.4137 H   0  0  0  0  0  0  0  0  0  0  0  0
   -1.4333   16.1481    0.4137 H   0  0  0  0  0  0  0  0  0  0  0  0
   -0.3070   18.3183    2.4656 H   0  0  0  0  0  0  0  0  0  0  0  0
    1.1687   18.7978    1.5606 H   0  0  0  0  0  0  0  0  0  0  0  0
   -0.2729   19.8695    1.5606 H   0  0  0  0  0  0  0  0  0  0  0  0
    2.8471   17.3959   -2.6727 H   0  0  0  0  0  0  0  0  0  0  0  0
    2.9174   16.1925   -4.0044 H   0  0  0  0  0  0  0  0  0  0  0  0
    1.6432   17.4586   -4.0044 H   0  0  0  0  0  0  0  0  0  0  0  0
   -0.2738   15.4408   -4.0045 H   0  0  0  0  0  0  0  0  0  0  0  0
    1.3831   14.6959   -4.3719 H   0  0  0  0  0  0  0  0  0  0  0  0
   -0.7259   13.6612   -2.4579 H   0  0  0  0  0  0  0  0  0  0  0  0
   -0.1314   12.9156   -3.9935 H   0  0  0  0  0  0  0  0  0  0  0  0
    3.3653   12.3840   -2.7781 H   0  0  0  0  0  0  0  0  0  0  0  0
    2.2180   11.7023   -3.9804 H   0  0  0  0  0  0  0  0  0  0  0  0
    2.5785   13.4620   -3.9804 H   0  0  0  0  0  0  0  0  0  0  0  0
  1  2  1  0
  2  3  1  0
  3  4  1  0
  4  5  1  0
  5  6  1  0
  6  7  1  0
  7  8  1  0
  7  9  1  0
  2 10  1  0
 10 11  1  0
 11 12  1  0
 12 13  1  0
 13 14  1  1
 13 15  1  0
 15 16  1  0
 16 17  1  0
 17 18  2  0
 18 19  1  0
 19 20  1  0
 20 21  1  0
 21 22  1  0
 22 23  1  0
 22 24  1  0
 24 25  1  0
 24 26  1  0
 19 27  1  0
 27 28  1  6
 27 29  1  0
 29 30  1  0
 30 31  1  0
 31 32  1  6
  7  5  1  0
 31 10  1  0
 31 13  1  0
 27 15  1  0
 24 18  1  0
  1 33  1  0
  1 34  1  0
  1 35  1  0
  2 36  1  6
  3 37  1  0
  3 38  1  0
  4 39  1  0
  4 40  1  0
  5 41  1  1
  8 42  1  0
  8 43  1  0
  8 44  1  0
  9 45  1  0
  9 46  1  0
  9 47  1  0
 10 48  1  1
 11 49  1  0
 11 50  1  0
 12 51  1  0
 12 52  1  0
 14 53  1  0
 14 54  1  0
 14 55  1  0
 15 56  1  6
 16 57  1  0
 16 58  1  0
 17 59  1  0
 19 60  1  1
 20 61  1  0
 20 62  1  0
 21 63  1  0
 21 64  1  0
 22 65  1  1
 23 66  1  0
 25 67  1  0
 25 68  1  0
 25 69  1  0
 26 70  1  0
 26 71  1  0
 26 72  1  0
 28 73  1  0
 28 74  1  0
 28 75  1  0
 29 76  1  0
 29 77  1  0
 30 78  1  0
 30 79  1  0
 32 80  1  0
 32 81  1  0
 32 82  1  0
M  END
>  <meeko>  (14) 
{"is_sidechain": [false], "intermolecular_energy": 2.731, "internal_energy": -0.839}

$$$$
EPH_relaxed_0001_pdb2pqr_Repair_51_r2_0001_out
     RDKit          3D

 82 86  0  0  0  0  0  0  0  0999 V2000
    2.3690   17.2690   -4.3700 C   0  0  0  0  0  0  0  0  0  0  0  0
    1.8920   17.4460   -2.9250 C   0  0  2  0  0  0  0  0  0  0  0  0
    2.6380   18.5870   -2.2030 C   0  0  0  0  0  0  0  0  0  0  0  0
    1.7190   19.7050   -1.7060 C   0  0  0  0  0  0  0  0  0  0  0  0
    0.3700   19.1810   -1.3150 C   0  0  2  0  0  0  0  0  0  0  0  0
   -0.6190   20.1920   -1.0770 O   0  0  0  0  0  0  0  0  0  0  0  0
   -0.2440   19.3920    0.0570 C   0  0  0  0  0  0  0  0  0  0  0  0
    0.4760   20.1520    1.1260 C   0  0  0  0  0  0  0  0  0  0  0  0
   -1.3170   18.4520    0.5120 C   0  0  0  0  0  0  0  0  0  0  0  0
    2.0670   16.1420   -2.1570 C   0  0  1  0  0  0  0  0  0  0  0  0
    2.6010   16.3630   -0.7170 C   0  0  0  0  0  0  0  0  0  0  0  0
    1.9370   15.2850    0.1780 C   0  0  0  0  0  0  0  0  0  0  0  0
    1.3100   14.2830   -0.8200 C   0  0  1  0  0  0  0  0  0  0  0  0
    2.4930   13.3660   -1.2630 C   0  0  0  0  0  0  0  0  0  0  0  0
    0.0990   13.4470   -0.2910 C   0  0  2  0  0  0  0  0  0  0  0  0
    0.4160   12.5160    0.8920 C   0  0  0  0  0  0  0  0  0  0  0  0
    0.8450   11.1360    0.5200 C   0  0  0  0  0  0  0  0  0  0  0  0
    0.7000   10.5720   -0.6940 C   0  0  0  0  0  0  0  0  0  0  0  0
   -0.0390   11.3070   -1.8200 C   0  0  1  0  0  0  0  0  0  0  0  0
   -1.0370   10.3360   -2.5040 C   0  0  0  0  0  0  0  0  0  0  0  0
   -0.3680    9.0520   -2.9850 C   0  0  0  0  0  0  0  0  0  0  0  0
    0.3060    8.3210   -1.8270 C   0  0  2  0  0  0  0  0  0  0  0  0
   -0.7040    7.8550   -0.9260 O   0  0  0  0  0  0  0  0  0  0  0  0
    1.3270    9.2030   -1.0560 C   0  0  0  0  0  0  0  0  0  0  0  0
    2.5700    9.4570   -1.9440 C   0  0  0  0  0  0  0  0  0  0  0  0
    1.8270    8.3930    0.1700 C   0  0  0  0  0  0  0  0  0  0  0  0
   -0.7100   12.6910   -1.4210 C   0  0  1  0  0  0  0  0  0  0  0  0
   -2.1420   12.4450   -0.8550 C   0  0  0  0  0  0  0  0  0  0  0  0
   -0.8890   13.5670   -2.7170 C   0  0  0  0  0  0  0  0  0  0  0  0
    0.2990   14.4620   -3.1210 C   0  0  0  0  0  0  0  0  0  0  0  0
    0.8020   15.2780   -1.9260 C   0  0  2  0  0  0  0  0  0  0  0  0
   -0.3600   16.2260   -1.4710 C   0  0  0  0  0  0  0  0  0  0  0  0
    3.4003   16.8863   -4.3714 H   0  0  0  0  0  0  0  0  0  0  0  0
    1.7122   16.5547   -4.8881 H   0  0  0  0  0  0  0  0  0  0  0  0
    2.3371   18.2388   -4.8881 H   0  0  0  0  0  0  0  0  0  0  0  0
    0.8266   17.7175   -2.9589 H   0  0  0  0  0  0  0  0  0  0  0  0
    3.1678   18.1625   -1.3375 H   0  0  0  0  0  0  0  0  0  0  0  0
    3.3241   19.0368   -2.9358 H   0  0  0  0  0  0  0  0  0  0  0  0
    2.1823   20.1849   -0.8313 H   0  0  0  0  0  0  0  0  0  0  0  0
    1.5825   20.4263   -2.5252 H   0  0  0  0  0  0  0  0  0  0  0  0
    0.5168   18.2786   -1.9267 H   0  0  0  0  0  0  0  0  0  0  0  0
    0.1429   19.8003    2.1136 H   0  0  0  0  0  0  0  0  0  0  0  0
    1.5592   19.9895    1.0251 H   0  0  0  0  0  0  0  0  0  0  0  0
    0.2552   21.2249    1.0251 H   0  0  0  0  0  0  0  0  0  0  0  0
   -1.3427   18.4295    1.6115 H   0  0  0  0  0  0  0  0  0  0  0  0
   -2.2901   18.7935    0.1294 H   0  0  0  0  0  0  0  0  0  0  0  0
   -1.1065   17.4424    0.1294 H   0  0  0  0  0  0  0  0  0  0  0  0
    2.7606   15.6215   -2.8338 H   0  0  0  0  0  0  0  0  0  0  0  0
    3.6950   16.2499   -0.6974 H   0  0  0  0  0  0  0  0  0  0  0  0
    2.3619   17.3751   -0.3586 H   0  0  0  0  0  0  0  0  0  0  0  0
    2.6883   14.7868    0.8084 H   0  0  0  0  0  0  0  0  0  0  0  0
    1.1912   15.7132    0.8639 H   0  0  0  0  0  0  0  0  0  0  0  0
    3.0035   12.9703   -0.3726 H   0  0  0  0  0  0  0  0  0  0  0  0
    2.1043   12.5309   -1.8643 H   0  0  0  0  0  0  0  0  0  0  0  0
    3.2048   13.9506   -1.8643 H   0  0  0  0  0  0  0  0  0  0  0  0
   -0.5665   14.2250    0.1113 H   0  0  0  0  0  0  0  0  0  0  0  0
    1.2239   12.9763    1.4797 H   0  0  0  0  0  0  0  0  0  0  0  0
   -0.5250   12.4020    1.4502 H   0  0  0  0  0  0  0  0  0  0  0  0
    1.3200   10.5280    1.3040 H   0  0  0  0  0  0  0  0  0  0  0  0
    0.7333   11.6164   -2.5396 H   0  0  0  0  0  0  0  0  0  0  0  0
   -1.8248   10.0741   -1.7824 H   0  0  0  0  0  0  0  0  0  0  0  0
   -1.4495   10.8480   -3.3859 H   0  0  0  0  0  0  0  0  0  0  0  0
   -1.1290    8.3950   -3.4313 H   0  0  0  0  0  0  0  0  0  0  0  0
    0.3989    9.3132   -3.7291 H   0  0  0  0  0  0  0  0  0  0  0  0
    0.8760    7.4825   -2.2537 H   0  0  0  0  0  0  0  0  0  0  0  0
   -0.5790    6.8970   -0.8130 H   0  0  0  0  0  0  0  0  0  0  0  0
    3.4470    9.6362   -1.3046 H   0  0  0  0  0  0  0  0  0  0  0  0
    2.7528    8.5776   -2.5791 H   0  0  0  0  0  0  0  0  0  0  0  0
    2.3932   10.3376   -2.5791 H   0  0  0  0  0  0  0  0  0  0  0  0
    1.5148    8.8987    1.0956 H   0  0  0  0  0  0  0  0  0  0  0  0
    1.3960    7.3814    0.1416 H   0  0  0  0  0  0  0  0  0  0  0  0
    2.9245    8.3249    0.1416 H   0  0  0  0  0  0  0  0  0  0  0  0
   -2.1077   12.4509    0.2444 H   0  0  0  0  0  0  0  0  0  0  0  0
   -2.8163   13.2405   -1.2051 H   0  0  0  0  0  0  0  0  0  0  0  0
   -2.5122   11.4701   -1.2051 H   0  0  0  0  0  0  0  0  0  0  0  0
   -1.0909   12.8838   -3.5551 H   0  0  0  0  0  0  0  0  0  0  0  0
   -1.7073   14.2637   -2.4825 H   0  0  0  0  0  0  0  0  0  0  0  0
    1.1169   13.8278   -3.4935 H   0  0  0  0  0  0  0  0  0  0  0  0
   -0.0364   15.1575   -3.9044 H   0  0  0  0  0  0  0  0  0  0  0  0
   -0.3986   16.2575   -0.3721 H   0  0  0  0  0  0  0  0  0  0  0  0
   -0.1808   17.2389   -1.8608 H   0  0  0  0  0  0  0  0  0  0  0  0
   -1.3163   15.8470   -1.8608 H   0  0  0  0  0  0  0  0  0  0  0  0
  1  2  1  0
  2  3  1  0
  3  4  1  0
  4  5  1  0
  5  6  1  0
  6  7  1  0
  7  8  1  0
  7  9  1  0
  2 10  1  0
 10 11  1  0
 11 12  1  0
 12 13  1  0
 13 14  1  6
 13 15  1  0
 15 16  1  0
 16 17  1  0
 17 18  2  0
 18 19  1  0
 19 20  1  0
 20 21  1  0
 21 22  1  0
 22 23  1  0
 22 24  1  0
 24 25  1  0
 24 26  1  0
 19 27  1  0
 27 28  1  1
 27 29  1  0
 29 30  1  0
 30 31  1  0
 31 32  1  1
  7  5  1  0
 31 10  1  0
 31 13  1  0
 27 15  1  0
 24 18  1  0
  1 33  1  0
  1 34  1  0
  1 35  1  0
  2 36  1  6
  3 37  1  0
  3 38  1  0
  4 39  1  0
  4 40  1  0
  5 41  1  6
  8 42  1  0
  8 43  1  0
  8 44  1  0
  9 45  1  0
  9 46  1  0
  9 47  1  0
 10 48  1  6
 11 49  1  0
 11 50  1  0
 12 51  1  0
 12 52  1  0
 14 53  1  0
 14 54  1  0
 14 55  1  0
 15 56  1  1
 16 57  1  0
 16 58  1  0
 17 59  1  0
 19 60  1  6
 20 61  1  0
 20 62  1  0
 21 63  1  0
 21 64  1  0
 22 65  1  6
 23 66  1  0
 25 67  1  0
 25 68  1  0
 25 69  1  0
 26 70  1  0
 26 71  1  0
 26 72  1  0
 28 73  1  0
 28 74  1  0
 28 75  1  0
 29 76  1  0
 29 77  1  0
 30 78  1  0
 30 79  1  0
 32 80  1  0
 32 81  1  0
 32 82  1  0
M  END
>  <meeko>  (15) 
{"is_sidechain": [false], "intermolecular_energy": 2.731, "internal_energy": -0.839}

$$$$
EPH_relaxed_0001_pdb2pqr_Repair_51_r2_0001_out
     RDKit          3D

 82 86  0  0  0  0  0  0  0  0999 V2000
    0.9280   14.8990   -2.6640 C   0  0  0  0  0  0  0  0  0  0  0  0
    1.1810   14.2190   -4.0120 C   0  0  2  0  0  0  0  0  0  0  0  0
    0.4660   14.9440   -5.1710 C   0  0  0  0  0  0  0  0  0  0  0  0
    1.0370   14.6100   -6.5510 C   0  0  0  0  0  0  0  0  0  0  0  0
    0.8170   15.7260   -7.5270 C   0  0  2  0  0  0  0  0  0  0  0  0
    0.3890   15.3080   -8.8290 O   0  0  0  0  0  0  0  0  0  0  0  0
    1.6760   15.9420   -8.7590 C   0  0  0  0  0  0  0  0  0  0  0  0
    2.8210   15.0330   -9.0810 C   0  0  0  0  0  0  0  0  0  0  0  0
    1.7110   17.3050   -9.3770 C   0  0  0  0  0  0  0  0  0  0  0  0
    0.7320   12.7630   -3.9530 C   0  0  1  0  0  0  0  0  0  0  0  0
    1.8640   11.7730   -4.3360 C   0  0  0  0  0  0  0  0  0  0  0  0
    1.6700   10.5100   -3.4580 C   0  0  0  0  0  0  0  0  0  0  0  0
    0.2580   10.6730   -2.8480 C   0  0  1  0  0  0  0  0  0  0  0  0
   -0.7210   10.2000   -3.9680 C   0  0  0  0  0  0  0  0  0  0  0  0
   -0.0020    9.9250   -1.4990 C   0  0  2  0  0  0  0  0  0  0  0  0
    0.1040    8.3920   -1.5730 C   0  0  0  0  0  0  0  0  0  0  0  0
   -1.1680    7.6790   -1.8900 C   0  0  0  0  0  0  0  0  0  0  0  0
   -2.4010    8.2140   -1.8270 C   0  0  0  0  0  0  0  0  0  0  0  0
   -2.6150    9.6430   -1.3100 C   0  0  1  0  0  0  0  0  0  0  0  0
   -3.7910    9.6570   -0.2990 C   0  0  0  0  0  0  0  0  0  0  0  0
   -5.0660    9.0490   -0.8770 C   0  0  0  0  0  0  0  0  0  0  0  0
   -4.8290    7.6100   -1.3260 C   0  0  2  0  0  0  0  0  0  0  0  0
   -4.5660    6.8040   -0.1730 O   0  0  0  0  0  0  0  0  0  0  0  0
   -3.6590    7.4700   -2.3400 C   0  0  0  0  0  0  0  0  0  0  0  0
   -4.0700    8.0890   -3.6990 C   0  0  0  0  0  0  0  0  0  0  0  0
   -3.4340    5.9560   -2.6030 C   0  0  0  0  0  0  0  0  0  0  0  0
   -1.3210   10.3780   -0.7510 C   0  0  1  0  0  0  0  0  0  0  0  0
   -1.1200   10.0300    0.7550 C   0  0  0  0  0  0  0  0  0  0  0  0
   -1.5440   11.9350   -0.8210 C   0  0  0  0  0  0  0  0  0  0  0  0
   -1.1560   12.6340   -2.1380 C   0  0  0  0  0  0  0  0  0  0  0  0
    0.2510   12.2230   -2.5830 C   0  0  2  0  0  0  0  0  0  0  0  0
    1.2600   12.7060   -1.4860 C   0  0  0  0  0  0  0  0  0  0  0  0
    1.1858   14.2060   -1.8496 H   0  0  0  0  0  0  0  0  0  0  0  0
    1.5500   15.8030   -2.5869 H   0  0  0  0  0  0  0  0  0  0  0  0
   -0.1336   15.1766   -2.5869 H   0  0  0  0  0  0  0  0  0  0  0  0
    2.2622   14.2667   -4.2088 H   0  0  0  0  0  0  0  0  0  0  0  0
   -0.5963   14.6588   -5.1564 H   0  0  0  0  0  0  0  0  0  0  0  0
    0.6130   16.0229   -5.0148 H   0  0  0  0  0  0  0  0  0  0  0  0
    2.1176   14.4281   -6.4552 H   0  0  0  0  0  0  0  0  0  0  0  0
    0.5188   13.7165   -6.9294 H   0  0  0  0  0  0  0  0  0  0  0  0
    0.5037   16.4023   -6.7180 H   0  0  0  0  0  0  0  0  0  0  0  0
    3.2762   14.6717   -8.1471 H   0  0  0  0  0  0  0  0  0  0  0  0
    2.4557   14.1763   -9.6663 H   0  0  0  0  0  0  0  0  0  0  0  0
    3.5725   15.5831   -9.6663 H   0  0  0  0  0  0  0  0  0  0  0  0
    1.7306   18.0669   -8.5838 H   0  0  0  0  0  0  0  0  0  0  0  0
    2.6119   17.4018  -10.0007 H   0  0  0  0  0  0  0  0  0  0  0  0
    0.8162   17.4479  -10.0007 H   0  0  0  0  0  0  0  0  0  0  0  0
   -0.1100   12.8004   -4.6598 H   0  0  0  0  0  0  0  0  0  0  0  0
    1.7915   11.5085   -5.4013 H   0  0  0  0  0  0  0  0  0  0  0  0
    2.8543   12.2218   -4.1689 H   0  0  0  0  0  0  0  0  0  0  0  0
    1.7254    9.5984   -4.0711 H   0  0  0  0  0  0  0  0  0  0  0  0
    2.4491   10.4135   -2.6874 H   0  0  0  0  0  0  0  0  0  0  0  0
   -1.6210    9.7652   -3.5087 H   0  0  0  0  0  0  0  0  0  0  0  0
   -1.0067   11.0595   -4.5923 H   0  0  0  0  0  0  0  0  0  0  0  0
   -0.2252    9.4420   -4.5923 H   0  0  0  0  0  0  0  0  0  0  0  0
    0.8452   10.2535   -0.8791 H   0  0  0  0  0  0  0  0  0  0  0  0
    0.8383    8.1394   -2.3521 H   0  0  0  0  0  0  0  0  0  0  0  0
    0.3967    8.0586   -0.5664 H   0  0  0  0  0  0  0  0  0  0  0  0
   -1.0911    6.6269   -2.2016 H   0  0  0  0  0  0  0  0  0  0  0  0
   -2.8727   10.2502   -2.1903 H   0  0  0  0  0  0  0  0  0  0  0  0
   -3.4977    9.0812    0.5912 H   0  0  0  0  0  0  0  0  0  0  0  0
   -4.0047   10.7068   -0.0494 H   0  0  0  0  0  0  0  0  0  0  0  0
   -5.8517    9.0612   -0.1072 H   0  0  0  0  0  0  0  0  0  0  0  0
   -5.3738    9.6431   -1.7501 H   0  0  0  0  0  0  0  0  0  0  0  0
   -5.7375    7.2729   -1.8466 H   0  0  0  0  0  0  0  0  0  0  0  0
   -3.6500    6.4850   -0.2400 H   0  0  0  0  0  0  0  0  0  0  0  0
   -4.6706    8.9936   -3.5232 H   0  0  0  0  0  0  0  0  0  0  0  0
   -3.1674    8.3533   -4.2695 H   0  0  0  0  0  0  0  0  0  0  0  0
   -4.6639    7.3597   -4.2695 H   0  0  0  0  0  0  0  0  0  0  0  0
   -3.3551    5.4248   -1.6430 H   0  0  0  0  0  0  0  0  0  0  0  0
   -4.2822    5.5534   -3.1761 H   0  0  0  0  0  0  0  0  0  0  0  0
   -2.5054    5.8174   -3.1761 H   0  0  0  0  0  0  0  0  0  0  0  0
   -1.5739   10.8158    1.3767 H   0  0  0  0  0  0  0  0  0  0  0  0
   -1.5999    9.0651    0.9756 H   0  0  0  0  0  0  0  0  0  0  0  0
   -0.0444    9.9635    0.9756 H   0  0  0  0  0  0  0  0  0  0  0  0
   -2.6129   12.1263   -0.6451 H   0  0  0  0  0  0  0  0  0  0  0  0
   -0.8690   12.3568   -0.0617 H   0  0  0  0  0  0  0  0  0  0  0  0
   -1.8770   12.3538   -2.9201 H   0  0  0  0  0  0  0  0  0  0  0  0
   -1.1685   13.7217   -1.9747 H   0  0  0  0  0  0  0  0  0  0  0  0
    0.8412   12.5055   -0.4888 H   0  0  0  0  0  0  0  0  0  0  0  0
    2.2114   12.1657   -1.5995 H   0  0  0  0  0  0  0  0  0  0  0  0
    1.4358   13.7859   -1.5995 H   0  0  0  0  0  0  0  0  0  0  0  0
  1  2  1  0
  2  3  1  0
  3  4  1  0
  4  5  1  0
  5  6  1  0
  6  7  1  0
  7  8  1  0
  7  9  1  0
  2 10  1  0
 10 11  1  0
 11 12  1  0
 12 13  1  0
 13 14  1  6
 13 15  1  0
 15 16  1  0
 16 17  1  0
 17 18  2  0
 18 19  1  0
 19 20  1  0
 20 21  1  0
 21 22  1  0
 22 23  1  0
 22 24  1  0
 24 25  1  0
 24 26  1  0
 19 27  1  0
 27 28  1  1
 27 29  1  0
 29 30  1  0
 30 31  1  0
 31 32  1  1
  7  5  1  0
 31 10  1  0
 31 13  1  0
 27 15  1  0
 24 18  1  0
  1 33  1  0
  1 34  1  0
  1 35  1  0
  2 36  1  6
  3 37  1  0
  3 38  1  0
  4 39  1  0
  4 40  1  0
  5 41  1  1
  8 42  1  0
  8 43  1  0
  8 44  1  0
  9 45  1  0
  9 46  1  0
  9 47  1  0
 10 48  1  6
 11 49  1  0
 11 50  1  0
 12 51  1  0
 12 52  1  0
 14 53  1  0
 14 54  1  0
 14 55  1  0
 15 56  1  1
 16 57  1  0
 16 58  1  0
 17 59  1  0
 19 60  1  6
 20 61  1  0
 20 62  1  0
 21 63  1  0
 21 64  1  0
 22 65  1  6
 23 66  1  0
 25 67  1  0
 25 68  1  0
 25 69  1  0
 26 70  1  0
 26 71  1  0
 26 72  1  0
 28 73  1  0
 28 74  1  0
 28 75  1  0
 29 76  1  0
 29 77  1  0
 30 78  1  0
 30 79  1  0
 32 80  1  0
 32 81  1  0
 32 82  1  0
M  END
>  <meeko>  (16) 
{"is_sidechain": [false], "intermolecular_energy": 2.731, "internal_energy": -0.839}

$$$$
EPH_relaxed_0001_pdb2pqr_Repair_51_r2_0001_out
     RDKit          3D

 82 86  0  0  0  0  0  0  0  0999 V2000
    0.2140    9.8340   -4.5730 C   0  0  0  0  0  0  0  0  0  0  0  0
    1.2850   10.5680   -3.7620 C   0  0  2  0  0  0  0  0  0  0  0  0
    1.7420    9.7540   -2.5340 C   0  0  0  0  0  0  0  0  0  0  0  0
    0.7440    8.6760   -2.1040 C   0  0  0  0  0  0  0  0  0  0  0  0
   -0.1170    9.1380   -0.9680 C   0  0  2  0  0  0  0  0  0  0  0  0
   -0.7010    8.0840   -0.1920 O   0  0  0  0  0  0  0  0  0  0  0  0
   -1.6180    8.9220   -0.9140 C   0  0  0  0  0  0  0  0  0  0  0  0
   -2.3450    8.2190   -2.0170 C   0  0  0  0  0  0  0  0  0  0  0  0
   -2.4380    9.8150   -0.0360 C   0  0  0  0  0  0  0  0  0  0  0  0
    0.7610   11.9290   -3.3190 C   0  0  1  0  0  0  0  0  0  0  0  0
   -0.7450   11.8960   -2.9440 C   0  0  0  0  0  0  0  0  0  0  0  0
   -0.9360   12.8950   -1.7740 C   0  0  0  0  0  0  0  0  0  0  0  0
    0.3800   13.7060   -1.7340 C   0  0  1  0  0  0  0  0  0  0  0  0
    0.2190   14.7870   -2.8490 C   0  0  0  0  0  0  0  0  0  0  0  0
    0.7550   14.3470   -0.3580 C   0  0  2  0  0  0  0  0  0  0  0  0
   -0.2440   15.3930    0.1680 C   0  0  0  0  0  0  0  0  0  0  0  0
    0.0300   16.8010   -0.2450 C   0  0  0  0  0  0  0  0  0  0  0  0
    1.1850   17.2520   -0.7670 C   0  0  0  0  0  0  0  0  0  0  0  0
    2.4040   16.3300   -0.8990 C   0  0  1  0  0  0  0  0  0  0  0  0
    3.6680   17.0650   -0.3810 C   0  0  0  0  0  0  0  0  0  0  0  0
    3.8810   18.4130   -1.0620 C   0  0  0  0  0  0  0  0  0  0  0  0
    2.6730   19.3230   -0.8600 C   0  0  2  0  0  0  0  0  0  0  0  0
    2.5760   19.6600    0.5280 O   0  0  0  0  0  0  0  0  0  0  0  0
    1.3380   18.6850   -1.3360 C   0  0  0  0  0  0  0  0  0  0  0  0
    1.3260   18.5970   -2.8820 C   0  0  0  0  0  0  0  0  0  0  0  0
    0.1830   19.6460   -0.9470 C   0  0  0  0  0  0  0  0  0  0  0  0
    2.2440   14.8770   -0.2750 C   0  0  1  0  0  0  0  0  0  0  0  0
    2.6230   14.9030    1.2380 C   0  0  0  0  0  0  0  0  0  0  0  0
    3.2660   13.9030   -0.9720 C   0  0  0  0  0  0  0  0  0  0  0  0
    2.7920   13.2070   -2.2630 C   0  0  0  0  0  0  0  0  0  0  0  0
    1.4140   12.5700   -2.0680 C   0  0  2  0  0  0  0  0  0  0  0  0
    1.5490   11.4630   -0.9680 C   0  0  0  0  0  0  0  0  0  0  0  0
   -0.4957    9.3476   -3.8876 H   0  0  0  0  0  0  0  0  0  0  0  0
   -0.3237   10.5543   -5.2071 H   0  0  0  0  0  0  0  0  0  0  0  0
    0.6918    9.0726   -5.2071 H   0  0  0  0  0  0  0  0  0  0  0  0
    2.1604   10.7018   -4.4146 H   0  0  0  0  0  0  0  0  0  0  0  0
    2.6973    9.2657   -2.7770 H   0  0  0  0  0  0  0  0  0  0  0  0
    1.8329   10.4605   -1.6958 H   0  0  0  0  0  0  0  0  0  0  0  0
    0.1002    8.4248   -2.9598 H   0  0  0  0  0  0  0  0  0  0  0  0
    1.3132    7.7972   -1.7669 H   0  0  0  0  0  0  0  0  0  0  0  0
    0.5047   10.0350   -0.8310 H   0  0  0  0  0  0  0  0  0  0  0  0
   -3.0727    7.5154   -1.5864 H   0  0  0  0  0  0  0  0  0  0  0  0
   -2.8727    8.9581   -2.6377 H   0  0  0  0  0  0  0  0  0  0  0  0
   -1.6240    7.6668   -2.6377 H   0  0  0  0  0  0  0  0  0  0  0  0
   -2.2274    9.5857    1.0190 H   0  0  0  0  0  0  0  0  0  0  0  0
   -2.1830   10.8652   -0.2409 H   0  0  0  0  0  0  0  0  0  0  0  0
   -3.5061    9.6503   -0.2409 H   0  0  0  0  0  0  0  0  0  0  0  0
    1.0032   12.5203   -4.2144 H   0  0  0  0  0  0  0  0  0  0  0  0
   -1.3568   12.2005   -3.8059 H   0  0  0  0  0  0  0  0  0  0  0  0
   -1.0577   10.8823   -2.6531 H   0  0  0  0  0  0  0  0  0  0  0  0
   -1.7940   13.5565   -1.9644 H   0  0  0  0  0  0  0  0  0  0  0  0
   -1.1413   12.3862   -0.8206 H   0  0  0  0  0  0  0  0  0  0  0  0
    0.0721   15.7734   -2.3849 H   0  0  0  0  0  0  0  0  0  0  0  0
    1.1241   14.8069   -3.4738 H   0  0  0  0  0  0  0  0  0  0  0  0
   -0.6526   14.5423   -3.4738 H   0  0  0  0  0  0  0  0  0  0  0  0
    0.6816   13.4915    0.3295 H   0  0  0  0  0  0  0  0  0  0  0  0
   -1.2452   15.1205   -0.1972 H   0  0  0  0  0  0  0  0  0  0  0  0
   -0.1546   15.3747    1.2642 H   0  0  0  0  0  0  0  0  0  0  0  0
   -0.7812   17.5318   -0.1112 H   0  0  0  0  0  0  0  0  0  0  0  0
    2.5103   16.1177   -1.9731 H   0  0  0  0  0  0  0  0  0  0  0  0
    3.5614   17.2297    0.7014 H   0  0  0  0  0  0  0  0  0  0  0  0
    4.5390   16.4336   -0.6106 H   0  0  0  0  0  0  0  0  0  0  0  0
    4.7714   18.8962   -0.6333 H   0  0  0  0  0  0  0  0  0  0  0  0
    4.0168   18.2440   -2.1404 H   0  0  0  0  0  0  0  0  0  0  0  0
    2.8299   20.2199   -1.4772 H   0  0  0  0  0  0  0  0  0  0  0  0
    1.6460   19.8730    0.7150 H   0  0  0  0  0  0  0  0  0  0  0  0
    1.1833   17.5503   -3.1886 H   0  0  0  0  0  0  0  0  0  0  0  0
    0.5032   19.2105   -3.2778 H   0  0  0  0  0  0  0  0  0  0  0  0
    2.2830   18.9678   -3.2778 H   0  0  0  0  0  0  0  0  0  0  0  0
    0.1100   19.7068    0.1489 H   0  0  0  0  0  0  0  0  0  0  0  0
    0.3847   20.6466   -1.3571 H   0  0  0  0  0  0  0  0  0  0  0  0
   -0.7642   19.2657   -1.3571 H   0  0  0  0  0  0  0  0  0  0  0  0
    1.7086   14.8403    1.8462 H   0  0  0  0  0  0  0  0  0  0  0  0
    3.2753   14.0475    1.4674 H   0  0  0  0  0  0  0  0  0  0  0  0
    3.1524   15.8396    1.4674 H   0  0  0  0  0  0  0  0  0  0  0  0
    4.1657   14.4857   -1.2190 H   0  0  0  0  0  0  0  0  0  0  0  0
    3.4279   13.0899   -0.2491 H   0  0  0  0  0  0  0  0  0  0  0  0
    2.7336   13.9502   -3.0718 H   0  0  0  0  0  0  0  0  0  0  0  0
    3.5113   12.4151   -2.5188 H   0  0  0  0  0  0  0  0  0  0  0  0
    1.4924   11.9268    0.0278 H   0  0  0  0  0  0  0  0  0  0  0  0
    0.7331   10.7337   -1.0797 H   0  0  0  0  0  0  0  0  0  0  0  0
    2.5162   10.9511   -1.0797 H   0  0  0  0  0  0  0  0  0  0  0  0
  1  2  1  0
  2  3  1  0
  3  4  1  0
  4  5  1  0
  5  6  1  0
  6  7  1  0
  7  8  1  0
  7  9  1  0
  2 10  1  0
 10 11  1  0
 11 12  1  0
 12 13  1  0
 13 14  1  6
 13 15  1  0
 15 16  1  0
 16 17  1  0
 17 18  2  0
 18 19  1  0
 19 20  1  0
 20 21  1  0
 21 22  1  0
 22 23  1  0
 22 24  1  0
 24 25  1  0
 24 26  1  0
 19 27  1  0
 27 28  1  1
 27 29  1  0
 29 30  1  0
 30 31  1  0
 31 32  1  1
  7  5  1  0
 31 10  1  0
 31 13  1  0
 27 15  1  0
 24 18  1  0
  1 33  1  0
  1 34  1  0
  1 35  1  0
  2 36  1  6
  3 37  1  0
  3 38  1  0
  4 39  1  0
  4 40  1  0
  5 41  1  1
  8 42  1  0
  8 43  1  0
  8 44  1  0
  9 45  1  0
  9 46  1  0
  9 47  1  0
 10 48  1  6
 11 49  1  0
 11 50  1  0
 12 51  1  0
 12 52  1  0
 14 53  1  0
 14 54  1  0
 14 55  1  0
 15 56  1  1
 16 57  1  0
 16 58  1  0
 17 59  1  0
 19 60  1  6
 20 61  1  0
 20 62  1  0
 21 63  1  0
 21 64  1  0
 22 65  1  6
 23 66  1  0
 25 67  1  0
 25 68  1  0
 25 69  1  0
 26 70  1  0
 26 71  1  0
 26 72  1  0
 28 73  1  0
 28 74  1  0
 28 75  1  0
 29 76  1  0
 29 77  1  0
 30 78  1  0
 30 79  1  0
 32 80  1  0
 32 81  1  0
 32 82  1  0
M  END
>  <meeko>  (17) 
{"is_sidechain": [false], "intermolecular_energy": 2.731, "internal_energy": -0.839}

$$$$
EPH_relaxed_0001_pdb2pqr_Repair_51_r2_0001_out
     RDKit          3D

 82 86  0  0  0  0  0  0  0  0999 V2000
   -1.7120   14.8400    0.4640 C   0  0  0  0  0  0  0  0  0  0  0  0
   -0.3600   15.5340    0.2730 C   0  0  2  0  0  0  0  0  0  0  0  0
   -0.3930   16.5640   -0.8730 C   0  0  0  0  0  0  0  0  0  0  0  0
   -0.0200   17.9830   -0.4370 C   0  0  0  0  0  0  0  0  0  0  0  0
    1.4210   18.0800   -0.0380 C   0  0  2  0  0  0  0  0  0  0  0  0
    2.0740   19.2910   -0.4440 O   0  0  0  0  0  0  0  0  0  0  0  0
    2.5660   18.0770   -1.0340 C   0  0  0  0  0  0  0  0  0  0  0  0
    2.3190   17.9720   -2.5060 C   0  0  0  0  0  0  0  0  0  0  0  0
    3.9290   17.6830   -0.5560 C   0  0  0  0  0  0  0  0  0  0  0  0
    0.7240   14.4950    0.0090 C   0  0  1  0  0  0  0  0  0  0  0  0
    0.8440   13.4530    1.1540 C   0  0  0  0  0  0  0  0  0  0  0  0
    1.2120   12.1010    0.4910 C   0  0  0  0  0  0  0  0  0  0  0  0
    1.6150   12.4730   -0.9560 C   0  0  1  0  0  0  0  0  0  0  0  0
    3.0920   12.9650   -0.8470 C   0  0  0  0  0  0  0  0  0  0  0  0
    1.4590   11.3450   -2.0280 C   0  0  2  0  0  0  0  0  0  0  0  0
    2.3330   10.1000   -1.7960 C   0  0  0  0  0  0  0  0  0  0  0  0
    3.6800   10.1380   -2.4390 C   0  0  0  0  0  0  0  0  0  0  0  0
    4.0630   10.9960   -3.4030 C   0  0  0  0  0  0  0  0  0  0  0  0
    3.0670   11.9920   -4.0120 C   0  0  1  0  0  0  0  0  0  0  0  0
    3.1960   11.9730   -5.5570 C   0  0  0  0  0  0  0  0  0  0  0  0
    4.6270   12.2160   -6.0280 C   0  0  0  0  0  0  0  0  0  0  0  0
    5.5770   11.1720   -5.4480 C   0  0  2  0  0  0  0  0  0  0  0  0
    5.2540    9.8950   -6.0060 O   0  0  0  0  0  0  0  0  0  0  0  0
    5.5280   11.0930   -3.8970 C   0  0  0  0  0  0  0  0  0  0  0  0
    6.1620   12.3690   -3.2900 C   0  0  0  0  0  0  0  0  0  0  0  0
    6.4250    9.9080   -3.4500 C   0  0  0  0  0  0  0  0  0  0  0  0
    1.5620   11.8530   -3.5230 C   0  0  1  0  0  0  0  0  0  0  0  0
    0.8110   10.8060   -4.4010 C   0  0  0  0  0  0  0  0  0  0  0  0
    0.8220   13.2260   -3.7400 C   0  0  0  0  0  0  0  0  0  0  0  0
    0.9130   14.2530   -2.5950 C   0  0  0  0  0  0  0  0  0  0  0  0
    0.5660   13.6070   -1.2500 C   0  0  2  0  0  0  0  0  0  0  0  0
   -0.9220   13.1220   -1.3220 C   0  0  0  0  0  0  0  0  0  0  0  0
   -1.9206   14.7329    1.5387 H   0  0  0  0  0  0  0  0  0  0  0  0
   -2.5033   15.4434   -0.0048 H   0  0  0  0  0  0  0  0  0  0  0  0
   -1.6830   13.8453   -0.0048 H   0  0  0  0  0  0  0  0  0  0  0  0
   -0.1339   16.0802    1.2007 H   0  0  0  0  0  0  0  0  0  0  0  0
    0.3161   16.2419   -1.6498 H   0  0  0  0  0  0  0  0  0  0  0  0
   -1.4292   16.6028   -1.2401 H   0  0  0  0  0  0  0  0  0  0  0  0
   -0.2055   18.6731   -1.2733 H   0  0  0  0  0  0  0  0  0  0  0  0
   -0.6357   18.2463    0.4357 H   0  0  0  0  0  0  0  0  0  0  0  0
    1.2336   17.4926    0.8729 H   0  0  0  0  0  0  0  0  0  0  0  0
    1.3195   17.5471   -2.6807 H   0  0  0  0  0  0  0  0  0  0  0  0
    2.3766   18.9724   -2.9597 H   0  0  0  0  0  0  0  0  0  0  0  0
    3.0793   17.3193   -2.9597 H   0  0  0  0  0  0  0  0  0  0  0  0
    3.9447   17.6785    0.5439 H   0  0  0  0  0  0  0  0  0  0  0  0
    4.1724   16.6777   -0.9303 H   0  0  0  0  0  0  0  0  0  0  0  0
    4.6713   18.4034   -0.9303 H   0  0  0  0  0  0  0  0  0  0  0  0
    1.5928   15.1597   -0.1063 H   0  0  0  0  0  0  0  0  0  0  0  0
    1.6312   13.7553    1.8604 H   0  0  0  0  0  0  0  0  0  0  0  0
   -0.0980   13.3738    1.7165 H   0  0  0  0  0  0  0  0  0  0  0  0
    2.0524   11.6259    1.0183 H   0  0  0  0  0  0  0  0  0  0  0  0
    0.3803   11.3817    0.5207 H   0  0  0  0  0  0  0  0  0  0  0  0
    3.3703   13.0577    0.2132 H   0  0  0  0  0  0  0  0  0  0  0  0
    3.7572   12.2399   -1.3387 H   0  0  0  0  0  0  0  0  0  0  0  0
    3.1895   13.9442   -1.3387 H   0  0  0  0  0  0  0  0  0  0  0  0
    0.4211   11.0147   -1.8742 H   0  0  0  0  0  0  0  0  0  0  0  0
    2.4770    9.9830   -0.7118 H   0  0  0  0  0  0  0  0  0  0  0  0
    1.7967    9.2603   -2.2621 H   0  0  0  0  0  0  0  0  0  0  0  0
    4.4224    9.4024   -2.0959 H   0  0  0  0  0  0  0  0  0  0  0  0
    3.3515   12.9821   -3.6262 H   0  0  0  0  0  0  0  0  0  0  0  0
    2.8652   10.9911   -5.9264 H   0  0  0  0  0  0  0  0  0  0  0  0
    2.5712   12.7866   -5.9541 H   0  0  0  0  0  0  0  0  0  0  0  0
    4.6587   12.1610   -7.1262 H   0  0  0  0  0  0  0  0  0  0  0  0
    4.9459   13.2107   -5.6833 H   0  0  0  0  0  0  0  0  0  0  0  0
    6.6009   11.4739   -5.7134 H   0  0  0  0  0  0  0  0  0  0  0  0
    4.4430    9.5800   -5.5710 H   0  0  0  0  0  0  0  0  0  0  0  0
    6.1312   12.3071   -2.1922 H   0  0  0  0  0  0  0  0  0  0  0  0
    7.2069   12.4535   -3.6233 H   0  0  0  0  0  0  0  0  0  0  0  0
    5.5982   13.2527   -3.6233 H   0  0  0  0  0  0  0  0  0  0  0  0
    6.4566    9.8662   -2.3512 H   0  0  0  0  0  0  0  0  0  0  0  0
    6.0109    8.9669   -3.8410 H   0  0  0  0  0  0  0  0  0  0  0  0
    7.4432   10.0510   -3.8410 H   0  0  0  0  0  0  0  0  0  0  0  0
    0.2940   10.0852   -3.7504 H   0  0  0  0  0  0  0  0  0  0  0  0
    0.0748   11.3205   -5.0360 H   0  0  0  0  0  0  0  0  0  0  0  0
    1.5344   10.2736   -5.0360 H   0  0  0  0  0  0  0  0  0  0  0  0
    1.2458   13.6937   -4.6409 H   0  0  0  0  0  0  0  0  0  0  0  0
   -0.2452   12.9694   -3.8123 H   0  0  0  0  0  0  0  0  0  0  0  0
    1.9374   14.6511   -2.5493 H   0  0  0  0  0  0  0  0  0  0  0  0
    0.1939   15.0619   -2.7915 H   0  0  0  0  0  0  0  0  0  0  0  0
   -1.3156   12.9937   -0.3029 H   0  0  0  0  0  0  0  0  0  0  0  0
   -1.5259   13.8698   -1.8568 H   0  0  0  0  0  0  0  0  0  0  0  0
   -0.9693   12.1619   -1.8568 H   0  0  0  0  0  0  0  0  0  0  0  0
  1  2  1  0
  2  3  1  0
  3  4  1  0
  4  5  1  0
  5  6  1  0
  6  7  1  0
  7  8  1  0
  7  9  1  0
  2 10  1  0
 10 11  1  0
 11 12  1  0
 12 13  1  0
 13 14  1  1
 13 15  1  0
 15 16  1  0
 16 17  1  0
 17 18  2  0
 18 19  1  0
 19 20  1  0
 20 21  1  0
 21 22  1  0
 22 23  1  0
 22 24  1  0
 24 25  1  0
 24 26  1  0
 19 27  1  0
 27 28  1  6
 27 29  1  0
 29 30  1  0
 30 31  1  0
 31 32  1  6
  7  5  1  0
 31 10  1  0
 31 13  1  0
 27 15  1  0
 24 18  1  0
  1 33  1  0
  1 34  1  0
  1 35  1  0
  2 36  1  1
  3 37  1  0
  3 38  1  0
  4 39  1  0
  4 40  1  0
  5 41  1  1
  8 42  1  0
  8 43  1  0
  8 44  1  0
  9 45  1  0
  9 46  1  0
  9 47  1  0
 10 48  1  6
 11 49  1  0
 11 50  1  0
 12 51  1  0
 12 52  1  0
 14 53  1  0
 14 54  1  0
 14 55  1  0
 15 56  1  6
 16 57  1  0
 16 58  1  0
 17 59  1  0
 19 60  1  1
 20 61  1  0
 20 62  1  0
 21 63  1  0
 21 64  1  0
 22 65  1  1
 23 66  1  0
 25 67  1  0
 25 68  1  0
 25 69  1  0
 26 70  1  0
 26 71  1  0
 26 72  1  0
 28 73  1  0
 28 74  1  0
 28 75  1  0
 29 76  1  0
 29 77  1  0
 30 78  1  0
 30 79  1  0
 32 80  1  0
 32 81  1  0
 32 82  1  0
M  END
>  <meeko>  (18) 
{"is_sidechain": [false], "intermolecular_energy": 2.731, "internal_energy": -0.839}

$$$$
EPH_relaxed_0001_pdb2pqr_Repair_51_r2_0001_out
     RDKit          3D

 82 86  0  0  0  0  0  0  0  0999 V2000
    3.1030   14.8300   -7.5650 C   0  0  0  0  0  0  0  0  0  0  0  0
    1.5790   14.8610   -7.4150 C   0  0  2  0  0  0  0  0  0  0  0  0
    0.9540   16.0990   -8.0880 C   0  0  0  0  0  0  0  0  0  0  0  0
    1.8840   16.7900   -9.0900 C   0  0  0  0  0  0  0  0  0  0  0  0
    1.5730   16.3910  -10.5010 C   0  0  2  0  0  0  0  0  0  0  0  0
    0.9920   15.0870  -10.6400 O   0  0  0  0  0  0  0  0  0  0  0  0
    2.2890   15.2690  -11.2300 C   0  0  0  0  0  0  0  0  0  0  0  0
    3.3740   14.4780  -10.5700 C   0  0  0  0  0  0  0  0  0  0  0  0
    2.2760   15.2660  -12.7270 C   0  0  0  0  0  0  0  0  0  0  0  0
    1.2010   14.8240   -5.9390 C   0  0  1  0  0  0  0  0  0  0  0  0
   -0.0520   15.6820   -5.6210 C   0  0  0  0  0  0  0  0  0  0  0  0
   -0.8260   14.9460   -4.4980 C   0  0  0  0  0  0  0  0  0  0  0  0
    0.1650   13.8780   -3.9780 C   0  0  1  0  0  0  0  0  0  0  0  0
    1.1070   14.6460   -2.9990 C   0  0  0  0  0  0  0  0  0  0  0  0
   -0.4690   12.6190   -3.3000 C   0  0  2  0  0  0  0  0  0  0  0  0
   -1.2810   12.9040   -2.0250 C   0  0  0  0  0  0  0  0  0  0  0  0
   -0.5050   12.8520   -0.7500 C   0  0  0  0  0  0  0  0  0  0  0  0
    0.7190   12.3120   -0.6010 C   0  0  0  0  0  0  0  0  0  0  0  0
    1.4080   11.5890   -1.7660 C   0  0  1  0  0  0  0  0  0  0  0  0
    1.9970   10.2440   -1.2640 C   0  0  0  0  0  0  0  0  0  0  0  0
    2.9180   10.4220   -0.0610 C   0  0  0  0  0  0  0  0  0  0  0  0
    2.1810   11.0910    1.0960 C   0  0  2  0  0  0  0  0  0  0  0  0
    1.1710   10.1990    1.5760 O   0  0  0  0  0  0  0  0  0  0  0  0
    1.5360   12.4510    0.7070 C   0  0  0  0  0  0  0  0  0  0  0  0
    2.6460   13.5060    0.4770 C   0  0  0  0  0  0  0  0  0  0  0  0
    0.7070   12.9510    1.9200 C   0  0  0  0  0  0  0  0  0  0  0  0
    0.5410   11.4200   -3.0870 C   0  0  1  0  0  0  0  0  0  0  0  0
   -0.3200   10.1230   -2.9970 C   0  0  0  0  0  0  0  0  0  0  0  0
    1.5080   11.2260   -4.3150 C   0  0  0  0  0  0  0  0  0  0  0  0
    2.0050   12.5050   -5.0160 C   0  0  0  0  0  0  0  0  0  0  0  0
    0.8380   13.4460   -5.3310 C   0  0  2  0  0  0  0  0  0  0  0  0
   -0.1150   12.7080   -6.3320 C   0  0  0  0  0  0  0  0  0  0  0  0
    3.5694   14.8205   -6.5688 H   0  0  0  0  0  0  0  0  0  0  0  0
    3.3988   13.9257   -8.1170 H   0  0  0  0  0  0  0  0  0  0  0  0
    3.4353   15.7216   -8.1170 H   0  0  0  0  0  0  0  0  0  0  0  0
    1.1786   13.9717   -7.9237 H   0  0  0  0  0  0  0  0  0  0  0  0
    0.0440   15.7833   -8.6193 H   0  0  0  0  0  0  0  0  0  0  0  0
    0.7430   16.8265   -7.2904 H   0  0  0  0  0  0  0  0  0  0  0  0
    1.7660   17.8794   -8.9933 H   0  0  0  0  0  0  0  0  0  0  0  0
    2.9168   16.4841   -8.8668 H   0  0  0  0  0  0  0  0  0  0  0  0
    1.3658   17.4357  -10.7761 H   0  0  0  0  0  0  0  0  0  0  0  0
    3.2702   14.5537   -9.4775 H   0  0  0  0  0  0  0  0  0  0  0  0
    3.2956   13.4236  -10.8736 H   0  0  0  0  0  0  0  0  0  0  0  0
    4.3538   14.8751  -10.8736 H   0  0  0  0  0  0  0  0  0  0  0  0
    1.2623   15.0321  -13.0844 H   0  0  0  0  0  0  0  0  0  0  0  0
    2.5761   16.2570  -13.0983 H   0  0  0  0  0  0  0  0  0  0  0  0
    2.9800   14.5067  -13.0983 H   0  0  0  0  0  0  0  0  0  0  0  0
    2.1397   15.1931   -5.5002 H   0  0  0  0  0  0  0  0  0  0  0  0
    0.2511   16.6825   -5.2788 H   0  0  0  0  0  0  0  0  0  0  0  0
   -0.6802   15.8093   -6.5150 H   0  0  0  0  0  0  0  0  0  0  0  0
   -1.1017   15.6444   -3.6941 H   0  0  0  0  0  0  0  0  0  0  0  0
   -1.7656   14.5029   -4.8597 H   0  0  0  0  0  0  0  0  0  0  0  0
    0.8241   14.4153   -1.9613 H   0  0  0  0  0  0  0  0  0  0  0  0
    2.1480   14.3359   -3.1728 H   0  0  0  0  0  0  0  0  0  0  0  0
    1.0129   15.7281   -3.1728 H   0  0  0  0  0  0  0  0  0  0  0  0
   -1.2009   12.2894   -4.0521 H   0  0  0  0  0  0  0  0  0  0  0  0
   -1.7166   13.9099   -2.1171 H   0  0  0  0  0  0  0  0  0  0  0  0
   -2.0322   12.1033   -1.9571 H   0  0  0  0  0  0  0  0  0  0  0  0
   -0.9732   13.2922    0.1428 H   0  0  0  0  0  0  0  0  0  0  0  0
    2.2204   12.2521   -2.0981 H   0  0  0  0  0  0  0  0  0  0  0  0
    1.1675    9.5806   -0.9780 H   0  0  0  0  0  0  0  0  0  0  0  0
    2.5947    9.8151   -2.0818 H   0  0  0  0  0  0  0  0  0  0  0  0
    3.2794    9.4355    0.2648 H   0  0  0  0  0  0  0  0  0  0  0  0
    3.7620   11.0624   -0.3568 H   0  0  0  0  0  0  0  0  0  0  0  0
    2.9230   11.3086    1.8783 H   0  0  0  0  0  0  0  0  0  0  0  0
    0.3800   10.7300    1.7740 H   0  0  0  0  0  0  0  0  0  0  0  0
    3.0205   13.8619    1.4481 H   0  0  0  0  0  0  0  0  0  0  0  0
    3.4718   13.0517   -0.0903 H   0  0  0  0  0  0  0  0  0  0  0  0
    2.2343   14.3538   -0.0903 H   0  0  0  0  0  0  0  0  0  0  0  0
    1.2052   12.6505    2.8535 H   0  0  0  0  0  0  0  0  0  0  0  0
    0.6280   14.0475    1.8831 H   0  0  0  0  0  0  0  0  0  0  0  0
   -0.2998   12.5094    1.8831 H   0  0  0  0  0  0  0  0  0  0  0  0
   -0.4893    9.8679   -1.9405 H   0  0  0  0  0  0  0  0  0  0  0  0
   -1.2873   10.2898   -3.4935 H   0  0  0  0  0  0  0  0  0  0  0  0
    0.2093    9.2964   -3.4935 H   0  0  0  0  0  0  0  0  0  0  0  0
    2.3920   10.6765   -3.9591 H   0  0  0  0  0  0  0  0  0  0  0  0
    0.9103   10.6965   -5.0716 H   0  0  0  0  0  0  0  0  0  0  0  0
    2.7172   13.0230   -4.3569 H   0  0  0  0  0  0  0  0  0  0  0  0
    2.4915   12.2209   -5.9608 H   0  0  0  0  0  0  0  0  0  0  0  0
   -0.8619   12.1296   -5.7684 H   0  0  0  0  0  0  0  0  0  0  0  0
   -0.6260   13.4482   -6.9652 H   0  0  0  0  0  0  0  0  0  0  0  0
    0.4738   12.0280   -6.9652 H   0  0  0  0  0  0  0  0  0  0  0  0
  1  2  1  0
  2  3  1  0
  3  4  1  0
  4  5  1  0
  5  6  1  0
  6  7  1  0
  7  8  1  0
  7  9  1  0
  2 10  1  0
 10 11  1  0
 11 12  1  0
 12 13  1  0
 13 14  1  1
 13 15  1  0
 15 16  1  0
 16 17  1  0
 17 18  2  0
 18 19  1  0
 19 20  1  0
 20 21  1  0
 21 22  1  0
 22 23  1  0
 22 24  1  0
 24 25  1  0
 24 26  1  0
 19 27  1  0
 27 28  1  1
 27 29  1  0
 29 30  1  0
 30 31  1  0
 31 32  1  6
  7  5  1  0
 31 10  1  0
 31 13  1  0
 27 15  1  0
 24 18  1  0
  1 33  1  0
  1 34  1  0
  1 35  1  0
  2 36  1  6
  3 37  1  0
  3 38  1  0
  4 39  1  0
  4 40  1  0
  5 41  1  6
  8 42  1  0
  8 43  1  0
  8 44  1  0
  9 45  1  0
  9 46  1  0
  9 47  1  0
 10 48  1  1
 11 49  1  0
 11 50  1  0
 12 51  1  0
 12 52  1  0
 14 53  1  0
 14 54  1  0
 14 55  1  0
 15 56  1  6
 16 57  1  0
 16 58  1  0
 17 59  1  0
 19 60  1  6
 20 61  1  0
 20 62  1  0
 21 63  1  0
 21 64  1  0
 22 65  1  1
 23 66  1  0
 25 67  1  0
 25 68  1  0
 25 69  1  0
 26 70  1  0
 26 71  1  0
 26 72  1  0
 28 73  1  0
 28 74  1  0
 28 75  1  0
 29 76  1  0
 29 77  1  0
 30 78  1  0
 30 79  1  0
 32 80  1  0
 32 81  1  0
 32 82  1  0
M  END
>  <meeko>  (19) 
{"is_sidechain": [false], "intermolecular_energy": 2.731, "internal_energy": -0.839}

$$$$
EPH_relaxed_0001_pdb2pqr_Repair_51_r2_0001_out
     RDKit          3D

 82 86  0  0  0  0  0  0  0  0999 V2000
   -2.6280    7.6720   -0.3140 C   0  0  0  0  0  0  0  0  0  0  0  0
   -3.1520    9.1050   -0.1790 C   0  0  2  0  0  0  0  0  0  0  0  0
   -4.6550    9.2060   -0.5050 C   0  0  0  0  0  0  0  0  0  0  0  0
   -5.3830    7.8590   -0.4790 C   0  0  0  0  0  0  0  0  0  0  0  0
   -6.0330    7.5550   -1.7950 C   0  0  2  0  0  0  0  0  0  0  0  0
   -6.9960    8.5250   -2.2260 O   0  0  0  0  0  0  0  0  0  0  0  0
   -7.5030    7.2110   -1.9420 C   0  0  0  0  0  0  0  0  0  0  0  0
   -8.4140    7.1540   -0.7560 C   0  0  0  0  0  0  0  0  0  0  0  0
   -7.9450    6.4600   -3.1590 C   0  0  0  0  0  0  0  0  0  0  0  0
   -2.3580   10.0360   -1.0880 C   0  0  1  0  0  0  0  0  0  0  0  0
   -2.9800   11.4550   -1.1800 C   0  0  0  0  0  0  0  0  0  0  0  0
   -1.8010   12.4530   -1.3030 C   0  0  0  0  0  0  0  0  0  0  0  0
   -0.5710   11.5680   -1.6120 C   0  0  1  0  0  0  0  0  0  0  0  0
   -0.6550   11.2830   -3.1440 C   0  0  0  0  0  0  0  0  0  0  0  0
    0.8210   12.1550   -1.2090 C   0  0  2  0  0  0  0  0  0  0  0  0
    1.2150   13.4550   -1.9310 C   0  0  0  0  0  0  0  0  0  0  0  0
    1.9730   13.2740   -3.2040 C   0  0  0  0  0  0  0  0  0  0  0  0
    2.5720   12.1360   -3.6020 C   0  0  0  0  0  0  0  0  0  0  0  0
    2.6020   10.9010   -2.6920 C   0  0  1  0  0  0  0  0  0  0  0  0
    4.0360   10.3100   -2.6690 C   0  0  0  0  0  0  0  0  0  0  0  0
    4.5700   10.0160   -4.0680 C   0  0  0  0  0  0  0  0  0  0  0  0
    4.5780   11.2800   -4.9250 C   0  0  2  0  0  0  0  0  0  0  0  0
    5.5370   12.1960   -4.3860 O   0  0  0  0  0  0  0  0  0  0  0  0
    3.1880   11.9700   -5.0130 C   0  0  0  0  0  0  0  0  0  0  0  0
    2.2290   11.1010   -5.8640 C   0  0  0  0  0  0  0  0  0  0  0  0
    3.3660   13.3040   -5.7870 C   0  0  0  0  0  0  0  0  0  0  0  0
    2.0010   11.1000   -1.2340 C   0  0  1  0  0  0  0  0  0  0  0  0
    3.1030   11.6420   -0.2740 C   0  0  0  0  0  0  0  0  0  0  0  0
    1.5640    9.7000   -0.6630 C   0  0  0  0  0  0  0  0  0  0  0  0
    0.1350    9.2290   -0.9960 C   0  0  0  0  0  0  0  0  0  0  0  0
   -0.8880   10.3290   -0.6970 C   0  0  2  0  0  0  0  0  0  0  0  0
   -0.8420   10.6210    0.8410 C   0  0  0  0  0  0  0  0  0  0  0  0
   -2.4712    7.2431    0.6867 H   0  0  0  0  0  0  0  0  0  0  0  0
   -3.3618    7.0634   -0.8628 H   0  0  0  0  0  0  0  0  0  0  0  0
   -1.6747    7.6803   -0.8628 H   0  0  0  0  0  0  0  0  0  0  0  0
   -3.0206    9.4085    0.8701 H   0  0  0  0  0  0  0  0  0  0  0  0
   -5.1268    9.8699    0.2344 H   0  0  0  0  0  0  0  0  0  0  0  0
   -4.7358    9.5950   -1.5307 H   0  0  0  0  0  0  0  0  0  0  0  0
   -4.6568    7.0656   -0.2483 H   0  0  0  0  0  0  0  0  0  0  0  0
   -6.1693    7.9088    0.2886 H   0  0  0  0  0  0  0  0  0  0  0  0
   -5.1197    7.0612   -2.1583 H   0  0  0  0  0  0  0  0  0  0  0  0
   -7.8169    7.1914    0.1671 H   0  0  0  0  0  0  0  0  0  0  0  0
   -9.1034    8.0108   -0.7817 H   0  0  0  0  0  0  0  0  0  0  0  0
   -8.9912    6.2180   -0.7817 H   0  0  0  0  0  0  0  0  0  0  0  0
   -8.4810    5.5493   -2.8533 H   0  0  0  0  0  0  0  0  0  0  0  0
   -8.6135    7.0949   -3.7590 H   0  0  0  0  0  0  0  0  0  0  0  0
   -7.0654    6.1838   -3.7590 H   0  0  0  0  0  0  0  0  0  0  0  0
   -2.3903    9.4539   -2.0208 H   0  0  0  0  0  0  0  0  0  0  0  0
   -3.6307   11.5267   -2.0640 H   0  0  0  0  0  0  0  0  0  0  0  0
   -3.5932   11.6756   -0.2938 H   0  0  0  0  0  0  0  0  0  0  0  0
   -1.9805   13.1673   -2.1201 H   0  0  0  0  0  0  0  0  0  0  0  0
   -1.6650   13.0523   -0.3906 H   0  0  0  0  0  0  0  0  0  0  0  0
   -0.9626   10.2395   -3.3065 H   0  0  0  0  0  0  0  0  0  0  0  0
   -1.3923   11.9582   -3.6027 H   0  0  0  0  0  0  0  0  0  0  0  0
    0.3307   11.4504   -3.6027 H   0  0  0  0  0  0  0  0  0  0  0  0
    0.6634   12.4338   -0.1566 H   0  0  0  0  0  0  0  0  0  0  0  0
    0.2928   14.0089   -2.1606 H   0  0  0  0  0  0  0  0  0  0  0  0
    1.8918   13.9889   -1.2477 H   0  0  0  0  0  0  0  0  0  0  0  0
    2.0485   14.1437   -3.8733 H   0  0  0  0  0  0  0  0  0  0  0  0
    1.9064   10.1759   -3.1396 H   0  0  0  0  0  0  0  0  0  0  0  0
    4.7070   11.0315   -2.1798 H   0  0  0  0  0  0  0  0  0  0  0  0
    3.9960    9.3577   -2.1198 H   0  0  0  0  0  0  0  0  0  0  0  0
    5.5965    9.6288   -3.9877 H   0  0  0  0  0  0  0  0  0  0  0  0
    3.9150    9.2721   -4.5450 H   0  0  0  0  0  0  0  0  0  0  0  0
    4.8450   10.9821   -5.9497 H   0  0  0  0  0  0  0  0  0  0  0  0
    6.2060   11.6750   -3.9110 H   0  0  0  0  0  0  0  0  0  0  0  0
    1.5797   10.5127   -5.1989 H   0  0  0  0  0  0  0  0  0  0  0  0
    1.6100   11.7521   -6.4987 H   0  0  0  0  0  0  0  0  0  0  0  0
    2.8162   10.4210   -6.4987 H   0  0  0  0  0  0  0  0  0  0  0  0
    3.4764   14.1315   -5.0708 H   0  0  0  0  0  0  0  0  0  0  0  0
    4.2641   13.2440   -6.4193 H   0  0  0  0  0  0  0  0  0  0  0  0
    2.4836   13.4816   -6.4193 H   0  0  0  0  0  0  0  0  0  0  0  0
    2.7891   11.4876    0.7689 H   0  0  0  0  0  0  0  0  0  0  0  0
    4.0452   11.1045   -0.4567 H   0  0  0  0  0  0  0  0  0  0  0  0
    3.2524   12.7164   -0.4567 H   0  0  0  0  0  0  0  0  0  0  0  0
    2.2627    8.9472   -1.0568 H   0  0  0  0  0  0  0  0  0  0  0  0
    1.5808    9.8173    0.4306 H   0  0  0  0  0  0  0  0  0  0  0  0
    0.0815    8.9682   -2.0633 H   0  0  0  0  0  0  0  0  0  0  0  0
   -0.0997    8.3529   -0.3736 H   0  0  0  0  0  0  0  0  0  0  0  0
   -0.9897    9.6833    1.3968 H   0  0  0  0  0  0  0  0  0  0  0  0
    0.1352   11.0526    1.1032 H   0  0  0  0  0  0  0  0  0  0  0  0
   -1.6392   11.3322    1.1032 H   0  0  0  0  0  0  0  0  0  0  0  0
  1  2  1  0
  2  3  1  0
  3  4  1  0
  4  5  1  0
  5  6  1  0
  6  7  1  0
  7  8  1  0
  7  9  1  0
  2 10  1  0
 10 11  1  0
 11 12  1  0
 12 13  1  0
 13 14  1  6
 13 15  1  0
 15 16  1  0
 16 17  1  0
 17 18  2  0
 18 19  1  0
 19 20  1  0
 20 21  1  0
 21 22  1  0
 22 23  1  0
 22 24  1  0
 24 25  1  0
 24 26  1  0
 19 27  1  0
 27 28  1  1
 27 29  1  0
 29 30  1  0
 30 31  1  0
 31 32  1  1
  7  5  1  0
 31 10  1  0
 31 13  1  0
 27 15  1  0
 24 18  1  0
  1 33  1  0
  1 34  1  0
  1 35  1  0
  2 36  1  1
  3 37  1  0
  3 38  1  0
  4 39  1  0
  4 40  1  0
  5 41  1  6
  8 42  1  0
  8 43  1  0
  8 44  1  0
  9 45  1  0
  9 46  1  0
  9 47  1  0
 10 48  1  6
 11 49  1  0
 11 50  1  0
 12 51  1  0
 12 52  1  0
 14 53  1  0
 14 54  1  0
 14 55  1  0
 15 56  1  1
 16 57  1  0
 16 58  1  0
 17 59  1  0
 19 60  1  6
 20 61  1  0
 20 62  1  0
 21 63  1  0
 21 64  1  0
 22 65  1  6
 23 66  1  0
 25 67  1  0
 25 68  1  0
 25 69  1  0
 26 70  1  0
 26 71  1  0
 26 72  1  0
 28 73  1  0
 28 74  1  0
 28 75  1  0
 29 76  1  0
 29 77  1  0
 30 78  1  0
 30 79  1  0
 32 80  1  0
 32 81  1  0
 32 82  1  0
M  END
>  <meeko>  (20) 
{"is_sidechain": [false], "intermolecular_energy": 2.731, "internal_energy": -0.839}

$$$$
