EPH_relaxed_0001_pdb2pqr_Repair_383_r2_0001_out
     RDKit          3D

 82 86  0  0  0  0  0  0  0  0999 V2000
   -1.8210    8.7830   -1.8400 C   0  0  0  0  0  0  0  0  0  0  0  0
   -1.8150    9.0470   -0.3320 C   0  0  2  0  0  0  0  0  0  0  0  0
   -3.2400    9.2130    0.2340 C   0  0  0  0  0  0  0  0  0  0  0  0
   -4.3340    9.1850   -0.8360 C   0  0  0  0  0  0  0  0  0  0  0  0
   -5.0680    7.8780   -0.8450 C   0  0  2  0  0  0  0  0  0  0  0  0
   -5.3550    7.3610   -2.1510 O   0  0  0  0  0  0  0  0  0  0  0  0
   -6.4910    7.7210   -1.3480 C   0  0  0  0  0  0  0  0  0  0  0  0
   -7.2640    8.8880   -1.8780 C   0  0  0  0  0  0  0  0  0  0  0  0
   -7.2910    6.5480   -0.8760 C   0  0  0  0  0  0  0  0  0  0  0  0
   -0.9850   10.2880   -0.0250 C   0  0  1  0  0  0  0  0  0  0  0  0
    0.0930   10.0320    1.0620 C   0  0  0  0  0  0  0  0  0  0  0  0
    1.3230   10.8970    0.6840 C   0  0  0  0  0  0  0  0  0  0  0  0
    0.8010   11.8630   -0.4050 C   0  0  1  0  0  0  0  0  0  0  0  0
    0.0830   13.0040    0.3820 C   0  0  0  0  0  0  0  0  0  0  0  0
    1.8700   12.4290   -1.3960 C   0  0  2  0  0  0  0  0  0  0  0  0
    2.9680   13.2910   -0.7490 C   0  0  0  0  0  0  0  0  0  0  0  0
    2.6710   14.7520   -0.6750 C   0  0  0  0  0  0  0  0  0  0  0  0
    1.7030   15.3900   -1.3590 C   0  0  0  0  0  0  0  0  0  0  0  0
    0.8470   14.6440   -2.3910 C   0  0  1  0  0  0  0  0  0  0  0  0
    0.7480   15.4880   -3.6890 C   0  0  0  0  0  0  0  0  0  0  0  0
    0.2460   16.9050   -3.4280 C   0  0  0  0  0  0  0  0  0  0  0  0
    1.1560   17.6330   -2.4430 C   0  0  2  0  0  0  0  0  0  0  0  0
    2.4320   17.8380   -3.0580 O   0  0  0  0  0  0  0  0  0  0  0  0
    1.3390   16.8720   -1.1000 C   0  0  0  0  0  0  0  0  0  0  0  0
    0.0180   16.9140   -0.2930 C   0  0  0  0  0  0  0  0  0  0  0  0
    2.3890   17.6420   -0.2540 C   0  0  0  0  0  0  0  0  0  0  0  0
    1.2590   13.1350   -2.6740 C   0  0  1  0  0  0  0  0  0  0  0  0
    2.3570   13.0820   -3.7790 C   0  0  0  0  0  0  0  0  0  0  0  0
    0.0140   12.3610   -3.2470 C   0  0  0  0  0  0  0  0  0  0  0  0
   -0.9400   11.7220   -2.2200 C   0  0  0  0  0  0  0  0  0  0  0  0
   -0.1640   10.9000   -1.1880 C   0  0  2  0  0  0  0  0  0  0  0  0
    0.5520    9.7310   -1.9470 C   0  0  0  0  0  0  0  0  0  0  0  0
   -1.8456    7.6985   -2.0223 H   0  0  0  0  0  0  0  0  0  0  0  0
   -2.7087    9.2508   -2.2906 H   0  0  0  0  0  0  0  0  0  0  0  0
   -0.9129    9.2100   -2.2906 H   0  0  0  0  0  0  0  0  0  0  0  0
   -1.3660    8.1693    0.1559 H   0  0  0  0  0  0  0  0  0  0  0  0
   -3.4287    8.3952    0.9451 H   0  0  0  0  0  0  0  0  0  0  0  0
   -3.2829   10.2029    0.7118 H   0  0  0  0  0  0  0  0  0  0  0  0
   -5.0506    9.9948   -0.6343 H   0  0  0  0  0  0  0  0  0  0  0  0
   -3.8563    9.3166   -1.8181 H   0  0  0  0  0  0  0  0  0  0  0  0
   -4.5777    7.5696    0.0901 H   0  0  0  0  0  0  0  0  0  0  0  0
   -7.6562    9.4800   -1.0379 H   0  0  0  0  0  0  0  0  0  0  0  0
   -6.6032    9.5168   -2.4928 H   0  0  0  0  0  0  0  0  0  0  0  0
   -8.1007    8.5248   -2.4928 H   0  0  0  0  0  0  0  0  0  0  0  0
   -7.3027    6.5308    0.2238 H   0  0  0  0  0  0  0  0  0  0  0  0
   -8.3212    6.6315   -1.2524 H   0  0  0  0  0  0  0  0  0  0  0  0
   -6.8372    5.6193   -1.2524 H   0  0  0  0  0  0  0  0  0  0  0  0
   -1.7882   10.9782    0.2723 H   0  0  0  0  0  0  0  0  0  0  0  0
   -0.2883   10.3272    2.0507 H   0  0  0  0  0  0  0  0  0  0  0  0
    0.3596    8.9659    1.1107 H   0  0  0  0  0  0  0  0  0  0  0  0
    1.6870   11.4572    1.5579 H   0  0  0  0  0  0  0  0  0  0  0  0
    2.1684   10.2882    0.3310 H   0  0  0  0  0  0  0  0  0  0  0  0
    0.1928   12.8295    1.4625 H   0  0  0  0  0  0  0  0  0  0  0  0
    0.5353   13.9716    0.1190 H   0  0  0  0  0  0  0  0  0  0  0  0
   -0.9851   13.0149    0.1190 H   0  0  0  0  0  0  0  0  0  0  0  0
    2.3744   11.5161   -1.7456 H   0  0  0  0  0  0  0  0  0  0  0  0
    3.1283   12.9244    0.2757 H   0  0  0  0  0  0  0  0  0  0  0  0
    3.8525   13.1927   -1.3955 H   0  0  0  0  0  0  0  0  0  0  0  0
    3.2966   15.3591   -0.0042 H   0  0  0  0  0  0  0  0  0  0  0  0
   -0.1498   14.5369   -1.9383 H   0  0  0  0  0  0  0  0  0  0  0  0
    1.7456   15.5463   -4.1488 H   0  0  0  0  0  0  0  0  0  0  0  0
    0.0242   14.9943   -4.3542 H   0  0  0  0  0  0  0  0  0  0  0  0
    0.2256   17.4603   -4.3773 H   0  0  0  0  0  0  0  0  0  0  0  0
   -0.7636   16.8458   -2.9954 H   0  0  0  0  0  0  0  0  0  0  0  0
    0.6754   18.5914   -2.1971 H   0  0  0  0  0  0  0  0  0  0  0  0
    2.3080   18.4630   -3.7920 H   0  0  0  0  0  0  0  0  0  0  0  0
    0.2454   16.9068    0.7832 H   0  0  0  0  0  0  0  0  0  0  0  0
   -0.5363   17.8302   -0.5445 H   0  0  0  0  0  0  0  0  0  0  0  0
   -0.5934   16.0348   -0.5445 H   0  0  0  0  0  0  0  0  0  0  0  0
    2.1813   17.4897    0.8154 H   0  0  0  0  0  0  0  0  0  0  0  0
    3.3959   17.2666   -0.4891 H   0  0  0  0  0  0  0  0  0  0  0  0
    2.3336   18.7152   -0.4891 H   0  0  0  0  0  0  0  0  0  0  0  0
    3.3497   13.0341   -3.3075 H   0  0  0  0  0  0  0  0  0  0  0  0
    2.2048   12.1902   -4.4047 H   0  0  0  0  0  0  0  0  0  0  0  0
    2.2914   13.9844   -4.4047 H   0  0  0  0  0  0  0  0  0  0  0  0
   -0.5720   13.0719   -3.8480 H   0  0  0  0  0  0  0  0  0  0  0  0
    0.4354   11.5167   -3.8124 H   0  0  0  0  0  0  0  0  0  0  0  0
   -1.4960   12.5173   -1.7020 H   0  0  0  0  0  0  0  0  0  0  0  0
   -1.6315   11.0528   -2.7529 H   0  0  0  0  0  0  0  0  0  0  0  0
    0.9819    9.0291   -1.2173 H   0  0  0  0  0  0  0  0  0  0  0  0
   -0.1775    9.2025   -2.5783 H   0  0  0  0  0  0  0  0  0  0  0  0
    1.3543   10.1407   -2.5783 H   0  0  0  0  0  0  0  0  0  0  0  0
  1  2  1  0
  2  3  1  0
  3  4  1  0
  4  5  1  0
  5  6  1  0
  6  7  1  0
  7  8  1  0
  7  9  1  0
  2 10  1  0
 10 11  1  0
 11 12  1  0
 12 13  1  0
 13 14  1  1
 13 15  1  0
 15 16  1  0
 16 17  1  0
 17 18  2  0
 18 19  1  0
 19 20  1  0
 20 21  1  0
 21 22  1  0
 22 23  1  0
 22 24  1  0
 24 25  1  0
 24 26  1  0
 19 27  1  0
 27 28  1  6
 27 29  1  0
 29 30  1  0
 30 31  1  0
 31 32  1  6
  7  5  1  0
 31 10  1  0
 31 13  1  0
 27 15  1  0
 24 18  1  0
  1 33  1  0
  1 34  1  0
  1 35  1  0
  2 36  1  1
  3 37  1  0
  3 38  1  0
  4 39  1  0
  4 40  1  0
  5 41  1  1
  8 42  1  0
  8 43  1  0
  8 44  1  0
  9 45  1  0
  9 46  1  0
  9 47  1  0
 10 48  1  1
 11 49  1  0
 11 50  1  0
 12 51  1  0
 12 52  1  0
 14 53  1  0
 14 54  1  0
 14 55  1  0
 15 56  1  6
 16 57  1  0
 16 58  1  0
 17 59  1  0
 19 60  1  1
 20 61  1  0
 20 62  1  0
 21 63  1  0
 21 64  1  0
 22 65  1  1
 23 66  1  0
 25 67  1  0
 25 68  1  0
 25 69  1  0
 26 70  1  0
 26 71  1  0
 26 72  1  0
 28 73  1  0
 28 74  1  0
 28 75  1  0
 29 76  1  0
 29 77  1  0
 30 78  1  0
 30 79  1  0
 32 80  1  0
 32 81  1  0
 32 82  1  0
M  END
>  <meeko>  (1) 
{"is_sidechain": [false], "intermolecular_energy": 2.731, "internal_energy": -0.839}

$$$$
EPH_relaxed_0001_pdb2pqr_Repair_383_r2_0001_out
     RDKit          3D

 82 86  0  0  0  0  0  0  0  0999 V2000
    2.4730   18.0250   -2.5280 C   0  0  0  0  0  0  0  0  0  0  0  0
    1.1110   17.6880   -1.9150 C   0  0  2  0  0  0  0  0  0  0  0  0
    1.1300   17.7750   -0.3750 C   0  0  0  0  0  0  0  0  0  0  0  0
    0.7610   19.1580    0.1680 C   0  0  0  0  0  0  0  0  0  0  0  0
   -0.6940   19.2470    0.5140 C   0  0  2  0  0  0  0  0  0  0  0  0
   -1.5270   18.2850   -0.1470 O   0  0  0  0  0  0  0  0  0  0  0  0
   -1.7660   19.6630   -0.4760 C   0  0  0  0  0  0  0  0  0  0  0  0
   -1.4260   20.0180   -1.8900 C   0  0  0  0  0  0  0  0  0  0  0  0
   -3.0620   20.1930    0.0530 C   0  0  0  0  0  0  0  0  0  0  0  0
    0.6740   16.2950   -2.3530 C   0  0  1  0  0  0  0  0  0  0  0  0
    0.8200   16.0770   -3.8820 C   0  0  0  0  0  0  0  0  0  0  0  0
    1.2240   14.5940   -4.0860 C   0  0  0  0  0  0  0  0  0  0  0  0
    0.9750   13.9300   -2.7110 C   0  0  1  0  0  0  0  0  0  0  0  0
   -0.5590   13.6390   -2.6790 C   0  0  0  0  0  0  0  0  0  0  0  0
    1.8120   12.6460   -2.4020 C   0  0  2  0  0  0  0  0  0  0  0  0
    1.5590   11.4580   -3.3460 C   0  0  0  0  0  0  0  0  0  0  0  0
    0.4820   10.5190   -2.9140 C   0  0  0  0  0  0  0  0  0  0  0  0
   -0.0570   10.4600   -1.6820 C   0  0  0  0  0  0  0  0  0  0  0  0
    0.4850   11.3340   -0.5430 C   0  0  1  0  0  0  0  0  0  0  0  0
    0.6680   10.4690    0.7310 C   0  0  0  0  0  0  0  0  0  0  0  0
   -0.6060    9.7250    1.1220 C   0  0  0  0  0  0  0  0  0  0  0  0
   -1.0810    8.8230   -0.0150 C   0  0  2  0  0  0  0  0  0  0  0  0
   -0.1240    7.7750   -0.2010 O   0  0  0  0  0  0  0  0  0  0  0  0
   -1.2900    9.5830   -1.3540 C   0  0  0  0  0  0  0  0  0  0  0  0
   -2.5280   10.5080   -1.2390 C   0  0  0  0  0  0  0  0  0  0  0  0
   -1.6310    8.5370   -2.4490 C   0  0  0  0  0  0  0  0  0  0  0  0
    1.7740   12.1980   -0.8850 C   0  0  1  0  0  0  0  0  0  0  0  0
    3.0610   11.3520   -0.6380 C   0  0  0  0  0  0  0  0  0  0  0  0
    1.8500   13.4210    0.1030 C   0  0  0  0  0  0  0  0  0  0  0  0
    1.1000   14.7000   -0.3160 C   0  0  0  0  0  0  0  0  0  0  0  0
    1.4420   15.0890   -1.7570 C   0  0  2  0  0  0  0  0  0  0  0  0
    2.9740   15.4090   -1.8160 C   0  0  0  0  0  0  0  0  0  0  0  0
    3.2022   18.2054   -1.7244 H   0  0  0  0  0  0  0  0  0  0  0  0
    2.8134   17.1840   -3.1500 H   0  0  0  0  0  0  0  0  0  0  0  0
    2.3819   18.9277   -3.1500 H   0  0  0  0  0  0  0  0  0  0  0  0
    0.3902   18.4349   -2.2790 H   0  0  0  0  0  0  0  0  0  0  0  0
    0.4121   17.0428    0.0231 H   0  0  0  0  0  0  0  0  0  0  0  0
    2.1617   17.5685   -0.0541 H   0  0  0  0  0  0  0  0  0  0  0  0
    1.3553   19.3562    1.0722 H   0  0  0  0  0  0  0  0  0  0  0  0
    0.9737   19.9016   -0.6142 H   0  0  0  0  0  0  0  0  0  0  0  0
   -0.4548   19.5920    1.5308 H   0  0  0  0  0  0  0  0  0  0  0  0
   -0.6652   20.8124   -1.8958 H   0  0  0  0  0  0  0  0  0  0  0  0
   -1.0329   19.1300   -2.4066 H   0  0  0  0  0  0  0  0  0  0  0  0
   -2.3301   20.3725   -2.4066 H   0  0  0  0  0  0  0  0  0  0  0  0
   -3.0402   20.1841    1.1527 H   0  0  0  0  0  0  0  0  0  0  0  0
   -3.2091   21.2235   -0.3025 H   0  0  0  0  0  0  0  0  0  0  0  0
   -3.8891   19.5609   -0.3025 H   0  0  0  0  0  0  0  0  0  0  0  0
   -0.3617   16.3011   -1.9826 H   0  0  0  0  0  0  0  0  0  0  0  0
   -0.1356   16.2821   -4.3868 H   0  0  0  0  0  0  0  0  0  0  0  0
    1.5755   16.7542   -4.3071 H   0  0  0  0  0  0  0  0  0  0  0  0
    0.6015   14.1250   -4.8623 H   0  0  0  0  0  0  0  0  0  0  0  0
    2.2671   14.4874   -4.4184 H   0  0  0  0  0  0  0  0  0  0  0  0
   -0.8983   13.5746   -1.6346 H   0  0  0  0  0  0  0  0  0  0  0  0
   -1.0970   14.4511   -3.1899 H   0  0  0  0  0  0  0  0  0  0  0  0
   -0.7622   12.6863   -3.1899 H   0  0  0  0  0  0  0  0  0  0  0  0
    2.8394   12.9785   -2.6114 H   0  0  0  0  0  0  0  0  0  0  0  0
    1.2841   11.8600   -4.3323 H   0  0  0  0  0  0  0  0  0  0  0  0
    2.4895   10.8714   -3.3534 H   0  0  0  0  0  0  0  0  0  0  0  0
    0.0960    9.8155   -3.6664 H   0  0  0  0  0  0  0  0  0  0  0  0
   -0.2773   12.1064   -0.3631 H   0  0  0  0  0  0  0  0  0  0  0  0
    1.4636    9.7323    0.5456 H   0  0  0  0  0  0  0  0  0  0  0  0
    0.9269   11.1452    1.5590 H   0  0  0  0  0  0  0  0  0  0  0  0
   -0.4048    9.1087    2.0106 H   0  0  0  0  0  0  0  0  0  0  0  0
   -1.3924   10.4635    1.3367 H   0  0  0  0  0  0  0  0  0  0  0  0
   -2.0630    8.4191    0.2722 H   0  0  0  0  0  0  0  0  0  0  0  0
    0.6770    8.0160    0.2930 H   0  0  0  0  0  0  0  0  0  0  0  0
   -2.7593   10.6808   -0.1776 H   0  0  0  0  0  0  0  0  0  0  0  0
   -2.3142   11.4694   -1.7289 H   0  0  0  0  0  0  0  0  0  0  0  0
   -3.3893   10.0304   -1.7289 H   0  0  0  0  0  0  0  0  0  0  0  0
   -1.9383    7.5943   -1.9726 H   0  0  0  0  0  0  0  0  0  0  0  0
   -2.4521    8.9161   -3.0752 H   0  0  0  0  0  0  0  0  0  0  0  0
   -0.7443    8.3593   -3.0752 H   0  0  0  0  0  0  0  0  0  0  0  0
    3.2263   11.2433    0.4441 H   0  0  0  0  0  0  0  0  0  0  0  0
    2.9388   10.3575   -1.0919 H   0  0  0  0  0  0  0  0  0  0  0  0
    3.9255   11.8585   -1.0919 H   0  0  0  0  0  0  0  0  0  0  0  0
    1.4374   13.0946    1.0690 H   0  0  0  0  0  0  0  0  0  0  0  0
    2.9123   13.7053    0.1280 H   0  0  0  0  0  0  0  0  0  0  0  0
    0.0170   14.5238   -0.2383 H   0  0  0  0  0  0  0  0  0  0  0  0
    1.4056   15.5200    0.3505 H   0  0  0  0  0  0  0  0  0  0  0  0
    3.3709   15.4919   -0.7935 H   0  0  0  0  0  0  0  0  0  0  0  0
    3.4972   14.6008   -2.3480 H   0  0  0  0  0  0  0  0  0  0  0  0
    3.1299   16.3591   -2.3480 H   0  0  0  0  0  0  0  0  0  0  0  0
  1  2  1  0
  2  3  1  0
  3  4  1  0
  4  5  1  0
  5  6  1  0
  6  7  1  0
  7  8  1  0
  7  9  1  0
  2 10  1  0
 10 11  1  0
 11 12  1  0
 12 13  1  0
 13 14  1  1
 13 15  1  0
 15 16  1  0
 16 17  1  0
 17 18  2  0
 18 19  1  0
 19 20  1  0
 20 21  1  0
 21 22  1  0
 22 23  1  0
 22 24  1  0
 24 25  1  0
 24 26  1  0
 19 27  1  0
 27 28  1  1
 27 29  1  0
 29 30  1  0
 30 31  1  0
 31 32  1  1
  7  5  1  0
 31 10  1  0
 31 13  1  0
 27 15  1  0
 24 18  1  0
  1 33  1  0
  1 34  1  0
  1 35  1  0
  2 36  1  6
  3 37  1  0
  3 38  1  0
  4 39  1  0
  4 40  1  0
  5 41  1  1
  8 42  1  0
  8 43  1  0
  8 44  1  0
  9 45  1  0
  9 46  1  0
  9 47  1  0
 10 48  1  6
 11 49  1  0
 11 50  1  0
 12 51  1  0
 12 52  1  0
 14 53  1  0
 14 54  1  0
 14 55  1  0
 15 56  1  6
 16 57  1  0
 16 58  1  0
 17 59  1  0
 19 60  1  1
 20 61  1  0
 20 62  1  0
 21 63  1  0
 21 64  1  0
 22 65  1  1
 23 66  1  0
 25 67  1  0
 25 68  1  0
 25 69  1  0
 26 70  1  0
 26 71  1  0
 26 72  1  0
 28 73  1  0
 28 74  1  0
 28 75  1  0
 29 76  1  0
 29 77  1  0
 30 78  1  0
 30 79  1  0
 32 80  1  0
 32 81  1  0
 32 82  1  0
M  END
>  <meeko>  (2) 
{"is_sidechain": [false], "intermolecular_energy": 2.731, "internal_energy": -0.839}

$$$$
EPH_relaxed_0001_pdb2pqr_Repair_383_r2_0001_out
     RDKit          3D

 82 86  0  0  0  0  0  0  0  0999 V2000
    2.0370   19.5650   -0.6030 C   0  0  0  0  0  0  0  0  0  0  0  0
    2.4290   18.3450    0.2350 C   0  0  2  0  0  0  0  0  0  0  0  0
    3.8710   17.8830   -0.0520 C   0  0  0  0  0  0  0  0  0  0  0  0
    4.8950   18.3890    0.9690 C   0  0  0  0  0  0  0  0  0  0  0  0
    4.2350   18.8500    2.2330 C   0  0  2  0  0  0  0  0  0  0  0  0
    4.5530   20.1940    2.6190 O   0  0  0  0  0  0  0  0  0  0  0  0
    4.9950   19.1560    3.5100 C   0  0  0  0  0  0  0  0  0  0  0  0
    6.4830   19.0120    3.5860 C   0  0  0  0  0  0  0  0  0  0  0  0
    4.2540   19.1220    4.8100 C   0  0  0  0  0  0  0  0  0  0  0  0
    1.4540   17.2020   -0.0230 C   0  0  1  0  0  0  0  0  0  0  0  0
    0.1590   17.6710   -0.7370 C   0  0  0  0  0  0  0  0  0  0  0  0
   -0.2720   16.5220   -1.6840 C   0  0  0  0  0  0  0  0  0  0  0  0
    0.5870   15.3120   -1.2450 C   0  0  1  0  0  0  0  0  0  0  0  0
   -0.1480   14.7290    0.0020 C   0  0  0  0  0  0  0  0  0  0  0  0
    0.8420   14.2160   -2.3300 C   0  0  2  0  0  0  0  0  0  0  0  0
   -0.4200   13.5010   -2.8440 C   0  0  0  0  0  0  0  0  0  0  0  0
   -0.8060   12.2700   -2.0940 C   0  0  0  0  0  0  0  0  0  0  0  0
   -0.0180   11.5980   -1.2340 C   0  0  0  0  0  0  0  0  0  0  0  0
    1.4440   12.0120   -1.0180 C   0  0  1  0  0  0  0  0  0  0  0  0
    2.3500   10.7530   -1.0620 C   0  0  0  0  0  0  0  0  0  0  0  0
    1.8990    9.6730   -0.0840 C   0  0  0  0  0  0  0  0  0  0  0  0
    0.4600    9.2470   -0.3670 C   0  0  2  0  0  0  0  0  0  0  0  0
    0.4170    8.5890   -1.6370 O   0  0  0  0  0  0  0  0  0  0  0  0
   -0.5430   10.4340   -0.3590 C   0  0  0  0  0  0  0  0  0  0  0  0
   -0.7210   10.9560    1.0890 C   0  0  0  0  0  0  0  0  0  0  0  0
   -1.9300    9.8900   -0.7970 C   0  0  0  0  0  0  0  0  0  0  0  0
    1.9780   13.1820   -1.9520 C   0  0  1  0  0  0  0  0  0  0  0  0
    2.5080   12.5910   -3.2950 C   0  0  0  0  0  0  0  0  0  0  0  0
    3.2090   13.8730   -1.2550 C   0  0  0  0  0  0  0  0  0  0  0  0
    2.8990   15.0290   -0.2850 C   0  0  0  0  0  0  0  0  0  0  0  0
    1.9430   16.0400   -0.9250 C   0  0  2  0  0  0  0  0  0  0  0  0
    2.6650   16.6600   -2.1700 C   0  0  0  0  0  0  0  0  0  0  0  0
    1.7695   20.3976    0.0643 H   0  0  0  0  0  0  0  0  0  0  0  0
    2.8850   19.8617   -1.2377 H   0  0  0  0  0  0  0  0  0  0  0  0
    1.1749   19.3122   -1.2377 H   0  0  0  0  0  0  0  0  0  0  0  0
    2.3821   18.6413    1.2933 H   0  0  0  0  0  0  0  0  0  0  0  0
    3.8906   16.7832   -0.0475 H   0  0  0  0  0  0  0  0  0  0  0  0
    4.1551   18.3041   -1.0277 H   0  0  0  0  0  0  0  0  0  0  0  0
    5.5931   17.5733    1.2082 H   0  0  0  0  0  0  0  0  0  0  0  0
    5.4261   19.2450    0.5272 H   0  0  0  0  0  0  0  0  0  0  0  0
    3.3553   18.2213    2.0308 H   0  0  0  0  0  0  0  0  0  0  0  0
    6.7951   18.9818    4.6404 H   0  0  0  0  0  0  0  0  0  0  0  0
    6.7872   18.0802    3.0867 H   0  0  0  0  0  0  0  0  0  0  0  0
    6.9602   19.8682    3.0867 H   0  0  0  0  0  0  0  0  0  0  0  0
    4.9723   19.1550    5.6424 H   0  0  0  0  0  0  0  0  0  0  0  0
    3.5814   19.9902    4.8715 H   0  0  0  0  0  0  0  0  0  0  0  0
    3.6637   18.1958    4.8715 H   0  0  0  0  0  0  0  0  0  0  0  0
    1.3119   16.8448    1.0076 H   0  0  0  0  0  0  0  0  0  0  0  0
   -0.6309   17.8684    0.0027 H   0  0  0  0  0  0  0  0  0  0  0  0
    0.3327   18.6008   -1.2984 H   0  0  0  0  0  0  0  0  0  0  0  0
   -1.3431   16.3016   -1.5649 H   0  0  0  0  0  0  0  0  0  0  0  0
   -0.1235   16.7767   -2.7437 H   0  0  0  0  0  0  0  0  0  0  0  0
    0.3286   15.1070    0.9185 H   0  0  0  0  0  0  0  0  0  0  0  0
   -1.2035   15.0382   -0.0167 H   0  0  0  0  0  0  0  0  0  0  0  0
   -0.0872   13.6308   -0.0167 H   0  0  0  0  0  0  0  0  0  0  0  0
    1.2175   14.8068   -3.1785 H   0  0  0  0  0  0  0  0  0  0  0  0
   -1.2590   14.2102   -2.7878 H   0  0  0  0  0  0  0  0  0  0  0  0
   -0.1878   13.1729   -3.8679 H   0  0  0  0  0  0  0  0  0  0  0  0
   -1.8208   11.8784   -2.2578 H   0  0  0  0  0  0  0  0  0  0  0  0
    1.4873   12.4680   -0.0179 H   0  0  0  0  0  0  0  0  0  0  0  0
    2.3276   10.3380   -2.0805 H   0  0  0  0  0  0  0  0  0  0  0  0
    3.3653   11.0622   -0.7729 H   0  0  0  0  0  0  0  0  0  0  0  0
    2.5594    8.7989   -0.1833 H   0  0  0  0  0  0  0  0  0  0  0  0
    1.9505   10.0799    0.9367 H   0  0  0  0  0  0  0  0  0  0  0  0
    0.1501    8.5699    0.4426 H   0  0  0  0  0  0  0  0  0  0  0  0
   -0.4240    8.8280   -2.0630 H   0  0  0  0  0  0  0  0  0  0  0  0
   -0.4503   10.1622    1.8008 H   0  0  0  0  0  0  0  0  0  0  0  0
   -0.0694   11.8281    1.2471 H   0  0  0  0  0  0  0  0  0  0  0  0
   -1.7696   11.2483    1.2471 H   0  0  0  0  0  0  0  0  0  0  0  0
   -2.5298    9.6547    0.0946 H   0  0  0  0  0  0  0  0  0  0  0  0
   -2.4493   10.6511   -1.3979 H   0  0  0  0  0  0  0  0  0  0  0  0
   -1.7934    8.9788   -1.3979 H   0  0  0  0  0  0  0  0  0  0  0  0
    3.2286   11.7874   -3.0829 H   0  0  0  0  0  0  0  0  0  0  0  0
    1.6659   12.1848   -3.8745 H   0  0  0  0  0  0  0  0  0  0  0  0
    3.0032   13.3841   -3.8745 H   0  0  0  0  0  0  0  0  0  0  0  0
    3.7485   13.0993   -0.6891 H   0  0  0  0  0  0  0  0  0  0  0  0
    3.7840   14.3304   -2.0736 H   0  0  0  0  0  0  0  0  0  0  0  0
    2.4347   14.6207    0.6248 H   0  0  0  0  0  0  0  0  0  0  0  0
    3.8401   15.5429   -0.0395 H   0  0  0  0  0  0  0  0  0  0  0  0
    3.4590   17.3419   -1.8315 H   0  0  0  0  0  0  0  0  0  0  0  0
    3.1065   15.8553   -2.7762 H   0  0  0  0  0  0  0  0  0  0  0  0
    1.9363   17.2181   -2.7762 H   0  0  0  0  0  0  0  0  0  0  0  0
  1  2  1  0
  2  3  1  0
  3  4  1  0
  4  5  1  0
  5  6  1  0
  6  7  1  0
  7  8  1  0
  7  9  1  0
  2 10  1  0
 10 11  1  0
 11 12  1  0
 12 13  1  0
 13 14  1  1
 13 15  1  0
 15 16  1  0
 16 17  1  0
 17 18  2  0
 18 19  1  0
 19 20  1  0
 20 21  1  0
 21 22  1  0
 22 23  1  0
 22 24  1  0
 24 25  1  0
 24 26  1  0
 19 27  1  0
 27 28  1  6
 27 29  1  0
 29 30  1  0
 30 31  1  0
 31 32  1  6
  7  5  1  0
 31 10  1  0
 31 13  1  0
 27 15  1  0
 24 18  1  0
  1 33  1  0
  1 34  1  0
  1 35  1  0
  2 36  1  1
  3 37  1  0
  3 38  1  0
  4 39  1  0
  4 40  1  0
  5 41  1  1
  8 42  1  0
  8 43  1  0
  8 44  1  0
  9 45  1  0
  9 46  1  0
  9 47  1  0
 10 48  1  1
 11 49  1  0
 11 50  1  0
 12 51  1  0
 12 52  1  0
 14 53  1  0
 14 54  1  0
 14 55  1  0
 15 56  1  6
 16 57  1  0
 16 58  1  0
 17 59  1  0
 19 60  1  1
 20 61  1  0
 20 62  1  0
 21 63  1  0
 21 64  1  0
 22 65  1  1
 23 66  1  0
 25 67  1  0
 25 68  1  0
 25 69  1  0
 26 70  1  0
 26 71  1  0
 26 72  1  0
 28 73  1  0
 28 74  1  0
 28 75  1  0
 29 76  1  0
 29 77  1  0
 30 78  1  0
 30 79  1  0
 32 80  1  0
 32 81  1  0
 32 82  1  0
M  END
>  <meeko>  (3) 
{"is_sidechain": [false], "intermolecular_energy": 2.731, "internal_energy": -0.839}

$$$$
EPH_relaxed_0001_pdb2pqr_Repair_383_r2_0001_out
     RDKit          3D

 82 86  0  0  0  0  0  0  0  0999 V2000
    0.3990   18.4330   -0.0650 C   0  0  0  0  0  0  0  0  0  0  0  0
    1.4870   17.3750   -0.2680 C   0  0  2  0  0  0  0  0  0  0  0  0
    2.7070   17.9360   -1.0260 C   0  0  0  0  0  0  0  0  0  0  0  0
    3.9410   18.1390   -0.1430 C   0  0  0  0  0  0  0  0  0  0  0  0
    3.5680   18.6090    1.2300 C   0  0  2  0  0  0  0  0  0  0  0  0
    3.8120   20.0010    1.4730 O   0  0  0  0  0  0  0  0  0  0  0  0
    4.5820   19.0760    2.2590 C   0  0  0  0  0  0  0  0  0  0  0  0
    6.0470   19.0940    1.9570 C   0  0  0  0  0  0  0  0  0  0  0  0
    4.1980   19.0490    3.7050 C   0  0  0  0  0  0  0  0  0  0  0  0
    0.9140   16.1770   -1.0150 C   0  0  1  0  0  0  0  0  0  0  0  0
    0.7910   16.4280   -2.5420 C   0  0  0  0  0  0  0  0  0  0  0  0
    1.0810   15.0760   -3.2420 C   0  0  0  0  0  0  0  0  0  0  0  0
    1.0330   14.0290   -2.1050 C   0  0  1  0  0  0  0  0  0  0  0  0
   -0.4850   13.7370   -1.8930 C   0  0  0  0  0  0  0  0  0  0  0  0
    1.8470   12.7150   -2.3410 C   0  0  2  0  0  0  0  0  0  0  0  0
    1.3800   11.8640   -3.5350 C   0  0  0  0  0  0  0  0  0  0  0  0
    0.3460   10.8350   -3.2190 C   0  0  0  0  0  0  0  0  0  0  0  0
    0.0190   10.4070   -1.9860 C   0  0  0  0  0  0  0  0  0  0  0  0
    0.7860   10.9010   -0.7520 C   0  0  1  0  0  0  0  0  0  0  0  0
    1.1370    9.6930    0.1560 C   0  0  0  0  0  0  0  0  0  0  0  0
   -0.0880    8.8630    0.5250 C   0  0  0  0  0  0  0  0  0  0  0  0
   -0.7910    8.3420   -0.7260 C   0  0  2  0  0  0  0  0  0  0  0  0
    0.0680    7.4010   -1.3790 O   0  0  0  0  0  0  0  0  0  0  0  0
   -1.1840    9.4690   -1.7220 C   0  0  0  0  0  0  0  0  0  0  0  0
   -2.3370   10.3120   -1.1240 C   0  0  0  0  0  0  0  0  0  0  0  0
   -1.7550    8.7980   -3.0010 C   0  0  0  0  0  0  0  0  0  0  0  0
    2.0410   11.8310   -1.0430 C   0  0  1  0  0  0  0  0  0  0  0  0
    3.3080   10.9550   -1.2860 C   0  0  0  0  0  0  0  0  0  0  0  0
    2.3420   12.7020    0.2340 C   0  0  0  0  0  0  0  0  0  0  0  0
    1.5970   14.0450    0.3510 C   0  0  0  0  0  0  0  0  0  0  0  0
    1.7110   14.8500   -0.9480 C   0  0  2  0  0  0  0  0  0  0  0  0
    3.2260   15.1780   -1.1760 C   0  0  0  0  0  0  0  0  0  0  0  0
    0.2370   18.5905    1.0115 H   0  0  0  0  0  0  0  0  0  0  0  0
    0.7153   19.3782   -0.5304 H   0  0  0  0  0  0  0  0  0  0  0  0
   -0.5370   18.0904   -0.5304 H   0  0  0  0  0  0  0  0  0  0  0  0
    1.8333   17.0602    0.7275 H   0  0  0  0  0  0  0  0  0  0  0  0
    2.9682   17.2338   -1.8314 H   0  0  0  0  0  0  0  0  0  0  0  0
    2.4196   18.9264   -1.4088 H   0  0  0  0  0  0  0  0  0  0  0  0
    4.4802   17.1839   -0.0587 H   0  0  0  0  0  0  0  0  0  0  0  0
    4.5737   18.9087   -0.6091 H   0  0  0  0  0  0  0  0  0  0  0  0
    2.7462   17.8797    1.2823 H   0  0  0  0  0  0  0  0  0  0  0  0
    6.6154   19.1010    2.8987 H   0  0  0  0  0  0  0  0  0  0  0  0
    6.3124   18.1990    1.3751 H   0  0  0  0  0  0  0  0  0  0  0  0
    6.2904   19.9952    1.3751 H   0  0  0  0  0  0  0  0  0  0  0  0
    5.1036   19.1127    4.3261 H   0  0  0  0  0  0  0  0  0  0  0  0
    3.5410   19.9032    3.9259 H   0  0  0  0  0  0  0  0  0  0  0  0
    3.6670   18.1113    3.9259 H   0  0  0  0  0  0  0  0  0  0  0  0
   -0.0432   16.0690   -0.4839 H   0  0  0  0  0  0  0  0  0  0  0  0
   -0.2242   16.7723   -2.7888 H   0  0  0  0  0  0  0  0  0  0  0  0
    1.4973   17.2037   -2.8730 H   0  0  0  0  0  0  0  0  0  0  0  0
    0.3151   14.8599   -4.0013 H   0  0  0  0  0  0  0  0  0  0  0  0
    2.0477   15.0773   -3.7670 H   0  0  0  0  0  0  0  0  0  0  0  0
   -0.7033   13.6950   -0.8157 H   0  0  0  0  0  0  0  0  0  0  0  0
   -1.0806   14.5370   -2.3569 H   0  0  0  0  0  0  0  0  0  0  0  0
   -0.7413   12.7731   -2.3569 H   0  0  0  0  0  0  0  0  0  0  0  0
    2.8400   13.0991   -2.6175 H   0  0  0  0  0  0  0  0  0  0  0  0
    0.9633   12.5427   -4.2938 H   0  0  0  0  0  0  0  0  0  0  0  0
    2.2659   11.3097   -3.8785 H   0  0  0  0  0  0  0  0  0  0  0  0
   -0.1948   10.3885   -4.0664 H   0  0  0  0  0  0  0  0  0  0  0  0
    0.1041   11.5815   -0.2211 H   0  0  0  0  0  0  0  0  0  0  0  0
    1.8525    9.0485   -0.3757 H   0  0  0  0  0  0  0  0  0  0  0  0
    1.5647   10.0896    1.0886 H   0  0  0  0  0  0  0  0  0  0  0  0
    0.2283    8.0092    1.1422 H   0  0  0  0  0  0  0  0  0  0  0  0
   -0.7897    9.5012    1.0820 H   0  0  0  0  0  0  0  0  0  0  0  0
   -1.7293    7.8669   -0.4038 H   0  0  0  0  0  0  0  0  0  0  0  0
    0.0230    7.5750   -2.3340 H   0  0  0  0  0  0  0  0  0  0  0  0
   -2.2867   10.2752   -0.0258 H   0  0  0  0  0  0  0  0  0  0  0  0
   -2.2416   11.3548   -1.4607 H   0  0  0  0  0  0  0  0  0  0  0  0
   -3.3018    9.9048   -1.4607 H   0  0  0  0  0  0  0  0  0  0  0  0
   -2.4433    7.9892   -2.7146 H   0  0  0  0  0  0  0  0  0  0  0  0
   -2.2971    9.5469   -3.5971 H   0  0  0  0  0  0  0  0  0  0  0  0
   -0.9291    8.3827   -3.5971 H   0  0  0  0  0  0  0  0  0  0  0  0
    3.7388   10.6571   -0.3187 H   0  0  0  0  0  0  0  0  0  0  0  0
    3.0287   10.0562   -1.8553 H   0  0  0  0  0  0  0  0  0  0  0  0
    4.0502   11.5337   -1.8553 H   0  0  0  0  0  0  0  0  0  0  0  0
    2.0818   12.0993    1.1166 H   0  0  0  0  0  0  0  0  0  0  0  0
    3.4061   12.9695    0.1553 H   0  0  0  0  0  0  0  0  0  0  0  0
    0.5351   13.8503    0.5618 H   0  0  0  0  0  0  0  0  0  0  0  0
    2.0505   14.6280    1.1661 H   0  0  0  0  0  0  0  0  0  0  0  0
    3.7280   15.2867   -0.2033 H   0  0  0  0  0  0  0  0  0  0  0  0
    3.6968   14.3610   -1.7424 H   0  0  0  0  0  0  0  0  0  0  0  0
    3.3168   16.1166   -1.7424 H   0  0  0  0  0  0  0  0  0  0  0  0
  1  2  1  0
  2  3  1  0
  3  4  1  0
  4  5  1  0
  5  6  1  0
  6  7  1  0
  7  8  1  0
  7  9  1  0
  2 10  1  0
 10 11  1  0
 11 12  1  0
 12 13  1  0
 13 14  1  1
 13 15  1  0
 15 16  1  0
 16 17  1  0
 17 18  2  0
 18 19  1  0
 19 20  1  0
 20 21  1  0
 21 22  1  0
 22 23  1  0
 22 24  1  0
 24 25  1  0
 24 26  1  0
 19 27  1  0
 27 28  1  6
 27 29  1  0
 29 30  1  0
 30 31  1  0
 31 32  1  6
  7  5  1  0
 31 10  1  0
 31 13  1  0
 27 15  1  0
 24 18  1  0
  1 33  1  0
  1 34  1  0
  1 35  1  0
  2 36  1  1
  3 37  1  0
  3 38  1  0
  4 39  1  0
  4 40  1  0
  5 41  1  1
  8 42  1  0
  8 43  1  0
  8 44  1  0
  9 45  1  0
  9 46  1  0
  9 47  1  0
 10 48  1  1
 11 49  1  0
 11 50  1  0
 12 51  1  0
 12 52  1  0
 14 53  1  0
 14 54  1  0
 14 55  1  0
 15 56  1  6
 16 57  1  0
 16 58  1  0
 17 59  1  0
 19 60  1  1
 20 61  1  0
 20 62  1  0
 21 63  1  0
 21 64  1  0
 22 65  1  1
 23 66  1  0
 25 67  1  0
 25 68  1  0
 25 69  1  0
 26 70  1  0
 26 71  1  0
 26 72  1  0
 28 73  1  0
 28 74  1  0
 28 75  1  0
 29 76  1  0
 29 77  1  0
 30 78  1  0
 30 79  1  0
 32 80  1  0
 32 81  1  0
 32 82  1  0
M  END
>  <meeko>  (4) 
{"is_sidechain": [false], "intermolecular_energy": 2.731, "internal_energy": -0.839}

$$$$
EPH_relaxed_0001_pdb2pqr_Repair_383_r2_0001_out
     RDKit          3D

 82 86  0  0  0  0  0  0  0  0999 V2000
   -3.3640    9.2790    0.5800 C   0  0  0  0  0  0  0  0  0  0  0  0
   -2.5650    9.6630   -0.6690 C   0  0  2  0  0  0  0  0  0  0  0  0
   -1.9010    8.4400   -1.3320 C   0  0  0  0  0  0  0  0  0  0  0  0
   -2.8260    7.6820   -2.2880 C   0  0  0  0  0  0  0  0  0  0  0  0
   -4.2600    7.7730   -1.8620 C   0  0  2  0  0  0  0  0  0  0  0  0
   -4.7980    6.5660   -1.3090 O   0  0  0  0  0  0  0  0  0  0  0  0
   -5.3840    7.0140   -2.5410 C   0  0  0  0  0  0  0  0  0  0  0  0
   -5.1240    6.1090   -3.7040 C   0  0  0  0  0  0  0  0  0  0  0  0
   -6.7840    7.5250   -2.3930 C   0  0  0  0  0  0  0  0  0  0  0  0
   -1.5060   10.6990   -0.3090 C   0  0  1  0  0  0  0  0  0  0  0  0
   -0.3990   10.1270    0.6160 C   0  0  0  0  0  0  0  0  0  0  0  0
    0.9260   10.8220    0.2110 C   0  0  0  0  0  0  0  0  0  0  0  0
    0.4890   11.9980   -0.6930 C   0  0  1  0  0  0  0  0  0  0  0  0
    0.0540   13.1240    0.2970 C   0  0  0  0  0  0  0  0  0  0  0  0
    1.5510   12.5110   -1.7200 C   0  0  2  0  0  0  0  0  0  0  0  0
    2.8350   13.0860   -1.0990 C   0  0  0  0  0  0  0  0  0  0  0  0
    2.8080   14.5530   -0.8210 C   0  0  0  0  0  0  0  0  0  0  0  0
    1.9110   15.4260   -1.3160 C   0  0  0  0  0  0  0  0  0  0  0  0
    0.8500   14.9770   -2.3290 C   0  0  1  0  0  0  0  0  0  0  0  0
    0.7890   15.9930   -3.5000 C   0  0  0  0  0  0  0  0  0  0  0  0
    0.5680   17.4240   -3.0210 C   0  0  0  0  0  0  0  0  0  0  0  0
    1.6740   17.8550   -2.0610 C   0  0  2  0  0  0  0  0  0  0  0  0
    2.9080   17.9290   -2.7830 O   0  0  0  0  0  0  0  0  0  0  0  0
    1.8370   16.9000   -0.8460 C   0  0  0  0  0  0  0  0  0  0  0  0
    0.6190   17.0480    0.0990 C   0  0  0  0  0  0  0  0  0  0  0  0
    3.0750   17.3670   -0.0340 C   0  0  0  0  0  0  0  0  0  0  0  0
    0.9650   13.4730   -2.8310 C   0  0  1  0  0  0  0  0  0  0  0  0
    1.9360   13.3910   -4.0490 C   0  0  0  0  0  0  0  0  0  0  0  0
   -0.4430   12.9970   -3.3540 C   0  0  0  0  0  0  0  0  0  0  0  0
   -1.4010   12.3900   -2.3120 C   0  0  0  0  0  0  0  0  0  0  0  0
   -0.6940   11.3200   -1.4740 C   0  0  2  0  0  0  0  0  0  0  0  0
   -0.2640   10.1630   -2.4390 C   0  0  0  0  0  0  0  0  0  0  0  0
   -2.7930    9.5534    1.4793 H   0  0  0  0  0  0  0  0  0  0  0  0
   -4.3255    9.8134    0.5789 H   0  0  0  0  0  0  0  0  0  0  0  0
   -3.5474    8.1944    0.5789 H   0  0  0  0  0  0  0  0  0  0  0  0
   -3.2714   10.0896   -1.3963 H   0  0  0  0  0  0  0  0  0  0  0  0
   -1.0235    8.7854   -1.8983 H   0  0  0  0  0  0  0  0  0  0  0  0
   -1.6310    7.7431   -0.5249 H   0  0  0  0  0  0  0  0  0  0  0  0
   -2.7258    8.1112   -3.2959 H   0  0  0  0  0  0  0  0  0  0  0  0
   -2.5328    6.6218   -2.2795 H   0  0  0  0  0  0  0  0  0  0  0  0
   -4.1391    8.8346   -1.6004 H   0  0  0  0  0  0  0  0  0  0  0  0
   -4.8377    5.1126   -3.3364 H   0  0  0  0  0  0  0  0  0  0  0  0
   -6.0348    6.0266   -4.3153 H   0  0  0  0  0  0  0  0  0  0  0  0
   -4.3083    6.5226   -4.3153 H   0  0  0  0  0  0  0  0  0  0  0  0
   -7.0305    7.6150   -1.3248 H   0  0  0  0  0  0  0  0  0  0  0  0
   -6.8669    8.5114   -2.8728 H   0  0  0  0  0  0  0  0  0  0  0  0
   -7.4828    6.8240   -2.8728 H   0  0  0  0  0  0  0  0  0  0  0  0
   -2.1470   11.4638    0.1537 H   0  0  0  0  0  0  0  0  0  0  0  0
   -0.6347   10.3448    1.6681 H   0  0  0  0  0  0  0  0  0  0  0  0
   -0.3207    9.0350    0.5093 H   0  0  0  0  0  0  0  0  0  0  0  0
    1.4578   11.1923    1.0999 H   0  0  0  0  0  0  0  0  0  0  0  0
    1.6171   10.1364   -0.3013 H   0  0  0  0  0  0  0  0  0  0  0  0
    0.1888   12.7750    1.3314 H   0  0  0  0  0  0  0  0  0  0  0  0
    0.6711   14.0189    0.1286 H   0  0  0  0  0  0  0  0  0  0  0  0
   -1.0045   13.3715    0.1286 H   0  0  0  0  0  0  0  0  0  0  0  0
    1.8551   11.5839   -2.2280 H   0  0  0  0  0  0  0  0  0  0  0  0
    3.0163   12.5632   -0.1483 H   0  0  0  0  0  0  0  0  0  0  0  0
    3.6288   12.9323   -1.8448 H   0  0  0  0  0  0  0  0  0  0  0  0
    3.5868   14.9539   -0.1556 H   0  0  0  0  0  0  0  0  0  0  0  0
   -0.1073   14.9751   -1.7871 H   0  0  0  0  0  0  0  0  0  0  0  0
    1.7379   15.9493   -4.0547 H   0  0  0  0  0  0  0  0  0  0  0  0
   -0.0648   15.7181   -4.1367 H   0  0  0  0  0  0  0  0  0  0  0  0
    0.5631   18.0979   -3.8904 H   0  0  0  0  0  0  0  0  0  0  0  0
   -0.3950   17.4722   -2.4915 H   0  0  0  0  0  0  0  0  0  0  0  0
    1.3924   18.8369   -1.6529 H   0  0  0  0  0  0  0  0  0  0  0  0
    3.4460   17.1610   -2.5260 H   0  0  0  0  0  0  0  0  0  0  0  0
    0.9588   17.0067    1.1444 H   0  0  0  0  0  0  0  0  0  0  0  0
    0.1249   18.0128   -0.0881 H   0  0  0  0  0  0  0  0  0  0  0  0
   -0.0918   16.2296   -0.0881 H   0  0  0  0  0  0  0  0  0  0  0  0
    2.8599   17.2858    1.0417 H   0  0  0  0  0  0  0  0  0  0  0  0
    3.9382   16.7327   -0.2842 H   0  0  0  0  0  0  0  0  0  0  0  0
    3.3042   18.4134   -0.2842 H   0  0  0  0  0  0  0  0  0  0  0  0
    2.9712   13.3036   -3.6874 H   0  0  0  0  0  0  0  0  0  0  0  0
    1.6852   12.5108   -4.6593 H   0  0  0  0  0  0  0  0  0  0  0  0
    1.8364   14.3008   -4.6593 H   0  0  0  0  0  0  0  0  0  0  0  0
   -0.9447   13.8686   -3.7996 H   0  0  0  0  0  0  0  0  0  0  0  0
   -0.2277   12.1798   -4.0581 H   0  0  0  0  0  0  0  0  0  0  0  0
   -1.7612   13.1883   -1.6464 H   0  0  0  0  0  0  0  0  0  0  0  0
   -2.2431   11.9206   -2.8416 H   0  0  0  0  0  0  0  0  0  0  0  0
    0.0592    9.2935   -1.8478 H   0  0  0  0  0  0  0  0  0  0  0  0
   -1.1165    9.8787   -3.0734 H   0  0  0  0  0  0  0  0  0  0  0  0
    0.5673   10.5045   -3.0734 H   0  0  0  0  0  0  0  0  0  0  0  0
  1  2  1  0
  2  3  1  0
  3  4  1  0
  4  5  1  0
  5  6  1  0
  6  7  1  0
  7  8  1  0
  7  9  1  0
  2 10  1  0
 10 11  1  0
 11 12  1  0
 12 13  1  0
 13 14  1  1
 13 15  1  0
 15 16  1  0
 16 17  1  0
 17 18  2  0
 18 19  1  0
 19 20  1  0
 20 21  1  0
 21 22  1  0
 22 23  1  0
 22 24  1  0
 24 25  1  0
 24 26  1  0
 19 27  1  0
 27 28  1  6
 27 29  1  0
 29 30  1  0
 30 31  1  0
 31 32  1  6
  7  5  1  0
 31 10  1  0
 31 13  1  0
 27 15  1  0
 24 18  1  0
  1 33  1  0
  1 34  1  0
  1 35  1  0
  2 36  1  6
  3 37  1  0
  3 38  1  0
  4 39  1  0
  4 40  1  0
  5 41  1  1
  8 42  1  0
  8 43  1  0
  8 44  1  0
  9 45  1  0
  9 46  1  0
  9 47  1  0
 10 48  1  1
 11 49  1  0
 11 50  1  0
 12 51  1  0
 12 52  1  0
 14 53  1  0
 14 54  1  0
 14 55  1  0
 15 56  1  6
 16 57  1  0
 16 58  1  0
 17 59  1  0
 19 60  1  1
 20 61  1  0
 20 62  1  0
 21 63  1  0
 21 64  1  0
 22 65  1  1
 23 66  1  0
 25 67  1  0
 25 68  1  0
 25 69  1  0
 26 70  1  0
 26 71  1  0
 26 72  1  0
 28 73  1  0
 28 74  1  0
 28 75  1  0
 29 76  1  0
 29 77  1  0
 30 78  1  0
 30 79  1  0
 32 80  1  0
 32 81  1  0
 32 82  1  0
M  END
>  <meeko>  (5) 
{"is_sidechain": [false], "intermolecular_energy": 2.731, "internal_energy": -0.839}

$$$$
EPH_relaxed_0001_pdb2pqr_Repair_383_r2_0001_out
     RDKit          3D

 82 86  0  0  0  0  0  0  0  0999 V2000
    3.9140   17.5530    0.2390 C   0  0  0  0  0  0  0  0  0  0  0  0
    2.7670   17.9440   -0.6970 C   0  0  2  0  0  0  0  0  0  0  0  0
    2.1420   19.3000   -0.3150 C   0  0  0  0  0  0  0  0  0  0  0  0
    1.0320   19.1930    0.7340 C   0  0  0  0  0  0  0  0  0  0  0  0
   -0.1870   19.9680    0.3340 C   0  0  2  0  0  0  0  0  0  0  0  0
   -1.1280   20.1930    1.3920 O   0  0  0  0  0  0  0  0  0  0  0  0
   -1.5830   19.3750    0.3020 C   0  0  0  0  0  0  0  0  0  0  0  0
   -1.8330   17.9470    0.6770 C   0  0  0  0  0  0  0  0  0  0  0  0
   -2.6210   20.0320   -0.5530 C   0  0  0  0  0  0  0  0  0  0  0  0
    1.6980   16.8570   -0.6900 C   0  0  1  0  0  0  0  0  0  0  0  0
    0.3300   17.3620   -1.2220 C   0  0  0  0  0  0  0  0  0  0  0  0
   -0.3200   16.1760   -1.9800 C   0  0  0  0  0  0  0  0  0  0  0  0
    0.5280   14.9460   -1.5820 C   0  0  1  0  0  0  0  0  0  0  0  0
   -0.0190   14.5160   -0.1850 C   0  0  0  0  0  0  0  0  0  0  0  0
    0.5320   13.7530   -2.5930 C   0  0  2  0  0  0  0  0  0  0  0  0
   -0.8380   13.0940   -2.8290 C   0  0  0  0  0  0  0  0  0  0  0  0
   -1.1630   11.9560   -1.9190 C   0  0  0  0  0  0  0  0  0  0  0  0
   -0.2810   11.2980   -1.1440 C   0  0  0  0  0  0  0  0  0  0  0  0
    1.2170   11.6200   -1.2070 C   0  0  1  0  0  0  0  0  0  0  0  0
    2.0280   10.3000   -1.2870 C   0  0  0  0  0  0  0  0  0  0  0  0
    1.6860    9.3340   -0.1560 C   0  0  0  0  0  0  0  0  0  0  0  0
    0.1990    8.9920   -0.1620 C   0  0  2  0  0  0  0  0  0  0  0  0
   -0.0970    8.2420   -1.3440 O   0  0  0  0  0  0  0  0  0  0  0  0
   -0.7180   10.2450   -0.0950 C   0  0  0  0  0  0  0  0  0  0  0  0
   -0.6180   10.8890    1.3100 C   0  0  0  0  0  0  0  0  0  0  0  0
   -2.1880    9.7700   -0.2510 C   0  0  0  0  0  0  0  0  0  0  0  0
    1.6540   12.6720   -2.3160 C   0  0  1  0  0  0  0  0  0  0  0  0
    1.9140   11.9430   -3.6690 C   0  0  0  0  0  0  0  0  0  0  0  0
    3.0230   13.3250   -1.8940 C   0  0  0  0  0  0  0  0  0  0  0  0
    2.9490   14.5720   -0.9920 C   0  0  0  0  0  0  0  0  0  0  0  0
    1.9590   15.5970   -1.5530 C   0  0  2  0  0  0  0  0  0  0  0  0
    2.4950   16.0650   -2.9490 C   0  0  0  0  0  0  0  0  0  0  0  0
    3.5886   17.6639    1.2839 H   0  0  0  0  0  0  0  0  0  0  0  0
    4.1989   16.5070    0.0528 H   0  0  0  0  0  0  0  0  0  0  0  0
    4.7785   18.2072    0.0528 H   0  0  0  0  0  0  0  0  0  0  0  0
    3.1859   18.0477   -1.7088 H   0  0  0  0  0  0  0  0  0  0  0  0
    2.9360   19.9480    0.0846 H   0  0  0  0  0  0  0  0  0  0  0  0
    1.6838   19.7107   -1.2268 H   0  0  0  0  0  0  0  0  0  0  0  0
    0.7574   18.1348    0.8554 H   0  0  0  0  0  0  0  0  0  0  0  0
    1.4107   19.6134    1.6773 H   0  0  0  0  0  0  0  0  0  0  0  0
    0.3904   20.5361   -0.4102 H   0  0  0  0  0  0  0  0  0  0  0  0
   -1.8494   17.8532    1.7729 H   0  0  0  0  0  0  0  0  0  0  0  0
   -2.8013   17.6243    0.2668 H   0  0  0  0  0  0  0  0  0  0  0  0
   -1.0319   17.3145    0.2668 H   0  0  0  0  0  0  0  0  0  0  0  0
   -3.3759   20.5098    0.0888 H   0  0  0  0  0  0  0  0  0  0  0  0
   -2.1447   20.7934   -1.1881 H   0  0  0  0  0  0  0  0  0  0  0  0
   -3.1053   19.2756   -1.1881 H   0  0  0  0  0  0  0  0  0  0  0  0
    1.7118   16.5914    0.3774 H   0  0  0  0  0  0  0  0  0  0  0  0
   -0.3110   17.6730   -0.3839 H   0  0  0  0  0  0  0  0  0  0  0  0
    0.4598   18.2307   -1.8842 H   0  0  0  0  0  0  0  0  0  0  0  0
   -1.3666   16.0431   -1.6686 H   0  0  0  0  0  0  0  0  0  0  0  0
   -0.3372   16.3360   -3.0682 H   0  0  0  0  0  0  0  0  0  0  0  0
    0.5823   14.9887    0.6056 H   0  0  0  0  0  0  0  0  0  0  0  0
   -1.0675   14.8342   -0.0880 H   0  0  0  0  0  0  0  0  0  0  0  0
    0.0426   13.4220   -0.0880 H   0  0  0  0  0  0  0  0  0  0  0  0
    0.7930   14.2473   -3.5404 H   0  0  0  0  0  0  0  0  0  0  0  0
   -1.6126   13.8643   -2.7000 H   0  0  0  0  0  0  0  0  0  0  0  0
   -0.8019   12.6715   -3.8440 H   0  0  0  0  0  0  0  0  0  0  0  0
   -2.2120   11.6275   -1.8785 H   0  0  0  0  0  0  0  0  0  0  0  0
    1.4538   12.1475   -0.2713 H   0  0  0  0  0  0  0  0  0  0  0  0
    1.8102    9.8099   -2.2474 H   0  0  0  0  0  0  0  0  0  0  0  0
    3.0938   10.5567   -1.1963 H   0  0  0  0  0  0  0  0  0  0  0  0
    2.2685    8.4097   -0.2835 H   0  0  0  0  0  0  0  0  0  0  0  0
    1.9319    9.8144    0.8025 H   0  0  0  0  0  0  0  0  0  0  0  0
   -0.0076    8.4033    0.7440 H   0  0  0  0  0  0  0  0  0  0  0  0
   -0.3030    7.3320   -1.0710 H   0  0  0  0  0  0  0  0  0  0  0  0
   -0.7387   10.1118    2.0790 H   0  0  0  0  0  0  0  0  0  0  0  0
    0.3654   11.3685    1.4244 H   0  0  0  0  0  0  0  0  0  0  0  0
   -1.4097   11.6441    1.4244 H   0  0  0  0  0  0  0  0  0  0  0  0
   -2.6343    9.6258    0.7440 H   0  0  0  0  0  0  0  0  0  0  0  0
   -2.7617   10.5285   -0.8038 H   0  0  0  0  0  0  0  0  0  0  0  0
   -2.2094    8.8192   -0.8038 H   0  0  0  0  0  0  0  0  0  0  0  0
    2.2776   10.9236   -3.4723 H   0  0  0  0  0  0  0  0  0  0  0  0
    0.9780   11.8937   -4.2448 H   0  0  0  0  0  0  0  0  0  0  0  0
    2.6699   12.4972   -4.2448 H   0  0  0  0  0  0  0  0  0  0  0  0
    3.6051   12.5608   -1.3582 H   0  0  0  0  0  0  0  0  0  0  0  0
    3.4764   13.6754   -2.8330 H   0  0  0  0  0  0  0  0  0  0  0  0
    2.6223   14.2695    0.0139 H   0  0  0  0  0  0  0  0  0  0  0  0
    3.9463   15.0342   -0.9505 H   0  0  0  0  0  0  0  0  0  0  0  0
    3.3164   16.7822   -2.8047 H   0  0  0  0  0  0  0  0  0  0  0  0
    2.8631   15.1941   -3.5112 H   0  0  0  0  0  0  0  0  0  0  0  0
    1.6817   16.5472   -3.5112 H   0  0  0  0  0  0  0  0  0  0  0  0
  1  2  1  0
  2  3  1  0
  3  4  1  0
  4  5  1  0
  5  6  1  0
  6  7  1  0
  7  8  1  0
  7  9  1  0
  2 10  1  0
 10 11  1  0
 11 12  1  0
 12 13  1  0
 13 14  1  1
 13 15  1  0
 15 16  1  0
 16 17  1  0
 17 18  2  0
 18 19  1  0
 19 20  1  0
 20 21  1  0
 21 22  1  0
 22 23  1  0
 22 24  1  0
 24 25  1  0
 24 26  1  0
 19 27  1  0
 27 28  1  6
 27 29  1  0
 29 30  1  0
 30 31  1  0
 31 32  1  6
  7  5  1  0
 31 10  1  0
 31 13  1  0
 27 15  1  0
 24 18  1  0
  1 33  1  0
  1 34  1  0
  1 35  1  0
  2 36  1  6
  3 37  1  0
  3 38  1  0
  4 39  1  0
  4 40  1  0
  5 41  1  6
  8 42  1  0
  8 43  1  0
  8 44  1  0
  9 45  1  0
  9 46  1  0
  9 47  1  0
 10 48  1  1
 11 49  1  0
 11 50  1  0
 12 51  1  0
 12 52  1  0
 14 53  1  0
 14 54  1  0
 14 55  1  0
 15 56  1  6
 16 57  1  0
 16 58  1  0
 17 59  1  0
 19 60  1  1
 20 61  1  0
 20 62  1  0
 21 63  1  0
 21 64  1  0
 22 65  1  1
 23 66  1  0
 25 67  1  0
 25 68  1  0
 25 69  1  0
 26 70  1  0
 26 71  1  0
 26 72  1  0
 28 73  1  0
 28 74  1  0
 28 75  1  0
 29 76  1  0
 29 77  1  0
 30 78  1  0
 30 79  1  0
 32 80  1  0
 32 81  1  0
 32 82  1  0
M  END
>  <meeko>  (6) 
{"is_sidechain": [false], "intermolecular_energy": 2.731, "internal_energy": -0.839}

$$$$
EPH_relaxed_0001_pdb2pqr_Repair_383_r2_0001_out
     RDKit          3D

 82 86  0  0  0  0  0  0  0  0999 V2000
   -4.9500    6.2730   -1.8920 C   0  0  0  0  0  0  0  0  0  0  0  0
   -5.3960    7.7370   -1.8360 C   0  0  2  0  0  0  0  0  0  0  0  0
   -5.2350    8.3400   -0.4270 C   0  0  0  0  0  0  0  0  0  0  0  0
   -4.1010    9.3640   -0.3200 C   0  0  0  0  0  0  0  0  0  0  0  0
   -2.7840    8.7750   -0.7250 C   0  0  2  0  0  0  0  0  0  0  0  0
   -1.7010    9.0560    0.1720 O   0  0  0  0  0  0  0  0  0  0  0  0
   -1.5900    9.6100   -1.1490 C   0  0  0  0  0  0  0  0  0  0  0  0
   -1.6570   11.1050   -1.1900 C   0  0  0  0  0  0  0  0  0  0  0  0
   -0.5270    8.9670   -1.9850 C   0  0  0  0  0  0  0  0  0  0  0  0
   -6.8450    7.8570   -2.2920 C   0  0  1  0  0  0  0  0  0  0  0  0
   -7.1230    7.0830   -3.6080 C   0  0  0  0  0  0  0  0  0  0  0  0
   -8.5670    6.5270   -3.5040 C   0  0  0  0  0  0  0  0  0  0  0  0
   -9.1840    7.2690   -2.2950 C   0  0  1  0  0  0  0  0  0  0  0  0
   -9.6240    8.6560   -2.8580 C   0  0  0  0  0  0  0  0  0  0  0  0
  -10.3600    6.5420   -1.5650 C   0  0  2  0  0  0  0  0  0  0  0  0
  -11.6130    6.3020   -2.4260 C   0  0  0  0  0  0  0  0  0  0  0  0
  -12.6330    7.3920   -2.3850 C   0  0  0  0  0  0  0  0  0  0  0  0
  -12.6840    8.3820   -1.4750 C   0  0  0  0  0  0  0  0  0  0  0  0
  -11.7050    8.4170   -0.2940 C   0  0  1  0  0  0  0  0  0  0  0  0
  -12.4840    8.7100    1.0150 C   0  0  0  0  0  0  0  0  0  0  0  0
  -13.3310    9.9750    0.9220 C   0  0  0  0  0  0  0  0  0  0  0  0
  -14.3310    9.8780   -0.2280 C   0  0  2  0  0  0  0  0  0  0  0  0
  -15.2860    8.8580    0.0780 O   0  0  0  0  0  0  0  0  0  0  0  0
  -13.6620    9.5760   -1.5980 C   0  0  0  0  0  0  0  0  0  0  0  0
  -12.8610   10.8140   -2.0710 C   0  0  0  0  0  0  0  0  0  0  0  0
  -14.7900    9.3630   -2.6430 C   0  0  0  0  0  0  0  0  0  0  0  0
  -10.7350    7.1650   -0.1600 C   0  0  1  0  0  0  0  0  0  0  0  0
  -11.4340    6.0350    0.6560 C   0  0  0  0  0  0  0  0  0  0  0  0
   -9.4630    7.5870    0.6660 C   0  0  0  0  0  0  0  0  0  0  0  0
   -8.2870    8.1890   -0.1270 C   0  0  0  0  0  0  0  0  0  0  0  0
   -7.9380    7.3160   -1.3370 C   0  0  2  0  0  0  0  0  0  0  0  0
   -7.4700    5.9200   -0.8010 C   0  0  0  0  0  0  0  0  0  0  0  0
   -4.8322    5.8862   -0.8690 H   0  0  0  0  0  0  0  0  0  0  0  0
   -5.7079    5.6789   -2.4236 H   0  0  0  0  0  0  0  0  0  0  0  0
   -3.9896    6.2024   -2.4236 H   0  0  0  0  0  0  0  0  0  0  0  0
   -4.7446    8.3071   -2.5147 H   0  0  0  0  0  0  0  0  0  0  0  0
   -6.1775    8.8360   -0.1520 H   0  0  0  0  0  0  0  0  0  0  0  0
   -4.9833    7.5105    0.2502 H   0  0  0  0  0  0  0  0  0  0  0  0
   -4.3274   10.2169   -0.9768 H   0  0  0  0  0  0  0  0  0  0  0  0
   -4.0256    9.6846    0.7295 H   0  0  0  0  0  0  0  0  0  0  0  0
   -3.2853    7.9138   -1.1909 H   0  0  0  0  0  0  0  0  0  0  0  0
   -1.6747   11.4995   -0.1633 H   0  0  0  0  0  0  0  0  0  0  0  0
   -0.7755   11.4972   -1.7184 H   0  0  0  0  0  0  0  0  0  0  0  0
   -2.5700   11.4168   -1.7184 H   0  0  0  0  0  0  0  0  0  0  0  0
    0.2287    8.5099   -1.3293 H   0  0  0  0  0  0  0  0  0  0  0  0
   -0.9793    8.1909   -2.6199 H   0  0  0  0  0  0  0  0  0  0  0  0
   -0.0496    9.7279   -2.6199 H   0  0  0  0  0  0  0  0  0  0  0  0
   -6.9231    8.9513   -2.3720 H   0  0  0  0  0  0  0  0  0  0  0  0
   -7.0392    7.7603   -4.4707 H   0  0  0  0  0  0  0  0  0  0  0  0
   -6.3959    6.2696   -3.7488 H   0  0  0  0  0  0  0  0  0  0  0  0
   -9.1332    6.7424   -4.4222 H   0  0  0  0  0  0  0  0  0  0  0  0
   -8.5855    5.4345   -3.3770 H   0  0  0  0  0  0  0  0  0  0  0  0
   -9.8406    9.3387   -2.0231 H   0  0  0  0  0  0  0  0  0  0  0  0
   -8.8147    9.0752   -3.4739 H   0  0  0  0  0  0  0  0  0  0  0  0
  -10.5269    8.5320   -3.4739 H   0  0  0  0  0  0  0  0  0  0  0  0
   -9.9363    5.5459   -1.3691 H   0  0  0  0  0  0  0  0  0  0  0  0
  -11.2895    6.1782   -3.4700 H   0  0  0  0  0  0  0  0  0  0  0  0
  -12.1033    5.4103   -2.0083 H   0  0  0  0  0  0  0  0  0  0  0  0
  -13.4086    7.3850   -3.1650 H   0  0  0  0  0  0  0  0  0  0  0  0
  -11.0044    9.2388   -0.5035 H   0  0  0  0  0  0  0  0  0  0  0  0
  -13.1456    7.8578    1.2296 H   0  0  0  0  0  0  0  0  0  0  0  0
  -11.7453    8.8614    1.8159 H   0  0  0  0  0  0  0  0  0  0  0  0
  -13.8795   10.1113    1.8657 H   0  0  0  0  0  0  0  0  0  0  0  0
  -12.6652   10.8309    0.7375 H   0  0  0  0  0  0  0  0  0  0  0  0
  -14.8169   10.8598   -0.3275 H   0  0  0  0  0  0  0  0  0  0  0  0
  -14.7930    8.0640    0.3450 H   0  0  0  0  0  0  0  0  0  0  0  0
  -12.4993   11.3731   -1.1955 H   0  0  0  0  0  0  0  0  0  0  0  0
  -12.0033   10.4863   -2.6768 H   0  0  0  0  0  0  0  0  0  0  0  0
  -13.5114   11.4620   -2.6768 H   0  0  0  0  0  0  0  0  0  0  0  0
  -15.7425    9.1831   -2.1229 H   0  0  0  0  0  0  0  0  0  0  0  0
  -14.8801   10.2600   -3.2733 H   0  0  0  0  0  0  0  0  0  0  0  0
  -14.5468    8.4949   -3.2733 H   0  0  0  0  0  0  0  0  0  0  0  0
  -11.3129    6.2308    1.7316 H   0  0  0  0  0  0  0  0  0  0  0  0
  -12.5049    6.0110    0.4060 H   0  0  0  0  0  0  0  0  0  0  0  0
  -10.9773    5.0660    0.4060 H   0  0  0  0  0  0  0  0  0  0  0  0
   -9.7810    8.3342    1.4079 H   0  0  0  0  0  0  0  0  0  0  0  0
   -9.0732    6.6507    1.0919 H   0  0  0  0  0  0  0  0  0  0  0  0
   -8.5657    9.1940   -0.4767 H   0  0  0  0  0  0  0  0  0  0  0  0
   -7.4087    8.2411    0.5332 H   0  0  0  0  0  0  0  0  0  0  0  0
   -7.4733    5.9297    0.2990 H   0  0  0  0  0  0  0  0  0  0  0  0
   -8.1557    5.1397   -1.1628 H   0  0  0  0  0  0  0  0  0  0  0  0
   -6.4525    5.7106   -1.1628 H   0  0  0  0  0  0  0  0  0  0  0  0
  1  2  1  0
  2  3  1  0
  3  4  1  0
  4  5  1  0
  5  6  1  0
  6  7  1  0
  7  8  1  0
  7  9  1  0
  2 10  1  0
 10 11  1  0
 11 12  1  0
 12 13  1  0
 13 14  1  6
 13 15  1  0
 15 16  1  0
 16 17  1  0
 17 18  2  0
 18 19  1  0
 19 20  1  0
 20 21  1  0
 21 22  1  0
 22 23  1  0
 22 24  1  0
 24 25  1  0
 24 26  1  0
 19 27  1  0
 27 28  1  1
 27 29  1  0
 29 30  1  0
 30 31  1  0
 31 32  1  1
  7  5  1  0
 31 10  1  0
 31 13  1  0
 27 15  1  0
 24 18  1  0
  1 33  1  0
  1 34  1  0
  1 35  1  0
  2 36  1  6
  3 37  1  0
  3 38  1  0
  4 39  1  0
  4 40  1  0
  5 41  1  6
  8 42  1  0
  8 43  1  0
  8 44  1  0
  9 45  1  0
  9 46  1  0
  9 47  1  0
 10 48  1  6
 11 49  1  0
 11 50  1  0
 12 51  1  0
 12 52  1  0
 14 53  1  0
 14 54  1  0
 14 55  1  0
 15 56  1  1
 16 57  1  0
 16 58  1  0
 17 59  1  0
 19 60  1  6
 20 61  1  0
 20 62  1  0
 21 63  1  0
 21 64  1  0
 22 65  1  6
 23 66  1  0
 25 67  1  0
 25 68  1  0
 25 69  1  0
 26 70  1  0
 26 71  1  0
 26 72  1  0
 28 73  1  0
 28 74  1  0
 28 75  1  0
 29 76  1  0
 29 77  1  0
 30 78  1  0
 30 79  1  0
 32 80  1  0
 32 81  1  0
 32 82  1  0
M  END
>  <meeko>  (7) 
{"is_sidechain": [false], "intermolecular_energy": 2.731, "internal_energy": -0.839}

$$$$
EPH_relaxed_0001_pdb2pqr_Repair_383_r2_0001_out
     RDKit          3D

 82 86  0  0  0  0  0  0  0  0999 V2000
    0.4390    8.7950   -2.3790 C   0  0  0  0  0  0  0  0  0  0  0  0
    1.1800    9.9380   -3.0780 C   0  0  2  0  0  0  0  0  0  0  0  0
    2.6800    9.9600   -2.7260 C   0  0  0  0  0  0  0  0  0  0  0  0
    3.5600   10.5770   -3.8160 C   0  0  0  0  0  0  0  0  0  0  0  0
    4.9570   10.8180   -3.3310 C   0  0  2  0  0  0  0  0  0  0  0  0
    5.5570   12.0290   -3.8120 O   0  0  0  0  0  0  0  0  0  0  0  0
    6.1730   10.8030   -4.2390 C   0  0  0  0  0  0  0  0  0  0  0  0
    6.0470   10.5380   -5.7070 C   0  0  0  0  0  0  0  0  0  0  0  0
    7.5180   10.5590   -3.6300 C   0  0  0  0  0  0  0  0  0  0  0  0
    0.5390   11.2720   -2.7120 C   0  0  1  0  0  0  0  0  0  0  0  0
   -0.8420   11.1030   -2.0240 C   0  0  0  0  0  0  0  0  0  0  0  0
   -0.9630   12.2410   -0.9790 C   0  0  0  0  0  0  0  0  0  0  0  0
    0.1900   13.2130   -1.3250 C   0  0  1  0  0  0  0  0  0  0  0  0
   -0.3530   14.0730   -2.5090 C   0  0  0  0  0  0  0  0  0  0  0  0
    0.7140   14.1080   -0.1550 C   0  0  2  0  0  0  0  0  0  0  0  0
   -0.3190   15.0840    0.4340 C   0  0  0  0  0  0  0  0  0  0  0  0
   -0.3590   16.4330   -0.2060 C   0  0  0  0  0  0  0  0  0  0  0  0
    0.5880   16.9420   -1.0160 C   0  0  0  0  0  0  0  0  0  0  0  0
    1.8900   16.1770   -1.2840 C   0  0  1  0  0  0  0  0  0  0  0  0
    3.0960   17.1430   -1.1460 C   0  0  0  0  0  0  0  0  0  0  0  0
    2.9570   18.3830   -2.0240 C   0  0  0  0  0  0  0  0  0  0  0  0
    1.6790   19.1480   -1.6880 C   0  0  2  0  0  0  0  0  0  0  0  0
    1.7980   19.6850   -0.3670 O   0  0  0  0  0  0  0  0  0  0  0  0
    0.3980   18.2740   -1.7830 C   0  0  0  0  0  0  0  0  0  0  0  0
    0.1040   17.9420   -3.2670 C   0  0  0  0  0  0  0  0  0  0  0  0
   -0.8000   19.1260   -1.2830 C   0  0  0  0  0  0  0  0  0  0  0  0
    2.0870   14.8330   -0.4590 C   0  0  1  0  0  0  0  0  0  0  0  0
    2.7400   15.1470    0.9220 C   0  0  0  0  0  0  0  0  0  0  0  0
    3.0990   13.9020   -1.2260 C   0  0  0  0  0  0  0  0  0  0  0  0
    2.5040   12.9550   -2.2860 C   0  0  0  0  0  0  0  0  0  0  0  0
    1.3080   12.1820   -1.7220 C   0  0  2  0  0  0  0  0  0  0  0  0
    1.8280   11.2910   -0.5430 C   0  0  0  0  0  0  0  0  0  0  0  0
    0.5191    8.9186   -1.2889 H   0  0  0  0  0  0  0  0  0  0  0  0
   -0.6209    8.8112   -2.6729 H   0  0  0  0  0  0  0  0  0  0  0  0
    0.8864    7.8340   -2.6729 H   0  0  0  0  0  0  0  0  0  0  0  0
    1.0991    9.7707   -4.1622 H   0  0  0  0  0  0  0  0  0  0  0  0
    2.8113   10.5431   -1.8025 H   0  0  0  0  0  0  0  0  0  0  0  0
    2.9981    8.9133   -2.6109 H   0  0  0  0  0  0  0  0  0  0  0  0
    3.5946    9.8922   -4.6762 H   0  0  0  0  0  0  0  0  0  0  0  0
    3.1241   11.5461   -4.1004 H   0  0  0  0  0  0  0  0  0  0  0  0
    4.7399   10.3088   -2.3804 H   0  0  0  0  0  0  0  0  0  0  0  0
    5.5794    9.5547   -5.8633 H   0  0  0  0  0  0  0  0  0  0  0  0
    5.4234   11.3180   -6.1682 H   0  0  0  0  0  0  0  0  0  0  0  0
    7.0456   10.5466   -6.1682 H   0  0  0  0  0  0  0  0  0  0  0  0
    7.4323   10.5746   -2.5335 H   0  0  0  0  0  0  0  0  0  0  0  0
    7.8949    9.5778   -3.9544 H   0  0  0  0  0  0  0  0  0  0  0  0
    8.2155   11.3453   -3.9544 H   0  0  0  0  0  0  0  0  0  0  0  0
    0.5070   11.7402   -3.7069 H   0  0  0  0  0  0  0  0  0  0  0  0
   -1.6483   11.1844   -2.7678 H   0  0  0  0  0  0  0  0  0  0  0  0
   -0.9266   10.1163   -1.5451 H   0  0  0  0  0  0  0  0  0  0  0  0
   -1.9362   12.7463   -1.0661 H   0  0  0  0  0  0  0  0  0  0  0  0
   -0.8981   11.8676    0.0537 H   0  0  0  0  0  0  0  0  0  0  0  0
   -0.9006   14.9402   -2.1114 H   0  0  0  0  0  0  0  0  0  0  0  0
    0.4889   14.4219   -3.1250 H   0  0  0  0  0  0  0  0  0  0  0  0
   -1.0300   13.4629   -3.1250 H   0  0  0  0  0  0  0  0  0  0  0  0
    0.9110   13.3697    0.6363 H   0  0  0  0  0  0  0  0  0  0  0  0
   -1.3149   14.6286    0.3298 H   0  0  0  0  0  0  0  0  0  0  0  0
   -0.0184   15.2515    1.4788 H   0  0  0  0  0  0  0  0  0  0  0  0
   -1.2360   17.0635    0.0021 H   0  0  0  0  0  0  0  0  0  0  0  0
    1.8207   15.8122   -2.3194 H   0  0  0  0  0  0  0  0  0  0  0  0
    3.1741   17.4615   -0.0960 H   0  0  0  0  0  0  0  0  0  0  0  0
    3.9960   16.6018   -1.4733 H   0  0  0  0  0  0  0  0  0  0  0  0
    3.8238   19.0399   -1.8593 H   0  0  0  0  0  0  0  0  0  0  0  0
    2.9101   18.0653   -3.0761 H   0  0  0  0  0  0  0  0  0  0  0  0
    1.5678   19.9483   -2.4344 H   0  0  0  0  0  0  0  0  0  0  0  0
    1.2210   19.1630    0.2160 H   0  0  0  0  0  0  0  0  0  0  0  0
   -0.6244   17.1195   -3.3214 H   0  0  0  0  0  0  0  0  0  0  0  0
   -0.3086   18.8308   -3.7668 H   0  0  0  0  0  0  0  0  0  0  0  0
    1.0362   17.6399   -3.7668 H   0  0  0  0  0  0  0  0  0  0  0  0
   -0.8107   19.1336   -0.1831 H   0  0  0  0  0  0  0  0  0  0  0  0
   -0.6984   20.1559   -1.6559 H   0  0  0  0  0  0  0  0  0  0  0  0
   -1.7395   18.6920   -1.6559 H   0  0  0  0  0  0  0  0  0  0  0  0
    2.0659   14.8228    1.7285 H   0  0  0  0  0  0  0  0  0  0  0  0
    3.6966   14.6104    1.0058 H   0  0  0  0  0  0  0  0  0  0  0  0
    2.9181   16.2292    1.0058 H   0  0  0  0  0  0  0  0  0  0  0  0
    3.8302   14.5500   -1.7314 H   0  0  0  0  0  0  0  0  0  0  0  0
    3.5239   13.2417   -0.4556 H   0  0  0  0  0  0  0  0  0  0  0  0
    2.1736   13.5469   -3.1523 H   0  0  0  0  0  0  0  0  0  0  0  0
    3.2783   12.2332   -2.5852 H   0  0  0  0  0  0  0  0  0  0  0  0
    1.5563   11.7566    0.4159 H   0  0  0  0  0  0  0  0  0  0  0  0
    1.3707   10.2927   -0.6085 H   0  0  0  0  0  0  0  0  0  0  0  0
    2.9221   11.1981   -0.6085 H   0  0  0  0  0  0  0  0  0  0  0  0
  1  2  1  0
  2  3  1  0
  3  4  1  0
  4  5  1  0
  5  6  1  0
  6  7  1  0
  7  8  1  0
  7  9  1  0
  2 10  1  0
 10 11  1  0
 11 12  1  0
 12 13  1  0
 13 14  1  6
 13 15  1  0
 15 16  1  0
 16 17  1  0
 17 18  2  0
 18 19  1  0
 19 20  1  0
 20 21  1  0
 21 22  1  0
 22 23  1  0
 22 24  1  0
 24 25  1  0
 24 26  1  0
 19 27  1  0
 27 28  1  1
 27 29  1  0
 29 30  1  0
 30 31  1  0
 31 32  1  1
  7  5  1  0
 31 10  1  0
 31 13  1  0
 27 15  1  0
 24 18  1  0
  1 33  1  0
  1 34  1  0
  1 35  1  0
  2 36  1  6
  3 37  1  0
  3 38  1  0
  4 39  1  0
  4 40  1  0
  5 41  1  1
  8 42  1  0
  8 43  1  0
  8 44  1  0
  9 45  1  0
  9 46  1  0
  9 47  1  0
 10 48  1  6
 11 49  1  0
 11 50  1  0
 12 51  1  0
 12 52  1  0
 14 53  1  0
 14 54  1  0
 14 55  1  0
 15 56  1  1
 16 57  1  0
 16 58  1  0
 17 59  1  0
 19 60  1  6
 20 61  1  0
 20 62  1  0
 21 63  1  0
 21 64  1  0
 22 65  1  6
 23 66  1  0
 25 67  1  0
 25 68  1  0
 25 69  1  0
 26 70  1  0
 26 71  1  0
 26 72  1  0
 28 73  1  0
 28 74  1  0
 28 75  1  0
 29 76  1  0
 29 77  1  0
 30 78  1  0
 30 79  1  0
 32 80  1  0
 32 81  1  0
 32 82  1  0
M  END
>  <meeko>  (8) 
{"is_sidechain": [false], "intermolecular_energy": 2.731, "internal_energy": -0.839}

$$$$
EPH_relaxed_0001_pdb2pqr_Repair_383_r2_0001_out
     RDKit          3D

 82 86  0  0  0  0  0  0  0  0999 V2000
    0.4180   10.7900   -4.3150 C   0  0  0  0  0  0  0  0  0  0  0  0
    1.0590   10.3540   -2.9940 C   0  0  2  0  0  0  0  0  0  0  0  0
    0.3260    9.1560   -2.3590 C   0  0  0  0  0  0  0  0  0  0  0  0
    0.0900    9.3060   -0.8540 C   0  0  0  0  0  0  0  0  0  0  0  0
   -1.2770    8.8360   -0.4580 C   0  0  2  0  0  0  0  0  0  0  0  0
   -2.2230    8.7720   -1.5340 O   0  0  0  0  0  0  0  0  0  0  0  0
   -2.5090    9.7210   -0.4940 C   0  0  0  0  0  0  0  0  0  0  0  0
   -2.4310   11.1490   -0.9350 C   0  0  0  0  0  0  0  0  0  0  0  0
   -3.6830    9.3480    0.3570 C   0  0  0  0  0  0  0  0  0  0  0  0
    1.0860   11.5250   -2.0180 C   0  0  1  0  0  0  0  0  0  0  0  0
    2.1150   11.3260   -0.8740 C   0  0  0  0  0  0  0  0  0  0  0  0
    2.6910   12.7270   -0.5430 C   0  0  0  0  0  0  0  0  0  0  0  0
    1.7480   13.7180   -1.2640 C   0  0  1  0  0  0  0  0  0  0  0  0
    0.5160   13.8610   -0.3150 C   0  0  0  0  0  0  0  0  0  0  0  0
    2.3580   15.1090   -1.6320 C   0  0  2  0  0  0  0  0  0  0  0  0
    2.8090   15.9620   -0.4330 C   0  0  0  0  0  0  0  0  0  0  0  0
    1.7710   16.8790    0.1240 C   0  0  0  0  0  0  0  0  0  0  0  0
    0.6220   17.2240   -0.4870 C   0  0  0  0  0  0  0  0  0  0  0  0
    0.3180   16.7520   -1.9150 C   0  0  1  0  0  0  0  0  0  0  0  0
   -0.2010   17.9490   -2.7560 C   0  0  0  0  0  0  0  0  0  0  0  0
   -1.3910   18.6480   -2.1060 C   0  0  0  0  0  0  0  0  0  0  0  0
   -1.0310   19.1530   -0.7110 C   0  0  2  0  0  0  0  0  0  0  0  0
   -0.0570   20.1940   -0.8340 O   0  0  0  0  0  0  0  0  0  0  0  0
   -0.4870   18.0370    0.2240 C   0  0  0  0  0  0  0  0  0  0  0  0
   -1.6350   17.0680    0.6000 C   0  0  0  0  0  0  0  0  0  0  0  0
   -0.0300   18.7040    1.5490 C   0  0  0  0  0  0  0  0  0  0  0  0
    1.4820   15.9530   -2.6440 C   0  0  1  0  0  0  0  0  0  0  0  0
    2.4520   16.9500   -3.3480 C   0  0  0  0  0  0  0  0  0  0  0  0
    0.8590   15.0620   -3.7830 C   0  0  0  0  0  0  0  0  0  0  0  0
    0.3840   13.6530   -3.3810 C   0  0  0  0  0  0  0  0  0  0  0  0
    1.4660   12.9160   -2.5860 C   0  0  2  0  0  0  0  0  0  0  0  0
    2.7090   12.7370   -3.5220 C   0  0  0  0  0  0  0  0  0  0  0  0
   -0.4750   11.3974   -4.1063 H   0  0  0  0  0  0  0  0  0  0  0  0
    1.1395   11.3855   -4.8937 H   0  0  0  0  0  0  0  0  0  0  0  0
    0.1292    9.9002   -4.8937 H   0  0  0  0  0  0  0  0  0  0  0  0
    2.0867   10.0310   -3.2164 H   0  0  0  0  0  0  0  0  0  0  0  0
   -0.6499    9.0440   -2.8540 H   0  0  0  0  0  0  0  0  0  0  0  0
    0.9703    8.2752   -2.4970 H   0  0  0  0  0  0  0  0  0  0  0  0
    0.8417    8.7114   -0.3142 H   0  0  0  0  0  0  0  0  0  0  0  0
    0.1735   10.3726   -0.5983 H   0  0  0  0  0  0  0  0  0  0  0  0
   -0.8540    8.1917    0.3269 H   0  0  0  0  0  0  0  0  0  0  0  0
   -2.3952   11.8040   -0.0520 H   0  0  0  0  0  0  0  0  0  0  0  0
   -1.5234   11.2973   -1.5386 H   0  0  0  0  0  0  0  0  0  0  0  0
   -3.3170   11.3953   -1.5386 H   0  0  0  0  0  0  0  0  0  0  0  0
   -3.4087    9.4351    1.4187 H   0  0  0  0  0  0  0  0  0  0  0  0
   -4.5234   10.0234    0.1388 H   0  0  0  0  0  0  0  0  0  0  0  0
   -3.9795    8.3114    0.1388 H   0  0  0  0  0  0  0  0  0  0  0  0
    0.0331   11.5236   -1.6997 H   0  0  0  0  0  0  0  0  0  0  0  0
    1.6197   10.9010    0.0115 H   0  0  0  0  0  0  0  0  0  0  0  0
    2.9130   10.6318   -1.1763 H   0  0  0  0  0  0  0  0  0  0  0  0
    2.6828   12.9034    0.5427 H   0  0  0  0  0  0  0  0  0  0  0  0
    3.7364   12.8352   -0.8679 H   0  0  0  0  0  0  0  0  0  0  0  0
    0.8528   13.8219    0.7315 H   0  0  0  0  0  0  0  0  0  0  0  0
    0.0173   14.8231   -0.5040 H   0  0  0  0  0  0  0  0  0  0  0  0
   -0.1898   13.0388   -0.5040 H   0  0  0  0  0  0  0  0  0  0  0  0
    3.2798   14.8292   -2.1631 H   0  0  0  0  0  0  0  0  0  0  0  0
    3.1256   15.2796    0.3696 H   0  0  0  0  0  0  0  0  0  0  0  0
    3.6170   16.6083   -0.8063 H   0  0  0  0  0  0  0  0  0  0  0  0
    1.9611   17.3094    1.1183 H   0  0  0  0  0  0  0  0  0  0  0  0
   -0.4704   15.9906   -1.8225 H   0  0  0  0  0  0  0  0  0  0  0  0
    0.6148   18.6775   -2.8735 H   0  0  0  0  0  0  0  0  0  0  0  0
   -0.5348   17.5550   -3.7273 H   0  0  0  0  0  0  0  0  0  0  0  0
   -1.6929   19.5013   -2.7311 H   0  0  0  0  0  0  0  0  0  0  0  0
   -2.2163   17.9263   -2.0163 H   0  0  0  0  0  0  0  0  0  0  0  0
   -1.9560   19.5269   -0.2477 H   0  0  0  0  0  0  0  0  0  0  0  0
   -0.3150   20.9120   -0.2320 H   0  0  0  0  0  0  0  0  0  0  0  0
   -1.7144   17.0010    1.6951 H   0  0  0  0  0  0  0  0  0  0  0  0
   -2.5823   17.4437    0.1860 H   0  0  0  0  0  0  0  0  0  0  0  0
   -1.4237   16.0710    0.1860 H   0  0  0  0  0  0  0  0  0  0  0  0
   -0.4224   18.1313    2.4022 H   0  0  0  0  0  0  0  0  0  0  0  0
    1.0691   18.7191    1.5919 H   0  0  0  0  0  0  0  0  0  0  0  0
   -0.4128   19.7344    1.5919 H   0  0  0  0  0  0  0  0  0  0  0  0
    3.0067   17.5201   -2.5882 H   0  0  0  0  0  0  0  0  0  0  0  0
    3.1606   16.3903   -3.9762 H   0  0  0  0  0  0  0  0  0  0  0  0
    1.8731   17.6430   -3.9762 H   0  0  0  0  0  0  0  0  0  0  0  0
   -0.0083   15.6018   -4.1909 H   0  0  0  0  0  0  0  0  0  0  0  0
    1.6774   14.8965   -4.4991 H   0  0  0  0  0  0  0  0  0  0  0  0
   -0.5206   13.7413   -2.7614 H   0  0  0  0  0  0  0  0  0  0  0  0
    0.1697   13.0808   -4.2957 H   0  0  0  0  0  0  0  0  0  0  0  0
    3.6134   12.6068   -2.9096 H   0  0  0  0  0  0  0  0  0  0  0  0
    2.5653   11.8503   -4.1569 H   0  0  0  0  0  0  0  0  0  0  0  0
    2.8213   13.6282   -4.1569 H   0  0  0  0  0  0  0  0  0  0  0  0
  1  2  1  0
  2  3  1  0
  3  4  1  0
  4  5  1  0
  5  6  1  0
  6  7  1  0
  7  8  1  0
  7  9  1  0
  2 10  1  0
 10 11  1  0
 11 12  1  0
 12 13  1  0
 13 14  1  1
 13 15  1  0
 15 16  1  0
 16 17  1  0
 17 18  2  0
 18 19  1  0
 19 20  1  0
 20 21  1  0
 21 22  1  0
 22 23  1  0
 22 24  1  0
 24 25  1  0
 24 26  1  0
 19 27  1  0
 27 28  1  6
 27 29  1  0
 29 30  1  0
 30 31  1  0
 31 32  1  6
  7  5  1  0
 31 10  1  0
 31 13  1  0
 27 15  1  0
 24 18  1  0
  1 33  1  0
  1 34  1  0
  1 35  1  0
  2 36  1  6
  3 37  1  0
  3 38  1  0
  4 39  1  0
  4 40  1  0
  5 41  1  1
  8 42  1  0
  8 43  1  0
  8 44  1  0
  9 45  1  0
  9 46  1  0
  9 47  1  0
 10 48  1  1
 11 49  1  0
 11 50  1  0
 12 51  1  0
 12 52  1  0
 14 53  1  0
 14 54  1  0
 14 55  1  0
 15 56  1  6
 16 57  1  0
 16 58  1  0
 17 59  1  0
 19 60  1  1
 20 61  1  0
 20 62  1  0
 21 63  1  0
 21 64  1  0
 22 65  1  1
 23 66  1  0
 25 67  1  0
 25 68  1  0
 25 69  1  0
 26 70  1  0
 26 71  1  0
 26 72  1  0
 28 73  1  0
 28 74  1  0
 28 75  1  0
 29 76  1  0
 29 77  1  0
 30 78  1  0
 30 79  1  0
 32 80  1  0
 32 81  1  0
 32 82  1  0
M  END
>  <meeko>  (9) 
{"is_sidechain": [false], "intermolecular_energy": 2.731, "internal_energy": -0.839}

$$$$
EPH_relaxed_0001_pdb2pqr_Repair_383_r2_0001_out
     RDKit          3D

 82 86  0  0  0  0  0  0  0  0999 V2000
   -0.7040   19.2470   -2.7810 C   0  0  0  0  0  0  0  0  0  0  0  0
    0.2420   18.7330   -1.6910 C   0  0  2  0  0  0  0  0  0  0  0  0
    1.4110   19.7040   -1.4320 C   0  0  0  0  0  0  0  0  0  0  0  0
    1.6000   20.0600    0.0450 C   0  0  0  0  0  0  0  0  0  0  0  0
    3.0200   19.8680    0.4840 C   0  0  2  0  0  0  0  0  0  0  0  0
    3.2620   18.6610    1.2200 O   0  0  0  0  0  0  0  0  0  0  0  0
    3.4570   19.8900    1.9370 C   0  0  0  0  0  0  0  0  0  0  0  0
    2.4740   20.1110    3.0440 C   0  0  0  0  0  0  0  0  0  0  0  0
    4.8910   20.1850    2.2490 C   0  0  0  0  0  0  0  0  0  0  0  0
    0.7800   17.3600   -2.0750 C   0  0  1  0  0  0  0  0  0  0  0  0
    2.2610   17.4060   -2.5360 C   0  0  0  0  0  0  0  0  0  0  0  0
    2.9210   16.0890   -2.0520 C   0  0  0  0  0  0  0  0  0  0  0  0
    1.7360   15.1920   -1.6280 C   0  0  1  0  0  0  0  0  0  0  0  0
    1.1980   14.5810   -2.9600 C   0  0  0  0  0  0  0  0  0  0  0  0
    2.0510   14.0840   -0.5710 C   0  0  2  0  0  0  0  0  0  0  0  0
    3.0690   13.0220   -1.0220 C   0  0  0  0  0  0  0  0  0  0  0  0
    2.4850   11.8220   -1.6920 C   0  0  0  0  0  0  0  0  0  0  0  0
    1.1860   11.4690   -1.6690 C   0  0  0  0  0  0  0  0  0  0  0  0
    0.1690   12.2590   -0.8350 C   0  0  1  0  0  0  0  0  0  0  0  0
   -0.7210   11.2740   -0.0330 C   0  0  0  0  0  0  0  0  0  0  0  0
   -1.3840   10.2270   -0.9240 C   0  0  0  0  0  0  0  0  0  0  0  0
   -0.3380    9.4240   -1.6930 C   0  0  2  0  0  0  0  0  0  0  0  0
    0.4170    8.6410   -0.7620 O   0  0  0  0  0  0  0  0  0  0  0  0
    0.6230   10.3120   -2.5310 C   0  0  0  0  0  0  0  0  0  0  0  0
   -0.1450   10.9260   -3.7270 C   0  0  0  0  0  0  0  0  0  0  0  0
    1.7140    9.3910   -3.1410 C   0  0  0  0  0  0  0  0  0  0  0  0
    0.7690   13.4180    0.0730 C   0  0  1  0  0  0  0  0  0  0  0  0
    1.2120   12.8380    1.4510 C   0  0  0  0  0  0  0  0  0  0  0  0
   -0.3630   14.4690    0.3780 C   0  0  0  0  0  0  0  0  0  0  0  0
   -0.5460   15.6080   -0.6440 C   0  0  0  0  0  0  0  0  0  0  0  0
    0.7950   16.2690   -0.9750 C   0  0  2  0  0  0  0  0  0  0  0  0
    1.3490   16.9120    0.3420 C   0  0  0  0  0  0  0  0  0  0  0  0
   -1.5787   19.7223   -2.3131 H   0  0  0  0  0  0  0  0  0  0  0  0
   -0.1774   19.9831   -3.4063 H   0  0  0  0  0  0  0  0  0  0  0  0
   -1.0350   18.4047   -3.4063 H   0  0  0  0  0  0  0  0  0  0  0  0
   -0.3369   18.6576   -0.7587 H   0  0  0  0  0  0  0  0  0  0  0  0
    2.3375   19.2375   -1.7980 H   0  0  0  0  0  0  0  0  0  0  0  0
    1.1748   20.6395   -1.9603 H   0  0  0  0  0  0  0  0  0  0  0  0
    1.3192   21.1127    0.1968 H   0  0  0  0  0  0  0  0  0  0  0  0
    0.9628   19.3919    0.6431 H   0  0  0  0  0  0  0  0  0  0  0  0
    3.3911   20.3965   -0.4065 H   0  0  0  0  0  0  0  0  0  0  0  0
    2.9815   19.9969    4.0132 H   0  0  0  0  0  0  0  0  0  0  0  0
    2.0561   21.1255    2.9661 H   0  0  0  0  0  0  0  0  0  0  0  0
    1.6620   19.3730    2.9661 H   0  0  0  0  0  0  0  0  0  0  0  0
    5.0305   20.2137    3.3397 H   0  0  0  0  0  0  0  0  0  0  0  0
    5.5291   19.3993    1.8183 H   0  0  0  0  0  0  0  0  0  0  0  0
    5.1671   21.1588    1.8183 H   0  0  0  0  0  0  0  0  0  0  0  0
    0.0581   17.0924   -2.8606 H   0  0  0  0  0  0  0  0  0  0  0  0
    2.3145   17.4759   -3.6325 H   0  0  0  0  0  0  0  0  0  0  0  0
    2.7775   18.2832   -2.1191 H   0  0  0  0  0  0  0  0  0  0  0  0
    3.4921   15.6188   -2.8661 H   0  0  0  0  0  0  0  0  0  0  0  0
    3.6324   16.2565   -1.2299 H   0  0  0  0  0  0  0  0  0  0  0  0
    0.4869   13.7734   -2.7320 H   0  0  0  0  0  0  0  0  0  0  0  0
    0.6900   15.3631   -3.5433 H   0  0  0  0  0  0  0  0  0  0  0  0
    2.0381   14.1760   -3.5433 H   0  0  0  0  0  0  0  0  0  0  0  0
    2.5483   14.6553    0.2267 H   0  0  0  0  0  0  0  0  0  0  0  0
    3.7674   13.4981   -1.7260 H   0  0  0  0  0  0  0  0  0  0  0  0
    3.5509   12.6536   -0.1044 H   0  0  0  0  0  0  0  0  0  0  0  0
    3.1740   11.1719   -2.2512 H   0  0  0  0  0  0  0  0  0  0  0  0
   -0.4480   12.8160   -1.5555 H   0  0  0  0  0  0  0  0  0  0  0  0
   -0.0954   10.7590    0.7109 H   0  0  0  0  0  0  0  0  0  0  0  0
   -1.5197   11.8594    0.4459 H   0  0  0  0  0  0  0  0  0  0  0  0
   -1.9741    9.5424   -0.2971 H   0  0  0  0  0  0  0  0  0  0  0  0
   -2.0332   10.7419   -1.6475 H   0  0  0  0  0  0  0  0  0  0  0  0
   -0.8741    8.7831   -2.4084 H   0  0  0  0  0  0  0  0  0  0  0  0
    1.1310    8.2050   -1.2570 H   0  0  0  0  0  0  0  0  0  0  0  0
   -0.9526   11.5717   -3.3516 H   0  0  0  0  0  0  0  0  0  0  0  0
    0.5468   11.5228   -4.3395 H   0  0  0  0  0  0  0  0  0  0  0  0
   -0.5749   10.1198   -4.3395 H   0  0  0  0  0  0  0  0  0  0  0  0
    2.2830    8.9107   -2.3314 H   0  0  0  0  0  0  0  0  0  0  0  0
    1.2366    8.6186   -3.7619 H   0  0  0  0  0  0  0  0  0  0  0  0
    2.3953    9.9912   -3.7619 H   0  0  0  0  0  0  0  0  0  0  0  0
    0.7599   13.4300    2.2604 H   0  0  0  0  0  0  0  0  0  0  0  0
    0.8806   11.7923    1.5323 H   0  0  0  0  0  0  0  0  0  0  0  0
    2.3081   12.8826    1.5323 H   0  0  0  0  0  0  0  0  0  0  0  0
   -1.3158   13.9230    0.4422 H   0  0  0  0  0  0  0  0  0  0  0  0
   -0.0527   14.9647    1.3097 H   0  0  0  0  0  0  0  0  0  0  0  0
   -0.9818   15.1969   -1.5665 H   0  0  0  0  0  0  0  0  0  0  0  0
   -1.2124   16.3666   -0.2077 H   0  0  0  0  0  0  0  0  0  0  0  0
    0.9096   16.4020    1.2120 H   0  0  0  0  0  0  0  0  0  0  0  0
    2.4436   16.8064    0.3693 H   0  0  0  0  0  0  0  0  0  0  0  0
    1.0827   17.9789    0.3693 H   0  0  0  0  0  0  0  0  0  0  0  0
  1  2  1  0
  2  3  1  0
  3  4  1  0
  4  5  1  0
  5  6  1  0
  6  7  1  0
  7  8  1  0
  7  9  1  0
  2 10  1  0
 10 11  1  0
 11 12  1  0
 12 13  1  0
 13 14  1  6
 13 15  1  0
 15 16  1  0
 16 17  1  0
 17 18  2  0
 18 19  1  0
 19 20  1  0
 20 21  1  0
 21 22  1  0
 22 23  1  0
 22 24  1  0
 24 25  1  0
 24 26  1  0
 19 27  1  0
 27 28  1  1
 27 29  1  0
 29 30  1  0
 30 31  1  0
 31 32  1  1
  7  5  1  0
 31 10  1  0
 31 13  1  0
 27 15  1  0
 24 18  1  0
  1 33  1  0
  1 34  1  0
  1 35  1  0
  2 36  1  1
  3 37  1  0
  3 38  1  0
  4 39  1  0
  4 40  1  0
  5 41  1  6
  8 42  1  0
  8 43  1  0
  8 44  1  0
  9 45  1  0
  9 46  1  0
  9 47  1  0
 10 48  1  6
 11 49  1  0
 11 50  1  0
 12 51  1  0
 12 52  1  0
 14 53  1  0
 14 54  1  0
 14 55  1  0
 15 56  1  1
 16 57  1  0
 16 58  1  0
 17 59  1  0
 19 60  1  6
 20 61  1  0
 20 62  1  0
 21 63  1  0
 21 64  1  0
 22 65  1  6
 23 66  1  0
 25 67  1  0
 25 68  1  0
 25 69  1  0
 26 70  1  0
 26 71  1  0
 26 72  1  0
 28 73  1  0
 28 74  1  0
 28 75  1  0
 29 76  1  0
 29 77  1  0
 30 78  1  0
 30 79  1  0
 32 80  1  0
 32 81  1  0
 32 82  1  0
M  END
>  <meeko>  (10) 
{"is_sidechain": [false], "intermolecular_energy": 2.731, "internal_energy": -0.839}

$$$$
EPH_relaxed_0001_pdb2pqr_Repair_383_r2_0001_out
     RDKit          3D

 82 86  0  0  0  0  0  0  0  0999 V2000
   -4.1360    7.3400   -3.3880 C   0  0  0  0  0  0  0  0  0  0  0  0
   -3.7800    7.2650   -1.9010 C   0  0  2  0  0  0  0  0  0  0  0  0
   -4.9870    6.8500   -1.0360 C   0  0  0  0  0  0  0  0  0  0  0  0
   -6.1880    6.3600   -1.8490 C   0  0  0  0  0  0  0  0  0  0  0  0
   -7.4550    7.0480   -1.4370 C   0  0  2  0  0  0  0  0  0  0  0  0
   -8.5180    6.1660   -1.0550 O   0  0  0  0  0  0  0  0  0  0  0  0
   -8.7470    6.9660   -2.2270 C   0  0  0  0  0  0  0  0  0  0  0  0
   -8.8380    6.1750   -3.4950 C   0  0  0  0  0  0  0  0  0  0  0  0
   -9.7740    8.0380   -2.0340 C   0  0  0  0  0  0  0  0  0  0  0  0
   -3.2380    8.6090   -1.4280 C   0  0  1  0  0  0  0  0  0  0  0  0
   -3.8460    9.0540   -0.0710 C   0  0  0  0  0  0  0  0  0  0  0  0
   -2.7270    9.8050    0.6960 C   0  0  0  0  0  0  0  0  0  0  0  0
   -1.6290   10.0560   -0.3640 C   0  0  1  0  0  0  0  0  0  0  0  0
   -2.1110   11.3170   -1.1490 C   0  0  0  0  0  0  0  0  0  0  0  0
   -0.1740   10.2350    0.1770 C   0  0  2  0  0  0  0  0  0  0  0  0
    0.0340   11.4480    1.1010 C   0  0  0  0  0  0  0  0  0  0  0  0
    0.4350   12.7110    0.4140 C   0  0  0  0  0  0  0  0  0  0  0  0
    0.8970   12.8030   -0.8470 C   0  0  0  0  0  0  0  0  0  0  0  0
    1.1480   11.5450   -1.6880 C   0  0  1  0  0  0  0  0  0  0  0  0
    2.5310   11.6530   -2.3800 C   0  0  0  0  0  0  0  0  0  0  0  0
    2.6810   12.9360   -3.1920 C   0  0  0  0  0  0  0  0  0  0  0  0
    2.4830   14.1650   -2.3090 C   0  0  2  0  0  0  0  0  0  0  0  0
    3.5580   14.2360   -1.3680 O   0  0  0  0  0  0  0  0  0  0  0  0
    1.1250   14.1630   -1.5520 C   0  0  0  0  0  0  0  0  0  0  0  0
   -0.0320   14.3900   -2.5570 C   0  0  0  0  0  0  0  0  0  0  0  0
    1.1120   15.3830   -0.5920 C   0  0  0  0  0  0  0  0  0  0  0  0
    0.9470   10.1590   -0.9370 C   0  0  1  0  0  0  0  0  0  0  0  0
    2.2660    9.7490   -0.2150 C   0  0  0  0  0  0  0  0  0  0  0  0
    0.6560    9.0350   -2.0020 C   0  0  0  0  0  0  0  0  0  0  0  0
   -0.8160    8.8270   -2.4070 C   0  0  0  0  0  0  0  0  0  0  0  0
   -1.7140    8.7100   -1.1720 C   0  0  2  0  0  0  0  0  0  0  0  0
   -1.2670    7.4380   -0.3740 C   0  0  0  0  0  0  0  0  0  0  0  0
   -5.2070    7.5656   -3.4977 H   0  0  0  0  0  0  0  0  0  0  0  0
   -3.5432    8.1330   -3.8674 H   0  0  0  0  0  0  0  0  0  0  0  0
   -3.9136    6.3753   -3.8674 H   0  0  0  0  0  0  0  0  0  0  0  0
   -3.0076    6.4906   -1.7839 H   0  0  0  0  0  0  0  0  0  0  0  0
   -4.6696    6.0399   -0.3629 H   0  0  0  0  0  0  0  0  0  0  0  0
   -5.3137    7.7467   -0.4891 H   0  0  0  0  0  0  0  0  0  0  0  0
   -6.0032    6.5615   -2.9145 H   0  0  0  0  0  0  0  0  0  0  0  0
   -6.3085    5.2819   -1.6666 H   0  0  0  0  0  0  0  0  0  0  0  0
   -6.8885    7.9017   -1.0367 H   0  0  0  0  0  0  0  0  0  0  0  0
   -8.9607    5.1088   -3.2540 H   0  0  0  0  0  0  0  0  0  0  0  0
   -9.7024    6.5202   -4.0813 H   0  0  0  0  0  0  0  0  0  0  0  0
   -7.9178    6.3149   -4.0813 H   0  0  0  0  0  0  0  0  0  0  0  0
   -9.9330    8.2040   -0.9583 H   0  0  0  0  0  0  0  0  0  0  0  0
   -9.4232    8.9702   -2.5009 H   0  0  0  0  0  0  0  0  0  0  0  0
  -10.7203    7.7275   -2.5009 H   0  0  0  0  0  0  0  0  0  0  0  0
   -3.5175    9.2342   -2.2888 H   0  0  0  0  0  0  0  0  0  0  0  0
   -4.7030    9.7224   -0.2409 H   0  0  0  0  0  0  0  0  0  0  0  0
   -4.2056    8.1877    0.5036 H   0  0  0  0  0  0  0  0  0  0  0  0
   -3.1035   10.7571    1.0982 H   0  0  0  0  0  0  0  0  0  0  0  0
   -2.3530    9.2307    1.5564 H   0  0  0  0  0  0  0  0  0  0  0  0
   -2.4103   12.1000   -0.4368 H   0  0  0  0  0  0  0  0  0  0  0  0
   -1.2922   11.6903   -1.7816 H   0  0  0  0  0  0  0  0  0  0  0  0
   -2.9701   11.0489   -1.7816 H   0  0  0  0  0  0  0  0  0  0  0  0
   -0.0499    9.3476    0.8151 H   0  0  0  0  0  0  0  0  0  0  0  0
   -0.9101   11.6356    1.6335 H   0  0  0  0  0  0  0  0  0  0  0  0
    0.8697   11.1845    1.7659 H   0  0  0  0  0  0  0  0  0  0  0  0
    0.3454   13.6459    0.9867 H   0  0  0  0  0  0  0  0  0  0  0  0
    0.3524   11.5217   -2.4472 H   0  0  0  0  0  0  0  0  0  0  0  0
    3.3142   11.6309   -1.6079 H   0  0  0  0  0  0  0  0  0  0  0  0
    2.6233   10.8055   -3.0751 H   0  0  0  0  0  0  0  0  0  0  0  0
    3.6883   12.9676   -3.6328 H   0  0  0  0  0  0  0  0  0  0  0  0
    1.9157   12.9436   -3.9821 H   0  0  0  0  0  0  0  0  0  0  0  0
    2.4739   15.0458   -2.9679 H   0  0  0  0  0  0  0  0  0  0  0  0
    4.0770   15.0320   -1.5740 H   0  0  0  0  0  0  0  0  0  0  0  0
   -0.9660   14.5732   -2.0056 H   0  0  0  0  0  0  0  0  0  0  0  0
    0.1972   15.2603   -3.1895 H   0  0  0  0  0  0  0  0  0  0  0  0
   -0.1487   13.4976   -3.1895 H   0  0  0  0  0  0  0  0  0  0  0  0
    1.1158   15.0299    0.4498 H   0  0  0  0  0  0  0  0  0  0  0  0
    2.0036   16.0013   -0.7728 H   0  0  0  0  0  0  0  0  0  0  0  0
    0.2074   15.9822   -0.7728 H   0  0  0  0  0  0  0  0  0  0  0  0
    2.1175    9.7952    0.8740 H   0  0  0  0  0  0  0  0  0  0  0  0
    2.5391    8.7236   -0.5047 H   0  0  0  0  0  0  0  0  0  0  0  0
    3.0723   10.4389   -0.5047 H   0  0  0  0  0  0  0  0  0  0  0  0
    1.2197    9.2854   -2.9128 H   0  0  0  0  0  0  0  0  0  0  0  0
    0.9573    8.0944   -1.5178 H   0  0  0  0  0  0  0  0  0  0  0  0
   -1.1469    9.6837   -3.0125 H   0  0  0  0  0  0  0  0  0  0  0  0
   -0.8919    7.8942   -2.9850 H   0  0  0  0  0  0  0  0  0  0  0  0
   -1.3375    7.6387    0.7052 H   0  0  0  0  0  0  0  0  0  0  0  0
   -1.9222    6.5934   -0.6335 H   0  0  0  0  0  0  0  0  0  0  0  0
   -0.2275    7.1889   -0.6335 H   0  0  0  0  0  0  0  0  0  0  0  0
  1  2  1  0
  2  3  1  0
  3  4  1  0
  4  5  1  0
  5  6  1  0
  6  7  1  0
  7  8  1  0
  7  9  1  0
  2 10  1  0
 10 11  1  0
 11 12  1  0
 12 13  1  0
 13 14  1  6
 13 15  1  0
 15 16  1  0
 16 17  1  0
 17 18  2  0
 18 19  1  0
 19 20  1  0
 20 21  1  0
 21 22  1  0
 22 23  1  0
 22 24  1  0
 24 25  1  0
 24 26  1  0
 19 27  1  0
 27 28  1  1
 27 29  1  0
 29 30  1  0
 30 31  1  0
 31 32  1  1
  7  5  1  0
 31 10  1  0
 31 13  1  0
 27 15  1  0
 24 18  1  0
  1 33  1  0
  1 34  1  0
  1 35  1  0
  2 36  1  6
  3 37  1  0
  3 38  1  0
  4 39  1  0
  4 40  1  0
  5 41  1  1
  8 42  1  0
  8 43  1  0
  8 44  1  0
  9 45  1  0
  9 46  1  0
  9 47  1  0
 10 48  1  6
 11 49  1  0
 11 50  1  0
 12 51  1  0
 12 52  1  0
 14 53  1  0
 14 54  1  0
 14 55  1  0
 15 56  1  1
 16 57  1  0
 16 58  1  0
 17 59  1  0
 19 60  1  6
 20 61  1  0
 20 62  1  0
 21 63  1  0
 21 64  1  0
 22 65  1  6
 23 66  1  0
 25 67  1  0
 25 68  1  0
 25 69  1  0
 26 70  1  0
 26 71  1  0
 26 72  1  0
 28 73  1  0
 28 74  1  0
 28 75  1  0
 29 76  1  0
 29 77  1  0
 30 78  1  0
 30 79  1  0
 32 80  1  0
 32 81  1  0
 32 82  1  0
M  END
>  <meeko>  (11) 
{"is_sidechain": [false], "intermolecular_energy": 2.731, "internal_energy": -0.839}

$$$$
EPH_relaxed_0001_pdb2pqr_Repair_383_r2_0001_out
     RDKit          3D

 82 86  0  0  0  0  0  0  0  0999 V2000
   -0.2940   15.0940   -7.5810 C   0  0  0  0  0  0  0  0  0  0  0  0
    1.0870   15.0560   -6.9210 C   0  0  2  0  0  0  0  0  0  0  0  0
    2.2270   15.1290   -7.9570 C   0  0  0  0  0  0  0  0  0  0  0  0
    2.2650   16.4440   -8.7400 C   0  0  0  0  0  0  0  0  0  0  0  0
    1.8500   16.2510  -10.1670 C   0  0  2  0  0  0  0  0  0  0  0  0
    1.2060   14.9990  -10.4400 O   0  0  0  0  0  0  0  0  0  0  0  0
    2.4710   15.2160  -11.0860 C   0  0  0  0  0  0  0  0  0  0  0  0
    3.5610   14.3060  -10.6130 C   0  0  0  0  0  0  0  0  0  0  0  0
    2.3650   15.4180  -12.5660 C   0  0  0  0  0  0  0  0  0  0  0  0
    1.2270   13.7930   -6.0800 C   0  0  1  0  0  0  0  0  0  0  0  0
    2.6610   13.2020   -6.1240 C   0  0  0  0  0  0  0  0  0  0  0  0
    2.9400   12.6000   -4.7230 C   0  0  0  0  0  0  0  0  0  0  0  0
    1.5570   12.5660   -4.0310 C   0  0  1  0  0  0  0  0  0  0  0  0
    0.8640   11.2810   -4.5830 C   0  0  0  0  0  0  0  0  0  0  0  0
    1.5660   12.5900   -2.4680 C   0  0  2  0  0  0  0  0  0  0  0  0
    2.2520   11.3850   -1.8000 C   0  0  0  0  0  0  0  0  0  0  0  0
    1.3570   10.2290   -1.4980 C   0  0  0  0  0  0  0  0  0  0  0  0
    0.0120   10.2630   -1.4880 C   0  0  0  0  0  0  0  0  0  0  0  0
   -0.7450   11.5800   -1.7050 C   0  0  1  0  0  0  0  0  0  0  0  0
   -1.8640   11.7160   -0.6400 C   0  0  0  0  0  0  0  0  0  0  0  0
   -2.7940   10.5070   -0.6110 C   0  0  0  0  0  0  0  0  0  0  0  0
   -2.0130    9.2250   -0.3350 C   0  0  2  0  0  0  0  0  0  0  0  0
   -1.4940    9.2800    0.9980 O   0  0  0  0  0  0  0  0  0  0  0  0
   -0.8520    8.9860   -1.3390 C   0  0  0  0  0  0  0  0  0  0  0  0
   -1.4310    8.6270   -2.7300 C   0  0  0  0  0  0  0  0  0  0  0  0
   -0.0590    7.7380   -0.8640 C   0  0  0  0  0  0  0  0  0  0  0  0
    0.1550   12.8850   -1.8160 C   0  0  1  0  0  0  0  0  0  0  0  0
    0.4320   13.4620   -0.3940 C   0  0  0  0  0  0  0  0  0  0  0  0
   -0.6440   13.9950   -2.5970 C   0  0  0  0  0  0  0  0  0  0  0  0
   -0.5170   13.9920   -4.1320 C   0  0  0  0  0  0  0  0  0  0  0  0
    0.9510   13.9160   -4.5610 C   0  0  2  0  0  0  0  0  0  0  0  0
    1.6700   15.2070   -4.0380 C   0  0  0  0  0  0  0  0  0  0  0  0
   -1.0716   15.1154   -6.8033 H   0  0  0  0  0  0  0  0  0  0  0  0
   -0.3766   15.9948   -8.2070 H   0  0  0  0  0  0  0  0  0  0  0  0
   -0.4260   14.1991   -8.2070 H   0  0  0  0  0  0  0  0  0  0  0  0
    1.1701   15.9427   -6.2754 H   0  0  0  0  0  0  0  0  0  0  0  0
    3.1845   15.0120   -7.4283 H   0  0  0  0  0  0  0  0  0  0  0  0
    2.0493   14.3256   -8.6871 H   0  0  0  0  0  0  0  0  0  0  0  0
    1.5814   17.1624   -8.2639 H   0  0  0  0  0  0  0  0  0  0  0  0
    3.2991   16.8189   -8.7311 H   0  0  0  0  0  0  0  0  0  0  0  0
    1.6706   17.3298  -10.2850 H   0  0  0  0  0  0  0  0  0  0  0  0
    3.5764   14.2931   -9.5132 H   0  0  0  0  0  0  0  0  0  0  0  0
    3.3782   13.2886  -10.9891 H   0  0  0  0  0  0  0  0  0  0  0  0
    4.5294   14.6675  -10.9891 H   0  0  0  0  0  0  0  0  0  0  0  0
    1.8628   16.3751  -12.7704 H   0  0  0  0  0  0  0  0  0  0  0  0
    3.3725   15.4310  -13.0074 H   0  0  0  0  0  0  0  0  0  0  0  0
    1.7819   14.5963  -13.0074 H   0  0  0  0  0  0  0  0  0  0  0  0
    0.4540   13.1698   -6.5533 H   0  0  0  0  0  0  0  0  0  0  0  0
    2.7240   12.4177   -6.8927 H   0  0  0  0  0  0  0  0  0  0  0  0
    3.4000   13.9771   -6.3750 H   0  0  0  0  0  0  0  0  0  0  0  0
    3.3549   11.5851   -4.8119 H   0  0  0  0  0  0  0  0  0  0  0  0
    3.6764   13.1878   -4.1553 H   0  0  0  0  0  0  0  0  0  0  0  0
    0.5271   10.6563   -3.7426 H   0  0  0  0  0  0  0  0  0  0  0  0
   -0.0023   11.5669   -5.1977 H   0  0  0  0  0  0  0  0  0  0  0  0
    1.5788   10.7142   -5.1977 H   0  0  0  0  0  0  0  0  0  0  0  0
    2.2066   13.4573   -2.2501 H   0  0  0  0  0  0  0  0  0  0  0  0
    3.0485   11.0319   -2.4715 H   0  0  0  0  0  0  0  0  0  0  0  0
    2.6223   11.7452   -0.8289 H   0  0  0  0  0  0  0  0  0  0  0  0
    1.8379    9.2678   -1.2638 H   0  0  0  0  0  0  0  0  0  0  0  0
   -1.1921   11.5130   -2.7078 H   0  0  0  0  0  0  0  0  0  0  0  0
   -1.3972   11.8256    0.3500 H   0  0  0  0  0  0  0  0  0  0  0  0
   -2.4691   12.5965   -0.9020 H   0  0  0  0  0  0  0  0  0  0  0  0
   -3.5445   10.6489    0.1806 H   0  0  0  0  0  0  0  0  0  0  0  0
   -3.2828   10.4162   -1.5923 H   0  0  0  0  0  0  0  0  0  0  0  0
   -2.7091    8.3820   -0.4560 H   0  0  0  0  0  0  0  0  0  0  0  0
   -1.0850   10.1540    1.1180 H   0  0  0  0  0  0  0  0  0  0  0  0
   -2.3596    8.0512   -2.6031 H   0  0  0  0  0  0  0  0  0  0  0  0
   -1.6456    9.5507   -3.2874 H   0  0  0  0  0  0  0  0  0  0  0  0
   -0.6990    8.0241   -3.2874 H   0  0  0  0  0  0  0  0  0  0  0  0
   -0.0419    7.7111    0.2355 H   0  0  0  0  0  0  0  0  0  0  0  0
   -0.5448    6.8278   -1.2456 H   0  0  0  0  0  0  0  0  0  0  0  0
    0.9713    7.7912   -1.2456 H   0  0  0  0  0  0  0  0  0  0  0  0
    0.0878   12.7451    0.3660 H   0  0  0  0  0  0  0  0  0  0  0  0
    1.5115   13.6352   -0.2725 H   0  0  0  0  0  0  0  0  0  0  0  0
   -0.1079   14.4127   -0.2725 H   0  0  0  0  0  0  0  0  0  0  0  0
   -1.7092   13.8734   -2.3510 H   0  0  0  0  0  0  0  0  0  0  0  0
   -0.2020   14.9490   -2.2736 H   0  0  0  0  0  0  0  0  0  0  0  0
   -1.0553   13.1218   -4.5358 H   0  0  0  0  0  0  0  0  0  0  0  0
   -0.9479   14.9263   -4.5211 H   0  0  0  0  0  0  0  0  0  0  0  0
    1.6698   15.2067   -2.9380 H   0  0  0  0  0  0  0  0  0  0  0  0
    2.7070   15.2231   -4.4045 H   0  0  0  0  0  0  0  0  0  0  0  0
    1.1377   16.0971   -4.4045 H   0  0  0  0  0  0  0  0  0  0  0  0
  1  2  1  0
  2  3  1  0
  3  4  1  0
  4  5  1  0
  5  6  1  0
  6  7  1  0
  7  8  1  0
  7  9  1  0
  2 10  1  0
 10 11  1  0
 11 12  1  0
 12 13  1  0
 13 14  1  1
 13 15  1  0
 15 16  1  0
 16 17  1  0
 17 18  2  0
 18 19  1  0
 19 20  1  0
 20 21  1  0
 21 22  1  0
 22 23  1  0
 22 24  1  0
 24 25  1  0
 24 26  1  0
 19 27  1  0
 27 28  1  1
 27 29  1  0
 29 30  1  0
 30 31  1  0
 31 32  1  1
  7  5  1  0
 31 10  1  0
 31 13  1  0
 27 15  1  0
 24 18  1  0
  1 33  1  0
  1 34  1  0
  1 35  1  0
  2 36  1  1
  3 37  1  0
  3 38  1  0
  4 39  1  0
  4 40  1  0
  5 41  1  6
  8 42  1  0
  8 43  1  0
  8 44  1  0
  9 45  1  0
  9 46  1  0
  9 47  1  0
 10 48  1  6
 11 49  1  0
 11 50  1  0
 12 51  1  0
 12 52  1  0
 14 53  1  0
 14 54  1  0
 14 55  1  0
 15 56  1  6
 16 57  1  0
 16 58  1  0
 17 59  1  0
 19 60  1  6
 20 61  1  0
 20 62  1  0
 21 63  1  0
 21 64  1  0
 22 65  1  1
 23 66  1  0
 25 67  1  0
 25 68  1  0
 25 69  1  0
 26 70  1  0
 26 71  1  0
 26 72  1  0
 28 73  1  0
 28 74  1  0
 28 75  1  0
 29 76  1  0
 29 77  1  0
 30 78  1  0
 30 79  1  0
 32 80  1  0
 32 81  1  0
 32 82  1  0
M  END
>  <meeko>  (12) 
{"is_sidechain": [false], "intermolecular_energy": 2.731, "internal_energy": -0.839}

$$$$
EPH_relaxed_0001_pdb2pqr_Repair_383_r2_0001_out
     RDKit          3D

 82 86  0  0  0  0  0  0  0  0999 V2000
    2.7330   18.3410   -3.6290 C   0  0  0  0  0  0  0  0  0  0  0  0
    1.9790   18.1550   -2.3100 C   0  0  2  0  0  0  0  0  0  0  0  0
    2.3410   19.2400   -1.2760 C   0  0  0  0  0  0  0  0  0  0  0  0
    1.5340   19.1470    0.0220 C   0  0  0  0  0  0  0  0  0  0  0  0
    0.2930   19.9860   -0.0360 C   0  0  2  0  0  0  0  0  0  0  0  0
   -0.3480   20.1940    1.2300 O   0  0  0  0  0  0  0  0  0  0  0  0
   -1.0950   19.4480    0.2560 C   0  0  0  0  0  0  0  0  0  0  0  0
   -1.3140   18.0140    0.6260 C   0  0  0  0  0  0  0  0  0  0  0  0
   -2.2780   20.1850   -0.2910 C   0  0  0  0  0  0  0  0  0  0  0  0
    2.2680   16.7720   -1.7370 C   0  0  1  0  0  0  0  0  0  0  0  0
    2.8670   16.8320   -0.3060 C   0  0  0  0  0  0  0  0  0  0  0  0
    2.3150   15.6040    0.4620 C   0  0  0  0  0  0  0  0  0  0  0  0
    1.6920   14.7070   -0.6330 C   0  0  1  0  0  0  0  0  0  0  0  0
    2.8980   13.9340   -1.2540 C   0  0  0  0  0  0  0  0  0  0  0  0
    0.5600   13.7330   -0.1680 C   0  0  2  0  0  0  0  0  0  0  0  0
    0.9940   12.6730    0.8600 C   0  0  0  0  0  0  0  0  0  0  0  0
    1.4780   11.3850    0.2820 C   0  0  0  0  0  0  0  0  0  0  0  0
    1.2980   10.9810   -0.9900 C   0  0  0  0  0  0  0  0  0  0  0  0
    0.4590   11.8120   -1.9690 C   0  0  1  0  0  0  0  0  0  0  0  0
   -0.5190   10.8810   -2.7320 C   0  0  0  0  0  0  0  0  0  0  0  0
    0.1930    9.7180   -3.4160 C   0  0  0  0  0  0  0  0  0  0  0  0
    0.9690    8.8820   -2.4010 C   0  0  2  0  0  0  0  0  0  0  0  0
    0.0380    8.2370   -1.5270 O   0  0  0  0  0  0  0  0  0  0  0  0
    1.9800    9.7160   -1.5650 C   0  0  0  0  0  0  0  0  0  0  0  0
    3.1560   10.1650   -2.4670 C   0  0  0  0  0  0  0  0  0  0  0  0
    2.5920    8.7820   -0.4870 C   0  0  0  0  0  0  0  0  0  0  0  0
   -0.2660   13.0860   -1.3530 C   0  0  1  0  0  0  0  0  0  0  0  0
   -1.6480   12.6760   -0.7590 C   0  0  0  0  0  0  0  0  0  0  0  0
   -0.5650   14.1150   -2.5060 C   0  0  0  0  0  0  0  0  0  0  0  0
    0.5470   15.1290   -2.8380 C   0  0  0  0  0  0  0  0  0  0  0  0
    1.0680   15.8070   -1.5680 C   0  0  2  0  0  0  0  0  0  0  0  0
   -0.1180   16.6100   -0.9330 C   0  0  0  0  0  0  0  0  0  0  0  0
    3.7813   18.5996   -3.4188 H   0  0  0  0  0  0  0  0  0  0  0  0
    2.6949   17.4065   -4.2081 H   0  0  0  0  0  0  0  0  0  0  0  0
    2.2647   19.1505   -4.2081 H   0  0  0  0  0  0  0  0  0  0  0  0
    0.9048   18.2509   -2.5264 H   0  0  0  0  0  0  0  0  0  0  0  0
    3.4084   19.1420   -1.0290 H   0  0  0  0  0  0  0  0  0  0  0  0
    2.1035   20.2118   -1.7333 H   0  0  0  0  0  0  0  0  0  0  0  0
    1.2478   18.0982    0.1896 H   0  0  0  0  0  0  0  0  0  0  0  0
    2.1623   19.5201    0.8442 H   0  0  0  0  0  0  0  0  0  0  0  0
    0.6967   20.5675   -0.8780 H   0  0  0  0  0  0  0  0  0  0  0  0
   -1.3289   17.9162    1.7215 H   0  0  0  0  0  0  0  0  0  0  0  0
   -2.2748   17.6717    0.2142 H   0  0  0  0  0  0  0  0  0  0  0  0
   -0.4991   17.4005    0.2142 H   0  0  0  0  0  0  0  0  0  0  0  0
   -2.8893   20.5658    0.5405 H   0  0  0  0  0  0  0  0  0  0  0  0
   -1.9320   21.0276   -0.9077 H   0  0  0  0  0  0  0  0  0  0  0  0
   -2.8818   19.5030   -0.9077 H   0  0  0  0  0  0  0  0  0  0  0  0
    2.9509   16.3908   -2.5105 H   0  0  0  0  0  0  0  0  0  0  0  0
    3.9651   16.7871   -0.3529 H   0  0  0  0  0  0  0  0  0  0  0  0
    2.5913   17.7698    0.1985 H   0  0  0  0  0  0  0  0  0  0  0  0
    3.1266   15.0745    0.9825 H   0  0  0  0  0  0  0  0  0  0  0  0
    1.5846   15.8884    1.2338 H   0  0  0  0  0  0  0  0  0  0  0  0
    3.5285   13.5299   -0.4483 H   0  0  0  0  0  0  0  0  0  0  0  0
    2.5229   13.1076   -1.8756 H   0  0  0  0  0  0  0  0  0  0  0  0
    3.4923   14.6199   -1.8756 H   0  0  0  0  0  0  0  0  0  0  0  0
   -0.1257   14.4058    0.3678 H   0  0  0  0  0  0  0  0  0  0  0  0
    1.8065   13.1001    1.4662 H   0  0  0  0  0  0  0  0  0  0  0  0
    0.0934   12.4263    1.4414 H   0  0  0  0  0  0  0  0  0  0  0  0
    2.0285   10.7081    0.9519 H   0  0  0  0  0  0  0  0  0  0  0  0
    1.1725   12.2626   -2.6747 H   0  0  0  0  0  0  0  0  0  0  0  0
   -1.2498   10.4754   -2.0169 H   0  0  0  0  0  0  0  0  0  0  0  0
   -1.0075   11.4799   -3.5147 H   0  0  0  0  0  0  0  0  0  0  0  0
   -0.5534    9.0804   -3.9124 H   0  0  0  0  0  0  0  0  0  0  0  0
    0.9019   10.1240   -4.1526 H   0  0  0  0  0  0  0  0  0  0  0  0
    1.5608    8.1453   -2.9641 H   0  0  0  0  0  0  0  0  0  0  0  0
    0.2780    7.2960   -1.4850 H   0  0  0  0  0  0  0  0  0  0  0  0
    3.9988   10.4868   -1.8376 H   0  0  0  0  0  0  0  0  0  0  0  0
    3.4726    9.3245   -3.1021 H   0  0  0  0  0  0  0  0  0  0  0  0
    2.8319   11.0026   -3.1021 H   0  0  0  0  0  0  0  0  0  0  0  0
    2.3418    9.1638    0.5138 H   0  0  0  0  0  0  0  0  0  0  0  0
    2.1827    7.7679   -0.6054 H   0  0  0  0  0  0  0  0  0  0  0  0
    3.6852    8.7524   -0.6054 H   0  0  0  0  0  0  0  0  0  0  0  0
   -1.5942   12.6920    0.3396 H   0  0  0  0  0  0  0  0  0  0  0  0
   -2.4179   13.3844   -1.0987 H   0  0  0  0  0  0  0  0  0  0  0  0
   -1.9070   11.6623   -1.0987 H   0  0  0  0  0  0  0  0  0  0  0  0
   -0.7741   13.5394   -3.4198 H   0  0  0  0  0  0  0  0  0  0  0  0
   -1.4070   14.7208   -2.1399 H   0  0  0  0  0  0  0  0  0  0  0  0
    1.3776   14.6033   -3.3318 H   0  0  0  0  0  0  0  0  0  0  0  0
    0.1307   15.9009   -3.5019 H   0  0  0  0  0  0  0  0  0  0  0  0
   -0.0475   16.5623    0.1637 H   0  0  0  0  0  0  0  0  0  0  0  0
   -0.0661   17.6595   -1.2584 H   0  0  0  0  0  0  0  0  0  0  0  0
   -1.0731   16.1720   -1.2584 H   0  0  0  0  0  0  0  0  0  0  0  0
  1  2  1  0
  2  3  1  0
  3  4  1  0
  4  5  1  0
  5  6  1  0
  6  7  1  0
  7  8  1  0
  7  9  1  0
  2 10  1  0
 10 11  1  0
 11 12  1  0
 12 13  1  0
 13 14  1  6
 13 15  1  0
 15 16  1  0
 16 17  1  0
 17 18  2  0
 18 19  1  0
 19 20  1  0
 20 21  1  0
 21 22  1  0
 22 23  1  0
 22 24  1  0
 24 25  1  0
 24 26  1  0
 19 27  1  0
 27 28  1  1
 27 29  1  0
 29 30  1  0
 30 31  1  0
 31 32  1  1
  7  5  1  0
 31 10  1  0
 31 13  1  0
 27 15  1  0
 24 18  1  0
  1 33  1  0
  1 34  1  0
  1 35  1  0
  2 36  1  6
  3 37  1  0
  3 38  1  0
  4 39  1  0
  4 40  1  0
  5 41  1  6
  8 42  1  0
  8 43  1  0
  8 44  1  0
  9 45  1  0
  9 46  1  0
  9 47  1  0
 10 48  1  6
 11 49  1  0
 11 50  1  0
 12 51  1  0
 12 52  1  0
 14 53  1  0
 14 54  1  0
 14 55  1  0
 15 56  1  1
 16 57  1  0
 16 58  1  0
 17 59  1  0
 19 60  1  6
 20 61  1  0
 20 62  1  0
 21 63  1  0
 21 64  1  0
 22 65  1  6
 23 66  1  0
 25 67  1  0
 25 68  1  0
 25 69  1  0
 26 70  1  0
 26 71  1  0
 26 72  1  0
 28 73  1  0
 28 74  1  0
 28 75  1  0
 29 76  1  0
 29 77  1  0
 30 78  1  0
 30 79  1  0
 32 80  1  0
 32 81  1  0
 32 82  1  0
M  END
>  <meeko>  (13) 
{"is_sidechain": [false], "intermolecular_energy": 2.731, "internal_energy": -0.839}

$$$$
EPH_relaxed_0001_pdb2pqr_Repair_383_r2_0001_out
     RDKit          3D

 82 86  0  0  0  0  0  0  0  0999 V2000
   -5.1410    6.6880   -3.5530 C   0  0  0  0  0  0  0  0  0  0  0  0
   -5.9560    7.6810   -2.7190 C   0  0  2  0  0  0  0  0  0  0  0  0
   -5.2660    8.0210   -1.3820 C   0  0  0  0  0  0  0  0  0  0  0  0
   -3.7390    7.9360   -1.4390 C   0  0  0  0  0  0  0  0  0  0  0  0
   -3.0950    8.8500   -0.4410 C   0  0  2  0  0  0  0  0  0  0  0  0
   -3.0140   10.2210   -0.8500 O   0  0  0  0  0  0  0  0  0  0  0  0
   -1.7630    9.5370   -0.6730 C   0  0  0  0  0  0  0  0  0  0  0  0
   -0.9920    9.3380   -1.9400 C   0  0  0  0  0  0  0  0  0  0  0  0
   -0.9830   10.0060    0.5160 C   0  0  0  0  0  0  0  0  0  0  0  0
   -7.3490    7.1200   -2.4590 C   0  0  1  0  0  0  0  0  0  0  0  0
   -7.3710    5.5690   -2.4200 C   0  0  0  0  0  0  0  0  0  0  0  0
   -8.4300    5.1630   -1.3620 C   0  0  0  0  0  0  0  0  0  0  0  0
   -9.2100    6.4660   -1.0720 C   0  0  1  0  0  0  0  0  0  0  0  0
  -10.2390    6.5870   -2.2390 C   0  0  0  0  0  0  0  0  0  0  0  0
   -9.9090    6.5570    0.3240 C   0  0  2  0  0  0  0  0  0  0  0  0
  -11.0020    5.5040    0.5760 C   0  0  0  0  0  0  0  0  0  0  0  0
  -12.3820    5.9090    0.1730 C   0  0  0  0  0  0  0  0  0  0  0  0
  -12.7790    7.1650   -0.1030 C   0  0  0  0  0  0  0  0  0  0  0  0
  -11.8220    8.3500    0.0730 C   0  0  1  0  0  0  0  0  0  0  0  0
  -12.5500    9.4970    0.8220 C   0  0  0  0  0  0  0  0  0  0  0  0
  -13.8580    9.8980    0.1480 C   0  0  0  0  0  0  0  0  0  0  0  0
  -14.8060    8.7060    0.0430 C   0  0  2  0  0  0  0  0  0  0  0  0
  -15.2120    8.3240    1.3610 O   0  0  0  0  0  0  0  0  0  0  0  0
  -14.1780    7.4860   -0.6850 C   0  0  0  0  0  0  0  0  0  0  0  0
  -14.0160    7.8050   -2.1920 C   0  0  0  0  0  0  0  0  0  0  0  0
  -15.1850    6.3070   -0.5970 C   0  0  0  0  0  0  0  0  0  0  0  0
  -10.4050    8.0090    0.7080 C   0  0  1  0  0  0  0  0  0  0  0  0
  -10.4950    8.0530    2.2640 C   0  0  0  0  0  0  0  0  0  0  0  0
   -9.3740    9.1240    0.2920 C   0  0  0  0  0  0  0  0  0  0  0  0
   -8.6280    8.9180   -1.0410 C   0  0  0  0  0  0  0  0  0  0  0  0
   -8.0340    7.5080   -1.1240 C   0  0  2  0  0  0  0  0  0  0  0  0
   -6.9790    7.3650    0.0250 C   0  0  0  0  0  0  0  0  0  0  0  0
   -4.5876    6.0138   -2.8828 H   0  0  0  0  0  0  0  0  0  0  0  0
   -5.8193    6.0987   -4.1876 H   0  0  0  0  0  0  0  0  0  0  0  0
   -4.4308    7.2383   -4.1876 H   0  0  0  0  0  0  0  0  0  0  0  0
   -6.0327    8.6140   -3.2967 H   0  0  0  0  0  0  0  0  0  0  0  0
   -5.5464    9.0458   -1.0972 H   0  0  0  0  0  0  0  0  0  0  0  0
   -5.6024    7.2745   -0.6475 H   0  0  0  0  0  0  0  0  0  0  0  0
   -3.4314    6.9017   -1.2255 H   0  0  0  0  0  0  0  0  0  0  0  0
   -3.4158    8.2440   -2.4443 H   0  0  0  0  0  0  0  0  0  0  0  0
   -3.4771    8.2449    0.3944 H   0  0  0  0  0  0  0  0  0  0  0  0
    0.0471    9.0698   -1.6986 H   0  0  0  0  0  0  0  0  0  0  0  0
   -1.4527    8.5293   -2.5264 H   0  0  0  0  0  0  0  0  0  0  0  0
   -1.0037   10.2686   -2.5264 H   0  0  0  0  0  0  0  0  0  0  0  0
   -1.4978    9.6965    1.4375 H   0  0  0  0  0  0  0  0  0  0  0  0
    0.0237    9.5633    0.4920 H   0  0  0  0  0  0  0  0  0  0  0  0
   -0.9019   11.1027    0.4920 H   0  0  0  0  0  0  0  0  0  0  0  0
   -7.8897    7.5702   -3.3046 H   0  0  0  0  0  0  0  0  0  0  0  0
   -7.6485    5.1692   -3.4065 H   0  0  0  0  0  0  0  0  0  0  0  0
   -6.3804    5.1663   -2.1620 H   0  0  0  0  0  0  0  0  0  0  0  0
   -9.1016    4.3890   -1.7618 H   0  0  0  0  0  0  0  0  0  0  0  0
   -7.9732    4.7394   -0.4554 H   0  0  0  0  0  0  0  0  0  0  0  0
  -11.2510    6.7060   -1.8246 H   0  0  0  0  0  0  0  0  0  0  0  0
   -9.9908    7.4621   -2.8575 H   0  0  0  0  0  0  0  0  0  0  0  0
  -10.2005    5.6781   -2.8575 H   0  0  0  0  0  0  0  0  0  0  0  0
   -9.0895    6.3080    1.0143 H   0  0  0  0  0  0  0  0  0  0  0  0
  -10.7361    4.5966    0.0139 H   0  0  0  0  0  0  0  0  0  0  0  0
  -11.0345    5.3533    1.6651 H   0  0  0  0  0  0  0  0  0  0  0  0
  -13.1377    5.1135    0.0952 H   0  0  0  0  0  0  0  0  0  0  0  0
  -11.5546    8.6780   -0.9423 H   0  0  0  0  0  0  0  0  0  0  0  0
  -12.7691    9.1651    1.8476 H   0  0  0  0  0  0  0  0  0  0  0  0
  -11.8872   10.3748    0.8134 H   0  0  0  0  0  0  0  0  0  0  0  0
  -14.3399   10.6900    0.7400 H   0  0  0  0  0  0  0  0  0  0  0  0
  -13.6337   10.2584   -0.8668 H   0  0  0  0  0  0  0  0  0  0  0  0
  -15.6681    9.0217   -0.5628 H   0  0  0  0  0  0  0  0  0  0  0  0
  -14.6080    8.7510    1.9910 H   0  0  0  0  0  0  0  0  0  0  0  0
  -13.5208    8.7802   -2.3092 H   0  0  0  0  0  0  0  0  0  0  0  0
  -13.4053    7.0240   -2.6685 H   0  0  0  0  0  0  0  0  0  0  0  0
  -15.0069    7.8374   -2.6685 H   0  0  0  0  0  0  0  0  0  0  0  0
  -15.3846    6.0733    0.4592 H   0  0  0  0  0  0  0  0  0  0  0  0
  -16.1248    6.5896   -1.0939 H   0  0  0  0  0  0  0  0  0  0  0  0
  -14.7589    5.4230   -1.0939 H   0  0  0  0  0  0  0  0  0  0  0  0
   -9.5864    7.6088    2.6965 H   0  0  0  0  0  0  0  0  0  0  0  0
  -10.5866    9.0975    2.5966 H   0  0  0  0  0  0  0  0  0  0  0  0
  -11.3755    7.4838    2.5966 H   0  0  0  0  0  0  0  0  0  0  0  0
   -9.9222   10.0752    0.2231 H   0  0  0  0  0  0  0  0  0  0  0  0
   -8.5930    9.0973    1.0661 H   0  0  0  0  0  0  0  0  0  0  0  0
   -9.3324    9.0615   -1.8736 H   0  0  0  0  0  0  0  0  0  0  0  0
   -7.8078    9.6485   -1.1008 H   0  0  0  0  0  0  0  0  0  0  0  0
   -7.4859    7.4337    0.9988 H   0  0  0  0  0  0  0  0  0  0  0  0
   -6.4758    6.3904   -0.0585 H   0  0  0  0  0  0  0  0  0  0  0  0
   -6.2345    8.1704   -0.0585 H   0  0  0  0  0  0  0  0  0  0  0  0
  1  2  1  0
  2  3  1  0
  3  4  1  0
  4  5  1  0
  5  6  1  0
  6  7  1  0
  7  8  1  0
  7  9  1  0
  2 10  1  0
 10 11  1  0
 11 12  1  0
 12 13  1  0
 13 14  1  6
 13 15  1  0
 15 16  1  0
 16 17  1  0
 17 18  2  0
 18 19  1  0
 19 20  1  0
 20 21  1  0
 21 22  1  0
 22 23  1  0
 22 24  1  0
 24 25  1  0
 24 26  1  0
 19 27  1  0
 27 28  1  1
 27 29  1  0
 29 30  1  0
 30 31  1  0
 31 32  1  1
  7  5  1  0
 31 10  1  0
 31 13  1  0
 27 15  1  0
 24 18  1  0
  1 33  1  0
  1 34  1  0
  1 35  1  0
  2 36  1  6
  3 37  1  0
  3 38  1  0
  4 39  1  0
  4 40  1  0
  5 41  1  1
  8 42  1  0
  8 43  1  0
  8 44  1  0
  9 45  1  0
  9 46  1  0
  9 47  1  0
 10 48  1  6
 11 49  1  0
 11 50  1  0
 12 51  1  0
 12 52  1  0
 14 53  1  0
 14 54  1  0
 14 55  1  0
 15 56  1  1
 16 57  1  0
 16 58  1  0
 17 59  1  0
 19 60  1  6
 20 61  1  0
 20 62  1  0
 21 63  1  0
 21 64  1  0
 22 65  1  6
 23 66  1  0
 25 67  1  0
 25 68  1  0
 25 69  1  0
 26 70  1  0
 26 71  1  0
 26 72  1  0
 28 73  1  0
 28 74  1  0
 28 75  1  0
 29 76  1  0
 29 77  1  0
 30 78  1  0
 30 79  1  0
 32 80  1  0
 32 81  1  0
 32 82  1  0
M  END
>  <meeko>  (14) 
{"is_sidechain": [false], "intermolecular_energy": 2.731, "internal_energy": -0.839}

$$$$
EPH_relaxed_0001_pdb2pqr_Repair_383_r2_0001_out
     RDKit          3D

 82 86  0  0  0  0  0  0  0  0999 V2000
   -2.1860   10.0480    0.0060 C   0  0  0  0  0  0  0  0  0  0  0  0
   -1.0520   10.4440   -0.9440 C   0  0  2  0  0  0  0  0  0  0  0  0
   -0.0190    9.3130   -1.1200 C   0  0  0  0  0  0  0  0  0  0  0  0
   -0.6110    7.9100   -0.9670 C   0  0  0  0  0  0  0  0  0  0  0  0
   -1.3980    7.5050   -2.1760 C   0  0  2  0  0  0  0  0  0  0  0  0
   -2.1190    8.5720   -2.8060 O   0  0  0  0  0  0  0  0  0  0  0  0
   -2.9140    7.5210   -2.2320 C   0  0  0  0  0  0  0  0  0  0  0  0
   -3.7340    7.9520   -1.0560 C   0  0  0  0  0  0  0  0  0  0  0  0
   -3.6020    6.6630   -3.2470 C   0  0  0  0  0  0  0  0  0  0  0  0
   -0.3640   11.7050   -0.4330 C   0  0  1  0  0  0  0  0  0  0  0  0
    0.8770   11.3930    0.4450 C   0  0  0  0  0  0  0  0  0  0  0  0
    1.9160   12.5090    0.1640 C   0  0  0  0  0  0  0  0  0  0  0  0
    1.1250   13.5940   -0.6020 C   0  0  1  0  0  0  0  0  0  0  0  0
    0.3730   14.3990    0.5050 C   0  0  0  0  0  0  0  0  0  0  0  0
    1.9620   14.5330   -1.5310 C   0  0  2  0  0  0  0  0  0  0  0  0
    3.0110   15.3970   -0.8100 C   0  0  0  0  0  0  0  0  0  0  0  0
    2.5330   16.7370   -0.3570 C   0  0  0  0  0  0  0  0  0  0  0  0
    1.4030   17.3430   -0.7670 C   0  0  0  0  0  0  0  0  0  0  0  0
    0.5230   16.7160   -1.8550 C   0  0  1  0  0  0  0  0  0  0  0  0
    0.1350   17.8000   -2.8950 C   0  0  0  0  0  0  0  0  0  0  0  0
   -0.5140   19.0220   -2.2520 C   0  0  0  0  0  0  0  0  0  0  0  0
    0.4150   19.6520   -1.2180 C   0  0  2  0  0  0  0  0  0  0  0  0
    1.5560   20.1930   -1.8910 O   0  0  0  0  0  0  0  0  0  0  0  0
    0.8810   18.6520   -0.1230 C   0  0  0  0  0  0  0  0  0  0  0  0
   -0.3110   18.2970    0.7990 C   0  0  0  0  0  0  0  0  0  0  0  0
    1.9220   19.3750    0.7730 C   0  0  0  0  0  0  0  0  0  0  0  0
    1.0920   15.3960   -2.5330 C   0  0  1  0  0  0  0  0  0  0  0  0
    2.0270   15.7700   -3.7240 C   0  0  0  0  0  0  0  0  0  0  0  0
   -0.1030   14.5770   -3.1470 C   0  0  0  0  0  0  0  0  0  0  0  0
   -0.8130   13.5780   -2.2120 C   0  0  0  0  0  0  0  0  0  0  0  0
    0.2010   12.6850   -1.4920 C   0  0  2  0  0  0  0  0  0  0  0  0
    0.9570   11.8470   -2.5780 C   0  0  0  0  0  0  0  0  0  0  0  0
   -1.8501   10.1653    1.0469 H   0  0  0  0  0  0  0  0  0  0  0  0
   -3.0573   10.6951   -0.1733 H   0  0  0  0  0  0  0  0  0  0  0  0
   -2.4651    8.9992   -0.1733 H   0  0  0  0  0  0  0  0  0  0  0  0
   -1.4984   10.6375   -1.9305 H   0  0  0  0  0  0  0  0  0  0  0  0
    0.4201    9.3970   -2.1251 H   0  0  0  0  0  0  0  0  0  0  0  0
    0.7298    9.4346   -0.3234 H   0  0  0  0  0  0  0  0  0  0  0  0
    0.2087    7.1916   -0.8183 H   0  0  0  0  0  0  0  0  0  0  0  0
   -1.2909    7.9174   -0.1023 H   0  0  0  0  0  0  0  0  0  0  0  0
   -0.6590    6.7295   -2.4260 H   0  0  0  0  0  0  0  0  0  0  0  0
   -3.2137    7.6785   -0.1262 H   0  0  0  0  0  0  0  0  0  0  0  0
   -3.8775    9.0421   -1.0888 H   0  0  0  0  0  0  0  0  0  0  0  0
   -4.7133    7.4521   -1.0888 H   0  0  0  0  0  0  0  0  0  0  0  0
   -4.2106    5.9040   -2.7336 H   0  0  0  0  0  0  0  0  0  0  0  0
   -4.2513    7.2890   -3.8767 H   0  0  0  0  0  0  0  0  0  0  0  0
   -2.8499    6.1653   -3.8767 H   0  0  0  0  0  0  0  0  0  0  0  0
   -1.2049   12.1716    0.1010 H   0  0  0  0  0  0  0  0  0  0  0  0
    0.5982   11.3943    1.5091 H   0  0  0  0  0  0  0  0  0  0  0  0
    1.2891   10.4010    0.2080 H   0  0  0  0  0  0  0  0  0  0  0  0
    2.3167   12.9126    1.1056 H   0  0  0  0  0  0  0  0  0  0  0  0
    2.7799   12.1402   -0.4084 H   0  0  0  0  0  0  0  0  0  0  0  0
    0.6983   14.0508    1.4964 H   0  0  0  0  0  0  0  0  0  0  0  0
    0.6019   15.4697    0.3991 H   0  0  0  0  0  0  0  0  0  0  0  0
   -0.7108   14.2435    0.3991 H   0  0  0  0  0  0  0  0  0  0  0  0
    2.5327   13.8160   -2.1395 H   0  0  0  0  0  0  0  0  0  0  0  0
    3.3573   14.8429    0.0749 H   0  0  0  0  0  0  0  0  0  0  0  0
    3.8039   15.5907   -1.5475 H   0  0  0  0  0  0  0  0  0  0  0  0
    3.1565   17.2741    0.3730 H   0  0  0  0  0  0  0  0  0  0  0  0
   -0.3788   16.3496   -1.3426 H   0  0  0  0  0  0  0  0  0  0  0  0
    1.0437   18.1213   -3.4252 H   0  0  0  0  0  0  0  0  0  0  0  0
   -0.5991   17.3552   -3.5829 H   0  0  0  0  0  0  0  0  0  0  0  0
   -0.7387   19.7632   -3.0331 H   0  0  0  0  0  0  0  0  0  0  0  0
   -1.4378   18.7039   -1.7466 H   0  0  0  0  0  0  0  0  0  0  0  0
   -0.1530   20.4404   -0.7024 H   0  0  0  0  0  0  0  0  0  0  0  0
    2.1270   19.4490   -2.1480 H   0  0  0  0  0  0  0  0  0  0  0  0
   -0.0014   18.3892    1.8505 H   0  0  0  0  0  0  0  0  0  0  0  0
   -1.1456   18.9856    0.6008 H   0  0  0  0  0  0  0  0  0  0  0  0
   -0.6329   17.2640    0.6008 H   0  0  0  0  0  0  0  0  0  0  0  0
    1.6762   19.2043    1.8315 H   0  0  0  0  0  0  0  0  0  0  0  0
    2.9261   18.9789    0.5612 H   0  0  0  0  0  0  0  0  0  0  0  0
    1.9014   20.4542    0.5612 H   0  0  0  0  0  0  0  0  0  0  0  0
    2.9821   16.1520   -3.3344 H   0  0  0  0  0  0  0  0  0  0  0  0
    2.2127   14.8770   -4.3388 H   0  0  0  0  0  0  0  0  0  0  0  0
    1.5456   16.5448   -4.3388 H   0  0  0  0  0  0  0  0  0  0  0  0
   -0.8561   15.2985   -3.4969 H   0  0  0  0  0  0  0  0  0  0  0  0
    0.3471   13.9605   -3.9390 H   0  0  0  0  0  0  0  0  0  0  0  0
   -1.3953   14.1365   -1.4643 H   0  0  0  0  0  0  0  0  0  0  0  0
   -1.4741   12.9404   -2.8173 H   0  0  0  0  0  0  0  0  0  0  0  0
    1.6157   11.1169   -2.0849 H   0  0  0  0  0  0  0  0  0  0  0  0
    0.2263   11.3162   -3.2059 H   0  0  0  0  0  0  0  0  0  0  0  0
    1.5600   12.5194   -3.2059 H   0  0  0  0  0  0  0  0  0  0  0  0
  1  2  1  0
  2  3  1  0
  3  4  1  0
  4  5  1  0
  5  6  1  0
  6  7  1  0
  7  8  1  0
  7  9  1  0
  2 10  1  0
 10 11  1  0
 11 12  1  0
 12 13  1  0
 13 14  1  1
 13 15  1  0
 15 16  1  0
 16 17  1  0
 17 18  2  0
 18 19  1  0
 19 20  1  0
 20 21  1  0
 21 22  1  0
 22 23  1  0
 22 24  1  0
 24 25  1  0
 24 26  1  0
 19 27  1  0
 27 28  1  6
 27 29  1  0
 29 30  1  0
 30 31  1  0
 31 32  1  6
  7  5  1  0
 31 10  1  0
 31 13  1  0
 27 15  1  0
 24 18  1  0
  1 33  1  0
  1 34  1  0
  1 35  1  0
  2 36  1  6
  3 37  1  0
  3 38  1  0
  4 39  1  0
  4 40  1  0
  5 41  1  6
  8 42  1  0
  8 43  1  0
  8 44  1  0
  9 45  1  0
  9 46  1  0
  9 47  1  0
 10 48  1  1
 11 49  1  0
 11 50  1  0
 12 51  1  0
 12 52  1  0
 14 53  1  0
 14 54  1  0
 14 55  1  0
 15 56  1  6
 16 57  1  0
 16 58  1  0
 17 59  1  0
 19 60  1  1
 20 61  1  0
 20 62  1  0
 21 63  1  0
 21 64  1  0
 22 65  1  1
 23 66  1  0
 25 67  1  0
 25 68  1  0
 25 69  1  0
 26 70  1  0
 26 71  1  0
 26 72  1  0
 28 73  1  0
 28 74  1  0
 28 75  1  0
 29 76  1  0
 29 77  1  0
 30 78  1  0
 30 79  1  0
 32 80  1  0
 32 81  1  0
 32 82  1  0
M  END
>  <meeko>  (15) 
{"is_sidechain": [false], "intermolecular_energy": 2.731, "internal_energy": -0.839}

$$$$
EPH_relaxed_0001_pdb2pqr_Repair_383_r2_0001_out
     RDKit          3D

 82 86  0  0  0  0  0  0  0  0999 V2000
   -2.1460    7.8160   -2.1560 C   0  0  0  0  0  0  0  0  0  0  0  0
   -2.1230    8.4320   -0.7540 C   0  0  2  0  0  0  0  0  0  0  0  0
   -3.5120    8.4100   -0.0870 C   0  0  0  0  0  0  0  0  0  0  0  0
   -4.6700    8.6160   -1.0680 C   0  0  0  0  0  0  0  0  0  0  0  0
   -5.7720    7.6260   -0.8420 C   0  0  2  0  0  0  0  0  0  0  0  0
   -5.3610    6.2530   -0.8800 O   0  0  0  0  0  0  0  0  0  0  0  0
   -6.2710    6.6710   -1.9100 C   0  0  0  0  0  0  0  0  0  0  0  0
   -5.6810    6.6610   -3.2850 C   0  0  0  0  0  0  0  0  0  0  0  0
   -7.6460    6.0960   -1.7690 C   0  0  0  0  0  0  0  0  0  0  0  0
   -1.6010    9.8630   -0.8240 C   0  0  1  0  0  0  0  0  0  0  0  0
   -1.1420   10.3990    0.5580 C   0  0  0  0  0  0  0  0  0  0  0  0
    0.0730   11.3270    0.2960 C   0  0  0  0  0  0  0  0  0  0  0  0
    0.0660   11.5560   -1.2330 C   0  0  1  0  0  0  0  0  0  0  0  0
   -0.9980   12.6740   -1.4660 C   0  0  0  0  0  0  0  0  0  0  0  0
    1.4400   11.9230   -1.8840 C   0  0  2  0  0  0  0  0  0  0  0  0
    2.0600   13.2440   -1.3970 C   0  0  0  0  0  0  0  0  0  0  0  0
    1.6830   14.4540   -2.1850 C   0  0  0  0  0  0  0  0  0  0  0  0
    1.1120   14.4470   -3.4040 C   0  0  0  0  0  0  0  0  0  0  0  0
    0.8770   13.1310   -4.1560 C   0  0  1  0  0  0  0  0  0  0  0  0
    1.3480   13.2840   -5.6260 C   0  0  0  0  0  0  0  0  0  0  0  0
    0.7050   14.4780   -6.3250 C   0  0  0  0  0  0  0  0  0  0  0  0
    1.0090   15.7750   -5.5800 C   0  0  2  0  0  0  0  0  0  0  0  0
    2.4110   16.0450   -5.6770 O   0  0  0  0  0  0  0  0  0  0  0  0
    0.5870   15.7350   -4.0840 C   0  0  0  0  0  0  0  0  0  0  0  0
   -0.9580   15.7460   -3.9790 C   0  0  0  0  0  0  0  0  0  0  0  0
    1.0770   17.0480   -3.4150 C   0  0  0  0  0  0  0  0  0  0  0  0
    1.4570   11.8230   -3.4630 C   0  0  1  0  0  0  0  0  0  0  0  0
    2.9450   11.6150   -3.8800 C   0  0  0  0  0  0  0  0  0  0  0  0
    0.6670   10.5680   -3.9920 C   0  0  0  0  0  0  0  0  0  0  0  0
   -0.6190   10.1860   -3.2340 C   0  0  0  0  0  0  0  0  0  0  0  0
   -0.3680   10.1270   -1.7240 C   0  0  2  0  0  0  0  0  0  0  0  0
    0.6820    8.9950   -1.4570 C   0  0  0  0  0  0  0  0  0  0  0  0
   -2.1869    6.7198   -2.0742 H   0  0  0  0  0  0  0  0  0  0  0  0
   -3.0313    8.1764   -2.7004 H   0  0  0  0  0  0  0  0  0  0  0  0
   -1.2363    8.1094   -2.7004 H   0  0  0  0  0  0  0  0  0  0  0  0
   -1.4504    7.8204   -0.1347 H   0  0  0  0  0  0  0  0  0  0  0  0
   -3.6445    7.4361    0.4070 H   0  0  0  0  0  0  0  0  0  0  0  0
   -3.5402    9.2489    0.6240 H   0  0  0  0  0  0  0  0  0  0  0  0
   -5.0713    9.6318   -0.9373 H   0  0  0  0  0  0  0  0  0  0  0  0
   -4.2843    8.4722   -2.0881 H   0  0  0  0  0  0  0  0  0  0  0  0
   -6.2962    8.3267   -0.1755 H   0  0  0  0  0  0  0  0  0  0  0  0
   -4.5835    6.6424   -3.2129 H   0  0  0  0  0  0  0  0  0  0  0  0
   -6.0281    5.7686   -3.8264 H   0  0  0  0  0  0  0  0  0  0  0  0
   -5.9976    7.5646   -3.8264 H   0  0  0  0  0  0  0  0  0  0  0  0
   -7.8927    5.9929   -0.7020 H   0  0  0  0  0  0  0  0  0  0  0  0
   -8.3743    6.7649   -2.2507 H   0  0  0  0  0  0  0  0  0  0  0  0
   -7.6813    5.1077   -2.2507 H   0  0  0  0  0  0  0  0  0  0  0  0
   -2.4865   10.3624   -1.2442 H   0  0  0  0  0  0  0  0  0  0  0  0
   -1.9559   10.9656    1.0341 H   0  0  0  0  0  0  0  0  0  0  0  0
   -0.8706    9.5732    1.2320 H   0  0  0  0  0  0  0  0  0  0  0  0
   -0.0438   12.2804    0.8320 H   0  0  0  0  0  0  0  0  0  0  0  0
    1.0177   10.8868    0.6476 H   0  0  0  0  0  0  0  0  0  0  0  0
   -1.3547   13.0488   -0.4953 H   0  0  0  0  0  0  0  0  0  0  0  0
   -0.5440   13.4997   -2.0335 H   0  0  0  0  0  0  0  0  0  0  0  0
   -1.8452   12.2614   -2.0335 H   0  0  0  0  0  0  0  0  0  0  0  0
    2.0995   11.1271   -1.5077 H   0  0  0  0  0  0  0  0  0  0  0  0
    1.7437   13.4044   -0.3557 H   0  0  0  0  0  0  0  0  0  0  0  0
    3.1478   13.1311   -1.5147 H   0  0  0  0  0  0  0  0  0  0  0  0
    1.8892   15.4346   -1.7313 H   0  0  0  0  0  0  0  0  0  0  0  0
   -0.2083   12.9541   -4.1276 H   0  0  0  0  0  0  0  0  0  0  0  0
    2.4400   13.4165   -5.6344 H   0  0  0  0  0  0  0  0  0  0  0  0
    1.0461   12.3766   -6.1695 H   0  0  0  0  0  0  0  0  0  0  0  0
    1.0991   14.5505   -7.3494 H   0  0  0  0  0  0  0  0  0  0  0  0
   -0.3849   14.3299   -6.3417 H   0  0  0  0  0  0  0  0  0  0  0  0
    0.4173   16.5732   -6.0521 H   0  0  0  0  0  0  0  0  0  0  0  0
    2.8400   15.6570   -4.8960 H   0  0  0  0  0  0  0  0  0  0  0  0
   -1.2535   15.7481   -2.9194 H   0  0  0  0  0  0  0  0  0  0  0  0
   -1.3526   16.6470   -4.4715 H   0  0  0  0  0  0  0  0  0  0  0  0
   -1.3654   14.8507   -4.4715 H   0  0  0  0  0  0  0  0  0  0  0  0
    1.0365   16.9394   -2.3211 H   0  0  0  0  0  0  0  0  0  0  0  0
    2.1123   17.2533   -3.7250 H   0  0  0  0  0  0  0  0  0  0  0  0
    0.4293   17.8813   -3.7250 H   0  0  0  0  0  0  0  0  0  0  0  0
    3.5696   11.5277   -2.9787 H   0  0  0  0  0  0  0  0  0  0  0  0
    3.0332   10.6958   -4.4777 H   0  0  0  0  0  0  0  0  0  0  0  0
    3.2819   12.4748   -4.4777 H   0  0  0  0  0  0  0  0  0  0  0  0
    0.3903   10.7657   -5.0381 H   0  0  0  0  0  0  0  0  0  0  0  0
    1.3492    9.7171   -3.8483 H   0  0  0  0  0  0  0  0  0  0  0  0
   -1.3953   10.9374   -3.4407 H   0  0  0  0  0  0  0  0  0  0  0  0
   -0.9450    9.1922   -3.5746 H   0  0  0  0  0  0  0  0  0  0  0  0
    0.8075    8.8597   -0.3726 H   0  0  0  0  0  0  0  0  0  0  0  0
    0.3293    8.0545   -1.9055 H   0  0  0  0  0  0  0  0  0  0  0  0
    1.6463    9.2761   -1.9055 H   0  0  0  0  0  0  0  0  0  0  0  0
  1  2  1  0
  2  3  1  0
  3  4  1  0
  4  5  1  0
  5  6  1  0
  6  7  1  0
  7  8  1  0
  7  9  1  0
  2 10  1  0
 10 11  1  0
 11 12  1  0
 12 13  1  0
 13 14  1  1
 13 15  1  0
 15 16  1  0
 16 17  1  0
 17 18  2  0
 18 19  1  0
 19 20  1  0
 20 21  1  0
 21 22  1  0
 22 23  1  0
 22 24  1  0
 24 25  1  0
 24 26  1  0
 19 27  1  0
 27 28  1  6
 27 29  1  0
 29 30  1  0
 30 31  1  0
 31 32  1  6
  7  5  1  0
 31 10  1  0
 31 13  1  0
 27 15  1  0
 24 18  1  0
  1 33  1  0
  1 34  1  0
  1 35  1  0
  2 36  1  1
  3 37  1  0
  3 38  1  0
  4 39  1  0
  4 40  1  0
  5 41  1  1
  8 42  1  0
  8 43  1  0
  8 44  1  0
  9 45  1  0
  9 46  1  0
  9 47  1  0
 10 48  1  6
 11 49  1  0
 11 50  1  0
 12 51  1  0
 12 52  1  0
 14 53  1  0
 14 54  1  0
 14 55  1  0
 15 56  1  1
 16 57  1  0
 16 58  1  0
 17 59  1  0
 19 60  1  6
 20 61  1  0
 20 62  1  0
 21 63  1  0
 21 64  1  0
 22 65  1  6
 23 66  1  0
 25 67  1  0
 25 68  1  0
 25 69  1  0
 26 70  1  0
 26 71  1  0
 26 72  1  0
 28 73  1  0
 28 74  1  0
 28 75  1  0
 29 76  1  0
 29 77  1  0
 30 78  1  0
 30 79  1  0
 32 80  1  0
 32 81  1  0
 32 82  1  0
M  END
>  <meeko>  (16) 
{"is_sidechain": [false], "intermolecular_energy": 2.731, "internal_energy": -0.839}

$$$$
EPH_relaxed_0001_pdb2pqr_Repair_383_r2_0001_out
     RDKit          3D

 82 86  0  0  0  0  0  0  0  0999 V2000
   -4.4350    7.2020    0.7460 C   0  0  0  0  0  0  0  0  0  0  0  0
   -4.4410    8.2510   -0.3700 C   0  0  2  0  0  0  0  0  0  0  0  0
   -3.4010    9.3630   -0.1270 C   0  0  0  0  0  0  0  0  0  0  0  0
   -1.9540    8.9080   -0.3300 C   0  0  0  0  0  0  0  0  0  0  0  0
   -1.4410    9.2780   -1.6890 C   0  0  2  0  0  0  0  0  0  0  0  0
   -0.5250    8.3360   -2.2600 O   0  0  0  0  0  0  0  0  0  0  0  0
    0.0060    9.6380   -1.9680 C   0  0  0  0  0  0  0  0  0  0  0  0
    1.0320    9.6470   -0.8780 C   0  0  0  0  0  0  0  0  0  0  0  0
    0.3200   10.4490   -3.1860 C   0  0  0  0  0  0  0  0  0  0  0  0
   -5.8320    8.8590   -0.5040 C   0  0  1  0  0  0  0  0  0  0  0  0
   -5.8200   10.2210   -1.2470 C   0  0  0  0  0  0  0  0  0  0  0  0
   -7.1310   10.2930   -2.0720 C   0  0  0  0  0  0  0  0  0  0  0  0
   -7.9990    9.1360   -1.5250 C   0  0  1  0  0  0  0  0  0  0  0  0
   -8.6420    9.6990   -0.2190 C   0  0  0  0  0  0  0  0  0  0  0  0
   -9.0790    8.5630   -2.5000 C   0  0  2  0  0  0  0  0  0  0  0  0
  -10.1680    9.5630   -2.9280 C   0  0  0  0  0  0  0  0  0  0  0  0
  -11.3790    9.5990   -2.0550 C   0  0  0  0  0  0  0  0  0  0  0  0
  -11.7130    8.6680   -1.1430 C   0  0  0  0  0  0  0  0  0  0  0  0
  -10.8850    7.3870   -0.9840 C   0  0  1  0  0  0  0  0  0  0  0  0
  -11.8340    6.1620   -0.9140 C   0  0  0  0  0  0  0  0  0  0  0  0
  -12.8970    6.3070    0.1710 C   0  0  0  0  0  0  0  0  0  0  0  0
  -13.7380    7.5610   -0.0540 C   0  0  2  0  0  0  0  0  0  0  0  0
  -14.5020    7.3950   -1.2520 O   0  0  0  0  0  0  0  0  0  0  0  0
  -12.8880    8.8590   -0.1510 C   0  0  0  0  0  0  0  0  0  0  0  0
  -12.2990    9.2020    1.2400 C   0  0  0  0  0  0  0  0  0  0  0  0
  -13.8420   10.0280   -0.5190 C   0  0  0  0  0  0  0  0  0  0  0  0
   -9.7080    7.1880   -2.0340 C   0  0  1  0  0  0  0  0  0  0  0  0
  -10.2530    6.4900   -3.3180 C   0  0  0  0  0  0  0  0  0  0  0  0
   -8.6330    6.2140   -1.4220 C   0  0  0  0  0  0  0  0  0  0  0  0
   -7.5230    6.8550   -0.5670 C   0  0  0  0  0  0  0  0  0  0  0  0
   -6.8900    8.0460   -1.2920 C   0  0  2  0  0  0  0  0  0  0  0  0
   -6.2160    7.5070   -2.6000 C   0  0  0  0  0  0  0  0  0  0  0  0
   -4.4379    7.7065    1.7235 H   0  0  0  0  0  0  0  0  0  0  0  0
   -5.3295    6.5679    0.6580 H   0  0  0  0  0  0  0  0  0  0  0  0
   -3.5333    6.5782    0.6580 H   0  0  0  0  0  0  0  0  0  0  0  0
   -4.1665    7.7411   -1.3052 H   0  0  0  0  0  0  0  0  0  0  0  0
   -3.6063   10.1887   -0.8242 H   0  0  0  0  0  0  0  0  0  0  0  0
   -3.4971    9.6681    0.9255 H   0  0  0  0  0  0  0  0  0  0  0  0
   -1.3202    9.3850    0.4321 H   0  0  0  0  0  0  0  0  0  0  0  0
   -1.9236    7.8122   -0.2391 H   0  0  0  0  0  0  0  0  0  0  0  0
   -2.3872    9.7825   -1.9342 H   0  0  0  0  0  0  0  0  0  0  0  0
    0.5282    9.6426    0.0998 H   0  0  0  0  0  0  0  0  0  0  0  0
    1.6688    8.7544   -0.9664 H   0  0  0  0  0  0  0  0  0  0  0  0
    1.6530   10.5506   -0.9664 H   0  0  0  0  0  0  0  0  0  0  0  0
    0.7017   11.4348   -2.8818 H   0  0  0  0  0  0  0  0  0  0  0  0
    1.0821    9.9299   -3.7857 H   0  0  0  0  0  0  0  0  0  0  0  0
   -0.5930   10.5784   -3.7857 H   0  0  0  0  0  0  0  0  0  0  0  0
   -6.1127    8.9130    0.5582 H   0  0  0  0  0  0  0  0  0  0  0  0
   -5.7829   11.0475   -0.5221 H   0  0  0  0  0  0  0  0  0  0  0  0
   -4.9382   10.3071   -1.8989 H   0  0  0  0  0  0  0  0  0  0  0  0
   -7.6327   11.2602   -1.9206 H   0  0  0  0  0  0  0  0  0  0  0  0
   -6.9494   10.2036   -3.1532 H   0  0  0  0  0  0  0  0  0  0  0  0
   -8.1402    9.2596    0.6557 H   0  0  0  0  0  0  0  0  0  0  0  0
   -8.5278   10.7928   -0.1961 H   0  0  0  0  0  0  0  0  0  0  0  0
   -9.7112    9.4414   -0.1961 H   0  0  0  0  0  0  0  0  0  0  0  0
   -8.4919    8.3546   -3.4066 H   0  0  0  0  0  0  0  0  0  0  0  0
   -9.7228   10.5688   -2.9334 H   0  0  0  0  0  0  0  0  0  0  0  0
  -10.5155    9.2300   -3.9171 H   0  0  0  0  0  0  0  0  0  0  0  0
  -12.0551   10.4594   -2.1671 H   0  0  0  0  0  0  0  0  0  0  0  0
  -10.3413    7.4922   -0.0336 H   0  0  0  0  0  0  0  0  0  0  0  0
  -12.3357    6.0485   -1.8863 H   0  0  0  0  0  0  0  0  0  0  0  0
  -11.2238    5.2804   -0.6681 H   0  0  0  0  0  0  0  0  0  0  0  0
  -13.5537    5.4248    0.1519 H   0  0  0  0  0  0  0  0  0  0  0  0
  -12.3947    6.3912    1.1460 H   0  0  0  0  0  0  0  0  0  0  0  0
  -14.3936    7.6803    0.8212 H   0  0  0  0  0  0  0  0  0  0  0  0
  -14.8490    8.2680   -1.5030 H   0  0  0  0  0  0  0  0  0  0  0  0
  -12.9644    8.8145    2.0256 H   0  0  0  0  0  0  0  0  0  0  0  0
  -11.3052    8.7414    1.3411 H   0  0  0  0  0  0  0  0  0  0  0  0
  -12.2092   10.2937    1.3411 H   0  0  0  0  0  0  0  0  0  0  0  0
  -14.2226   10.4944    0.4017 H   0  0  0  0  0  0  0  0  0  0  0  0
  -13.2937   10.7767   -1.1097 H   0  0  0  0  0  0  0  0  0  0  0  0
  -14.6854    9.6409   -1.1097 H   0  0  0  0  0  0  0  0  0  0  0  0
  -10.9065    5.6530   -3.0310 H   0  0  0  0  0  0  0  0  0  0  0  0
  -10.8263    7.2151   -3.9142 H   0  0  0  0  0  0  0  0  0  0  0  0
   -9.4105    6.1096   -3.9142 H   0  0  0  0  0  0  0  0  0  0  0  0
   -9.1637    5.4879   -0.7887 H   0  0  0  0  0  0  0  0  0  0  0  0
   -8.1139    5.7769   -2.2877 H   0  0  0  0  0  0  0  0  0  0  0  0
   -7.9556    7.2010    0.3833 H   0  0  0  0  0  0  0  0  0  0  0  0
   -6.7428    6.1015   -0.3838 H   0  0  0  0  0  0  0  0  0  0  0  0
   -5.3822    6.8402   -2.3349 H   0  0  0  0  0  0  0  0  0  0  0  0
   -6.9573    6.9498   -3.1916 H   0  0  0  0  0  0  0  0  0  0  0  0
   -5.8354    8.3526   -3.1916 H   0  0  0  0  0  0  0  0  0  0  0  0
  1  2  1  0
  2  3  1  0
  3  4  1  0
  4  5  1  0
  5  6  1  0
  6  7  1  0
  7  8  1  0
  7  9  1  0
  2 10  1  0
 10 11  1  0
 11 12  1  0
 12 13  1  0
 13 14  1  1
 13 15  1  0
 15 16  1  0
 16 17  1  0
 17 18  2  0
 18 19  1  0
 19 20  1  0
 20 21  1  0
 21 22  1  0
 22 23  1  0
 22 24  1  0
 24 25  1  0
 24 26  1  0
 19 27  1  0
 27 28  1  6
 27 29  1  0
 29 30  1  0
 30 31  1  0
 31 32  1  6
  7  5  1  0
 31 10  1  0
 31 13  1  0
 27 15  1  0
 24 18  1  0
  1 33  1  0
  1 34  1  0
  1 35  1  0
  2 36  1  6
  3 37  1  0
  3 38  1  0
  4 39  1  0
  4 40  1  0
  5 41  1  6
  8 42  1  0
  8 43  1  0
  8 44  1  0
  9 45  1  0
  9 46  1  0
  9 47  1  0
 10 48  1  1
 11 49  1  0
 11 50  1  0
 12 51  1  0
 12 52  1  0
 14 53  1  0
 14 54  1  0
 14 55  1  0
 15 56  1  6
 16 57  1  0
 16 58  1  0
 17 59  1  0
 19 60  1  1
 20 61  1  0
 20 62  1  0
 21 63  1  0
 21 64  1  0
 22 65  1  1
 23 66  1  0
 25 67  1  0
 25 68  1  0
 25 69  1  0
 26 70  1  0
 26 71  1  0
 26 72  1  0
 28 73  1  0
 28 74  1  0
 28 75  1  0
 29 76  1  0
 29 77  1  0
 30 78  1  0
 30 79  1  0
 32 80  1  0
 32 81  1  0
 32 82  1  0
M  END
>  <meeko>  (17) 
{"is_sidechain": [false], "intermolecular_energy": 2.731, "internal_energy": -0.839}

$$$$
EPH_relaxed_0001_pdb2pqr_Repair_383_r2_0001_out
     RDKit          3D

 82 86  0  0  0  0  0  0  0  0999 V2000
  -14.3130    5.2620    0.6750 C   0  0  0  0  0  0  0  0  0  0  0  0
  -13.7770    6.6900    0.5420 C   0  0  2  0  0  0  0  0  0  0  0  0
  -14.9030    7.7110    0.2840 C   0  0  0  0  0  0  0  0  0  0  0  0
  -14.4610    9.1680    0.4490 C   0  0  0  0  0  0  0  0  0  0  0  0
  -15.2210   10.0840   -0.4620 C   0  0  2  0  0  0  0  0  0  0  0  0
  -15.2740    9.6580   -1.8300 O   0  0  0  0  0  0  0  0  0  0  0  0
  -14.5710   10.8850   -1.5750 C   0  0  0  0  0  0  0  0  0  0  0  0
  -13.0990   10.8080   -1.8340 C   0  0  0  0  0  0  0  0  0  0  0  0
  -15.2770   12.1020   -2.0870 C   0  0  0  0  0  0  0  0  0  0  0  0
  -12.7470    6.7550   -0.5800 C   0  0  1  0  0  0  0  0  0  0  0  0
  -13.2460    7.5720   -1.8020 C   0  0  0  0  0  0  0  0  0  0  0  0
  -12.0100    8.3010   -2.3870 C   0  0  0  0  0  0  0  0  0  0  0  0
  -10.7980    7.6290   -1.7000 C   0  0  1  0  0  0  0  0  0  0  0  0
  -10.5600    6.3130   -2.5040 C   0  0  0  0  0  0  0  0  0  0  0  0
   -9.4960    8.4880   -1.6000 C   0  0  2  0  0  0  0  0  0  0  0  0
   -8.8750    8.8910   -2.9490 C   0  0  0  0  0  0  0  0  0  0  0  0
   -7.8670    7.9360   -3.4970 C   0  0  0  0  0  0  0  0  0  0  0  0
   -7.2660    6.9500   -2.8040 C   0  0  0  0  0  0  0  0  0  0  0  0
   -7.5120    6.7820   -1.2990 C   0  0  1  0  0  0  0  0  0  0  0  0
   -6.1570    6.5740   -0.5730 C   0  0  0  0  0  0  0  0  0  0  0  0
   -5.3470    5.4240   -1.1640 C   0  0  0  0  0  0  0  0  0  0  0  0
   -5.0730    5.6560   -2.6480 C   0  0  2  0  0  0  0  0  0  0  0  0
   -4.2030    6.7840   -2.7850 O   0  0  0  0  0  0  0  0  0  0  0  0
   -6.3640    5.8880   -3.4810 C   0  0  0  0  0  0  0  0  0  0  0  0
   -7.1630    4.5650   -3.5810 C   0  0  0  0  0  0  0  0  0  0  0  0
   -5.9400    6.2500   -4.9300 C   0  0  0  0  0  0  0  0  0  0  0  0
   -8.4070    7.9020   -0.6130 C   0  0  1  0  0  0  0  0  0  0  0  0
   -7.5120    9.1020   -0.1740 C   0  0  0  0  0  0  0  0  0  0  0  0
   -9.0430    7.3170    0.7020 C   0  0  0  0  0  0  0  0  0  0  0  0
  -10.3900    6.5820    0.5560 C   0  0  0  0  0  0  0  0  0  0  0  0
  -11.3840    7.4180   -0.2560 C   0  0  2  0  0  0  0  0  0  0  0  0
  -11.6610    8.7390    0.5390 C   0  0  0  0  0  0  0  0  0  0  0  0
  -14.4097    5.0044    1.7400 H   0  0  0  0  0  0  0  0  0  0  0  0
  -15.2981    5.1935    0.1903 H   0  0  0  0  0  0  0  0  0  0  0  0
  -13.6163    4.5622    0.1903 H   0  0  0  0  0  0  0  0  0  0  0  0
  -13.3030    6.9568    1.4981 H   0  0  0  0  0  0  0  0  0  0  0  0
  -15.2683    7.5730   -0.7444 H   0  0  0  0  0  0  0  0  0  0  0  0
  -15.6848    7.5247    1.0350 H   0  0  0  0  0  0  0  0  0  0  0  0
  -14.6335    9.4772    1.4905 H   0  0  0  0  0  0  0  0  0  0  0  0
  -13.3940    9.2343    0.1900 H   0  0  0  0  0  0  0  0  0  0  0  0
  -15.9001   10.3715    0.3542 H   0  0  0  0  0  0  0  0  0  0  0  0
  -12.5591   10.7798   -0.8760 H   0  0  0  0  0  0  0  0  0  0  0  0
  -12.8749    9.8969   -2.4082 H   0  0  0  0  0  0  0  0  0  0  0  0
  -12.7811   11.6907   -2.4082 H   0  0  0  0  0  0  0  0  0  0  0  0
  -15.6279   12.7068   -1.2378 H   0  0  0  0  0  0  0  0  0  0  0  0
  -14.5840   12.6973   -2.6997 H   0  0  0  0  0  0  0  0  0  0  0  0
  -16.1378   11.7960   -2.6997 H   0  0  0  0  0  0  0  0  0  0  0  0
  -12.6081    5.6798   -0.7662 H   0  0  0  0  0  0  0  0  0  0  0  0
  -13.6807    6.8990   -2.5557 H   0  0  0  0  0  0  0  0  0  0  0  0
  -14.0246    8.2903   -1.5057 H   0  0  0  0  0  0  0  0  0  0  0  0
  -11.9610    8.1677   -3.4778 H   0  0  0  0  0  0  0  0  0  0  0  0
  -12.0423    9.3857   -2.2073 H   0  0  0  0  0  0  0  0  0  0  0  0
  -10.4090    5.4779   -1.8041 H   0  0  0  0  0  0  0  0  0  0  0  0
  -11.4354    6.1068   -3.1373 H   0  0  0  0  0  0  0  0  0  0  0  0
   -9.6678    6.4265   -3.1373 H   0  0  0  0  0  0  0  0  0  0  0  0
   -9.8635    9.4222   -1.1502 H   0  0  0  0  0  0  0  0  0  0  0  0
   -9.6886    8.9850   -3.6833 H   0  0  0  0  0  0  0  0  0  0  0  0
   -8.3354    9.8321   -2.7669 H   0  0  0  0  0  0  0  0  0  0  0  0
   -7.5919    8.0470   -4.5562 H   0  0  0  0  0  0  0  0  0  0  0  0
   -8.1350    5.8818   -1.1914 H   0  0  0  0  0  0  0  0  0  0  0  0
   -5.5675    7.4991   -0.6548 H   0  0  0  0  0  0  0  0  0  0  0  0
   -6.3751    6.3243    0.4759 H   0  0  0  0  0  0  0  0  0  0  0  0
   -4.3891    5.3460   -0.6289 H   0  0  0  0  0  0  0  0  0  0  0  0
   -5.9252    4.4946   -1.0547 H   0  0  0  0  0  0  0  0  0  0  0  0
   -4.6051    4.7425   -3.0436 H   0  0  0  0  0  0  0  0  0  0  0  0
   -4.1980    7.2570   -1.9350 H   0  0  0  0  0  0  0  0  0  0  0  0
   -7.3868    4.1945   -2.5697 H   0  0  0  0  0  0  0  0  0  0  0  0
   -8.1037    4.7448   -4.1221 H   0  0  0  0  0  0  0  0  0  0  0  0
   -6.5660    3.8161   -4.1221 H   0  0  0  0  0  0  0  0  0  0  0  0
   -5.1037    6.9640   -4.8998 H   0  0  0  0  0  0  0  0  0  0  0  0
   -5.6247    5.3382   -5.4584 H   0  0  0  0  0  0  0  0  0  0  0  0
   -6.7911    6.7043   -5.4584 H   0  0  0  0  0  0  0  0  0  0  0  0
   -7.4761    9.1501    0.9244 H   0  0  0  0  0  0  0  0  0  0  0  0
   -6.4944    8.9640   -0.5684 H   0  0  0  0  0  0  0  0  0  0  0  0
   -7.9344   10.0380   -0.5684 H   0  0  0  0  0  0  0  0  0  0  0  0
   -8.3217    6.6071    1.1331 H   0  0  0  0  0  0  0  0  0  0  0  0
   -9.2602    8.1931    1.3307 H   0  0  0  0  0  0  0  0  0  0  0  0
  -10.2232    5.6230    0.0437 H   0  0  0  0  0  0  0  0  0  0  0  0
  -10.8092    6.4142    1.5591 H   0  0  0  0  0  0  0  0  0  0  0  0
  -11.6178    8.5331    1.6187 H   0  0  0  0  0  0  0  0  0  0  0  0
  -10.9008    9.4901    0.2783 H   0  0  0  0  0  0  0  0  0  0  0  0
  -12.6589    9.1215    0.2783 H   0  0  0  0  0  0  0  0  0  0  0  0
  1  2  1  0
  2  3  1  0
  3  4  1  0
  4  5  1  0
  5  6  1  0
  6  7  1  0
  7  8  1  0
  7  9  1  0
  2 10  1  0
 10 11  1  0
 11 12  1  0
 12 13  1  0
 13 14  1  6
 13 15  1  0
 15 16  1  0
 16 17  1  0
 17 18  2  0
 18 19  1  0
 19 20  1  0
 20 21  1  0
 21 22  1  0
 22 23  1  0
 22 24  1  0
 24 25  1  0
 24 26  1  0
 19 27  1  0
 27 28  1  1
 27 29  1  0
 29 30  1  0
 30 31  1  0
 31 32  1  1
  7  5  1  0
 31 10  1  0
 31 13  1  0
 27 15  1  0
 24 18  1  0
  1 33  1  0
  1 34  1  0
  1 35  1  0
  2 36  1  1
  3 37  1  0
  3 38  1  0
  4 39  1  0
  4 40  1  0
  5 41  1  1
  8 42  1  0
  8 43  1  0
  8 44  1  0
  9 45  1  0
  9 46  1  0
  9 47  1  0
 10 48  1  6
 11 49  1  0
 11 50  1  0
 12 51  1  0
 12 52  1  0
 14 53  1  0
 14 54  1  0
 14 55  1  0
 15 56  1  1
 16 57  1  0
 16 58  1  0
 17 59  1  0
 19 60  1  6
 20 61  1  0
 20 62  1  0
 21 63  1  0
 21 64  1  0
 22 65  1  6
 23 66  1  0
 25 67  1  0
 25 68  1  0
 25 69  1  0
 26 70  1  0
 26 71  1  0
 26 72  1  0
 28 73  1  0
 28 74  1  0
 28 75  1  0
 29 76  1  0
 29 77  1  0
 30 78  1  0
 30 79  1  0
 32 80  1  0
 32 81  1  0
 32 82  1  0
M  END
>  <meeko>  (18) 
{"is_sidechain": [false], "intermolecular_energy": 2.731, "internal_energy": -0.839}

$$$$
EPH_relaxed_0001_pdb2pqr_Repair_383_r2_0001_out
     RDKit          3D

 82 86  0  0  0  0  0  0  0  0999 V2000
    2.8370   11.3180   -5.2510 C   0  0  0  0  0  0  0  0  0  0  0  0
    1.7670   11.0270   -4.1940 C   0  0  2  0  0  0  0  0  0  0  0  0
    0.6480   10.1160   -4.7350 C   0  0  0  0  0  0  0  0  0  0  0  0
   -0.4090    9.7510   -3.6890 C   0  0  0  0  0  0  0  0  0  0  0  0
    0.1900    9.0130   -2.5300 C   0  0  2  0  0  0  0  0  0  0  0  0
   -0.6010    7.9220   -2.0420 O   0  0  0  0  0  0  0  0  0  0  0  0
   -0.4070    9.0200   -1.1360 C   0  0  0  0  0  0  0  0  0  0  0  0
   -1.6580    9.7820   -0.8260 C   0  0  0  0  0  0  0  0  0  0  0  0
    0.4810    8.6940    0.0250 C   0  0  0  0  0  0  0  0  0  0  0  0
    1.1730   12.3340   -3.6830 C   0  0  1  0  0  0  0  0  0  0  0  0
   -0.3630   12.2530   -3.4800 C   0  0  0  0  0  0  0  0  0  0  0  0
   -0.6990   13.1320   -2.2470 C   0  0  0  0  0  0  0  0  0  0  0  0
    0.5900   13.9460   -1.9860 C   0  0  1  0  0  0  0  0  0  0  0  0
    0.5310   15.1290   -3.0040 C   0  0  0  0  0  0  0  0  0  0  0  0
    0.8030   14.4540   -0.5230 C   0  0  2  0  0  0  0  0  0  0  0  0
   -0.2660   15.4350   -0.0110 C   0  0  0  0  0  0  0  0  0  0  0  0
    0.0240   16.8790   -0.2550 C   0  0  0  0  0  0  0  0  0  0  0  0
    1.2210   17.3880   -0.6020 C   0  0  0  0  0  0  0  0  0  0  0  0
    2.4630   16.4930   -0.6870 C   0  0  1  0  0  0  0  0  0  0  0  0
    3.6500   17.1840    0.0340 C   0  0  0  0  0  0  0  0  0  0  0  0
    3.9110   18.5940   -0.4880 C   0  0  0  0  0  0  0  0  0  0  0  0
    2.6710   19.4700   -0.3330 C   0  0  2  0  0  0  0  0  0  0  0  0
    2.4190   19.6700    1.0620 O   0  0  0  0  0  0  0  0  0  0  0  0
    1.4080   18.8700   -1.0110 C   0  0  0  0  0  0  0  0  0  0  0  0
    1.5640   18.9340   -2.5510 C   0  0  0  0  0  0  0  0  0  0  0  0
    0.1990   19.7800   -0.6600 C   0  0  0  0  0  0  0  0  0  0  0  0
    2.2640   14.9850   -0.2270 C   0  0  1  0  0  0  0  0  0  0  0  0
    2.4760   14.8660    1.3140 C   0  0  0  0  0  0  0  0  0  0  0  0
    3.3730   14.0910   -0.8980 C   0  0  0  0  0  0  0  0  0  0  0  0
    3.0550   13.5210   -2.2930 C   0  0  0  0  0  0  0  0  0  0  0  0
    1.6750   12.8560   -2.3130 C   0  0  2  0  0  0  0  0  0  0  0  0
    1.7110   11.6480   -1.3150 C   0  0  0  0  0  0  0  0  0  0  0  0
    3.7836   11.5754   -4.7533 H   0  0  0  0  0  0  0  0  0  0  0  0
    2.9836   10.4271   -5.8793 H   0  0  0  0  0  0  0  0  0  0  0  0
    2.5122   12.1604   -5.8793 H   0  0  0  0  0  0  0  0  0  0  0  0
    2.2563   10.4919   -3.3668 H   0  0  0  0  0  0  0  0  0  0  0  0
    0.1489   10.6355   -5.5663 H   0  0  0  0  0  0  0  0  0  0  0  0
    1.1239    9.1764   -5.0521 H   0  0  0  0  0  0  0  0  0  0  0  0
   -0.8786   10.6745   -3.3193 H   0  0  0  0  0  0  0  0  0  0  0  0
   -1.1518    9.0950   -4.1664 H   0  0  0  0  0  0  0  0  0  0  0  0
    1.2072    9.2128   -2.8979 H   0  0  0  0  0  0  0  0  0  0  0  0
   -1.7810    9.8569    0.2645 H   0  0  0  0  0  0  0  0  0  0  0  0
   -1.5888   10.7915   -1.2574 H   0  0  0  0  0  0  0  0  0  0  0  0
   -2.5233    9.2574   -1.2574 H   0  0  0  0  0  0  0  0  0  0  0  0
   -0.0563    8.8913    0.9643 H   0  0  0  0  0  0  0  0  0  0  0  0
    0.7663    7.6325   -0.0183 H   0  0  0  0  0  0  0  0  0  0  0  0
    1.3853    9.3188   -0.0183 H   0  0  0  0  0  0  0  0  0  0  0  0
    1.4995   13.0111   -4.4861 H   0  0  0  0  0  0  0  0  0  0  0  0
   -0.8834   12.6351   -4.3706 H   0  0  0  0  0  0  0  0  0  0  0  0
   -0.6862   11.2133   -3.3234 H   0  0  0  0  0  0  0  0  0  0  0  0
   -1.5437   13.8017   -2.4660 H   0  0  0  0  0  0  0  0  0  0  0  0
   -0.9971   12.5314   -1.3750 H   0  0  0  0  0  0  0  0  0  0  0  0
    0.4835   16.0819   -2.4565 H   0  0  0  0  0  0  0  0  0  0  0  0
    1.4310   15.1139   -3.6363 H   0  0  0  0  0  0  0  0  0  0  0  0
   -0.3630   15.0244   -3.6363 H   0  0  0  0  0  0  0  0  0  0  0  0
    0.6722   13.5348    0.0670 H   0  0  0  0  0  0  0  0  0  0  0  0
   -1.2169   15.1908   -0.5072 H   0  0  0  0  0  0  0  0  0  0  0  0
   -0.2944   15.3109    1.0816 H   0  0  0  0  0  0  0  0  0  0  0  0
   -0.8106   17.5866   -0.1417 H   0  0  0  0  0  0  0  0  0  0  0  0
    2.6881   16.3868   -1.7585 H   0  0  0  0  0  0  0  0  0  0  0  0
    3.4240   17.2422    1.1090 H   0  0  0  0  0  0  0  0  0  0  0  0
    4.5520   16.5845   -0.1582 H   0  0  0  0  0  0  0  0  0  0  0  0
    4.7407   19.0404    0.0798 H   0  0  0  0  0  0  0  0  0  0  0  0
    4.1662   18.5318   -1.5562 H   0  0  0  0  0  0  0  0  0  0  0  0
    2.8760   20.4241   -0.8407 H   0  0  0  0  0  0  0  0  0  0  0  0
    2.0980   18.8270    1.4260 H   0  0  0  0  0  0  0  0  0  0  0  0
    2.5547   19.3404   -2.8026 H   0  0  0  0  0  0  0  0  0  0  0  0
    1.4649   17.9226   -2.9719 H   0  0  0  0  0  0  0  0  0  0  0  0
    0.7831   19.5844   -2.9719 H   0  0  0  0  0  0  0  0  0  0  0  0
    0.1009   19.8539    0.4331 H   0  0  0  0  0  0  0  0  0  0  0  0
    0.3601   20.7829   -1.0823 H   0  0  0  0  0  0  0  0  0  0  0  0
   -0.7201   19.3477   -1.0823 H   0  0  0  0  0  0  0  0  0  0  0  0
    1.6325   15.3395    1.8378 H   0  0  0  0  0  0  0  0  0  0  0  0
    2.5329   13.8041    1.5954 H   0  0  0  0  0  0  0  0  0  0  0  0
    3.4121   15.3705    1.5954 H   0  0  0  0  0  0  0  0  0  0  0  0
    4.2836   14.7016   -0.9876 H   0  0  0  0  0  0  0  0  0  0  0  0
    3.4698   13.2125   -0.2432 H   0  0  0  0  0  0  0  0  0  0  0  0
    3.0707   14.3392   -3.0280 H   0  0  0  0  0  0  0  0  0  0  0  0
    3.8126   12.7637   -2.5431 H   0  0  0  0  0  0  0  0  0  0  0  0
    1.6998   12.0255   -0.2819 H   0  0  0  0  0  0  0  0  0  0  0  0
    0.8315   11.0086   -1.4814 H   0  0  0  0  0  0  0  0  0  0  0  0
    2.6270   11.0621   -1.4814 H   0  0  0  0  0  0  0  0  0  0  0  0
  1  2  1  0
  2  3  1  0
  3  4  1  0
  4  5  1  0
  5  6  1  0
  6  7  1  0
  7  8  1  0
  7  9  1  0
  2 10  1  0
 10 11  1  0
 11 12  1  0
 12 13  1  0
 13 14  1  6
 13 15  1  0
 15 16  1  0
 16 17  1  0
 17 18  2  0
 18 19  1  0
 19 20  1  0
 20 21  1  0
 21 22  1  0
 22 23  1  0
 22 24  1  0
 24 25  1  0
 24 26  1  0
 19 27  1  0
 27 28  1  1
 27 29  1  0
 29 30  1  0
 30 31  1  0
 31 32  1  1
  7  5  1  0
 31 10  1  0
 31 13  1  0
 27 15  1  0
 24 18  1  0
  1 33  1  0
  1 34  1  0
  1 35  1  0
  2 36  1  1
  3 37  1  0
  3 38  1  0
  4 39  1  0
  4 40  1  0
  5 41  1  1
  8 42  1  0
  8 43  1  0
  8 44  1  0
  9 45  1  0
  9 46  1  0
  9 47  1  0
 10 48  1  6
 11 49  1  0
 11 50  1  0
 12 51  1  0
 12 52  1  0
 14 53  1  0
 14 54  1  0
 14 55  1  0
 15 56  1  1
 16 57  1  0
 16 58  1  0
 17 59  1  0
 19 60  1  6
 20 61  1  0
 20 62  1  0
 21 63  1  0
 21 64  1  0
 22 65  1  6
 23 66  1  0
 25 67  1  0
 25 68  1  0
 25 69  1  0
 26 70  1  0
 26 71  1  0
 26 72  1  0
 28 73  1  0
 28 74  1  0
 28 75  1  0
 29 76  1  0
 29 77  1  0
 30 78  1  0
 30 79  1  0
 32 80  1  0
 32 81  1  0
 32 82  1  0
M  END
>  <meeko>  (19) 
{"is_sidechain": [false], "intermolecular_energy": 2.731, "internal_energy": -0.839}

$$$$
EPH_relaxed_0001_pdb2pqr_Repair_383_r2_0001_out
     RDKit          3D

 82 86  0  0  0  0  0  0  0  0999 V2000
    2.1940   18.0040   -2.5760 C   0  0  0  0  0  0  0  0  0  0  0  0
    0.6710   17.8510   -2.6370 C   0  0  2  0  0  0  0  0  0  0  0  0
   -0.0110   18.3170   -1.3350 C   0  0  0  0  0  0  0  0  0  0  0  0
    0.7410   17.9070   -0.0650 C   0  0  0  0  0  0  0  0  0  0  0  0
    1.2690   19.0980    0.6760 C   0  0  2  0  0  0  0  0  0  0  0  0
    2.1480   19.9350   -0.0860 O   0  0  0  0  0  0  0  0  0  0  0  0
    2.7290   19.2710    1.0480 C   0  0  0  0  0  0  0  0  0  0  0  0
    3.7540   18.2400    0.6910 C   0  0  0  0  0  0  0  0  0  0  0  0
    3.0760   20.1950    2.1740 C   0  0  0  0  0  0  0  0  0  0  0  0
    0.3050   16.4010   -2.9270 C   0  0  1  0  0  0  0  0  0  0  0  0
    0.3870   16.0540   -4.4380 C   0  0  0  0  0  0  0  0  0  0  0  0
    0.8770   14.5870   -4.5340 C   0  0  0  0  0  0  0  0  0  0  0  0
    0.7430   14.0350   -3.0960 C   0  0  1  0  0  0  0  0  0  0  0  0
   -0.7640   13.6550   -2.9510 C   0  0  0  0  0  0  0  0  0  0  0  0
    1.6790   12.8390   -2.7240 C   0  0  2  0  0  0  0  0  0  0  0  0
    1.4560   11.5570   -3.5460 C   0  0  0  0  0  0  0  0  0  0  0  0
    0.4670   10.5960   -2.9740 C   0  0  0  0  0  0  0  0  0  0  0  0
   -0.0030   10.6160   -1.7130 C   0  0  0  0  0  0  0  0  0  0  0  0
    0.5370   11.6200   -0.6860 C   0  0  1  0  0  0  0  0  0  0  0  0
    0.8420   10.8860    0.6460 C   0  0  0  0  0  0  0  0  0  0  0  0
   -0.3580   10.1040    1.1710 C   0  0  0  0  0  0  0  0  0  0  0  0
   -0.8290    9.0760    0.1450 C   0  0  2  0  0  0  0  0  0  0  0  0
    0.1830    8.0750   -0.0040 O   0  0  0  0  0  0  0  0  0  0  0  0
   -1.1570    9.6980   -1.2400 C   0  0  0  0  0  0  0  0  0  0  0  0
   -2.4450   10.5520   -1.1360 C   0  0  0  0  0  0  0  0  0  0  0  0
   -1.4830    8.5380   -2.2200 C   0  0  0  0  0  0  0  0  0  0  0  0
    1.7480   12.5270   -1.1740 C   0  0  1  0  0  0  0  0  0  0  0  0
    3.0990   11.7880   -0.9290 C   0  0  0  0  0  0  0  0  0  0  0  0
    1.7940   13.8370   -0.3020 C   0  0  0  0  0  0  0  0  0  0  0  0
    0.9400   15.0240   -0.7870 C   0  0  0  0  0  0  0  0  0  0  0  0
    1.1810   15.3020   -2.2740 C   0  0  2  0  0  0  0  0  0  0  0  0
    2.6840   15.7090   -2.4470 C   0  0  0  0  0  0  0  0  0  0  0  0
    2.5174   18.0365   -1.5251 H   0  0  0  0  0  0  0  0  0  0  0  0
    2.6689   17.1490   -3.0795 H   0  0  0  0  0  0  0  0  0  0  0  0
    2.4893   18.9363   -3.0795 H   0  0  0  0  0  0  0  0  0  0  0  0
    0.3057   18.4954   -3.4503 H   0  0  0  0  0  0  0  0  0  0  0  0
   -0.0855   19.4143   -1.3555 H   0  0  0  0  0  0  0  0  0  0  0  0
   -0.9966   17.8300   -1.2963 H   0  0  0  0  0  0  0  0  0  0  0  0
    0.0545   17.3536    0.5927 H   0  0  0  0  0  0  0  0  0  0  0  0
    1.5956   17.2804   -0.3600 H   0  0  0  0  0  0  0  0  0  0  0  0
    0.3437   19.1710    1.2664 H   0  0  0  0  0  0  0  0  0  0  0  0
    4.1794   17.8121    1.6107 H   0  0  0  0  0  0  0  0  0  0  0  0
    3.2809   17.4419    0.1000 H   0  0  0  0  0  0  0  0  0  0  0  0
    4.5548   18.7084    0.1000 H   0  0  0  0  0  0  0  0  0  0  0  0
    2.8868   19.6912    3.1333 H   0  0  0  0  0  0  0  0  0  0  0  0
    4.1389   20.4706    2.1079 H   0  0  0  0  0  0  0  0  0  0  0  0
    2.4573   21.1021    2.1079 H   0  0  0  0  0  0  0  0  0  0  0  0
   -0.7085   16.3783   -2.5001 H   0  0  0  0  0  0  0  0  0  0  0  0
   -0.6045   16.1534   -4.9038 H   0  0  0  0  0  0  0  0  0  0  0  0
    1.0734   16.7348   -4.9628 H   0  0  0  0  0  0  0  0  0  0  0  0
    0.2484   14.0126   -5.2304 H   0  0  0  0  0  0  0  0  0  0  0  0
    1.9070   14.5157   -4.9135 H   0  0  0  0  0  0  0  0  0  0  0  0
   -1.0246   13.5893   -1.8843 H   0  0  0  0  0  0  0  0  0  0  0  0
   -1.3843   14.4248   -3.4332 H   0  0  0  0  0  0  0  0  0  0  0  0
   -0.9451   12.6831   -3.4332 H   0  0  0  0  0  0  0  0  0  0  0  0
    2.6703   13.2146   -3.0178 H   0  0  0  0  0  0  0  0  0  0  0  0
    1.1046   11.8513   -4.5459 H   0  0  0  0  0  0  0  0  0  0  0  0
    2.4215   11.0301   -3.5554 H   0  0  0  0  0  0  0  0  0  0  0  0
    0.0907    9.8049   -3.6392 H   0  0  0  0  0  0  0  0  0  0  0  0
   -0.2650   12.3566   -0.5305 H   0  0  0  0  0  0  0  0  0  0  0  0
    1.6740   10.1858    0.4803 H   0  0  0  0  0  0  0  0  0  0  0  0
    1.0979   11.6485    1.3964 H   0  0  0  0  0  0  0  0  0  0  0  0
   -0.0718    9.5837    2.0970 H   0  0  0  0  0  0  0  0  0  0  0  0
   -1.1797   10.8091    1.3650 H   0  0  0  0  0  0  0  0  0  0  0  0
   -1.7659    8.6401    0.5221 H   0  0  0  0  0  0  0  0  0  0  0  0
    0.8930    8.2780    0.6300 H   0  0  0  0  0  0  0  0  0  0  0  0
   -2.6919   10.7157   -0.0766 H   0  0  0  0  0  0  0  0  0  0  0  0
   -2.2826   11.5220   -1.6288 H   0  0  0  0  0  0  0  0  0  0  0  0
   -3.2752   10.0249   -1.6288 H   0  0  0  0  0  0  0  0  0  0  0  0
   -1.7370    7.6342   -1.6468 H   0  0  0  0  0  0  0  0  0  0  0  0
   -2.3361    8.8221   -2.8536 H   0  0  0  0  0  0  0  0  0  0  0  0
   -0.6068    8.3361   -2.8536 H   0  0  0  0  0  0  0  0  0  0  0  0
    3.2737   11.6924    0.1528 H   0  0  0  0  0  0  0  0  0  0  0  0
    3.0572   10.7872   -1.3835 H   0  0  0  0  0  0  0  0  0  0  0  0
    3.9192   12.3631   -1.3835 H   0  0  0  0  0  0  0  0  0  0  0  0
    1.4547   13.5747    0.7109 H   0  0  0  0  0  0  0  0  0  0  0  0
    2.8350   14.1872   -0.3629 H   0  0  0  0  0  0  0  0  0  0  0  0
   -0.1234   14.7889   -0.6327 H   0  0  0  0  0  0  0  0  0  0  0  0
    1.2242   15.9181   -0.2127 H   0  0  0  0  0  0  0  0  0  0  0  0
    3.1463   15.8342   -1.4567 H   0  0  0  0  0  0  0  0  0  0  0  0
    3.2152   14.9224   -3.0029 H   0  0  0  0  0  0  0  0  0  0  0  0
    2.7457   16.6562   -3.0029 H   0  0  0  0  0  0  0  0  0  0  0  0
  1  2  1  0
  2  3  1  0
  3  4  1  0
  4  5  1  0
  5  6  1  0
  6  7  1  0
  7  8  1  0
  7  9  1  0
  2 10  1  0
 10 11  1  0
 11 12  1  0
 12 13  1  0
 13 14  1  1
 13 15  1  0
 15 16  1  0
 16 17  1  0
 17 18  2  0
 18 19  1  0
 19 20  1  0
 20 21  1  0
 21 22  1  0
 22 23  1  0
 22 24  1  0
 24 25  1  0
 24 26  1  0
 19 27  1  0
 27 28  1  6
 27 29  1  0
 29 30  1  0
 30 31  1  0
 31 32  1  1
  7  5  1  0
 31 10  1  0
 31 13  1  0
 27 15  1  0
 24 18  1  0
  1 33  1  0
  1 34  1  0
  1 35  1  0
  2 36  1  6
  3 37  1  0
  3 38  1  0
  4 39  1  0
  4 40  1  0
  5 41  1  1
  8 42  1  0
  8 43  1  0
  8 44  1  0
  9 45  1  0
  9 46  1  0
  9 47  1  0
 10 48  1  1
 11 49  1  0
 11 50  1  0
 12 51  1  0
 12 52  1  0
 14 53  1  0
 14 54  1  0
 14 55  1  0
 15 56  1  6
 16 57  1  0
 16 58  1  0
 17 59  1  0
 19 60  1  1
 20 61  1  0
 20 62  1  0
 21 63  1  0
 21 64  1  0
 22 65  1  1
 23 66  1  0
 25 67  1  0
 25 68  1  0
 25 69  1  0
 26 70  1  0
 26 71  1  0
 26 72  1  0
 28 73  1  0
 28 74  1  0
 28 75  1  0
 29 76  1  0
 29 77  1  0
 30 78  1  0
 30 79  1  0
 32 80  1  0
 32 81  1  0
 32 82  1  0
M  END
>  <meeko>  (20) 
{"is_sidechain": [false], "intermolecular_energy": 2.731, "internal_energy": -0.839}

$$$$
