EPH_relaxed_0001_pdb2pqr_Repair_98_r2_0001_out
     RDKit          3D

 82 86  0  0  0  0  0  0  0  0999 V2000
   -1.4080    8.4830   -1.4690 C   0  0  0  0  0  0  0  0  0  0  0  0
   -2.0460    9.3150   -0.3540 C   0  0  2  0  0  0  0  0  0  0  0  0
   -3.4640    9.7940   -0.7250 C   0  0  0  0  0  0  0  0  0  0  0  0
   -4.5040    8.6710   -0.7570 C   0  0  0  0  0  0  0  0  0  0  0  0
   -5.7410    9.0830   -1.4960 C   0  0  2  0  0  0  0  0  0  0  0  0
   -6.8970    8.2790   -1.2240 O   0  0  0  0  0  0  0  0  0  0  0  0
   -6.3960    8.2330   -2.5700 C   0  0  0  0  0  0  0  0  0  0  0  0
   -5.8320    6.9050   -2.9650 C   0  0  0  0  0  0  0  0  0  0  0  0
   -7.2870    8.9040   -3.5680 C   0  0  0  0  0  0  0  0  0  0  0  0
   -1.1610   10.5120   -0.0270 C   0  0  1  0  0  0  0  0  0  0  0  0
   -0.0880   10.1860    1.0460 C   0  0  0  0  0  0  0  0  0  0  0  0
    1.1760   11.0040    0.6780 C   0  0  0  0  0  0  0  0  0  0  0  0
    0.6900   12.0160   -0.3870 C   0  0  1  0  0  0  0  0  0  0  0  0
    0.0270   13.1700    0.4300 C   0  0  0  0  0  0  0  0  0  0  0  0
    1.7750   12.5570   -1.3730 C   0  0  2  0  0  0  0  0  0  0  0  0
    2.9140   13.3560   -0.7160 C   0  0  0  0  0  0  0  0  0  0  0  0
    2.6820   14.8260   -0.6090 C   0  0  0  0  0  0  0  0  0  0  0  0
    1.7380   15.5200   -1.2720 C   0  0  0  0  0  0  0  0  0  0  0  0
    0.8430   14.8350   -2.3130 C   0  0  1  0  0  0  0  0  0  0  0  0
    0.7720   15.7100   -3.5920 C   0  0  0  0  0  0  0  0  0  0  0  0
    0.3340   17.1410   -3.2970 C   0  0  0  0  0  0  0  0  0  0  0  0
    1.2820   17.8080   -2.3030 C   0  0  2  0  0  0  0  0  0  0  0  0
    2.5610   17.9700   -2.9240 O   0  0  0  0  0  0  0  0  0  0  0  0
    1.4410   17.0110   -0.9790 C   0  0  0  0  0  0  0  0  0  0  0  0
    0.1280   17.0930   -0.1610 C   0  0  0  0  0  0  0  0  0  0  0  0
    2.5280   17.7160   -0.1240 C   0  0  0  0  0  0  0  0  0  0  0  0
    1.1870   13.3160   -2.6310 C   0  0  1  0  0  0  0  0  0  0  0  0
    2.2740   13.2390   -3.7460 C   0  0  0  0  0  0  0  0  0  0  0  0
   -0.0950   12.6090   -3.2110 C   0  0  0  0  0  0  0  0  0  0  0  0
   -1.0690   11.9900   -2.1910 C   0  0  0  0  0  0  0  0  0  0  0  0
   -0.3210   11.1120   -1.1820 C   0  0  2  0  0  0  0  0  0  0  0  0
    0.3370    9.9300   -1.9720 C   0  0  0  0  0  0  0  0  0  0  0  0
   -0.7954    7.6841   -1.0257 H   0  0  0  0  0  0  0  0  0  0  0  0
   -2.1977    8.0369   -2.0913 H   0  0  0  0  0  0  0  0  0  0  0  0
   -0.7723    9.1300   -2.0913 H   0  0  0  0  0  0  0  0  0  0  0  0
   -2.1374    8.6675    0.5305 H   0  0  0  0  0  0  0  0  0  0  0  0
   -3.7830   10.5418    0.0160 H   0  0  0  0  0  0  0  0  0  0  0  0
   -3.4074   10.2089   -1.7422 H   0  0  0  0  0  0  0  0  0  0  0  0
   -4.0663    7.7937   -1.2556 H   0  0  0  0  0  0  0  0  0  0  0  0
   -4.7861    8.4348    0.2796 H   0  0  0  0  0  0  0  0  0  0  0  0
   -5.4295   10.1378   -1.4774 H   0  0  0  0  0  0  0  0  0  0  0  0
   -5.5867    6.3274   -2.0615 H   0  0  0  0  0  0  0  0  0  0  0  0
   -6.5740    6.3544   -3.5620 H   0  0  0  0  0  0  0  0  0  0  0  0
   -4.9206    7.0566   -3.5620 H   0  0  0  0  0  0  0  0  0  0  0  0
   -8.0577    9.4844   -3.0396 H   0  0  0  0  0  0  0  0  0  0  0  0
   -6.6888    9.5778   -4.1989 H   0  0  0  0  0  0  0  0  0  0  0  0
   -7.7694    8.1429   -4.1989 H   0  0  0  0  0  0  0  0  0  0  0  0
   -1.9318   11.2298    0.2903 H   0  0  0  0  0  0  0  0  0  0  0  0
   -0.4496   10.4760    2.0436 H   0  0  0  0  0  0  0  0  0  0  0  0
    0.1321    9.1085    1.0696 H   0  0  0  0  0  0  0  0  0  0  0  0
    1.5697   11.5286    1.5610 H   0  0  0  0  0  0  0  0  0  0  0  0
    1.9916   10.3665    0.3060 H   0  0  0  0  0  0  0  0  0  0  0  0
    0.1416   12.9705    1.5057 H   0  0  0  0  0  0  0  0  0  0  0  0
    0.5150   14.1236    0.1799 H   0  0  0  0  0  0  0  0  0  0  0  0
   -1.0426   13.2288    0.1799 H   0  0  0  0  0  0  0  0  0  0  0  0
    2.2369   11.6310   -1.7461 H   0  0  0  0  0  0  0  0  0  0  0  0
    3.0646   12.9609    0.2995 H   0  0  0  0  0  0  0  0  0  0  0  0
    3.7892   13.2329   -1.3709 H   0  0  0  0  0  0  0  0  0  0  0  0
    3.3382   15.3908    0.0695 H   0  0  0  0  0  0  0  0  0  0  0  0
   -0.1546   14.7623   -1.8552 H   0  0  0  0  0  0  0  0  0  0  0  0
    1.7680   15.7349   -4.0581 H   0  0  0  0  0  0  0  0  0  0  0  0
    0.0231   15.2626   -4.2620 H   0  0  0  0  0  0  0  0  0  0  0  0
    0.3314   17.7171   -4.2341 H   0  0  0  0  0  0  0  0  0  0  0  0
   -0.6743   17.1161   -2.8580 H   0  0  0  0  0  0  0  0  0  0  0  0
    0.8456   18.7808   -2.0324 H   0  0  0  0  0  0  0  0  0  0  0  0
    2.4110   18.1120   -3.8740 H   0  0  0  0  0  0  0  0  0  0  0  0
    0.3638   17.0783    0.9133 H   0  0  0  0  0  0  0  0  0  0  0  0
   -0.4001   18.0259   -0.4077 H   0  0  0  0  0  0  0  0  0  0  0  0
   -0.5120   16.2331   -0.4077 H   0  0  0  0  0  0  0  0  0  0  0  0
    2.3055   17.5717    0.9436 H   0  0  0  0  0  0  0  0  0  0  0  0
    3.5131   17.2844   -0.3548 H   0  0  0  0  0  0  0  0  0  0  0  0
    2.5357   18.7915   -0.3548 H   0  0  0  0  0  0  0  0  0  0  0  0
    3.2695   13.1685   -3.2833 H   0  0  0  0  0  0  0  0  0  0  0  0
    2.0963   12.3512   -4.3707 H   0  0  0  0  0  0  0  0  0  0  0  0
    2.2232   14.1430   -4.3707 H   0  0  0  0  0  0  0  0  0  0  0  0
   -0.6534   13.3575   -3.7923 H   0  0  0  0  0  0  0  0  0  0  0  0
    0.2855   11.7596   -3.7973 H   0  0  0  0  0  0  0  0  0  0  0  0
   -1.5864   12.7972   -1.6517 H   0  0  0  0  0  0  0  0  0  0  0  0
   -1.7929   11.3634   -2.7326 H   0  0  0  0  0  0  0  0  0  0  0  0
    0.7454    9.1964   -1.2613 H   0  0  0  0  0  0  0  0  0  0  0  0
   -0.4209    9.4450   -2.6047 H   0  0  0  0  0  0  0  0  0  0  0  0
    1.1486   10.3187   -2.6047 H   0  0  0  0  0  0  0  0  0  0  0  0
  1  2  1  0
  2  3  1  0
  3  4  1  0
  4  5  1  0
  5  6  1  0
  6  7  1  0
  7  8  1  0
  7  9  1  0
  2 10  1  0
 10 11  1  0
 11 12  1  0
 12 13  1  0
 13 14  1  1
 13 15  1  0
 15 16  1  0
 16 17  1  0
 17 18  2  0
 18 19  1  0
 19 20  1  0
 20 21  1  0
 21 22  1  0
 22 23  1  0
 22 24  1  0
 24 25  1  0
 24 26  1  0
 19 27  1  0
 27 28  1  6
 27 29  1  0
 29 30  1  0
 30 31  1  0
 31 32  1  6
  7  5  1  0
 31 10  1  0
 31 13  1  0
 27 15  1  0
 24 18  1  0
  1 33  1  0
  1 34  1  0
  1 35  1  0
  2 36  1  1
  3 37  1  0
  3 38  1  0
  4 39  1  0
  4 40  1  0
  5 41  1  6
  8 42  1  0
  8 43  1  0
  8 44  1  0
  9 45  1  0
  9 46  1  0
  9 47  1  0
 10 48  1  1
 11 49  1  0
 11 50  1  0
 12 51  1  0
 12 52  1  0
 14 53  1  0
 14 54  1  0
 14 55  1  0
 15 56  1  6
 16 57  1  0
 16 58  1  0
 17 59  1  0
 19 60  1  1
 20 61  1  0
 20 62  1  0
 21 63  1  0
 21 64  1  0
 22 65  1  1
 23 66  1  0
 25 67  1  0
 25 68  1  0
 25 69  1  0
 26 70  1  0
 26 71  1  0
 26 72  1  0
 28 73  1  0
 28 74  1  0
 28 75  1  0
 29 76  1  0
 29 77  1  0
 30 78  1  0
 30 79  1  0
 32 80  1  0
 32 81  1  0
 32 82  1  0
M  END
>  <meeko>  (1) 
{"is_sidechain": [false], "intermolecular_energy": 2.731, "internal_energy": -0.839}

$$$$
EPH_relaxed_0001_pdb2pqr_Repair_98_r2_0001_out
     RDKit          3D

 82 86  0  0  0  0  0  0  0  0999 V2000
   -0.8430    8.4060   -1.4180 C   0  0  0  0  0  0  0  0  0  0  0  0
   -1.7020    9.1960   -0.4270 C   0  0  2  0  0  0  0  0  0  0  0  0
   -3.1080    9.4940   -0.9850 C   0  0  0  0  0  0  0  0  0  0  0  0
   -4.2270    8.7240   -0.2780 C   0  0  0  0  0  0  0  0  0  0  0  0
   -4.6620    7.5280   -1.0700 C   0  0  2  0  0  0  0  0  0  0  0  0
   -4.8770    7.7790   -2.4650 O   0  0  0  0  0  0  0  0  0  0  0  0
   -6.0350    7.3990   -1.7030 C   0  0  0  0  0  0  0  0  0  0  0  0
   -7.0600    8.4810   -1.5730 C   0  0  0  0  0  0  0  0  0  0  0  0
   -6.5470    6.0300   -2.0280 C   0  0  0  0  0  0  0  0  0  0  0  0
   -1.0020   10.4980   -0.0560 C   0  0  1  0  0  0  0  0  0  0  0  0
   -0.0920   10.3520    1.1930 C   0  0  0  0  0  0  0  0  0  0  0  0
    1.1300   11.2790    0.9670 C   0  0  0  0  0  0  0  0  0  0  0  0
    0.7280   12.1690   -0.2320 C   0  0  1  0  0  0  0  0  0  0  0  0
   -0.1680   13.2900    0.3820 C   0  0  0  0  0  0  0  0  0  0  0  0
    1.9030   12.7650   -1.0750 C   0  0  2  0  0  0  0  0  0  0  0  0
    2.8360   13.7180   -0.3090 C   0  0  0  0  0  0  0  0  0  0  0  0
    2.4480   15.1590   -0.3490 C   0  0  0  0  0  0  0  0  0  0  0  0
    1.5630   15.7080   -1.2020 C   0  0  0  0  0  0  0  0  0  0  0  0
    0.9200   14.8710   -2.3160 C   0  0  1  0  0  0  0  0  0  0  0  0
    0.9750   15.6580   -3.6510 C   0  0  0  0  0  0  0  0  0  0  0  0
    0.3580   17.0490   -3.5370 C   0  0  0  0  0  0  0  0  0  0  0  0
    1.0620   17.8700   -2.4590 C   0  0  2  0  0  0  0  0  0  0  0  0
    2.4030   18.1320   -2.8820 O   0  0  0  0  0  0  0  0  0  0  0  0
    1.0780   17.1730   -1.0700 C   0  0  0  0  0  0  0  0  0  0  0  0
   -0.3520   17.1600   -0.4770 C   0  0  0  0  0  0  0  0  0  0  0  0
    1.9380   18.0390   -0.1110 C   0  0  0  0  0  0  0  0  0  0  0  0
    1.4570   13.3820   -2.4620 C   0  0  1  0  0  0  0  0  0  0  0  0
    2.7140   13.3580   -3.3840 C   0  0  0  0  0  0  0  0  0  0  0  0
    0.3620   12.5090   -3.1820 C   0  0  0  0  0  0  0  0  0  0  0  0
   -0.7010   11.8490   -2.2830 C   0  0  0  0  0  0  0  0  0  0  0  0
   -0.0470   11.1170   -1.1070 C   0  0  2  0  0  0  0  0  0  0  0  0
    0.8430    9.9690   -1.6940 C   0  0  0  0  0  0  0  0  0  0  0  0
   -0.1432    7.7624   -0.8648 H   0  0  0  0  0  0  0  0  0  0  0  0
   -1.4923    7.7829   -2.0506 H   0  0  0  0  0  0  0  0  0  0  0  0
   -0.2763    9.1051   -2.0506 H   0  0  0  0  0  0  0  0  0  0  0  0
   -1.8291    8.5729    0.4706 H   0  0  0  0  0  0  0  0  0  0  0  0
   -3.3042   10.5707   -0.8750 H   0  0  0  0  0  0  0  0  0  0  0  0
   -3.1112    9.1720   -2.0368 H   0  0  0  0  0  0  0  0  0  0  0  0
   -3.8633    8.3882    0.7043 H   0  0  0  0  0  0  0  0  0  0  0  0
   -5.0908    9.3964   -0.1693 H   0  0  0  0  0  0  0  0  0  0  0  0
   -4.0838    6.8565   -0.4182 H   0  0  0  0  0  0  0  0  0  0  0  0
   -7.2492    8.6808   -0.5080 H   0  0  0  0  0  0  0  0  0  0  0  0
   -6.6902    9.3966   -2.0577 H   0  0  0  0  0  0  0  0  0  0  0  0
   -7.9942    8.1612   -2.0577 H   0  0  0  0  0  0  0  0  0  0  0  0
   -6.7512    5.4839   -1.0952 H   0  0  0  0  0  0  0  0  0  0  0  0
   -7.4742    6.1148   -2.6138 H   0  0  0  0  0  0  0  0  0  0  0  0
   -5.7917    5.4856   -2.6138 H   0  0  0  0  0  0  0  0  0  0  0  0
   -1.8800   11.1461    0.0824 H   0  0  0  0  0  0  0  0  0  0  0  0
   -0.6380   10.6587    2.0974 H   0  0  0  0  0  0  0  0  0  0  0  0
    0.2247    9.3077    1.3310 H   0  0  0  0  0  0  0  0  0  0  0  0
    1.3219   11.8930    1.8593 H   0  0  0  0  0  0  0  0  0  0  0  0
    2.0533   10.7127    0.7751 H   0  0  0  0  0  0  0  0  0  0  0  0
   -0.1238   13.2347    1.4797 H   0  0  0  0  0  0  0  0  0  0  0  0
    0.1957   14.2734    0.0495 H   0  0  0  0  0  0  0  0  0  0  0  0
   -1.2074   13.1519    0.0495 H   0  0  0  0  0  0  0  0  0  0  0  0
    2.5073   11.8744   -1.3023 H   0  0  0  0  0  0  0  0  0  0  0  0
    2.8561   13.4005    0.7440 H   0  0  0  0  0  0  0  0  0  0  0  0
    3.8143   13.6523   -0.8077 H   0  0  0  0  0  0  0  0  0  0  0  0
    2.9259   15.8292    0.3806 H   0  0  0  0  0  0  0  0  0  0  0  0
   -0.1271   14.7174   -2.0162 H   0  0  0  0  0  0  0  0  0  0  0  0
    2.0269   15.7628   -3.9553 H   0  0  0  0  0  0  0  0  0  0  0  0
    0.3923   15.0946   -4.3946 H   0  0  0  0  0  0  0  0  0  0  0  0
    0.4536   17.5658   -4.5033 H   0  0  0  0  0  0  0  0  0  0  0  0
   -0.7017   16.9423   -3.2619 H   0  0  0  0  0  0  0  0  0  0  0  0
    0.4955   18.8045   -2.3334 H   0  0  0  0  0  0  0  0  0  0  0  0
    2.4100   18.1340   -3.8540 H   0  0  0  0  0  0  0  0  0  0  0  0
   -0.2935   17.1605    0.6214 H   0  0  0  0  0  0  0  0  0  0  0  0
   -0.8975   18.0532   -0.8155 H   0  0  0  0  0  0  0  0  0  0  0  0
   -0.8811   16.2570   -0.8155 H   0  0  0  0  0  0  0  0  0  0  0  0
    1.6896   17.7889    0.9310 H   0  0  0  0  0  0  0  0  0  0  0  0
    3.0042   17.8380   -0.2922 H   0  0  0  0  0  0  0  0  0  0  0  0
    1.7296   19.1038   -0.2922 H   0  0  0  0  0  0  0  0  0  0  0  0
    3.6228   13.3406   -2.7645 H   0  0  0  0  0  0  0  0  0  0  0  0
    2.6859   12.4602   -4.0190 H   0  0  0  0  0  0  0  0  0  0  0  0
    2.7202   14.2562   -4.0190 H   0  0  0  0  0  0  0  0  0  0  0  0
   -0.1638   13.1582   -3.8976 H   0  0  0  0  0  0  0  0  0  0  0  0
    0.9134   11.6732   -3.6373 H   0  0  0  0  0  0  0  0  0  0  0  0
   -1.3752   12.6259   -1.8932 H   0  0  0  0  0  0  0  0  0  0  0  0
   -1.2623   11.1175   -2.8829 H   0  0  0  0  0  0  0  0  0  0  0  0
    1.2894    9.3932   -0.8698 H   0  0  0  0  0  0  0  0  0  0  0  0
    0.2224    9.3036   -2.3122 H   0  0  0  0  0  0  0  0  0  0  0  0
    1.6421   10.4042   -2.3122 H   0  0  0  0  0  0  0  0  0  0  0  0
  1  2  1  0
  2  3  1  0
  3  4  1  0
  4  5  1  0
  5  6  1  0
  6  7  1  0
  7  8  1  0
  7  9  1  0
  2 10  1  0
 10 11  1  0
 11 12  1  0
 12 13  1  0
 13 14  1  1
 13 15  1  0
 15 16  1  0
 16 17  1  0
 17 18  2  0
 18 19  1  0
 19 20  1  0
 20 21  1  0
 21 22  1  0
 22 23  1  0
 22 24  1  0
 24 25  1  0
 24 26  1  0
 19 27  1  0
 27 28  1  6
 27 29  1  0
 29 30  1  0
 30 31  1  0
 31 32  1  6
  7  5  1  0
 31 10  1  0
 31 13  1  0
 27 15  1  0
 24 18  1  0
  1 33  1  0
  1 34  1  0
  1 35  1  0
  2 36  1  1
  3 37  1  0
  3 38  1  0
  4 39  1  0
  4 40  1  0
  5 41  1  6
  8 42  1  0
  8 43  1  0
  8 44  1  0
  9 45  1  0
  9 46  1  0
  9 47  1  0
 10 48  1  1
 11 49  1  0
 11 50  1  0
 12 51  1  0
 12 52  1  0
 14 53  1  0
 14 54  1  0
 14 55  1  0
 15 56  1  6
 16 57  1  0
 16 58  1  0
 17 59  1  0
 19 60  1  1
 20 61  1  0
 20 62  1  0
 21 63  1  0
 21 64  1  0
 22 65  1  1
 23 66  1  0
 25 67  1  0
 25 68  1  0
 25 69  1  0
 26 70  1  0
 26 71  1  0
 26 72  1  0
 28 73  1  0
 28 74  1  0
 28 75  1  0
 29 76  1  0
 29 77  1  0
 30 78  1  0
 30 79  1  0
 32 80  1  0
 32 81  1  0
 32 82  1  0
M  END
>  <meeko>  (2) 
{"is_sidechain": [false], "intermolecular_energy": 2.731, "internal_energy": -0.839}

$$$$
EPH_relaxed_0001_pdb2pqr_Repair_98_r2_0001_out
     RDKit          3D

 82 86  0  0  0  0  0  0  0  0999 V2000
    2.3350   18.0350   -2.7680 C   0  0  0  0  0  0  0  0  0  0  0  0
    1.0570   17.6240   -2.0330 C   0  0  2  0  0  0  0  0  0  0  0  0
    1.2170   17.7010   -0.5010 C   0  0  0  0  0  0  0  0  0  0  0  0
    0.8950   19.0790    0.0830 C   0  0  0  0  0  0  0  0  0  0  0  0
   -0.5200   19.1580    0.5710 C   0  0  2  0  0  0  0  0  0  0  0  0
   -1.4310   18.2710   -0.0910 O   0  0  0  0  0  0  0  0  0  0  0  0
   -1.6680   19.6760   -0.2750 C   0  0  0  0  0  0  0  0  0  0  0  0
   -1.4530   20.1510   -1.6770 C   0  0  0  0  0  0  0  0  0  0  0  0
   -2.8980   20.1750    0.4180 C   0  0  0  0  0  0  0  0  0  0  0  0
    0.6520   16.2130   -2.4440 C   0  0  1  0  0  0  0  0  0  0  0  0
    0.8450   15.9540   -3.9620 C   0  0  0  0  0  0  0  0  0  0  0  0
    1.2760   14.4720   -4.1120 C   0  0  0  0  0  0  0  0  0  0  0  0
    0.9960   13.8430   -2.7270 C   0  0  1  0  0  0  0  0  0  0  0  0
   -0.5330   13.5300   -2.7300 C   0  0  0  0  0  0  0  0  0  0  0  0
    1.8420   12.5810   -2.3580 C   0  0  2  0  0  0  0  0  0  0  0  0
    1.6330   11.3640   -3.2750 C   0  0  0  0  0  0  0  0  0  0  0  0
    0.5570   10.4210   -2.8480 C   0  0  0  0  0  0  0  0  0  0  0  0
   -0.0160   10.3890   -1.6300 C   0  0  0  0  0  0  0  0  0  0  0  0
    0.4800   11.3010   -0.5010 C   0  0  1  0  0  0  0  0  0  0  0  0
    0.6380   10.4750    0.8020 C   0  0  0  0  0  0  0  0  0  0  0  0
   -0.6360    9.7230    1.1760 C   0  0  0  0  0  0  0  0  0  0  0  0
   -1.0650    8.7830    0.0520 C   0  0  2  0  0  0  0  0  0  0  0  0
   -0.0890    7.7440   -0.0770 O   0  0  0  0  0  0  0  0  0  0  0  0
   -1.2460    9.5030   -1.3130 C   0  0  0  0  0  0  0  0  0  0  0  0
   -2.4990   10.4120   -1.2600 C   0  0  0  0  0  0  0  0  0  0  0  0
   -1.5400    8.4210   -2.3880 C   0  0  0  0  0  0  0  0  0  0  0  0
    1.7670   12.1740   -0.8300 C   0  0  1  0  0  0  0  0  0  0  0  0
    3.0580   11.3550   -0.5230 C   0  0  0  0  0  0  0  0  0  0  0  0
    1.7970   13.4260    0.1250 C   0  0  0  0  0  0  0  0  0  0  0  0
    1.0410   14.6810   -0.3510 C   0  0  0  0  0  0  0  0  0  0  0  0
    1.4190   15.0350   -1.7930 C   0  0  2  0  0  0  0  0  0  0  0  0
    2.9480   15.3760   -1.8170 C   0  0  0  0  0  0  0  0  0  0  0  0
    3.1153   18.2859   -2.0344 H   0  0  0  0  0  0  0  0  0  0  0  0
    2.6791   17.2022   -3.3989 H   0  0  0  0  0  0  0  0  0  0  0  0
    2.1291   18.9122   -3.3989 H   0  0  0  0  0  0  0  0  0  0  0  0
    0.2682   18.3355   -2.3184 H   0  0  0  0  0  0  0  0  0  0  0  0
    0.5410   16.9635   -0.0438 H   0  0  0  0  0  0  0  0  0  0  0  0
    2.2745   17.4963   -0.2776 H   0  0  0  0  0  0  0  0  0  0  0  0
    1.5741   19.2766    0.9255 H   0  0  0  0  0  0  0  0  0  0  0  0
    1.0254   19.8273   -0.7126 H   0  0  0  0  0  0  0  0  0  0  0  0
   -0.1814   19.4074    1.5874 H   0  0  0  0  0  0  0  0  0  0  0  0
   -0.9995   21.1530   -1.6592 H   0  0  0  0  0  0  0  0  0  0  0  0
   -0.7825   19.4543   -2.2014 H   0  0  0  0  0  0  0  0  0  0  0  0
   -2.4189   20.1950   -2.2014 H   0  0  0  0  0  0  0  0  0  0  0  0
   -2.7544   20.1168    1.5070 H   0  0  0  0  0  0  0  0  0  0  0  0
   -3.0839   21.2197    0.1280 H   0  0  0  0  0  0  0  0  0  0  0  0
   -3.7592   19.5551    0.1280 H   0  0  0  0  0  0  0  0  0  0  0  0
   -0.3939   16.2150   -2.1034 H   0  0  0  0  0  0  0  0  0  0  0  0
   -0.0985   16.1303   -4.4993 H   0  0  0  0  0  0  0  0  0  0  0  0
    1.6026   16.6303   -4.3848 H   0  0  0  0  0  0  0  0  0  0  0  0
    0.6836   13.9722   -4.8925 H   0  0  0  0  0  0  0  0  0  0  0  0
    2.3300   14.3719   -4.4106 H   0  0  0  0  0  0  0  0  0  0  0  0
   -0.8942   13.4561   -1.6936 H   0  0  0  0  0  0  0  0  0  0  0  0
   -1.0714   14.3366   -3.2492 H   0  0  0  0  0  0  0  0  0  0  0  0
   -0.7111   12.5768   -3.2492 H   0  0  0  0  0  0  0  0  0  0  0  0
    2.8702   12.9233   -2.5468 H   0  0  0  0  0  0  0  0  0  0  0  0
    1.3812   11.7346   -4.2796 H   0  0  0  0  0  0  0  0  0  0  0  0
    2.5714   10.7912   -3.2392 H   0  0  0  0  0  0  0  0  0  0  0  0
    0.2027    9.6912   -3.5908 H   0  0  0  0  0  0  0  0  0  0  0  0
   -0.2985   12.0661   -0.3648 H   0  0  0  0  0  0  0  0  0  0  0  0
    1.4494    9.7458    0.6611 H   0  0  0  0  0  0  0  0  0  0  0  0
    0.8626   11.1779    1.6178 H   0  0  0  0  0  0  0  0  0  0  0  0
   -0.4523    9.1345    2.0870 H   0  0  0  0  0  0  0  0  0  0  0  0
   -1.4387   10.4555    1.3465 H   0  0  0  0  0  0  0  0  0  0  0  0
   -2.0491    8.3724    0.3222 H   0  0  0  0  0  0  0  0  0  0  0  0
   -0.5600    6.8940   -0.0630 H   0  0  0  0  0  0  0  0  0  0  0  0
   -2.7669   10.6063   -0.2110 H   0  0  0  0  0  0  0  0  0  0  0  0
   -2.2826   11.3646   -1.7657 H   0  0  0  0  0  0  0  0  0  0  0  0
   -3.3374    9.9106   -1.7657 H   0  0  0  0  0  0  0  0  0  0  0  0
   -1.7976    7.4730   -1.8932 H   0  0  0  0  0  0  0  0  0  0  0  0
   -2.3820    8.7474   -3.0161 H   0  0  0  0  0  0  0  0  0  0  0  0
   -0.6486    8.2764   -3.0161 H   0  0  0  0  0  0  0  0  0  0  0  0
    3.1891   11.2718    0.5660 H   0  0  0  0  0  0  0  0  0  0  0  0
    2.9666   10.3493   -0.9592 H   0  0  0  0  0  0  0  0  0  0  0  0
    3.9289   11.8661   -0.9592 H   0  0  0  0  0  0  0  0  0  0  0  0
    1.3617   13.1205    1.0879 H   0  0  0  0  0  0  0  0  0  0  0  0
    2.8540   13.7271    0.1717 H   0  0  0  0  0  0  0  0  0  0  0  0
   -0.0411   14.4905   -0.2991 H   0  0  0  0  0  0  0  0  0  0  0  0
    1.3153   15.5238    0.3005 H   0  0  0  0  0  0  0  0  0  0  0  0
    3.3213   15.4593   -0.7856 H   0  0  0  0  0  0  0  0  0  0  0  0
    3.4936   14.5775   -2.3411 H   0  0  0  0  0  0  0  0  0  0  0  0
    3.1026   16.3307   -2.3411 H   0  0  0  0  0  0  0  0  0  0  0  0
  1  2  1  0
  2  3  1  0
  3  4  1  0
  4  5  1  0
  5  6  1  0
  6  7  1  0
  7  8  1  0
  7  9  1  0
  2 10  1  0
 10 11  1  0
 11 12  1  0
 12 13  1  0
 13 14  1  6
 13 15  1  0
 15 16  1  0
 16 17  1  0
 17 18  2  0
 18 19  1  0
 19 20  1  0
 20 21  1  0
 21 22  1  0
 22 23  1  0
 22 24  1  0
 24 25  1  0
 24 26  1  0
 19 27  1  0
 27 28  1  1
 27 29  1  0
 29 30  1  0
 30 31  1  0
 31 32  1  1
  7  5  1  0
 31 10  1  0
 31 13  1  0
 27 15  1  0
 24 18  1  0
  1 33  1  0
  1 34  1  0
  1 35  1  0
  2 36  1  6
  3 37  1  0
  3 38  1  0
  4 39  1  0
  4 40  1  0
  5 41  1  1
  8 42  1  0
  8 43  1  0
  8 44  1  0
  9 45  1  0
  9 46  1  0
  9 47  1  0
 10 48  1  6
 11 49  1  0
 11 50  1  0
 12 51  1  0
 12 52  1  0
 14 53  1  0
 14 54  1  0
 14 55  1  0
 15 56  1  1
 16 57  1  0
 16 58  1  0
 17 59  1  0
 19 60  1  1
 20 61  1  0
 20 62  1  0
 21 63  1  0
 21 64  1  0
 22 65  1  1
 23 66  1  0
 25 67  1  0
 25 68  1  0
 25 69  1  0
 26 70  1  0
 26 71  1  0
 26 72  1  0
 28 73  1  0
 28 74  1  0
 28 75  1  0
 29 76  1  0
 29 77  1  0
 30 78  1  0
 30 79  1  0
 32 80  1  0
 32 81  1  0
 32 82  1  0
M  END
>  <meeko>  (3) 
{"is_sidechain": [false], "intermolecular_energy": 2.731, "internal_energy": -0.839}

$$$$
EPH_relaxed_0001_pdb2pqr_Repair_98_r2_0001_out
     RDKit          3D

 82 86  0  0  0  0  0  0  0  0999 V2000
   -4.8940    6.4020   -2.3620 C   0  0  0  0  0  0  0  0  0  0  0  0
   -5.3650    7.8500   -2.2040 C   0  0  2  0  0  0  0  0  0  0  0  0
   -5.1420    8.3800   -0.7730 C   0  0  0  0  0  0  0  0  0  0  0  0
   -4.1370    9.5330   -0.6930 C   0  0  0  0  0  0  0  0  0  0  0  0
   -2.7230    9.0370   -0.6980 C   0  0  2  0  0  0  0  0  0  0  0  0
   -1.8820    9.6150    0.3080 O   0  0  0  0  0  0  0  0  0  0  0  0
   -1.5320    9.9070   -1.0550 C   0  0  0  0  0  0  0  0  0  0  0  0
   -1.7020   11.3450   -1.4330 C   0  0  0  0  0  0  0  0  0  0  0  0
   -0.2710    9.2410   -1.5090 C   0  0  0  0  0  0  0  0  0  0  0  0
   -6.8380    7.9620   -2.5780 C   0  0  1  0  0  0  0  0  0  0  0  0
   -7.1680    7.2620   -3.9230 C   0  0  0  0  0  0  0  0  0  0  0  0
   -8.5920    6.6660   -3.7800 C   0  0  0  0  0  0  0  0  0  0  0  0
   -9.1610    7.3180   -2.4980 C   0  0  1  0  0  0  0  0  0  0  0  0
   -9.6590    8.7260   -2.9520 C   0  0  0  0  0  0  0  0  0  0  0  0
  -10.2820    6.5200   -1.7560 C   0  0  2  0  0  0  0  0  0  0  0  0
  -11.5720    6.3020   -2.5650 C   0  0  0  0  0  0  0  0  0  0  0  0
  -12.6110    7.3620   -2.4060 C   0  0  0  0  0  0  0  0  0  0  0  0
  -12.6360    8.2940   -1.4350 C   0  0  0  0  0  0  0  0  0  0  0  0
  -11.5980    8.2820   -0.3050 C   0  0  1  0  0  0  0  0  0  0  0  0
  -12.3140    8.4760    1.0570 C   0  0  0  0  0  0  0  0  0  0  0  0
  -13.1910    9.7240    1.0850 C   0  0  0  0  0  0  0  0  0  0  0  0
  -14.2470    9.6720   -0.0160 C   0  0  2  0  0  0  0  0  0  0  0  0
  -15.1640    8.6120    0.2730 O   0  0  0  0  0  0  0  0  0  0  0  0
  -13.6450    9.4690   -1.4350 C   0  0  0  0  0  0  0  0  0  0  0  0
  -12.8960   10.7520   -1.8710 C   0  0  0  0  0  0  0  0  0  0  0  0
  -14.8210    9.2920   -2.4320 C   0  0  0  0  0  0  0  0  0  0  0  0
  -10.5960    7.0480   -0.2980 C   0  0  1  0  0  0  0  0  0  0  0  0
  -11.2280    5.8540    0.4820 C   0  0  0  0  0  0  0  0  0  0  0  0
   -9.2920    7.4500    0.4870 C   0  0  0  0  0  0  0  0  0  0  0  0
   -8.1720    8.1270   -0.3260 C   0  0  0  0  0  0  0  0  0  0  0  0
   -7.8680    7.3380   -1.6030 C   0  0  2  0  0  0  0  0  0  0  0  0
   -7.3430    5.9240   -1.1780 C   0  0  0  0  0  0  0  0  0  0  0  0
   -4.7481    5.9534   -1.3683 H   0  0  0  0  0  0  0  0  0  0  0  0
   -5.6518    5.8283   -2.9156 H   0  0  0  0  0  0  0  0  0  0  0  0
   -3.9436    6.3839   -2.9156 H   0  0  0  0  0  0  0  0  0  0  0  0
   -4.7617    8.4701   -2.8834 H   0  0  0  0  0  0  0  0  0  0  0  0
   -6.1067    8.7322   -0.3789 H   0  0  0  0  0  0  0  0  0  0  0  0
   -4.7259    7.5495   -0.1839 H   0  0  0  0  0  0  0  0  0  0  0  0
   -4.2853   10.1959   -1.5582 H   0  0  0  0  0  0  0  0  0  0  0  0
   -4.3080   10.0721    0.2505 H   0  0  0  0  0  0  0  0  0  0  0  0
   -3.0469    8.0477   -1.0536 H   0  0  0  0  0  0  0  0  0  0  0  0
   -1.7744   11.9575   -0.5221 H   0  0  0  0  0  0  0  0  0  0  0  0
   -0.8363   11.6727   -2.0273 H   0  0  0  0  0  0  0  0  0  0  0  0
   -2.6202   11.4618   -2.0273 H   0  0  0  0  0  0  0  0  0  0  0  0
    0.3161    8.9309   -0.6320 H   0  0  0  0  0  0  0  0  0  0  0  0
   -0.5206    8.3571   -2.1143 H   0  0  0  0  0  0  0  0  0  0  0  0
    0.3183    9.9455   -2.1143 H   0  0  0  0  0  0  0  0  0  0  0  0
   -6.9433    9.0569   -2.5873 H   0  0  0  0  0  0  0  0  0  0  0  0
   -7.1438    7.9918   -4.7457 H   0  0  0  0  0  0  0  0  0  0  0  0
   -6.4322    6.4765   -4.1501 H   0  0  0  0  0  0  0  0  0  0  0  0
   -9.2098    6.9226   -4.6532 H   0  0  0  0  0  0  0  0  0  0  0  0
   -8.5804    5.5677   -3.7195 H   0  0  0  0  0  0  0  0  0  0  0  0
   -9.8766    9.3411   -2.0664 H   0  0  0  0  0  0  0  0  0  0  0  0
   -8.8789    9.2140   -3.5548 H   0  0  0  0  0  0  0  0  0  0  0  0
  -10.5724    8.6151   -3.5548 H   0  0  0  0  0  0  0  0  0  0  0  0
   -9.8283    5.5242   -1.6440 H   0  0  0  0  0  0  0  0  0  0  0  0
  -11.3007    6.2490   -3.6297 H   0  0  0  0  0  0  0  0  0  0  0  0
  -12.0209    5.3753   -2.1781 H   0  0  0  0  0  0  0  0  0  0  0  0
  -13.4254    7.3833   -3.1451 H   0  0  0  0  0  0  0  0  0  0  0  0
  -10.9271    9.1321   -0.4981 H   0  0  0  0  0  0  0  0  0  0  0  0
  -12.9458    7.5968    1.2515 H   0  0  0  0  0  0  0  0  0  0  0  0
  -11.5383    8.5960    1.8276 H   0  0  0  0  0  0  0  0  0  0  0  0
  -13.6922    9.7902    2.0620 H   0  0  0  0  0  0  0  0  0  0  0  0
  -12.5538   10.6053    0.9197 H   0  0  0  0  0  0  0  0  0  0  0  0
  -14.7571   10.6465   -0.0283 H   0  0  0  0  0  0  0  0  0  0  0  0
  -15.4930    8.7470    1.1780 H   0  0  0  0  0  0  0  0  0  0  0  0
  -12.5714   11.3081   -0.9791 H   0  0  0  0  0  0  0  0  0  0  0  0
  -12.0166   10.4769   -2.4718 H   0  0  0  0  0  0  0  0  0  0  0  0
  -13.5679   11.3825   -2.4718 H   0  0  0  0  0  0  0  0  0  0  0  0
  -15.7577    9.1510   -1.8728 H   0  0  0  0  0  0  0  0  0  0  0  0
  -14.9031   10.1879   -3.0649 H   0  0  0  0  0  0  0  0  0  0  0  0
  -14.6358    8.4116   -3.0649 H   0  0  0  0  0  0  0  0  0  0  0  0
  -11.1340    6.0317    1.5635 H   0  0  0  0  0  0  0  0  0  0  0  0
  -12.2917    5.7644    0.2163 H   0  0  0  0  0  0  0  0  0  0  0  0
  -10.7040    4.9240    0.2163 H   0  0  0  0  0  0  0  0  0  0  0  0
   -9.5867    8.1432    1.2887 H   0  0  0  0  0  0  0  0  0  0  0  0
   -8.8609    6.4995    0.8344 H   0  0  0  0  0  0  0  0  0  0  0  0
   -8.4897    9.1442   -0.5986 H   0  0  0  0  0  0  0  0  0  0  0  0
   -7.2618    8.1602    0.2908 H   0  0  0  0  0  0  0  0  0  0  0  0
   -7.3181    5.8568   -0.0803 H   0  0  0  0  0  0  0  0  0  0  0  0
   -8.0132    5.1487   -1.5777 H   0  0  0  0  0  0  0  0  0  0  0  0
   -6.3292    5.7739   -1.5777 H   0  0  0  0  0  0  0  0  0  0  0  0
  1  2  1  0
  2  3  1  0
  3  4  1  0
  4  5  1  0
  5  6  1  0
  6  7  1  0
  7  8  1  0
  7  9  1  0
  2 10  1  0
 10 11  1  0
 11 12  1  0
 12 13  1  0
 13 14  1  6
 13 15  1  0
 15 16  1  0
 16 17  1  0
 17 18  2  0
 18 19  1  0
 19 20  1  0
 20 21  1  0
 21 22  1  0
 22 23  1  0
 22 24  1  0
 24 25  1  0
 24 26  1  0
 19 27  1  0
 27 28  1  1
 27 29  1  0
 29 30  1  0
 30 31  1  0
 31 32  1  1
  7  5  1  0
 31 10  1  0
 31 13  1  0
 27 15  1  0
 24 18  1  0
  1 33  1  0
  1 34  1  0
  1 35  1  0
  2 36  1  6
  3 37  1  0
  3 38  1  0
  4 39  1  0
  4 40  1  0
  5 41  1  6
  8 42  1  0
  8 43  1  0
  8 44  1  0
  9 45  1  0
  9 46  1  0
  9 47  1  0
 10 48  1  6
 11 49  1  0
 11 50  1  0
 12 51  1  0
 12 52  1  0
 14 53  1  0
 14 54  1  0
 14 55  1  0
 15 56  1  1
 16 57  1  0
 16 58  1  0
 17 59  1  0
 19 60  1  6
 20 61  1  0
 20 62  1  0
 21 63  1  0
 21 64  1  0
 22 65  1  6
 23 66  1  0
 25 67  1  0
 25 68  1  0
 25 69  1  0
 26 70  1  0
 26 71  1  0
 26 72  1  0
 28 73  1  0
 28 74  1  0
 28 75  1  0
 29 76  1  0
 29 77  1  0
 30 78  1  0
 30 79  1  0
 32 80  1  0
 32 81  1  0
 32 82  1  0
M  END
>  <meeko>  (4) 
{"is_sidechain": [false], "intermolecular_energy": 2.731, "internal_energy": -0.839}

$$$$
EPH_relaxed_0001_pdb2pqr_Repair_98_r2_0001_out
     RDKit          3D

 82 86  0  0  0  0  0  0  0  0999 V2000
    2.0100   18.2540   -2.7110 C   0  0  0  0  0  0  0  0  0  0  0  0
    0.7840   17.7560   -1.9390 C   0  0  2  0  0  0  0  0  0  0  0  0
    0.9930   17.8210   -0.4130 C   0  0  0  0  0  0  0  0  0  0  0  0
    2.4270   18.1660   -0.0020 C   0  0  0  0  0  0  0  0  0  0  0  0
    2.4620   19.2660    1.0150 C   0  0  2  0  0  0  0  0  0  0  0  0
    3.5430   20.1940    0.8560 O   0  0  0  0  0  0  0  0  0  0  0  0
    3.5560   19.4070    2.0570 C   0  0  0  0  0  0  0  0  0  0  0  0
    4.6900   18.4340    2.1350 C   0  0  0  0  0  0  0  0  0  0  0  0
    3.2660   20.1940    3.2970 C   0  0  0  0  0  0  0  0  0  0  0  0
    0.4500   16.3300   -2.3590 C   0  0  1  0  0  0  0  0  0  0  0  0
    0.6400   16.0950   -3.8810 C   0  0  0  0  0  0  0  0  0  0  0  0
    1.1470   14.6390   -4.0500 C   0  0  0  0  0  0  0  0  0  0  0  0
    0.9160   13.9840   -2.6680 C   0  0  1  0  0  0  0  0  0  0  0  0
   -0.5950   13.5910   -2.6580 C   0  0  0  0  0  0  0  0  0  0  0  0
    1.8320   12.7650   -2.3190 C   0  0  2  0  0  0  0  0  0  0  0  0
    1.6770   11.5470   -3.2450 C   0  0  0  0  0  0  0  0  0  0  0  0
    0.6570   10.5440   -2.8150 C   0  0  0  0  0  0  0  0  0  0  0  0
    0.1000   10.4710   -1.5930 C   0  0  0  0  0  0  0  0  0  0  0  0
    0.5590   11.3990   -0.4610 C   0  0  1  0  0  0  0  0  0  0  0  0
    0.7750   10.5700    0.8330 C   0  0  0  0  0  0  0  0  0  0  0  0
   -0.4540    9.7490    1.2130 C   0  0  0  0  0  0  0  0  0  0  0  0
   -0.8440    8.7980    0.0860 C   0  0  2  0  0  0  0  0  0  0  0  0
    0.1830    7.8130   -0.0640 O   0  0  0  0  0  0  0  0  0  0  0  0
   -1.0780    9.5190   -1.2710 C   0  0  0  0  0  0  0  0  0  0  0  0
   -2.3770   10.3600   -1.1960 C   0  0  0  0  0  0  0  0  0  0  0  0
   -1.3260    8.4330   -2.3520 C   0  0  0  0  0  0  0  0  0  0  0  0
    1.7940   12.3420   -0.7950 C   0  0  1  0  0  0  0  0  0  0  0  0
    3.1300   11.5900   -0.5090 C   0  0  0  0  0  0  0  0  0  0  0  0
    1.7690   13.5850    0.1710 C   0  0  0  0  0  0  0  0  0  0  0  0
    0.9430   14.8020   -0.2850 C   0  0  0  0  0  0  0  0  0  0  0  0
    1.2850   15.1880   -1.7270 C   0  0  2  0  0  0  0  0  0  0  0  0
    2.7940   15.6100   -1.7640 C   0  0  0  0  0  0  0  0  0  0  0  0
    2.7876   18.5699   -2.0000 H   0  0  0  0  0  0  0  0  0  0  0  0
    2.3993   17.4427   -3.3437 H   0  0  0  0  0  0  0  0  0  0  0  0
    1.7233   19.1070   -3.3437 H   0  0  0  0  0  0  0  0  0  0  0  0
   -0.0557   18.4224   -2.1854 H   0  0  0  0  0  0  0  0  0  0  0  0
    0.3201   18.5884   -0.0028 H   0  0  0  0  0  0  0  0  0  0  0  0
    0.7775   16.8180   -0.0161 H   0  0  0  0  0  0  0  0  0  0  0  0
    2.9008   17.2700    0.4254 H   0  0  0  0  0  0  0  0  0  0  0  0
    2.9674   18.5086   -0.8968 H   0  0  0  0  0  0  0  0  0  0  0  0
    1.3648   19.2613    1.0928 H   0  0  0  0  0  0  0  0  0  0  0  0
    4.9269   18.2308    3.1898 H   0  0  0  0  0  0  0  0  0  0  0  0
    4.4036   17.4963    1.6363 H   0  0  0  0  0  0  0  0  0  0  0  0
    5.5733   18.8596    1.6363 H   0  0  0  0  0  0  0  0  0  0  0  0
    3.4920   19.5807    4.1818 H   0  0  0  0  0  0  0  0  0  0  0  0
    3.8892   21.1003    3.3102 H   0  0  0  0  0  0  0  0  0  0  0  0
    2.2037   20.4792    3.3102 H   0  0  0  0  0  0  0  0  0  0  0  0
   -0.5908   16.2739   -2.0076 H   0  0  0  0  0  0  0  0  0  0  0  0
   -0.3173   16.2260   -4.4068 H   0  0  0  0  0  0  0  0  0  0  0  0
    1.3565   16.8140   -4.3049 H   0  0  0  0  0  0  0  0  0  0  0  0
    0.5730   14.1156   -4.8289 H   0  0  0  0  0  0  0  0  0  0  0  0
    2.2013   14.5973   -4.3610 H   0  0  0  0  0  0  0  0  0  0  0  0
   -0.9434   13.5004   -1.6186 H   0  0  0  0  0  0  0  0  0  0  0  0
   -1.1791   14.3671   -3.1742 H   0  0  0  0  0  0  0  0  0  0  0  0
   -0.7270   12.6286   -3.1742 H   0  0  0  0  0  0  0  0  0  0  0  0
    2.8390   13.1620   -2.5147 H   0  0  0  0  0  0  0  0  0  0  0  0
    1.3943   11.9127   -4.2431 H   0  0  0  0  0  0  0  0  0  0  0  0
    2.6448   11.0245   -3.2249 H   0  0  0  0  0  0  0  0  0  0  0  0
    0.3342    9.8026   -3.5607 H   0  0  0  0  0  0  0  0  0  0  0  0
   -0.2571   12.1209   -0.3099 H   0  0  0  0  0  0  0  0  0  0  0  0
    1.6218    9.8856    0.6763 H   0  0  0  0  0  0  0  0  0  0  0  0
    0.9721   11.2760    1.6532 H   0  0  0  0  0  0  0  0  0  0  0  0
   -0.2304    9.1635    2.1170 H   0  0  0  0  0  0  0  0  0  0  0  0
   -1.2923   10.4368    1.3979 H   0  0  0  0  0  0  0  0  0  0  0  0
   -1.8016    8.3337    0.3641 H   0  0  0  0  0  0  0  0  0  0  0  0
    0.3530    7.4300    0.8140 H   0  0  0  0  0  0  0  0  0  0  0  0
   -2.6423   10.5317   -0.1424 H   0  0  0  0  0  0  0  0  0  0  0  0
   -2.2174   11.3266   -1.6962 H   0  0  0  0  0  0  0  0  0  0  0  0
   -3.1936    9.8187   -1.6962 H   0  0  0  0  0  0  0  0  0  0  0  0
   -1.5454    7.4724   -1.8631 H   0  0  0  0  0  0  0  0  0  0  0  0
   -2.1798    8.7285   -2.9795 H   0  0  0  0  0  0  0  0  0  0  0  0
   -0.4286    8.3286   -2.9795 H   0  0  0  0  0  0  0  0  0  0  0  0
    3.2784   11.5065    0.5777 H   0  0  0  0  0  0  0  0  0  0  0  0
    3.0864   10.5839   -0.9515 H   0  0  0  0  0  0  0  0  0  0  0  0
    3.9675   12.1492   -0.9515 H   0  0  0  0  0  0  0  0  0  0  0  0
    1.3613   13.2486    1.1357 H   0  0  0  0  0  0  0  0  0  0  0  0
    2.8091   13.9409    0.2091 H   0  0  0  0  0  0  0  0  0  0  0  0
   -0.1269   14.5542   -0.2230 H   0  0  0  0  0  0  0  0  0  0  0  0
    1.1802   15.6524    0.3712 H   0  0  0  0  0  0  0  0  0  0  0  0
    3.1706   15.7153   -0.7359 H   0  0  0  0  0  0  0  0  0  0  0  0
    3.3771   14.8405   -2.2911 H   0  0  0  0  0  0  0  0  0  0  0  0
    2.8933   16.5704   -2.2911 H   0  0  0  0  0  0  0  0  0  0  0  0
  1  2  1  0
  2  3  1  0
  3  4  1  0
  4  5  1  0
  5  6  1  0
  6  7  1  0
  7  8  1  0
  7  9  1  0
  2 10  1  0
 10 11  1  0
 11 12  1  0
 12 13  1  0
 13 14  1  6
 13 15  1  0
 15 16  1  0
 16 17  1  0
 17 18  2  0
 18 19  1  0
 19 20  1  0
 20 21  1  0
 21 22  1  0
 22 23  1  0
 22 24  1  0
 24 25  1  0
 24 26  1  0
 19 27  1  0
 27 28  1  1
 27 29  1  0
 29 30  1  0
 30 31  1  0
 31 32  1  1
  7  5  1  0
 31 10  1  0
 31 13  1  0
 27 15  1  0
 24 18  1  0
  1 33  1  0
  1 34  1  0
  1 35  1  0
  2 36  1  1
  3 37  1  0
  3 38  1  0
  4 39  1  0
  4 40  1  0
  5 41  1  1
  8 42  1  0
  8 43  1  0
  8 44  1  0
  9 45  1  0
  9 46  1  0
  9 47  1  0
 10 48  1  6
 11 49  1  0
 11 50  1  0
 12 51  1  0
 12 52  1  0
 14 53  1  0
 14 54  1  0
 14 55  1  0
 15 56  1  6
 16 57  1  0
 16 58  1  0
 17 59  1  0
 19 60  1  1
 20 61  1  0
 20 62  1  0
 21 63  1  0
 21 64  1  0
 22 65  1  1
 23 66  1  0
 25 67  1  0
 25 68  1  0
 25 69  1  0
 26 70  1  0
 26 71  1  0
 26 72  1  0
 28 73  1  0
 28 74  1  0
 28 75  1  0
 29 76  1  0
 29 77  1  0
 30 78  1  0
 30 79  1  0
 32 80  1  0
 32 81  1  0
 32 82  1  0
M  END
>  <meeko>  (5) 
{"is_sidechain": [false], "intermolecular_energy": 2.731, "internal_energy": -0.839}

$$$$
EPH_relaxed_0001_pdb2pqr_Repair_98_r2_0001_out
     RDKit          3D

 82 86  0  0  0  0  0  0  0  0999 V2000
    3.6730   17.4100    0.4900 C   0  0  0  0  0  0  0  0  0  0  0  0
    2.6630   17.6300   -0.6390 C   0  0  2  0  0  0  0  0  0  0  0  0
    2.0130   19.0270   -0.5730 C   0  0  0  0  0  0  0  0  0  0  0  0
    1.1690   19.2540    0.6840 C   0  0  0  0  0  0  0  0  0  0  0  0
   -0.0630   20.0540    0.3870 C   0  0  2  0  0  0  0  0  0  0  0  0
   -0.9670   20.1940    1.4910 O   0  0  0  0  0  0  0  0  0  0  0  0
   -1.4600   19.4600    0.3590 C   0  0  0  0  0  0  0  0  0  0  0  0
   -1.6960   18.0080    0.6310 C   0  0  0  0  0  0  0  0  0  0  0  0
   -2.5270   20.1780   -0.4070 C   0  0  0  0  0  0  0  0  0  0  0  0
    1.5860   16.5520   -0.5910 C   0  0  1  0  0  0  0  0  0  0  0  0
    0.1900   17.0830   -1.0130 C   0  0  0  0  0  0  0  0  0  0  0  0
   -0.5220   15.9250   -1.7590 C   0  0  0  0  0  0  0  0  0  0  0  0
    0.3400   14.6770   -1.4560 C   0  0  1  0  0  0  0  0  0  0  0  0
   -0.1150   14.2110   -0.0370 C   0  0  0  0  0  0  0  0  0  0  0  0
    0.2640   13.5140   -2.4980 C   0  0  2  0  0  0  0  0  0  0  0  0
   -1.1250   12.8720   -2.6590 C   0  0  0  0  0  0  0  0  0  0  0  0
   -1.3990   11.7110   -1.7620 C   0  0  0  0  0  0  0  0  0  0  0  0
   -0.4730   11.0230   -1.0680 C   0  0  0  0  0  0  0  0  0  0  0  0
    1.0210   11.3360   -1.2240 C   0  0  1  0  0  0  0  0  0  0  0  0
    1.8120   10.0130   -1.3960 C   0  0  0  0  0  0  0  0  0  0  0  0
    1.5380    9.0170   -0.2730 C   0  0  0  0  0  0  0  0  0  0  0  0
    0.0500    8.6870   -0.1870 C   0  0  2  0  0  0  0  0  0  0  0  0
   -0.3320    7.9740   -1.3670 O   0  0  0  0  0  0  0  0  0  0  0  0
   -0.8480    9.9450   -0.0220 C   0  0  0  0  0  0  0  0  0  0  0  0
   -0.6460   10.5460    1.3910 C   0  0  0  0  0  0  0  0  0  0  0  0
   -2.3290    9.4860   -0.0910 C   0  0  0  0  0  0  0  0  0  0  0  0
    1.3910   12.4170   -2.3290 C   0  0  1  0  0  0  0  0  0  0  0  0
    1.5510   11.7250   -3.7170 C   0  0  0  0  0  0  0  0  0  0  0  0
    2.7920   13.0470   -1.9820 C   0  0  0  0  0  0  0  0  0  0  0  0
    2.7920   14.2670   -1.0420 C   0  0  0  0  0  0  0  0  0  0  0  0
    1.7760   15.3160   -1.5060 C   0  0  2  0  0  0  0  0  0  0  0  0
    2.2200   15.8200   -2.9210 C   0  0  0  0  0  0  0  0  0  0  0  0
    3.1675   17.5201    1.4608 H   0  0  0  0  0  0  0  0  0  0  0  0
    4.0975   16.3983    0.4103 H   0  0  0  0  0  0  0  0  0  0  0  0
    4.4798   18.1535    0.4103 H   0  0  0  0  0  0  0  0  0  0  0  0
    3.2115   17.5655   -1.5903 H   0  0  0  0  0  0  0  0  0  0  0  0
    2.8116   19.7831   -0.5964 H   0  0  0  0  0  0  0  0  0  0  0  0
    1.3342   19.1069   -1.4349 H   0  0  0  0  0  0  0  0  0  0  0  0
    0.8701   18.2779    1.0938 H   0  0  0  0  0  0  0  0  0  0  0  0
    1.7767   19.8161    1.4084 H   0  0  0  0  0  0  0  0  0  0  0  0
    0.4878   20.6795   -0.3310 H   0  0  0  0  0  0  0  0  0  0  0  0
   -1.7236   17.8382    1.7175 H   0  0  0  0  0  0  0  0  0  0  0  0
   -2.6555   17.7031    0.1878 H   0  0  0  0  0  0  0  0  0  0  0  0
   -0.8825   17.4150    0.1878 H   0  0  0  0  0  0  0  0  0  0  0  0
   -3.2286   20.6501    0.2964 H   0  0  0  0  0  0  0  0  0  0  0  0
   -2.0668   20.9509   -1.0401 H   0  0  0  0  0  0  0  0  0  0  0  0
   -3.0696   19.4606   -1.0401 H   0  0  0  0  0  0  0  0  0  0  0  0
    1.6692   16.2549    0.4648 H   0  0  0  0  0  0  0  0  0  0  0  0
   -0.3892   17.3739   -0.1242 H   0  0  0  0  0  0  0  0  0  0  0  0
    0.2828   17.9699   -1.6571 H   0  0  0  0  0  0  0  0  0  0  0  0
   -1.5460   15.7908   -1.3804 H   0  0  0  0  0  0  0  0  0  0  0  0
   -0.6124   16.1174   -2.8383 H   0  0  0  0  0  0  0  0  0  0  0  0
    0.4366   14.7760    0.7289 H   0  0  0  0  0  0  0  0  0  0  0  0
   -1.1937   14.3918    0.0799 H   0  0  0  0  0  0  0  0  0  0  0  0
    0.0915   13.1369    0.0799 H   0  0  0  0  0  0  0  0  0  0  0  0
    0.4649   14.0342   -3.4462 H   0  0  0  0  0  0  0  0  0  0  0  0
   -1.8818   13.6441   -2.4562 H   0  0  0  0  0  0  0  0  0  0  0  0
   -1.1610   12.4783   -3.6855 H   0  0  0  0  0  0  0  0  0  0  0  0
   -2.4462   11.3903   -1.6592 H   0  0  0  0  0  0  0  0  0  0  0  0
    1.3264   11.8345   -0.2922 H   0  0  0  0  0  0  0  0  0  0  0  0
    1.5255    9.5528   -2.3531 H   0  0  0  0  0  0  0  0  0  0  0  0
    2.8838   10.2591   -1.3698 H   0  0  0  0  0  0  0  0  0  0  0  0
    2.1012    8.0922   -0.4668 H   0  0  0  0  0  0  0  0  0  0  0  0
    1.8533    9.4670    0.6799 H   0  0  0  0  0  0  0  0  0  0  0  0
   -0.1011    8.0742    0.7139 H   0  0  0  0  0  0  0  0  0  0  0  0
   -1.2100    7.5870   -1.2060 H   0  0  0  0  0  0  0  0  0  0  0  0
   -0.8996    9.7914    2.1501 H   0  0  0  0  0  0  0  0  0  0  0  0
    0.4039   10.8506    1.5132 H   0  0  0  0  0  0  0  0  0  0  0  0
   -1.2988   11.4229    1.5132 H   0  0  0  0  0  0  0  0  0  0  0  0
   -2.7229    9.3639    0.9288 H   0  0  0  0  0  0  0  0  0  0  0  0
   -2.9227   10.2423   -0.6253 H   0  0  0  0  0  0  0  0  0  0  0  0
   -2.3910    8.5265   -0.6253 H   0  0  0  0  0  0  0  0  0  0  0  0
    1.7966   10.6628   -3.5710 H   0  0  0  0  0  0  0  0  0  0  0  0
    0.6096   11.8097   -4.2796 H   0  0  0  0  0  0  0  0  0  0  0  0
    2.3597   12.2143   -4.2796 H   0  0  0  0  0  0  0  0  0  0  0  0
    3.4014   12.2628   -1.5092 H   0  0  0  0  0  0  0  0  0  0  0  0
    3.1838   13.4216   -2.9392 H   0  0  0  0  0  0  0  0  0  0  0  0
    2.5310   13.9381   -0.0253 H   0  0  0  0  0  0  0  0  0  0  0  0
    3.7945   14.7197   -1.0544 H   0  0  0  0  0  0  0  0  0  0  0  0
    2.9433   16.6410   -2.8075 H   0  0  0  0  0  0  0  0  0  0  0  0
    2.6882   14.9928   -3.4746 H   0  0  0  0  0  0  0  0  0  0  0  0
    1.3403   16.1802   -3.4746 H   0  0  0  0  0  0  0  0  0  0  0  0
  1  2  1  0
  2  3  1  0
  3  4  1  0
  4  5  1  0
  5  6  1  0
  6  7  1  0
  7  8  1  0
  7  9  1  0
  2 10  1  0
 10 11  1  0
 11 12  1  0
 12 13  1  0
 13 14  1  1
 13 15  1  0
 15 16  1  0
 16 17  1  0
 17 18  2  0
 18 19  1  0
 19 20  1  0
 20 21  1  0
 21 22  1  0
 22 23  1  0
 22 24  1  0
 24 25  1  0
 24 26  1  0
 19 27  1  0
 27 28  1  6
 27 29  1  0
 29 30  1  0
 30 31  1  0
 31 32  1  6
  7  5  1  0
 31 10  1  0
 31 13  1  0
 27 15  1  0
 24 18  1  0
  1 33  1  0
  1 34  1  0
  1 35  1  0
  2 36  1  6
  3 37  1  0
  3 38  1  0
  4 39  1  0
  4 40  1  0
  5 41  1  6
  8 42  1  0
  8 43  1  0
  8 44  1  0
  9 45  1  0
  9 46  1  0
  9 47  1  0
 10 48  1  1
 11 49  1  0
 11 50  1  0
 12 51  1  0
 12 52  1  0
 14 53  1  0
 14 54  1  0
 14 55  1  0
 15 56  1  6
 16 57  1  0
 16 58  1  0
 17 59  1  0
 19 60  1  1
 20 61  1  0
 20 62  1  0
 21 63  1  0
 21 64  1  0
 22 65  1  1
 23 66  1  0
 25 67  1  0
 25 68  1  0
 25 69  1  0
 26 70  1  0
 26 71  1  0
 26 72  1  0
 28 73  1  0
 28 74  1  0
 28 75  1  0
 29 76  1  0
 29 77  1  0
 30 78  1  0
 30 79  1  0
 32 80  1  0
 32 81  1  0
 32 82  1  0
M  END
>  <meeko>  (6) 
{"is_sidechain": [false], "intermolecular_energy": 2.731, "internal_energy": -0.839}

$$$$
EPH_relaxed_0001_pdb2pqr_Repair_98_r2_0001_out
     RDKit          3D

 82 86  0  0  0  0  0  0  0  0999 V2000
    0.4360    8.8580   -2.3430 C   0  0  0  0  0  0  0  0  0  0  0  0
    1.1850    9.9880   -3.0560 C   0  0  2  0  0  0  0  0  0  0  0  0
    2.6830   10.0140   -2.6900 C   0  0  0  0  0  0  0  0  0  0  0  0
    3.5760   10.5870   -3.7930 C   0  0  0  0  0  0  0  0  0  0  0  0
    4.9730   10.8270   -3.3060 C   0  0  2  0  0  0  0  0  0  0  0  0
    5.5680   12.0460   -3.7690 O   0  0  0  0  0  0  0  0  0  0  0  0
    6.1880   10.8290   -4.2160 C   0  0  0  0  0  0  0  0  0  0  0  0
    6.0600   10.5860   -5.6870 C   0  0  0  0  0  0  0  0  0  0  0  0
    7.5350   10.5810   -3.6120 C   0  0  0  0  0  0  0  0  0  0  0  0
    0.5440   11.3290   -2.7210 C   0  0  1  0  0  0  0  0  0  0  0  0
   -0.8600   11.1760   -2.0780 C   0  0  0  0  0  0  0  0  0  0  0  0
   -1.0070   12.3230   -1.0450 C   0  0  0  0  0  0  0  0  0  0  0  0
    0.1640   13.2830   -1.3600 C   0  0  1  0  0  0  0  0  0  0  0  0
   -0.3320   14.1380   -2.5680 C   0  0  0  0  0  0  0  0  0  0  0  0
    0.6570   14.1830   -0.1800 C   0  0  2  0  0  0  0  0  0  0  0  0
   -0.3880   15.1710    0.3670 C   0  0  0  0  0  0  0  0  0  0  0  0
   -0.3950   16.5150   -0.2830 C   0  0  0  0  0  0  0  0  0  0  0  0
    0.5820   17.0110   -1.0650 C   0  0  0  0  0  0  0  0  0  0  0  0
    1.8860   16.2340   -1.2850 C   0  0  1  0  0  0  0  0  0  0  0  0
    3.0940   17.1920   -1.1140 C   0  0  0  0  0  0  0  0  0  0  0  0
    2.9930   18.4260   -2.0050 C   0  0  0  0  0  0  0  0  0  0  0  0
    1.7120   19.2040   -1.7170 C   0  0  2  0  0  0  0  0  0  0  0  0
    1.7910   19.7500   -0.3970 O   0  0  0  0  0  0  0  0  0  0  0  0
    0.4270   18.3380   -1.8480 C   0  0  0  0  0  0  0  0  0  0  0  0
    0.1790   17.9980   -3.3390 C   0  0  0  0  0  0  0  0  0  0  0  0
   -0.7800   19.2040   -1.3940 C   0  0  0  0  0  0  0  0  0  0  0  0
    2.0450   14.8950   -0.4440 C   0  0  1  0  0  0  0  0  0  0  0  0
    2.6540   15.2150    0.9560 C   0  0  0  0  0  0  0  0  0  0  0  0
    3.0740   13.9510   -1.1710 C   0  0  0  0  0  0  0  0  0  0  0  0
    2.5070   13.0010   -2.2430 C   0  0  0  0  0  0  0  0  0  0  0  0
    1.2870   12.2410   -1.7130 C   0  0  2  0  0  0  0  0  0  0  0  0
    1.7600   11.3550   -0.5110 C   0  0  0  0  0  0  0  0  0  0  0  0
    0.5234    8.9899   -1.2544 H   0  0  0  0  0  0  0  0  0  0  0  0
   -0.6253    8.8825   -2.6313 H   0  0  0  0  0  0  0  0  0  0  0  0
    0.8720    7.8901   -2.6313 H   0  0  0  0  0  0  0  0  0  0  0  0
    1.1128    9.8013   -4.1376 H   0  0  0  0  0  0  0  0  0  0  0  0
    2.8091   10.6288   -1.7866 H   0  0  0  0  0  0  0  0  0  0  0  0
    2.9940    8.9704   -2.5343 H   0  0  0  0  0  0  0  0  0  0  0  0
    3.6080    9.8756   -4.6314 H   0  0  0  0  0  0  0  0  0  0  0  0
    3.1529   11.5515   -4.1105 H   0  0  0  0  0  0  0  0  0  0  0  0
    4.7586   10.3038   -2.3624 H   0  0  0  0  0  0  0  0  0  0  0  0
    5.5535    9.6245   -5.8571 H   0  0  0  0  0  0  0  0  0  0  0  0
    5.4716   11.3960   -6.1426 H   0  0  0  0  0  0  0  0  0  0  0  0
    7.0608   10.5589   -6.1426 H   0  0  0  0  0  0  0  0  0  0  0  0
    7.4534   10.5960   -2.5151 H   0  0  0  0  0  0  0  0  0  0  0  0
    7.9081    9.5991   -3.9385 H   0  0  0  0  0  0  0  0  0  0  0  0
    8.2333   11.3657   -3.9385 H   0  0  0  0  0  0  0  0  0  0  0  0
    0.5492   11.7899   -3.7198 H   0  0  0  0  0  0  0  0  0  0  0  0
   -1.6405   11.2582   -2.8488 H   0  0  0  0  0  0  0  0  0  0  0  0
   -0.9680   10.1936   -1.5951 H   0  0  0  0  0  0  0  0  0  0  0  0
   -1.9728   12.8350   -1.1678 H   0  0  0  0  0  0  0  0  0  0  0  0
   -0.9794   11.9570   -0.0080 H   0  0  0  0  0  0  0  0  0  0  0  0
   -0.8513   15.0331   -2.1950 H   0  0  0  0  0  0  0  0  0  0  0  0
    0.5297   14.4424   -3.1802 H   0  0  0  0  0  0  0  0  0  0  0  0
   -1.0240   13.5410   -3.1802 H   0  0  0  0  0  0  0  0  0  0  0  0
    0.8232   13.4499    0.6231 H   0  0  0  0  0  0  0  0  0  0  0  0
   -1.3834   14.7227    0.2319 H   0  0  0  0  0  0  0  0  0  0  0  0
   -0.1224   15.3433    1.4205 H   0  0  0  0  0  0  0  0  0  0  0  0
   -1.2730   17.1542   -0.1081 H   0  0  0  0  0  0  0  0  0  0  0  0
    1.8482   15.8619   -2.3195 H   0  0  0  0  0  0  0  0  0  0  0  0
    3.1398   17.5178   -0.0644 H   0  0  0  0  0  0  0  0  0  0  0  0
    4.0003   16.6419   -1.4072 H   0  0  0  0  0  0  0  0  0  0  0  0
    3.8594   19.0772   -1.8174 H   0  0  0  0  0  0  0  0  0  0  0  0
    2.9768   18.0999   -3.0554 H   0  0  0  0  0  0  0  0  0  0  0  0
    1.6327   20.0000   -2.4720 H   0  0  0  0  0  0  0  0  0  0  0  0
    2.5900   19.3890    0.0230 H   0  0  0  0  0  0  0  0  0  0  0  0
   -0.4679   17.1112   -3.4102 H   0  0  0  0  0  0  0  0  0  0  0  0
   -0.3112   18.8500   -3.8327 H   0  0  0  0  0  0  0  0  0  0  0  0
    1.1400   17.7914   -3.8327 H   0  0  0  0  0  0  0  0  0  0  0  0
   -0.8186   19.2317   -0.2950 H   0  0  0  0  0  0  0  0  0  0  0  0
   -0.6645   20.2265   -1.7827 H   0  0  0  0  0  0  0  0  0  0  0  0
   -1.7116   18.7670   -1.7827 H   0  0  0  0  0  0  0  0  0  0  0  0
    1.9732   14.8573    1.7425 H   0  0  0  0  0  0  0  0  0  0  0  0
    3.6269   14.7116    1.0564 H   0  0  0  0  0  0  0  0  0  0  0  0
    2.7914   16.3018    1.0564 H   0  0  0  0  0  0  0  0  0  0  0  0
    3.8263   14.5899   -1.6567 H   0  0  0  0  0  0  0  0  0  0  0  0
    3.4682   13.2931   -0.3825 H   0  0  0  0  0  0  0  0  0  0  0  0
    2.2098   13.5890   -3.1238 H   0  0  0  0  0  0  0  0  0  0  0  0
    3.2851   12.2713   -2.5115 H   0  0  0  0  0  0  0  0  0  0  0  0
    1.4959   11.8497    0.4353 H   0  0  0  0  0  0  0  0  0  0  0  0
    1.2658   10.3736   -0.5621 H   0  0  0  0  0  0  0  0  0  0  0  0
    2.8504   11.2195   -0.5621 H   0  0  0  0  0  0  0  0  0  0  0  0
  1  2  1  0
  2  3  1  0
  3  4  1  0
  4  5  1  0
  5  6  1  0
  6  7  1  0
  7  8  1  0
  7  9  1  0
  2 10  1  0
 10 11  1  0
 11 12  1  0
 12 13  1  0
 13 14  1  6
 13 15  1  0
 15 16  1  0
 16 17  1  0
 17 18  2  0
 18 19  1  0
 19 20  1  0
 20 21  1  0
 21 22  1  0
 22 23  1  0
 22 24  1  0
 24 25  1  0
 24 26  1  0
 19 27  1  0
 27 28  1  1
 27 29  1  0
 29 30  1  0
 30 31  1  0
 31 32  1  1
  7  5  1  0
 31 10  1  0
 31 13  1  0
 27 15  1  0
 24 18  1  0
  1 33  1  0
  1 34  1  0
  1 35  1  0
  2 36  1  6
  3 37  1  0
  3 38  1  0
  4 39  1  0
  4 40  1  0
  5 41  1  1
  8 42  1  0
  8 43  1  0
  8 44  1  0
  9 45  1  0
  9 46  1  0
  9 47  1  0
 10 48  1  6
 11 49  1  0
 11 50  1  0
 12 51  1  0
 12 52  1  0
 14 53  1  0
 14 54  1  0
 14 55  1  0
 15 56  1  1
 16 57  1  0
 16 58  1  0
 17 59  1  0
 19 60  1  6
 20 61  1  0
 20 62  1  0
 21 63  1  0
 21 64  1  0
 22 65  1  6
 23 66  1  0
 25 67  1  0
 25 68  1  0
 25 69  1  0
 26 70  1  0
 26 71  1  0
 26 72  1  0
 28 73  1  0
 28 74  1  0
 28 75  1  0
 29 76  1  0
 29 77  1  0
 30 78  1  0
 30 79  1  0
 32 80  1  0
 32 81  1  0
 32 82  1  0
M  END
>  <meeko>  (7) 
{"is_sidechain": [false], "intermolecular_energy": 2.731, "internal_energy": -0.839}

$$$$
EPH_relaxed_0001_pdb2pqr_Repair_98_r2_0001_out
     RDKit          3D

 82 86  0  0  0  0  0  0  0  0999 V2000
  -14.0400    5.4780    0.4410 C   0  0  0  0  0  0  0  0  0  0  0  0
  -13.5710    6.9250    0.2610 C   0  0  2  0  0  0  0  0  0  0  0  0
  -14.7480    7.8890    0.0060 C   0  0  0  0  0  0  0  0  0  0  0  0
  -14.3900    9.3640    0.2070 C   0  0  0  0  0  0  0  0  0  0  0  0
  -15.1660   10.2530   -0.7170 C   0  0  2  0  0  0  0  0  0  0  0  0
  -15.1040    9.8800   -2.1000 O   0  0  0  0  0  0  0  0  0  0  0  0
  -14.5180   11.1460   -1.7580 C   0  0  0  0  0  0  0  0  0  0  0  0
  -13.0320   11.1950   -1.9290 C   0  0  0  0  0  0  0  0  0  0  0  0
  -15.2870   12.3240   -2.2690 C   0  0  0  0  0  0  0  0  0  0  0  0
  -12.5720    7.0080   -0.8870 C   0  0  1  0  0  0  0  0  0  0  0  0
  -13.0030    8.0200   -1.9820 C   0  0  0  0  0  0  0  0  0  0  0  0
  -11.7040    8.6680   -2.5280 C   0  0  0  0  0  0  0  0  0  0  0  0
  -10.5640    7.7810   -1.9750 C   0  0  1  0  0  0  0  0  0  0  0  0
  -10.5060    6.5540   -2.9390 C   0  0  0  0  0  0  0  0  0  0  0  0
   -9.1660    8.4660   -1.8290 C   0  0  2  0  0  0  0  0  0  0  0  0
   -8.5380    8.9560   -3.1450 C   0  0  0  0  0  0  0  0  0  0  0  0
   -7.6660    7.9650   -3.8430 C   0  0  0  0  0  0  0  0  0  0  0  0
   -7.1690    6.8390   -3.2970 C   0  0  0  0  0  0  0  0  0  0  0  0
   -7.3930    6.5170   -1.8140 C   0  0  1  0  0  0  0  0  0  0  0  0
   -6.0530    6.0670   -1.1740 C   0  0  0  0  0  0  0  0  0  0  0  0
   -5.4030    4.9130   -1.9300 C   0  0  0  0  0  0  0  0  0  0  0  0
   -5.1430    5.2910   -3.3860 C   0  0  2  0  0  0  0  0  0  0  0  0
   -4.1480    6.3190   -3.4240 O   0  0  0  0  0  0  0  0  0  0  0  0
   -6.4200    5.7710   -4.1310 C   0  0  0  0  0  0  0  0  0  0  0  0
   -7.3740    4.5710   -4.3540 C   0  0  0  0  0  0  0  0  0  0  0  0
   -5.9940    6.2550   -5.5440 C   0  0  0  0  0  0  0  0  0  0  0  0
   -8.1280    7.6410   -0.9640 C   0  0  1  0  0  0  0  0  0  0  0  0
   -7.0850    8.6670   -0.4230 C   0  0  0  0  0  0  0  0  0  0  0  0
   -8.7940    6.9770    0.2980 C   0  0  0  0  0  0  0  0  0  0  0  0
  -10.2220    6.4260    0.1210 C   0  0  0  0  0  0  0  0  0  0  0  0
  -11.1320    7.4640   -0.5440 C   0  0  2  0  0  0  0  0  0  0  0  0
  -11.2260    8.7010    0.4130 C   0  0  0  0  0  0  0  0  0  0  0  0
  -14.1147    5.2476    1.5140 H   0  0  0  0  0  0  0  0  0  0  0  0
  -15.0254    5.3506   -0.0309 H   0  0  0  0  0  0  0  0  0  0  0  0
  -13.3167    4.7967   -0.0309 H   0  0  0  0  0  0  0  0  0  0  0  0
  -13.0868    7.2355    1.1986 H   0  0  0  0  0  0  0  0  0  0  0  0
  -15.0902    7.7528   -1.0305 H   0  0  0  0  0  0  0  0  0  0  0  0
  -15.5288    7.6446    0.7412 H   0  0  0  0  0  0  0  0  0  0  0  0
  -14.6143    9.6470    1.2460 H   0  0  0  0  0  0  0  0  0  0  0  0
  -13.3198    9.4905   -0.0134 H   0  0  0  0  0  0  0  0  0  0  0  0
  -15.9132   10.4531    0.0651 H   0  0  0  0  0  0  0  0  0  0  0  0
  -12.5495   11.2109   -0.9406 H   0  0  0  0  0  0  0  0  0  0  0  0
  -12.6975   10.3074   -2.4860 H   0  0  0  0  0  0  0  0  0  0  0  0
  -12.7567   12.1027   -2.4860 H   0  0  0  0  0  0  0  0  0  0  0  0
  -15.6689   12.9091   -1.4194 H   0  0  0  0  0  0  0  0  0  0  0  0
  -14.6265   12.9553   -2.8816 H   0  0  0  0  0  0  0  0  0  0  0  0
  -16.1307   11.9734   -2.8816 H   0  0  0  0  0  0  0  0  0  0  0  0
  -12.5679    5.9549   -1.2048 H   0  0  0  0  0  0  0  0  0  0  0  0
  -13.5355    7.4987   -2.7912 H   0  0  0  0  0  0  0  0  0  0  0  0
  -13.6819    8.7816   -1.5709 H   0  0  0  0  0  0  0  0  0  0  0  0
  -11.7006    8.6639   -3.6280 H   0  0  0  0  0  0  0  0  0  0  0  0
  -11.6011    9.7193   -2.2212 H   0  0  0  0  0  0  0  0  0  0  0  0
  -10.4621    5.6263   -2.3495 H   0  0  0  0  0  0  0  0  0  0  0  0
  -11.4046    6.5432   -3.5733 H   0  0  0  0  0  0  0  0  0  0  0  0
   -9.6104    6.6281   -3.5733 H   0  0  0  0  0  0  0  0  0  0  0  0
   -9.4069    9.3748   -1.2581 H   0  0  0  0  0  0  0  0  0  0  0  0
   -9.3540    9.2320   -3.8290 H   0  0  0  0  0  0  0  0  0  0  0  0
   -7.8852    9.7993   -2.8754 H   0  0  0  0  0  0  0  0  0  0  0  0
   -7.4078    8.1724   -4.8920 H   0  0  0  0  0  0  0  0  0  0  0  0
   -8.1160    5.6884   -1.7882 H   0  0  0  0  0  0  0  0  0  0  0  0
   -5.3597    6.9210   -1.1700 H   0  0  0  0  0  0  0  0  0  0  0  0
   -6.2706    5.7177   -0.1539 H   0  0  0  0  0  0  0  0  0  0  0  0
   -4.4473    4.6599   -1.4478 H   0  0  0  0  0  0  0  0  0  0  0  0
   -6.0856    4.0507   -1.9081 H   0  0  0  0  0  0  0  0  0  0  0  0
   -4.7983    4.3853   -3.9065 H   0  0  0  0  0  0  0  0  0  0  0  0
   -3.3830    5.9710   -3.9130 H   0  0  0  0  0  0  0  0  0  0  0  0
   -7.6927    4.1701   -3.3805 H   0  0  0  0  0  0  0  0  0  0  0  0
   -8.2564    4.9043   -4.9199 H   0  0  0  0  0  0  0  0  0  0  0  0
   -6.8503    3.7865   -4.9199 H   0  0  0  0  0  0  0  0  0  0  0  0
   -5.2701    7.0775   -5.4470 H   0  0  0  0  0  0  0  0  0  0  0  0
   -5.5309    5.4217   -6.0928 H   0  0  0  0  0  0  0  0  0  0  0  0
   -6.8793    6.6085   -6.0928 H   0  0  0  0  0  0  0  0  0  0  0  0
   -7.0963    8.6559    0.6769 H   0  0  0  0  0  0  0  0  0  0  0  0
   -6.0818    8.3940   -0.7822 H   0  0  0  0  0  0  0  0  0  0  0  0
   -7.3415    9.6746   -0.7822 H   0  0  0  0  0  0  0  0  0  0  0  0
   -8.1515    6.1413    0.6124 H   0  0  0  0  0  0  0  0  0  0  0  0
   -8.8879    7.7887    1.0344 H   0  0  0  0  0  0  0  0  0  0  0  0
  -10.1844    5.5246   -0.5083 H   0  0  0  0  0  0  0  0  0  0  0  0
  -10.6308    6.1859    1.1136 H   0  0  0  0  0  0  0  0  0  0  0  0
  -11.2000    8.3588    1.4581 H   0  0  0  0  0  0  0  0  0  0  0  0
  -10.3764    9.3744    0.2264 H   0  0  0  0  0  0  0  0  0  0  0  0
  -12.1676    9.2383    0.2264 H   0  0  0  0  0  0  0  0  0  0  0  0
  1  2  1  0
  2  3  1  0
  3  4  1  0
  4  5  1  0
  5  6  1  0
  6  7  1  0
  7  8  1  0
  7  9  1  0
  2 10  1  0
 10 11  1  0
 11 12  1  0
 12 13  1  0
 13 14  1  6
 13 15  1  0
 15 16  1  0
 16 17  1  0
 17 18  2  0
 18 19  1  0
 19 20  1  0
 20 21  1  0
 21 22  1  0
 22 23  1  0
 22 24  1  0
 24 25  1  0
 24 26  1  0
 19 27  1  0
 27 28  1  1
 27 29  1  0
 29 30  1  0
 30 31  1  0
 31 32  1  1
  7  5  1  0
 31 10  1  0
 31 13  1  0
 27 15  1  0
 24 18  1  0
  1 33  1  0
  1 34  1  0
  1 35  1  0
  2 36  1  1
  3 37  1  0
  3 38  1  0
  4 39  1  0
  4 40  1  0
  5 41  1  1
  8 42  1  0
  8 43  1  0
  8 44  1  0
  9 45  1  0
  9 46  1  0
  9 47  1  0
 10 48  1  6
 11 49  1  0
 11 50  1  0
 12 51  1  0
 12 52  1  0
 14 53  1  0
 14 54  1  0
 14 55  1  0
 15 56  1  1
 16 57  1  0
 16 58  1  0
 17 59  1  0
 19 60  1  6
 20 61  1  0
 20 62  1  0
 21 63  1  0
 21 64  1  0
 22 65  1  6
 23 66  1  0
 25 67  1  0
 25 68  1  0
 25 69  1  0
 26 70  1  0
 26 71  1  0
 26 72  1  0
 28 73  1  0
 28 74  1  0
 28 75  1  0
 29 76  1  0
 29 77  1  0
 30 78  1  0
 30 79  1  0
 32 80  1  0
 32 81  1  0
 32 82  1  0
M  END
>  <meeko>  (8) 
{"is_sidechain": [false], "intermolecular_energy": 2.731, "internal_energy": -0.839}

$$$$
EPH_relaxed_0001_pdb2pqr_Repair_98_r2_0001_out
     RDKit          3D

 82 86  0  0  0  0  0  0  0  0999 V2000
  -15.2730    7.3260    0.4990 C   0  0  0  0  0  0  0  0  0  0  0  0
  -14.8690    8.3540   -0.5620 C   0  0  2  0  0  0  0  0  0  0  0  0
  -15.2710    7.9110   -1.9830 C   0  0  0  0  0  0  0  0  0  0  0  0
  -14.6800    8.7860   -3.0910 C   0  0  0  0  0  0  0  0  0  0  0  0
  -15.2870   10.1560   -3.0990 C   0  0  2  0  0  0  0  0  0  0  0  0
  -14.7640   11.0370   -4.1020 O   0  0  0  0  0  0  0  0  0  0  0  0
  -14.5180   11.4140   -2.7380 C   0  0  0  0  0  0  0  0  0  0  0  0
  -13.0760   11.3610   -2.3430 C   0  0  0  0  0  0  0  0  0  0  0  0
  -15.2870   12.6210   -2.2980 C   0  0  0  0  0  0  0  0  0  0  0  0
  -13.3660    8.6010   -0.4990 C   0  0  1  0  0  0  0  0  0  0  0  0
  -12.8830    8.9920    0.9230 C   0  0  0  0  0  0  0  0  0  0  0  0
  -11.4730    8.3740    1.1020 C   0  0  0  0  0  0  0  0  0  0  0  0
  -11.0540    7.9370   -0.3210 C   0  0  1  0  0  0  0  0  0  0  0  0
  -10.5340    9.2410   -1.0040 C   0  0  0  0  0  0  0  0  0  0  0  0
  -10.0050    6.7810   -0.4090 C   0  0  2  0  0  0  0  0  0  0  0  0
   -8.6330    7.0970    0.2100 C   0  0  0  0  0  0  0  0  0  0  0  0
   -7.6340    7.6960   -0.7250 C   0  0  0  0  0  0  0  0  0  0  0  0
   -7.7290    7.7080   -2.0670 C   0  0  0  0  0  0  0  0  0  0  0  0
   -8.8800    6.9900   -2.7820 C   0  0  1  0  0  0  0  0  0  0  0  0
   -8.3170    6.1570   -3.9630 C   0  0  0  0  0  0  0  0  0  0  0  0
   -7.4690    6.9920   -4.9170 C   0  0  0  0  0  0  0  0  0  0  0  0
   -6.3010    7.6430   -4.1800 C   0  0  2  0  0  0  0  0  0  0  0  0
   -5.4030    6.6180   -3.7440 O   0  0  0  0  0  0  0  0  0  0  0  0
   -6.7460    8.5010   -2.9630 C   0  0  0  0  0  0  0  0  0  0  0  0
   -7.4660    9.7790   -3.4630 C   0  0  0  0  0  0  0  0  0  0  0  0
   -5.4670    8.9840   -2.2260 C   0  0  0  0  0  0  0  0  0  0  0  0
   -9.8570    6.1490   -1.8520 C   0  0  1  0  0  0  0  0  0  0  0  0
   -9.2910    4.7090   -1.6520 C   0  0  0  0  0  0  0  0  0  0  0  0
  -11.2440    5.9840   -2.5790 C   0  0  0  0  0  0  0  0  0  0  0  0
  -12.2810    7.1010   -2.3570 C   0  0  0  0  0  0  0  0  0  0  0  0
  -12.4350    7.4180   -0.8660 C   0  0  2  0  0  0  0  0  0  0  0  0
  -12.9780    6.1310   -0.1570 C   0  0  0  0  0  0  0  0  0  0  0  0
  -15.1069    7.7486    1.5009 H   0  0  0  0  0  0  0  0  0  0  0  0
  -16.3370    7.0741    0.3790 H   0  0  0  0  0  0  0  0  0  0  0  0
  -14.6652    6.4170    0.3790 H   0  0  0  0  0  0  0  0  0  0  0  0
  -15.4093    9.2867   -0.3424 H   0  0  0  0  0  0  0  0  0  0  0  0
  -14.9258    6.8777   -2.1352 H   0  0  0  0  0  0  0  0  0  0  0  0
  -16.3651    8.0025   -2.0506 H   0  0  0  0  0  0  0  0  0  0  0  0
  -13.5954    8.8777   -2.9324 H   0  0  0  0  0  0  0  0  0  0  0  0
  -14.8983    8.3088   -4.0577 H   0  0  0  0  0  0  0  0  0  0  0  0
  -16.2519    9.7562   -2.7540 H   0  0  0  0  0  0  0  0  0  0  0  0
  -12.9962   11.3581   -1.2459 H   0  0  0  0  0  0  0  0  0  0  0  0
  -12.6188   10.4454   -2.7463 H   0  0  0  0  0  0  0  0  0  0  0  0
  -12.5528   12.2405   -2.7463 H   0  0  0  0  0  0  0  0  0  0  0  0
  -15.3116   12.6595   -1.1990 H   0  0  0  0  0  0  0  0  0  0  0  0
  -14.7997   13.5277   -2.6859 H   0  0  0  0  0  0  0  0  0  0  0  0
  -16.3147   12.5625   -2.6859 H   0  0  0  0  0  0  0  0  0  0  0  0
  -13.2787    9.3970   -1.2532 H   0  0  0  0  0  0  0  0  0  0  0  0
  -12.8316   10.0867    1.0179 H   0  0  0  0  0  0  0  0  0  0  0  0
  -13.5771    8.6214    1.6917 H   0  0  0  0  0  0  0  0  0  0  0  0
  -10.7702    9.1198    1.5017 H   0  0  0  0  0  0  0  0  0  0  0  0
  -11.4731    7.5344    1.8127 H   0  0  0  0  0  0  0  0  0  0  0  0
  -10.2438    9.9687   -0.2318 H   0  0  0  0  0  0  0  0  0  0  0  0
   -9.6616    9.0039   -1.6307 H   0  0  0  0  0  0  0  0  0  0  0  0
  -11.3302    9.6692   -1.6307 H   0  0  0  0  0  0  0  0  0  0  0  0
  -10.4512    6.0077    0.2336 H   0  0  0  0  0  0  0  0  0  0  0  0
   -8.7886    7.8030    1.0390 H   0  0  0  0  0  0  0  0  0  0  0  0
   -8.2124    6.1313    0.5269 H   0  0  0  0  0  0  0  0  0  0  0  0
   -6.7457    8.1670   -0.2787 H   0  0  0  0  0  0  0  0  0  0  0  0
   -9.5405    7.7815   -3.1657 H   0  0  0  0  0  0  0  0  0  0  0  0
   -7.6952    5.3455   -3.5571 H   0  0  0  0  0  0  0  0  0  0  0  0
   -9.1726    5.7657   -4.5329 H   0  0  0  0  0  0  0  0  0  0  0  0
   -7.0756    6.3418   -5.7122 H   0  0  0  0  0  0  0  0  0  0  0  0
   -8.0997    7.7847   -5.3458 H   0  0  0  0  0  0  0  0  0  0  0  0
   -5.8082    8.3300   -4.8837 H   0  0  0  0  0  0  0  0  0  0  0  0
   -5.9310    5.8230   -3.5610 H   0  0  0  0  0  0  0  0  0  0  0  0
   -7.8006   10.3729   -2.5997 H   0  0  0  0  0  0  0  0  0  0  0  0
   -6.7717   10.3765   -4.0721 H   0  0  0  0  0  0  0  0  0  0  0  0
   -8.3367    9.4948   -4.0721 H   0  0  0  0  0  0  0  0  0  0  0  0
   -5.6254    8.9242   -1.1391 H   0  0  0  0  0  0  0  0  0  0  0  0
   -4.6176    8.3447   -2.5085 H   0  0  0  0  0  0  0  0  0  0  0  0
   -5.2522   10.0252   -2.5085 H   0  0  0  0  0  0  0  0  0  0  0  0
   -9.2066    4.4943   -0.5765 H   0  0  0  0  0  0  0  0  0  0  0  0
   -9.9696    3.9801   -2.1193 H   0  0  0  0  0  0  0  0  0  0  0  0
   -8.2978    4.6372   -2.1193 H   0  0  0  0  0  0  0  0  0  0  0  0
  -11.0481    5.9216   -3.6596 H   0  0  0  0  0  0  0  0  0  0  0  0
  -11.6941    5.0816   -2.1396 H   0  0  0  0  0  0  0  0  0  0  0  0
  -11.9518    8.0078   -2.8855 H   0  0  0  0  0  0  0  0  0  0  0  0
  -13.2521    6.7601   -2.7452 H   0  0  0  0  0  0  0  0  0  0  0  0
  -12.9226    6.2622    0.9337 H   0  0  0  0  0  0  0  0  0  0  0  0
  -14.0238    5.9626   -0.4534 H   0  0  0  0  0  0  0  0  0  0  0  0
  -12.3688    5.2644   -0.4534 H   0  0  0  0  0  0  0  0  0  0  0  0
  1  2  1  0
  2  3  1  0
  3  4  1  0
  4  5  1  0
  5  6  1  0
  6  7  1  0
  7  8  1  0
  7  9  1  0
  2 10  1  0
 10 11  1  0
 11 12  1  0
 12 13  1  0
 13 14  1  6
 13 15  1  0
 15 16  1  0
 16 17  1  0
 17 18  2  0
 18 19  1  0
 19 20  1  0
 20 21  1  0
 21 22  1  0
 22 23  1  0
 22 24  1  0
 24 25  1  0
 24 26  1  0
 19 27  1  0
 27 28  1  1
 27 29  1  0
 29 30  1  0
 30 31  1  0
 31 32  1  1
  7  5  1  0
 31 10  1  0
 31 13  1  0
 27 15  1  0
 24 18  1  0
  1 33  1  0
  1 34  1  0
  1 35  1  0
  2 36  1  1
  3 37  1  0
  3 38  1  0
  4 39  1  0
  4 40  1  0
  5 41  1  1
  8 42  1  0
  8 43  1  0
  8 44  1  0
  9 45  1  0
  9 46  1  0
  9 47  1  0
 10 48  1  6
 11 49  1  0
 11 50  1  0
 12 51  1  0
 12 52  1  0
 14 53  1  0
 14 54  1  0
 14 55  1  0
 15 56  1  1
 16 57  1  0
 16 58  1  0
 17 59  1  0
 19 60  1  6
 20 61  1  0
 20 62  1  0
 21 63  1  0
 21 64  1  0
 22 65  1  6
 23 66  1  0
 25 67  1  0
 25 68  1  0
 25 69  1  0
 26 70  1  0
 26 71  1  0
 26 72  1  0
 28 73  1  0
 28 74  1  0
 28 75  1  0
 29 76  1  0
 29 77  1  0
 30 78  1  0
 30 79  1  0
 32 80  1  0
 32 81  1  0
 32 82  1  0
M  END
>  <meeko>  (9) 
{"is_sidechain": [false], "intermolecular_energy": 2.731, "internal_energy": -0.839}

$$$$
EPH_relaxed_0001_pdb2pqr_Repair_98_r2_0001_out
     RDKit          3D

 82 86  0  0  0  0  0  0  0  0999 V2000
   -4.3940    6.8690   -3.0910 C   0  0  0  0  0  0  0  0  0  0  0  0
   -4.3240    7.1390   -1.5850 C   0  0  2  0  0  0  0  0  0  0  0  0
   -5.7120    7.0700   -0.9170 C   0  0  0  0  0  0  0  0  0  0  0  0
   -6.8380    6.6810   -1.8780 C   0  0  0  0  0  0  0  0  0  0  0  0
   -7.5810    7.8830   -2.3770 C   0  0  2  0  0  0  0  0  0  0  0  0
   -8.8420    7.5930   -2.9960 O   0  0  0  0  0  0  0  0  0  0  0  0
   -7.8320    8.1600   -3.8480 C   0  0  0  0  0  0  0  0  0  0  0  0
   -7.3420    7.2300   -4.9120 C   0  0  0  0  0  0  0  0  0  0  0  0
   -8.1220    9.5660   -4.2710 C   0  0  0  0  0  0  0  0  0  0  0  0
   -3.6900    8.5020   -1.3300 C   0  0  1  0  0  0  0  0  0  0  0  0
   -4.3010    9.2240   -0.1000 C   0  0  0  0  0  0  0  0  0  0  0  0
   -3.1490   10.0150    0.5720 C   0  0  0  0  0  0  0  0  0  0  0  0
   -2.0040    9.9940   -0.4670 C   0  0  1  0  0  0  0  0  0  0  0  0
   -2.3600   11.1270   -1.4790 C   0  0  0  0  0  0  0  0  0  0  0  0
   -0.5550   10.1580    0.0980 C   0  0  2  0  0  0  0  0  0  0  0  0
   -0.2790   11.4970    0.8050 C   0  0  0  0  0  0  0  0  0  0  0  0
    0.2420   12.5860   -0.0740 C   0  0  0  0  0  0  0  0  0  0  0  0
    0.7470   12.4190   -1.3100 C   0  0  0  0  0  0  0  0  0  0  0  0
    0.9210   11.0170   -1.9070 C   0  0  1  0  0  0  0  0  0  0  0  0
    2.3290   10.8980   -2.5470 C   0  0  0  0  0  0  0  0  0  0  0  0
    2.6050   12.0030   -3.5630 C   0  0  0  0  0  0  0  0  0  0  0  0
    2.4790   13.3810   -2.9180 C   0  0  2  0  0  0  0  0  0  0  0  0
    3.5280   13.5380   -1.9580 O   0  0  0  0  0  0  0  0  0  0  0  0
    1.1040   13.6120   -2.2310 C   0  0  0  0  0  0  0  0  0  0  0  0
   -0.0010   13.7410   -3.3090 C   0  0  0  0  0  0  0  0  0  0  0  0
    1.1590   14.9800   -1.5000 C   0  0  0  0  0  0  0  0  0  0  0  0
    0.5880    9.8040   -0.9360 C   0  0  1  0  0  0  0  0  0  0  0  0
    1.8490    9.4330   -0.0970 C   0  0  0  0  0  0  0  0  0  0  0  0
    0.2410    8.5340   -1.8000 C   0  0  0  0  0  0  0  0  0  0  0  0
   -1.2300    8.3650   -2.2270 C   0  0  0  0  0  0  0  0  0  0  0  0
   -2.1710    8.5350   -1.0300 C   0  0  2  0  0  0  0  0  0  0  0  0
   -1.8510    7.3950   -0.0040 C   0  0  0  0  0  0  0  0  0  0  0  0
   -4.6667    5.8172   -3.2627 H   0  0  0  0  0  0  0  0  0  0  0  0
   -5.1522    7.5233   -3.5460 H   0  0  0  0  0  0  0  0  0  0  0  0
   -3.4134    7.0725   -3.5460 H   0  0  0  0  0  0  0  0  0  0  0  0
   -3.7026    6.3501   -1.1362 H   0  0  0  0  0  0  0  0  0  0  0  0
   -5.6720    6.3247   -0.1089 H   0  0  0  0  0  0  0  0  0  0  0  0
   -5.9407    8.0797   -0.5453 H   0  0  0  0  0  0  0  0  0  0  0  0
   -6.4051    6.1476   -2.7371 H   0  0  0  0  0  0  0  0  0  0  0  0
   -7.5477    6.0409   -1.3334 H   0  0  0  0  0  0  0  0  0  0  0  0
   -7.1661    8.5043   -1.5696 H   0  0  0  0  0  0  0  0  0  0  0  0
   -6.8780    6.3493   -4.4440 H   0  0  0  0  0  0  0  0  0  0  0  0
   -8.1884    6.9097   -5.5373 H   0  0  0  0  0  0  0  0  0  0  0  0
   -6.5992    7.7470   -5.5373 H   0  0  0  0  0  0  0  0  0  0  0  0
   -8.2523   10.1975   -3.3798 H   0  0  0  0  0  0  0  0  0  0  0  0
   -7.2838    9.9484   -4.8720 H   0  0  0  0  0  0  0  0  0  0  0  0
   -9.0431    9.5855   -4.8720 H   0  0  0  0  0  0  0  0  0  0  0  0
   -3.8924    8.9834   -2.2982 H   0  0  0  0  0  0  0  0  0  0  0  0
   -5.0963    9.9126   -0.4214 H   0  0  0  0  0  0  0  0  0  0  0  0
   -4.7461    8.5024    0.6008 H   0  0  0  0  0  0  0  0  0  0  0  0
   -3.4604   11.0481    0.7860 H   0  0  0  0  0  0  0  0  0  0  0  0
   -2.8473    9.5760    1.5344 H   0  0  0  0  0  0  0  0  0  0  0  0
   -2.6453   12.0350   -0.9274 H   0  0  0  0  0  0  0  0  0  0  0  0
   -1.4860   11.3416   -2.1115 H   0  0  0  0  0  0  0  0  0  0  0  0
   -3.1997   10.8032   -2.1115 H   0  0  0  0  0  0  0  0  0  0  0  0
   -0.5203    9.3909    0.8857 H   0  0  0  0  0  0  0  0  0  0  0  0
   -1.2207   11.8444    1.2549 H   0  0  0  0  0  0  0  0  0  0  0  0
    0.5126   11.2951    1.5417 H   0  0  0  0  0  0  0  0  0  0  0  0
    0.2103   13.6116    0.3225 H   0  0  0  0  0  0  0  0  0  0  0  0
    0.1483   10.9191   -2.6837 H   0  0  0  0  0  0  0  0  0  0  0  0
    3.0847   10.9551   -1.7498 H   0  0  0  0  0  0  0  0  0  0  0  0
    2.3739    9.9363   -3.0790 H   0  0  0  0  0  0  0  0  0  0  0  0
    3.6245   11.8823   -3.9581 H   0  0  0  0  0  0  0  0  0  0  0  0
    1.8664   11.9263   -4.3745 H   0  0  0  0  0  0  0  0  0  0  0  0
    2.5590   14.1294   -3.7202 H   0  0  0  0  0  0  0  0  0  0  0  0
    4.1190   14.2400   -2.2800 H   0  0  0  0  0  0  0  0  0  0  0  0
   -0.9794   13.8552   -2.8194 H   0  0  0  0  0  0  0  0  0  0  0  0
    0.2000   14.6218   -3.9366 H   0  0  0  0  0  0  0  0  0  0  0  0
   -0.0083   12.8376   -3.9366 H   0  0  0  0  0  0  0  0  0  0  0  0
    1.1524   14.8151   -0.4124 H   0  0  0  0  0  0  0  0  0  0  0  0
    2.0792   15.5111   -1.7847 H   0  0  0  0  0  0  0  0  0  0  0  0
    0.2844   15.5833   -1.7847 H   0  0  0  0  0  0  0  0  0  0  0  0
    1.6102    9.5033    0.9745 H   0  0  0  0  0  0  0  0  0  0  0  0
    2.1597    8.4054   -0.3368 H   0  0  0  0  0  0  0  0  0  0  0  0
    2.6667   10.1286   -0.3368 H   0  0  0  0  0  0  0  0  0  0  0  0
    0.8502    8.5773   -2.7149 H   0  0  0  0  0  0  0  0  0  0  0  0
    0.4515    7.6748   -1.1462 H   0  0  0  0  0  0  0  0  0  0  0  0
   -1.4735    9.1223   -2.9867 H   0  0  0  0  0  0  0  0  0  0  0  0
   -1.3625    7.3527   -2.6365 H   0  0  0  0  0  0  0  0  0  0  0  0
   -1.9597    7.7821    1.0199 H   0  0  0  0  0  0  0  0  0  0  0  0
   -2.5491    6.5585   -0.1558 H   0  0  0  0  0  0  0  0  0  0  0  0
   -0.8196    7.0440   -0.1558 H   0  0  0  0  0  0  0  0  0  0  0  0
  1  2  1  0
  2  3  1  0
  3  4  1  0
  4  5  1  0
  5  6  1  0
  6  7  1  0
  7  8  1  0
  7  9  1  0
  2 10  1  0
 10 11  1  0
 11 12  1  0
 12 13  1  0
 13 14  1  6
 13 15  1  0
 15 16  1  0
 16 17  1  0
 17 18  2  0
 18 19  1  0
 19 20  1  0
 20 21  1  0
 21 22  1  0
 22 23  1  0
 22 24  1  0
 24 25  1  0
 24 26  1  0
 19 27  1  0
 27 28  1  1
 27 29  1  0
 29 30  1  0
 30 31  1  0
 31 32  1  1
  7  5  1  0
 31 10  1  0
 31 13  1  0
 27 15  1  0
 24 18  1  0
  1 33  1  0
  1 34  1  0
  1 35  1  0
  2 36  1  1
  3 37  1  0
  3 38  1  0
  4 39  1  0
  4 40  1  0
  5 41  1  1
  8 42  1  0
  8 43  1  0
  8 44  1  0
  9 45  1  0
  9 46  1  0
  9 47  1  0
 10 48  1  6
 11 49  1  0
 11 50  1  0
 12 51  1  0
 12 52  1  0
 14 53  1  0
 14 54  1  0
 14 55  1  0
 15 56  1  1
 16 57  1  0
 16 58  1  0
 17 59  1  0
 19 60  1  6
 20 61  1  0
 20 62  1  0
 21 63  1  0
 21 64  1  0
 22 65  1  6
 23 66  1  0
 25 67  1  0
 25 68  1  0
 25 69  1  0
 26 70  1  0
 26 71  1  0
 26 72  1  0
 28 73  1  0
 28 74  1  0
 28 75  1  0
 29 76  1  0
 29 77  1  0
 30 78  1  0
 30 79  1  0
 32 80  1  0
 32 81  1  0
 32 82  1  0
M  END
>  <meeko>  (10) 
{"is_sidechain": [false], "intermolecular_energy": 2.731, "internal_energy": -0.839}

$$$$
EPH_relaxed_0001_pdb2pqr_Repair_98_r2_0001_out
     RDKit          3D

 82 86  0  0  0  0  0  0  0  0999 V2000
   -3.2400    7.8100   -0.5660 C   0  0  0  0  0  0  0  0  0  0  0  0
   -3.6950    9.2630   -0.4040 C   0  0  2  0  0  0  0  0  0  0  0  0
   -5.1660    9.4610   -0.8220 C   0  0  0  0  0  0  0  0  0  0  0  0
   -5.8040    8.2120   -1.4360 C   0  0  0  0  0  0  0  0  0  0  0  0
   -6.6280    8.5470   -2.6430 C   0  0  2  0  0  0  0  0  0  0  0  0
   -7.6990    7.6320   -2.9090 O   0  0  0  0  0  0  0  0  0  0  0  0
   -6.6580    7.6950   -3.8980 C   0  0  0  0  0  0  0  0  0  0  0  0
   -5.8480    6.4420   -4.0100 C   0  0  0  0  0  0  0  0  0  0  0  0
   -7.0860    8.3310   -5.1840 C   0  0  0  0  0  0  0  0  0  0  0  0
   -2.7940   10.1840   -1.2180 C   0  0  1  0  0  0  0  0  0  0  0  0
   -3.3270   11.6400   -1.2810 C   0  0  0  0  0  0  0  0  0  0  0  0
   -2.0870   12.5710   -1.2850 C   0  0  0  0  0  0  0  0  0  0  0  0
   -0.8930   11.6280   -1.5600 C   0  0  1  0  0  0  0  0  0  0  0  0
   -0.8960   11.4160   -3.1060 C   0  0  0  0  0  0  0  0  0  0  0  0
    0.5020   12.1130   -1.0460 C   0  0  2  0  0  0  0  0  0  0  0  0
    1.0140   13.4180   -1.6810 C   0  0  0  0  0  0  0  0  0  0  0  0
    1.8400   13.2470   -2.9130 C   0  0  0  0  0  0  0  0  0  0  0  0
    2.3960   12.0930   -3.3280 C   0  0  0  0  0  0  0  0  0  0  0  0
    2.2990   10.8210   -2.4760 C   0  0  1  0  0  0  0  0  0  0  0  0
    3.6930   10.1450   -2.3940 C   0  0  0  0  0  0  0  0  0  0  0  0
    4.2970    9.8810   -3.7710 C   0  0  0  0  0  0  0  0  0  0  0  0
    4.4310   11.1780   -4.5650 C   0  0  2  0  0  0  0  0  0  0  0  0
    5.4040   12.0110   -3.9260 O   0  0  0  0  0  0  0  0  0  0  0  0
    3.0910   11.9520   -4.7050 C   0  0  0  0  0  0  0  0  0  0  0  0
    2.1400   11.1800   -5.6520 C   0  0  0  0  0  0  0  0  0  0  0  0
    3.3920   13.3060   -5.4020 C   0  0  0  0  0  0  0  0  0  0  0  0
    1.6190   10.9920   -1.0500 C   0  0  1  0  0  0  0  0  0  0  0  0
    2.6880   11.4250    0.0010 C   0  0  0  0  0  0  0  0  0  0  0  0
    1.0680    9.5960   -0.5720 C   0  0  0  0  0  0  0  0  0  0  0  0
   -0.3610    9.2260   -1.0130 C   0  0  0  0  0  0  0  0  0  0  0  0
   -1.3370   10.3710   -0.7260 C   0  0  2  0  0  0  0  0  0  0  0  0
   -1.3720   10.5930    0.8250 C   0  0  0  0  0  0  0  0  0  0  0  0
   -3.0983    7.3573    0.4265 H   0  0  0  0  0  0  0  0  0  0  0  0
   -4.0045    7.2460   -1.1204 H   0  0  0  0  0  0  0  0  0  0  0  0
   -2.2903    7.7828   -1.1204 H   0  0  0  0  0  0  0  0  0  0  0  0
   -3.6181    9.5164    0.6637 H   0  0  0  0  0  0  0  0  0  0  0  0
   -5.7452    9.7447    0.0691 H   0  0  0  0  0  0  0  0  0  0  0  0
   -5.1782   10.2423   -1.5962 H   0  0  0  0  0  0  0  0  0  0  0  0
   -5.0075    7.5130   -1.7309 H   0  0  0  0  0  0  0  0  0  0  0  0
   -6.4663    7.7597   -0.6832 H   0  0  0  0  0  0  0  0  0  0  0  0
   -6.4637    9.6233   -2.4859 H   0  0  0  0  0  0  0  0  0  0  0  0
   -5.6074    6.0697   -3.0033 H   0  0  0  0  0  0  0  0  0  0  0  0
   -6.4248    5.6799   -4.5545 H   0  0  0  0  0  0  0  0  0  0  0  0
   -4.9163    6.6551   -4.5545 H   0  0  0  0  0  0  0  0  0  0  0  0
   -7.6882    9.2258   -4.9679 H   0  0  0  0  0  0  0  0  0  0  0  0
   -6.1970    8.6187   -5.7645 H   0  0  0  0  0  0  0  0  0  0  0  0
   -7.6873    7.6158   -5.7645 H   0  0  0  0  0  0  0  0  0  0  0  0
   -2.8009    9.6461   -2.1775 H   0  0  0  0  0  0  0  0  0  0  0  0
   -3.9151   11.7886   -2.1986 H   0  0  0  0  0  0  0  0  0  0  0  0
   -3.9817   11.8581   -0.4244 H   0  0  0  0  0  0  0  0  0  0  0  0
   -2.1733   13.3295   -2.0770 H   0  0  0  0  0  0  0  0  0  0  0  0
   -1.9751   13.1212   -0.3391 H   0  0  0  0  0  0  0  0  0  0  0  0
   -0.9112   10.3388   -3.3284 H   0  0  0  0  0  0  0  0  0  0  0  0
   -1.7875   11.8926   -3.5397 H   0  0  0  0  0  0  0  0  0  0  0  0
    0.0086   11.8672   -3.5397 H   0  0  0  0  0  0  0  0  0  0  0  0
    0.2947   12.3544    0.0070 H   0  0  0  0  0  0  0  0  0  0  0  0
    0.1411   14.0352   -1.9401 H   0  0  0  0  0  0  0  0  0  0  0  0
    1.6750   13.8810   -0.9335 H   0  0  0  0  0  0  0  0  0  0  0  0
    2.0086   14.1391   -3.5341 H   0  0  0  0  0  0  0  0  0  0  0  0
    1.5931   10.1584   -2.9981 H   0  0  0  0  0  0  0  0  0  0  0  0
    4.3716   10.8031   -1.8315 H   0  0  0  0  0  0  0  0  0  0  0  0
    3.5644    9.1738   -1.8938 H   0  0  0  0  0  0  0  0  0  0  0  0
    5.2927    9.4301   -3.6471 H   0  0  0  0  0  0  0  0  0  0  0  0
    3.6322    9.1991   -4.3215 H   0  0  0  0  0  0  0  0  0  0  0  0
    4.7456   10.9099   -5.5844 H   0  0  0  0  0  0  0  0  0  0  0  0
    5.9130   11.4520   -3.3150 H   0  0  0  0  0  0  0  0  0  0  0  0
    1.4223   10.5974   -5.0558 H   0  0  0  0  0  0  0  0  0  0  0  0
    1.5950   11.8944   -6.2865 H   0  0  0  0  0  0  0  0  0  0  0  0
    2.7271   10.4998   -6.2865 H   0  0  0  0  0  0  0  0  0  0  0  0
    3.5641   14.0804   -4.6400 H   0  0  0  0  0  0  0  0  0  0  0  0
    4.2893   13.2036   -6.0300 H   0  0  0  0  0  0  0  0  0  0  0  0
    2.5358   13.5934   -6.0300 H   0  0  0  0  0  0  0  0  0  0  0  0
    2.2918   11.2645    1.0145 H   0  0  0  0  0  0  0  0  0  0  0  0
    3.6001   10.8254   -0.1353 H   0  0  0  0  0  0  0  0  0  0  0  0
    2.9257   12.4903   -0.1353 H   0  0  0  0  0  0  0  0  0  0  0  0
    1.7465    8.8207   -0.9573 H   0  0  0  0  0  0  0  0  0  0  0  0
    1.0224    9.6645    0.5249 H   0  0  0  0  0  0  0  0  0  0  0  0
   -0.3612    9.0151   -2.0926 H   0  0  0  0  0  0  0  0  0  0  0  0
   -0.6842    8.3396   -0.4475 H   0  0  0  0  0  0  0  0  0  0  0  0
   -1.2203    9.6311    1.3366 H   0  0  0  0  0  0  0  0  0  0  0  0
   -0.5729   11.2917    1.1135 H   0  0  0  0  0  0  0  0  0  0  0  0
   -2.3473   11.0120    1.1135 H   0  0  0  0  0  0  0  0  0  0  0  0
  1  2  1  0
  2  3  1  0
  3  4  1  0
  4  5  1  0
  5  6  1  0
  6  7  1  0
  7  8  1  0
  7  9  1  0
  2 10  1  0
 10 11  1  0
 11 12  1  0
 12 13  1  0
 13 14  1  6
 13 15  1  0
 15 16  1  0
 16 17  1  0
 17 18  2  0
 18 19  1  0
 19 20  1  0
 20 21  1  0
 21 22  1  0
 22 23  1  0
 22 24  1  0
 24 25  1  0
 24 26  1  0
 19 27  1  0
 27 28  1  1
 27 29  1  0
 29 30  1  0
 30 31  1  0
 31 32  1  1
  7  5  1  0
 31 10  1  0
 31 13  1  0
 27 15  1  0
 24 18  1  0
  1 33  1  0
  1 34  1  0
  1 35  1  0
  2 36  1  1
  3 37  1  0
  3 38  1  0
  4 39  1  0
  4 40  1  0
  5 41  1  6
  8 42  1  0
  8 43  1  0
  8 44  1  0
  9 45  1  0
  9 46  1  0
  9 47  1  0
 10 48  1  6
 11 49  1  0
 11 50  1  0
 12 51  1  0
 12 52  1  0
 14 53  1  0
 14 54  1  0
 14 55  1  0
 15 56  1  1
 16 57  1  0
 16 58  1  0
 17 59  1  0
 19 60  1  6
 20 61  1  0
 20 62  1  0
 21 63  1  0
 21 64  1  0
 22 65  1  6
 23 66  1  0
 25 67  1  0
 25 68  1  0
 25 69  1  0
 26 70  1  0
 26 71  1  0
 26 72  1  0
 28 73  1  0
 28 74  1  0
 28 75  1  0
 29 76  1  0
 29 77  1  0
 30 78  1  0
 30 79  1  0
 32 80  1  0
 32 81  1  0
 32 82  1  0
M  END
>  <meeko>  (11) 
{"is_sidechain": [false], "intermolecular_energy": 2.731, "internal_energy": -0.839}

$$$$
EPH_relaxed_0001_pdb2pqr_Repair_98_r2_0001_out
     RDKit          3D

 82 86  0  0  0  0  0  0  0  0999 V2000
   -1.8320   14.8180    0.2520 C   0  0  0  0  0  0  0  0  0  0  0  0
   -0.4900   15.5460    0.1370 C   0  0  2  0  0  0  0  0  0  0  0  0
   -0.4890   16.5860   -1.0010 C   0  0  0  0  0  0  0  0  0  0  0  0
   -0.0910   17.9940   -0.5480 C   0  0  0  0  0  0  0  0  0  0  0  0
    1.3280   18.0410   -0.0680 C   0  0  2  0  0  0  0  0  0  0  0  0
    2.0220   19.2580   -0.3730 O   0  0  0  0  0  0  0  0  0  0  0  0
    2.5250   18.0670   -1.0000 C   0  0  0  0  0  0  0  0  0  0  0  0
    2.3570   18.0450   -2.4870 C   0  0  0  0  0  0  0  0  0  0  0  0
    3.8530   17.6220   -0.4710 C   0  0  0  0  0  0  0  0  0  0  0  0
    0.6320   14.5370   -0.0790 C   0  0  1  0  0  0  0  0  0  0  0  0
    0.7680   13.5330    1.0970 C   0  0  0  0  0  0  0  0  0  0  0  0
    1.1910   12.1760    0.4800 C   0  0  0  0  0  0  0  0  0  0  0  0
    1.6050   12.5180   -0.9700 C   0  0  1  0  0  0  0  0  0  0  0  0
    3.0630   13.0630   -0.8530 C   0  0  0  0  0  0  0  0  0  0  0  0
    1.5050   11.3560   -2.0110 C   0  0  2  0  0  0  0  0  0  0  0  0
    2.4150   10.1480   -1.7290 C   0  0  0  0  0  0  0  0  0  0  0  0
    3.7710   10.2120   -2.3520 C   0  0  0  0  0  0  0  0  0  0  0  0
    4.1410   11.0550   -3.3340 C   0  0  0  0  0  0  0  0  0  0  0  0
    3.1230   11.9980   -3.9880 C   0  0  1  0  0  0  0  0  0  0  0  0
    3.2780   11.9390   -5.5300 C   0  0  0  0  0  0  0  0  0  0  0  0
    4.7070   12.2160   -5.9860 C   0  0  0  0  0  0  0  0  0  0  0  0
    5.6820   11.2220   -5.3600 C   0  0  2  0  0  0  0  0  0  0  0  0
    5.4100    9.9180   -5.8850 O   0  0  0  0  0  0  0  0  0  0  0  0
    5.6090   11.1860   -3.8080 C   0  0  0  0  0  0  0  0  0  0  0  0
    6.1910   12.5000   -3.2300 C   0  0  0  0  0  0  0  0  0  0  0  0
    6.5380   10.0450   -3.3130 C   0  0  0  0  0  0  0  0  0  0  0  0
    1.6150   11.8230   -3.5180 C   0  0  1  0  0  0  0  0  0  0  0  0
    0.9140   10.7270   -4.3770 C   0  0  0  0  0  0  0  0  0  0  0  0
    0.8340   13.1640   -3.7870 C   0  0  0  0  0  0  0  0  0  0  0  0
    0.8720   14.2260   -2.6720 C   0  0  0  0  0  0  0  0  0  0  0  0
    0.5250   13.6080   -1.3140 C   0  0  2  0  0  0  0  0  0  0  0  0
   -0.9450   13.0710   -1.3950 C   0  0  0  0  0  0  0  0  0  0  0  0
   -2.0849   14.6808    1.3137 H   0  0  0  0  0  0  0  0  0  0  0  0
   -2.6159   15.4145   -0.2375 H   0  0  0  0  0  0  0  0  0  0  0  0
   -1.7594   13.8356   -0.2375 H   0  0  0  0  0  0  0  0  0  0  0  0
   -0.3262   16.0883    1.0799 H   0  0  0  0  0  0  0  0  0  0  0  0
    0.2218   16.2556   -1.7728 H   0  0  0  0  0  0  0  0  0  0  0  0
   -1.5199   16.6495   -1.3794 H   0  0  0  0  0  0  0  0  0  0  0  0
   -0.2039   18.6864   -1.3952 H   0  0  0  0  0  0  0  0  0  0  0  0
   -0.7455   18.2835    0.2873 H   0  0  0  0  0  0  0  0  0  0  0  0
    1.0816   17.4104    0.7989 H   0  0  0  0  0  0  0  0  0  0  0  0
    1.2941   17.9058   -2.7339 H   0  0  0  0  0  0  0  0  0  0  0  0
    2.7101   18.9970   -2.9100 H   0  0  0  0  0  0  0  0  0  0  0  0
    2.9433   17.2160   -2.9100 H   0  0  0  0  0  0  0  0  0  0  0  0
    3.8308   17.6294    0.6288 H   0  0  0  0  0  0  0  0  0  0  0  0
    4.0666   16.6032   -0.8265 H   0  0  0  0  0  0  0  0  0  0  0  0
    4.6373   18.3064   -0.8265 H   0  0  0  0  0  0  0  0  0  0  0  0
    1.4797   15.2276   -0.1996 H   0  0  0  0  0  0  0  0  0  0  0  0
    1.5333   13.8816    1.8061 H   0  0  0  0  0  0  0  0  0  0  0  0
   -0.1799   13.4383    1.6470 H   0  0  0  0  0  0  0  0  0  0  0  0
    2.0378   11.7448    1.0340 H   0  0  0  0  0  0  0  0  0  0  0  0
    0.3827   11.4308    0.5180 H   0  0  0  0  0  0  0  0  0  0  0  0
    3.3327   13.1638    0.2087 H   0  0  0  0  0  0  0  0  0  0  0  0
    3.7564   12.3633   -1.3426 H   0  0  0  0  0  0  0  0  0  0  0  0
    3.1274   14.0459   -1.3426 H   0  0  0  0  0  0  0  0  0  0  0  0
    0.4759   10.9964   -1.8638 H   0  0  0  0  0  0  0  0  0  0  0  0
    2.5448   10.0671   -0.6397 H   0  0  0  0  0  0  0  0  0  0  0  0
    1.9141    9.2779   -2.1786 H   0  0  0  0  0  0  0  0  0  0  0  0
    4.5313    9.5112   -1.9767 H   0  0  0  0  0  0  0  0  0  0  0  0
    3.3684   13.0079   -3.6277 H   0  0  0  0  0  0  0  0  0  0  0  0
    2.9859   10.9364   -5.8755 H   0  0  0  0  0  0  0  0  0  0  0  0
    2.6334   12.7196   -5.9602 H   0  0  0  0  0  0  0  0  0  0  0  0
    4.7585   12.1295   -7.0814 H   0  0  0  0  0  0  0  0  0  0  0  0
    4.9869   13.2307   -5.6667 H   0  0  0  0  0  0  0  0  0  0  0  0
    6.6996   11.5506   -5.6179 H   0  0  0  0  0  0  0  0  0  0  0  0
    5.4380    9.9800   -6.8550 H   0  0  0  0  0  0  0  0  0  0  0  0
    6.1720   12.4572   -2.1310 H   0  0  0  0  0  0  0  0  0  0  0  0
    7.2283   12.6242   -3.5743 H   0  0  0  0  0  0  0  0  0  0  0  0
    5.5859   13.3517   -3.5743 H   0  0  0  0  0  0  0  0  0  0  0  0
    6.5486   10.0319   -2.2131 H   0  0  0  0  0  0  0  0  0  0  0  0
    6.1653    9.0802   -3.6876 H   0  0  0  0  0  0  0  0  0  0  0  0
    7.5583   10.2144   -3.6876 H   0  0  0  0  0  0  0  0  0  0  0  0
    0.4412    9.9878   -3.7136 H   0  0  0  0  0  0  0  0  0  0  0  0
    0.1465   11.1939   -5.0118 H   0  0  0  0  0  0  0  0  0  0  0  0
    1.6597   10.2260   -5.0118 H   0  0  0  0  0  0  0  0  0  0  0  0
    1.2573   13.6192   -4.6946 H   0  0  0  0  0  0  0  0  0  0  0  0
   -0.2229   12.8700   -3.8683 H   0  0  0  0  0  0  0  0  0  0  0  0
    1.8816   14.6598   -2.6225 H   0  0  0  0  0  0  0  0  0  0  0  0
    0.1295   15.0040   -2.9032 H   0  0  0  0  0  0  0  0  0  0  0  0
   -1.3393   12.9270   -0.3782 H   0  0  0  0  0  0  0  0  0  0  0  0
   -1.5720   13.7982   -1.9318 H   0  0  0  0  0  0  0  0  0  0  0  0
   -0.9556   12.1109   -1.9318 H   0  0  0  0  0  0  0  0  0  0  0  0
  1  2  1  0
  2  3  1  0
  3  4  1  0
  4  5  1  0
  5  6  1  0
  6  7  1  0
  7  8  1  0
  7  9  1  0
  2 10  1  0
 10 11  1  0
 11 12  1  0
 12 13  1  0
 13 14  1  1
 13 15  1  0
 15 16  1  0
 16 17  1  0
 17 18  2  0
 18 19  1  0
 19 20  1  0
 20 21  1  0
 21 22  1  0
 22 23  1  0
 22 24  1  0
 24 25  1  0
 24 26  1  0
 19 27  1  0
 27 28  1  6
 27 29  1  0
 29 30  1  0
 30 31  1  0
 31 32  1  6
  7  5  1  0
 31 10  1  0
 31 13  1  0
 27 15  1  0
 24 18  1  0
  1 33  1  0
  1 34  1  0
  1 35  1  0
  2 36  1  1
  3 37  1  0
  3 38  1  0
  4 39  1  0
  4 40  1  0
  5 41  1  1
  8 42  1  0
  8 43  1  0
  8 44  1  0
  9 45  1  0
  9 46  1  0
  9 47  1  0
 10 48  1  6
 11 49  1  0
 11 50  1  0
 12 51  1  0
 12 52  1  0
 14 53  1  0
 14 54  1  0
 14 55  1  0
 15 56  1  6
 16 57  1  0
 16 58  1  0
 17 59  1  0
 19 60  1  1
 20 61  1  0
 20 62  1  0
 21 63  1  0
 21 64  1  0
 22 65  1  1
 23 66  1  0
 25 67  1  0
 25 68  1  0
 25 69  1  0
 26 70  1  0
 26 71  1  0
 26 72  1  0
 28 73  1  0
 28 74  1  0
 28 75  1  0
 29 76  1  0
 29 77  1  0
 30 78  1  0
 30 79  1  0
 32 80  1  0
 32 81  1  0
 32 82  1  0
M  END
>  <meeko>  (12) 
{"is_sidechain": [false], "intermolecular_energy": 2.731, "internal_energy": -0.839}

$$$$
EPH_relaxed_0001_pdb2pqr_Repair_98_r2_0001_out
     RDKit          3D

 82 86  0  0  0  0  0  0  0  0999 V2000
   -1.4940    8.0140   -1.3700 C   0  0  0  0  0  0  0  0  0  0  0  0
   -1.7350    8.8340   -0.0990 C   0  0  2  0  0  0  0  0  0  0  0  0
   -3.2230    8.8570    0.3030 C   0  0  0  0  0  0  0  0  0  0  0  0
   -4.1790    8.9970   -0.8840 C   0  0  0  0  0  0  0  0  0  0  0  0
   -5.1340    7.8450   -0.9660 C   0  0  2  0  0  0  0  0  0  0  0  0
   -5.1360    7.1570   -2.2240 O   0  0  0  0  0  0  0  0  0  0  0  0
   -6.3540    7.8320   -1.8680 C   0  0  0  0  0  0  0  0  0  0  0  0
   -6.6850    8.9950   -2.7500 C   0  0  0  0  0  0  0  0  0  0  0  0
   -7.4810    6.9050   -1.5340 C   0  0  0  0  0  0  0  0  0  0  0  0
   -1.2250   10.2570   -0.2940 C   0  0  1  0  0  0  0  0  0  0  0  0
   -0.6930   10.8870    1.0210 C   0  0  0  0  0  0  0  0  0  0  0  0
    0.5000   11.7960    0.6310 C   0  0  0  0  0  0  0  0  0  0  0  0
    0.4090   11.9210   -0.9080 C   0  0  1  0  0  0  0  0  0  0  0  0
   -0.6720   13.0190   -1.1570 C   0  0  0  0  0  0  0  0  0  0  0  0
    1.7430   12.2440   -1.6560 C   0  0  2  0  0  0  0  0  0  0  0  0
    2.3830   13.5960   -1.2940 C   0  0  0  0  0  0  0  0  0  0  0  0
    1.9570   14.7500   -2.1410 C   0  0  0  0  0  0  0  0  0  0  0  0
    1.3200   14.6590   -3.3230 C   0  0  0  0  0  0  0  0  0  0  0  0
    1.0510   13.2940   -3.9710 C   0  0  1  0  0  0  0  0  0  0  0  0
    1.4400   13.3480   -5.4710 C   0  0  0  0  0  0  0  0  0  0  0  0
    0.7540   14.4910   -6.2130 C   0  0  0  0  0  0  0  0  0  0  0  0
    1.0920   15.8360   -5.5750 C   0  0  2  0  0  0  0  0  0  0  0  0
    2.4850   16.1000   -5.7680 O   0  0  0  0  0  0  0  0  0  0  0  0
    0.7530   15.8980   -4.0600 C   0  0  0  0  0  0  0  0  0  0  0  0
   -0.7840   15.9140   -3.8700 C   0  0  0  0  0  0  0  0  0  0  0  0
    1.2720   17.2530   -3.5090 C   0  0  0  0  0  0  0  0  0  0  0  0
    1.6740   12.0380   -3.2230 C   0  0  1  0  0  0  0  0  0  0  0  0
    3.1380   11.8030   -3.7060 C   0  0  0  0  0  0  0  0  0  0  0  0
    0.8630   10.7480   -3.6220 C   0  0  0  0  0  0  0  0  0  0  0  0
   -0.3770   10.4170   -2.7710 C   0  0  0  0  0  0  0  0  0  0  0  0
   -0.0440   10.4610   -1.2760 C   0  0  2  0  0  0  0  0  0  0  0  0
    1.0240    9.3520   -0.9910 C   0  0  0  0  0  0  0  0  0  0  0  0
   -1.1936    6.9920   -1.0956 H   0  0  0  0  0  0  0  0  0  0  0  0
   -2.4193    7.9773   -1.9636 H   0  0  0  0  0  0  0  0  0  0  0  0
   -0.6959    8.4838   -1.9636 H   0  0  0  0  0  0  0  0  0  0  0  0
   -1.1801    8.3497    0.7180 H   0  0  0  0  0  0  0  0  0  0  0  0
   -3.4556    7.9184    0.8274 H   0  0  0  0  0  0  0  0  0  0  0  0
   -3.3701    9.7414    0.9403 H   0  0  0  0  0  0  0  0  0  0  0  0
   -4.7531    9.9285   -0.7713 H   0  0  0  0  0  0  0  0  0  0  0  0
   -3.5800    9.0120   -1.8065 H   0  0  0  0  0  0  0  0  0  0  0  0
   -5.0068    7.6330    0.1059 H   0  0  0  0  0  0  0  0  0  0  0  0
   -6.9334    9.8677   -2.1282 H   0  0  0  0  0  0  0  0  0  0  0  0
   -5.8186    9.2319   -3.3850 H   0  0  0  0  0  0  0  0  0  0  0  0
   -7.5463    8.7402   -3.3850 H   0  0  0  0  0  0  0  0  0  0  0  0
   -7.5783    6.8249   -0.4412 H   0  0  0  0  0  0  0  0  0  0  0  0
   -8.4169    7.2981   -1.9577 H   0  0  0  0  0  0  0  0  0  0  0  0
   -7.2758    5.9108   -1.9577 H   0  0  0  0  0  0  0  0  0  0  0  0
   -2.1351   10.7249   -0.6973 H   0  0  0  0  0  0  0  0  0  0  0  0
   -1.4824   11.4835    1.5016 H   0  0  0  0  0  0  0  0  0  0  0  0
   -0.3804   10.1092    1.7332 H   0  0  0  0  0  0  0  0  0  0  0  0
    0.4076   12.7834    1.1069 H   0  0  0  0  0  0  0  0  0  0  0  0
    1.4647   11.3818    0.9594 H   0  0  0  0  0  0  0  0  0  0  0  0
   -1.0420   13.3948   -0.1917 H   0  0  0  0  0  0  0  0  0  0  0  0
   -0.2279   13.8481   -1.7274 H   0  0  0  0  0  0  0  0  0  0  0  0
   -1.5079   12.5879   -1.7274 H   0  0  0  0  0  0  0  0  0  0  0  0
    2.4255   11.4758   -1.2634 H   0  0  0  0  0  0  0  0  0  0  0  0
    2.1236   13.8263   -0.2501 H   0  0  0  0  0  0  0  0  0  0  0  0
    3.4633   13.4766   -1.4631 H   0  0  0  0  0  0  0  0  0  0  0  0
    2.1830   15.7595   -1.7672 H   0  0  0  0  0  0  0  0  0  0  0  0
   -0.0302   13.1172   -3.8726 H   0  0  0  0  0  0  0  0  0  0  0  0
    2.5292   13.4811   -5.5482 H   0  0  0  0  0  0  0  0  0  0  0  0
    1.1132   12.4055   -5.9346 H   0  0  0  0  0  0  0  0  0  0  0  0
    1.0913   14.4943   -7.2600 H   0  0  0  0  0  0  0  0  0  0  0  0
   -0.3344   14.3408   -6.1601 H   0  0  0  0  0  0  0  0  0  0  0  0
    0.4710   16.5997   -6.0661 H   0  0  0  0  0  0  0  0  0  0  0  0
    2.9730   15.6310   -5.0700 H   0  0  0  0  0  0  0  0  0  0  0  0
   -1.0207   15.9165   -2.7958 H   0  0  0  0  0  0  0  0  0  0  0  0
   -1.2021   16.8165   -4.3396 H   0  0  0  0  0  0  0  0  0  0  0  0
   -1.2208   15.0204   -4.3396 H   0  0  0  0  0  0  0  0  0  0  0  0
    1.2629   17.2293   -2.4093 H   0  0  0  0  0  0  0  0  0  0  0  0
    2.2992   17.4238   -3.8636 H   0  0  0  0  0  0  0  0  0  0  0  0
    0.6217   18.0663   -3.8636 H   0  0  0  0  0  0  0  0  0  0  0  0
    3.7994   11.6968   -2.8335 H   0  0  0  0  0  0  0  0  0  0  0  0
    3.1813   10.8864   -4.3126 H   0  0  0  0  0  0  0  0  0  0  0  0
    3.4660   12.6600   -4.3126 H   0  0  0  0  0  0  0  0  0  0  0  0
    0.5288   10.8735   -4.6625 H   0  0  0  0  0  0  0  0  0  0  0  0
    1.5565    9.9099   -3.4587 H   0  0  0  0  0  0  0  0  0  0  0  0
   -1.1671   11.1517   -2.9854 H   0  0  0  0  0  0  0  0  0  0  0  0
   -0.7159    9.4018   -3.0251 H   0  0  0  0  0  0  0  0  0  0  0  0
    1.1432    9.2283    0.0955 H   0  0  0  0  0  0  0  0  0  0  0  0
    0.6926    8.4013   -1.4341 H   0  0  0  0  0  0  0  0  0  0  0  0
    1.9865    9.6473   -1.4341 H   0  0  0  0  0  0  0  0  0  0  0  0
  1  2  1  0
  2  3  1  0
  3  4  1  0
  4  5  1  0
  5  6  1  0
  6  7  1  0
  7  8  1  0
  7  9  1  0
  2 10  1  0
 10 11  1  0
 11 12  1  0
 12 13  1  0
 13 14  1  1
 13 15  1  0
 15 16  1  0
 16 17  1  0
 17 18  2  0
 18 19  1  0
 19 20  1  0
 20 21  1  0
 21 22  1  0
 22 23  1  0
 22 24  1  0
 24 25  1  0
 24 26  1  0
 19 27  1  0
 27 28  1  6
 27 29  1  0
 29 30  1  0
 30 31  1  0
 31 32  1  6
  7  5  1  0
 31 10  1  0
 31 13  1  0
 27 15  1  0
 24 18  1  0
  1 33  1  0
  1 34  1  0
  1 35  1  0
  2 36  1  1
  3 37  1  0
  3 38  1  0
  4 39  1  0
  4 40  1  0
  5 41  1  1
  8 42  1  0
  8 43  1  0
  8 44  1  0
  9 45  1  0
  9 46  1  0
  9 47  1  0
 10 48  1  6
 11 49  1  0
 11 50  1  0
 12 51  1  0
 12 52  1  0
 14 53  1  0
 14 54  1  0
 14 55  1  0
 15 56  1  1
 16 57  1  0
 16 58  1  0
 17 59  1  0
 19 60  1  6
 20 61  1  0
 20 62  1  0
 21 63  1  0
 21 64  1  0
 22 65  1  6
 23 66  1  0
 25 67  1  0
 25 68  1  0
 25 69  1  0
 26 70  1  0
 26 71  1  0
 26 72  1  0
 28 73  1  0
 28 74  1  0
 28 75  1  0
 29 76  1  0
 29 77  1  0
 30 78  1  0
 30 79  1  0
 32 80  1  0
 32 81  1  0
 32 82  1  0
M  END
>  <meeko>  (13) 
{"is_sidechain": [false], "intermolecular_energy": 2.731, "internal_energy": -0.839}

$$$$
EPH_relaxed_0001_pdb2pqr_Repair_98_r2_0001_out
     RDKit          3D

 82 86  0  0  0  0  0  0  0  0999 V2000
   -4.2970   11.4400   -1.3420 C   0  0  0  0  0  0  0  0  0  0  0  0
   -2.9580   10.7120   -1.1890 C   0  0  2  0  0  0  0  0  0  0  0  0
   -3.0740    9.4680   -0.2860 C   0  0  0  0  0  0  0  0  0  0  0  0
   -2.4900    8.1970   -0.9100 C   0  0  0  0  0  0  0  0  0  0  0  0
   -1.3210    8.5020   -1.7970 C   0  0  2  0  0  0  0  0  0  0  0  0
   -0.5410    7.3600   -2.1730 O   0  0  0  0  0  0  0  0  0  0  0  0
    0.1230    8.3420   -1.3610 C   0  0  0  0  0  0  0  0  0  0  0  0
    0.4760    7.8600    0.0110 C   0  0  0  0  0  0  0  0  0  0  0  0
    1.1800    9.1110   -2.0910 C   0  0  0  0  0  0  0  0  0  0  0  0
   -1.9080   11.6650   -0.6310 C   0  0  1  0  0  0  0  0  0  0  0  0
   -1.0450   11.0170    0.4840 C   0  0  0  0  0  0  0  0  0  0  0  0
    0.3830   11.6020    0.3410 C   0  0  0  0  0  0  0  0  0  0  0  0
    0.2190   12.8010   -0.6230 C   0  0  1  0  0  0  0  0  0  0  0  0
   -0.3060   13.9670    0.2730 C   0  0  0  0  0  0  0  0  0  0  0  0
    1.4920   13.2200   -1.4290 C   0  0  2  0  0  0  0  0  0  0  0  0
    2.6770   13.6990   -0.5730 C   0  0  0  0  0  0  0  0  0  0  0  0
    2.7130   15.1660   -0.2970 C   0  0  0  0  0  0  0  0  0  0  0  0
    1.9970   16.1020   -0.9480 C   0  0  0  0  0  0  0  0  0  0  0  0
    1.1140   15.7270   -2.1460 C   0  0  1  0  0  0  0  0  0  0  0  0
    1.3550   16.7330   -3.3010 C   0  0  0  0  0  0  0  0  0  0  0  0
    1.1610   18.1820   -2.8640 C   0  0  0  0  0  0  0  0  0  0  0  0
    2.0960   18.5340   -1.7110 C   0  0  2  0  0  0  0  0  0  0  0  0
    3.4460   18.5050   -2.1860 O   0  0  0  0  0  0  0  0  0  0  0  0
    1.9510   17.5810   -0.4920 C   0  0  0  0  0  0  0  0  0  0  0  0
    0.5920   17.8320    0.2070 C   0  0  0  0  0  0  0  0  0  0  0  0
    3.0460   17.9570    0.5420 C   0  0  0  0  0  0  0  0  0  0  0  0
    1.2030   14.2140   -2.6250 C   0  0  1  0  0  0  0  0  0  0  0  0
    2.3770   14.0450   -3.6380 C   0  0  0  0  0  0  0  0  0  0  0  0
   -0.1130   13.8440   -3.4070 C   0  0  0  0  0  0  0  0  0  0  0  0
   -1.2960   13.3240   -2.5680 C   0  0  0  0  0  0  0  0  0  0  0  0
   -0.8450   12.2100   -1.6180 C   0  0  2  0  0  0  0  0  0  0  0  0
   -0.3330   11.0140   -2.4910 C   0  0  0  0  0  0  0  0  0  0  0  0
   -4.7085   11.6637   -0.3467 H   0  0  0  0  0  0  0  0  0  0  0  0
   -4.1430   12.3786   -1.8946 H   0  0  0  0  0  0  0  0  0  0  0  0
   -5.0010   10.8005   -1.8946 H   0  0  0  0  0  0  0  0  0  0  0  0
   -2.6527   10.3676   -2.1881 H   0  0  0  0  0  0  0  0  0  0  0  0
   -2.5398    9.6703    0.6540 H   0  0  0  0  0  0  0  0  0  0  0  0
   -4.1470    9.2846   -0.1281 H   0  0  0  0  0  0  0  0  0  0  0  0
   -2.1606    7.5235   -0.1051 H   0  0  0  0  0  0  0  0  0  0  0  0
   -3.2720    7.7253   -1.5232 H   0  0  0  0  0  0  0  0  0  0  0  0
   -1.8626    9.3381   -2.2634 H   0  0  0  0  0  0  0  0  0  0  0  0
    0.0007    8.5090    0.7612 H   0  0  0  0  0  0  0  0  0  0  0  0
    0.1188    6.8277    0.1402 H   0  0  0  0  0  0  0  0  0  0  0  0
    1.5680    7.8890    0.1402 H   0  0  0  0  0  0  0  0  0  0  0  0
    1.8478    9.5968   -1.3643 H   0  0  0  0  0  0  0  0  0  0  0  0
    1.7628    8.4243   -2.7225 H   0  0  0  0  0  0  0  0  0  0  0  0
    0.7060    9.8769   -2.7225 H   0  0  0  0  0  0  0  0  0  0  0  0
   -2.5622   12.4827   -0.2944 H   0  0  0  0  0  0  0  0  0  0  0  0
   -1.4577   11.2629    1.4735 H   0  0  0  0  0  0  0  0  0  0  0  0
   -1.0343    9.9212    0.3885 H   0  0  0  0  0  0  0  0  0  0  0  0
    0.7647   11.9375    1.3166 H   0  0  0  0  0  0  0  0  0  0  0  0
    1.1021   10.8596   -0.0353 H   0  0  0  0  0  0  0  0  0  0  0  0
   -0.1850   13.6982    1.3327 H   0  0  0  0  0  0  0  0  0  0  0  0
    0.2675   14.8809    0.0587 H   0  0  0  0  0  0  0  0  0  0  0  0
   -1.3704   14.1434    0.0587 H   0  0  0  0  0  0  0  0  0  0  0  0
    1.8129   12.2677   -1.8765 H   0  0  0  0  0  0  0  0  0  0  0  0
    2.6339   13.1726    0.3919 H   0  0  0  0  0  0  0  0  0  0  0  0
    3.5829   13.4769   -1.1561 H   0  0  0  0  0  0  0  0  0  0  0  0
    3.3809   15.5111    0.5060 H   0  0  0  0  0  0  0  0  0  0  0  0
    0.0744   15.8046   -1.7949 H   0  0  0  0  0  0  0  0  0  0  0  0
    2.3850   16.6098   -3.6669 H   0  0  0  0  0  0  0  0  0  0  0  0
    0.6176   16.5200   -4.0890 H   0  0  0  0  0  0  0  0  0  0  0  0
    1.3731   18.8460   -3.7149 H   0  0  0  0  0  0  0  0  0  0  0  0
    0.1224   18.3103   -2.5253 H   0  0  0  0  0  0  0  0  0  0  0  0
    1.8205   19.5389   -1.3584 H   0  0  0  0  0  0  0  0  0  0  0  0
    3.4180   18.5750   -3.1550 H   0  0  0  0  0  0  0  0  0  0  0  0
    0.7306   17.8064    1.2979 H   0  0  0  0  0  0  0  0  0  0  0  0
    0.2032   18.8171   -0.0902 H   0  0  0  0  0  0  0  0  0  0  0  0
   -0.1230   17.0507   -0.0902 H   0  0  0  0  0  0  0  0  0  0  0  0
    2.6513   17.8215    1.5598 H   0  0  0  0  0  0  0  0  0  0  0  0
    3.9230   17.3085    0.3995 H   0  0  0  0  0  0  0  0  0  0  0  0
    3.3397   19.0075    0.3995 H   0  0  0  0  0  0  0  0  0  0  0  0
    3.3196   13.9093   -3.0875 H   0  0  0  0  0  0  0  0  0  0  0  0
    2.1917   13.1643   -4.2704 H   0  0  0  0  0  0  0  0  0  0  0  0
    2.4476   14.9422   -4.2704 H   0  0  0  0  0  0  0  0  0  0  0  0
   -0.4514   14.7475   -3.9355 H   0  0  0  0  0  0  0  0  0  0  0  0
    0.1669   13.0052   -4.0613 H   0  0  0  0  0  0  0  0  0  0  0  0
   -1.7114   14.1542   -1.9779 H   0  0  0  0  0  0  0  0  0  0  0  0
   -2.0581   12.9176   -3.2493 H   0  0  0  0  0  0  0  0  0  0  0  0
    0.0142   10.2029   -1.8341 H   0  0  0  0  0  0  0  0  0  0  0  0
   -1.1526   10.6463   -3.1259 H   0  0  0  0  0  0  0  0  0  0  0  0
    0.4988   11.3532   -3.1259 H   0  0  0  0  0  0  0  0  0  0  0  0
  1  2  1  0
  2  3  1  0
  3  4  1  0
  4  5  1  0
  5  6  1  0
  6  7  1  0
  7  8  1  0
  7  9  1  0
  2 10  1  0
 10 11  1  0
 11 12  1  0
 12 13  1  0
 13 14  1  1
 13 15  1  0
 15 16  1  0
 16 17  1  0
 17 18  2  0
 18 19  1  0
 19 20  1  0
 20 21  1  0
 21 22  1  0
 22 23  1  0
 22 24  1  0
 24 25  1  0
 24 26  1  0
 19 27  1  0
 27 28  1  6
 27 29  1  0
 29 30  1  0
 30 31  1  0
 31 32  1  6
  7  5  1  0
 31 10  1  0
 31 13  1  0
 27 15  1  0
 24 18  1  0
  1 33  1  0
  1 34  1  0
  1 35  1  0
  2 36  1  6
  3 37  1  0
  3 38  1  0
  4 39  1  0
  4 40  1  0
  5 41  1  6
  8 42  1  0
  8 43  1  0
  8 44  1  0
  9 45  1  0
  9 46  1  0
  9 47  1  0
 10 48  1  1
 11 49  1  0
 11 50  1  0
 12 51  1  0
 12 52  1  0
 14 53  1  0
 14 54  1  0
 14 55  1  0
 15 56  1  6
 16 57  1  0
 16 58  1  0
 17 59  1  0
 19 60  1  1
 20 61  1  0
 20 62  1  0
 21 63  1  0
 21 64  1  0
 22 65  1  1
 23 66  1  0
 25 67  1  0
 25 68  1  0
 25 69  1  0
 26 70  1  0
 26 71  1  0
 26 72  1  0
 28 73  1  0
 28 74  1  0
 28 75  1  0
 29 76  1  0
 29 77  1  0
 30 78  1  0
 30 79  1  0
 32 80  1  0
 32 81  1  0
 32 82  1  0
M  END
>  <meeko>  (14) 
{"is_sidechain": [false], "intermolecular_energy": 2.731, "internal_energy": -0.839}

$$$$
EPH_relaxed_0001_pdb2pqr_Repair_98_r2_0001_out
     RDKit          3D

 82 86  0  0  0  0  0  0  0  0999 V2000
   -0.4520    9.1600   -1.2790 C   0  0  0  0  0  0  0  0  0  0  0  0
    0.4880   10.1020   -2.0360 C   0  0  2  0  0  0  0  0  0  0  0  0
    1.8540    9.4480   -2.3280 C   0  0  0  0  0  0  0  0  0  0  0  0
    2.6380   10.1350   -3.4490 C   0  0  0  0  0  0  0  0  0  0  0  0
    4.0890   10.2810   -3.1020 C   0  0  2  0  0  0  0  0  0  0  0  0
    4.5620   11.6340   -3.0640 O   0  0  0  0  0  0  0  0  0  0  0  0
    5.1350   10.7900   -4.0760 C   0  0  0  0  0  0  0  0  0  0  0  0
    4.7730   11.1860   -5.4730 C   0  0  0  0  0  0  0  0  0  0  0  0
    6.5700   10.4430   -3.8310 C   0  0  0  0  0  0  0  0  0  0  0  0
    0.6860   11.3880   -1.2410 C   0  0  1  0  0  0  0  0  0  0  0  0
    1.8280   11.2750   -0.1960 C   0  0  0  0  0  0  0  0  0  0  0  0
    2.5100   12.6650   -0.1260 C   0  0  0  0  0  0  0  0  0  0  0  0
    1.5420   13.6120   -0.8740 C   0  0  1  0  0  0  0  0  0  0  0  0
    0.4360   13.9620    0.1710 C   0  0  0  0  0  0  0  0  0  0  0  0
    2.1770   14.8990   -1.4960 C   0  0  2  0  0  0  0  0  0  0  0  0
    2.8060   15.8710   -0.4820 C   0  0  0  0  0  0  0  0  0  0  0  0
    1.8870   16.9210    0.0490 C   0  0  0  0  0  0  0  0  0  0  0  0
    0.6950   17.2570   -0.4790 C   0  0  0  0  0  0  0  0  0  0  0  0
    0.2060   16.6220   -1.7870 C   0  0  1  0  0  0  0  0  0  0  0  0
   -0.3430   17.7280   -2.7260 C   0  0  0  0  0  0  0  0  0  0  0  0
   -1.4130   18.5850   -2.0580 C   0  0  0  0  0  0  0  0  0  0  0  0
   -0.8710   19.2460   -0.7930 C   0  0  2  0  0  0  0  0  0  0  0  0
    0.1350   20.1940   -1.1640 O   0  0  0  0  0  0  0  0  0  0  0  0
   -0.2820   18.2300    0.2250 C   0  0  0  0  0  0  0  0  0  0  0  0
   -1.4280   17.3990    0.8520 C   0  0  0  0  0  0  0  0  0  0  0  0
    0.3570   19.0360    1.3880 C   0  0  0  0  0  0  0  0  0  0  0  0
    1.2360   15.6570   -2.5170 C   0  0  1  0  0  0  0  0  0  0  0  0
    2.1700   16.4850   -3.4520 C   0  0  0  0  0  0  0  0  0  0  0  0
    0.4420   14.6660   -3.4480 C   0  0  0  0  0  0  0  0  0  0  0  0
   -0.0560   13.3580   -2.8050 C   0  0  0  0  0  0  0  0  0  0  0  0
    1.0700   12.6620   -2.0340 C   0  0  2  0  0  0  0  0  0  0  0  0
    2.1870   12.2780   -3.0630 C   0  0  0  0  0  0  0  0  0  0  0  0
   -0.3149    9.2974   -0.1963 H   0  0  0  0  0  0  0  0  0  0  0  0
   -1.4940    9.3873   -1.5484 H   0  0  0  0  0  0  0  0  0  0  0  0
   -0.2225    8.1185   -1.5484 H   0  0  0  0  0  0  0  0  0  0  0  0
    0.0179   10.3314   -3.0037 H   0  0  0  0  0  0  0  0  0  0  0  0
    2.4588    9.4822   -1.4098 H   0  0  0  0  0  0  0  0  0  0  0  0
    1.6532    8.4188   -2.6602 H   0  0  0  0  0  0  0  0  0  0  0  0
    2.5495    9.5339   -4.3660 H   0  0  0  0  0  0  0  0  0  0  0  0
    2.2175   11.1409   -3.5948 H   0  0  0  0  0  0  0  0  0  0  0  0
    4.0502    9.3875   -2.4616 H   0  0  0  0  0  0  0  0  0  0  0  0
    4.0311   11.9976   -5.4435 H   0  0  0  0  0  0  0  0  0  0  0  0
    5.6738   11.5317   -6.0012 H   0  0  0  0  0  0  0  0  0  0  0  0
    4.3480   10.3198   -6.0012 H   0  0  0  0  0  0  0  0  0  0  0  0
    6.7566   10.3979   -2.7479 H   0  0  0  0  0  0  0  0  0  0  0  0
    6.7930    9.4650   -4.2825 H   0  0  0  0  0  0  0  0  0  0  0  0
    7.2152   11.2110   -4.2825 H   0  0  0  0  0  0  0  0  0  0  0  0
   -0.3224   11.4987   -0.8158 H   0  0  0  0  0  0  0  0  0  0  0  0
    1.4159   11.0054    0.7876 H   0  0  0  0  0  0  0  0  0  0  0  0
    2.5493   10.4954   -0.4823 H   0  0  0  0  0  0  0  0  0  0  0  0
    2.6352   12.9840    0.9192 H   0  0  0  0  0  0  0  0  0  0  0  0
    3.5158   12.6594   -0.5714 H   0  0  0  0  0  0  0  0  0  0  0  0
    0.8380   13.8348    1.1870 H   0  0  0  0  0  0  0  0  0  0  0  0
    0.1164   15.0052    0.0311 H   0  0  0  0  0  0  0  0  0  0  0  0
   -0.4256   13.2926    0.0311 H   0  0  0  0  0  0  0  0  0  0  0  0
    3.0161   14.4910   -2.0786 H   0  0  0  0  0  0  0  0  0  0  0  0
    3.1765   15.2813    0.3695 H   0  0  0  0  0  0  0  0  0  0  0  0
    3.5987   16.4065   -1.0250 H   0  0  0  0  0  0  0  0  0  0  0  0
    2.2113   17.4662    0.9477 H   0  0  0  0  0  0  0  0  0  0  0  0
   -0.6053   15.9343   -1.5064 H   0  0  0  0  0  0  0  0  0  0  0  0
    0.4906   18.3783   -3.0298 H   0  0  0  0  0  0  0  0  0  0  0  0
   -0.8057   17.2314   -3.5916 H   0  0  0  0  0  0  0  0  0  0  0  0
   -1.7395   19.3658   -2.7607 H   0  0  0  0  0  0  0  0  0  0  0  0
   -2.2589   17.9384   -1.7816 H   0  0  0  0  0  0  0  0  0  0  0  0
   -1.7158   19.7392   -0.2900 H   0  0  0  0  0  0  0  0  0  0  0  0
   -0.2790   20.8460   -1.7550 H   0  0  0  0  0  0  0  0  0  0  0  0
   -1.3594   17.4488    1.9487 H   0  0  0  0  0  0  0  0  0  0  0  0
   -2.3967   17.8060    0.5264 H   0  0  0  0  0  0  0  0  0  0  0  0
   -1.3422   16.3518    0.5264 H   0  0  0  0  0  0  0  0  0  0  0  0
    0.0253   18.6176    2.3497 H   0  0  0  0  0  0  0  0  0  0  0  0
    1.4530   18.9728    1.3191 H   0  0  0  0  0  0  0  0  0  0  0  0
    0.0454   20.0887    1.3191 H   0  0  0  0  0  0  0  0  0  0  0  0
    2.8549   17.0921   -2.8418 H   0  0  0  0  0  0  0  0  0  0  0  0
    2.7528   15.8014   -4.0868 H   0  0  0  0  0  0  0  0  0  0  0  0
    1.5612   17.1455   -4.0868 H   0  0  0  0  0  0  0  0  0  0  0  0
   -0.4372   15.2034   -3.8331 H   0  0  0  0  0  0  0  0  0  0  0  0
    1.1636   14.3524   -4.2167 H   0  0  0  0  0  0  0  0  0  0  0  0
   -0.8780   13.5884   -2.1113 H   0  0  0  0  0  0  0  0  0  0  0  0
   -0.4025   12.6849   -3.6030 H   0  0  0  0  0  0  0  0  0  0  0  0
    3.0927   11.9666   -2.5219 H   0  0  0  0  0  0  0  0  0  0  0  0
    1.8343   11.4495   -3.6948 H   0  0  0  0  0  0  0  0  0  0  0  0
    2.4183   13.1482   -3.6948 H   0  0  0  0  0  0  0  0  0  0  0  0
  1  2  1  0
  2  3  1  0
  3  4  1  0
  4  5  1  0
  5  6  1  0
  6  7  1  0
  7  8  1  0
  7  9  1  0
  2 10  1  0
 10 11  1  0
 11 12  1  0
 12 13  1  0
 13 14  1  1
 13 15  1  0
 15 16  1  0
 16 17  1  0
 17 18  2  0
 18 19  1  0
 19 20  1  0
 20 21  1  0
 21 22  1  0
 22 23  1  0
 22 24  1  0
 24 25  1  0
 24 26  1  0
 19 27  1  0
 27 28  1  6
 27 29  1  0
 29 30  1  0
 30 31  1  0
 31 32  1  6
  7  5  1  0
 31 10  1  0
 31 13  1  0
 27 15  1  0
 24 18  1  0
  1 33  1  0
  1 34  1  0
  1 35  1  0
  2 36  1  6
  3 37  1  0
  3 38  1  0
  4 39  1  0
  4 40  1  0
  5 41  1  1
  8 42  1  0
  8 43  1  0
  8 44  1  0
  9 45  1  0
  9 46  1  0
  9 47  1  0
 10 48  1  1
 11 49  1  0
 11 50  1  0
 12 51  1  0
 12 52  1  0
 14 53  1  0
 14 54  1  0
 14 55  1  0
 15 56  1  6
 16 57  1  0
 16 58  1  0
 17 59  1  0
 19 60  1  1
 20 61  1  0
 20 62  1  0
 21 63  1  0
 21 64  1  0
 22 65  1  1
 23 66  1  0
 25 67  1  0
 25 68  1  0
 25 69  1  0
 26 70  1  0
 26 71  1  0
 26 72  1  0
 28 73  1  0
 28 74  1  0
 28 75  1  0
 29 76  1  0
 29 77  1  0
 30 78  1  0
 30 79  1  0
 32 80  1  0
 32 81  1  0
 32 82  1  0
M  END
>  <meeko>  (15) 
{"is_sidechain": [false], "intermolecular_energy": 2.731, "internal_energy": -0.839}

$$$$
EPH_relaxed_0001_pdb2pqr_Repair_98_r2_0001_out
     RDKit          3D

 82 86  0  0  0  0  0  0  0  0999 V2000
   -1.0380   16.3820   -5.9140 C   0  0  0  0  0  0  0  0  0  0  0  0
    0.1280   15.6760   -6.6110 C   0  0  2  0  0  0  0  0  0  0  0  0
   -0.1910   15.3410   -8.0820 C   0  0  0  0  0  0  0  0  0  0  0  0
    0.3880   16.3460   -9.0810 C   0  0  0  0  0  0  0  0  0  0  0  0
    1.8110   16.0270   -9.4260 C   0  0  2  0  0  0  0  0  0  0  0  0
    2.3020   16.6790  -10.6050 O   0  0  0  0  0  0  0  0  0  0  0  0
    2.2180   15.2460  -10.6620 C   0  0  0  0  0  0  0  0  0  0  0  0
    1.1990   14.7340  -11.6320 C   0  0  0  0  0  0  0  0  0  0  0  0
    3.5500   14.5630  -10.6710 C   0  0  0  0  0  0  0  0  0  0  0  0
    0.4910   14.4030   -5.8550 C   0  0  1  0  0  0  0  0  0  0  0  0
    1.6540   13.6220   -6.5240 C   0  0  0  0  0  0  0  0  0  0  0  0
    2.4820   12.9840   -5.3790 C   0  0  0  0  0  0  0  0  0  0  0  0
    1.5930   13.1380   -4.1220 C   0  0  1  0  0  0  0  0  0  0  0  0
    0.5710   11.9610   -4.2080 C   0  0  0  0  0  0  0  0  0  0  0  0
    2.3370   13.1570   -2.7470 C   0  0  2  0  0  0  0  0  0  0  0  0
    3.1030   11.8680   -2.4020 C   0  0  0  0  0  0  0  0  0  0  0  0
    2.3220   10.8440   -1.6470 C   0  0  0  0  0  0  0  0  0  0  0  0
    1.1540   11.0620   -1.0150 C   0  0  0  0  0  0  0  0  0  0  0  0
    0.5500   12.4700   -0.9370 C   0  0  1  0  0  0  0  0  0  0  0  0
    0.0870   12.7550    0.5160 C   0  0  0  0  0  0  0  0  0  0  0  0
   -0.8600   11.6840    1.0490 C   0  0  0  0  0  0  0  0  0  0  0  0
   -0.2030   10.3070    1.0100 C   0  0  2  0  0  0  0  0  0  0  0  0
    0.8830   10.2880    1.9410 O   0  0  0  0  0  0  0  0  0  0  0  0
    0.3130    9.9140   -0.4030 C   0  0  0  0  0  0  0  0  0  0  0  0
   -0.8900    9.6410   -1.3390 C   0  0  0  0  0  0  0  0  0  0  0  0
    1.0780    8.5690   -0.2750 C   0  0  0  0  0  0  0  0  0  0  0  0
    1.4440   13.6410   -1.5340 C   0  0  1  0  0  0  0  0  0  0  0  0
    2.4240   14.1710   -0.4430 C   0  0  0  0  0  0  0  0  0  0  0  0
    0.5130   14.8510   -1.9210 C   0  0  0  0  0  0  0  0  0  0  0  0
   -0.0960   14.8340   -3.3360 C   0  0  0  0  0  0  0  0  0  0  0  0
    0.9780   14.5590   -4.3920 C   0  0  2  0  0  0  0  0  0  0  0  0
    2.0090   15.7390   -4.3450 C   0  0  0  0  0  0  0  0  0  0  0  0
   -0.9134   16.3065   -4.8237 H   0  0  0  0  0  0  0  0  0  0  0  0
   -1.0540   17.4417   -6.2088 H   0  0  0  0  0  0  0  0  0  0  0  0
   -1.9844   15.9051   -6.2088 H   0  0  0  0  0  0  0  0  0  0  0  0
    0.9830   16.3681   -6.6078 H   0  0  0  0  0  0  0  0  0  0  0  0
    0.2226   14.3474   -8.3096 H   0  0  0  0  0  0  0  0  0  0  0  0
   -1.2852   15.3745   -8.1895 H   0  0  0  0  0  0  0  0  0  0  0  0
   -0.2155   16.3229  -10.0004 H   0  0  0  0  0  0  0  0  0  0  0  0
    0.3626   17.3435   -8.6179 H   0  0  0  0  0  0  0  0  0  0  0  0
    2.0673   15.9113   -8.3626 H   0  0  0  0  0  0  0  0  0  0  0  0
    0.3490   14.3069  -11.0796 H   0  0  0  0  0  0  0  0  0  0  0  0
    0.8464   15.5620  -12.2646 H   0  0  0  0  0  0  0  0  0  0  0  0
    1.6529   13.9569  -12.2646 H   0  0  0  0  0  0  0  0  0  0  0  0
    3.8818   14.3929   -9.6361 H   0  0  0  0  0  0  0  0  0  0  0  0
    3.4637   13.5979  -11.1917 H   0  0  0  0  0  0  0  0  0  0  0  0
    4.2833   15.1963  -11.1917 H   0  0  0  0  0  0  0  0  0  0  0  0
   -0.4831   13.8923   -5.8752 H   0  0  0  0  0  0  0  0  0  0  0  0
    1.2536   12.8383   -7.1839 H   0  0  0  0  0  0  0  0  0  0  0  0
    2.2770   14.2901   -7.1368 H   0  0  0  0  0  0  0  0  0  0  0  0
    2.6792   11.9221   -5.5875 H   0  0  0  0  0  0  0  0  0  0  0  0
    3.4641   13.4641   -5.2568 H   0  0  0  0  0  0  0  0  0  0  0  0
    0.2935   11.6414   -3.1927 H   0  0  0  0  0  0  0  0  0  0  0  0
   -0.3285   12.2950   -4.7460 H   0  0  0  0  0  0  0  0  0  0  0  0
    1.0279   11.1173   -4.7460 H   0  0  0  0  0  0  0  0  0  0  0  0
    3.1056   13.9279   -2.9050 H   0  0  0  0  0  0  0  0  0  0  0  0
    3.4409   11.4112   -3.3439 H   0  0  0  0  0  0  0  0  0  0  0  0
    3.9265   12.1719   -1.7390 H   0  0  0  0  0  0  0  0  0  0  0  0
    2.7360    9.8258   -1.6036 H   0  0  0  0  0  0  0  0  0  0  0  0
   -0.3192   12.4666   -1.6112 H   0  0  0  0  0  0  0  0  0  0  0  0
    0.9730   12.7976    1.1665 H   0  0  0  0  0  0  0  0  0  0  0  0
   -0.4582   13.7104    0.5114 H   0  0  0  0  0  0  0  0  0  0  0  0
   -1.1285   11.9255    2.0880 H   0  0  0  0  0  0  0  0  0  0  0  0
   -1.7585   11.6625    0.4148 H   0  0  0  0  0  0  0  0  0  0  0  0
   -0.9710    9.5673    1.2803 H   0  0  0  0  0  0  0  0  0  0  0  0
    0.9160   11.1580    2.3730 H   0  0  0  0  0  0  0  0  0  0  0  0
   -1.7862    9.4376   -0.7344 H   0  0  0  0  0  0  0  0  0  0  0  0
   -1.0680   10.5216   -1.9737 H   0  0  0  0  0  0  0  0  0  0  0  0
   -0.6704    8.7698   -1.9737 H   0  0  0  0  0  0  0  0  0  0  0  0
    1.2164    8.3257    0.7888 H   0  0  0  0  0  0  0  0  0  0  0  0
    0.4991    7.7702   -0.7616 H   0  0  0  0  0  0  0  0  0  0  0  0
    2.0605    8.6582   -0.7616 H   0  0  0  0  0  0  0  0  0  0  0  0
    2.0162   13.9505    0.5545 H   0  0  0  0  0  0  0  0  0  0  0  0
    3.4008   13.6782   -0.5570 H   0  0  0  0  0  0  0  0  0  0  0  0
    2.5463   15.2582   -0.5570 H   0  0  0  0  0  0  0  0  0  0  0  0
   -0.3184   14.8747   -1.2011 H   0  0  0  0  0  0  0  0  0  0  0  0
    1.1667   15.7355   -1.8996 H   0  0  0  0  0  0  0  0  0  0  0  0
   -0.8622   14.0464   -3.3885 H   0  0  0  0  0  0  0  0  0  0  0  0
   -0.5418   15.8192   -3.5377 H   0  0  0  0  0  0  0  0  0  0  0  0
    2.2297   15.9916   -3.2974 H   0  0  0  0  0  0  0  0  0  0  0  0
    2.9367   15.4358   -4.8523 H   0  0  0  0  0  0  0  0  0  0  0  0
    1.5840   16.6176   -4.8523 H   0  0  0  0  0  0  0  0  0  0  0  0
  1  2  1  0
  2  3  1  0
  3  4  1  0
  4  5  1  0
  5  6  1  0
  6  7  1  0
  7  8  1  0
  7  9  1  0
  2 10  1  0
 10 11  1  0
 11 12  1  0
 12 13  1  0
 13 14  1  1
 13 15  1  0
 15 16  1  0
 16 17  1  0
 17 18  2  0
 18 19  1  0
 19 20  1  0
 20 21  1  0
 21 22  1  0
 22 23  1  0
 22 24  1  0
 24 25  1  0
 24 26  1  0
 19 27  1  0
 27 28  1  1
 27 29  1  0
 29 30  1  0
 30 31  1  0
 31 32  1  6
  7  5  1  0
 31 10  1  0
 31 13  1  0
 27 15  1  0
 24 18  1  0
  1 33  1  0
  1 34  1  0
  1 35  1  0
  2 36  1  6
  3 37  1  0
  3 38  1  0
  4 39  1  0
  4 40  1  0
  5 41  1  1
  8 42  1  0
  8 43  1  0
  8 44  1  0
  9 45  1  0
  9 46  1  0
  9 47  1  0
 10 48  1  1
 11 49  1  0
 11 50  1  0
 12 51  1  0
 12 52  1  0
 14 53  1  0
 14 54  1  0
 14 55  1  0
 15 56  1  6
 16 57  1  0
 16 58  1  0
 17 59  1  0
 19 60  1  6
 20 61  1  0
 20 62  1  0
 21 63  1  0
 21 64  1  0
 22 65  1  1
 23 66  1  0
 25 67  1  0
 25 68  1  0
 25 69  1  0
 26 70  1  0
 26 71  1  0
 26 72  1  0
 28 73  1  0
 28 74  1  0
 28 75  1  0
 29 76  1  0
 29 77  1  0
 30 78  1  0
 30 79  1  0
 32 80  1  0
 32 81  1  0
 32 82  1  0
M  END
>  <meeko>  (16) 
{"is_sidechain": [false], "intermolecular_energy": 2.731, "internal_energy": -0.839}

$$$$
EPH_relaxed_0001_pdb2pqr_Repair_98_r2_0001_out
     RDKit          3D

 82 86  0  0  0  0  0  0  0  0999 V2000
    1.5400    9.3570    0.2700 C   0  0  0  0  0  0  0  0  0  0  0  0
    0.4720   10.0230   -0.6020 C   0  0  2  0  0  0  0  0  0  0  0  0
   -0.0780    9.0670   -1.6790 C   0  0  0  0  0  0  0  0  0  0  0  0
   -1.4030    8.4040   -1.2940 C   0  0  0  0  0  0  0  0  0  0  0  0
   -2.4580    9.4180   -0.9700 C   0  0  2  0  0  0  0  0  0  0  0  0
   -3.0780    9.2480    0.3120 O   0  0  0  0  0  0  0  0  0  0  0  0
   -3.9300    9.0800   -0.8330 C   0  0  0  0  0  0  0  0  0  0  0  0
   -4.4300    7.6810   -1.0180 C   0  0  0  0  0  0  0  0  0  0  0  0
   -4.9350   10.1760   -1.0020 C   0  0  0  0  0  0  0  0  0  0  0  0
    1.0420   11.2750   -1.2580 C   0  0  1  0  0  0  0  0  0  0  0  0
    1.1570   11.1410   -2.8000 C   0  0  0  0  0  0  0  0  0  0  0  0
    0.8660   12.5430   -3.3940 C   0  0  0  0  0  0  0  0  0  0  0  0
    0.9210   13.5000   -2.1800 C   0  0  1  0  0  0  0  0  0  0  0  0
    2.4420   13.7730   -1.9540 C   0  0  0  0  0  0  0  0  0  0  0  0
    0.1090   14.8290   -2.3110 C   0  0  2  0  0  0  0  0  0  0  0  0
    0.5710   15.7680   -3.4390 C   0  0  0  0  0  0  0  0  0  0  0  0
    1.6090   16.7690   -3.0510 C   0  0  0  0  0  0  0  0  0  0  0  0
    1.9430   17.1000   -1.7900 C   0  0  0  0  0  0  0  0  0  0  0  0
    1.1810   16.5150   -0.5930 C   0  0  1  0  0  0  0  0  0  0  0  0
    0.8370   17.6500    0.4070 C   0  0  0  0  0  0  0  0  0  0  0  0
    2.0660   18.4490    0.8310 C   0  0  0  0  0  0  0  0  0  0  0  0
    2.7630   19.0630   -0.3800 C   0  0  2  0  0  0  0  0  0  0  0  0
    1.9020   20.0520   -0.9550 O   0  0  0  0  0  0  0  0  0  0  0  0
    3.1490   18.0150   -1.4610 C   0  0  0  0  0  0  0  0  0  0  0  0
    4.3040   17.1270   -0.9360 C   0  0  0  0  0  0  0  0  0  0  0  0
    3.7140   18.7810   -2.6880 C   0  0  0  0  0  0  0  0  0  0  0  0
   -0.0770   15.6110   -0.9480 C   0  0  1  0  0  0  0  0  0  0  0  0
   -1.3440   16.5050   -1.1170 C   0  0  0  0  0  0  0  0  0  0  0  0
   -0.3730   14.6460    0.2610 C   0  0  0  0  0  0  0  0  0  0  0  0
    0.3710   13.2970    0.2700 C   0  0  0  0  0  0  0  0  0  0  0  0
    0.2490   12.5940   -1.0850 C   0  0  2  0  0  0  0  0  0  0  0  0
   -1.2680   12.2860   -1.3300 C   0  0  0  0  0  0  0  0  0  0  0  0
    1.2946    9.5100    1.3313 H   0  0  0  0  0  0  0  0  0  0  0  0
    1.5711    8.2792    0.0526 H   0  0  0  0  0  0  0  0  0  0  0  0
    2.5216    9.8034    0.0526 H   0  0  0  0  0  0  0  0  0  0  0  0
   -0.3668   10.2972    0.0547 H   0  0  0  0  0  0  0  0  0  0  0  0
   -0.2324    9.6395   -2.6055 H   0  0  0  0  0  0  0  0  0  0  0  0
    0.6610    8.2615   -1.8018 H   0  0  0  0  0  0  0  0  0  0  0  0
   -1.7496    7.7856   -2.1351 H   0  0  0  0  0  0  0  0  0  0  0  0
   -1.2310    7.7904   -0.3974 H   0  0  0  0  0  0  0  0  0  0  0  0
   -1.9293   10.1880   -1.5510 H   0  0  0  0  0  0  0  0  0  0  0  0
   -4.5956    7.2177   -0.0342 H   0  0  0  0  0  0  0  0  0  0  0  0
   -5.3766    7.7010   -1.5779 H   0  0  0  0  0  0  0  0  0  0  0  0
   -3.6851    7.0964   -1.5779 H   0  0  0  0  0  0  0  0  0  0  0  0
   -5.2604   10.5308   -0.0129 H   0  0  0  0  0  0  0  0  0  0  0  0
   -4.4797   11.0084   -1.5586 H   0  0  0  0  0  0  0  0  0  0  0  0
   -5.8036    9.7944   -1.5586 H   0  0  0  0  0  0  0  0  0  0  0  0
    2.0017   11.3414   -0.7245 H   0  0  0  0  0  0  0  0  0  0  0  0
    2.1703   10.8151   -3.0773 H   0  0  0  0  0  0  0  0  0  0  0  0
    0.4476   10.3939   -3.1854 H   0  0  0  0  0  0  0  0  0  0  0  0
    1.6289   12.8155   -4.1382 H   0  0  0  0  0  0  0  0  0  0  0  0
   -0.1028   12.5832   -3.9134 H   0  0  0  0  0  0  0  0  0  0  0  0
    2.6514   13.8106   -0.8748 H   0  0  0  0  0  0  0  0  0  0  0  0
    3.0316   12.9663   -2.4140 H   0  0  0  0  0  0  0  0  0  0  0  0
    2.7143   14.7344   -2.4140 H   0  0  0  0  0  0  0  0  0  0  0  0
   -0.8860   14.4689   -2.6115 H   0  0  0  0  0  0  0  0  0  0  0  0
    0.9824   15.1486   -4.2497 H   0  0  0  0  0  0  0  0  0  0  0  0
   -0.3157   16.3481   -3.7342 H   0  0  0  0  0  0  0  0  0  0  0  0
    2.1459   17.2788   -3.8645 H   0  0  0  0  0  0  0  0  0  0  0  0
    1.8646   15.7955   -0.1186 H   0  0  0  0  0  0  0  0  0  0  0  0
    0.1189   18.3338   -0.0692 H   0  0  0  0  0  0  0  0  0  0  0  0
    0.4147   17.1834    1.3092 H   0  0  0  0  0  0  0  0  0  0  0  0
    1.7543   19.2537    1.5131 H   0  0  0  0  0  0  0  0  0  0  0  0
    2.7699   17.7693    1.3335 H   0  0  0  0  0  0  0  0  0  0  0  0
    3.7036   19.5112   -0.0273 H   0  0  0  0  0  0  0  0  0  0  0  0
    1.6630   20.6780   -0.2510 H   0  0  0  0  0  0  0  0  0  0  0  0
    4.2987   17.1310    0.1640 H   0  0  0  0  0  0  0  0  0  0  0  0
    4.1694   16.0976   -1.2995 H   0  0  0  0  0  0  0  0  0  0  0  0
    5.2643   17.5216   -1.2995 H   0  0  0  0  0  0  0  0  0  0  0  0
    4.3338   19.6213   -2.3420 H   0  0  0  0  0  0  0  0  0  0  0  0
    4.3270   18.0990   -3.2956 H   0  0  0  0  0  0  0  0  0  0  0  0
    2.8814   19.1653   -3.2956 H   0  0  0  0  0  0  0  0  0  0  0  0
   -1.7336   16.7799   -0.1257 H   0  0  0  0  0  0  0  0  0  0  0  0
   -1.0781   17.4166   -1.6722 H   0  0  0  0  0  0  0  0  0  0  0  0
   -2.1137   15.9489   -1.6722 H   0  0  0  0  0  0  0  0  0  0  0  0
   -0.1068   15.1792    1.1856 H   0  0  0  0  0  0  0  0  0  0  0  0
   -1.4382   14.3872    0.1692 H   0  0  0  0  0  0  0  0  0  0  0  0
    1.4343   13.4741    0.4889 H   0  0  0  0  0  0  0  0  0  0  0  0
   -0.0791   12.6537    1.0404 H   0  0  0  0  0  0  0  0  0  0  0  0
   -1.7818   12.1817   -0.3630 H   0  0  0  0  0  0  0  0  0  0  0  0
   -1.7222   13.1103   -1.8995 H   0  0  0  0  0  0  0  0  0  0  0  0
   -1.3648   11.3499   -1.8995 H   0  0  0  0  0  0  0  0  0  0  0  0
  1  2  1  0
  2  3  1  0
  3  4  1  0
  4  5  1  0
  5  6  1  0
  6  7  1  0
  7  8  1  0
  7  9  1  0
  2 10  1  0
 10 11  1  0
 11 12  1  0
 12 13  1  0
 13 14  1  1
 13 15  1  0
 15 16  1  0
 16 17  1  0
 17 18  2  0
 18 19  1  0
 19 20  1  0
 20 21  1  0
 21 22  1  0
 22 23  1  0
 22 24  1  0
 24 25  1  0
 24 26  1  0
 19 27  1  0
 27 28  1  6
 27 29  1  0
 29 30  1  0
 30 31  1  0
 31 32  1  6
  7  5  1  0
 31 10  1  0
 31 13  1  0
 27 15  1  0
 24 18  1  0
  1 33  1  0
  1 34  1  0
  1 35  1  0
  2 36  1  1
  3 37  1  0
  3 38  1  0
  4 39  1  0
  4 40  1  0
  5 41  1  1
  8 42  1  0
  8 43  1  0
  8 44  1  0
  9 45  1  0
  9 46  1  0
  9 47  1  0
 10 48  1  1
 11 49  1  0
 11 50  1  0
 12 51  1  0
 12 52  1  0
 14 53  1  0
 14 54  1  0
 14 55  1  0
 15 56  1  6
 16 57  1  0
 16 58  1  0
 17 59  1  0
 19 60  1  1
 20 61  1  0
 20 62  1  0
 21 63  1  0
 21 64  1  0
 22 65  1  1
 23 66  1  0
 25 67  1  0
 25 68  1  0
 25 69  1  0
 26 70  1  0
 26 71  1  0
 26 72  1  0
 28 73  1  0
 28 74  1  0
 28 75  1  0
 29 76  1  0
 29 77  1  0
 30 78  1  0
 30 79  1  0
 32 80  1  0
 32 81  1  0
 32 82  1  0
M  END
>  <meeko>  (17) 
{"is_sidechain": [false], "intermolecular_energy": 2.731, "internal_energy": -0.839}

$$$$
