EPH_relaxed_0001_pdb2pqr_Repair_250_r2_0001_out
     RDKit          3D

 82 86  0  0  0  0  0  0  0  0999 V2000
   -5.1390    5.8640   -1.7410 C   0  0  0  0  0  0  0  0  0  0  0  0
   -5.4450    7.3630   -1.7950 C   0  0  2  0  0  0  0  0  0  0  0  0
   -5.2240    8.0500   -0.4330 C   0  0  0  0  0  0  0  0  0  0  0  0
   -4.1770    9.1670   -0.4700 C   0  0  0  0  0  0  0  0  0  0  0  0
   -2.8150    8.6380   -0.8040 C   0  0  2  0  0  0  0  0  0  0  0  0
   -1.7950    8.9670    0.1480 O   0  0  0  0  0  0  0  0  0  0  0  0
   -1.6390    9.5260   -1.1660 C   0  0  0  0  0  0  0  0  0  0  0  0
   -1.7720   11.0160   -1.2140 C   0  0  0  0  0  0  0  0  0  0  0  0
   -0.5060    8.9310   -1.9430 C   0  0  0  0  0  0  0  0  0  0  0  0
   -6.8790    7.5830   -2.2630 C   0  0  1  0  0  0  0  0  0  0  0  0
   -7.1800    6.8840   -3.6150 C   0  0  0  0  0  0  0  0  0  0  0  0
   -8.6540    6.4060   -3.5540 C   0  0  0  0  0  0  0  0  0  0  0  0
   -9.2460    7.1270   -2.3210 C   0  0  1  0  0  0  0  0  0  0  0  0
   -9.6010    8.5610   -2.8270 C   0  0  0  0  0  0  0  0  0  0  0  0
  -10.4720    6.4360   -1.6390 C   0  0  2  0  0  0  0  0  0  0  0  0
  -11.7230    6.3050   -2.5250 C   0  0  0  0  0  0  0  0  0  0  0  0
  -12.6820    7.4470   -2.4480 C   0  0  0  0  0  0  0  0  0  0  0  0
  -12.6910    8.3970   -1.4950 C   0  0  0  0  0  0  0  0  0  0  0  0
  -11.7300    8.3260   -0.3020 C   0  0  1  0  0  0  0  0  0  0  0  0
  -12.5100    8.6040    1.0100 C   0  0  0  0  0  0  0  0  0  0  0  0
  -13.2850    9.9180    0.9620 C   0  0  0  0  0  0  0  0  0  0  0  0
  -14.2710    9.9280   -0.2030 C   0  0  2  0  0  0  0  0  0  0  0  0
  -15.2860    8.9500    0.0450 O   0  0  0  0  0  0  0  0  0  0  0  0
  -13.6000    9.6480   -1.5770 C   0  0  0  0  0  0  0  0  0  0  0  0
  -12.7250   10.8590   -1.9840 C   0  0  0  0  0  0  0  0  0  0  0  0
  -14.7230    9.5450   -2.6440 C   0  0  0  0  0  0  0  0  0  0  0  0
  -10.8330    7.0170   -0.2120 C   0  0  1  0  0  0  0  0  0  0  0  0
  -11.6050    5.8930    0.5440 C   0  0  0  0  0  0  0  0  0  0  0  0
   -9.5510    7.3300    0.6480 C   0  0  0  0  0  0  0  0  0  0  0  0
   -8.3330    7.9000   -0.1030 C   0  0  0  0  0  0  0  0  0  0  0  0
   -8.0150    7.0630   -1.3460 C   0  0  2  0  0  0  0  0  0  0  0  0
   -7.6320    5.6210   -0.8670 C   0  0  0  0  0  0  0  0  0  0  0  0
   -5.0730    5.5408   -0.6916 H   0  0  0  0  0  0  0  0  0  0  0  0
   -5.9420    5.3074   -2.2463 H   0  0  0  0  0  0  0  0  0  0  0  0
   -4.1821    5.6667   -2.2463 H   0  0  0  0  0  0  0  0  0  0  0  0
   -4.7456    7.8186   -2.5114 H   0  0  0  0  0  0  0  0  0  0  0  0
   -6.1804    8.4812   -0.1022 H   0  0  0  0  0  0  0  0  0  0  0  0
   -4.8493    7.2807    0.2582 H   0  0  0  0  0  0  0  0  0  0  0  0
   -4.4696    9.9050   -1.2314 H   0  0  0  0  0  0  0  0  0  0  0  0
   -4.1312    9.6278    0.5278 H   0  0  0  0  0  0  0  0  0  0  0  0
   -3.2518    7.7554   -1.2941 H   0  0  0  0  0  0  0  0  0  0  0  0
   -1.8075   11.4142   -0.1892 H   0  0  0  0  0  0  0  0  0  0  0  0
   -0.9085   11.4443   -1.7440 H   0  0  0  0  0  0  0  0  0  0  0  0
   -2.6977   11.2846   -1.7440 H   0  0  0  0  0  0  0  0  0  0  0  0
    0.2480    8.5350   -1.2468 H   0  0  0  0  0  0  0  0  0  0  0  0
   -0.8844    8.1152   -2.5765 H   0  0  0  0  0  0  0  0  0  0  0  0
   -0.0492    9.7056   -2.5765 H   0  0  0  0  0  0  0  0  0  0  0  0
   -6.8952    8.6824   -2.2952 H   0  0  0  0  0  0  0  0  0  0  0  0
   -7.0457    7.5925   -4.4457 H   0  0  0  0  0  0  0  0  0  0  0  0
   -6.4973    6.0379   -3.7824 H   0  0  0  0  0  0  0  0  0  0  0  0
   -9.1938    6.6934   -4.4684 H   0  0  0  0  0  0  0  0  0  0  0  0
   -8.7353    5.3117   -3.4768 H   0  0  0  0  0  0  0  0  0  0  0  0
   -9.7651    9.2239   -1.9647 H   0  0  0  0  0  0  0  0  0  0  0  0
   -8.7722    8.9504   -3.4364 H   0  0  0  0  0  0  0  0  0  0  0  0
  -10.5158    8.5188   -3.4364 H   0  0  0  0  0  0  0  0  0  0  0  0
  -10.1074    5.4100   -1.4828 H   0  0  0  0  0  0  0  0  0  0  0  0
  -11.3912    6.2097   -3.5694 H   0  0  0  0  0  0  0  0  0  0  0  0
  -12.2680    5.4246   -2.1535 H   0  0  0  0  0  0  0  0  0  0  0  0
  -13.4454    7.5176   -3.2368 H   0  0  0  0  0  0  0  0  0  0  0  0
  -10.9831    9.1166   -0.4664 H   0  0  0  0  0  0  0  0  0  0  0  0
  -13.2205    7.7814    1.1791 H   0  0  0  0  0  0  0  0  0  0  0  0
  -11.7759    8.6785    1.8258 H   0  0  0  0  0  0  0  0  0  0  0  0
  -13.8394   10.0435    1.9038 H   0  0  0  0  0  0  0  0  0  0  0  0
  -12.5699   10.7423    0.8236 H   0  0  0  0  0  0  0  0  0  0  0  0
  -14.6993   10.9393   -0.2643 H   0  0  0  0  0  0  0  0  0  0  0  0
  -15.1280    8.2030   -0.5580 H   0  0  0  0  0  0  0  0  0  0  0  0
  -12.3582   11.3667   -1.0797 H   0  0  0  0  0  0  0  0  0  0  0  0
  -11.8696   10.5093   -2.5807 H   0  0  0  0  0  0  0  0  0  0  0  0
  -13.3256   11.5613   -2.5807 H   0  0  0  0  0  0  0  0  0  0  0  0
  -15.6980    9.4556   -2.1427 H   0  0  0  0  0  0  0  0  0  0  0  0
  -14.7154   10.4476   -3.2727 H   0  0  0  0  0  0  0  0  0  0  0  0
  -14.5513    8.6588   -3.2727 H   0  0  0  0  0  0  0  0  0  0  0  0
  -11.5018    6.0432    1.6288 H   0  0  0  0  0  0  0  0  0  0  0  0
  -12.6692    5.9299    0.2683 H   0  0  0  0  0  0  0  0  0  0  0  0
  -11.1886    4.9129    0.2683 H   0  0  0  0  0  0  0  0  0  0  0  0
   -9.8378    8.0599    1.4193 H   0  0  0  0  0  0  0  0  0  0  0  0
   -9.2197    6.3554    1.0359 H   0  0  0  0  0  0  0  0  0  0  0  0
   -8.5512    8.9332   -0.4110 H   0  0  0  0  0  0  0  0  0  0  0  0
   -7.4627    7.8746    0.5693 H   0  0  0  0  0  0  0  0  0  0  0  0
   -7.6238    5.5900    0.2325 H   0  0  0  0  0  0  0  0  0  0  0  0
   -8.3697    4.8998   -1.2486 H   0  0  0  0  0  0  0  0  0  0  0  0
   -6.6336    5.3609   -1.2486 H   0  0  0  0  0  0  0  0  0  0  0  0
  1  2  1  0
  2  3  1  0
  3  4  1  0
  4  5  1  0
  5  6  1  0
  6  7  1  0
  7  8  1  0
  7  9  1  0
  2 10  1  0
 10 11  1  0
 11 12  1  0
 12 13  1  0
 13 14  1  6
 13 15  1  0
 15 16  1  0
 16 17  1  0
 17 18  2  0
 18 19  1  0
 19 20  1  0
 20 21  1  0
 21 22  1  0
 22 23  1  0
 22 24  1  0
 24 25  1  0
 24 26  1  0
 19 27  1  0
 27 28  1  1
 27 29  1  0
 29 30  1  0
 30 31  1  0
 31 32  1  1
  7  5  1  0
 31 10  1  0
 31 13  1  0
 27 15  1  0
 24 18  1  0
  1 33  1  0
  1 34  1  0
  1 35  1  0
  2 36  1  6
  3 37  1  0
  3 38  1  0
  4 39  1  0
  4 40  1  0
  5 41  1  6
  8 42  1  0
  8 43  1  0
  8 44  1  0
  9 45  1  0
  9 46  1  0
  9 47  1  0
 10 48  1  6
 11 49  1  0
 11 50  1  0
 12 51  1  0
 12 52  1  0
 14 53  1  0
 14 54  1  0
 14 55  1  0
 15 56  1  1
 16 57  1  0
 16 58  1  0
 17 59  1  0
 19 60  1  6
 20 61  1  0
 20 62  1  0
 21 63  1  0
 21 64  1  0
 22 65  1  6
 23 66  1  0
 25 67  1  0
 25 68  1  0
 25 69  1  0
 26 70  1  0
 26 71  1  0
 26 72  1  0
 28 73  1  0
 28 74  1  0
 28 75  1  0
 29 76  1  0
 29 77  1  0
 30 78  1  0
 30 79  1  0
 32 80  1  0
 32 81  1  0
 32 82  1  0
M  END
>  <meeko>  (1) 
{"is_sidechain": [false], "intermolecular_energy": 2.731, "internal_energy": -0.839}

$$$$
EPH_relaxed_0001_pdb2pqr_Repair_250_r2_0001_out
     RDKit          3D

 82 86  0  0  0  0  0  0  0  0999 V2000
   -1.5810    8.3740   -1.7600 C   0  0  0  0  0  0  0  0  0  0  0  0
   -1.8960    9.0620   -0.4290 C   0  0  2  0  0  0  0  0  0  0  0  0
   -3.3280    9.6330   -0.3930 C   0  0  0  0  0  0  0  0  0  0  0  0
   -4.4080    8.5690   -0.1800 C   0  0  0  0  0  0  0  0  0  0  0  0
   -5.0580    8.1730   -1.4710 C   0  0  2  0  0  0  0  0  0  0  0  0
   -6.3180    8.8070   -1.7270 O   0  0  0  0  0  0  0  0  0  0  0  0
   -6.3510    7.3820   -1.5490 C   0  0  0  0  0  0  0  0  0  0  0  0
   -7.0700    6.9390   -0.3130 C   0  0  0  0  0  0  0  0  0  0  0  0
   -6.6520    6.6240   -2.8040 C   0  0  0  0  0  0  0  0  0  0  0  0
   -0.8860   10.1740   -0.1670 C   0  0  1  0  0  0  0  0  0  0  0  0
    0.3040    9.7060    0.7130 C   0  0  0  0  0  0  0  0  0  0  0  0
    1.5590   10.4640    0.2090 C   0  0  0  0  0  0  0  0  0  0  0  0
    1.0000   11.5760   -0.7090 C   0  0  1  0  0  0  0  0  0  0  0  0
    0.5500   12.7110    0.2630 C   0  0  0  0  0  0  0  0  0  0  0  0
    1.9690   12.1120   -1.8130 C   0  0  2  0  0  0  0  0  0  0  0  0
    3.2470   12.7880   -1.2870 C   0  0  0  0  0  0  0  0  0  0  0  0
    3.1430   14.2600   -1.0600 C   0  0  0  0  0  0  0  0  0  0  0  0
    2.1670   15.0570   -1.5330 C   0  0  0  0  0  0  0  0  0  0  0  0
    1.0820   14.5050   -2.4670 C   0  0  1  0  0  0  0  0  0  0  0  0
    0.8930   15.4700   -3.6670 C   0  0  0  0  0  0  0  0  0  0  0  0
    0.6100   16.9030   -3.2270 C   0  0  0  0  0  0  0  0  0  0  0  0
    1.7380   17.4360   -2.3480 C   0  0  2  0  0  0  0  0  0  0  0  0
    2.9220   17.5580   -3.1410 O   0  0  0  0  0  0  0  0  0  0  0  0
    2.0270   16.5410   -1.1110 C   0  0  0  0  0  0  0  0  0  0  0  0
    0.8550   16.6510   -0.1040 C   0  0  0  0  0  0  0  0  0  0  0  0
    3.2760   17.1130   -0.3880 C   0  0  0  0  0  0  0  0  0  0  0  0
    1.2630   12.9930   -2.9220 C   0  0  1  0  0  0  0  0  0  0  0  0
    2.1690   12.9240   -4.1890 C   0  0  0  0  0  0  0  0  0  0  0  0
   -0.1380   12.4130   -3.3460 C   0  0  0  0  0  0  0  0  0  0  0  0
   -0.9980   11.7890   -2.2300 C   0  0  0  0  0  0  0  0  0  0  0  0
   -0.1800   10.7970   -1.3980 C   0  0  2  0  0  0  0  0  0  0  0  0
    0.2680    9.6320   -2.3450 C   0  0  0  0  0  0  0  0  0  0  0  0
   -1.1302    7.3895   -1.5662 H   0  0  0  0  0  0  0  0  0  0  0  0
   -2.5098    8.2452   -2.3350 H   0  0  0  0  0  0  0  0  0  0  0  0
   -0.8766    8.9930   -2.3350 H   0  0  0  0  0  0  0  0  0  0  0  0
   -1.8250    8.3000    0.3611 H   0  0  0  0  0  0  0  0  0  0  0  0
   -3.3911   10.3616    0.4287 H   0  0  0  0  0  0  0  0  0  0  0  0
   -3.5167   10.0915   -1.3749 H   0  0  0  0  0  0  0  0  0  0  0  0
   -3.9474    7.6796    0.2748 H   0  0  0  0  0  0  0  0  0  0  0  0
   -5.1815    8.9923    0.4777 H   0  0  0  0  0  0  0  0  0  0  0  0
   -4.0770    8.0328   -1.9486 H   0  0  0  0  0  0  0  0  0  0  0  0
   -6.5171    7.2797    0.5748 H   0  0  0  0  0  0  0  0  0  0  0  0
   -8.0818    7.3706   -0.3028 H   0  0  0  0  0  0  0  0  0  0  0  0
   -7.1395    5.8412   -0.3028 H   0  0  0  0  0  0  0  0  0  0  0  0
   -7.0467    5.6301   -2.5463 H   0  0  0  0  0  0  0  0  0  0  0  0
   -7.4000    7.1739   -3.3940 H   0  0  0  0  0  0  0  0  0  0  0  0
   -5.7305    6.5109   -3.3940 H   0  0  0  0  0  0  0  0  0  0  0  0
   -1.5469   10.9163    0.3043 H   0  0  0  0  0  0  0  0  0  0  0  0
    0.1131    9.9494    1.7686 H   0  0  0  0  0  0  0  0  0  0  0  0
    0.4446    8.6175    0.6402 H   0  0  0  0  0  0  0  0  0  0  0  0
    2.1146   10.8995    1.0526 H   0  0  0  0  0  0  0  0  0  0  0  0
    2.2626    9.8025   -0.3176 H   0  0  0  0  0  0  0  0  0  0  0  0
    0.6823   12.3772    1.3027 H   0  0  0  0  0  0  0  0  0  0  0  0
    1.1602   13.6089    0.0857 H   0  0  0  0  0  0  0  0  0  0  0  0
   -0.5097   12.9469    0.0857 H   0  0  0  0  0  0  0  0  0  0  0  0
    2.3022   11.1863   -2.3049 H   0  0  0  0  0  0  0  0  0  0  0  0
    3.5128   12.3146   -0.3303 H   0  0  0  0  0  0  0  0  0  0  0  0
    4.0068   12.6541   -2.0711 H   0  0  0  0  0  0  0  0  0  0  0  0
    3.9306   14.7331   -0.4551 H   0  0  0  0  0  0  0  0  0  0  0  0
    0.1583   14.4648   -1.8711 H   0  0  0  0  0  0  0  0  0  0  0  0
    1.8106   15.4622   -4.2736 H   0  0  0  0  0  0  0  0  0  0  0  0
    0.0237   15.1200   -4.2430 H   0  0  0  0  0  0  0  0  0  0  0  0
    0.5155   17.5412   -4.1179 H   0  0  0  0  0  0  0  0  0  0  0  0
   -0.3237   16.9140   -2.6455 H   0  0  0  0  0  0  0  0  0  0  0  0
    1.4182   18.4138   -1.9587 H   0  0  0  0  0  0  0  0  0  0  0  0
    2.6510   17.5670   -4.0750 H   0  0  0  0  0  0  0  0  0  0  0  0
    1.2488   16.6140    0.9224 H   0  0  0  0  0  0  0  0  0  0  0  0
    0.3259   17.6027   -0.2597 H   0  0  0  0  0  0  0  0  0  0  0  0
    0.1581   15.8143   -0.2597 H   0  0  0  0  0  0  0  0  0  0  0  0
    3.1319   17.0470    0.7005 H   0  0  0  0  0  0  0  0  0  0  0  0
    4.1646   16.5321   -0.6761 H   0  0  0  0  0  0  0  0  0  0  0  0
    3.4166   18.1652   -0.6761 H   0  0  0  0  0  0  0  0  0  0  0  0
    3.2224   12.8438   -3.8826 H   0  0  0  0  0  0  0  0  0  0  0  0
    1.8937   12.0442   -4.7892 H   0  0  0  0  0  0  0  0  0  0  0  0
    2.0301   13.8353   -4.7892 H   0  0  0  0  0  0  0  0  0  0  0  0
   -0.7172   13.2348   -3.7923 H   0  0  0  0  0  0  0  0  0  0  0  0
    0.0894   11.5837   -4.0320 H   0  0  0  0  0  0  0  0  0  0  0  0
   -1.3704   12.5887   -1.5729 H   0  0  0  0  0  0  0  0  0  0  0  0
   -1.8372   11.2498   -2.6937 H   0  0  0  0  0  0  0  0  0  0  0  0
    0.5978    8.7743   -1.7404 H   0  0  0  0  0  0  0  0  0  0  0  0
   -0.5779    9.3295   -2.9797 H   0  0  0  0  0  0  0  0  0  0  0  0
    1.0986    9.9743   -2.9797 H   0  0  0  0  0  0  0  0  0  0  0  0
  1  2  1  0
  2  3  1  0
  3  4  1  0
  4  5  1  0
  5  6  1  0
  6  7  1  0
  7  8  1  0
  7  9  1  0
  2 10  1  0
 10 11  1  0
 11 12  1  0
 12 13  1  0
 13 14  1  1
 13 15  1  0
 15 16  1  0
 16 17  1  0
 17 18  2  0
 18 19  1  0
 19 20  1  0
 20 21  1  0
 21 22  1  0
 22 23  1  0
 22 24  1  0
 24 25  1  0
 24 26  1  0
 19 27  1  0
 27 28  1  6
 27 29  1  0
 29 30  1  0
 30 31  1  0
 31 32  1  6
  7  5  1  0
 31 10  1  0
 31 13  1  0
 27 15  1  0
 24 18  1  0
  1 33  1  0
  1 34  1  0
  1 35  1  0
  2 36  1  1
  3 37  1  0
  3 38  1  0
  4 39  1  0
  4 40  1  0
  5 41  1  6
  8 42  1  0
  8 43  1  0
  8 44  1  0
  9 45  1  0
  9 46  1  0
  9 47  1  0
 10 48  1  1
 11 49  1  0
 11 50  1  0
 12 51  1  0
 12 52  1  0
 14 53  1  0
 14 54  1  0
 14 55  1  0
 15 56  1  6
 16 57  1  0
 16 58  1  0
 17 59  1  0
 19 60  1  1
 20 61  1  0
 20 62  1  0
 21 63  1  0
 21 64  1  0
 22 65  1  1
 23 66  1  0
 25 67  1  0
 25 68  1  0
 25 69  1  0
 26 70  1  0
 26 71  1  0
 26 72  1  0
 28 73  1  0
 28 74  1  0
 28 75  1  0
 29 76  1  0
 29 77  1  0
 30 78  1  0
 30 79  1  0
 32 80  1  0
 32 81  1  0
 32 82  1  0
M  END
>  <meeko>  (2) 
{"is_sidechain": [false], "intermolecular_energy": 2.731, "internal_energy": -0.839}

$$$$
EPH_relaxed_0001_pdb2pqr_Repair_250_r2_0001_out
     RDKit          3D

 82 86  0  0  0  0  0  0  0  0999 V2000
   -5.0040    8.5950   -0.5360 C   0  0  0  0  0  0  0  0  0  0  0  0
   -5.3440    7.4860   -1.5360 C   0  0  2  0  0  0  0  0  0  0  0  0
   -4.3460    7.4360   -2.7100 C   0  0  0  0  0  0  0  0  0  0  0  0
   -2.9180    7.0770   -2.2890 C   0  0  0  0  0  0  0  0  0  0  0  0
   -1.9340    8.1220   -2.7190 C   0  0  2  0  0  0  0  0  0  0  0  0
   -0.5870    7.8890   -2.2890 O   0  0  0  0  0  0  0  0  0  0  0  0
   -1.2300    9.0570   -1.7530 C   0  0  0  0  0  0  0  0  0  0  0  0
   -1.4820    8.9900   -0.2790 C   0  0  0  0  0  0  0  0  0  0  0  0
   -0.6760   10.3440   -2.2780 C   0  0  0  0  0  0  0  0  0  0  0  0
   -6.7610    7.6790   -2.0640 C   0  0  1  0  0  0  0  0  0  0  0  0
   -6.9880    6.9840   -3.4330 C   0  0  0  0  0  0  0  0  0  0  0  0
   -8.4520    6.4740   -3.4390 C   0  0  0  0  0  0  0  0  0  0  0  0
   -9.1130    7.1740   -2.2280 C   0  0  1  0  0  0  0  0  0  0  0  0
   -9.4760    8.6030   -2.7400 C   0  0  0  0  0  0  0  0  0  0  0  0
  -10.3520    6.4520   -1.6050 C   0  0  2  0  0  0  0  0  0  0  0  0
  -11.5600    6.3000   -2.5450 C   0  0  0  0  0  0  0  0  0  0  0  0
  -12.5450    7.4210   -2.5030 C   0  0  0  0  0  0  0  0  0  0  0  0
  -12.6170    8.3650   -1.5460 C   0  0  0  0  0  0  0  0  0  0  0  0
  -11.7070    8.3050   -0.3120 C   0  0  1  0  0  0  0  0  0  0  0  0
  -12.5490    8.5580    0.9650 C   0  0  0  0  0  0  0  0  0  0  0  0
  -13.3490    9.8560    0.8920 C   0  0  0  0  0  0  0  0  0  0  0  0
  -14.2840    9.8520   -0.3150 C   0  0  2  0  0  0  0  0  0  0  0  0
  -15.2870    8.8520   -0.1170 O   0  0  0  0  0  0  0  0  0  0  0  0
  -13.5480    9.5970   -1.6600 C   0  0  0  0  0  0  0  0  0  0  0  0
  -12.6820   10.8290   -2.0210 C   0  0  0  0  0  0  0  0  0  0  0  0
  -14.6210    9.4780   -2.7760 C   0  0  0  0  0  0  0  0  0  0  0  0
  -10.7870    7.0150   -0.1910 C   0  0  1  0  0  0  0  0  0  0  0  0
  -11.5670    5.8700    0.5240 C   0  0  0  0  0  0  0  0  0  0  0  0
   -9.5510    7.3500    0.7260 C   0  0  0  0  0  0  0  0  0  0  0  0
   -8.3130    7.9500    0.0320 C   0  0  0  0  0  0  0  0  0  0  0  0
   -7.9240    7.1290   -1.2010 C   0  0  2  0  0  0  0  0  0  0  0  0
   -7.5320    5.6920   -0.7150 C   0  0  0  0  0  0  0  0  0  0  0  0
   -5.1211    8.2131    0.4889 H   0  0  0  0  0  0  0  0  0  0  0  0
   -3.9647    8.9210   -0.6893 H   0  0  0  0  0  0  0  0  0  0  0  0
   -5.6820    9.4475   -0.6893 H   0  0  0  0  0  0  0  0  0  0  0  0
   -5.2735    6.5266   -1.0026 H   0  0  0  0  0  0  0  0  0  0  0  0
   -4.6954    6.6823   -3.4310 H   0  0  0  0  0  0  0  0  0  0  0  0
   -4.3090    8.4462   -3.1438 H   0  0  0  0  0  0  0  0  0  0  0  0
   -2.8823    6.9830   -1.1936 H   0  0  0  0  0  0  0  0  0  0  0  0
   -2.6454    6.1287   -2.7752 H   0  0  0  0  0  0  0  0  0  0  0  0
   -2.4991    8.3065   -3.6445 H   0  0  0  0  0  0  0  0  0  0  0  0
   -0.5568    9.2360    0.2627 H   0  0  0  0  0  0  0  0  0  0  0  0
   -2.2680    9.7104   -0.0083 H   0  0  0  0  0  0  0  0  0  0  0  0
   -1.8064    7.9744   -0.0083 H   0  0  0  0  0  0  0  0  0  0  0  0
   -0.3964   10.9936   -1.4355 H   0  0  0  0  0  0  0  0  0  0  0  0
    0.2128   10.1372   -2.8922 H   0  0  0  0  0  0  0  0  0  0  0  0
   -1.4371   10.8474   -2.8922 H   0  0  0  0  0  0  0  0  0  0  0  0
   -6.7995    8.7780   -2.0892 H   0  0  0  0  0  0  0  0  0  0  0  0
   -6.8336    7.7016   -4.2522 H   0  0  0  0  0  0  0  0  0  0  0  0
   -6.2803    6.1542   -3.5766 H   0  0  0  0  0  0  0  0  0  0  0  0
   -8.9578    6.7559   -4.3743 H   0  0  0  0  0  0  0  0  0  0  0  0
   -8.5125    5.3777   -3.3718 H   0  0  0  0  0  0  0  0  0  0  0  0
   -9.6450    9.2685   -1.8806 H   0  0  0  0  0  0  0  0  0  0  0  0
   -8.6489    8.9950   -3.3501 H   0  0  0  0  0  0  0  0  0  0  0  0
  -10.3899    8.5527   -3.3501 H   0  0  0  0  0  0  0  0  0  0  0  0
   -9.9723    5.4328   -1.4401 H   0  0  0  0  0  0  0  0  0  0  0  0
  -11.1815    6.2184   -3.5746 H   0  0  0  0  0  0  0  0  0  0  0  0
  -12.1015    5.4058   -2.2028 H   0  0  0  0  0  0  0  0  0  0  0  0
  -13.2743    7.4807   -3.3243 H   0  0  0  0  0  0  0  0  0  0  0  0
  -10.9697    9.1115   -0.4385 H   0  0  0  0  0  0  0  0  0  0  0  0
  -13.2487    7.7197    1.0976 H   0  0  0  0  0  0  0  0  0  0  0  0
  -11.8527    8.6426    1.8123 H   0  0  0  0  0  0  0  0  0  0  0  0
  -13.9459    9.9634    1.8097 H   0  0  0  0  0  0  0  0  0  0  0  0
  -12.6468   10.6966    0.7901 H   0  0  0  0  0  0  0  0  0  0  0  0
  -14.7317   10.8540   -0.3891 H   0  0  0  0  0  0  0  0  0  0  0  0
  -14.8390    8.0380    0.1700 H   0  0  0  0  0  0  0  0  0  0  0  0
  -12.3379   11.3185   -1.0980 H   0  0  0  0  0  0  0  0  0  0  0  0
  -11.8117   10.5053   -2.6107 H   0  0  0  0  0  0  0  0  0  0  0  0
  -13.2812   11.5383   -2.6107 H   0  0  0  0  0  0  0  0  0  0  0  0
  -15.6152    9.3677   -2.3185 H   0  0  0  0  0  0  0  0  0  0  0  0
  -14.6030   10.3837   -3.4001 H   0  0  0  0  0  0  0  0  0  0  0  0
  -14.4050    8.5983   -3.4001 H   0  0  0  0  0  0  0  0  0  0  0  0
  -11.4827    5.9938    1.6138 H   0  0  0  0  0  0  0  0  0  0  0  0
  -12.6266    5.9098    0.2314 H   0  0  0  0  0  0  0  0  0  0  0  0
  -11.1421    4.8985    0.2314 H   0  0  0  0  0  0  0  0  0  0  0  0
   -9.8869    8.0693    1.4874 H   0  0  0  0  0  0  0  0  0  0  0  0
   -9.2164    6.3804    1.1233 H   0  0  0  0  0  0  0  0  0  0  0  0
   -8.5388    8.9808   -0.2786 H   0  0  0  0  0  0  0  0  0  0  0  0
   -7.4725    7.9371    0.7415 H   0  0  0  0  0  0  0  0  0  0  0  0
   -7.5249    5.6661    0.3847 H   0  0  0  0  0  0  0  0  0  0  0  0
   -8.2644    4.9642   -1.0942 H   0  0  0  0  0  0  0  0  0  0  0  0
   -6.5314    5.4369   -1.0942 H   0  0  0  0  0  0  0  0  0  0  0  0
  1  2  1  0
  2  3  1  0
  3  4  1  0
  4  5  1  0
  5  6  1  0
  6  7  1  0
  7  8  1  0
  7  9  1  0
  2 10  1  0
 10 11  1  0
 11 12  1  0
 12 13  1  0
 13 14  1  6
 13 15  1  0
 15 16  1  0
 16 17  1  0
 17 18  2  0
 18 19  1  0
 19 20  1  0
 20 21  1  0
 21 22  1  0
 22 23  1  0
 22 24  1  0
 24 25  1  0
 24 26  1  0
 19 27  1  0
 27 28  1  1
 27 29  1  0
 29 30  1  0
 30 31  1  0
 31 32  1  1
  7  5  1  0
 31 10  1  0
 31 13  1  0
 27 15  1  0
 24 18  1  0
  1 33  1  0
  1 34  1  0
  1 35  1  0
  2 36  1  1
  3 37  1  0
  3 38  1  0
  4 39  1  0
  4 40  1  0
  5 41  1  6
  8 42  1  0
  8 43  1  0
  8 44  1  0
  9 45  1  0
  9 46  1  0
  9 47  1  0
 10 48  1  6
 11 49  1  0
 11 50  1  0
 12 51  1  0
 12 52  1  0
 14 53  1  0
 14 54  1  0
 14 55  1  0
 15 56  1  1
 16 57  1  0
 16 58  1  0
 17 59  1  0
 19 60  1  6
 20 61  1  0
 20 62  1  0
 21 63  1  0
 21 64  1  0
 22 65  1  6
 23 66  1  0
 25 67  1  0
 25 68  1  0
 25 69  1  0
 26 70  1  0
 26 71  1  0
 26 72  1  0
 28 73  1  0
 28 74  1  0
 28 75  1  0
 29 76  1  0
 29 77  1  0
 30 78  1  0
 30 79  1  0
 32 80  1  0
 32 81  1  0
 32 82  1  0
M  END
>  <meeko>  (3) 
{"is_sidechain": [false], "intermolecular_energy": 2.731, "internal_energy": -0.839}

$$$$
EPH_relaxed_0001_pdb2pqr_Repair_250_r2_0001_out
     RDKit          3D

 82 86  0  0  0  0  0  0  0  0999 V2000
    1.5260   18.4790   -1.2120 C   0  0  0  0  0  0  0  0  0  0  0  0
    1.9380   17.1870   -0.5010 C   0  0  2  0  0  0  0  0  0  0  0  0
    3.4690   17.0470   -0.3920 C   0  0  0  0  0  0  0  0  0  0  0  0
    4.1730   18.3230    0.0770 C   0  0  0  0  0  0  0  0  0  0  0  0
    3.8190   18.6620    1.4930 C   0  0  2  0  0  0  0  0  0  0  0  0
    4.0400   20.0320    1.8540 O   0  0  0  0  0  0  0  0  0  0  0  0
    4.8440   19.0580    2.5400 C   0  0  0  0  0  0  0  0  0  0  0  0
    6.3020   19.1350    2.2140 C   0  0  0  0  0  0  0  0  0  0  0  0
    4.4900   18.8950    3.9850 C   0  0  0  0  0  0  0  0  0  0  0  0
    1.3550   15.9830   -1.2320 C   0  0  1  0  0  0  0  0  0  0  0  0
    1.3740   16.1540   -2.7750 C   0  0  0  0  0  0  0  0  0  0  0  0
    1.6360   14.7500   -3.3770 C   0  0  0  0  0  0  0  0  0  0  0  0
    1.4290   13.7740   -2.1950 C   0  0  1  0  0  0  0  0  0  0  0  0
   -0.1170   13.5830   -2.0990 C   0  0  0  0  0  0  0  0  0  0  0  0
    2.1750   12.4030   -2.2920 C   0  0  2  0  0  0  0  0  0  0  0  0
    1.7560   11.5140   -3.4760 C   0  0  0  0  0  0  0  0  0  0  0  0
    0.6370   10.5670   -3.1970 C   0  0  0  0  0  0  0  0  0  0  0  0
    0.1830   10.2300   -1.9760 C   0  0  0  0  0  0  0  0  0  0  0  0
    0.8750   10.7470   -0.7080 C   0  0  1  0  0  0  0  0  0  0  0  0
    1.0730    9.5750    0.2880 C   0  0  0  0  0  0  0  0  0  0  0  0
   -0.2280    8.8390    0.5930 C   0  0  0  0  0  0  0  0  0  0  0  0
   -0.8560    8.2890   -0.6850 C   0  0  2  0  0  0  0  0  0  0  0  0
   -0.0070    7.2650   -1.2120 O   0  0  0  0  0  0  0  0  0  0  0  0
   -1.0940    9.3790   -1.7680 C   0  0  0  0  0  0  0  0  0  0  0  0
   -2.2380   10.3200   -1.3160 C   0  0  0  0  0  0  0  0  0  0  0  0
   -1.5980    8.6710   -3.0550 C   0  0  0  0  0  0  0  0  0  0  0  0
    2.2060   11.5850   -0.9380 C   0  0  1  0  0  0  0  0  0  0  0  0
    3.4310   10.6240   -1.0260 C   0  0  0  0  0  0  0  0  0  0  0  0
    2.4540   12.5080    0.3140 C   0  0  0  0  0  0  0  0  0  0  0  0
    1.7870   13.8970    0.2960 C   0  0  0  0  0  0  0  0  0  0  0  0
    2.0580   14.6180   -1.0280 C   0  0  2  0  0  0  0  0  0  0  0  0
    3.6040   14.8440   -1.1420 C   0  0  0  0  0  0  0  0  0  0  0  0
    1.2810   19.2472   -0.4638 H   0  0  0  0  0  0  0  0  0  0  0  0
    2.3562   18.8319   -1.8415 H   0  0  0  0  0  0  0  0  0  0  0  0
    0.6448   18.2861   -1.8415 H   0  0  0  0  0  0  0  0  0  0  0  0
    1.5373   17.2302    0.5225 H   0  0  0  0  0  0  0  0  0  0  0  0
    3.6939   16.2432    0.3245 H   0  0  0  0  0  0  0  0  0  0  0  0
    3.8439   16.8265   -1.4024 H   0  0  0  0  0  0  0  0  0  0  0  0
    5.2609   18.1765    0.0067 H   0  0  0  0  0  0  0  0  0  0  0  0
    3.8449   19.1524   -0.5668 H   0  0  0  0  0  0  0  0  0  0  0  0
    3.0131   17.9133    1.4956 H   0  0  0  0  0  0  0  0  0  0  0  0
    6.8850   19.1658    3.1463 H   0  0  0  0  0  0  0  0  0  0  0  0
    6.5939   18.2510    1.6280 H   0  0  0  0  0  0  0  0  0  0  0  0
    6.4991   20.0448    1.6280 H   0  0  0  0  0  0  0  0  0  0  0  0
    5.3128   19.2739    4.6091 H   0  0  0  0  0  0  0  0  0  0  0  0
    3.5729   19.4615    4.2040 H   0  0  0  0  0  0  0  0  0  0  0  0
    4.3242   17.8299    4.2040 H   0  0  0  0  0  0  0  0  0  0  0  0
    0.3524   15.9609   -0.7799 H   0  0  0  0  0  0  0  0  0  0  0  0
    0.4060   16.5417   -3.1251 H   0  0  0  0  0  0  0  0  0  0  0  0
    2.1519   16.8677   -3.0838 H   0  0  0  0  0  0  0  0  0  0  0  0
    0.9233   14.5356   -4.1870 H   0  0  0  0  0  0  0  0  0  0  0  0
    2.6407   14.6655   -3.8168 H   0  0  0  0  0  0  0  0  0  0  0  0
   -0.4169   13.5459   -1.0413 H   0  0  0  0  0  0  0  0  0  0  0  0
   -0.6220   14.4256   -2.5940 H   0  0  0  0  0  0  0  0  0  0  0  0
   -0.4017   12.6428   -2.5940 H   0  0  0  0  0  0  0  0  0  0  0  0
    3.2095   12.7121   -2.5023 H   0  0  0  0  0  0  0  0  0  0  0  0
    1.4470   12.1714   -4.3021 H   0  0  0  0  0  0  0  0  0  0  0  0
    2.6306   10.8904   -3.7129 H   0  0  0  0  0  0  0  0  0  0  0  0
    0.1410   10.1050   -4.0634 H   0  0  0  0  0  0  0  0  0  0  0  0
    0.1954   11.4947   -0.2732 H   0  0  0  0  0  0  0  0  0  0  0  0
    1.7885    8.8609   -0.1458 H   0  0  0  0  0  0  0  0  0  0  0  0
    1.4454    9.9991    1.2322 H   0  0  0  0  0  0  0  0  0  0  0  0
   -0.0176    8.0049    1.2786 H   0  0  0  0  0  0  0  0  0  0  0  0
   -0.9324    9.5472    1.0538 H   0  0  0  0  0  0  0  0  0  0  0  0
   -1.8454    7.8875   -0.4206 H   0  0  0  0  0  0  0  0  0  0  0  0
    0.4390    6.8370   -0.4610 H   0  0  0  0  0  0  0  0  0  0  0  0
   -2.2751   10.3505   -0.2170 H   0  0  0  0  0  0  0  0  0  0  0  0
   -2.0552   11.3326   -1.7050 H   0  0  0  0  0  0  0  0  0  0  0  0
   -3.1963    9.9453   -1.7050 H   0  0  0  0  0  0  0  0  0  0  0  0
   -2.2154    7.8036   -2.7785 H   0  0  0  0  0  0  0  0  0  0  0  0
   -2.1995    9.3748   -3.6491 H   0  0  0  0  0  0  0  0  0  0  0  0
   -0.7361    8.3331   -3.6491 H   0  0  0  0  0  0  0  0  0  0  0  0
    3.7651   10.3619   -0.0113 H   0  0  0  0  0  0  0  0  0  0  0  0
    3.1416    9.7095   -1.5644 H   0  0  0  0  0  0  0  0  0  0  0  0
    4.2504   11.1228   -1.5644 H   0  0  0  0  0  0  0  0  0  0  0  0
    2.0839   11.9726    1.2007 H   0  0  0  0  0  0  0  0  0  0  0  0
    3.5357   12.7080    0.3145 H   0  0  0  0  0  0  0  0  0  0  0  0
    0.7012   13.7765    0.4245 H   0  0  0  0  0  0  0  0  0  0  0  0
    2.2072   14.4986    1.1155 H   0  0  0  0  0  0  0  0  0  0  0  0
    4.0405   14.9078   -0.1343 H   0  0  0  0  0  0  0  0  0  0  0  0
    4.0584   14.0027   -1.6859 H   0  0  0  0  0  0  0  0  0  0  0  0
    3.7986   15.7801   -1.6859 H   0  0  0  0  0  0  0  0  0  0  0  0
  1  2  1  0
  2  3  1  0
  3  4  1  0
  4  5  1  0
  5  6  1  0
  6  7  1  0
  7  8  1  0
  7  9  1  0
  2 10  1  0
 10 11  1  0
 11 12  1  0
 12 13  1  0
 13 14  1  1
 13 15  1  0
 15 16  1  0
 16 17  1  0
 17 18  2  0
 18 19  1  0
 19 20  1  0
 20 21  1  0
 21 22  1  0
 22 23  1  0
 22 24  1  0
 24 25  1  0
 24 26  1  0
 19 27  1  0
 27 28  1  6
 27 29  1  0
 29 30  1  0
 30 31  1  0
 31 32  1  6
  7  5  1  0
 31 10  1  0
 31 13  1  0
 27 15  1  0
 24 18  1  0
  1 33  1  0
  1 34  1  0
  1 35  1  0
  2 36  1  1
  3 37  1  0
  3 38  1  0
  4 39  1  0
  4 40  1  0
  5 41  1  1
  8 42  1  0
  8 43  1  0
  8 44  1  0
  9 45  1  0
  9 46  1  0
  9 47  1  0
 10 48  1  1
 11 49  1  0
 11 50  1  0
 12 51  1  0
 12 52  1  0
 14 53  1  0
 14 54  1  0
 14 55  1  0
 15 56  1  6
 16 57  1  0
 16 58  1  0
 17 59  1  0
 19 60  1  1
 20 61  1  0
 20 62  1  0
 21 63  1  0
 21 64  1  0
 22 65  1  1
 23 66  1  0
 25 67  1  0
 25 68  1  0
 25 69  1  0
 26 70  1  0
 26 71  1  0
 26 72  1  0
 28 73  1  0
 28 74  1  0
 28 75  1  0
 29 76  1  0
 29 77  1  0
 30 78  1  0
 30 79  1  0
 32 80  1  0
 32 81  1  0
 32 82  1  0
M  END
>  <meeko>  (4) 
{"is_sidechain": [false], "intermolecular_energy": 2.731, "internal_energy": -0.839}

$$$$
EPH_relaxed_0001_pdb2pqr_Repair_250_r2_0001_out
     RDKit          3D

 82 86  0  0  0  0  0  0  0  0999 V2000
   -2.1210    7.8470   -2.2960 C   0  0  0  0  0  0  0  0  0  0  0  0
   -1.9830    8.4790   -0.9070 C   0  0  2  0  0  0  0  0  0  0  0  0
   -3.2980    8.4090   -0.1050 C   0  0  0  0  0  0  0  0  0  0  0  0
   -4.5540    8.5540   -0.9680 C   0  0  0  0  0  0  0  0  0  0  0  0
   -5.3680    7.2960   -0.9770 C   0  0  2  0  0  0  0  0  0  0  0  0
   -5.4810    6.6650   -2.2600 O   0  0  0  0  0  0  0  0  0  0  0  0
   -6.7010    7.1670   -1.6910 C   0  0  0  0  0  0  0  0  0  0  0  0
   -7.2970    8.3150   -2.4440 C   0  0  0  0  0  0  0  0  0  0  0  0
   -7.6470    6.0940   -1.2510 C   0  0  0  0  0  0  0  0  0  0  0  0
   -1.5280    9.9270   -1.0380 C   0  0  1  0  0  0  0  0  0  0  0  0
   -1.1490   10.5600    0.3270 C   0  0  0  0  0  0  0  0  0  0  0  0
    0.0290   11.5310    0.0590 C   0  0  0  0  0  0  0  0  0  0  0  0
    0.0710   11.6770   -1.4810 C   0  0  1  0  0  0  0  0  0  0  0  0
   -1.0350   12.7270   -1.8140 C   0  0  0  0  0  0  0  0  0  0  0  0
    1.4500   12.0760   -2.1000 C   0  0  2  0  0  0  0  0  0  0  0  0
    1.9880   13.4510   -1.6650 C   0  0  0  0  0  0  0  0  0  0  0  0
    1.5840   14.5960   -2.5330 C   0  0  0  0  0  0  0  0  0  0  0  0
    1.0620   14.4950   -3.7700 C   0  0  0  0  0  0  0  0  0  0  0  0
    0.9200   13.1300   -4.4550 C   0  0  1  0  0  0  0  0  0  0  0  0
    1.4390   13.2270   -5.9140 C   0  0  0  0  0  0  0  0  0  0  0  0
    0.7680   14.3480   -6.7010 C   0  0  0  0  0  0  0  0  0  0  0  0
    0.9810   15.6970   -6.0190 C   0  0  2  0  0  0  0  0  0  0  0  0
    2.3710   16.0300   -6.0800 O   0  0  0  0  0  0  0  0  0  0  0  0
    0.5030   15.7170   -4.5400 C   0  0  0  0  0  0  0  0  0  0  0  0
   -1.0440   15.6570   -4.4910 C   0  0  0  0  0  0  0  0  0  0  0  0
    0.9040   17.0870   -3.9280 C   0  0  0  0  0  0  0  0  0  0  0  0
    1.5330   11.8920   -3.6690 C   0  0  1  0  0  0  0  0  0  0  0  0
    3.0440   11.7360   -4.0200 C   0  0  0  0  0  0  0  0  0  0  0  0
    0.8250   10.5730   -4.1560 C   0  0  0  0  0  0  0  0  0  0  0  0
   -0.4690   10.1690   -3.4250 C   0  0  0  0  0  0  0  0  0  0  0  0
   -0.2750   10.2040   -1.9060 C   0  0  2  0  0  0  0  0  0  0  0  0
    0.8170    9.1420   -1.5380 C   0  0  0  0  0  0  0  0  0  0  0  0
   -2.3546    6.7773   -2.1905 H   0  0  0  0  0  0  0  0  0  0  0  0
   -2.9312    8.3466   -2.8473 H   0  0  0  0  0  0  0  0  0  0  0  0
   -1.1763    7.9634   -2.8473 H   0  0  0  0  0  0  0  0  0  0  0  0
   -1.2279    7.9016   -0.3534 H   0  0  0  0  0  0  0  0  0  0  0  0
   -3.3400    7.4373    0.4088 H   0  0  0  0  0  0  0  0  0  0  0  0
   -3.2914    9.2555    0.5975 H   0  0  0  0  0  0  0  0  0  0  0  0
   -5.1689    9.3737   -0.5679 H   0  0  0  0  0  0  0  0  0  0  0  0
   -4.2384    8.7658   -2.0002 H   0  0  0  0  0  0  0  0  0  0  0  0
   -5.0551    7.0582    0.0504 H   0  0  0  0  0  0  0  0  0  0  0  0
   -7.6834    9.0593   -1.7322 H   0  0  0  0  0  0  0  0  0  0  0  0
   -6.5257    8.7785   -3.0766 H   0  0  0  0  0  0  0  0  0  0  0  0
   -8.1199    7.9509   -3.0766 H   0  0  0  0  0  0  0  0  0  0  0  0
   -7.6771    6.0598   -0.1519 H   0  0  0  0  0  0  0  0  0  0  0  0
   -8.6533    6.3107   -1.6388 H   0  0  0  0  0  0  0  0  0  0  0  0
   -7.3059    5.1228   -1.6388 H   0  0  0  0  0  0  0  0  0  0  0  0
   -2.4198   10.3570   -1.5173 H   0  0  0  0  0  0  0  0  0  0  0  0
   -2.0070   11.1105    0.7403 H   0  0  0  0  0  0  0  0  0  0  0  0
   -0.8647    9.7863    1.0554 H   0  0  0  0  0  0  0  0  0  0  0  0
   -0.1540   12.5048    0.5367 H   0  0  0  0  0  0  0  0  0  0  0  0
    0.9791   11.1578    0.4690 H   0  0  0  0  0  0  0  0  0  0  0  0
   -1.4552   13.1260   -0.8790 H   0  0  0  0  0  0  0  0  0  0  0  0
   -0.5962   13.5488   -2.3988 H   0  0  0  0  0  0  0  0  0  0  0  0
   -1.8330   12.2461   -2.3988 H   0  0  0  0  0  0  0  0  0  0  0  0
    2.1313   11.3356   -1.6554 H   0  0  0  0  0  0  0  0  0  0  0  0
    1.6246   13.6517   -0.6463 H   0  0  0  0  0  0  0  0  0  0  0  0
    3.0838   13.3861   -1.7364 H   0  0  0  0  0  0  0  0  0  0  0  0
    1.7247   15.6088   -2.1275 H   0  0  0  0  0  0  0  0  0  0  0  0
   -0.1557   12.9003   -4.4561 H   0  0  0  0  0  0  0  0  0  0  0  0
    2.5230   13.4125   -5.8909 H   0  0  0  0  0  0  0  0  0  0  0  0
    1.2009   12.2779   -6.4165 H   0  0  0  0  0  0  0  0  0  0  0  0
    1.1977   14.3845   -7.7130 H   0  0  0  0  0  0  0  0  0  0  0  0
   -0.3121   14.1455   -6.7487 H   0  0  0  0  0  0  0  0  0  0  0  0
    0.3713   16.4386   -6.5560 H   0  0  0  0  0  0  0  0  0  0  0  0
    2.8710   15.1980   -6.1280 H   0  0  0  0  0  0  0  0  0  0  0  0
   -1.3774   15.6441   -3.4428 H   0  0  0  0  0  0  0  0  0  0  0  0
   -1.4614   16.5396   -4.9977 H   0  0  0  0  0  0  0  0  0  0  0  0
   -1.3918   14.7447   -4.9977 H   0  0  0  0  0  0  0  0  0  0  0  0
    0.8839   17.0182   -2.8303 H   0  0  0  0  0  0  0  0  0  0  0  0
    1.9180   17.3542   -4.2601 H   0  0  0  0  0  0  0  0  0  0  0  0
    0.1941   17.8588   -4.2601 H   0  0  0  0  0  0  0  0  0  0  0  0
    3.6316   11.6753   -3.0921 H   0  0  0  0  0  0  0  0  0  0  0  0
    3.1910   10.8179   -4.6078 H   0  0  0  0  0  0  0  0  0  0  0  0
    3.3755   12.6047   -4.6078 H   0  0  0  0  0  0  0  0  0  0  0  0
    0.5798   10.7005   -5.2207 H   0  0  0  0  0  0  0  0  0  0  0  0
    1.5409    9.7659   -3.9413 H   0  0  0  0  0  0  0  0  0  0  0  0
   -1.2717   10.8685   -3.7014 H   0  0  0  0  0  0  0  0  0  0  0  0
   -0.7331    9.1430   -3.7211 H   0  0  0  0  0  0  0  0  0  0  0  0
    0.8979    9.0633   -0.4438 H   0  0  0  0  0  0  0  0  0  0  0  0
    0.5336    8.1647   -1.9559 H   0  0  0  0  0  0  0  0  0  0  0  0
    1.7860    9.4525   -1.9559 H   0  0  0  0  0  0  0  0  0  0  0  0
  1  2  1  0
  2  3  1  0
  3  4  1  0
  4  5  1  0
  5  6  1  0
  6  7  1  0
  7  8  1  0
  7  9  1  0
  2 10  1  0
 10 11  1  0
 11 12  1  0
 12 13  1  0
 13 14  1  6
 13 15  1  0
 15 16  1  0
 16 17  1  0
 17 18  2  0
 18 19  1  0
 19 20  1  0
 20 21  1  0
 21 22  1  0
 22 23  1  0
 22 24  1  0
 24 25  1  0
 24 26  1  0
 19 27  1  0
 27 28  1  6
 27 29  1  0
 29 30  1  0
 30 31  1  0
 31 32  1  6
  7  5  1  0
 31 10  1  0
 31 13  1  0
 27 15  1  0
 24 18  1  0
  1 33  1  0
  1 34  1  0
  1 35  1  0
  2 36  1  1
  3 37  1  0
  3 38  1  0
  4 39  1  0
  4 40  1  0
  5 41  1  1
  8 42  1  0
  8 43  1  0
  8 44  1  0
  9 45  1  0
  9 46  1  0
  9 47  1  0
 10 48  1  6
 11 49  1  0
 11 50  1  0
 12 51  1  0
 12 52  1  0
 14 53  1  0
 14 54  1  0
 14 55  1  0
 15 56  1  1
 16 57  1  0
 16 58  1  0
 17 59  1  0
 19 60  1  6
 20 61  1  0
 20 62  1  0
 21 63  1  0
 21 64  1  0
 22 65  1  6
 23 66  1  0
 25 67  1  0
 25 68  1  0
 25 69  1  0
 26 70  1  0
 26 71  1  0
 26 72  1  0
 28 73  1  0
 28 74  1  0
 28 75  1  0
 29 76  1  0
 29 77  1  0
 30 78  1  0
 30 79  1  0
 32 80  1  0
 32 81  1  0
 32 82  1  0
M  END
>  <meeko>  (5) 
{"is_sidechain": [false], "intermolecular_energy": 2.731, "internal_energy": -0.839}

$$$$
EPH_relaxed_0001_pdb2pqr_Repair_250_r2_0001_out
     RDKit          3D

 82 86  0  0  0  0  0  0  0  0999 V2000
    2.5810   17.0450   -1.4250 C   0  0  0  0  0  0  0  0  0  0  0  0
    1.5830   17.1730   -2.5790 C   0  0  2  0  0  0  0  0  0  0  0  0
    0.4720   18.1990   -2.2760 C   0  0  0  0  0  0  0  0  0  0  0  0
    0.9990   19.5480   -1.7800 C   0  0  0  0  0  0  0  0  0  0  0  0
    1.4110   19.4880   -0.3410 C   0  0  2  0  0  0  0  0  0  0  0  0
    0.7780   18.4510    0.4200 O   0  0  0  0  0  0  0  0  0  0  0  0
    0.4730   19.7990    0.8110 C   0  0  0  0  0  0  0  0  0  0  0  0
   -0.9510   20.1940    0.5740 C   0  0  0  0  0  0  0  0  0  0  0  0
    1.0650   20.1930    2.1290 C   0  0  0  0  0  0  0  0  0  0  0  0
    0.9670   15.8140   -2.8870 C   0  0  1  0  0  0  0  0  0  0  0  0
    0.8840   15.5260   -4.4100 C   0  0  0  0  0  0  0  0  0  0  0  0
    1.1220   14.0050   -4.5920 C   0  0  0  0  0  0  0  0  0  0  0  0
    1.0020   13.4190   -3.1660 C   0  0  1  0  0  0  0  0  0  0  0  0
   -0.5320   13.2770   -2.9170 C   0  0  0  0  0  0  0  0  0  0  0  0
    1.7560   12.0730   -2.9070 C   0  0  2  0  0  0  0  0  0  0  0  0
    1.2710   10.8810   -3.7500 C   0  0  0  0  0  0  0  0  0  0  0  0
    0.1820   10.0650   -3.1340 C   0  0  0  0  0  0  0  0  0  0  0  0
   -0.1870   10.1040   -1.8410 C   0  0  0  0  0  0  0  0  0  0  0  0
    0.5800   10.9630   -0.8270 C   0  0  1  0  0  0  0  0  0  0  0  0
    0.8560   10.1310    0.4530 C   0  0  0  0  0  0  0  0  0  0  0  0
   -0.4150    9.5270    1.0430 C   0  0  0  0  0  0  0  0  0  0  0  0
   -1.1190    8.6340    0.0250 C   0  0  2  0  0  0  0  0  0  0  0  0
   -0.2950    7.4930   -0.2340 O   0  0  0  0  0  0  0  0  0  0  0  0
   -1.4390    9.3610   -1.3110 C   0  0  0  0  0  0  0  0  0  0  0  0
   -2.5610   10.4040   -1.0790 C   0  0  0  0  0  0  0  0  0  0  0  0
   -2.0170    8.3130   -2.2990 C   0  0  0  0  0  0  0  0  0  0  0  0
    1.8840   11.6860   -1.3780 C   0  0  1  0  0  0  0  0  0  0  0  0
    3.1110   10.7310   -1.2620 C   0  0  0  0  0  0  0  0  0  0  0  0
    2.2030   12.9320   -0.4700 C   0  0  0  0  0  0  0  0  0  0  0  0
    1.5210   14.2600   -0.8480 C   0  0  0  0  0  0  0  0  0  0  0  0
    1.6970   14.5620   -2.3390 C   0  0  2  0  0  0  0  0  0  0  0  0
    3.2300   14.7310   -2.6150 C   0  0  0  0  0  0  0  0  0  0  0  0
    2.0447   17.1138   -0.4671 H   0  0  0  0  0  0  0  0  0  0  0  0
    3.0934   16.0738   -1.4894 H   0  0  0  0  0  0  0  0  0  0  0  0
    3.3219   17.8555   -1.4894 H   0  0  0  0  0  0  0  0  0  0  0  0
    2.1376   17.5371   -3.4564 H   0  0  0  0  0  0  0  0  0  0  0  0
   -0.1046   18.3688   -3.1973 H   0  0  0  0  0  0  0  0  0  0  0  0
   -0.1434   17.7773   -1.4676 H   0  0  0  0  0  0  0  0  0  0  0  0
    1.8693   19.8359   -2.3880 H   0  0  0  0  0  0  0  0  0  0  0  0
    0.1898   20.2872   -1.8740 H   0  0  0  0  0  0  0  0  0  0  0  0
    2.4196   19.8496   -0.5898 H   0  0  0  0  0  0  0  0  0  0  0  0
   -1.4581   20.3347    1.5399 H   0  0  0  0  0  0  0  0  0  0  0  0
   -0.9807   21.1343    0.0039 H   0  0  0  0  0  0  0  0  0  0  0  0
   -1.4608   19.4034    0.0039 H   0  0  0  0  0  0  0  0  0  0  0  0
    0.4501   19.7838    2.9441 H   0  0  0  0  0  0  0  0  0  0  0  0
    2.0875   19.7946    2.2055 H   0  0  0  0  0  0  0  0  0  0  0  0
    1.0922   21.2900    2.2055 H   0  0  0  0  0  0  0  0  0  0  0  0
   -0.0041   15.9340   -2.3845 H   0  0  0  0  0  0  0  0  0  0  0  0
   -0.1090   15.8025   -4.7941 H   0  0  0  0  0  0  0  0  0  0  0  0
    1.6326   16.1116   -4.9637 H   0  0  0  0  0  0  0  0  0  0  0  0
    0.3611   13.5695   -5.2563 H   0  0  0  0  0  0  0  0  0  0  0  0
    2.0970   13.7871   -5.0523 H   0  0  0  0  0  0  0  0  0  0  0  0
   -0.7277   13.2589   -1.8347 H   0  0  0  0  0  0  0  0  0  0  0  0
   -1.0576   14.1303   -3.3704 H   0  0  0  0  0  0  0  0  0  0  0  0
   -0.8920   12.3417   -3.3704 H   0  0  0  0  0  0  0  0  0  0  0  0
    2.7713   12.2983   -3.2652 H   0  0  0  0  0  0  0  0  0  0  0  0
    0.9018   11.2714   -4.7098 H   0  0  0  0  0  0  0  0  0  0  0  0
    2.1353   10.2082   -3.8512 H   0  0  0  0  0  0  0  0  0  0  0  0
   -0.3641    9.3741   -3.7931 H   0  0  0  0  0  0  0  0  0  0  0  0
   -0.0786   11.8104   -0.5859 H   0  0  0  0  0  0  0  0  0  0  0  0
    1.5499    9.3156    0.2008 H   0  0  0  0  0  0  0  0  0  0  0  0
    1.2846   10.8087    1.2060 H   0  0  0  0  0  0  0  0  0  0  0  0
   -0.1517    8.9271    1.9267 H   0  0  0  0  0  0  0  0  0  0  0  0
   -1.0954   10.3451    1.3218 H   0  0  0  0  0  0  0  0  0  0  0  0
   -2.0851    8.3370    0.4592 H   0  0  0  0  0  0  0  0  0  0  0  0
    0.3180    7.7290   -0.9510 H   0  0  0  0  0  0  0  0  0  0  0  0
   -2.7128   10.5451    0.0013 H   0  0  0  0  0  0  0  0  0  0  0  0
   -2.2719   11.3615   -1.5368 H   0  0  0  0  0  0  0  0  0  0  0  0
   -3.4949   10.0459   -1.5368 H   0  0  0  0  0  0  0  0  0  0  0  0
   -2.4724    7.4873   -1.7326 H   0  0  0  0  0  0  0  0  0  0  0  0
   -2.7806    8.7882   -2.9323 H   0  0  0  0  0  0  0  0  0  0  0  0
   -1.2077    7.9207   -2.9323 H   0  0  0  0  0  0  0  0  0  0  0  0
    3.3387   10.5538   -0.2005 H   0  0  0  0  0  0  0  0  0  0  0  0
    2.8783    9.7740   -1.7518 H   0  0  0  0  0  0  0  0  0  0  0  0
    3.9816   11.1915   -1.7518 H   0  0  0  0  0  0  0  0  0  0  0  0
    1.8983   12.6820    0.5570 H   0  0  0  0  0  0  0  0  0  0  0  0
    3.2799   13.1145   -0.6001 H   0  0  0  0  0  0  0  0  0  0  0  0
    0.4473   14.1909   -0.6192 H   0  0  0  0  0  0  0  0  0  0  0  0
    1.9869   15.0707   -0.2687 H   0  0  0  0  0  0  0  0  0  0  0  0
    3.7703   14.7906   -1.6587 H   0  0  0  0  0  0  0  0  0  0  0  0
    3.5964   13.8678   -3.1900 H   0  0  0  0  0  0  0  0  0  0  0  0
    3.3995   15.6533   -3.1900 H   0  0  0  0  0  0  0  0  0  0  0  0
  1  2  1  0
  2  3  1  0
  3  4  1  0
  4  5  1  0
  5  6  1  0
  6  7  1  0
  7  8  1  0
  7  9  1  0
  2 10  1  0
 10 11  1  0
 11 12  1  0
 12 13  1  0
 13 14  1  1
 13 15  1  0
 15 16  1  0
 16 17  1  0
 17 18  2  0
 18 19  1  0
 19 20  1  0
 20 21  1  0
 21 22  1  0
 22 23  1  0
 22 24  1  0
 24 25  1  0
 24 26  1  0
 19 27  1  0
 27 28  1  6
 27 29  1  0
 29 30  1  0
 30 31  1  0
 31 32  1  6
  7  5  1  0
 31 10  1  0
 31 13  1  0
 27 15  1  0
 24 18  1  0
  1 33  1  0
  1 34  1  0
  1 35  1  0
  2 36  1  6
  3 37  1  0
  3 38  1  0
  4 39  1  0
  4 40  1  0
  5 41  1  6
  8 42  1  0
  8 43  1  0
  8 44  1  0
  9 45  1  0
  9 46  1  0
  9 47  1  0
 10 48  1  1
 11 49  1  0
 11 50  1  0
 12 51  1  0
 12 52  1  0
 14 53  1  0
 14 54  1  0
 14 55  1  0
 15 56  1  6
 16 57  1  0
 16 58  1  0
 17 59  1  0
 19 60  1  1
 20 61  1  0
 20 62  1  0
 21 63  1  0
 21 64  1  0
 22 65  1  1
 23 66  1  0
 25 67  1  0
 25 68  1  0
 25 69  1  0
 26 70  1  0
 26 71  1  0
 26 72  1  0
 28 73  1  0
 28 74  1  0
 28 75  1  0
 29 76  1  0
 29 77  1  0
 30 78  1  0
 30 79  1  0
 32 80  1  0
 32 81  1  0
 32 82  1  0
M  END
>  <meeko>  (6) 
{"is_sidechain": [false], "intermolecular_energy": 2.731, "internal_energy": -0.839}

$$$$
EPH_relaxed_0001_pdb2pqr_Repair_250_r2_0001_out
     RDKit          3D

 82 86  0  0  0  0  0  0  0  0999 V2000
   -4.1200    7.0460   -3.0630 C   0  0  0  0  0  0  0  0  0  0  0  0
   -4.1380    7.3700   -1.5670 C   0  0  2  0  0  0  0  0  0  0  0  0
   -5.5730    7.4490   -1.0080 C   0  0  0  0  0  0  0  0  0  0  0  0
   -6.6210    7.8370   -2.0550 C   0  0  0  0  0  0  0  0  0  0  0  0
   -8.0080    7.8130   -1.4860 C   0  0  2  0  0  0  0  0  0  0  0  0
   -8.4170    6.5430   -0.9610 O   0  0  0  0  0  0  0  0  0  0  0  0
   -9.1500    7.0240   -2.1000 C   0  0  0  0  0  0  0  0  0  0  0  0
   -8.9560    6.2060   -3.3380 C   0  0  0  0  0  0  0  0  0  0  0  0
  -10.5540    7.4360   -1.7840 C   0  0  0  0  0  0  0  0  0  0  0  0
   -3.4060    8.6810   -1.3100 C   0  0  1  0  0  0  0  0  0  0  0  0
   -3.9100    9.4080   -0.0340 C   0  0  0  0  0  0  0  0  0  0  0  0
   -2.6790   10.1040    0.6010 C   0  0  0  0  0  0  0  0  0  0  0  0
   -1.5860   10.0370   -0.4920 C   0  0  1  0  0  0  0  0  0  0  0  0
   -1.9130   11.2180   -1.4590 C   0  0  0  0  0  0  0  0  0  0  0  0
   -0.1060   10.0920    0.0070 C   0  0  2  0  0  0  0  0  0  0  0  0
    0.2910   11.3900    0.7320 C   0  0  0  0  0  0  0  0  0  0  0  0
    0.8410   12.4670   -0.1440 C   0  0  0  0  0  0  0  0  0  0  0  0
    1.2760   12.3010   -1.4070 C   0  0  0  0  0  0  0  0  0  0  0  0
    1.3310   10.9070   -2.0450 C   0  0  1  0  0  0  0  0  0  0  0  0
    2.6970   10.7150   -2.7550 C   0  0  0  0  0  0  0  0  0  0  0  0
    2.9980   11.8270   -3.7550 C   0  0  0  0  0  0  0  0  0  0  0  0
    2.9930   13.1920   -3.0710 C   0  0  2  0  0  0  0  0  0  0  0  0
    4.0930   13.2550   -2.1590 O   0  0  0  0  0  0  0  0  0  0  0  0
    1.6690   13.4930   -2.3150 C   0  0  0  0  0  0  0  0  0  0  0  0
    0.5270   13.7230   -3.3360 C   0  0  0  0  0  0  0  0  0  0  0  0
    1.8480   14.8340   -1.5540 C   0  0  0  0  0  0  0  0  0  0  0  0
    0.9630    9.6920   -1.0890 C   0  0  1  0  0  0  0  0  0  0  0  0
    2.2340    9.2170   -0.3200 C   0  0  0  0  0  0  0  0  0  0  0  0
    0.4930    8.4710   -1.9660 C   0  0  0  0  0  0  0  0  0  0  0  0
   -1.0030    8.4100   -2.3260 C   0  0  0  0  0  0  0  0  0  0  0  0
   -1.8750    8.6080   -1.0820 C   0  0  2  0  0  0  0  0  0  0  0  0
   -1.5840    7.4220   -0.1000 C   0  0  0  0  0  0  0  0  0  0  0  0
   -4.0595    5.9564   -3.2015 H   0  0  0  0  0  0  0  0  0  0  0  0
   -5.0406    7.4246   -3.5313 H   0  0  0  0  0  0  0  0  0  0  0  0
   -3.2470    7.5242   -3.5313 H   0  0  0  0  0  0  0  0  0  0  0  0
   -3.6244    6.5496   -1.0443 H   0  0  0  0  0  0  0  0  0  0  0  0
   -5.8404    6.4642   -0.5973 H   0  0  0  0  0  0  0  0  0  0  0  0
   -5.5765    8.2383   -0.2418 H   0  0  0  0  0  0  0  0  0  0  0  0
   -6.4025    8.8517   -2.4192 H   0  0  0  0  0  0  0  0  0  0  0  0
   -6.5739    7.1054   -2.8751 H   0  0  0  0  0  0  0  0  0  0  0  0
   -7.9229    8.8632   -1.1702 H   0  0  0  0  0  0  0  0  0  0  0  0
   -8.7105    5.1708   -3.0587 H   0  0  0  0  0  0  0  0  0  0  0  0
   -9.8814    6.2157   -3.9326 H   0  0  0  0  0  0  0  0  0  0  0  0
   -8.1336    6.6302   -3.9326 H   0  0  0  0  0  0  0  0  0  0  0  0
  -10.6878    7.4753   -0.6929 H   0  0  0  0  0  0  0  0  0  0  0  0
  -10.7500    8.4295   -2.2135 H   0  0  0  0  0  0  0  0  0  0  0  0
  -11.2558    6.7059   -2.2135 H   0  0  0  0  0  0  0  0  0  0  0  0
   -3.6220    9.2002   -2.2554 H   0  0  0  0  0  0  0  0  0  0  0  0
   -4.6721   10.1553   -0.3001 H   0  0  0  0  0  0  0  0  0  0  0  0
   -4.3683    8.6977    0.6698 H   0  0  0  0  0  0  0  0  0  0  0  0
   -2.9114   11.1489    0.8543 H   0  0  0  0  0  0  0  0  0  0  0  0
   -2.3631    9.6204    1.5371 H   0  0  0  0  0  0  0  0  0  0  0  0
   -2.1612   12.1146   -0.8720 H   0  0  0  0  0  0  0  0  0  0  0  0
   -1.0385   11.4255   -2.0932 H   0  0  0  0  0  0  0  0  0  0  0  0
   -2.7697   10.9462   -2.0932 H   0  0  0  0  0  0  0  0  0  0  0  0
   -0.0869    9.3039    0.7742 H   0  0  0  0  0  0  0  0  0  0  0  0
   -0.6034   11.7852    1.2358 H   0  0  0  0  0  0  0  0  0  0  0  0
    1.1015   11.1167    1.4237 H   0  0  0  0  0  0  0  0  0  0  0  0
    0.8952   13.4813    0.2783 H   0  0  0  0  0  0  0  0  0  0  0  0
    0.5189   10.8800   -2.7865 H   0  0  0  0  0  0  0  0  0  0  0  0
    3.4911   10.7008   -1.9939 H   0  0  0  0  0  0  0  0  0  0  0  0
    2.6533    9.7676   -3.3123 H   0  0  0  0  0  0  0  0  0  0  0  0
    3.9880   11.6516   -4.2013 H   0  0  0  0  0  0  0  0  0  0  0  0
    2.2193   11.8208   -4.5319 H   0  0  0  0  0  0  0  0  0  0  0  0
    3.0856   13.9554   -3.8575 H   0  0  0  0  0  0  0  0  0  0  0  0
    3.7690   13.6550   -1.3340 H   0  0  0  0  0  0  0  0  0  0  0  0
   -0.4134   13.9124   -2.7977 H   0  0  0  0  0  0  0  0  0  0  0  0
    0.7691   14.5904   -3.9676 H   0  0  0  0  0  0  0  0  0  0  0  0
    0.4144   12.8295   -3.9676 H   0  0  0  0  0  0  0  0  0  0  0  0
    1.8230   14.6468   -0.4703 H   0  0  0  0  0  0  0  0  0  0  0  0
    2.8142   15.2839   -1.8262 H   0  0  0  0  0  0  0  0  0  0  0  0
    1.0337   15.5216   -1.8262 H   0  0  0  0  0  0  0  0  0  0  0  0
    2.0538    9.2843    0.7630 H   0  0  0  0  0  0  0  0  0  0  0  0
    2.4579    8.1745   -0.5903 H   0  0  0  0  0  0  0  0  0  0  0  0
    3.0867    9.8571   -0.5903 H   0  0  0  0  0  0  0  0  0  0  0  0
    1.0610    8.4993   -2.9076 H   0  0  0  0  0  0  0  0  0  0  0  0
    0.6759    7.5824   -1.3440 H   0  0  0  0  0  0  0  0  0  0  0  0
   -1.2304    9.2021   -3.0546 H   0  0  0  0  0  0  0  0  0  0  0  0
   -1.2209    7.4200   -2.7530 H   0  0  0  0  0  0  0  0  0  0  0  0
   -1.6708    7.7757    0.9380 H   0  0  0  0  0  0  0  0  0  0  0  0
   -2.3107    6.6149   -0.2743 H   0  0  0  0  0  0  0  0  0  0  0  0
   -0.5662    7.0429   -0.2743 H   0  0  0  0  0  0  0  0  0  0  0  0
  1  2  1  0
  2  3  1  0
  3  4  1  0
  4  5  1  0
  5  6  1  0
  6  7  1  0
  7  8  1  0
  7  9  1  0
  2 10  1  0
 10 11  1  0
 11 12  1  0
 12 13  1  0
 13 14  1  6
 13 15  1  0
 15 16  1  0
 16 17  1  0
 17 18  2  0
 18 19  1  0
 19 20  1  0
 20 21  1  0
 21 22  1  0
 22 23  1  0
 22 24  1  0
 24 25  1  0
 24 26  1  0
 19 27  1  0
 27 28  1  1
 27 29  1  0
 29 30  1  0
 30 31  1  0
 31 32  1  1
  7  5  1  0
 31 10  1  0
 31 13  1  0
 27 15  1  0
 24 18  1  0
  1 33  1  0
  1 34  1  0
  1 35  1  0
  2 36  1  1
  3 37  1  0
  3 38  1  0
  4 39  1  0
  4 40  1  0
  5 41  1  1
  8 42  1  0
  8 43  1  0
  8 44  1  0
  9 45  1  0
  9 46  1  0
  9 47  1  0
 10 48  1  6
 11 49  1  0
 11 50  1  0
 12 51  1  0
 12 52  1  0
 14 53  1  0
 14 54  1  0
 14 55  1  0
 15 56  1  1
 16 57  1  0
 16 58  1  0
 17 59  1  0
 19 60  1  6
 20 61  1  0
 20 62  1  0
 21 63  1  0
 21 64  1  0
 22 65  1  6
 23 66  1  0
 25 67  1  0
 25 68  1  0
 25 69  1  0
 26 70  1  0
 26 71  1  0
 26 72  1  0
 28 73  1  0
 28 74  1  0
 28 75  1  0
 29 76  1  0
 29 77  1  0
 30 78  1  0
 30 79  1  0
 32 80  1  0
 32 81  1  0
 32 82  1  0
M  END
>  <meeko>  (7) 
{"is_sidechain": [false], "intermolecular_energy": 2.731, "internal_energy": -0.839}

$$$$
EPH_relaxed_0001_pdb2pqr_Repair_250_r2_0001_out
     RDKit          3D

 82 86  0  0  0  0  0  0  0  0999 V2000
   -0.5810   16.4280   -5.7460 C   0  0  0  0  0  0  0  0  0  0  0  0
    0.3810   15.6520   -6.6510 C   0  0  2  0  0  0  0  0  0  0  0  0
   -0.1570   15.5180   -8.0900 C   0  0  0  0  0  0  0  0  0  0  0  0
    0.4640   16.5140   -9.0730 C   0  0  0  0  0  0  0  0  0  0  0  0
    1.8650   16.1310   -9.4400 C   0  0  2  0  0  0  0  0  0  0  0  0
    2.3380   16.6950  -10.6700 O   0  0  0  0  0  0  0  0  0  0  0  0
    2.2100   15.2640  -10.6370 C   0  0  0  0  0  0  0  0  0  0  0  0
    1.1470   14.7270  -11.5430 C   0  0  0  0  0  0  0  0  0  0  0  0
    3.5210   14.5420  -10.6430 C   0  0  0  0  0  0  0  0  0  0  0  0
    0.6470   14.2710   -6.0630 C   0  0  1  0  0  0  0  0  0  0  0  0
    1.8150   13.5350   -6.7730 C   0  0  0  0  0  0  0  0  0  0  0  0
    2.5470   12.7060   -5.6860 C   0  0  0  0  0  0  0  0  0  0  0  0
    1.5900   12.7260   -4.4700 C   0  0  1  0  0  0  0  0  0  0  0  0
    0.5290   11.6230   -4.7770 C   0  0  0  0  0  0  0  0  0  0  0  0
    2.2510   12.5190   -3.0680 C   0  0  2  0  0  0  0  0  0  0  0  0
    2.9430   11.1590   -2.8680 C   0  0  0  0  0  0  0  0  0  0  0  0
    2.0780   10.0790   -2.3080 C   0  0  0  0  0  0  0  0  0  0  0  0
    0.8830   10.2620   -1.7150 C   0  0  0  0  0  0  0  0  0  0  0  0
    0.3330   11.6730   -1.4720 C   0  0  1  0  0  0  0  0  0  0  0  0
   -0.2050   11.7760   -0.0210 C   0  0  0  0  0  0  0  0  0  0  0  0
   -1.2240   10.6890    0.3040 C   0  0  0  0  0  0  0  0  0  0  0  0
   -0.6220    9.3000    0.1060 C   0  0  2  0  0  0  0  0  0  0  0  0
    0.4050    9.1000    1.0830 O   0  0  0  0  0  0  0  0  0  0  0  0
   -0.0380    9.0830   -1.3180 C   0  0  0  0  0  0  0  0  0  0  0  0
   -1.1930    9.0000   -2.3470 C   0  0  0  0  0  0  0  0  0  0  0  0
    0.6630    7.6980   -1.3400 C   0  0  0  0  0  0  0  0  0  0  0  0
    1.3060   12.8720   -1.8490 C   0  0  1  0  0  0  0  0  0  0  0  0
    2.2400   13.1980   -0.6430 C   0  0  0  0  0  0  0  0  0  0  0  0
    0.4500   14.1670   -2.1100 C   0  0  0  0  0  0  0  0  0  0  0  0
   -0.0730   14.3760   -3.5440 C   0  0  0  0  0  0  0  0  0  0  0  0
    1.0510   14.1990   -4.5690 C   0  0  2  0  0  0  0  0  0  0  0  0
    2.1230   15.3100   -4.3000 C   0  0  0  0  0  0  0  0  0  0  0  0
   -0.3344   16.2291   -4.6926 H   0  0  0  0  0  0  0  0  0  0  0  0
   -0.4858   17.5051   -5.9478 H   0  0  0  0  0  0  0  0  0  0  0  0
   -1.6136   16.1070   -5.9478 H   0  0  0  0  0  0  0  0  0  0  0  0
    1.3207   16.2215   -6.7018 H   0  0  0  0  0  0  0  0  0  0  0  0
    0.0551   14.4993   -8.4469 H   0  0  0  0  0  0  0  0  0  0  0  0
   -1.2352   15.7327   -8.0520 H   0  0  0  0  0  0  0  0  0  0  0  0
   -0.1485   16.5423   -9.9862 H   0  0  0  0  0  0  0  0  0  0  0  0
    0.4945   17.5006   -8.5876 H   0  0  0  0  0  0  0  0  0  0  0  0
    2.1509   16.0721   -8.3794 H   0  0  0  0  0  0  0  0  0  0  0  0
    0.3261   14.3123  -10.9396 H   0  0  0  0  0  0  0  0  0  0  0  0
    0.7618   15.5386  -12.1777 H   0  0  0  0  0  0  0  0  0  0  0  0
    1.5717   13.9353  -12.1777 H   0  0  0  0  0  0  0  0  0  0  0  0
    3.8458   14.3631   -9.6074 H   0  0  0  0  0  0  0  0  0  0  0  0
    3.4071   13.5794  -11.1630 H   0  0  0  0  0  0  0  0  0  0  0  0
    4.2736   15.1528  -11.1630 H   0  0  0  0  0  0  0  0  0  0  0  0
   -0.3440   13.8156   -6.2062 H   0  0  0  0  0  0  0  0  0  0  0  0
    1.4232   12.8701   -7.5568 H   0  0  0  0  0  0  0  0  0  0  0  0
    2.4996   14.2502   -7.2524 H   0  0  0  0  0  0  0  0  0  0  0  0
    2.7149   11.6752   -6.0312 H   0  0  0  0  0  0  0  0  0  0  0  0
    3.5379   13.1177   -5.4440 H   0  0  0  0  0  0  0  0  0  0  0  0
    0.1384   11.2169   -3.8323 H   0  0  0  0  0  0  0  0  0  0  0  0
   -0.2968   12.0600   -5.3575 H   0  0  0  0  0  0  0  0  0  0  0  0
    0.9978   10.8148   -5.3575 H   0  0  0  0  0  0  0  0  0  0  0  0
    3.0580   13.2665   -3.0734 H   0  0  0  0  0  0  0  0  0  0  0  0
    3.3179   10.8215   -3.8455 H   0  0  0  0  0  0  0  0  0  0  0  0
    3.7370   11.3281   -2.1257 H   0  0  0  0  0  0  0  0  0  0  0  0
    2.4481    9.0461   -2.3864 H   0  0  0  0  0  0  0  0  0  0  0  0
   -0.4928   11.8043   -2.1867 H   0  0  0  0  0  0  0  0  0  0  0  0
    0.6412   11.6856    0.6760 H   0  0  0  0  0  0  0  0  0  0  0  0
   -0.7104   12.7479    0.0792 H   0  0  0  0  0  0  0  0  0  0  0  0
   -1.5439   10.7968    1.3509 H   0  0  0  0  0  0  0  0  0  0  0  0
   -2.0832   10.7992   -0.3740 H   0  0  0  0  0  0  0  0  0  0  0  0
   -1.4338    8.5676    0.2268 H   0  0  0  0  0  0  0  0  0  0  0  0
    0.2040    8.2750    1.5560 H   0  0  0  0  0  0  0  0  0  0  0  0
   -2.1535    8.9310   -1.8153 H   0  0  0  0  0  0  0  0  0  0  0  0
   -1.1872    9.9009   -2.9782 H   0  0  0  0  0  0  0  0  0  0  0  0
   -1.0584    8.1092   -2.9782 H   0  0  0  0  0  0  0  0  0  0  0  0
    0.8352    7.3578   -0.3082 H   0  0  0  0  0  0  0  0  0  0  0  0
    0.0239    6.9718   -1.8637 H   0  0  0  0  0  0  0  0  0  0  0  0
    1.6266    7.7830   -1.8637 H   0  0  0  0  0  0  0  0  0  0  0  0
    1.7025   13.0104    0.2982 H   0  0  0  0  0  0  0  0  0  0  0  0
    3.1341   12.5588   -0.6884 H   0  0  0  0  0  0  0  0  0  0  0  0
    2.5421   14.2547   -0.6884 H   0  0  0  0  0  0  0  0  0  0  0  0
   -0.4215   14.1306   -1.4398 H   0  0  0  0  0  0  0  0  0  0  0  0
    1.1362   15.0073   -1.9283 H   0  0  0  0  0  0  0  0  0  0  0  0
   -0.8655   13.6411   -3.7486 H   0  0  0  0  0  0  0  0  0  0  0  0
   -0.4661   15.3999   -3.6281 H   0  0  0  0  0  0  0  0  0  0  0  0
    2.2502   15.4418   -3.2154 H   0  0  0  0  0  0  0  0  0  0  0  0
    3.0820   15.0104   -4.7479 H   0  0  0  0  0  0  0  0  0  0  0  0
    1.7893   16.2576   -4.7479 H   0  0  0  0  0  0  0  0  0  0  0  0
  1  2  1  0
  2  3  1  0
  3  4  1  0
  4  5  1  0
  5  6  1  0
  6  7  1  0
  7  8  1  0
  7  9  1  0
  2 10  1  0
 10 11  1  0
 11 12  1  0
 12 13  1  0
 13 14  1  6
 13 15  1  0
 15 16  1  0
 16 17  1  0
 17 18  2  0
 18 19  1  0
 19 20  1  0
 20 21  1  0
 21 22  1  0
 22 23  1  0
 22 24  1  0
 24 25  1  0
 24 26  1  0
 19 27  1  0
 27 28  1  1
 27 29  1  0
 29 30  1  0
 30 31  1  0
 31 32  1  1
  7  5  1  0
 31 10  1  0
 31 13  1  0
 27 15  1  0
 24 18  1  0
  1 33  1  0
  1 34  1  0
  1 35  1  0
  2 36  1  6
  3 37  1  0
  3 38  1  0
  4 39  1  0
  4 40  1  0
  5 41  1  1
  8 42  1  0
  8 43  1  0
  8 44  1  0
  9 45  1  0
  9 46  1  0
  9 47  1  0
 10 48  1  1
 11 49  1  0
 11 50  1  0
 12 51  1  0
 12 52  1  0
 14 53  1  0
 14 54  1  0
 14 55  1  0
 15 56  1  6
 16 57  1  0
 16 58  1  0
 17 59  1  0
 19 60  1  6
 20 61  1  0
 20 62  1  0
 21 63  1  0
 21 64  1  0
 22 65  1  1
 23 66  1  0
 25 67  1  0
 25 68  1  0
 25 69  1  0
 26 70  1  0
 26 71  1  0
 26 72  1  0
 28 73  1  0
 28 74  1  0
 28 75  1  0
 29 76  1  0
 29 77  1  0
 30 78  1  0
 30 79  1  0
 32 80  1  0
 32 81  1  0
 32 82  1  0
M  END
>  <meeko>  (8) 
{"is_sidechain": [false], "intermolecular_energy": 2.731, "internal_energy": -0.839}

$$$$
EPH_relaxed_0001_pdb2pqr_Repair_250_r2_0001_out
     RDKit          3D

 82 86  0  0  0  0  0  0  0  0999 V2000
   -2.4270    7.6910   -0.1100 C   0  0  0  0  0  0  0  0  0  0  0  0
   -3.0540    9.0880   -0.1010 C   0  0  2  0  0  0  0  0  0  0  0  0
   -4.5440    9.0580   -0.4950 C   0  0  0  0  0  0  0  0  0  0  0  0
   -5.1360    7.6470   -0.5610 C   0  0  0  0  0  0  0  0  0  0  0  0
   -5.8950    7.4230   -1.8340 C   0  0  2  0  0  0  0  0  0  0  0  0
   -6.8040    8.4750   -2.1820 O   0  0  0  0  0  0  0  0  0  0  0  0
   -7.3950    7.2000   -1.8850 C   0  0  0  0  0  0  0  0  0  0  0  0
   -8.2250    7.1890   -0.6400 C   0  0  0  0  0  0  0  0  0  0  0  0
   -7.9750    6.5110   -3.0810 C   0  0  0  0  0  0  0  0  0  0  0  0
   -2.2850   10.0080   -1.0410 C   0  0  1  0  0  0  0  0  0  0  0  0
   -2.9380   11.4100   -1.1710 C   0  0  0  0  0  0  0  0  0  0  0  0
   -1.7800   12.4300   -1.3300 C   0  0  0  0  0  0  0  0  0  0  0  0
   -0.5330   11.5620   -1.6180 C   0  0  1  0  0  0  0  0  0  0  0  0
   -0.6180   11.2310   -3.1410 C   0  0  0  0  0  0  0  0  0  0  0  0
    0.8480   12.1900   -1.2400 C   0  0  2  0  0  0  0  0  0  0  0  0
    1.2100   13.4770   -2.0020 C   0  0  0  0  0  0  0  0  0  0  0  0
    1.9660   13.2740   -3.2730 C   0  0  0  0  0  0  0  0  0  0  0  0
    2.5870   12.1380   -3.6410 C   0  0  0  0  0  0  0  0  0  0  0  0
    2.6490   10.9320   -2.6950 C   0  0  1  0  0  0  0  0  0  0  0  0
    4.0950   10.3720   -2.6630 C   0  0  0  0  0  0  0  0  0  0  0  0
    4.6290   10.0490   -4.0550 C   0  0  0  0  0  0  0  0  0  0  0  0
    4.6060   11.2870   -4.9480 C   0  0  2  0  0  0  0  0  0  0  0  0
    5.5470   12.2390   -4.4410 O   0  0  0  0  0  0  0  0  0  0  0  0
    3.2010   11.9440   -5.0500 C   0  0  0  0  0  0  0  0  0  0  0  0
    2.2570   11.0300   -5.8690 C   0  0  0  0  0  0  0  0  0  0  0  0
    3.3460   13.2590   -5.8630 C   0  0  0  0  0  0  0  0  0  0  0  0
    2.0500   11.1610   -1.2410 C   0  0  1  0  0  0  0  0  0  0  0  0
    3.1450   11.7540   -0.3020 C   0  0  0  0  0  0  0  0  0  0  0  0
    1.6460    9.7690   -0.6260 C   0  0  0  0  0  0  0  0  0  0  0  0
    0.2260    9.2580   -0.9380 C   0  0  0  0  0  0  0  0  0  0  0  0
   -0.8190   10.3440   -0.6660 C   0  0  2  0  0  0  0  0  0  0  0  0
   -0.7720   10.6820    0.8630 C   0  0  0  0  0  0  0  0  0  0  0  0
   -2.2744    7.3509    0.9249 H   0  0  0  0  0  0  0  0  0  0  0  0
   -3.0975    6.9915   -0.6307 H   0  0  0  0  0  0  0  0  0  0  0  0
   -1.4587    7.7270   -0.6307 H   0  0  0  0  0  0  0  0  0  0  0  0
   -2.9926    9.4721    0.9279 H   0  0  0  0  0  0  0  0  0  0  0  0
   -5.1112    9.6380    0.2479 H   0  0  0  0  0  0  0  0  0  0  0  0
   -4.6174    9.4846   -1.5063 H   0  0  0  0  0  0  0  0  0  0  0  0
   -4.3180    6.9141   -0.5000 H   0  0  0  0  0  0  0  0  0  0  0  0
   -5.8349    7.5288    0.2802 H   0  0  0  0  0  0  0  0  0  0  0  0
   -5.0510    6.8662   -2.2671 H   0  0  0  0  0  0  0  0  0  0  0  0
   -7.5656    7.1977    0.2404 H   0  0  0  0  0  0  0  0  0  0  0  0
   -8.8717    8.0787   -0.6226 H   0  0  0  0  0  0  0  0  0  0  0  0
   -8.8479    6.2825   -0.6226 H   0  0  0  0  0  0  0  0  0  0  0  0
   -8.6506    5.7085   -2.7500 H   0  0  0  0  0  0  0  0  0  0  0  0
   -8.5374    7.2376   -3.6858 H   0  0  0  0  0  0  0  0  0  0  0  0
   -7.1632    6.0808   -3.6858 H   0  0  0  0  0  0  0  0  0  0  0  0
   -2.3090    9.3984   -1.9563 H   0  0  0  0  0  0  0  0  0  0  0  0
   -3.5946   11.4418   -2.0530 H   0  0  0  0  0  0  0  0  0  0  0  0
   -3.5515   11.6434   -0.2883 H   0  0  0  0  0  0  0  0  0  0  0  0
   -1.9782   13.1151   -2.1674 H   0  0  0  0  0  0  0  0  0  0  0  0
   -1.6530   13.0597   -0.4371 H   0  0  0  0  0  0  0  0  0  0  0  0
   -0.8897   10.1731   -3.2717 H   0  0  0  0  0  0  0  0  0  0  0  0
   -1.3820   11.8667   -3.6123 H   0  0  0  0  0  0  0  0  0  0  0  0
    0.3578   11.4199   -3.6123 H   0  0  0  0  0  0  0  0  0  0  0  0
    0.6899   12.4955   -0.1952 H   0  0  0  0  0  0  0  0  0  0  0  0
    0.2749   14.0037   -2.2431 H   0  0  0  0  0  0  0  0  0  0  0  0
    1.8776   14.0461   -1.3383 H   0  0  0  0  0  0  0  0  0  0  0  0
    2.0202   14.1250   -3.9678 H   0  0  0  0  0  0  0  0  0  0  0  0
    1.9675   10.1787   -3.1170 H   0  0  0  0  0  0  0  0  0  0  0  0
    4.7529   11.1211   -2.1982 H   0  0  0  0  0  0  0  0  0  0  0  0
    4.0772    9.4351   -2.0869 H   0  0  0  0  0  0  0  0  0  0  0  0
    5.6639    9.6864   -3.9686 H   0  0  0  0  0  0  0  0  0  0  0  0
    3.9882    9.2776   -4.5070 H   0  0  0  0  0  0  0  0  0  0  0  0
    4.8753   10.9648   -5.9647 H   0  0  0  0  0  0  0  0  0  0  0  0
    5.5710   12.1420   -3.4740 H   0  0  0  0  0  0  0  0  0  0  0  0
    1.6393   10.4320   -5.1828 H   0  0  0  0  0  0  0  0  0  0  0  0
    1.6058   11.6496   -6.5030 H   0  0  0  0  0  0  0  0  0  0  0  0
    2.8553   10.3591   -6.5030 H   0  0  0  0  0  0  0  0  0  0  0  0
    3.4398   14.1092   -5.1714 H   0  0  0  0  0  0  0  0  0  0  0  0
    4.2432   13.2012   -6.4968 H   0  0  0  0  0  0  0  0  0  0  0  0
    2.4577   13.3981   -6.4968 H   0  0  0  0  0  0  0  0  0  0  0  0
    2.8534   11.5961    0.7468 H   0  0  0  0  0  0  0  0  0  0  0  0
    4.1047   11.2523   -0.4953 H   0  0  0  0  0  0  0  0  0  0  0  0
    3.2493   12.8319   -0.4953 H   0  0  0  0  0  0  0  0  0  0  0  0
    2.3591    9.0200   -1.0007 H   0  0  0  0  0  0  0  0  0  0  0  0
    1.6653    9.9189    0.4636 H   0  0  0  0  0  0  0  0  0  0  0  0
    0.1735    8.9651   -1.9970 H   0  0  0  0  0  0  0  0  0  0  0  0
    0.0129    8.3956   -0.2892 H   0  0  0  0  0  0  0  0  0  0  0  0
   -0.9004    9.7586    1.4468 H   0  0  0  0  0  0  0  0  0  0  0  0
    0.1983   11.1387    1.1079 H   0  0  0  0  0  0  0  0  0  0  0  0
   -1.5809   11.3861    1.1079 H   0  0  0  0  0  0  0  0  0  0  0  0
  1  2  1  0
  2  3  1  0
  3  4  1  0
  4  5  1  0
  5  6  1  0
  6  7  1  0
  7  8  1  0
  7  9  1  0
  2 10  1  0
 10 11  1  0
 11 12  1  0
 12 13  1  0
 13 14  1  6
 13 15  1  0
 15 16  1  0
 16 17  1  0
 17 18  2  0
 18 19  1  0
 19 20  1  0
 20 21  1  0
 21 22  1  0
 22 23  1  0
 22 24  1  0
 24 25  1  0
 24 26  1  0
 19 27  1  0
 27 28  1  1
 27 29  1  0
 29 30  1  0
 30 31  1  0
 31 32  1  1
  7  5  1  0
 31 10  1  0
 31 13  1  0
 27 15  1  0
 24 18  1  0
  1 33  1  0
  1 34  1  0
  1 35  1  0
  2 36  1  1
  3 37  1  0
  3 38  1  0
  4 39  1  0
  4 40  1  0
  5 41  1  6
  8 42  1  0
  8 43  1  0
  8 44  1  0
  9 45  1  0
  9 46  1  0
  9 47  1  0
 10 48  1  6
 11 49  1  0
 11 50  1  0
 12 51  1  0
 12 52  1  0
 14 53  1  0
 14 54  1  0
 14 55  1  0
 15 56  1  1
 16 57  1  0
 16 58  1  0
 17 59  1  0
 19 60  1  6
 20 61  1  0
 20 62  1  0
 21 63  1  0
 21 64  1  0
 22 65  1  6
 23 66  1  0
 25 67  1  0
 25 68  1  0
 25 69  1  0
 26 70  1  0
 26 71  1  0
 26 72  1  0
 28 73  1  0
 28 74  1  0
 28 75  1  0
 29 76  1  0
 29 77  1  0
 30 78  1  0
 30 79  1  0
 32 80  1  0
 32 81  1  0
 32 82  1  0
M  END
>  <meeko>  (9) 
{"is_sidechain": [false], "intermolecular_energy": 2.731, "internal_energy": -0.839}

$$$$
EPH_relaxed_0001_pdb2pqr_Repair_250_r2_0001_out
     RDKit          3D

 82 86  0  0  0  0  0  0  0  0999 V2000
    1.1690   14.6710   -2.6640 C   0  0  0  0  0  0  0  0  0  0  0  0
    1.3240   14.0040   -4.0340 C   0  0  2  0  0  0  0  0  0  0  0  0
    0.5670   14.7680   -5.1390 C   0  0  0  0  0  0  0  0  0  0  0  0
    1.1200   14.5220   -6.5460 C   0  0  0  0  0  0  0  0  0  0  0  0
    0.8740   15.6910   -7.4500 C   0  0  2  0  0  0  0  0  0  0  0  0
    0.3790   15.3480   -8.7510 O   0  0  0  0  0  0  0  0  0  0  0  0
    1.6780   15.9590   -8.7090 C   0  0  0  0  0  0  0  0  0  0  0  0
    2.7910   15.0520   -9.1310 C   0  0  0  0  0  0  0  0  0  0  0  0
    1.7070   17.3520   -9.2560 C   0  0  0  0  0  0  0  0  0  0  0  0
    0.8350   12.5620   -3.9680 C   0  0  1  0  0  0  0  0  0  0  0  0
    1.9480   11.5380   -4.3150 C   0  0  0  0  0  0  0  0  0  0  0  0
    1.7000   10.2910   -3.4280 C   0  0  0  0  0  0  0  0  0  0  0  0
    0.2800   10.4990   -2.8510 C   0  0  1  0  0  0  0  0  0  0  0  0
   -0.6860   10.0390   -3.9870 C   0  0  0  0  0  0  0  0  0  0  0  0
   -0.0300    9.7730   -1.5010 C   0  0  2  0  0  0  0  0  0  0  0  0
    0.0370    8.2370   -1.5550 C   0  0  0  0  0  0  0  0  0  0  0  0
   -1.2480    7.5550   -1.8930 C   0  0  0  0  0  0  0  0  0  0  0  0
   -2.4670    8.1240   -1.8630 C   0  0  0  0  0  0  0  0  0  0  0  0
   -2.6530    9.5630   -1.3660 C   0  0  1  0  0  0  0  0  0  0  0  0
   -3.8500    9.6210   -0.3820 C   0  0  0  0  0  0  0  0  0  0  0  0
   -5.1280    9.0410   -0.9810 C   0  0  0  0  0  0  0  0  0  0  0  0
   -4.9200    7.5910   -1.4100 C   0  0  2  0  0  0  0  0  0  0  0  0
   -4.7050    6.7920   -0.2430 O   0  0  0  0  0  0  0  0  0  0  0  0
   -3.7330    7.4080   -2.3960 C   0  0  0  0  0  0  0  0  0  0  0  0
   -4.0970    8.0220   -3.7700 C   0  0  0  0  0  0  0  0  0  0  0  0
   -3.5430    5.8860   -2.6370 C   0  0  0  0  0  0  0  0  0  0  0  0
   -1.3520   10.2700   -0.7870 C   0  0  1  0  0  0  0  0  0  0  0  0
   -1.1940    9.9340    0.7270 C   0  0  0  0  0  0  0  0  0  0  0  0
   -1.5310   11.8310   -0.8790 C   0  0  0  0  0  0  0  0  0  0  0  0
   -1.0960   12.5050   -2.1940 C   0  0  0  0  0  0  0  0  0  0  0  0
    0.3090   12.0510   -2.6040 C   0  0  2  0  0  0  0  0  0  0  0  0
    1.3060   12.5190   -1.4900 C   0  0  0  0  0  0  0  0  0  0  0  0
    1.3419   13.9271   -1.8723 H   0  0  0  0  0  0  0  0  0  0  0  0
    1.9017   15.4858   -2.5679 H   0  0  0  0  0  0  0  0  0  0  0  0
    0.1521   15.0792   -2.5679 H   0  0  0  0  0  0  0  0  0  0  0  0
    2.3929   14.0218   -4.2930 H   0  0  0  0  0  0  0  0  0  0  0  0
   -0.4867   14.4529   -5.1198 H   0  0  0  0  0  0  0  0  0  0  0  0
    0.6876   15.8410   -4.9289 H   0  0  0  0  0  0  0  0  0  0  0  0
    2.2037   14.3462   -6.4774 H   0  0  0  0  0  0  0  0  0  0  0  0
    0.6048   13.6470   -6.9689 H   0  0  0  0  0  0  0  0  0  0  0  0
    0.6104   16.3283   -6.5930 H   0  0  0  0  0  0  0  0  0  0  0  0
    3.2904   14.6450   -8.2394 H   0  0  0  0  0  0  0  0  0  0  0  0
    2.3830   14.2259   -9.7319 H   0  0  0  0  0  0  0  0  0  0  0  0
    3.5177   15.6184   -9.7319 H   0  0  0  0  0  0  0  0  0  0  0  0
    1.7220   18.0721   -8.4246 H   0  0  0  0  0  0  0  0  0  0  0  0
    2.6081   17.4851   -9.8727 H   0  0  0  0  0  0  0  0  0  0  0  0
    0.8122   17.5225   -9.8727 H   0  0  0  0  0  0  0  0  0  0  0  0
    0.0096   12.6137   -4.6933 H   0  0  0  0  0  0  0  0  0  0  0  0
    1.8921   11.2635   -5.3787 H   0  0  0  0  0  0  0  0  0  0  0  0
    2.9462   11.9618   -4.1308 H   0  0  0  0  0  0  0  0  0  0  0  0
    1.7437    9.3713   -4.0299 H   0  0  0  0  0  0  0  0  0  0  0  0
    2.4590   10.1824   -2.6393 H   0  0  0  0  0  0  0  0  0  0  0  0
   -1.5946    9.6063   -3.5429 H   0  0  0  0  0  0  0  0  0  0  0  0
   -0.9583   10.9041   -4.6094 H   0  0  0  0  0  0  0  0  0  0  0  0
   -0.1860    9.2823   -4.6094 H   0  0  0  0  0  0  0  0  0  0  0  0
    0.8124   10.0854   -0.8664 H   0  0  0  0  0  0  0  0  0  0  0  0
    0.7814    7.9555   -2.3143 H   0  0  0  0  0  0  0  0  0  0  0  0
    0.2989    7.9074   -0.5387 H   0  0  0  0  0  0  0  0  0  0  0  0
   -1.1933    6.4978   -2.1918 H   0  0  0  0  0  0  0  0  0  0  0  0
   -2.8748   10.1664   -2.2586 H   0  0  0  0  0  0  0  0  0  0  0  0
   -3.5922    9.0483    0.5211 H   0  0  0  0  0  0  0  0  0  0  0  0
   -4.0403   10.6792   -0.1495 H   0  0  0  0  0  0  0  0  0  0  0  0
   -5.9293    9.0824   -0.2286 H   0  0  0  0  0  0  0  0  0  0  0  0
   -5.4011    9.6335   -1.8666 H   0  0  0  0  0  0  0  0  0  0  0  0
   -5.8251    7.2726   -1.9479 H   0  0  0  0  0  0  0  0  0  0  0  0
   -4.5800    7.3960    0.5090 H   0  0  0  0  0  0  0  0  0  0  0  0
   -4.6525    8.9591   -3.6173 H   0  0  0  0  0  0  0  0  0  0  0  0
   -3.1760    8.2296   -4.3344 H   0  0  0  0  0  0  0  0  0  0  0  0
   -4.7211    7.3136   -4.3344 H   0  0  0  0  0  0  0  0  0  0  0  0
   -3.4782    5.3668   -1.6694 H   0  0  0  0  0  0  0  0  0  0  0  0
   -4.3993    5.4952   -3.2062 H   0  0  0  0  0  0  0  0  0  0  0  0
   -2.6169    5.7177   -3.2062 H   0  0  0  0  0  0  0  0  0  0  0  0
   -1.5855   10.7665    1.3301 H   0  0  0  0  0  0  0  0  0  0  0  0
   -1.7553    9.0170    0.9596 H   0  0  0  0  0  0  0  0  0  0  0  0
   -0.1298    9.7814    0.9596 H   0  0  0  0  0  0  0  0  0  0  0  0
   -2.5979   12.0528   -0.7288 H   0  0  0  0  0  0  0  0  0  0  0  0
   -0.8610   12.2428   -0.1099 H   0  0  0  0  0  0  0  0  0  0  0  0
   -1.8074   12.2361   -2.9888 H   0  0  0  0  0  0  0  0  0  0  0  0
   -1.0824   13.5944   -2.0422 H   0  0  0  0  0  0  0  0  0  0  0  0
    0.8718   12.3152   -0.5001 H   0  0  0  0  0  0  0  0  0  0  0  0
    2.2548   11.9722   -1.5938 H   0  0  0  0  0  0  0  0  0  0  0  0
    1.4915   13.5983   -1.5938 H   0  0  0  0  0  0  0  0  0  0  0  0
  1  2  1  0
  2  3  1  0
  3  4  1  0
  4  5  1  0
  5  6  1  0
  6  7  1  0
  7  8  1  0
  7  9  1  0
  2 10  1  0
 10 11  1  0
 11 12  1  0
 12 13  1  0
 13 14  1  6
 13 15  1  0
 15 16  1  0
 16 17  1  0
 17 18  2  0
 18 19  1  0
 19 20  1  0
 20 21  1  0
 21 22  1  0
 22 23  1  0
 22 24  1  0
 24 25  1  0
 24 26  1  0
 19 27  1  0
 27 28  1  1
 27 29  1  0
 29 30  1  0
 30 31  1  0
 31 32  1  1
  7  5  1  0
 31 10  1  0
 31 13  1  0
 27 15  1  0
 24 18  1  0
  1 33  1  0
  1 34  1  0
  1 35  1  0
  2 36  1  6
  3 37  1  0
  3 38  1  0
  4 39  1  0
  4 40  1  0
  5 41  1  1
  8 42  1  0
  8 43  1  0
  8 44  1  0
  9 45  1  0
  9 46  1  0
  9 47  1  0
 10 48  1  6
 11 49  1  0
 11 50  1  0
 12 51  1  0
 12 52  1  0
 14 53  1  0
 14 54  1  0
 14 55  1  0
 15 56  1  1
 16 57  1  0
 16 58  1  0
 17 59  1  0
 19 60  1  6
 20 61  1  0
 20 62  1  0
 21 63  1  0
 21 64  1  0
 22 65  1  6
 23 66  1  0
 25 67  1  0
 25 68  1  0
 25 69  1  0
 26 70  1  0
 26 71  1  0
 26 72  1  0
 28 73  1  0
 28 74  1  0
 28 75  1  0
 29 76  1  0
 29 77  1  0
 30 78  1  0
 30 79  1  0
 32 80  1  0
 32 81  1  0
 32 82  1  0
M  END
>  <meeko>  (10) 
{"is_sidechain": [false], "intermolecular_energy": 2.731, "internal_energy": -0.839}

$$$$
EPH_relaxed_0001_pdb2pqr_Repair_250_r2_0001_out
     RDKit          3D

 82 86  0  0  0  0  0  0  0  0999 V2000
    2.4880   16.8190   -7.3330 C   0  0  0  0  0  0  0  0  0  0  0  0
    1.4710   15.6750   -7.2800 C   0  0  2  0  0  0  0  0  0  0  0  0
    0.2000   15.9900   -8.0940 C   0  0  0  0  0  0  0  0  0  0  0  0
    0.4750   16.3180   -9.5640 C   0  0  0  0  0  0  0  0  0  0  0  0
    1.8880   15.9970   -9.9480 C   0  0  2  0  0  0  0  0  0  0  0  0
    2.2990   16.5280  -11.2150 O   0  0  0  0  0  0  0  0  0  0  0  0
    2.2540   15.0950  -11.1130 C   0  0  0  0  0  0  0  0  0  0  0  0
    1.2030   14.4580  -11.9660 C   0  0  0  0  0  0  0  0  0  0  0  0
    3.6040   14.4480  -11.1190 C   0  0  0  0  0  0  0  0  0  0  0  0
    1.1020   15.3750   -5.8330 C   0  0  1  0  0  0  0  0  0  0  0  0
   -0.2410   16.0290   -5.4100 C   0  0  0  0  0  0  0  0  0  0  0  0
   -0.9240   15.0500   -4.4220 C   0  0  0  0  0  0  0  0  0  0  0  0
    0.1810   14.0340   -4.0520 C   0  0  1  0  0  0  0  0  0  0  0  0
    1.0310   14.7470   -2.9550 C   0  0  0  0  0  0  0  0  0  0  0  0
   -0.3050   12.6250   -3.5810 C   0  0  2  0  0  0  0  0  0  0  0  0
   -1.1420   12.6220   -2.2900 C   0  0  0  0  0  0  0  0  0  0  0  0
   -0.3640   12.4650   -1.0250 C   0  0  0  0  0  0  0  0  0  0  0  0
    0.9130   12.0500   -0.9400 C   0  0  0  0  0  0  0  0  0  0  0  0
    1.6780   11.5920   -2.1880 C   0  0  1  0  0  0  0  0  0  0  0  0
    2.4170   10.2620   -1.8840 C   0  0  0  0  0  0  0  0  0  0  0  0
    3.3130   10.3580   -0.6540 C   0  0  0  0  0  0  0  0  0  0  0  0
    2.5060   10.7590    0.5790 C   0  0  2  0  0  0  0  0  0  0  0  0
    1.6040    9.6980    0.9040 O   0  0  0  0  0  0  0  0  0  0  0  0
    1.7110   12.0810    0.3870 C   0  0  0  0  0  0  0  0  0  0  0  0
    2.6940   13.2770    0.3350 C   0  0  0  0  0  0  0  0  0  0  0  0
    0.8320   12.2960    1.6490 C   0  0  0  0  0  0  0  0  0  0  0  0
    0.8340   11.5280   -3.5330 C   0  0  1  0  0  0  0  0  0  0  0  0
    0.1260   10.1440   -3.6520 C   0  0  0  0  0  0  0  0  0  0  0  0
    1.8150   11.6310   -4.7610 C   0  0  0  0  0  0  0  0  0  0  0  0
    2.1630   13.0480   -5.2550 C   0  0  0  0  0  0  0  0  0  0  0  0
    0.8980   13.8890   -5.4440 C   0  0  2  0  0  0  0  0  0  0  0  0
    0.0330   13.2080   -6.5590 C   0  0  0  0  0  0  0  0  0  0  0  0
    2.7553   17.1197   -6.3092 H   0  0  0  0  0  0  0  0  0  0  0  0
    3.3908   16.4827   -7.8639 H   0  0  0  0  0  0  0  0  0  0  0  0
    2.0483   17.6762   -7.8639 H   0  0  0  0  0  0  0  0  0  0  0  0
    1.9428   14.7911   -7.7340 H   0  0  0  0  0  0  0  0  0  0  0  0
   -0.4648   15.1146   -8.0522 H   0  0  0  0  0  0  0  0  0  0  0  0
   -0.2552   16.8851   -7.6450 H   0  0  0  0  0  0  0  0  0  0  0  0
   -0.2082   15.7300  -10.1944 H   0  0  0  0  0  0  0  0  0  0  0  0
    0.3161   17.3966   -9.7105 H   0  0  0  0  0  0  0  0  0  0  0  0
    2.2016   16.0043   -8.8937 H   0  0  0  0  0  0  0  0  0  0  0  0
    0.4397   13.9954  -11.3231 H   0  0  0  0  0  0  0  0  0  0  0  0
    0.7327   15.2232  -12.6011 H   0  0  0  0  0  0  0  0  0  0  0  0
    1.6638   13.6870  -12.6011 H   0  0  0  0  0  0  0  0  0  0  0  0
    3.9384   14.2877  -10.0834 H   0  0  0  0  0  0  0  0  0  0  0  0
    3.5446   13.4805  -11.6390 H   0  0  0  0  0  0  0  0  0  0  0  0
    4.3209   15.1004  -11.6390 H   0  0  0  0  0  0  0  0  0  0  0  0
    1.9932   15.7775   -5.3292 H   0  0  0  0  0  0  0  0  0  0  0  0
   -0.0535   16.9946   -4.9175 H   0  0  0  0  0  0  0  0  0  0  0  0
   -0.8809   16.2176   -6.2846 H   0  0  0  0  0  0  0  0  0  0  0  0
   -1.2757   15.5841   -3.5270 H   0  0  0  0  0  0  0  0  0  0  0  0
   -1.8075   14.5635   -4.8610 H   0  0  0  0  0  0  0  0  0  0  0  0
    0.6721   14.4459   -1.9597 H   0  0  0  0  0  0  0  0  0  0  0  0
    2.0873   14.4608   -3.0659 H   0  0  0  0  0  0  0  0  0  0  0  0
    0.9329   15.8370   -3.0659 H   0  0  0  0  0  0  0  0  0  0  0  0
   -0.9951   12.3329   -4.3863 H   0  0  0  0  0  0  0  0  0  0  0  0
   -1.6881   13.5754   -2.2369 H   0  0  0  0  0  0  0  0  0  0  0  0
   -1.7978   11.7412   -2.3549 H   0  0  0  0  0  0  0  0  0  0  0  0
   -0.8781   12.7091   -0.0837 H   0  0  0  0  0  0  0  0  0  0  0  0
    2.4102   12.3840   -2.4039 H   0  0  0  0  0  0  0  0  0  0  0  0
    1.6687    9.4738   -1.7143 H   0  0  0  0  0  0  0  0  0  0  0  0
    3.0590   10.0323   -2.7472 H   0  0  0  0  0  0  0  0  0  0  0  0
    3.7834    9.3801   -0.4740 H   0  0  0  0  0  0  0  0  0  0  0  0
    4.0794   11.1255   -0.8369 H   0  0  0  0  0  0  0  0  0  0  0  0
    3.2194   10.9381    1.3969 H   0  0  0  0  0  0  0  0  0  0  0  0
    1.4750    9.1640    0.1020 H   0  0  0  0  0  0  0  0  0  0  0  0
    2.9488   13.5870    1.3592 H   0  0  0  0  0  0  0  0  0  0  0  0
    3.6095   12.9764   -0.1956 H   0  0  0  0  0  0  0  0  0  0  0  0
    2.2218   14.1169   -0.1956 H   0  0  0  0  0  0  0  0  0  0  0  0
    1.4431   12.1465    2.5513 H   0  0  0  0  0  0  0  0  0  0  0  0
    0.4285   13.3193    1.6448 H   0  0  0  0  0  0  0  0  0  0  0  0
    0.0017   11.5745    1.6448 H   0  0  0  0  0  0  0  0  0  0  0  0
   -0.0766    9.7481   -2.6459 H   0  0  0  0  0  0  0  0  0  0  0  0
   -0.8221   10.2628   -4.1970 H   0  0  0  0  0  0  0  0  0  0  0  0
    0.7771    9.4447   -4.1970 H   0  0  0  0  0  0  0  0  0  0  0  0
    2.7560   11.1369   -4.4775 H   0  0  0  0  0  0  0  0  0  0  0  0
    1.2797   11.1579   -5.5975 H   0  0  0  0  0  0  0  0  0  0  0  0
    2.8131   13.5374   -4.5149 H   0  0  0  0  0  0  0  0  0  0  0  0
    2.6768   12.9650   -6.2241 H   0  0  0  0  0  0  0  0  0  0  0  0
   -0.7493   12.5921   -6.0913 H   0  0  0  0  0  0  0  0  0  0  0  0
   -0.4351   13.9826   -7.1842 H   0  0  0  0  0  0  0  0  0  0  0  0
    0.6761   12.5712   -7.1842 H   0  0  0  0  0  0  0  0  0  0  0  0
  1  2  1  0
  2  3  1  0
  3  4  1  0
  4  5  1  0
  5  6  1  0
  6  7  1  0
  7  8  1  0
  7  9  1  0
  2 10  1  0
 10 11  1  0
 11 12  1  0
 12 13  1  0
 13 14  1  1
 13 15  1  0
 15 16  1  0
 16 17  1  0
 17 18  2  0
 18 19  1  0
 19 20  1  0
 20 21  1  0
 21 22  1  0
 22 23  1  0
 22 24  1  0
 24 25  1  0
 24 26  1  0
 19 27  1  0
 27 28  1  6
 27 29  1  0
 29 30  1  0
 30 31  1  0
 31 32  1  6
  7  5  1  0
 31 10  1  0
 31 13  1  0
 27 15  1  0
 24 18  1  0
  1 33  1  0
  1 34  1  0
  1 35  1  0
  2 36  1  6
  3 37  1  0
  3 38  1  0
  4 39  1  0
  4 40  1  0
  5 41  1  1
  8 42  1  0
  8 43  1  0
  8 44  1  0
  9 45  1  0
  9 46  1  0
  9 47  1  0
 10 48  1  1
 11 49  1  0
 11 50  1  0
 12 51  1  0
 12 52  1  0
 14 53  1  0
 14 54  1  0
 14 55  1  0
 15 56  1  6
 16 57  1  0
 16 58  1  0
 17 59  1  0
 19 60  1  6
 20 61  1  0
 20 62  1  0
 21 63  1  0
 21 64  1  0
 22 65  1  1
 23 66  1  0
 25 67  1  0
 25 68  1  0
 25 69  1  0
 26 70  1  0
 26 71  1  0
 26 72  1  0
 28 73  1  0
 28 74  1  0
 28 75  1  0
 29 76  1  0
 29 77  1  0
 30 78  1  0
 30 79  1  0
 32 80  1  0
 32 81  1  0
 32 82  1  0
M  END
>  <meeko>  (11) 
{"is_sidechain": [false], "intermolecular_energy": 2.731, "internal_energy": -0.839}

$$$$
EPH_relaxed_0001_pdb2pqr_Repair_250_r2_0001_out
     RDKit          3D

 82 86  0  0  0  0  0  0  0  0999 V2000
    0.7300   14.5600   -4.4270 C   0  0  0  0  0  0  0  0  0  0  0  0
    0.8580   13.8660   -3.0680 C   0  0  2  0  0  0  0  0  0  0  0  0
    2.2930   13.9450   -2.5090 C   0  0  0  0  0  0  0  0  0  0  0  0
    2.3850   14.6370   -1.1460 C   0  0  0  0  0  0  0  0  0  0  0  0
    1.6650   15.9510   -1.1410 C   0  0  2  0  0  0  0  0  0  0  0  0
    2.1230   16.8880   -2.1240 O   0  0  0  0  0  0  0  0  0  0  0  0
    2.3190   17.2630   -0.7510 C   0  0  0  0  0  0  0  0  0  0  0  0
    3.7560   17.3250   -0.3370 C   0  0  0  0  0  0  0  0  0  0  0  0
    1.4460   18.3930   -0.3030 C   0  0  0  0  0  0  0  0  0  0  0  0
    0.4240   12.4100   -3.1850 C   0  0  1  0  0  0  0  0  0  0  0  0
    1.6200   11.4460   -3.4050 C   0  0  0  0  0  0  0  0  0  0  0  0
    1.2760   10.1300   -2.6610 C   0  0  0  0  0  0  0  0  0  0  0  0
   -0.2280   10.2550   -2.3220 C   0  0  1  0  0  0  0  0  0  0  0  0
   -0.9690    9.8530   -3.6350 C   0  0  0  0  0  0  0  0  0  0  0  0
   -0.7310    9.4230   -1.0970 C   0  0  2  0  0  0  0  0  0  0  0  0
   -0.5950    7.8980   -1.2440 C   0  0  0  0  0  0  0  0  0  0  0  0
   -1.7750    7.2060   -1.8410 C   0  0  0  0  0  0  0  0  0  0  0  0
   -3.0040    7.7370   -1.9830 C   0  0  0  0  0  0  0  0  0  0  0  0
   -3.3290    9.1300   -1.4280 C   0  0  1  0  0  0  0  0  0  0  0  0
   -4.6760    9.0810   -0.6620 C   0  0  0  0  0  0  0  0  0  0  0  0
   -5.8100    8.5110   -1.5080 C   0  0  0  0  0  0  0  0  0  0  0  0
   -5.4750    7.1030   -1.9920 C   0  0  2  0  0  0  0  0  0  0  0  0
   -5.4270    6.2260   -0.8630 O   0  0  0  0  0  0  0  0  0  0  0  0
   -4.1320    7.0270   -2.7710 C   0  0  0  0  0  0  0  0  0  0  0  0
   -4.2840    7.7300   -4.1420 C   0  0  0  0  0  0  0  0  0  0  0  0
   -3.8430    5.5330   -3.0790 C   0  0  0  0  0  0  0  0  0  0  0  0
   -2.1740    9.8280   -0.5880 C   0  0  1  0  0  0  0  0  0  0  0  0
   -2.2600    9.3860    0.9050 C   0  0  0  0  0  0  0  0  0  0  0  0
   -2.3980   11.3870   -0.6030 C   0  0  0  0  0  0  0  0  0  0  0  0
   -1.7740   12.1670   -1.7760 C   0  0  0  0  0  0  0  0  0  0  0  0
   -0.3040   11.7850   -1.9690 C   0  0  2  0  0  0  0  0  0  0  0  0
    0.4720   12.1970   -0.6720 C   0  0  0  0  0  0  0  0  0  0  0  0
    0.5324   15.6313   -4.2745 H   0  0  0  0  0  0  0  0  0  0  0  0
    1.6661   14.4365   -4.9914 H   0  0  0  0  0  0  0  0  0  0  0  0
   -0.1004   14.1107   -4.9914 H   0  0  0  0  0  0  0  0  0  0  0  0
    0.1994   14.3944   -2.3630 H   0  0  0  0  0  0  0  0  0  0  0  0
    2.6825   12.9214   -2.4059 H   0  0  0  0  0  0  0  0  0  0  0  0
    2.8810   14.5483   -3.2164 H   0  0  0  0  0  0  0  0  0  0  0  0
    1.9377   13.9827   -0.3833 H   0  0  0  0  0  0  0  0  0  0  0  0
    3.4465   14.8272   -0.9294 H   0  0  0  0  0  0  0  0  0  0  0  0
    0.7336   15.4656   -0.8141 H   0  0  0  0  0  0  0  0  0  0  0  0
    3.8214   17.3278    0.7610 H   0  0  0  0  0  0  0  0  0  0  0  0
    4.2900   16.4491   -0.7339 H   0  0  0  0  0  0  0  0  0  0  0  0
    4.2126   18.2437   -0.7339 H   0  0  0  0  0  0  0  0  0  0  0  0
    1.4219   18.4242    0.7963 H   0  0  0  0  0  0  0  0  0  0  0  0
    1.8480   19.3418   -0.6880 H   0  0  0  0  0  0  0  0  0  0  0  0
    0.4265   18.2436   -0.6880 H   0  0  0  0  0  0  0  0  0  0  0  0
   -0.2681   12.4918   -4.0361 H   0  0  0  0  0  0  0  0  0  0  0  0
    1.7559   11.2498   -4.4788 H   0  0  0  0  0  0  0  0  0  0  0  0
    2.5548   11.8827   -3.0237 H   0  0  0  0  0  0  0  0  0  0  0  0
    1.4571    9.2592   -3.3083 H   0  0  0  0  0  0  0  0  0  0  0  0
    1.8951    9.9841   -1.7636 H   0  0  0  0  0  0  0  0  0  0  0  0
   -1.9102    9.3424   -3.3832 H   0  0  0  0  0  0  0  0  0  0  0  0
   -1.1879   10.7561   -4.2237 H   0  0  0  0  0  0  0  0  0  0  0  0
   -0.3313    9.1772   -4.2237 H   0  0  0  0  0  0  0  0  0  0  0  0
   -0.0208    9.7113   -0.3080 H   0  0  0  0  0  0  0  0  0  0  0  0
    0.2770    7.6948   -1.8830 H   0  0  0  0  0  0  0  0  0  0  0  0
   -0.4955    7.5021   -0.2226 H   0  0  0  0  0  0  0  0  0  0  0  0
   -1.6281    6.1749   -2.1949 H   0  0  0  0  0  0  0  0  0  0  0  0
   -3.4210    9.7918   -2.3019 H   0  0  0  0  0  0  0  0  0  0  0  0
   -4.5511    8.4507    0.2308 H   0  0  0  0  0  0  0  0  0  0  0  0
   -4.9456   10.1134   -0.3946 H   0  0  0  0  0  0  0  0  0  0  0  0
   -6.7276    8.4747   -0.9025 H   0  0  0  0  0  0  0  0  0  0  0  0
   -5.9534    9.1589   -2.3853 H   0  0  0  0  0  0  0  0  0  0  0  0
   -6.2638    6.7998   -2.6962 H   0  0  0  0  0  0  0  0  0  0  0  0
   -4.8690    6.6470   -0.1870 H   0  0  0  0  0  0  0  0  0  0  0  0
   -4.5141    8.7941   -3.9849 H   0  0  0  0  0  0  0  0  0  0  0  0
   -3.3451    7.6375   -4.7076 H   0  0  0  0  0  0  0  0  0  0  0  0
   -5.1008    7.2579   -4.7076 H   0  0  0  0  0  0  0  0  0  0  0  0
   -3.7357    4.9782   -2.1353 H   0  0  0  0  0  0  0  0  0  0  0  0
   -4.6761    5.1106   -3.6600 H   0  0  0  0  0  0  0  0  0  0  0  0
   -2.9125    5.4517   -3.6600 H   0  0  0  0  0  0  0  0  0  0  0  0
   -2.0906   10.2567    1.5555 H   0  0  0  0  0  0  0  0  0  0  0  0
   -3.2567    8.9663    1.1063 H   0  0  0  0  0  0  0  0  0  0  0  0
   -1.4934    8.6232    1.1063 H   0  0  0  0  0  0  0  0  0  0  0  0
   -3.4830   11.5672   -0.6232 H   0  0  0  0  0  0  0  0  0  0  0  0
   -1.8855   11.7602    0.2959 H   0  0  0  0  0  0  0  0  0  0  0  0
   -2.3294   11.9366   -2.6971 H   0  0  0  0  0  0  0  0  0  0  0  0
   -1.8299   13.2423   -1.5509 H   0  0  0  0  0  0  0  0  0  0  0  0
   -0.1047   11.8908    0.2132 H   0  0  0  0  0  0  0  0  0  0  0  0
    1.4540   11.7015   -0.6592 H   0  0  0  0  0  0  0  0  0  0  0  0
    0.6116   13.2880   -0.6592 H   0  0  0  0  0  0  0  0  0  0  0  0
  1  2  1  0
  2  3  1  0
  3  4  1  0
  4  5  1  0
  5  6  1  0
  6  7  1  0
  7  8  1  0
  7  9  1  0
  2 10  1  0
 10 11  1  0
 11 12  1  0
 12 13  1  0
 13 14  1  6
 13 15  1  0
 15 16  1  0
 16 17  1  0
 17 18  2  0
 18 19  1  0
 19 20  1  0
 20 21  1  0
 21 22  1  0
 22 23  1  0
 22 24  1  0
 24 25  1  0
 24 26  1  0
 19 27  1  0
 27 28  1  1
 27 29  1  0
 29 30  1  0
 30 31  1  0
 31 32  1  1
  7  5  1  0
 31 10  1  0
 31 13  1  0
 27 15  1  0
 24 18  1  0
  1 33  1  0
  1 34  1  0
  1 35  1  0
  2 36  1  1
  3 37  1  0
  3 38  1  0
  4 39  1  0
  4 40  1  0
  5 41  1  1
  8 42  1  0
  8 43  1  0
  8 44  1  0
  9 45  1  0
  9 46  1  0
  9 47  1  0
 10 48  1  6
 11 49  1  0
 11 50  1  0
 12 51  1  0
 12 52  1  0
 14 53  1  0
 14 54  1  0
 14 55  1  0
 15 56  1  1
 16 57  1  0
 16 58  1  0
 17 59  1  0
 19 60  1  6
 20 61  1  0
 20 62  1  0
 21 63  1  0
 21 64  1  0
 22 65  1  6
 23 66  1  0
 25 67  1  0
 25 68  1  0
 25 69  1  0
 26 70  1  0
 26 71  1  0
 26 72  1  0
 28 73  1  0
 28 74  1  0
 28 75  1  0
 29 76  1  0
 29 77  1  0
 30 78  1  0
 30 79  1  0
 32 80  1  0
 32 81  1  0
 32 82  1  0
M  END
>  <meeko>  (12) 
{"is_sidechain": [false], "intermolecular_energy": 2.731, "internal_energy": -0.839}

$$$$
EPH_relaxed_0001_pdb2pqr_Repair_250_r2_0001_out
     RDKit          3D

 82 86  0  0  0  0  0  0  0  0999 V2000
    2.2850   15.4750   -0.5340 C   0  0  0  0  0  0  0  0  0  0  0  0
    2.0970   15.3700   -2.0500 C   0  0  2  0  0  0  0  0  0  0  0  0
    1.5290   16.6690   -2.6560 C   0  0  0  0  0  0  0  0  0  0  0  0
    2.1150   17.9430   -2.0410 C   0  0  0  0  0  0  0  0  0  0  0  0
    1.0830   18.7120   -1.2730 C   0  0  2  0  0  0  0  0  0  0  0  0
    1.3750   20.1050   -1.1080 O   0  0  0  0  0  0  0  0  0  0  0  0
    1.3370   19.3190    0.0940 C   0  0  0  0  0  0  0  0  0  0  0  0
    2.6640   19.1830    0.7740 C   0  0  0  0  0  0  0  0  0  0  0  0
    0.1640   19.6180    0.9740 C   0  0  0  0  0  0  0  0  0  0  0  0
    1.1820   14.1970   -2.3790 C   0  0  1  0  0  0  0  0  0  0  0  0
    1.4740   13.5850   -3.7750 C   0  0  0  0  0  0  0  0  0  0  0  0
    1.2250   12.0590   -3.6560 C   0  0  0  0  0  0  0  0  0  0  0  0
    0.4860   11.8890   -2.3080 C   0  0  1  0  0  0  0  0  0  0  0  0
   -1.0040   12.2350   -2.6210 C   0  0  0  0  0  0  0  0  0  0  0  0
    0.6210   10.4930   -1.6170 C   0  0  2  0  0  0  0  0  0  0  0  0
    0.0410    9.3120   -2.4140 C   0  0  0  0  0  0  0  0  0  0  0  0
   -1.3910    8.9970   -2.1370 C   0  0  0  0  0  0  0  0  0  0  0  0
   -2.1010    9.4450   -1.0850 C   0  0  0  0  0  0  0  0  0  0  0  0
   -1.4350   10.2800    0.0160 C   0  0  1  0  0  0  0  0  0  0  0  0
   -1.8620    9.7390    1.4060 C   0  0  0  0  0  0  0  0  0  0  0  0
   -3.3770    9.6650    1.5650 C   0  0  0  0  0  0  0  0  0  0  0  0
   -3.9970    8.7790    0.4880 C   0  0  2  0  0  0  0  0  0  0  0  0
   -3.5710    7.4300    0.7000 O   0  0  0  0  0  0  0  0  0  0  0  0
   -3.6280    9.2220   -0.9560 C   0  0  0  0  0  0  0  0  0  0  0  0
   -4.3440   10.5550   -1.2900 C   0  0  0  0  0  0  0  0  0  0  0  0
   -4.1980    8.1650   -1.9400 C   0  0  0  0  0  0  0  0  0  0  0  0
    0.1380   10.4660   -0.1100 C   0  0  1  0  0  0  0  0  0  0  0  0
    0.8710    9.2700    0.5710 C   0  0  0  0  0  0  0  0  0  0  0  0
    0.5680   11.7590    0.6790 C   0  0  0  0  0  0  0  0  0  0  0  0
    0.5270   13.0910   -0.0940 C   0  0  0  0  0  0  0  0  0  0  0  0
    1.2400   12.9640   -1.4430 C   0  0  2  0  0  0  0  0  0  0  0  0
    2.7460   12.6380   -1.1600 C   0  0  0  0  0  0  0  0  0  0  0  0
    1.4336   14.9995   -0.0251 H   0  0  0  0  0  0  0  0  0  0  0  0
    3.2162   14.9663   -0.2439 H   0  0  0  0  0  0  0  0  0  0  0  0
    2.3403   16.5346   -0.2439 H   0  0  0  0  0  0  0  0  0  0  0  0
    3.0886   15.2045   -2.4966 H   0  0  0  0  0  0  0  0  0  0  0  0
    1.7455   16.6727   -3.7345 H   0  0  0  0  0  0  0  0  0  0  0  0
    0.4496   16.6771   -2.4445 H   0  0  0  0  0  0  0  0  0  0  0  0
    2.9336   17.6665   -1.3602 H   0  0  0  0  0  0  0  0  0  0  0  0
    2.4814   18.5817   -2.8582 H   0  0  0  0  0  0  0  0  0  0  0  0
    0.2814   18.0621   -1.6540 H   0  0  0  0  0  0  0  0  0  0  0  0
    2.5204   19.1977    1.8645 H   0  0  0  0  0  0  0  0  0  0  0  0
    3.1317   18.2322    0.4785 H   0  0  0  0  0  0  0  0  0  0  0  0
    3.3148   20.0192    0.4785 H   0  0  0  0  0  0  0  0  0  0  0  0
    0.4675   19.5406    2.0285 H   0  0  0  0  0  0  0  0  0  0  0  0
   -0.1970   20.6369    0.7702 H   0  0  0  0  0  0  0  0  0  0  0  0
   -0.6407   18.8963    0.7702 H   0  0  0  0  0  0  0  0  0  0  0  0
    0.2052   14.6941   -2.2852 H   0  0  0  0  0  0  0  0  0  0  0  0
    0.8009   14.0210   -4.5279 H   0  0  0  0  0  0  0  0  0  0  0  0
    2.5075   13.7930   -4.0889 H   0  0  0  0  0  0  0  0  0  0  0  0
    0.6016   11.7010   -4.4886 H   0  0  0  0  0  0  0  0  0  0  0  0
    2.1590   11.4793   -3.6961 H   0  0  0  0  0  0  0  0  0  0  0  0
   -1.5564   12.3633   -1.6785 H   0  0  0  0  0  0  0  0  0  0  0  0
   -1.0495   13.1676   -3.2025 H   0  0  0  0  0  0  0  0  0  0  0  0
   -1.4558   11.4179   -3.2025 H   0  0  0  0  0  0  0  0  0  0  0  0
    1.7102   10.3398   -1.6058 H   0  0  0  0  0  0  0  0  0  0  0  0
    0.1366    9.5452   -3.4847 H   0  0  0  0  0  0  0  0  0  0  0  0
    0.6129    8.4253   -2.1029 H   0  0  0  0  0  0  0  0  0  0  0  0
   -1.9103    8.3433   -2.8532 H   0  0  0  0  0  0  0  0  0  0  0  0
   -1.8064   11.3071   -0.1149 H   0  0  0  0  0  0  0  0  0  0  0  0
   -1.4443    8.7296    1.5350 H   0  0  0  0  0  0  0  0  0  0  0  0
   -1.4802   10.4356    2.1669 H   0  0  0  0  0  0  0  0  0  0  0  0
   -3.6149    9.2481    2.5548 H   0  0  0  0  0  0  0  0  0  0  0  0
   -3.7900   10.6796    1.4649 H   0  0  0  0  0  0  0  0  0  0  0  0
   -5.0899    8.8691    0.5749 H   0  0  0  0  0  0  0  0  0  0  0  0
   -4.3180    6.8480    0.4780 H   0  0  0  0  0  0  0  0  0  0  0  0
   -4.6192   11.0674   -0.3563 H   0  0  0  0  0  0  0  0  0  0  0  0
   -3.6693   11.1970   -1.8754 H   0  0  0  0  0  0  0  0  0  0  0  0
   -5.2518   10.3470   -1.8754 H   0  0  0  0  0  0  0  0  0  0  0  0
   -4.6446    7.3368   -1.3702 H   0  0  0  0  0  0  0  0  0  0  0  0
   -4.9672    8.6309   -2.5735 H   0  0  0  0  0  0  0  0  0  0  0  0
   -3.3861    7.7783   -2.5735 H   0  0  0  0  0  0  0  0  0  0  0  0
    0.8067    9.3749    1.6641 H   0  0  0  0  0  0  0  0  0  0  0  0
    0.3959    8.3264    0.2647 H   0  0  0  0  0  0  0  0  0  0  0  0
    1.9275    9.2650    0.2647 H   0  0  0  0  0  0  0  0  0  0  0  0
   -0.1010   11.8572    1.5466 H   0  0  0  0  0  0  0  0  0  0  0  0
    1.6280   11.6041    0.9290 H   0  0  0  0  0  0  0  0  0  0  0  0
   -0.5217   13.3748   -0.2666 H   0  0  0  0  0  0  0  0  0  0  0  0
    1.0405   13.8590    0.5031 H   0  0  0  0  0  0  0  0  0  0  0  0
    2.9154   12.6013   -0.0737 H   0  0  0  0  0  0  0  0  0  0  0  0
    3.0000   11.6641   -1.6038 H   0  0  0  0  0  0  0  0  0  0  0  0
    3.3800   13.4197   -1.6038 H   0  0  0  0  0  0  0  0  0  0  0  0
  1  2  1  0
  2  3  1  0
  3  4  1  0
  4  5  1  0
  5  6  1  0
  6  7  1  0
  7  8  1  0
  7  9  1  0
  2 10  1  0
 10 11  1  0
 11 12  1  0
 12 13  1  0
 13 14  1  6
 13 15  1  0
 15 16  1  0
 16 17  1  0
 17 18  2  0
 18 19  1  0
 19 20  1  0
 20 21  1  0
 21 22  1  0
 22 23  1  0
 22 24  1  0
 24 25  1  0
 24 26  1  0
 19 27  1  0
 27 28  1  1
 27 29  1  0
 29 30  1  0
 30 31  1  0
 31 32  1  1
  7  5  1  0
 31 10  1  0
 31 13  1  0
 27 15  1  0
 24 18  1  0
  1 33  1  0
  1 34  1  0
  1 35  1  0
  2 36  1  6
  3 37  1  0
  3 38  1  0
  4 39  1  0
  4 40  1  0
  5 41  1  1
  8 42  1  0
  8 43  1  0
  8 44  1  0
  9 45  1  0
  9 46  1  0
  9 47  1  0
 10 48  1  6
 11 49  1  0
 11 50  1  0
 12 51  1  0
 12 52  1  0
 14 53  1  0
 14 54  1  0
 14 55  1  0
 15 56  1  1
 16 57  1  0
 16 58  1  0
 17 59  1  0
 19 60  1  1
 20 61  1  0
 20 62  1  0
 21 63  1  0
 21 64  1  0
 22 65  1  6
 23 66  1  0
 25 67  1  0
 25 68  1  0
 25 69  1  0
 26 70  1  0
 26 71  1  0
 26 72  1  0
 28 73  1  0
 28 74  1  0
 28 75  1  0
 29 76  1  0
 29 77  1  0
 30 78  1  0
 30 79  1  0
 32 80  1  0
 32 81  1  0
 32 82  1  0
M  END
>  <meeko>  (13) 
{"is_sidechain": [false], "intermolecular_energy": 2.731, "internal_energy": -0.839}

$$$$
EPH_relaxed_0001_pdb2pqr_Repair_250_r2_0001_out
     RDKit          3D

 82 86  0  0  0  0  0  0  0  0999 V2000
   -1.3960   10.2960    1.4110 C   0  0  0  0  0  0  0  0  0  0  0  0
   -2.0770    9.9160    0.0930 C   0  0  2  0  0  0  0  0  0  0  0  0
   -2.9300    8.6390    0.2270 C   0  0  0  0  0  0  0  0  0  0  0  0
   -4.3770    8.8120   -0.2420 C   0  0  0  0  0  0  0  0  0  0  0  0
   -4.9790    7.5100   -0.6760 C   0  0  2  0  0  0  0  0  0  0  0  0
   -4.9500    7.2790   -2.0910 O   0  0  0  0  0  0  0  0  0  0  0  0
   -6.2510    7.4090   -1.4960 C   0  0  0  0  0  0  0  0  0  0  0  0
   -6.9990    8.6310   -1.9300 C   0  0  0  0  0  0  0  0  0  0  0  0
   -7.0270    6.1290   -1.4590 C   0  0  0  0  0  0  0  0  0  0  0  0
   -1.0300    9.7310   -0.9990 C   0  0  1  0  0  0  0  0  0  0  0  0
   -1.5760    8.9490   -2.2230 C   0  0  0  0  0  0  0  0  0  0  0  0
   -0.8900    9.5470   -3.4780 C   0  0  0  0  0  0  0  0  0  0  0  0
    0.2610   10.4150   -2.9170 C   0  0  1  0  0  0  0  0  0  0  0  0
    1.4130    9.4060   -2.6140 C   0  0  0  0  0  0  0  0  0  0  0  0
    0.7480   11.5900   -3.8270 C   0  0  2  0  0  0  0  0  0  0  0  0
    1.3420   11.1640   -5.1810 C   0  0  0  0  0  0  0  0  0  0  0  0
    2.8160   10.9240   -5.1830 C   0  0  0  0  0  0  0  0  0  0  0  0
    3.6740   11.3160   -4.2230 C   0  0  0  0  0  0  0  0  0  0  0  0
    3.1950   12.1640   -3.0380 C   0  0  1  0  0  0  0  0  0  0  0  0
    4.1790   13.3420   -2.8130 C   0  0  0  0  0  0  0  0  0  0  0  0
    5.6230   12.8760   -2.6520 C   0  0  0  0  0  0  0  0  0  0  0  0
    6.0810   12.0860   -3.8750 C   0  0  2  0  0  0  0  0  0  0  0  0
    6.1370   12.9700   -4.9990 O   0  0  0  0  0  0  0  0  0  0  0  0
    5.1590   10.8790   -4.2060 C   0  0  0  0  0  0  0  0  0  0  0  0
    5.3310    9.7830   -3.1250 C   0  0  0  0  0  0  0  0  0  0  0  0
    5.6500   10.2550   -5.5400 C   0  0  0  0  0  0  0  0  0  0  0  0
    1.6790   12.6370   -3.0910 C   0  0  1  0  0  0  0  0  0  0  0  0
    1.5650   13.9720   -3.8890 C   0  0  0  0  0  0  0  0  0  0  0  0
    1.1860   12.9510   -1.6290 C   0  0  0  0  0  0  0  0  0  0  0  0
    0.6060   11.7730   -0.8230 C   0  0  0  0  0  0  0  0  0  0  0  0
   -0.4400   11.0110   -1.6430 C   0  0  2  0  0  0  0  0  0  0  0  0
   -1.6220   11.9950   -1.9440 C   0  0  0  0  0  0  0  0  0  0  0  0
   -2.0124    9.9521    2.2547 H   0  0  0  0  0  0  0  0  0  0  0  0
   -0.4056    9.8201    1.4625 H   0  0  0  0  0  0  0  0  0  0  0  0
   -1.2809   11.3887    1.4625 H   0  0  0  0  0  0  0  0  0  0  0  0
   -2.7551   10.7387   -0.1779 H   0  0  0  0  0  0  0  0  0  0  0  0
   -2.4629    7.8450   -0.3741 H   0  0  0  0  0  0  0  0  0  0  0  0
   -2.9673    8.3889    1.2975 H   0  0  0  0  0  0  0  0  0  0  0  0
   -4.9735    9.2219    0.5863 H   0  0  0  0  0  0  0  0  0  0  0  0
   -4.3783    9.4946   -1.1046 H   0  0  0  0  0  0  0  0  0  0  0  0
   -4.6639    7.0253    0.2598 H   0  0  0  0  0  0  0  0  0  0  0  0
   -7.3392    9.1867   -1.0437 H   0  0  0  0  0  0  0  0  0  0  0  0
   -6.3377    9.2710   -2.5326 H   0  0  0  0  0  0  0  0  0  0  0  0
   -7.8698    8.3332   -2.5326 H   0  0  0  0  0  0  0  0  0  0  0  0
   -7.2037    5.8375   -0.4132 H   0  0  0  0  0  0  0  0  0  0  0  0
   -7.9917    6.2702   -1.9683 H   0  0  0  0  0  0  0  0  0  0  0  0
   -6.4556    5.3390   -1.9683 H   0  0  0  0  0  0  0  0  0  0  0  0
   -0.2529    9.2074   -0.4229 H   0  0  0  0  0  0  0  0  0  0  0  0
   -1.3308    7.8807   -2.1301 H   0  0  0  0  0  0  0  0  0  0  0  0
   -2.6704    9.0366   -2.2915 H   0  0  0  0  0  0  0  0  0  0  0  0
   -0.4951    8.7479   -4.1226 H   0  0  0  0  0  0  0  0  0  0  0  0
   -1.5880   10.1293   -4.0974 H   0  0  0  0  0  0  0  0  0  0  0  0
    1.5322    9.3016   -1.5255 H   0  0  0  0  0  0  0  0  0  0  0  0
    1.1675    8.4271   -3.0515 H   0  0  0  0  0  0  0  0  0  0  0  0
    2.3511    9.7783   -3.0515 H   0  0  0  0  0  0  0  0  0  0  0  0
   -0.1920   12.1099   -4.0638 H   0  0  0  0  0  0  0  0  0  0  0  0
    0.8455   10.2331   -5.4923 H   0  0  0  0  0  0  0  0  0  0  0  0
    1.1695   12.0058   -5.8677 H   0  0  0  0  0  0  0  0  0  0  0  0
    3.2362   10.3806   -6.0422 H   0  0  0  0  0  0  0  0  0  0  0  0
    3.2049   11.4968   -2.1635 H   0  0  0  0  0  0  0  0  0  0  0  0
    4.1215   14.0195   -3.6777 H   0  0  0  0  0  0  0  0  0  0  0  0
    3.8859   13.8484   -1.8815 H   0  0  0  0  0  0  0  0  0  0  0  0
    6.2729   13.7546   -2.5269 H   0  0  0  0  0  0  0  0  0  0  0  0
    5.6847   12.2230   -1.7690 H   0  0  0  0  0  0  0  0  0  0  0  0
    7.0729   11.6692   -3.6461 H   0  0  0  0  0  0  0  0  0  0  0  0
    6.9900   12.8260   -5.4440 H   0  0  0  0  0  0  0  0  0  0  0  0
    5.2595   10.2386   -2.1263 H   0  0  0  0  0  0  0  0  0  0  0  0
    4.5405    9.0268   -3.2405 H   0  0  0  0  0  0  0  0  0  0  0  0
    6.3151    9.3053   -3.2405 H   0  0  0  0  0  0  0  0  0  0  0  0
    6.3171    9.4073   -5.3246 H   0  0  0  0  0  0  0  0  0  0  0  0
    4.7846    9.9024   -6.1203 H   0  0  0  0  0  0  0  0  0  0  0  0
    6.1963   11.0132   -6.1203 H   0  0  0  0  0  0  0  0  0  0  0  0
    1.4930   14.8146   -3.1856 H   0  0  0  0  0  0  0  0  0  0  0  0
    2.4557   14.0979   -4.5221 H   0  0  0  0  0  0  0  0  0  0  0  0
    0.6659   13.9451   -4.5221 H   0  0  0  0  0  0  0  0  0  0  0  0
    2.0439   13.3484   -1.0668 H   0  0  0  0  0  0  0  0  0  0  0  0
    0.3495   13.6546   -1.7524 H   0  0  0  0  0  0  0  0  0  0  0  0
    1.4213   11.0861   -0.5521 H   0  0  0  0  0  0  0  0  0  0  0  0
    0.1218   12.1707    0.0811 H   0  0  0  0  0  0  0  0  0  0  0  0
   -2.0516   12.3527   -0.9966 H   0  0  0  0  0  0  0  0  0  0  0  0
   -1.2474   12.8518   -2.5233 H   0  0  0  0  0  0  0  0  0  0  0  0
   -2.3966   11.4712   -2.5233 H   0  0  0  0  0  0  0  0  0  0  0  0
  1  2  1  0
  2  3  1  0
  3  4  1  0
  4  5  1  0
  5  6  1  0
  6  7  1  0
  7  8  1  0
  7  9  1  0
  2 10  1  0
 10 11  1  0
 11 12  1  0
 12 13  1  0
 13 14  1  1
 13 15  1  0
 15 16  1  0
 16 17  1  0
 17 18  2  0
 18 19  1  0
 19 20  1  0
 20 21  1  0
 21 22  1  0
 22 23  1  0
 22 24  1  0
 24 25  1  0
 24 26  1  0
 19 27  1  0
 27 28  1  6
 27 29  1  0
 29 30  1  0
 30 31  1  0
 31 32  1  6
  7  5  1  0
 31 10  1  0
 31 13  1  0
 27 15  1  0
 24 18  1  0
  1 33  1  0
  1 34  1  0
  1 35  1  0
  2 36  1  6
  3 37  1  0
  3 38  1  0
  4 39  1  0
  4 40  1  0
  5 41  1  1
  8 42  1  0
  8 43  1  0
  8 44  1  0
  9 45  1  0
  9 46  1  0
  9 47  1  0
 10 48  1  1
 11 49  1  0
 11 50  1  0
 12 51  1  0
 12 52  1  0
 14 53  1  0
 14 54  1  0
 14 55  1  0
 15 56  1  6
 16 57  1  0
 16 58  1  0
 17 59  1  0
 19 60  1  1
 20 61  1  0
 20 62  1  0
 21 63  1  0
 21 64  1  0
 22 65  1  1
 23 66  1  0
 25 67  1  0
 25 68  1  0
 25 69  1  0
 26 70  1  0
 26 71  1  0
 26 72  1  0
 28 73  1  0
 28 74  1  0
 28 75  1  0
 29 76  1  0
 29 77  1  0
 30 78  1  0
 30 79  1  0
 32 80  1  0
 32 81  1  0
 32 82  1  0
M  END
>  <meeko>  (14) 
{"is_sidechain": [false], "intermolecular_energy": 2.731, "internal_energy": -0.839}

$$$$
EPH_relaxed_0001_pdb2pqr_Repair_250_r2_0001_out
     RDKit          3D

 82 86  0  0  0  0  0  0  0  0999 V2000
    0.7850   16.3830   -6.4840 C   0  0  0  0  0  0  0  0  0  0  0  0
    0.3880   15.9990   -5.0560 C   0  0  2  0  0  0  0  0  0  0  0  0
    1.2550   16.7130   -4.0000 C   0  0  0  0  0  0  0  0  0  0  0  0
    0.4500   17.5740   -3.0230 C   0  0  0  0  0  0  0  0  0  0  0  0
    1.3390   18.4600   -2.2030 C   0  0  2  0  0  0  0  0  0  0  0  0
    2.6960   18.0120   -2.0940 O   0  0  0  0  0  0  0  0  0  0  0  0
    1.9390   18.0440   -0.8730 C   0  0  0  0  0  0  0  0  0  0  0  0
    1.6730   16.6930   -0.2860 C   0  0  0  0  0  0  0  0  0  0  0  0
    2.3770   19.1110    0.0800 C   0  0  0  0  0  0  0  0  0  0  0  0
    0.4880   14.4880   -4.8770 C   0  0  1  0  0  0  0  0  0  0  0  0
    1.4230   13.8240   -5.9220 C   0  0  0  0  0  0  0  0  0  0  0  0
    2.1310   12.6460   -5.2040 C   0  0  0  0  0  0  0  0  0  0  0  0
    1.3450   12.4640   -3.8850 C   0  0  1  0  0  0  0  0  0  0  0  0
    0.0860   11.6310   -4.2800 C   0  0  0  0  0  0  0  0  0  0  0  0
    2.1250   11.8050   -2.7010 C   0  0  2  0  0  0  0  0  0  0  0  0
    2.6000   10.3640   -2.9540 C   0  0  0  0  0  0  0  0  0  0  0  0
    1.6400    9.2950   -2.5470 C   0  0  0  0  0  0  0  0  0  0  0  0
    0.5730    9.4670   -1.7440 C   0  0  0  0  0  0  0  0  0  0  0  0
    0.2990   10.8210   -1.0770 C   0  0  1  0  0  0  0  0  0  0  0  0
   -0.0350   10.6010    0.4220 C   0  0  0  0  0  0  0  0  0  0  0  0
   -1.1750    9.6080    0.6270 C   0  0  0  0  0  0  0  0  0  0  0  0
   -0.8410    8.2570    0.0000 C   0  0  2  0  0  0  0  0  0  0  0  0
    0.2470    7.6710    0.7210 O   0  0  0  0  0  0  0  0  0  0  0  0
   -0.4780    8.3550   -1.5080 C   0  0  0  0  0  0  0  0  0  0  0  0
   -1.7460    8.7010   -2.3270 C   0  0  0  0  0  0  0  0  0  0  0  0
   -0.0260    6.9470   -1.9820 C   0  0  0  0  0  0  0  0  0  0  0  0
    1.4070   11.9390   -1.2970 C   0  0  1  0  0  0  0  0  0  0  0  0
    2.5200   11.8060   -0.2130 C   0  0  0  0  0  0  0  0  0  0  0  0
    0.7540   13.3570   -1.0920 C   0  0  0  0  0  0  0  0  0  0  0  0
    0.1040   14.0080   -2.3270 C   0  0  0  0  0  0  0  0  0  0  0  0
    1.0510   13.9680   -3.5310 C   0  0  2  0  0  0  0  0  0  0  0  0
    2.3180   14.8160   -3.1710 C   0  0  0  0  0  0  0  0  0  0  0  0
    1.5753   17.1474   -6.4519 H   0  0  0  0  0  0  0  0  0  0  0  0
    1.1569   15.4932   -7.0130 H   0  0  0  0  0  0  0  0  0  0  0  0
   -0.0920   16.7843   -7.0130 H   0  0  0  0  0  0  0  0  0  0  0  0
   -0.6519   16.3236   -4.9033 H   0  0  0  0  0  0  0  0  0  0  0  0
    1.7989   15.9501   -3.4237 H   0  0  0  0  0  0  0  0  0  0  0  0
    1.9310   17.3897   -4.5432 H   0  0  0  0  0  0  0  0  0  0  0  0
   -0.2500   18.2016   -3.5941 H   0  0  0  0  0  0  0  0  0  0  0  0
   -0.0904   16.9029   -2.3392 H   0  0  0  0  0  0  0  0  0  0  0  0
    0.7720   19.3512   -2.5100 H   0  0  0  0  0  0  0  0  0  0  0  0
    1.6864   16.7611    0.8118 H   0  0  0  0  0  0  0  0  0  0  0  0
    0.6873   16.3360   -0.6192 H   0  0  0  0  0  0  0  0  0  0  0  0
    2.4498   15.9890   -0.6192 H   0  0  0  0  0  0  0  0  0  0  0  0
    2.2335   18.7614    1.1130 H   0  0  0  0  0  0  0  0  0  0  0  0
    3.4406   19.3370   -0.0862 H   0  0  0  0  0  0  0  0  0  0  0  0
    1.7789   20.0191   -0.0862 H   0  0  0  0  0  0  0  0  0  0  0  0
   -0.5748   14.2198   -4.9691 H   0  0  0  0  0  0  0  0  0  0  0  0
    0.8349   13.4504   -6.7732 H   0  0  0  0  0  0  0  0  0  0  0  0
    2.1552   14.5462   -6.3122 H   0  0  0  0  0  0  0  0  0  0  0  0
    2.0812   11.7326   -5.8149 H   0  0  0  0  0  0  0  0  0  0  0  0
    3.1986   12.8451   -5.0293 H   0  0  0  0  0  0  0  0  0  0  0  0
   -0.4288   11.2904   -3.3695 H   0  0  0  0  0  0  0  0  0  0  0  0
   -0.5960   12.2567   -4.8745 H   0  0  0  0  0  0  0  0  0  0  0  0
    0.3952   10.7587   -4.8745 H   0  0  0  0  0  0  0  0  0  0  0  0
    3.0384   12.4160   -2.6519 H   0  0  0  0  0  0  0  0  0  0  0  0
    2.7941   10.2543   -4.0312 H   0  0  0  0  0  0  0  0  0  0  0  0
    3.4941   10.2242   -2.3286 H   0  0  0  0  0  0  0  0  0  0  0  0
    1.8197    8.2819   -2.9359 H   0  0  0  0  0  0  0  0  0  0  0  0
   -0.5733   11.2449   -1.5960 H   0  0  0  0  0  0  0  0  0  0  0  0
    0.8620   10.2182    0.9308 H   0  0  0  0  0  0  0  0  0  0  0  0
   -0.3548   11.5676    0.8385 H   0  0  0  0  0  0  0  0  0  0  0  0
   -1.3447    9.4723    1.7053 H   0  0  0  0  0  0  0  0  0  0  0  0
   -2.0788   10.0061    0.1425 H   0  0  0  0  0  0  0  0  0  0  0  0
   -1.7428    7.6305    0.0647 H   0  0  0  0  0  0  0  0  0  0  0  0
    0.9490    7.4680    0.0790 H   0  0  0  0  0  0  0  0  0  0  0  0
   -2.5753    8.9273   -1.6407 H   0  0  0  0  0  0  0  0  0  0  0  0
   -1.5452    9.5772   -2.9610 H   0  0  0  0  0  0  0  0  0  0  0  0
   -2.0181    7.8443   -2.9610 H   0  0  0  0  0  0  0  0  0  0  0  0
    0.1775    6.3131   -1.1063 H   0  0  0  0  0  0  0  0  0  0  0  0
   -0.8228    6.4907   -2.5877 H   0  0  0  0  0  0  0  0  0  0  0  0
    0.8875    7.0398   -2.5877 H   0  0  0  0  0  0  0  0  0  0  0  0
    2.0659   11.8603    0.7874 H   0  0  0  0  0  0  0  0  0  0  0  0
    3.0331   10.8402   -0.3309 H   0  0  0  0  0  0  0  0  0  0  0  0
    3.2462   12.6238   -0.3309 H   0  0  0  0  0  0  0  0  0  0  0  0
   -0.0239   13.2566   -0.3207 H   0  0  0  0  0  0  0  0  0  0  0  0
    1.5882   14.0214   -0.8223 H   0  0  0  0  0  0  0  0  0  0  0  0
   -0.8187   13.4638   -2.5768 H   0  0  0  0  0  0  0  0  0  0  0  0
   -0.1202   15.0590   -2.0921 H   0  0  0  0  0  0  0  0  0  0  0  0
    2.4165   14.8819   -2.0774 H   0  0  0  0  0  0  0  0  0  0  0  0
    3.2132   14.3344   -3.5914 H   0  0  0  0  0  0  0  0  0  0  0  0
    2.2140   15.8272   -3.5914 H   0  0  0  0  0  0  0  0  0  0  0  0
  1  2  1  0
  2  3  1  0
  3  4  1  0
  4  5  1  0
  5  6  1  0
  6  7  1  0
  7  8  1  0
  7  9  1  0
  2 10  1  0
 10 11  1  0
 11 12  1  0
 12 13  1  0
 13 14  1  6
 13 15  1  0
 15 16  1  0
 16 17  1  0
 17 18  2  0
 18 19  1  0
 19 20  1  0
 20 21  1  0
 21 22  1  0
 22 23  1  0
 22 24  1  0
 24 25  1  0
 24 26  1  0
 19 27  1  0
 27 28  1  1
 27 29  1  0
 29 30  1  0
 30 31  1  0
 31 32  1  1
  7  5  1  0
 31 10  1  0
 31 13  1  0
 27 15  1  0
 24 18  1  0
  1 33  1  0
  1 34  1  0
  1 35  1  0
  2 36  1  1
  3 37  1  0
  3 38  1  0
  4 39  1  0
  4 40  1  0
  5 41  1  1
  8 42  1  0
  8 43  1  0
  8 44  1  0
  9 45  1  0
  9 46  1  0
  9 47  1  0
 10 48  1  6
 11 49  1  0
 11 50  1  0
 12 51  1  0
 12 52  1  0
 14 53  1  0
 14 54  1  0
 14 55  1  0
 15 56  1  1
 16 57  1  0
 16 58  1  0
 17 59  1  0
 19 60  1  6
 20 61  1  0
 20 62  1  0
 21 63  1  0
 21 64  1  0
 22 65  1  6
 23 66  1  0
 25 67  1  0
 25 68  1  0
 25 69  1  0
 26 70  1  0
 26 71  1  0
 26 72  1  0
 28 73  1  0
 28 74  1  0
 28 75  1  0
 29 76  1  0
 29 77  1  0
 30 78  1  0
 30 79  1  0
 32 80  1  0
 32 81  1  0
 32 82  1  0
M  END
>  <meeko>  (15) 
{"is_sidechain": [false], "intermolecular_energy": 2.731, "internal_energy": -0.839}

$$$$
EPH_relaxed_0001_pdb2pqr_Repair_250_r2_0001_out
     RDKit          3D

 82 86  0  0  0  0  0  0  0  0999 V2000
    1.0720   13.7120   -4.3810 C   0  0  0  0  0  0  0  0  0  0  0  0
    1.3980   13.0240   -3.0530 C   0  0  2  0  0  0  0  0  0  0  0  0
    2.9170   12.9080   -2.8160 C   0  0  0  0  0  0  0  0  0  0  0  0
    3.5800   11.7800   -3.6120 C   0  0  0  0  0  0  0  0  0  0  0  0
    5.0340   11.6440   -3.2750 C   0  0  2  0  0  0  0  0  0  0  0  0
    5.9120   12.4410   -4.0810 O   0  0  0  0  0  0  0  0  0  0  0  0
    6.0530   11.0170   -4.2080 C   0  0  0  0  0  0  0  0  0  0  0  0
    5.6590   10.4830   -5.5490 C   0  0  0  0  0  0  0  0  0  0  0  0
    7.3240   10.4830   -3.6240 C   0  0  0  0  0  0  0  0  0  0  0  0
    0.7580   11.6420   -3.0120 C   0  0  1  0  0  0  0  0  0  0  0  0
    1.8050   10.5010   -2.9060 C   0  0  0  0  0  0  0  0  0  0  0  0
    1.1690    9.3900   -2.0310 C   0  0  0  0  0  0  0  0  0  0  0  0
   -0.3270    9.7730   -1.9400 C   0  0  1  0  0  0  0  0  0  0  0  0
   -0.9550    9.2580   -3.2730 C   0  0  0  0  0  0  0  0  0  0  0  0
   -1.1020    9.2390   -0.6920 C   0  0  2  0  0  0  0  0  0  0  0  0
   -1.1910    7.7070   -0.5850 C   0  0  0  0  0  0  0  0  0  0  0  0
   -2.3820    7.0900   -1.2390 C   0  0  0  0  0  0  0  0  0  0  0  0
   -3.4850    7.7500   -1.6380 C   0  0  0  0  0  0  0  0  0  0  0  0
   -3.6520    9.2480   -1.3540 C   0  0  1  0  0  0  0  0  0  0  0  0
   -5.0750    9.5140   -0.7950 C   0  0  0  0  0  0  0  0  0  0  0  0
   -6.1720    8.9670   -1.7040 C   0  0  0  0  0  0  0  0  0  0  0  0
   -6.0050    7.4640   -1.9160 C   0  0  2  0  0  0  0  0  0  0  0  0
   -6.2360    6.7950   -0.6730 O   0  0  0  0  0  0  0  0  0  0  0  0
   -4.6050    7.0750   -2.4680 C   0  0  0  0  0  0  0  0  0  0  0  0
   -4.4740    7.5480   -3.9370 C   0  0  0  0  0  0  0  0  0  0  0  0
   -4.5190    5.5250   -2.5020 C   0  0  0  0  0  0  0  0  0  0  0  0
   -2.5150    9.9170   -0.4680 C   0  0  1  0  0  0  0  0  0  0  0  0
   -2.8530    9.7520    1.0460 C   0  0  0  0  0  0  0  0  0  0  0  0
   -2.4870   11.4660   -0.7500 C   0  0  0  0  0  0  0  0  0  0  0  0
   -1.6080   11.9430   -1.9220 C   0  0  0  0  0  0  0  0  0  0  0  0
   -0.2040   11.3370   -1.8360 C   0  0  2  0  0  0  0  0  0  0  0  0
    0.4610   11.8560   -0.5160 C   0  0  0  0  0  0  0  0  0  0  0  0
    0.6087   14.6899   -4.1833 H   0  0  0  0  0  0  0  0  0  0  0  0
    1.9982   13.8549   -4.9570 H   0  0  0  0  0  0  0  0  0  0  0  0
    0.3749   13.0857   -4.9570 H   0  0  0  0  0  0  0  0  0  0  0  0
    0.9850   13.6489   -2.2475 H   0  0  0  0  0  0  0  0  0  0  0  0
    3.3872   13.8596   -3.1047 H   0  0  0  0  0  0  0  0  0  0  0  0
    3.0592   12.6759   -1.7502 H   0  0  0  0  0  0  0  0  0  0  0  0
    3.0703   10.8331   -3.3805 H   0  0  0  0  0  0  0  0  0  0  0  0
    3.4972   12.0209   -4.6821 H   0  0  0  0  0  0  0  0  0  0  0  0
    4.7968   11.4676   -2.2155 H   0  0  0  0  0  0  0  0  0  0  0  0
    5.0106    9.6042   -5.4176 H   0  0  0  0  0  0  0  0  0  0  0  0
    5.1157   11.2594   -6.1076 H   0  0  0  0  0  0  0  0  0  0  0  0
    6.5611   10.1929   -6.1076 H   0  0  0  0  0  0  0  0  0  0  0  0
    7.2623   10.5089   -2.5260 H   0  0  0  0  0  0  0  0  0  0  0  0
    7.4739    9.4458   -3.9585 H   0  0  0  0  0  0  0  0  0  0  0  0
    8.1696   11.1019   -3.9585 H   0  0  0  0  0  0  0  0  0  0  0  0
    0.1978   11.6713   -3.9582 H   0  0  0  0  0  0  0  0  0  0  0  0
    2.0393   10.1078   -3.9062 H   0  0  0  0  0  0  0  0  0  0  0  0
    2.7428   10.8656   -2.4614 H   0  0  0  0  0  0  0  0  0  0  0  0
    1.2895    8.4051   -2.5059 H   0  0  0  0  0  0  0  0  0  0  0  0
    1.6419    9.3174   -1.0405 H   0  0  0  0  0  0  0  0  0  0  0  0
   -1.7873    8.5754   -3.0465 H   0  0  0  0  0  0  0  0  0  0  0  0
   -1.3296   10.1123   -3.8559 H   0  0  0  0  0  0  0  0  0  0  0  0
   -0.1906    8.7233   -3.8559 H   0  0  0  0  0  0  0  0  0  0  0  0
   -0.4579    9.5592    0.1402 H   0  0  0  0  0  0  0  0  0  0  0  0
   -0.2895    7.2810   -1.0495 H   0  0  0  0  0  0  0  0  0  0  0  0
   -1.2825    7.4819    0.4878 H   0  0  0  0  0  0  0  0  0  0  0  0
   -2.3562    6.0036   -1.4094 H   0  0  0  0  0  0  0  0  0  0  0  0
   -3.5296    9.7558   -2.3221 H   0  0  0  0  0  0  0  0  0  0  0  0
   -5.1620    9.0341    0.1910 H   0  0  0  0  0  0  0  0  0  0  0  0
   -5.2093   10.6037   -0.7278 H   0  0  0  0  0  0  0  0  0  0  0  0
   -7.1516    9.1589   -1.2419 H   0  0  0  0  0  0  0  0  0  0  0  0
   -6.1026    9.4694   -2.6801 H   0  0  0  0  0  0  0  0  0  0  0  0
   -6.7379    7.1541   -2.6755 H   0  0  0  0  0  0  0  0  0  0  0  0
   -6.6900    7.4190   -0.0830 H   0  0  0  0  0  0  0  0  0  0  0  0
   -4.1804    8.6079   -3.9561 H   0  0  0  0  0  0  0  0  0  0  0  0
   -3.7087    6.9463   -4.4491 H   0  0  0  0  0  0  0  0  0  0  0  0
   -5.4398    7.4257   -4.4491 H   0  0  0  0  0  0  0  0  0  0  0  0
   -4.4974    5.1363   -1.4732 H   0  0  0  0  0  0  0  0  0  0  0  0
   -5.3961    5.1206   -3.0285 H   0  0  0  0  0  0  0  0  0  0  0  0
   -3.6026    5.2201   -3.0285 H   0  0  0  0  0  0  0  0  0  0  0  0
   -2.0280   10.1548    1.6519 H   0  0  0  0  0  0  0  0  0  0  0  0
   -3.7787   10.2996    1.2768 H   0  0  0  0  0  0  0  0  0  0  0  0
   -2.9907    8.6853    1.2768 H   0  0  0  0  0  0  0  0  0  0  0  0
   -3.5191   11.7853   -0.9567 H   0  0  0  0  0  0  0  0  0  0  0  0
   -2.0369   11.9140    0.1482 H   0  0  0  0  0  0  0  0  0  0  0  0
   -2.0747   11.6367   -2.8698 H   0  0  0  0  0  0  0  0  0  0  0  0
   -1.5210   13.0384   -1.8721 H   0  0  0  0  0  0  0  0  0  0  0  0
   -0.0723   11.4398    0.3514 H   0  0  0  0  0  0  0  0  0  0  0  0
    1.5137   11.5383   -0.4863 H   0  0  0  0  0  0  0  0  0  0  0  0
    0.4085   12.9543   -0.4863 H   0  0  0  0  0  0  0  0  0  0  0  0
  1  2  1  0
  2  3  1  0
  3  4  1  0
  4  5  1  0
  5  6  1  0
  6  7  1  0
  7  8  1  0
  7  9  1  0
  2 10  1  0
 10 11  1  0
 11 12  1  0
 12 13  1  0
 13 14  1  6
 13 15  1  0
 15 16  1  0
 16 17  1  0
 17 18  2  0
 18 19  1  0
 19 20  1  0
 20 21  1  0
 21 22  1  0
 22 23  1  0
 22 24  1  0
 24 25  1  0
 24 26  1  0
 19 27  1  0
 27 28  1  1
 27 29  1  0
 29 30  1  0
 30 31  1  0
 31 32  1  1
  7  5  1  0
 31 10  1  0
 31 13  1  0
 27 15  1  0
 24 18  1  0
  1 33  1  0
  1 34  1  0
  1 35  1  0
  2 36  1  1
  3 37  1  0
  3 38  1  0
  4 39  1  0
  4 40  1  0
  5 41  1  1
  8 42  1  0
  8 43  1  0
  8 44  1  0
  9 45  1  0
  9 46  1  0
  9 47  1  0
 10 48  1  6
 11 49  1  0
 11 50  1  0
 12 51  1  0
 12 52  1  0
 14 53  1  0
 14 54  1  0
 14 55  1  0
 15 56  1  1
 16 57  1  0
 16 58  1  0
 17 59  1  0
 19 60  1  6
 20 61  1  0
 20 62  1  0
 21 63  1  0
 21 64  1  0
 22 65  1  6
 23 66  1  0
 25 67  1  0
 25 68  1  0
 25 69  1  0
 26 70  1  0
 26 71  1  0
 26 72  1  0
 28 73  1  0
 28 74  1  0
 28 75  1  0
 29 76  1  0
 29 77  1  0
 30 78  1  0
 30 79  1  0
 32 80  1  0
 32 81  1  0
 32 82  1  0
M  END
>  <meeko>  (16) 
{"is_sidechain": [false], "intermolecular_energy": 2.731, "internal_energy": -0.839}

$$$$
EPH_relaxed_0001_pdb2pqr_Repair_250_r2_0001_out
     RDKit          3D

 82 86  0  0  0  0  0  0  0  0999 V2000
   -7.6670    7.7720   -3.4290 C   0  0  0  0  0  0  0  0  0  0  0  0
   -6.9840    7.2120   -2.1780 C   0  0  2  0  0  0  0  0  0  0  0  0
   -8.0000    6.8380   -1.0800 C   0  0  0  0  0  0  0  0  0  0  0  0
   -9.4600    6.9960   -1.5130 C   0  0  0  0  0  0  0  0  0  0  0  0
  -10.3100    7.5460   -0.4070 C   0  0  2  0  0  0  0  0  0  0  0  0
  -11.1350    6.5770    0.2530 O   0  0  0  0  0  0  0  0  0  0  0  0
  -11.8240    7.6100   -0.4690 C   0  0  0  0  0  0  0  0  0  0  0  0
  -12.5780    7.1190   -1.6640 C   0  0  0  0  0  0  0  0  0  0  0  0
  -12.5350    8.5890    0.4130 C   0  0  0  0  0  0  0  0  0  0  0  0
   -5.9800    8.2220   -1.6370 C   0  0  1  0  0  0  0  0  0  0  0  0
   -6.2570    8.6070   -0.1600 C   0  0  0  0  0  0  0  0  0  0  0  0
   -4.8760    8.8350    0.5090 C   0  0  0  0  0  0  0  0  0  0  0  0
   -3.8780    8.9010   -0.6700 C   0  0  1  0  0  0  0  0  0  0  0  0
   -3.9960   10.3600   -1.2140 C   0  0  0  0  0  0  0  0  0  0  0  0
   -2.3960    8.5260   -0.3430 C   0  0  2  0  0  0  0  0  0  0  0  0
   -1.7000    9.4450    0.6760 C   0  0  0  0  0  0  0  0  0  0  0  0
   -0.9790   10.6140    0.0910 C   0  0  0  0  0  0  0  0  0  0  0  0
   -0.6520   10.7630   -1.2060 C   0  0  0  0  0  0  0  0  0  0  0  0
   -0.9240    9.6440   -2.2200 C   0  0  1  0  0  0  0  0  0  0  0  0
    0.3340    9.4260   -3.1010 C   0  0  0  0  0  0  0  0  0  0  0  0
    0.8130   10.7130   -3.7660 C   0  0  0  0  0  0  0  0  0  0  0  0
    1.1290   11.7810   -2.7220 C   0  0  2  0  0  0  0  0  0  0  0  0
    2.2620   11.3580   -1.9580 O   0  0  0  0  0  0  0  0  0  0  0  0
   -0.0630   12.0790   -1.7700 C   0  0  0  0  0  0  0  0  0  0  0  0
   -1.1800   12.8170   -2.5490 C   0  0  0  0  0  0  0  0  0  0  0  0
    0.4330   13.0680   -0.6800 C   0  0  0  0  0  0  0  0  0  0  0  0
   -1.4910    8.2860   -1.6190 C   0  0  1  0  0  0  0  0  0  0  0  0
   -0.3120    7.3730   -1.1640 C   0  0  0  0  0  0  0  0  0  0  0  0
   -2.2500    7.5000   -2.7520 C   0  0  0  0  0  0  0  0  0  0  0  0
   -3.7420    7.8310   -2.9470 C   0  0  0  0  0  0  0  0  0  0  0  0
   -4.4900    7.8000   -1.6110 C   0  0  2  0  0  0  0  0  0  0  0  0
   -4.4070    6.3390   -1.0500 C   0  0  0  0  0  0  0  0  0  0  0  0
   -8.4857    8.4433   -3.1304 H   0  0  0  0  0  0  0  0  0  0  0  0
   -6.9335    8.3320   -4.0276 H   0  0  0  0  0  0  0  0  0  0  0  0
   -8.0724    6.9430   -4.0276 H   0  0  0  0  0  0  0  0  0  0  0  0
   -6.4610    6.2899   -2.4716 H   0  0  0  0  0  0  0  0  0  0  0  0
   -7.8337    5.7884   -0.7959 H   0  0  0  0  0  0  0  0  0  0  0  0
   -7.8366    7.5308   -0.2413 H   0  0  0  0  0  0  0  0  0  0  0  0
   -9.5049    7.6818   -2.3719 H   0  0  0  0  0  0  0  0  0  0  0  0
   -9.8475    6.0022   -1.7815 H   0  0  0  0  0  0  0  0  0  0  0  0
   -9.5486    8.3026   -0.1664 H   0  0  0  0  0  0  0  0  0  0  0  0
  -13.4571    6.5465   -1.3331 H   0  0  0  0  0  0  0  0  0  0  0  0
  -12.9058    7.9773   -2.2688 H   0  0  0  0  0  0  0  0  0  0  0  0
  -11.9256    6.4721   -2.2688 H   0  0  0  0  0  0  0  0  0  0  0  0
  -12.3501    8.3344    1.4670 H   0  0  0  0  0  0  0  0  0  0  0  0
  -12.1619    9.6037    0.2100 H   0  0  0  0  0  0  0  0  0  0  0  0
  -13.6153    8.5481    0.2100 H   0  0  0  0  0  0  0  0  0  0  0  0
   -6.1272    9.0351   -2.3631 H   0  0  0  0  0  0  0  0  0  0  0  0
   -6.8567    9.5280   -0.1146 H   0  0  0  0  0  0  0  0  0  0  0  0
   -6.8201    7.8153    0.3558 H   0  0  0  0  0  0  0  0  0  0  0  0
   -4.8700    9.7775    1.0761 H   0  0  0  0  0  0  0  0  0  0  0  0
   -4.6232    8.0398    1.2257 H   0  0  0  0  0  0  0  0  0  0  0  0
   -4.0528   11.0627   -0.3696 H   0  0  0  0  0  0  0  0  0  0  0  0
   -3.1139   10.5949   -1.8278 H   0  0  0  0  0  0  0  0  0  0  0  0
   -4.9044   10.4501   -1.8278 H   0  0  0  0  0  0  0  0  0  0  0  0
   -2.5041    7.5529    0.1583 H   0  0  0  0  0  0  0  0  0  0  0  0
   -2.4656    9.8285    1.3665 H   0  0  0  0  0  0  0  0  0  0  0  0
   -0.9328    8.8288    1.1677 H   0  0  0  0  0  0  0  0  0  0  0  0
   -0.6904   11.4226    0.7787 H   0  0  0  0  0  0  0  0  0  0  0  0
   -1.7596    9.9953   -2.8432 H   0  0  0  0  0  0  0  0  0  0  0  0
    1.1438    9.0335   -2.4684 H   0  0  0  0  0  0  0  0  0  0  0  0
    0.0642    8.7184   -3.8988 H   0  0  0  0  0  0  0  0  0  0  0  0
    1.7207   10.5004   -4.3498 H   0  0  0  0  0  0  0  0  0  0  0  0
    0.0135   11.0883   -4.4216 H   0  0  0  0  0  0  0  0  0  0  0  0
    1.3407   12.7165   -3.2606 H   0  0  0  0  0  0  0  0  0  0  0  0
    2.2570   10.3860   -1.9370 H   0  0  0  0  0  0  0  0  0  0  0  0
   -1.8796   13.2792   -1.8370 H   0  0  0  0  0  0  0  0  0  0  0  0
   -0.7317   13.5973   -3.1816 H   0  0  0  0  0  0  0  0  0  0  0  0
   -1.7219   12.0986   -3.1816 H   0  0  0  0  0  0  0  0  0  0  0  0
    0.2238   12.6509    0.3161 H   0  0  0  0  0  0  0  0  0  0  0  0
    1.5161   13.2241   -0.7921 H   0  0  0  0  0  0  0  0  0  0  0  0
   -0.0896   14.0294   -0.7921 H   0  0  0  0  0  0  0  0  0  0  0  0
   -0.2740    7.3436   -0.0650 H   0  0  0  0  0  0  0  0  0  0  0  0
   -0.4650    6.3555   -1.5530 H   0  0  0  0  0  0  0  0  0  0  0  0
    0.6348    7.7757   -1.5530 H   0  0  0  0  0  0  0  0  0  0  0  0
   -1.7362    7.7072   -3.7023 H   0  0  0  0  0  0  0  0  0  0  0  0
   -2.2277    6.4466   -2.4361 H   0  0  0  0  0  0  0  0  0  0  0  0
   -3.8332    8.8350   -3.3872 H   0  0  0  0  0  0  0  0  0  0  0  0
   -4.1842    7.0763   -3.6139 H   0  0  0  0  0  0  0  0  0  0  0  0
   -4.4086    6.3678    0.0496 H   0  0  0  0  0  0  0  0  0  0  0  0
   -5.2738    5.7609   -1.4029 H   0  0  0  0  0  0  0  0  0  0  0  0
   -3.4804    5.8628   -1.4029 H   0  0  0  0  0  0  0  0  0  0  0  0
  1  2  1  0
  2  3  1  0
  3  4  1  0
  4  5  1  0
  5  6  1  0
  6  7  1  0
  7  8  1  0
  7  9  1  0
  2 10  1  0
 10 11  1  0
 11 12  1  0
 12 13  1  0
 13 14  1  6
 13 15  1  0
 15 16  1  0
 16 17  1  0
 17 18  2  0
 18 19  1  0
 19 20  1  0
 20 21  1  0
 21 22  1  0
 22 23  1  0
 22 24  1  0
 24 25  1  0
 24 26  1  0
 19 27  1  0
 27 28  1  1
 27 29  1  0
 29 30  1  0
 30 31  1  0
 31 32  1  1
  7  5  1  0
 31 10  1  0
 31 13  1  0
 27 15  1  0
 24 18  1  0
  1 33  1  0
  1 34  1  0
  1 35  1  0
  2 36  1  6
  3 37  1  0
  3 38  1  0
  4 39  1  0
  4 40  1  0
  5 41  1  1
  8 42  1  0
  8 43  1  0
  8 44  1  0
  9 45  1  0
  9 46  1  0
  9 47  1  0
 10 48  1  6
 11 49  1  0
 11 50  1  0
 12 51  1  0
 12 52  1  0
 14 53  1  0
 14 54  1  0
 14 55  1  0
 15 56  1  1
 16 57  1  0
 16 58  1  0
 17 59  1  0
 19 60  1  6
 20 61  1  0
 20 62  1  0
 21 63  1  0
 21 64  1  0
 22 65  1  6
 23 66  1  0
 25 67  1  0
 25 68  1  0
 25 69  1  0
 26 70  1  0
 26 71  1  0
 26 72  1  0
 28 73  1  0
 28 74  1  0
 28 75  1  0
 29 76  1  0
 29 77  1  0
 30 78  1  0
 30 79  1  0
 32 80  1  0
 32 81  1  0
 32 82  1  0
M  END
>  <meeko>  (17) 
{"is_sidechain": [false], "intermolecular_energy": 2.731, "internal_energy": -0.839}

$$$$
