EPH_relaxed_0001_pdb2pqr_Repair_412_r2_0001_out
     RDKit          3D

 82 86  0  0  0  0  0  0  0  0999 V2000
   -1.6960    8.5800   -1.8670 C   0  0  0  0  0  0  0  0  0  0  0  0
   -2.0800    9.1020   -0.4790 C   0  0  2  0  0  0  0  0  0  0  0  0
   -3.5750    9.4670   -0.3890 C   0  0  0  0  0  0  0  0  0  0  0  0
   -4.4960    8.2540   -0.2300 C   0  0  0  0  0  0  0  0  0  0  0  0
   -5.2010    7.9220   -1.5100 C   0  0  2  0  0  0  0  0  0  0  0  0
   -6.3470    8.7360   -1.7910 O   0  0  0  0  0  0  0  0  0  0  0  0
   -6.6010    7.3390   -1.5680 C   0  0  0  0  0  0  0  0  0  0  0  0
   -7.3790    7.0530   -0.3220 C   0  0  0  0  0  0  0  0  0  0  0  0
   -7.0170    6.5980   -2.8000 C   0  0  0  0  0  0  0  0  0  0  0  0
   -1.2250   10.3130   -0.1250 C   0  0  1  0  0  0  0  0  0  0  0  0
   -0.2010   10.0140    1.0020 C   0  0  0  0  0  0  0  0  0  0  0  0
    1.0690   10.8430    0.6840 C   0  0  0  0  0  0  0  0  0  0  0  0
    0.6220   11.8360   -0.4150 C   0  0  1  0  0  0  0  0  0  0  0  0
   -0.0920   12.9910    0.3540 C   0  0  0  0  0  0  0  0  0  0  0  0
    1.7470   12.3780   -1.3560 C   0  0  2  0  0  0  0  0  0  0  0  0
    2.8440   13.1990   -0.6550 C   0  0  0  0  0  0  0  0  0  0  0  0
    2.5890   14.6680   -0.5770 C   0  0  0  0  0  0  0  0  0  0  0  0
    1.6700   15.3410   -1.2930 C   0  0  0  0  0  0  0  0  0  0  0  0
    0.8340   14.6330   -2.3670 C   0  0  1  0  0  0  0  0  0  0  0  0
    0.8140   15.4920   -3.6580 C   0  0  0  0  0  0  0  0  0  0  0  0
    0.3460   16.9210   -3.4030 C   0  0  0  0  0  0  0  0  0  0  0  0
    1.2370   17.6120   -2.3740 C   0  0  2  0  0  0  0  0  0  0  0  0
    2.5420   17.7820   -2.9340 O   0  0  0  0  0  0  0  0  0  0  0  0
    1.3410   16.8320   -1.0330 C   0  0  0  0  0  0  0  0  0  0  0  0
   -0.0100   16.9070   -0.2800 C   0  0  0  0  0  0  0  0  0  0  0  0
    2.3780   17.5610   -0.1360 C   0  0  0  0  0  0  0  0  0  0  0  0
    1.2110   13.1150   -2.6490 C   0  0  1  0  0  0  0  0  0  0  0  0
    2.3520   13.0390   -3.7100 C   0  0  0  0  0  0  0  0  0  0  0  0
   -0.0330   12.3850   -3.2810 C   0  0  0  0  0  0  0  0  0  0  0  0
   -1.0470   11.7660   -2.3010 C   0  0  0  0  0  0  0  0  0  0  0  0
   -0.3390   10.9100   -1.2470 C   0  0  2  0  0  0  0  0  0  0  0  0
    0.3710    9.7270   -1.9890 C   0  0  0  0  0  0  0  0  0  0  0  0
   -1.0472    7.6981   -1.7605 H   0  0  0  0  0  0  0  0  0  0  0  0
   -2.6060    8.3013   -2.4186 H   0  0  0  0  0  0  0  0  0  0  0  0
   -1.1590    9.3657   -2.4186 H   0  0  0  0  0  0  0  0  0  0  0  0
   -1.8946    8.2925    0.2424 H   0  0  0  0  0  0  0  0  0  0  0  0
   -3.7194   10.1287    0.4778 H   0  0  0  0  0  0  0  0  0  0  0  0
   -3.8449    9.9536   -1.3379 H   0  0  0  0  0  0  0  0  0  0  0  0
   -3.8938    7.3874    0.0805 H   0  0  0  0  0  0  0  0  0  0  0  0
   -5.2561    8.4974    0.5270 H   0  0  0  0  0  0  0  0  0  0  0  0
   -4.2544    7.6155   -1.9789 H   0  0  0  0  0  0  0  0  0  0  0  0
   -6.7592    7.2809    0.5577 H   0  0  0  0  0  0  0  0  0  0  0  0
   -8.2847    7.6770   -0.3039 H   0  0  0  0  0  0  0  0  0  0  0  0
   -7.6650    5.9910   -0.3039 H   0  0  0  0  0  0  0  0  0  0  0  0
   -7.5368    5.6720   -2.5130 H   0  0  0  0  0  0  0  0  0  0  0  0
   -7.6931    7.2283   -3.3963 H   0  0  0  0  0  0  0  0  0  0  0  0
   -6.1268    6.3490   -3.3963 H   0  0  0  0  0  0  0  0  0  0  0  0
   -2.0182   11.0248    0.1473 H   0  0  0  0  0  0  0  0  0  0  0  0
   -0.6134   10.3119    1.9773 H   0  0  0  0  0  0  0  0  0  0  0  0
    0.0306    8.9397    1.0503 H   0  0  0  0  0  0  0  0  0  0  0  0
    1.4142   11.3829    1.5780 H   0  0  0  0  0  0  0  0  0  0  0  0
    1.9088   10.2113    0.3589 H   0  0  0  0  0  0  0  0  0  0  0  0
    0.0090   12.8277    1.4371 H   0  0  0  0  0  0  0  0  0  0  0  0
    0.3698   13.9520    0.0835 H   0  0  0  0  0  0  0  0  0  0  0  0
   -1.1581   13.0075    0.0835 H   0  0  0  0  0  0  0  0  0  0  0  0
    2.2365   11.4534   -1.6958 H   0  0  0  0  0  0  0  0  0  0  0  0
    2.9507   12.8175    0.3712 H   0  0  0  0  0  0  0  0  0  0  0  0
    3.7510   13.0794   -1.2658 H   0  0  0  0  0  0  0  0  0  0  0  0
    3.2046   15.2493    0.1253 H   0  0  0  0  0  0  0  0  0  0  0  0
   -0.1836   14.5533   -1.9571 H   0  0  0  0  0  0  0  0  0  0  0  0
    1.8309   15.5234   -4.0763 H   0  0  0  0  0  0  0  0  0  0  0  0
    0.1027   15.0276   -4.3568 H   0  0  0  0  0  0  0  0  0  0  0  0
    0.3817   17.4852   -4.3466 H   0  0  0  0  0  0  0  0  0  0  0  0
   -0.6817   16.8892   -3.0122 H   0  0  0  0  0  0  0  0  0  0  0  0
    0.7772   18.5830   -2.1379 H   0  0  0  0  0  0  0  0  0  0  0  0
    2.7470   16.9840   -3.4500 H   0  0  0  0  0  0  0  0  0  0  0  0
    0.1736   16.8968    0.8045 H   0  0  0  0  0  0  0  0  0  0  0  0
   -0.5319   17.8355   -0.5548 H   0  0  0  0  0  0  0  0  0  0  0  0
   -0.6315   16.0420   -0.5548 H   0  0  0  0  0  0  0  0  0  0  0  0
    2.1328   17.3886    0.9224 H   0  0  0  0  0  0  0  0  0  0  0  0
    3.3844   17.1706   -0.3475 H   0  0  0  0  0  0  0  0  0  0  0  0
    2.3514   18.6402   -0.3475 H   0  0  0  0  0  0  0  0  0  0  0  0
    3.3240   12.9743   -3.1991 H   0  0  0  0  0  0  0  0  0  0  0  0
    2.2086   12.1484   -4.3395 H   0  0  0  0  0  0  0  0  0  0  0  0
    2.3280   13.9407   -4.3395 H   0  0  0  0  0  0  0  0  0  0  0  0
   -0.5719   13.1194   -3.8976 H   0  0  0  0  0  0  0  0  0  0  0  0
    0.3853   11.5337   -3.8380 H   0  0  0  0  0  0  0  0  0  0  0  0
   -1.5992   12.5730   -1.7973 H   0  0  0  0  0  0  0  0  0  0  0  0
   -1.7362   11.1237   -2.8689 H   0  0  0  0  0  0  0  0  0  0  0  0
    0.7900    9.0289   -1.2493 H   0  0  0  0  0  0  0  0  0  0  0  0
   -0.3593    9.1985   -2.6194 H   0  0  0  0  0  0  0  0  0  0  0  0
    1.1809   10.1229   -2.6194 H   0  0  0  0  0  0  0  0  0  0  0  0
  1  2  1  0
  2  3  1  0
  3  4  1  0
  4  5  1  0
  5  6  1  0
  6  7  1  0
  7  8  1  0
  7  9  1  0
  2 10  1  0
 10 11  1  0
 11 12  1  0
 12 13  1  0
 13 14  1  1
 13 15  1  0
 15 16  1  0
 16 17  1  0
 17 18  2  0
 18 19  1  0
 19 20  1  0
 20 21  1  0
 21 22  1  0
 22 23  1  0
 22 24  1  0
 24 25  1  0
 24 26  1  0
 19 27  1  0
 27 28  1  6
 27 29  1  0
 29 30  1  0
 30 31  1  0
 31 32  1  6
  7  5  1  0
 31 10  1  0
 31 13  1  0
 27 15  1  0
 24 18  1  0
  1 33  1  0
  1 34  1  0
  1 35  1  0
  2 36  1  1
  3 37  1  0
  3 38  1  0
  4 39  1  0
  4 40  1  0
  5 41  1  6
  8 42  1  0
  8 43  1  0
  8 44  1  0
  9 45  1  0
  9 46  1  0
  9 47  1  0
 10 48  1  1
 11 49  1  0
 11 50  1  0
 12 51  1  0
 12 52  1  0
 14 53  1  0
 14 54  1  0
 14 55  1  0
 15 56  1  6
 16 57  1  0
 16 58  1  0
 17 59  1  0
 19 60  1  1
 20 61  1  0
 20 62  1  0
 21 63  1  0
 21 64  1  0
 22 65  1  1
 23 66  1  0
 25 67  1  0
 25 68  1  0
 25 69  1  0
 26 70  1  0
 26 71  1  0
 26 72  1  0
 28 73  1  0
 28 74  1  0
 28 75  1  0
 29 76  1  0
 29 77  1  0
 30 78  1  0
 30 79  1  0
 32 80  1  0
 32 81  1  0
 32 82  1  0
M  END
>  <meeko>  (1) 
{"is_sidechain": [false], "intermolecular_energy": 2.731, "internal_energy": -0.839}

$$$$
EPH_relaxed_0001_pdb2pqr_Repair_412_r2_0001_out
     RDKit          3D

 82 86  0  0  0  0  0  0  0  0999 V2000
    2.3860   19.6800   -0.9950 C   0  0  0  0  0  0  0  0  0  0  0  0
    2.1550   18.8310    0.2580 C   0  0  2  0  0  0  0  0  0  0  0  0
    3.4790   18.3700    0.9000 C   0  0  0  0  0  0  0  0  0  0  0  0
    3.7640   19.0180    2.2570 C   0  0  0  0  0  0  0  0  0  0  0  0
    5.2260   19.0000    2.5840 C   0  0  2  0  0  0  0  0  0  0  0  0
    5.6410   17.9070    3.4140 O   0  0  0  0  0  0  0  0  0  0  0  0
    5.7740   19.2190    3.9820 C   0  0  0  0  0  0  0  0  0  0  0  0
    4.8660   19.4740    5.1450 C   0  0  0  0  0  0  0  0  0  0  0  0
    7.1930   19.6700    4.1320 C   0  0  0  0  0  0  0  0  0  0  0  0
    1.2930   17.6220   -0.0850 C   0  0  1  0  0  0  0  0  0  0  0  0
    0.1170   17.9760   -1.0340 C   0  0  0  0  0  0  0  0  0  0  0  0
   -0.0910   16.7530   -1.9640 C   0  0  0  0  0  0  0  0  0  0  0  0
    0.7360   15.6210   -1.3110 C   0  0  1  0  0  0  0  0  0  0  0  0
   -0.1730   15.0670   -0.1690 C   0  0  0  0  0  0  0  0  0  0  0  0
    1.2230   14.4820   -2.2650 C   0  0  2  0  0  0  0  0  0  0  0  0
    0.1020   13.6690   -2.9350 C   0  0  0  0  0  0  0  0  0  0  0  0
   -0.3490   12.4620   -2.1820 C   0  0  0  0  0  0  0  0  0  0  0  0
    0.3120   11.8850   -1.1610 C   0  0  0  0  0  0  0  0  0  0  0  0
    1.6940   12.3920   -0.7310 C   0  0  1  0  0  0  0  0  0  0  0  0
    2.6520   11.1870   -0.5410 C   0  0  0  0  0  0  0  0  0  0  0  0
    2.0920   10.1390    0.4150 C   0  0  0  0  0  0  0  0  0  0  0  0
    0.7440    9.6170   -0.0770 C   0  0  2  0  0  0  0  0  0  0  0  0
    0.9480    8.8870   -1.2910 O   0  0  0  0  0  0  0  0  0  0  0  0
   -0.3000   10.7430   -0.3130 C   0  0  0  0  0  0  0  0  0  0  0  0
   -0.7460   11.3330    1.0480 C   0  0  0  0  0  0  0  0  0  0  0  0
   -1.5650   10.0970   -0.9410 C   0  0  0  0  0  0  0  0  0  0  0  0
    2.3250   13.5370   -1.6360 C   0  0  1  0  0  0  0  0  0  0  0  0
    3.1020   12.9030   -2.8300 C   0  0  0  0  0  0  0  0  0  0  0  0
    3.3860   14.3350   -0.7890 C   0  0  0  0  0  0  0  0  0  0  0  0
    2.8610   15.5240    0.0390 C   0  0  0  0  0  0  0  0  0  0  0  0
    1.9820   16.4420   -0.8150 C   0  0  2  0  0  0  0  0  0  0  0  0
    2.8760   17.0310   -1.9590 C   0  0  0  0  0  0  0  0  0  0  0  0
    2.6641   20.7023   -0.6991 H   0  0  0  0  0  0  0  0  0  0  0  0
    3.1965   19.2380   -1.5931 H   0  0  0  0  0  0  0  0  0  0  0  0
    1.4633   19.7096   -1.5931 H   0  0  0  0  0  0  0  0  0  0  0  0
    1.6344   19.4618    0.9936 H   0  0  0  0  0  0  0  0  0  0  0  0
    3.4366   17.2795    1.0381 H   0  0  0  0  0  0  0  0  0  0  0  0
    4.2887   18.6764    0.2214 H   0  0  0  0  0  0  0  0  0  0  0  0
    3.4168   20.0615    2.2336 H   0  0  0  0  0  0  0  0  0  0  0  0
    3.2329   18.4429    3.0297 H   0  0  0  0  0  0  0  0  0  0  0  0
    5.4719   19.4582    1.6147 H   0  0  0  0  0  0  0  0  0  0  0  0
    5.4192   19.3187    6.0830 H   0  0  0  0  0  0  0  0  0  0  0  0
    4.4987   20.5100    5.1032 H   0  0  0  0  0  0  0  0  0  0  0  0
    4.0131   18.7806    5.1032 H   0  0  0  0  0  0  0  0  0  0  0  0
    7.4416   19.7490    5.2006 H   0  0  0  0  0  0  0  0  0  0  0  0
    7.8623   18.9403    3.6528 H   0  0  0  0  0  0  0  0  0  0  0  0
    7.3182   20.6522    3.6528 H   0  0  0  0  0  0  0  0  0  0  0  0
    0.9944   17.3151    0.9283 H   0  0  0  0  0  0  0  0  0  0  0  0
   -0.7957   18.1680   -0.4508 H   0  0  0  0  0  0  0  0  0  0  0  0
    0.3388   18.8822   -1.6168 H   0  0  0  0  0  0  0  0  0  0  0  0
   -1.1551   16.4783   -2.0122 H   0  0  0  0  0  0  0  0  0  0  0  0
    0.2244   16.9568   -2.9979 H   0  0  0  0  0  0  0  0  0  0  0  0
    0.2613   15.3317    0.8064 H   0  0  0  0  0  0  0  0  0  0  0  0
   -1.1778   15.5064   -0.2544 H   0  0  0  0  0  0  0  0  0  0  0  0
   -0.2430   13.9726   -0.2544 H   0  0  0  0  0  0  0  0  0  0  0  0
    1.7096   15.0446   -3.0753 H   0  0  0  0  0  0  0  0  0  0  0  0
   -0.7662   14.3315   -3.0662 H   0  0  0  0  0  0  0  0  0  0  0  0
    0.5206   13.2975   -3.8820 H   0  0  0  0  0  0  0  0  0  0  0  0
   -1.3021   12.0052   -2.4870 H   0  0  0  0  0  0  0  0  0  0  0  0
    1.5441   12.9044    0.2308 H   0  0  0  0  0  0  0  0  0  0  0  0
    2.8236   10.7154   -1.5198 H   0  0  0  0  0  0  0  0  0  0  0  0
    3.5871   11.5696   -0.1061 H   0  0  0  0  0  0  0  0  0  0  0  0
    2.7997    9.2997    0.4839 H   0  0  0  0  0  0  0  0  0  0  0  0
    1.9497   10.6039    1.4017 H   0  0  0  0  0  0  0  0  0  0  0  0
    0.3330    8.9696    0.7116 H   0  0  0  0  0  0  0  0  0  0  0  0
    0.4500    9.3390   -1.9930 H   0  0  0  0  0  0  0  0  0  0  0  0
   -0.3021   10.7457    1.8654 H   0  0  0  0  0  0  0  0  0  0  0  0
   -0.4099   12.3777    1.1226 H   0  0  0  0  0  0  0  0  0  0  0  0
   -1.8428   11.2945    1.1226 H   0  0  0  0  0  0  0  0  0  0  0  0
   -2.2371    9.7538   -0.1407 H   0  0  0  0  0  0  0  0  0  0  0  0
   -2.0854   10.8397   -1.5635 H   0  0  0  0  0  0  0  0  0  0  0  0
   -1.2684    9.2400   -1.5635 H   0  0  0  0  0  0  0  0  0  0  0  0
    3.9000   12.2519   -2.4438 H   0  0  0  0  0  0  0  0  0  0  0  0
    2.4093   12.3091   -3.4443 H   0  0  0  0  0  0  0  0  0  0  0  0
    3.5449   13.7008   -3.4443 H   0  0  0  0  0  0  0  0  0  0  0  0
    3.8569   13.6261   -0.0921 H   0  0  0  0  0  0  0  0  0  0  0  0
    4.0702   14.7780   -1.5277 H   0  0  0  0  0  0  0  0  0  0  0  0
    2.2680   15.1409    0.8825 H   0  0  0  0  0  0  0  0  0  0  0  0
    3.7215   16.1036    0.4045 H   0  0  0  0  0  0  0  0  0  0  0  0
    3.7175   17.5854   -1.5181 H   0  0  0  0  0  0  0  0  0  0  0  0
    3.2632   16.2105   -2.5810 H   0  0  0  0  0  0  0  0  0  0  0  0
    2.2749   17.7105   -2.5810 H   0  0  0  0  0  0  0  0  0  0  0  0
  1  2  1  0
  2  3  1  0
  3  4  1  0
  4  5  1  0
  5  6  1  0
  6  7  1  0
  7  8  1  0
  7  9  1  0
  2 10  1  0
 10 11  1  0
 11 12  1  0
 12 13  1  0
 13 14  1  1
 13 15  1  0
 15 16  1  0
 16 17  1  0
 17 18  2  0
 18 19  1  0
 19 20  1  0
 20 21  1  0
 21 22  1  0
 22 23  1  0
 22 24  1  0
 24 25  1  0
 24 26  1  0
 19 27  1  0
 27 28  1  6
 27 29  1  0
 29 30  1  0
 30 31  1  0
 31 32  1  6
  7  5  1  0
 31 10  1  0
 31 13  1  0
 27 15  1  0
 24 18  1  0
  1 33  1  0
  1 34  1  0
  1 35  1  0
  2 36  1  1
  3 37  1  0
  3 38  1  0
  4 39  1  0
  4 40  1  0
  5 41  1  6
  8 42  1  0
  8 43  1  0
  8 44  1  0
  9 45  1  0
  9 46  1  0
  9 47  1  0
 10 48  1  1
 11 49  1  0
 11 50  1  0
 12 51  1  0
 12 52  1  0
 14 53  1  0
 14 54  1  0
 14 55  1  0
 15 56  1  6
 16 57  1  0
 16 58  1  0
 17 59  1  0
 19 60  1  1
 20 61  1  0
 20 62  1  0
 21 63  1  0
 21 64  1  0
 22 65  1  1
 23 66  1  0
 25 67  1  0
 25 68  1  0
 25 69  1  0
 26 70  1  0
 26 71  1  0
 26 72  1  0
 28 73  1  0
 28 74  1  0
 28 75  1  0
 29 76  1  0
 29 77  1  0
 30 78  1  0
 30 79  1  0
 32 80  1  0
 32 81  1  0
 32 82  1  0
M  END
>  <meeko>  (2) 
{"is_sidechain": [false], "intermolecular_energy": 2.731, "internal_energy": -0.839}

$$$$
EPH_relaxed_0001_pdb2pqr_Repair_412_r2_0001_out
     RDKit          3D

 82 86  0  0  0  0  0  0  0  0999 V2000
    0.4520   18.4180   -0.0630 C   0  0  0  0  0  0  0  0  0  0  0  0
    1.5280   17.3450   -0.2490 C   0  0  2  0  0  0  0  0  0  0  0  0
    2.7650   17.8870   -0.9940 C   0  0  0  0  0  0  0  0  0  0  0  0
    3.9870   18.0870   -0.0940 C   0  0  0  0  0  0  0  0  0  0  0  0
    3.6000   18.5870    1.2640 C   0  0  2  0  0  0  0  0  0  0  0  0
    3.8160   19.9900    1.4700 O   0  0  0  0  0  0  0  0  0  0  0  0
    4.5990   19.1020    2.2830 C   0  0  0  0  0  0  0  0  0  0  0  0
    6.0660   19.1400    1.9870 C   0  0  0  0  0  0  0  0  0  0  0  0
    4.2100   19.1070    3.7280 C   0  0  0  0  0  0  0  0  0  0  0  0
    0.9490   16.1520   -0.9990 C   0  0  1  0  0  0  0  0  0  0  0  0
    0.8220   16.4100   -2.5240 C   0  0  0  0  0  0  0  0  0  0  0  0
    1.1050   15.0590   -3.2310 C   0  0  0  0  0  0  0  0  0  0  0  0
    1.0560   14.0080   -2.0980 C   0  0  1  0  0  0  0  0  0  0  0  0
   -0.4630   13.7210   -1.8820 C   0  0  0  0  0  0  0  0  0  0  0  0
    1.8640   12.6910   -2.3410 C   0  0  2  0  0  0  0  0  0  0  0  0
    1.3900   11.8470   -3.5370 C   0  0  0  0  0  0  0  0  0  0  0  0
    0.3530   10.8210   -3.2220 C   0  0  0  0  0  0  0  0  0  0  0  0
    0.0270   10.3900   -1.9890 C   0  0  0  0  0  0  0  0  0  0  0  0
    0.8000   10.8750   -0.7560 C   0  0  1  0  0  0  0  0  0  0  0  0
    1.1490    9.6630    0.1470 C   0  0  0  0  0  0  0  0  0  0  0  0
   -0.0790    8.8360    0.5150 C   0  0  0  0  0  0  0  0  0  0  0  0
   -0.7870    8.3230   -0.7360 C   0  0  2  0  0  0  0  0  0  0  0  0
    0.0660    7.3810   -1.3940 O   0  0  0  0  0  0  0  0  0  0  0  0
   -1.1790    9.4550   -1.7260 C   0  0  0  0  0  0  0  0  0  0  0  0
   -2.3270   10.3010   -1.1220 C   0  0  0  0  0  0  0  0  0  0  0  0
   -1.7550    8.7910   -3.0060 C   0  0  0  0  0  0  0  0  0  0  0  0
    2.0580   11.8020   -1.0470 C   0  0  1  0  0  0  0  0  0  0  0  0
    3.3210   10.9220   -1.2970 C   0  0  0  0  0  0  0  0  0  0  0  0
    2.3660   12.6660    0.2330 C   0  0  0  0  0  0  0  0  0  0  0  0
    1.6260   14.0120    0.3570 C   0  0  0  0  0  0  0  0  0  0  0  0
    1.7400   14.8210   -0.9390 C   0  0  2  0  0  0  0  0  0  0  0  0
    3.2550   15.1440   -1.1700 C   0  0  0  0  0  0  0  0  0  0  0  0
    0.2835   18.5860    1.0110 H   0  0  0  0  0  0  0  0  0  0  0  0
    0.7839   19.3554   -0.5332 H   0  0  0  0  0  0  0  0  0  0  0  0
   -0.4845   18.0835   -0.5332 H   0  0  0  0  0  0  0  0  0  0  0  0
    1.8573   17.0294    0.7520 H   0  0  0  0  0  0  0  0  0  0  0  0
    3.0317   17.1744   -1.7884 H   0  0  0  0  0  0  0  0  0  0  0  0
    2.4931   18.8761   -1.3912 H   0  0  0  0  0  0  0  0  0  0  0  0
    4.5098   17.1254    0.0160 H   0  0  0  0  0  0  0  0  0  0  0  0
    4.6385   18.8390   -0.5631 H   0  0  0  0  0  0  0  0  0  0  0  0
    2.7927   17.8430    1.3330 H   0  0  0  0  0  0  0  0  0  0  0  0
    6.6303   19.1546    2.9311 H   0  0  0  0  0  0  0  0  0  0  0  0
    6.3461   18.2488    1.4062 H   0  0  0  0  0  0  0  0  0  0  0  0
    6.2996   20.0445    1.4062 H   0  0  0  0  0  0  0  0  0  0  0  0
    5.1160   19.0954    4.3517 H   0  0  0  0  0  0  0  0  0  0  0  0
    3.6256   20.0127    3.9473 H   0  0  0  0  0  0  0  0  0  0  0  0
    3.6025   18.2166    3.9473 H   0  0  0  0  0  0  0  0  0  0  0  0
   -0.0068   16.0452   -0.4652 H   0  0  0  0  0  0  0  0  0  0  0  0
   -0.1927   16.7590   -2.7660 H   0  0  0  0  0  0  0  0  0  0  0  0
    1.5299   17.1846   -2.8540 H   0  0  0  0  0  0  0  0  0  0  0  0
    0.3361   14.8489   -3.9891 H   0  0  0  0  0  0  0  0  0  0  0  0
    2.0701   15.0586   -3.7589 H   0  0  0  0  0  0  0  0  0  0  0  0
   -0.6788   13.6802   -0.8041 H   0  0  0  0  0  0  0  0  0  0  0  0
   -1.0571   14.5228   -2.3448 H   0  0  0  0  0  0  0  0  0  0  0  0
   -0.7236   12.7577   -2.3448 H   0  0  0  0  0  0  0  0  0  0  0  0
    2.8582   13.0712   -2.6186 H   0  0  0  0  0  0  0  0  0  0  0  0
    0.9737   12.5305   -4.2916 H   0  0  0  0  0  0  0  0  0  0  0  0
    2.2725   11.2906   -3.8857 H   0  0  0  0  0  0  0  0  0  0  0  0
   -0.1914   10.3792   -4.0696 H   0  0  0  0  0  0  0  0  0  0  0  0
    0.1218   11.5556   -0.2204 H   0  0  0  0  0  0  0  0  0  0  0  0
    1.8613    9.0179   -0.3882 H   0  0  0  0  0  0  0  0  0  0  0  0
    1.5802   10.0546    1.0801 H   0  0  0  0  0  0  0  0  0  0  0  0
    0.2352    7.9783    1.1279 H   0  0  0  0  0  0  0  0  0  0  0  0
   -0.7769    9.4749    1.0759 H   0  0  0  0  0  0  0  0  0  0  0  0
   -1.7265    7.8504   -0.4136 H   0  0  0  0  0  0  0  0  0  0  0  0
   -0.4530    6.5740   -1.5520 H   0  0  0  0  0  0  0  0  0  0  0  0
   -2.2732   10.2613   -0.0240 H   0  0  0  0  0  0  0  0  0  0  0  0
   -2.2288   11.3443   -1.4565 H   0  0  0  0  0  0  0  0  0  0  0  0
   -3.2944    9.8983   -1.4565 H   0  0  0  0  0  0  0  0  0  0  0  0
   -2.4512    7.9884   -2.7212 H   0  0  0  0  0  0  0  0  0  0  0  0
   -2.2894    9.5456   -3.6018 H   0  0  0  0  0  0  0  0  0  0  0  0
   -0.9325    8.3686   -3.6018 H   0  0  0  0  0  0  0  0  0  0  0  0
    3.7544   10.6201   -0.3321 H   0  0  0  0  0  0  0  0  0  0  0  0
    3.0363   10.0257   -1.8676 H   0  0  0  0  0  0  0  0  0  0  0  0
    4.0632   11.4995   -1.8676 H   0  0  0  0  0  0  0  0  0  0  0  0
    2.1056   12.0606    1.1137 H   0  0  0  0  0  0  0  0  0  0  0  0
    3.4311   12.9292    0.1533 H   0  0  0  0  0  0  0  0  0  0  0  0
    0.5639   13.8206    0.5696 H   0  0  0  0  0  0  0  0  0  0  0  0
    2.0836   14.5903    1.1732 H   0  0  0  0  0  0  0  0  0  0  0  0
    3.7593   15.2515   -0.1983 H   0  0  0  0  0  0  0  0  0  0  0  0
    3.7222   14.3253   -1.7370 H   0  0  0  0  0  0  0  0  0  0  0  0
    3.3476   16.0821   -1.7370 H   0  0  0  0  0  0  0  0  0  0  0  0
  1  2  1  0
  2  3  1  0
  3  4  1  0
  4  5  1  0
  5  6  1  0
  6  7  1  0
  7  8  1  0
  7  9  1  0
  2 10  1  0
 10 11  1  0
 11 12  1  0
 12 13  1  0
 13 14  1  1
 13 15  1  0
 15 16  1  0
 16 17  1  0
 17 18  2  0
 18 19  1  0
 19 20  1  0
 20 21  1  0
 21 22  1  0
 22 23  1  0
 22 24  1  0
 24 25  1  0
 24 26  1  0
 19 27  1  0
 27 28  1  6
 27 29  1  0
 29 30  1  0
 30 31  1  0
 31 32  1  6
  7  5  1  0
 31 10  1  0
 31 13  1  0
 27 15  1  0
 24 18  1  0
  1 33  1  0
  1 34  1  0
  1 35  1  0
  2 36  1  1
  3 37  1  0
  3 38  1  0
  4 39  1  0
  4 40  1  0
  5 41  1  1
  8 42  1  0
  8 43  1  0
  8 44  1  0
  9 45  1  0
  9 46  1  0
  9 47  1  0
 10 48  1  1
 11 49  1  0
 11 50  1  0
 12 51  1  0
 12 52  1  0
 14 53  1  0
 14 54  1  0
 14 55  1  0
 15 56  1  6
 16 57  1  0
 16 58  1  0
 17 59  1  0
 19 60  1  1
 20 61  1  0
 20 62  1  0
 21 63  1  0
 21 64  1  0
 22 65  1  1
 23 66  1  0
 25 67  1  0
 25 68  1  0
 25 69  1  0
 26 70  1  0
 26 71  1  0
 26 72  1  0
 28 73  1  0
 28 74  1  0
 28 75  1  0
 29 76  1  0
 29 77  1  0
 30 78  1  0
 30 79  1  0
 32 80  1  0
 32 81  1  0
 32 82  1  0
M  END
>  <meeko>  (3) 
{"is_sidechain": [false], "intermolecular_energy": 2.731, "internal_energy": -0.839}

$$$$
EPH_relaxed_0001_pdb2pqr_Repair_412_r2_0001_out
     RDKit          3D

 82 86  0  0  0  0  0  0  0  0999 V2000
    2.2890   18.1040   -2.7060 C   0  0  0  0  0  0  0  0  0  0  0  0
    1.0300   17.6930   -1.9380 C   0  0  2  0  0  0  0  0  0  0  0  0
    1.2410   17.7330   -0.4110 C   0  0  0  0  0  0  0  0  0  0  0  0
    0.9030   19.0860    0.2210 C   0  0  0  0  0  0  0  0  0  0  0  0
   -0.5420   19.1720    0.6060 C   0  0  2  0  0  0  0  0  0  0  0  0
   -1.4070   18.2820   -0.1100 O   0  0  0  0  0  0  0  0  0  0  0  0
   -1.6260   19.6860   -0.3230 C   0  0  0  0  0  0  0  0  0  0  0  0
   -1.3100   20.1470   -1.7110 C   0  0  0  0  0  0  0  0  0  0  0  0
   -2.9000   20.1940    0.2760 C   0  0  0  0  0  0  0  0  0  0  0  0
    0.5920   16.2980   -2.3670 C   0  0  1  0  0  0  0  0  0  0  0  0
    0.6690   16.0930   -3.9040 C   0  0  0  0  0  0  0  0  0  0  0  0
    1.0830   14.6180   -4.1390 C   0  0  0  0  0  0  0  0  0  0  0  0
    0.9080   13.9390   -2.7600 C   0  0  1  0  0  0  0  0  0  0  0  0
   -0.6180   13.6260   -2.6580 C   0  0  0  0  0  0  0  0  0  0  0  0
    1.7770   12.6660   -2.5010 C   0  0  2  0  0  0  0  0  0  0  0  0
    1.4960   11.4810   -3.4420 C   0  0  0  0  0  0  0  0  0  0  0  0
    0.4530   10.5230   -2.9680 C   0  0  0  0  0  0  0  0  0  0  0  0
   -0.0260   10.4480   -1.7130 C   0  0  0  0  0  0  0  0  0  0  0  0
    0.5560   11.3200   -0.5930 C   0  0  1  0  0  0  0  0  0  0  0  0
    0.8110   10.4470    0.6640 C   0  0  0  0  0  0  0  0  0  0  0  0
   -0.4330    9.6820    1.1070 C   0  0  0  0  0  0  0  0  0  0  0  0
   -0.9480    8.7830   -0.0140 C   0  0  2  0  0  0  0  0  0  0  0  0
    0.0130    7.7500   -0.2540 O   0  0  0  0  0  0  0  0  0  0  0  0
   -1.2310    9.5510   -1.3350 C   0  0  0  0  0  0  0  0  0  0  0  0
   -2.4740   10.4570   -1.1550 C   0  0  0  0  0  0  0  0  0  0  0  0
   -1.6080    8.5080   -2.4220 C   0  0  0  0  0  0  0  0  0  0  0  0
    1.8160   12.2040   -0.9880 C   0  0  1  0  0  0  0  0  0  0  0  0
    3.1250   11.3760   -0.8090 C   0  0  0  0  0  0  0  0  0  0  0  0
    1.9220   13.4210    0.0060 C   0  0  0  0  0  0  0  0  0  0  0  0
    1.1350   14.6920   -0.3660 C   0  0  0  0  0  0  0  0  0  0  0  0
    1.4030   15.0970   -1.8190 C   0  0  2  0  0  0  0  0  0  0  0  0
    2.9270   15.4400   -1.9470 C   0  0  0  0  0  0  0  0  0  0  0  0
    3.0851   18.3639   -1.9928 H   0  0  0  0  0  0  0  0  0  0  0  0
    2.6220   17.2679   -3.3385 H   0  0  0  0  0  0  0  0  0  0  0  0
    2.0645   18.9755   -3.3385 H   0  0  0  0  0  0  0  0  0  0  0  0
    0.2422   18.4213   -2.1808 H   0  0  0  0  0  0  0  0  0  0  0  0
    0.6009   16.9654    0.0484 H   0  0  0  0  0  0  0  0  0  0  0  0
    2.3105   17.5510   -0.2290 H   0  0  0  0  0  0  0  0  0  0  0  0
    1.5205   19.2233    1.1209 H   0  0  0  0  0  0  0  0  0  0  0  0
    1.1076   19.8718   -0.5211 H   0  0  0  0  0  0  0  0  0  0  0  0
   -0.2747   19.4291    1.6416 H   0  0  0  0  0  0  0  0  0  0  0  0
   -0.6886   21.0535   -1.6637 H   0  0  0  0  0  0  0  0  0  0  0  0
   -0.7637   19.3554   -2.2448 H   0  0  0  0  0  0  0  0  0  0  0  0
   -2.2453   20.3710   -2.2448 H   0  0  0  0  0  0  0  0  0  0  0  0
   -2.8266   20.1647    1.3732 H   0  0  0  0  0  0  0  0  0  0  0  0
   -3.0722   21.2296   -0.0525 H   0  0  0  0  0  0  0  0  0  0  0  0
   -3.7376   19.5611   -0.0525 H   0  0  0  0  0  0  0  0  0  0  0  0
   -0.4249   16.2882   -1.9477 H   0  0  0  0  0  0  0  0  0  0  0  0
   -0.3120   16.2885   -4.3617 H   0  0  0  0  0  0  0  0  0  0  0  0
    1.3945   16.7837   -4.3584 H   0  0  0  0  0  0  0  0  0  0  0  0
    0.4313   14.1466   -4.8894 H   0  0  0  0  0  0  0  0  0  0  0  0
    2.1109   14.5290   -4.5203 H   0  0  0  0  0  0  0  0  0  0  0  0
   -0.9100   13.5661   -1.5992 H   0  0  0  0  0  0  0  0  0  0  0  0
   -1.1901   14.4255   -3.1515 H   0  0  0  0  0  0  0  0  0  0  0  0
   -0.8292   12.6658   -3.1515 H   0  0  0  0  0  0  0  0  0  0  0  0
    2.7884   13.0165   -2.7545 H   0  0  0  0  0  0  0  0  0  0  0  0
    1.1697   11.8865   -4.4111 H   0  0  0  0  0  0  0  0  0  0  0  0
    2.4331   10.9076   -3.4972 H   0  0  0  0  0  0  0  0  0  0  0  0
    0.0419    9.8196   -3.7070 H   0  0  0  0  0  0  0  0  0  0  0  0
   -0.2078   12.0796   -0.3704 H   0  0  0  0  0  0  0  0  0  0  0  0
    1.6072    9.7233    0.4352 H   0  0  0  0  0  0  0  0  0  0  0  0
    1.0994   11.1198    1.4851 H   0  0  0  0  0  0  0  0  0  0  0  0
   -0.1822    9.0613    1.9799 H   0  0  0  0  0  0  0  0  0  0  0  0
   -1.2186   10.4077    1.3643 H   0  0  0  0  0  0  0  0  0  0  0  0
   -1.9096    8.3627    0.3156 H   0  0  0  0  0  0  0  0  0  0  0  0
    0.2220    7.3380    0.6020 H   0  0  0  0  0  0  0  0  0  0  0  0
   -2.6709   10.6005   -0.0823 H   0  0  0  0  0  0  0  0  0  0  0  0
   -2.2880   11.4328   -1.6274 H   0  0  0  0  0  0  0  0  0  0  0  0
   -3.3460    9.9812   -1.6274 H   0  0  0  0  0  0  0  0  0  0  0  0
   -1.9438    7.5790   -1.9380 H   0  0  0  0  0  0  0  0  0  0  0  0
   -2.4183    8.9084   -3.0490 H   0  0  0  0  0  0  0  0  0  0  0  0
   -0.7290    8.2978   -3.0490 H   0  0  0  0  0  0  0  0  0  0  0  0
    3.3322   11.2449    0.2633 H   0  0  0  0  0  0  0  0  0  0  0  0
    3.0030   10.3904   -1.2820 H   0  0  0  0  0  0  0  0  0  0  0  0
    3.9633   11.9085   -1.2820 H   0  0  0  0  0  0  0  0  0  0  0  0
    1.5607   13.0812    0.9878 H   0  0  0  0  0  0  0  0  0  0  0  0
    2.9802   13.7204   -0.0173 H   0  0  0  0  0  0  0  0  0  0  0  0
    0.0595   14.4995   -0.2386 H   0  0  0  0  0  0  0  0  0  0  0  0
    1.4601   15.5112    0.2922 H   0  0  0  0  0  0  0  0  0  0  0  0
    3.3661   15.5388   -0.9433 H   0  0  0  0  0  0  0  0  0  0  0  0
    3.4394   14.6347   -2.4938 H   0  0  0  0  0  0  0  0  0  0  0  0
    3.0450   16.3872   -2.4938 H   0  0  0  0  0  0  0  0  0  0  0  0
  1  2  1  0
  2  3  1  0
  3  4  1  0
  4  5  1  0
  5  6  1  0
  6  7  1  0
  7  8  1  0
  7  9  1  0
  2 10  1  0
 10 11  1  0
 11 12  1  0
 12 13  1  0
 13 14  1  1
 13 15  1  0
 15 16  1  0
 16 17  1  0
 17 18  2  0
 18 19  1  0
 19 20  1  0
 20 21  1  0
 21 22  1  0
 22 23  1  0
 22 24  1  0
 24 25  1  0
 24 26  1  0
 19 27  1  0
 27 28  1  6
 27 29  1  0
 29 30  1  0
 30 31  1  0
 31 32  1  1
  7  5  1  0
 31 10  1  0
 31 13  1  0
 27 15  1  0
 24 18  1  0
  1 33  1  0
  1 34  1  0
  1 35  1  0
  2 36  1  1
  3 37  1  0
  3 38  1  0
  4 39  1  0
  4 40  1  0
  5 41  1  1
  8 42  1  0
  8 43  1  0
  8 44  1  0
  9 45  1  0
  9 46  1  0
  9 47  1  0
 10 48  1  1
 11 49  1  0
 11 50  1  0
 12 51  1  0
 12 52  1  0
 14 53  1  0
 14 54  1  0
 14 55  1  0
 15 56  1  6
 16 57  1  0
 16 58  1  0
 17 59  1  0
 19 60  1  1
 20 61  1  0
 20 62  1  0
 21 63  1  0
 21 64  1  0
 22 65  1  1
 23 66  1  0
 25 67  1  0
 25 68  1  0
 25 69  1  0
 26 70  1  0
 26 71  1  0
 26 72  1  0
 28 73  1  0
 28 74  1  0
 28 75  1  0
 29 76  1  0
 29 77  1  0
 30 78  1  0
 30 79  1  0
 32 80  1  0
 32 81  1  0
 32 82  1  0
M  END
>  <meeko>  (4) 
{"is_sidechain": [false], "intermolecular_energy": 2.731, "internal_energy": -0.839}

$$$$
EPH_relaxed_0001_pdb2pqr_Repair_412_r2_0001_out
     RDKit          3D

 82 86  0  0  0  0  0  0  0  0999 V2000
    3.6230   17.9190    0.6690 C   0  0  0  0  0  0  0  0  0  0  0  0
    2.6980   18.2140   -0.5160 C   0  0  2  0  0  0  0  0  0  0  0  0
    1.9660   19.5620   -0.3590 C   0  0  0  0  0  0  0  0  0  0  0  0
    0.9930   19.6000    0.8230 C   0  0  0  0  0  0  0  0  0  0  0  0
   -0.3390   20.1620    0.4260 C   0  0  2  0  0  0  0  0  0  0  0  0
   -1.3150   20.1860    1.4760 O   0  0  0  0  0  0  0  0  0  0  0  0
   -1.6090   19.3350    0.3570 C   0  0  0  0  0  0  0  0  0  0  0  0
   -1.6090   17.8750    0.6860 C   0  0  0  0  0  0  0  0  0  0  0  0
   -2.7380   19.8270   -0.4950 C   0  0  0  0  0  0  0  0  0  0  0  0
    1.6850   17.0870   -0.6780 C   0  0  1  0  0  0  0  0  0  0  0  0
    0.4810   17.4890   -1.5710 C   0  0  0  0  0  0  0  0  0  0  0  0
    0.0670   16.2210   -2.3600 C   0  0  0  0  0  0  0  0  0  0  0  0
    0.8160   15.0630   -1.6600 C   0  0  1  0  0  0  0  0  0  0  0  0
   -0.0520   14.7220   -0.4090 C   0  0  0  0  0  0  0  0  0  0  0  0
    1.0970   13.7950   -2.5310 C   0  0  2  0  0  0  0  0  0  0  0  0
   -0.1560   13.0610   -3.0390 C   0  0  0  0  0  0  0  0  0  0  0  0
   -0.6720   11.9860   -2.1410 C   0  0  0  0  0  0  0  0  0  0  0  0
    0.0030   11.4290   -1.1190 C   0  0  0  0  0  0  0  0  0  0  0  0
    1.4630   11.8090   -0.8390 C   0  0  1  0  0  0  0  0  0  0  0  0
    2.2970   10.5230   -0.6010 C   0  0  0  0  0  0  0  0  0  0  0  0
    1.7050    9.6360    0.4900 C   0  0  0  0  0  0  0  0  0  0  0  0
    0.2740    9.2310    0.1480 C   0  0  2  0  0  0  0  0  0  0  0  0
    0.2980    8.3780   -1.0010 O   0  0  0  0  0  0  0  0  0  0  0  0
   -0.6580   10.4450   -0.1220 C   0  0  0  0  0  0  0  0  0  0  0  0
   -0.9250   11.2020    1.2030 C   0  0  0  0  0  0  0  0  0  0  0  0
   -2.0320    9.8970   -0.5930 C   0  0  0  0  0  0  0  0  0  0  0  0
    2.1380   12.7890   -1.8930 C   0  0  1  0  0  0  0  0  0  0  0  0
    2.7420   11.9660   -3.0720 C   0  0  0  0  0  0  0  0  0  0  0  0
    3.3450   13.5310   -1.2060 C   0  0  0  0  0  0  0  0  0  0  0  0
    3.0210   14.8410   -0.4620 C   0  0  0  0  0  0  0  0  0  0  0  0
    2.1800   15.7750   -1.3370 C   0  0  2  0  0  0  0  0  0  0  0  0
    3.0360   16.1540   -2.5930 C   0  0  0  0  0  0  0  0  0  0  0  0
    3.0801   18.0921    1.6099 H   0  0  0  0  0  0  0  0  0  0  0  0
    3.9536   16.8708    0.6240 H   0  0  0  0  0  0  0  0  0  0  0  0
    4.4994   18.5822    0.6240 H   0  0  0  0  0  0  0  0  0  0  0  0
    3.3255   18.2818   -1.4169 H   0  0  0  0  0  0  0  0  0  0  0  0
    2.7186   20.3512   -0.2148 H   0  0  0  0  0  0  0  0  0  0  0  0
    1.3698   19.7123   -1.2711 H   0  0  0  0  0  0  0  0  0  0  0  0
    0.8501   18.5767    1.2003 H   0  0  0  0  0  0  0  0  0  0  0  0
    1.4220   20.2499    1.5999 H   0  0  0  0  0  0  0  0  0  0  0  0
    0.1368   20.8448   -0.2934 H   0  0  0  0  0  0  0  0  0  0  0  0
   -0.5719   17.5173    0.7666 H   0  0  0  0  0  0  0  0  0  0  0  0
   -2.1275   17.7147    1.6428 H   0  0  0  0  0  0  0  0  0  0  0  0
   -2.1275   17.3199   -0.1096 H   0  0  0  0  0  0  0  0  0  0  0  0
   -3.5553   20.1832    0.1493 H   0  0  0  0  0  0  0  0  0  0  0  0
   -2.3852   20.6530   -1.1301 H   0  0  0  0  0  0  0  0  0  0  0  0
   -3.1028   19.0062   -1.1301 H   0  0  0  0  0  0  0  0  0  0  0  0
    1.4387   16.9077    0.3790 H   0  0  0  0  0  0  0  0  0  0  0  0
   -0.3550   17.8361   -0.9460 H   0  0  0  0  0  0  0  0  0  0  0  0
    0.7514   18.3083   -2.2534 H   0  0  0  0  0  0  0  0  0  0  0  0
   -1.0210   16.0683   -2.3061 H   0  0  0  0  0  0  0  0  0  0  0  0
    0.3182   16.2943   -3.4284 H   0  0  0  0  0  0  0  0  0  0  0  0
    0.5179   14.9459    0.5048 H   0  0  0  0  0  0  0  0  0  0  0  0
   -0.9713   15.3258   -0.4249 H   0  0  0  0  0  0  0  0  0  0  0  0
   -0.3145   13.6539   -0.4249 H   0  0  0  0  0  0  0  0  0  0  0  0
    1.5738   14.2236   -3.4248 H   0  0  0  0  0  0  0  0  0  0  0  0
   -0.9551   13.8050   -3.1729 H   0  0  0  0  0  0  0  0  0  0  0  0
    0.1411   12.5615   -3.9729 H   0  0  0  0  0  0  0  0  0  0  0  0
   -1.6910   11.6178   -2.3310 H   0  0  0  0  0  0  0  0  0  0  0  0
    1.4487   12.4181    0.0769 H   0  0  0  0  0  0  0  0  0  0  0  0
    2.3365    9.9496   -1.5389 H   0  0  0  0  0  0  0  0  0  0  0  0
    3.3005   10.8316   -0.2728 H   0  0  0  0  0  0  0  0  0  0  0  0
    2.3209    8.7302    0.5910 H   0  0  0  0  0  0  0  0  0  0  0  0
    1.6936   10.2011    1.4337 H   0  0  0  0  0  0  0  0  0  0  0  0
   -0.1385    8.7071    1.0229 H   0  0  0  0  0  0  0  0  0  0  0  0
    0.5410    8.9240   -1.7670 H   0  0  0  0  0  0  0  0  0  0  0  0
   -0.6932   10.5447    2.0540 H   0  0  0  0  0  0  0  0  0  0  0  0
   -0.2887   12.0982    1.2479 H   0  0  0  0  0  0  0  0  0  0  0  0
   -1.9827   11.5007    1.2479 H   0  0  0  0  0  0  0  0  0  0  0  0
   -2.6488    9.6510    0.2840 H   0  0  0  0  0  0  0  0  0  0  0  0
   -2.5431   10.6601   -1.1983 H   0  0  0  0  0  0  0  0  0  0  0  0
   -1.8777    8.9916   -1.1983 H   0  0  0  0  0  0  0  0  0  0  0  0
    3.3479   11.1404   -2.6703 H   0  0  0  0  0  0  0  0  0  0  0  0
    1.9280   11.5571   -3.6886 H   0  0  0  0  0  0  0  0  0  0  0  0
    3.3761   12.6199   -3.6886 H   0  0  0  0  0  0  0  0  0  0  0  0
    3.7923   12.8371   -0.4791 H   0  0  0  0  0  0  0  0  0  0  0  0
    4.0102   13.8250   -2.0313 H   0  0  0  0  0  0  0  0  0  0  0  0
    2.4605   14.6050    0.4546 H   0  0  0  0  0  0  0  0  0  0  0  0
    3.9660   15.3474   -0.2160 H   0  0  0  0  0  0  0  0  0  0  0  0
    3.9967   16.5794   -2.2672 H   0  0  0  0  0  0  0  0  0  0  0  0
    3.2198   15.2531   -3.1969 H   0  0  0  0  0  0  0  0  0  0  0  0
    2.4926   16.8956   -3.1969 H   0  0  0  0  0  0  0  0  0  0  0  0
  1  2  1  0
  2  3  1  0
  3  4  1  0
  4  5  1  0
  5  6  1  0
  6  7  1  0
  7  8  1  0
  7  9  1  0
  2 10  1  0
 10 11  1  0
 11 12  1  0
 12 13  1  0
 13 14  1  1
 13 15  1  0
 15 16  1  0
 16 17  1  0
 17 18  2  0
 18 19  1  0
 19 20  1  0
 20 21  1  0
 21 22  1  0
 22 23  1  0
 22 24  1  0
 24 25  1  0
 24 26  1  0
 19 27  1  0
 27 28  1  6
 27 29  1  0
 29 30  1  0
 30 31  1  0
 31 32  1  6
  7  5  1  0
 31 10  1  0
 31 13  1  0
 27 15  1  0
 24 18  1  0
  1 33  1  0
  1 34  1  0
  1 35  1  0
  2 36  1  6
  3 37  1  0
  3 38  1  0
  4 39  1  0
  4 40  1  0
  5 41  1  6
  8 42  1  0
  8 43  1  0
  8 44  1  0
  9 45  1  0
  9 46  1  0
  9 47  1  0
 10 48  1  1
 11 49  1  0
 11 50  1  0
 12 51  1  0
 12 52  1  0
 14 53  1  0
 14 54  1  0
 14 55  1  0
 15 56  1  6
 16 57  1  0
 16 58  1  0
 17 59  1  0
 19 60  1  1
 20 61  1  0
 20 62  1  0
 21 63  1  0
 21 64  1  0
 22 65  1  1
 23 66  1  0
 25 67  1  0
 25 68  1  0
 25 69  1  0
 26 70  1  0
 26 71  1  0
 26 72  1  0
 28 73  1  0
 28 74  1  0
 28 75  1  0
 29 76  1  0
 29 77  1  0
 30 78  1  0
 30 79  1  0
 32 80  1  0
 32 81  1  0
 32 82  1  0
M  END
>  <meeko>  (5) 
{"is_sidechain": [false], "intermolecular_energy": 2.731, "internal_energy": -0.839}

$$$$
EPH_relaxed_0001_pdb2pqr_Repair_412_r2_0001_out
     RDKit          3D

 82 86  0  0  0  0  0  0  0  0999 V2000
   -5.1400    5.8860   -1.6960 C   0  0  0  0  0  0  0  0  0  0  0  0
   -5.4360    7.3870   -1.7700 C   0  0  2  0  0  0  0  0  0  0  0  0
   -5.2140    8.0900   -0.4160 C   0  0  0  0  0  0  0  0  0  0  0  0
   -4.1320    9.1730   -0.4560 C   0  0  0  0  0  0  0  0  0  0  0  0
   -2.8100    8.6200   -0.8940 C   0  0  2  0  0  0  0  0  0  0  0  0
   -1.7420    8.8090    0.0440 O   0  0  0  0  0  0  0  0  0  0  0  0
   -1.6060    9.4860   -1.2170 C   0  0  0  0  0  0  0  0  0  0  0  0
   -1.6690   10.9780   -1.1160 C   0  0  0  0  0  0  0  0  0  0  0  0
   -0.5320    8.9200   -2.0920 C   0  0  0  0  0  0  0  0  0  0  0  0
   -6.8670    7.6110   -2.2450 C   0  0  1  0  0  0  0  0  0  0  0  0
   -7.1610    6.9220   -3.6040 C   0  0  0  0  0  0  0  0  0  0  0  0
   -8.6350    6.4430   -3.5540 C   0  0  0  0  0  0  0  0  0  0  0  0
   -9.2340    7.1550   -2.3190 C   0  0  1  0  0  0  0  0  0  0  0  0
   -9.5860    8.5930   -2.8160 C   0  0  0  0  0  0  0  0  0  0  0  0
  -10.4640    6.4590   -1.6490 C   0  0  2  0  0  0  0  0  0  0  0  0
  -11.7100    6.3350   -2.5430 C   0  0  0  0  0  0  0  0  0  0  0  0
  -12.6690    7.4760   -2.4630 C   0  0  0  0  0  0  0  0  0  0  0  0
  -12.6840    8.4200   -1.5030 C   0  0  0  0  0  0  0  0  0  0  0  0
  -11.7290    8.3390   -0.3050 C   0  0  1  0  0  0  0  0  0  0  0  0
  -12.5170    8.6080    1.0040 C   0  0  0  0  0  0  0  0  0  0  0  0
  -13.2910    9.9220    0.9610 C   0  0  0  0  0  0  0  0  0  0  0  0
  -14.2710    9.9410   -0.2090 C   0  0  2  0  0  0  0  0  0  0  0  0
  -15.2870    8.9610    0.0260 O   0  0  0  0  0  0  0  0  0  0  0  0
  -13.5920    9.6710   -1.5810 C   0  0  0  0  0  0  0  0  0  0  0  0
  -12.7140   10.8850   -1.9750 C   0  0  0  0  0  0  0  0  0  0  0  0
  -14.7090    9.5770   -2.6560 C   0  0  0  0  0  0  0  0  0  0  0  0
  -10.8320    7.0300   -0.2200 C   0  0  1  0  0  0  0  0  0  0  0  0
  -11.6090    5.9000    0.5230 C   0  0  0  0  0  0  0  0  0  0  0  0
   -9.5560    7.3360    0.6490 C   0  0  0  0  0  0  0  0  0  0  0  0
   -8.3330    7.9110   -0.0910 C   0  0  0  0  0  0  0  0  0  0  0  0
   -8.0080    7.0840   -1.3380 C   0  0  2  0  0  0  0  0  0  0  0  0
   -7.6280    5.6380   -0.8670 C   0  0  0  0  0  0  0  0  0  0  0  0
   -5.0788    5.5758   -0.6424 H   0  0  0  0  0  0  0  0  0  0  0  0
   -5.9455    5.3283   -2.1962 H   0  0  0  0  0  0  0  0  0  0  0  0
   -4.1831    5.6759   -2.1962 H   0  0  0  0  0  0  0  0  0  0  0  0
   -4.7315    7.8286   -2.4902 H   0  0  0  0  0  0  0  0  0  0  0  0
   -6.1612    8.5564   -0.1072 H   0  0  0  0  0  0  0  0  0  0  0  0
   -4.8742    7.3215    0.2939 H   0  0  0  0  0  0  0  0  0  0  0  0
   -4.4406    9.9593   -1.1607 H   0  0  0  0  0  0  0  0  0  0  0  0
   -4.0146    9.5780    0.5600 H   0  0  0  0  0  0  0  0  0  0  0  0
   -3.3059    7.8098   -1.4488 H   0  0  0  0  0  0  0  0  0  0  0  0
   -1.6815   11.2736   -0.0565 H   0  0  0  0  0  0  0  0  0  0  0  0
   -0.7886   11.4164   -1.6086 H   0  0  0  0  0  0  0  0  0  0  0  0
   -2.5833   11.3406   -1.6086 H   0  0  0  0  0  0  0  0  0  0  0  0
    0.2676    8.4986   -1.4651 H   0  0  0  0  0  0  0  0  0  0  0  0
   -0.9558    8.1281   -2.7271 H   0  0  0  0  0  0  0  0  0  0  0  0
   -0.1183    9.7172   -2.7271 H   0  0  0  0  0  0  0  0  0  0  0  0
   -6.8825    8.7106   -2.2698 H   0  0  0  0  0  0  0  0  0  0  0  0
   -7.0229    7.6368   -4.4286 H   0  0  0  0  0  0  0  0  0  0  0  0
   -6.4771    6.0774   -3.7744 H   0  0  0  0  0  0  0  0  0  0  0  0
   -9.1701    6.7366   -4.4691 H   0  0  0  0  0  0  0  0  0  0  0  0
   -8.7160    5.3482   -3.4848 H   0  0  0  0  0  0  0  0  0  0  0  0
   -9.7471    9.2512   -1.9495 H   0  0  0  0  0  0  0  0  0  0  0  0
   -8.7570    8.9839   -3.4243 H   0  0  0  0  0  0  0  0  0  0  0  0
  -10.5018    8.5568   -3.4243 H   0  0  0  0  0  0  0  0  0  0  0  0
  -10.1013    5.4315   -1.4984 H   0  0  0  0  0  0  0  0  0  0  0  0
  -11.3723    6.2475   -3.5862 H   0  0  0  0  0  0  0  0  0  0  0  0
  -12.2572    5.4520   -2.1811 H   0  0  0  0  0  0  0  0  0  0  0  0
  -13.4279    7.5521   -3.2556 H   0  0  0  0  0  0  0  0  0  0  0  0
  -10.9800    9.1298   -0.4590 H   0  0  0  0  0  0  0  0  0  0  0  0
  -13.2288    7.7845    1.1627 H   0  0  0  0  0  0  0  0  0  0  0  0
  -11.7878    8.6765    1.8247 H   0  0  0  0  0  0  0  0  0  0  0  0
  -13.8502   10.0411    1.9007 H   0  0  0  0  0  0  0  0  0  0  0  0
  -12.5747   10.7468    0.8319 H   0  0  0  0  0  0  0  0  0  0  0  0
  -14.6995   10.9526   -0.2649 H   0  0  0  0  0  0  0  0  0  0  0  0
  -15.3290    8.8040    0.9840 H   0  0  0  0  0  0  0  0  0  0  0  0
  -12.3516   11.3861   -1.0653 H   0  0  0  0  0  0  0  0  0  0  0  0
  -11.8557   10.5391   -2.5697 H   0  0  0  0  0  0  0  0  0  0  0  0
  -13.3112   11.5918   -2.5697 H   0  0  0  0  0  0  0  0  0  0  0  0
  -15.6880    9.4946   -2.1613 H   0  0  0  0  0  0  0  0  0  0  0  0
  -14.6904   10.4799   -3.2841 H   0  0  0  0  0  0  0  0  0  0  0  0
  -14.5397    8.6899   -3.2841 H   0  0  0  0  0  0  0  0  0  0  0  0
  -11.5117    6.0414    1.6095 H   0  0  0  0  0  0  0  0  0  0  0  0
  -12.6717    5.9397    0.2417 H   0  0  0  0  0  0  0  0  0  0  0  0
  -11.1916    4.9219    0.2417 H   0  0  0  0  0  0  0  0  0  0  0  0
   -9.8470    8.0605    1.4239 H   0  0  0  0  0  0  0  0  0  0  0  0
   -9.2274    6.3586    1.0319 H   0  0  0  0  0  0  0  0  0  0  0  0
   -8.5489    8.9467   -0.3923 H   0  0  0  0  0  0  0  0  0  0  0  0
   -7.4667    7.8796    0.5862 H   0  0  0  0  0  0  0  0  0  0  0  0
   -7.6183    5.6011    0.2323 H   0  0  0  0  0  0  0  0  0  0  0  0
   -8.3682    4.9208   -1.2514 H   0  0  0  0  0  0  0  0  0  0  0  0
   -6.6309    5.3773   -1.2514 H   0  0  0  0  0  0  0  0  0  0  0  0
  1  2  1  0
  2  3  1  0
  3  4  1  0
  4  5  1  0
  5  6  1  0
  6  7  1  0
  7  8  1  0
  7  9  1  0
  2 10  1  0
 10 11  1  0
 11 12  1  0
 12 13  1  0
 13 14  1  6
 13 15  1  0
 15 16  1  0
 16 17  1  0
 17 18  2  0
 18 19  1  0
 19 20  1  0
 20 21  1  0
 21 22  1  0
 22 23  1  0
 22 24  1  0
 24 25  1  0
 24 26  1  0
 19 27  1  0
 27 28  1  1
 27 29  1  0
 29 30  1  0
 30 31  1  0
 31 32  1  1
  7  5  1  0
 31 10  1  0
 31 13  1  0
 27 15  1  0
 24 18  1  0
  1 33  1  0
  1 34  1  0
  1 35  1  0
  2 36  1  6
  3 37  1  0
  3 38  1  0
  4 39  1  0
  4 40  1  0
  5 41  1  6
  8 42  1  0
  8 43  1  0
  8 44  1  0
  9 45  1  0
  9 46  1  0
  9 47  1  0
 10 48  1  6
 11 49  1  0
 11 50  1  0
 12 51  1  0
 12 52  1  0
 14 53  1  0
 14 54  1  0
 14 55  1  0
 15 56  1  1
 16 57  1  0
 16 58  1  0
 17 59  1  0
 19 60  1  6
 20 61  1  0
 20 62  1  0
 21 63  1  0
 21 64  1  0
 22 65  1  6
 23 66  1  0
 25 67  1  0
 25 68  1  0
 25 69  1  0
 26 70  1  0
 26 71  1  0
 26 72  1  0
 28 73  1  0
 28 74  1  0
 28 75  1  0
 29 76  1  0
 29 77  1  0
 30 78  1  0
 30 79  1  0
 32 80  1  0
 32 81  1  0
 32 82  1  0
M  END
>  <meeko>  (6) 
{"is_sidechain": [false], "intermolecular_energy": 2.731, "internal_energy": -0.839}

$$$$
EPH_relaxed_0001_pdb2pqr_Repair_412_r2_0001_out
     RDKit          3D

 82 86  0  0  0  0  0  0  0  0999 V2000
   -2.4100   10.3380   -0.9620 C   0  0  0  0  0  0  0  0  0  0  0  0
   -0.8790   10.3180   -0.9860 C   0  0  2  0  0  0  0  0  0  0  0  0
   -0.3010    9.1250   -0.1990 C   0  0  0  0  0  0  0  0  0  0  0  0
    1.1950    8.8980   -0.4350 C   0  0  0  0  0  0  0  0  0  0  0  0
    1.7910    8.0010    0.6060 C   0  0  2  0  0  0  0  0  0  0  0  0
    1.9120    8.5910    1.9070 O   0  0  0  0  0  0  0  0  0  0  0  0
    3.1430    8.2480    1.2500 C   0  0  0  0  0  0  0  0  0  0  0  0
    3.9810    9.4290    0.8740 C   0  0  0  0  0  0  0  0  0  0  0  0
    3.8590    7.0920    1.8760 C   0  0  0  0  0  0  0  0  0  0  0  0
   -0.3330   11.6260   -0.4240 C   0  0  1  0  0  0  0  0  0  0  0  0
    0.8080   11.4040    0.6040 C   0  0  0  0  0  0  0  0  0  0  0  0
    1.8050   12.5780    0.4250 C   0  0  0  0  0  0  0  0  0  0  0  0
    1.0500   13.6010   -0.4550 C   0  0  1  0  0  0  0  0  0  0  0  0
    0.1230   14.3740    0.5360 C   0  0  0  0  0  0  0  0  0  0  0  0
    1.9360   14.5760   -1.2960 C   0  0  2  0  0  0  0  0  0  0  0  0
    2.8370   15.5140   -0.4740 C   0  0  0  0  0  0  0  0  0  0  0  0
    2.2280   16.8280   -0.1120 C   0  0  0  0  0  0  0  0  0  0  0  0
    1.1230   17.3580   -0.6670 C   0  0  0  0  0  0  0  0  0  0  0  0
    0.4190   16.6610   -1.8390 C   0  0  1  0  0  0  0  0  0  0  0  0
    0.0960   17.7040   -2.9420 C   0  0  0  0  0  0  0  0  0  0  0  0
   -0.6970   18.8930   -2.4090 C   0  0  0  0  0  0  0  0  0  0  0  0
    0.0610   19.5940   -1.2840 C   0  0  2  0  0  0  0  0  0  0  0  0
    1.2410   20.1940   -1.8280 O   0  0  0  0  0  0  0  0  0  0  0  0
    0.4490   18.6400   -0.1200 C   0  0  0  0  0  0  0  0  0  0  0  0
   -0.8230   18.2260    0.6600 C   0  0  0  0  0  0  0  0  0  0  0  0
    1.3300   19.4400    0.8780 C   0  0  0  0  0  0  0  0  0  0  0  0
    1.1440   15.3690   -2.4140 C   0  0  1  0  0  0  0  0  0  0  0  0
    2.1920   15.7830   -3.4930 C   0  0  0  0  0  0  0  0  0  0  0  0
    0.0830   14.4680   -3.1490 C   0  0  0  0  0  0  0  0  0  0  0  0
   -0.6750   13.4420   -2.2850 C   0  0  0  0  0  0  0  0  0  0  0  0
    0.2960   12.6240   -1.4290 C   0  0  2  0  0  0  0  0  0  0  0  0
    1.2270   11.8180   -2.3980 C   0  0  0  0  0  0  0  0  0  0  0  0
   -2.7603   10.3426    0.0807 H   0  0  0  0  0  0  0  0  0  0  0  0
   -2.7730   11.2410   -1.4747 H   0  0  0  0  0  0  0  0  0  0  0  0
   -2.7965    9.4448   -1.4747 H   0  0  0  0  0  0  0  0  0  0  0  0
   -0.5664   10.2043   -2.0345 H   0  0  0  0  0  0  0  0  0  0  0  0
   -0.4594    9.3075    0.8741 H   0  0  0  0  0  0  0  0  0  0  0  0
   -0.8225    8.2236   -0.5532 H   0  0  0  0  0  0  0  0  0  0  0  0
    1.3338    8.4373   -1.4242 H   0  0  0  0  0  0  0  0  0  0  0  0
    1.7024    9.8724   -0.3788 H   0  0  0  0  0  0  0  0  0  0  0  0
    1.3544    7.1137    0.1244 H   0  0  0  0  0  0  0  0  0  0  0  0
    4.3372    9.9310    1.7857 H   0  0  0  0  0  0  0  0  0  0  0  0
    4.8434    9.0924    0.2799 H   0  0  0  0  0  0  0  0  0  0  0  0
    3.3785   10.1319    0.2799 H   0  0  0  0  0  0  0  0  0  0  0  0
    3.8060    7.1776    2.9714 H   0  0  0  0  0  0  0  0  0  0  0  0
    3.3850    6.1516    1.5583 H   0  0  0  0  0  0  0  0  0  0  0  0
    4.9121    7.0974    1.5583 H   0  0  0  0  0  0  0  0  0  0  0  0
   -1.2584   12.0478   -0.0049 H   0  0  0  0  0  0  0  0  0  0  0  0
    0.4022   11.4040    1.6264 H   0  0  0  0  0  0  0  0  0  0  0  0
    1.3040   10.4358    0.4410 H   0  0  0  0  0  0  0  0  0  0  0  0
    2.0636   13.0196    1.3987 H   0  0  0  0  0  0  0  0  0  0  0  0
    2.7523   12.2546   -0.0311 H   0  0  0  0  0  0  0  0  0  0  0  0
    0.4108   14.1340    1.5702 H   0  0  0  0  0  0  0  0  0  0  0  0
    0.2278   15.4560    0.3679 H   0  0  0  0  0  0  0  0  0  0  0  0
   -0.9226   14.0764    0.3679 H   0  0  0  0  0  0  0  0  0  0  0  0
    2.6182   13.8864   -1.8146 H   0  0  0  0  0  0  0  0  0  0  0  0
    3.1063   14.9959    0.4582 H   0  0  0  0  0  0  0  0  0  0  0  0
    3.7006   15.7452   -1.1149 H   0  0  0  0  0  0  0  0  0  0  0  0
    2.7252   17.4129    0.6758 H   0  0  0  0  0  0  0  0  0  0  0  0
   -0.5149   16.2471   -1.4310 H   0  0  0  0  0  0  0  0  0  0  0  0
    1.0415   18.0726   -3.3664 H   0  0  0  0  0  0  0  0  0  0  0  0
   -0.5220   17.2047   -3.7027 H   0  0  0  0  0  0  0  0  0  0  0  0
   -0.8683   19.6076   -3.2276 H   0  0  0  0  0  0  0  0  0  0  0  0
   -1.6551   18.5265   -2.0118 H   0  0  0  0  0  0  0  0  0  0  0  0
   -0.6102   20.3535   -0.8565 H   0  0  0  0  0  0  0  0  0  0  0  0
    2.0070   19.7270   -1.4550 H   0  0  0  0  0  0  0  0  0  0  0  0
   -0.6274   18.2896    1.7406 H   0  0  0  0  0  0  0  0  0  0  0  0
   -1.6505   18.9012    0.3967 H   0  0  0  0  0  0  0  0  0  0  0  0
   -1.0946   17.1931    0.3967 H   0  0  0  0  0  0  0  0  0  0  0  0
    1.0446   19.1809    1.9082 H   0  0  0  0  0  0  0  0  0  0  0  0
    2.3885   19.1880    0.7163 H   0  0  0  0  0  0  0  0  0  0  0  0
    1.1809   20.5178    0.7163 H   0  0  0  0  0  0  0  0  0  0  0  0
    3.1054   16.1438   -2.9975 H   0  0  0  0  0  0  0  0  0  0  0  0
    2.4347   14.9132   -4.1211 H   0  0  0  0  0  0  0  0  0  0  0  0
    1.7748   16.5839   -4.1211 H   0  0  0  0  0  0  0  0  0  0  0  0
   -0.6632   15.1362   -3.6035 H   0  0  0  0  0  0  0  0  0  0  0  0
    0.6624   13.8681   -3.8663 H   0  0  0  0  0  0  0  0  0  0  0  0
   -1.3757   13.9746   -1.6252 H   0  0  0  0  0  0  0  0  0  0  0  0
   -1.2195   12.7563   -2.9508 H   0  0  0  0  0  0  0  0  0  0  0  0
    1.9297   11.2096   -1.8097 H   0  0  0  0  0  0  0  0  0  0  0  0
    0.6146   11.1602   -3.0323 H   0  0  0  0  0  0  0  0  0  0  0  0
    1.7903   12.5183   -3.0323 H   0  0  0  0  0  0  0  0  0  0  0  0
  1  2  1  0
  2  3  1  0
  3  4  1  0
  4  5  1  0
  5  6  1  0
  6  7  1  0
  7  8  1  0
  7  9  1  0
  2 10  1  0
 10 11  1  0
 11 12  1  0
 12 13  1  0
 13 14  1  1
 13 15  1  0
 15 16  1  0
 16 17  1  0
 17 18  2  0
 18 19  1  0
 19 20  1  0
 20 21  1  0
 21 22  1  0
 22 23  1  0
 22 24  1  0
 24 25  1  0
 24 26  1  0
 19 27  1  0
 27 28  1  6
 27 29  1  0
 29 30  1  0
 30 31  1  0
 31 32  1  6
  7  5  1  0
 31 10  1  0
 31 13  1  0
 27 15  1  0
 24 18  1  0
  1 33  1  0
  1 34  1  0
  1 35  1  0
  2 36  1  6
  3 37  1  0
  3 38  1  0
  4 39  1  0
  4 40  1  0
  5 41  1  1
  8 42  1  0
  8 43  1  0
  8 44  1  0
  9 45  1  0
  9 46  1  0
  9 47  1  0
 10 48  1  1
 11 49  1  0
 11 50  1  0
 12 51  1  0
 12 52  1  0
 14 53  1  0
 14 54  1  0
 14 55  1  0
 15 56  1  6
 16 57  1  0
 16 58  1  0
 17 59  1  0
 19 60  1  1
 20 61  1  0
 20 62  1  0
 21 63  1  0
 21 64  1  0
 22 65  1  1
 23 66  1  0
 25 67  1  0
 25 68  1  0
 25 69  1  0
 26 70  1  0
 26 71  1  0
 26 72  1  0
 28 73  1  0
 28 74  1  0
 28 75  1  0
 29 76  1  0
 29 77  1  0
 30 78  1  0
 30 79  1  0
 32 80  1  0
 32 81  1  0
 32 82  1  0
M  END
>  <meeko>  (7) 
{"is_sidechain": [false], "intermolecular_energy": 2.731, "internal_energy": -0.839}

$$$$
EPH_relaxed_0001_pdb2pqr_Repair_412_r2_0001_out
     RDKit          3D

 82 86  0  0  0  0  0  0  0  0999 V2000
    0.4060    8.8820   -2.5680 C   0  0  0  0  0  0  0  0  0  0  0  0
    1.1740   10.0470   -3.1990 C   0  0  2  0  0  0  0  0  0  0  0  0
    2.6640   10.0400   -2.8050 C   0  0  0  0  0  0  0  0  0  0  0  0
    3.5870   10.6170   -3.8820 C   0  0  0  0  0  0  0  0  0  0  0  0
    4.9780   10.8300   -3.3650 C   0  0  2  0  0  0  0  0  0  0  0  0
    5.5950   12.0520   -3.7900 O   0  0  0  0  0  0  0  0  0  0  0  0
    6.2090   10.8370   -4.2520 C   0  0  0  0  0  0  0  0  0  0  0  0
    6.1070   10.6270   -5.7300 C   0  0  0  0  0  0  0  0  0  0  0  0
    7.5420   10.5610   -3.6290 C   0  0  0  0  0  0  0  0  0  0  0  0
    0.5340   11.3700   -2.7940 C   0  0  1  0  0  0  0  0  0  0  0  0
   -0.8390   11.1810   -2.0950 C   0  0  0  0  0  0  0  0  0  0  0  0
   -0.9510   12.2940   -1.0210 C   0  0  0  0  0  0  0  0  0  0  0  0
    0.1950   13.2770   -1.3580 C   0  0  1  0  0  0  0  0  0  0  0  0
   -0.3630   14.1630   -2.5150 C   0  0  0  0  0  0  0  0  0  0  0  0
    0.7300   14.1450   -0.1730 C   0  0  2  0  0  0  0  0  0  0  0  0
   -0.2990   15.1050    0.4500 C   0  0  0  0  0  0  0  0  0  0  0  0
   -0.3490   16.4680   -0.1570 C   0  0  0  0  0  0  0  0  0  0  0  0
    0.5870   16.9990   -0.9660 C   0  0  0  0  0  0  0  0  0  0  0  0
    1.8880   16.2440   -1.2670 C   0  0  1  0  0  0  0  0  0  0  0  0
    3.0930   17.2100   -1.1200 C   0  0  0  0  0  0  0  0  0  0  0  0
    2.9400   18.4700   -1.9670 C   0  0  0  0  0  0  0  0  0  0  0  0
    1.6640   19.2230   -1.5980 C   0  0  2  0  0  0  0  0  0  0  0  0
    1.7970   19.7290   -0.2660 O   0  0  0  0  0  0  0  0  0  0  0  0
    0.3840   18.3480   -1.7000 C   0  0  0  0  0  0  0  0  0  0  0  0
    0.0740   18.0500   -3.1870 C   0  0  0  0  0  0  0  0  0  0  0  0
   -0.8100   19.1840   -1.1660 C   0  0  0  0  0  0  0  0  0  0  0  0
    2.0980   14.8820   -0.4750 C   0  0  1  0  0  0  0  0  0  0  0  0
    2.7660   15.1660    0.9050 C   0  0  0  0  0  0  0  0  0  0  0  0
    3.1030   13.9720   -1.2760 C   0  0  0  0  0  0  0  0  0  0  0  0
    2.4990   13.0490   -2.3510 C   0  0  0  0  0  0  0  0  0  0  0  0
    1.3120   12.2590   -1.7920 C   0  0  2  0  0  0  0  0  0  0  0  0
    1.8470   11.3420   -0.6400 C   0  0  0  0  0  0  0  0  0  0  0  0
    0.4573    8.9598   -1.4720 H   0  0  0  0  0  0  0  0  0  0  0  0
   -0.6453    8.9190   -2.8894 H   0  0  0  0  0  0  0  0  0  0  0  0
    0.8544    7.9303   -2.8894 H   0  0  0  0  0  0  0  0  0  0  0  0
    1.1208    9.9270   -4.2911 H   0  0  0  0  0  0  0  0  0  0  0  0
    2.7839   10.6365   -1.8886 H   0  0  0  0  0  0  0  0  0  0  0  0
    2.9542    8.9887   -2.6617 H   0  0  0  0  0  0  0  0  0  0  0  0
    3.6253    9.9179   -4.7304 H   0  0  0  0  0  0  0  0  0  0  0  0
    3.1837   11.5922   -4.1923 H   0  0  0  0  0  0  0  0  0  0  0  0
    4.7404   10.2889   -2.4372 H   0  0  0  0  0  0  0  0  0  0  0  0
    5.6344    9.6541   -5.9304 H   0  0  0  0  0  0  0  0  0  0  0  0
    5.4979   11.4287   -6.1731 H   0  0  0  0  0  0  0  0  0  0  0  0
    7.1137   10.6439   -6.1731 H   0  0  0  0  0  0  0  0  0  0  0  0
    7.4459   10.5809   -2.5334 H   0  0  0  0  0  0  0  0  0  0  0  0
    7.8977    9.5702   -3.9479 H   0  0  0  0  0  0  0  0  0  0  0  0
    8.2619   11.3291   -3.9479 H   0  0  0  0  0  0  0  0  0  0  0  0
    0.4896   11.8615   -3.7771 H   0  0  0  0  0  0  0  0  0  0  0  0
   -1.6537   11.2782   -2.8277 H   0  0  0  0  0  0  0  0  0  0  0  0
   -0.9161   10.1829   -1.6391 H   0  0  0  0  0  0  0  0  0  0  0  0
   -1.9266   12.7982   -1.0844 H   0  0  0  0  0  0  0  0  0  0  0  0
   -0.8730   11.8966    0.0017 H   0  0  0  0  0  0  0  0  0  0  0  0
   -0.9039   15.0219   -2.0910 H   0  0  0  0  0  0  0  0  0  0  0  0
    0.4708   14.5245   -3.1348 H   0  0  0  0  0  0  0  0  0  0  0  0
   -1.0492   13.5672   -3.1348 H   0  0  0  0  0  0  0  0  0  0  0  0
    0.9378   13.3882    0.5978 H   0  0  0  0  0  0  0  0  0  0  0  0
   -1.2950   14.6498    0.3458 H   0  0  0  0  0  0  0  0  0  0  0  0
    0.0128   15.2487    1.4951 H   0  0  0  0  0  0  0  0  0  0  0  0
   -1.2248   17.0912    0.0765 H   0  0  0  0  0  0  0  0  0  0  0  0
    1.8077   15.9032   -2.3098 H   0  0  0  0  0  0  0  0  0  0  0  0
    3.1824   17.5039   -0.0638 H   0  0  0  0  0  0  0  0  0  0  0  0
    3.9907   16.6794   -1.4702 H   0  0  0  0  0  0  0  0  0  0  0  0
    3.8069   19.1255   -1.7972 H   0  0  0  0  0  0  0  0  0  0  0  0
    2.8814   18.1769   -3.0256 H   0  0  0  0  0  0  0  0  0  0  0  0
    1.5420   20.0407   -2.3235 H   0  0  0  0  0  0  0  0  0  0  0  0
    0.9180   19.6990    0.1490 H   0  0  0  0  0  0  0  0  0  0  0  0
   -0.7177   17.2890   -3.2511 H   0  0  0  0  0  0  0  0  0  0  0  0
   -0.2627   18.9721   -3.6833 H   0  0  0  0  0  0  0  0  0  0  0  0
    0.9821   17.6771   -3.6833 H   0  0  0  0  0  0  0  0  0  0  0  0
   -0.7998   19.1768   -0.0661 H   0  0  0  0  0  0  0  0  0  0  0  0
   -0.7230   20.2195   -1.5268 H   0  0  0  0  0  0  0  0  0  0  0  0
   -1.7533   18.7480   -1.5268 H   0  0  0  0  0  0  0  0  0  0  0  0
    2.0784   14.8737    1.7123 H   0  0  0  0  0  0  0  0  0  0  0  0
    3.6968   14.5858    0.9881 H   0  0  0  0  0  0  0  0  0  0  0  0
    2.9940   16.2389    0.9881 H   0  0  0  0  0  0  0  0  0  0  0  0
    3.8266   14.6339   -1.7742 H   0  0  0  0  0  0  0  0  0  0  0  0
    3.5378   13.2945   -0.5264 H   0  0  0  0  0  0  0  0  0  0  0  0
    2.1569   13.6603   -3.1991 H   0  0  0  0  0  0  0  0  0  0  0  0
    3.2719   12.3371   -2.6762 H   0  0  0  0  0  0  0  0  0  0  0  0
    1.5879   11.7861    0.3324 H   0  0  0  0  0  0  0  0  0  0  0  0
    1.3886   10.3454   -0.7218 H   0  0  0  0  0  0  0  0  0  0  0  0
    2.9401   11.2506   -0.7218 H   0  0  0  0  0  0  0  0  0  0  0  0
  1  2  1  0
  2  3  1  0
  3  4  1  0
  4  5  1  0
  5  6  1  0
  6  7  1  0
  7  8  1  0
  7  9  1  0
  2 10  1  0
 10 11  1  0
 11 12  1  0
 12 13  1  0
 13 14  1  6
 13 15  1  0
 15 16  1  0
 16 17  1  0
 17 18  2  0
 18 19  1  0
 19 20  1  0
 20 21  1  0
 21 22  1  0
 22 23  1  0
 22 24  1  0
 24 25  1  0
 24 26  1  0
 19 27  1  0
 27 28  1  1
 27 29  1  0
 29 30  1  0
 30 31  1  0
 31 32  1  1
  7  5  1  0
 31 10  1  0
 31 13  1  0
 27 15  1  0
 24 18  1  0
  1 33  1  0
  1 34  1  0
  1 35  1  0
  2 36  1  6
  3 37  1  0
  3 38  1  0
  4 39  1  0
  4 40  1  0
  5 41  1  1
  8 42  1  0
  8 43  1  0
  8 44  1  0
  9 45  1  0
  9 46  1  0
  9 47  1  0
 10 48  1  6
 11 49  1  0
 11 50  1  0
 12 51  1  0
 12 52  1  0
 14 53  1  0
 14 54  1  0
 14 55  1  0
 15 56  1  1
 16 57  1  0
 16 58  1  0
 17 59  1  0
 19 60  1  6
 20 61  1  0
 20 62  1  0
 21 63  1  0
 21 64  1  0
 22 65  1  6
 23 66  1  0
 25 67  1  0
 25 68  1  0
 25 69  1  0
 26 70  1  0
 26 71  1  0
 26 72  1  0
 28 73  1  0
 28 74  1  0
 28 75  1  0
 29 76  1  0
 29 77  1  0
 30 78  1  0
 30 79  1  0
 32 80  1  0
 32 81  1  0
 32 82  1  0
M  END
>  <meeko>  (8) 
{"is_sidechain": [false], "intermolecular_energy": 2.731, "internal_energy": -0.839}

$$$$
EPH_relaxed_0001_pdb2pqr_Repair_412_r2_0001_out
     RDKit          3D

 82 86  0  0  0  0  0  0  0  0999 V2000
   -1.1240   16.3500   -5.7520 C   0  0  0  0  0  0  0  0  0  0  0  0
    0.0330   15.6340   -6.4540 C   0  0  2  0  0  0  0  0  0  0  0  0
   -0.2970   15.2980   -7.9230 C   0  0  0  0  0  0  0  0  0  0  0  0
    0.2610   16.3110   -8.9260 C   0  0  0  0  0  0  0  0  0  0  0  0
    1.6910   16.0210   -9.2690 C   0  0  2  0  0  0  0  0  0  0  0  0
    2.1790   16.7060  -10.4300 O   0  0  0  0  0  0  0  0  0  0  0  0
    2.1160   15.2740  -10.5190 C   0  0  0  0  0  0  0  0  0  0  0  0
    1.1110   14.7690  -11.5060 C   0  0  0  0  0  0  0  0  0  0  0  0
    3.4580   14.6110  -10.5350 C   0  0  0  0  0  0  0  0  0  0  0  0
    0.3920   14.3610   -5.6970 C   0  0  1  0  0  0  0  0  0  0  0  0
    1.4600   13.5090   -6.4340 C   0  0  0  0  0  0  0  0  0  0  0  0
    2.3430   12.8550   -5.3400 C   0  0  0  0  0  0  0  0  0  0  0  0
    1.5620   13.0780   -4.0230 C   0  0  1  0  0  0  0  0  0  0  0  0
    0.4810   11.9520   -4.0020 C   0  0  0  0  0  0  0  0  0  0  0  0
    2.4110   13.0890   -2.7100 C   0  0  2  0  0  0  0  0  0  0  0  0
    3.1390   11.7710   -2.3930 C   0  0  0  0  0  0  0  0  0  0  0  0
    2.3700   10.8030   -1.5560 C   0  0  0  0  0  0  0  0  0  0  0  0
    1.2670   11.0920   -0.8410 C   0  0  0  0  0  0  0  0  0  0  0  0
    0.7390   12.5300   -0.7520 C   0  0  1  0  0  0  0  0  0  0  0  0
    0.4040   12.8680    0.7240 C   0  0  0  0  0  0  0  0  0  0  0  0
   -0.5490   11.8570    1.3540 C   0  0  0  0  0  0  0  0  0  0  0  0
    0.0360   10.4480    1.2990 C   0  0  2  0  0  0  0  0  0  0  0  0
    1.1890   10.3940    2.1450 O   0  0  0  0  0  0  0  0  0  0  0  0
    0.4210   10.0010   -0.1390 C   0  0  0  0  0  0  0  0  0  0  0  0
   -0.8620    9.7680   -0.9730 C   0  0  0  0  0  0  0  0  0  0  0  0
    1.1280    8.6220   -0.0370 C   0  0  0  0  0  0  0  0  0  0  0  0
    1.6390   13.6420   -1.4440 C   0  0  1  0  0  0  0  0  0  0  0  0
    2.7250   14.1450   -0.4450 C   0  0  0  0  0  0  0  0  0  0  0  0
    0.7410   14.8890   -1.7880 C   0  0  0  0  0  0  0  0  0  0  0  0
    0.0230   14.8730   -3.1520 C   0  0  0  0  0  0  0  0  0  0  0  0
    0.9980   14.5230   -4.2800 C   0  0  2  0  0  0  0  0  0  0  0  0
    2.0840   15.6500   -4.3410 C   0  0  0  0  0  0  0  0  0  0  0  0
   -0.9967   16.2712   -4.6622 H   0  0  0  0  0  0  0  0  0  0  0  0
   -1.1306   17.4103   -6.0447 H   0  0  0  0  0  0  0  0  0  0  0  0
   -2.0759   15.8829   -6.0447 H   0  0  0  0  0  0  0  0  0  0  0  0
    0.8930   16.3199   -6.4575 H   0  0  0  0  0  0  0  0  0  0  0  0
    0.1252   14.3094   -8.1565 H   0  0  0  0  0  0  0  0  0  0  0  0
   -1.3925   15.3198   -8.0196 H   0  0  0  0  0  0  0  0  0  0  0  0
   -0.3414   16.2711   -9.8455 H   0  0  0  0  0  0  0  0  0  0  0  0
    0.2140   17.3096   -8.4671 H   0  0  0  0  0  0  0  0  0  0  0  0
    1.9431   15.8858   -8.2068 H   0  0  0  0  0  0  0  0  0  0  0  0
    0.2535   14.3381  -10.9683 H   0  0  0  0  0  0  0  0  0  0  0  0
    0.7671   15.6013  -12.1376 H   0  0  0  0  0  0  0  0  0  0  0  0
    1.5736   13.9963  -12.1376 H   0  0  0  0  0  0  0  0  0  0  0  0
    3.7967   14.4437   -9.5019 H   0  0  0  0  0  0  0  0  0  0  0  0
    3.3839   13.6458  -11.0574 H   0  0  0  0  0  0  0  0  0  0  0  0
    4.1796   15.2563  -11.0574 H   0  0  0  0  0  0  0  0  0  0  0  0
   -0.6041   13.8992   -5.6296 H   0  0  0  0  0  0  0  0  0  0  0  0
    0.9720   12.7324   -7.0413 H   0  0  0  0  0  0  0  0  0  0  0  0
    2.0647   14.1317   -7.1097 H   0  0  0  0  0  0  0  0  0  0  0  0
    2.4733   11.7807   -5.5370 H   0  0  0  0  0  0  0  0  0  0  0  0
    3.3531   13.2891   -5.3046 H   0  0  0  0  0  0  0  0  0  0  0  0
    0.2368   11.6976   -2.9601 H   0  0  0  0  0  0  0  0  0  0  0  0
   -0.4256   12.3045   -4.5156 H   0  0  0  0  0  0  0  0  0  0  0  0
    0.8702   11.0605   -4.5156 H   0  0  0  0  0  0  0  0  0  0  0  0
    3.2010   13.8174   -2.9455 H   0  0  0  0  0  0  0  0  0  0  0  0
    3.3810   11.2786   -3.3464 H   0  0  0  0  0  0  0  0  0  0  0  0
    4.0250   12.0472   -1.8024 H   0  0  0  0  0  0  0  0  0  0  0  0
    2.7357    9.7662   -1.5207 H   0  0  0  0  0  0  0  0  0  0  0  0
   -0.1788   12.5557   -1.3577 H   0  0  0  0  0  0  0  0  0  0  0  0
    1.3387   12.8802    1.3038 H   0  0  0  0  0  0  0  0  0  0  0  0
   -0.0936   13.8490    0.7372 H   0  0  0  0  0  0  0  0  0  0  0  0
   -0.7241   12.1333    2.4042 H   0  0  0  0  0  0  0  0  0  0  0  0
   -1.4939   11.8671    0.7909 H   0  0  0  0  0  0  0  0  0  0  0  0
   -0.7432    9.7531    1.6455 H   0  0  0  0  0  0  0  0  0  0  0  0
    1.0520   11.0270    2.8700 H   0  0  0  0  0  0  0  0  0  0  0  0
   -1.7157    9.6130   -0.2969 H   0  0  0  0  0  0  0  0  0  0  0  0
   -1.0515   10.6464   -1.6074 H   0  0  0  0  0  0  0  0  0  0  0  0
   -0.7305    8.8790   -1.6074 H   0  0  0  0  0  0  0  0  0  0  0  0
    1.2638    8.3570    1.0219 H   0  0  0  0  0  0  0  0  0  0  0  0
    0.5112    7.8564   -0.5303 H   0  0  0  0  0  0  0  0  0  0  0  0
    2.1097    8.6759   -0.5303 H   0  0  0  0  0  0  0  0  0  0  0  0
    2.3774   13.9840    0.5861 H   0  0  0  0  0  0  0  0  0  0  0  0
    3.6594   13.5880   -0.6081 H   0  0  0  0  0  0  0  0  0  0  0  0
    2.9045   15.2179   -0.6081 H   0  0  0  0  0  0  0  0  0  0  0  0
   -0.0296   14.9698   -1.0072 H   0  0  0  0  0  0  0  0  0  0  0  0
    1.4366   15.7396   -1.8387 H   0  0  0  0  0  0  0  0  0  0  0  0
   -0.7818   14.1235   -3.1264 H   0  0  0  0  0  0  0  0  0  0  0  0
   -0.3899   15.8745   -3.3431 H   0  0  0  0  0  0  0  0  0  0  0  0
    2.3663   15.9429   -3.3190 H   0  0  0  0  0  0  0  0  0  0  0  0
    2.9710   15.2761   -4.8734 H   0  0  0  0  0  0  0  0  0  0  0  0
    1.6775   16.5225   -4.8734 H   0  0  0  0  0  0  0  0  0  0  0  0
  1  2  1  0
  2  3  1  0
  3  4  1  0
  4  5  1  0
  5  6  1  0
  6  7  1  0
  7  8  1  0
  7  9  1  0
  2 10  1  0
 10 11  1  0
 11 12  1  0
 12 13  1  0
 13 14  1  1
 13 15  1  0
 15 16  1  0
 16 17  1  0
 17 18  2  0
 18 19  1  0
 19 20  1  0
 20 21  1  0
 21 22  1  0
 22 23  1  0
 22 24  1  0
 24 25  1  0
 24 26  1  0
 19 27  1  0
 27 28  1  1
 27 29  1  0
 29 30  1  0
 30 31  1  0
 31 32  1  6
  7  5  1  0
 31 10  1  0
 31 13  1  0
 27 15  1  0
 24 18  1  0
  1 33  1  0
  1 34  1  0
  1 35  1  0
  2 36  1  6
  3 37  1  0
  3 38  1  0
  4 39  1  0
  4 40  1  0
  5 41  1  1
  8 42  1  0
  8 43  1  0
  8 44  1  0
  9 45  1  0
  9 46  1  0
  9 47  1  0
 10 48  1  1
 11 49  1  0
 11 50  1  0
 12 51  1  0
 12 52  1  0
 14 53  1  0
 14 54  1  0
 14 55  1  0
 15 56  1  6
 16 57  1  0
 16 58  1  0
 17 59  1  0
 19 60  1  6
 20 61  1  0
 20 62  1  0
 21 63  1  0
 21 64  1  0
 22 65  1  1
 23 66  1  0
 25 67  1  0
 25 68  1  0
 25 69  1  0
 26 70  1  0
 26 71  1  0
 26 72  1  0
 28 73  1  0
 28 74  1  0
 28 75  1  0
 29 76  1  0
 29 77  1  0
 30 78  1  0
 30 79  1  0
 32 80  1  0
 32 81  1  0
 32 82  1  0
M  END
>  <meeko>  (9) 
{"is_sidechain": [false], "intermolecular_energy": 2.731, "internal_energy": -0.839}

$$$$
EPH_relaxed_0001_pdb2pqr_Repair_412_r2_0001_out
     RDKit          3D

 82 86  0  0  0  0  0  0  0  0999 V2000
    0.0800   17.7950   -2.5530 C   0  0  0  0  0  0  0  0  0  0  0  0
   -0.1780   16.8810   -1.3520 C   0  0  2  0  0  0  0  0  0  0  0  0
   -0.2570   17.6700   -0.0290 C   0  0  0  0  0  0  0  0  0  0  0  0
    0.3520   19.0720   -0.1110 C   0  0  0  0  0  0  0  0  0  0  0  0
    1.5200   19.2240    0.8150 C   0  0  2  0  0  0  0  0  0  0  0  0
    2.4910   20.1940    0.4000 O   0  0  0  0  0  0  0  0  0  0  0  0
    2.9380   18.8300    0.4460 C   0  0  0  0  0  0  0  0  0  0  0  0
    3.2620   18.2500   -0.8950 C   0  0  0  0  0  0  0  0  0  0  0  0
    3.9130   18.5510    1.5470 C   0  0  0  0  0  0  0  0  0  0  0  0
    0.9120   15.8200   -1.2620 C   0  0  1  0  0  0  0  0  0  0  0  0
    1.1140   15.2920    0.1840 C   0  0  0  0  0  0  0  0  0  0  0  0
    1.4760   13.7890    0.0650 C   0  0  0  0  0  0  0  0  0  0  0  0
    1.7950   13.5830   -1.4350 C   0  0  1  0  0  0  0  0  0  0  0  0
    3.2650   14.0790   -1.6040 C   0  0  0  0  0  0  0  0  0  0  0  0
    1.6080   12.1320   -1.9870 C   0  0  2  0  0  0  0  0  0  0  0  0
    2.5190   11.0690   -1.3500 C   0  0  0  0  0  0  0  0  0  0  0  0
    3.8290   10.8590   -2.0330 C   0  0  0  0  0  0  0  0  0  0  0  0
    4.1430   11.2860   -3.2700 C   0  0  0  0  0  0  0  0  0  0  0  0
    3.0970   11.9750   -4.1550 C   0  0  1  0  0  0  0  0  0  0  0  0
    3.1450   11.3700   -5.5820 C   0  0  0  0  0  0  0  0  0  0  0  0
    4.5440   11.4150   -6.1900 C   0  0  0  0  0  0  0  0  0  0  0  0
    5.5450   10.6700   -5.3110 C   0  0  2  0  0  0  0  0  0  0  0  0
    5.2200    9.2770   -5.3220 O   0  0  0  0  0  0  0  0  0  0  0  0
    5.5780   11.1870   -3.8460 C   0  0  0  0  0  0  0  0  0  0  0  0
    6.2160   12.5980   -3.8060 C   0  0  0  0  0  0  0  0  0  0  0  0
    6.5220   10.2610   -3.0330 C   0  0  0  0  0  0  0  0  0  0  0  0
    1.6210   12.0330   -3.5660 C   0  0  1  0  0  0  0  0  0  0  0  0
    0.8490   10.7300   -3.9380 C   0  0  0  0  0  0  0  0  0  0  0  0
    0.8430   13.2200   -4.2470 C   0  0  0  0  0  0  0  0  0  0  0  0
    0.9710   14.6060   -3.5850 C   0  0  0  0  0  0  0  0  0  0  0  0
    0.7090   14.5200   -2.0780 C   0  0  2  0  0  0  0  0  0  0  0  0
   -0.7710   14.0440   -1.8770 C   0  0  0  0  0  0  0  0  0  0  0  0
    0.3628   18.7968   -2.1973 H   0  0  0  0  0  0  0  0  0  0  0  0
    0.8957   17.3784   -3.1622 H   0  0  0  0  0  0  0  0  0  0  0  0
   -0.8331   17.8664   -3.1622 H   0  0  0  0  0  0  0  0  0  0  0  0
   -1.1540   16.3979   -1.5072 H   0  0  0  0  0  0  0  0  0  0  0  0
   -1.3153   17.7672    0.2546 H   0  0  0  0  0  0  0  0  0  0  0  0
    0.3273   17.1089    0.7151 H   0  0  0  0  0  0  0  0  0  0  0  0
    0.6885   19.2547   -1.1422 H   0  0  0  0  0  0  0  0  0  0  0  0
   -0.4185   19.7984    0.1868 H   0  0  0  0  0  0  0  0  0  0  0  0
    0.8907   18.9855    1.6851 H   0  0  0  0  0  0  0  0  0  0  0  0
    3.7946   17.2966   -0.7632 H   0  0  0  0  0  0  0  0  0  0  0  0
    2.3307   18.0755   -1.4538 H   0  0  0  0  0  0  0  0  0  0  0  0
    3.8989   18.9516   -1.4538 H   0  0  0  0  0  0  0  0  0  0  0  0
    3.4185   18.6925    2.5193 H   0  0  0  0  0  0  0  0  0  0  0  0
    4.2714   17.5142    1.4654 H   0  0  0  0  0  0  0  0  0  0  0  0
    4.7656   19.2412    1.4654 H   0  0  0  0  0  0  0  0  0  0  0  0
    1.7587   16.3914   -1.6701 H   0  0  0  0  0  0  0  0  0  0  0  0
    1.9303   15.8404    0.6769 H   0  0  0  0  0  0  0  0  0  0  0  0
    0.2045   15.4327    0.7865 H   0  0  0  0  0  0  0  0  0  0  0  0
    2.3527   13.5503    0.6850 H   0  0  0  0  0  0  0  0  0  0  0  0
    0.6628   13.1349    0.4126 H   0  0  0  0  0  0  0  0  0  0  0  0
    3.7168   14.2314   -0.6127 H   0  0  0  0  0  0  0  0  0  0  0  0
    3.8443   13.3266   -2.1592 H   0  0  0  0  0  0  0  0  0  0  0  0
    3.2700   15.0286   -2.1592 H   0  0  0  0  0  0  0  0  0  0  0  0
    0.5873   11.8850   -1.6598 H   0  0  0  0  0  0  0  0  0  0  0  0
    2.7217   11.3729   -0.3124 H   0  0  0  0  0  0  0  0  0  0  0  0
    1.9770   10.1154   -1.4323 H   0  0  0  0  0  0  0  0  0  0  0  0
    4.6034   10.3087   -1.4786 H   0  0  0  0  0  0  0  0  0  0  0  0
    3.3816   13.0369   -4.1910 H   0  0  0  0  0  0  0  0  0  0  0  0
    2.8159   10.3216   -5.5317 H   0  0  0  0  0  0  0  0  0  0  0  0
    2.4832   11.9718   -6.2222 H   0  0  0  0  0  0  0  0  0  0  0  0
    4.5195   10.9460   -7.1847 H   0  0  0  0  0  0  0  0  0  0  0  0
    4.8593   12.4660   -6.2680 H   0  0  0  0  0  0  0  0  0  0  0  0
    6.5470   10.8479   -5.7286 H   0  0  0  0  0  0  0  0  0  0  0  0
    4.9820    9.0370   -6.2340 H   0  0  0  0  0  0  0  0  0  0  0  0
    6.3560   12.9076   -2.7598 H   0  0  0  0  0  0  0  0  0  0  0  0
    7.1909   12.5742   -4.3149 H   0  0  0  0  0  0  0  0  0  0  0  0
    5.5542   13.3142   -4.3149 H   0  0  0  0  0  0  0  0  0  0  0  0
    6.3572   10.4226   -1.9575 H   0  0  0  0  0  0  0  0  0  0  0  0
    6.3099    9.2109   -3.2827 H   0  0  0  0  0  0  0  0  0  0  0  0
    7.5678   10.4933   -3.2827 H   0  0  0  0  0  0  0  0  0  0  0  0
    0.5414   10.2108   -3.0183 H   0  0  0  0  0  0  0  0  0  0  0  0
   -0.0422   10.9879   -4.5290 H   0  0  0  0  0  0  0  0  0  0  0  0
    1.5032   10.0723   -4.5290 H   0  0  0  0  0  0  0  0  0  0  0  0
    1.2105   13.3095   -5.2799 H   0  0  0  0  0  0  0  0  0  0  0  0
   -0.2210   12.9556   -4.1572 H   0  0  0  0  0  0  0  0  0  0  0  0
    1.9873   14.9922   -3.7521 H   0  0  0  0  0  0  0  0  0  0  0  0
    0.2250   15.2790   -4.0329 H   0  0  0  0  0  0  0  0  0  0  0  0
   -0.9906   13.9734   -0.8015 H   0  0  0  0  0  0  0  0  0  0  0  0
   -1.4555   14.7673   -2.3443 H   0  0  0  0  0  0  0  0  0  0  0  0
   -0.9055   13.0573   -2.3443 H   0  0  0  0  0  0  0  0  0  0  0  0
  1  2  1  0
  2  3  1  0
  3  4  1  0
  4  5  1  0
  5  6  1  0
  6  7  1  0
  7  8  1  0
  7  9  1  0
  2 10  1  0
 10 11  1  0
 11 12  1  0
 12 13  1  0
 13 14  1  1
 13 15  1  0
 15 16  1  0
 16 17  1  0
 17 18  2  0
 18 19  1  0
 19 20  1  0
 20 21  1  0
 21 22  1  0
 22 23  1  0
 22 24  1  0
 24 25  1  0
 24 26  1  0
 19 27  1  0
 27 28  1  1
 27 29  1  0
 29 30  1  0
 30 31  1  0
 31 32  1  6
  7  5  1  0
 31 10  1  0
 31 13  1  0
 27 15  1  0
 24 18  1  0
  1 33  1  0
  1 34  1  0
  1 35  1  0
  2 36  1  6
  3 37  1  0
  3 38  1  0
  4 39  1  0
  4 40  1  0
  5 41  1  1
  8 42  1  0
  8 43  1  0
  8 44  1  0
  9 45  1  0
  9 46  1  0
  9 47  1  0
 10 48  1  6
 11 49  1  0
 11 50  1  0
 12 51  1  0
 12 52  1  0
 14 53  1  0
 14 54  1  0
 14 55  1  0
 15 56  1  1
 16 57  1  0
 16 58  1  0
 17 59  1  0
 19 60  1  6
 20 61  1  0
 20 62  1  0
 21 63  1  0
 21 64  1  0
 22 65  1  6
 23 66  1  0
 25 67  1  0
 25 68  1  0
 25 69  1  0
 26 70  1  0
 26 71  1  0
 26 72  1  0
 28 73  1  0
 28 74  1  0
 28 75  1  0
 29 76  1  0
 29 77  1  0
 30 78  1  0
 30 79  1  0
 32 80  1  0
 32 81  1  0
 32 82  1  0
M  END
>  <meeko>  (10) 
{"is_sidechain": [false], "intermolecular_energy": 2.731, "internal_energy": -0.839}

$$$$
EPH_relaxed_0001_pdb2pqr_Repair_412_r2_0001_out
     RDKit          3D

 82 86  0  0  0  0  0  0  0  0999 V2000
   -3.6710    7.1690   -3.4280 C   0  0  0  0  0  0  0  0  0  0  0  0
   -3.6880    7.2580   -1.8990 C   0  0  2  0  0  0  0  0  0  0  0  0
   -5.0980    7.0240   -1.3200 C   0  0  0  0  0  0  0  0  0  0  0  0
   -6.2180    7.1480   -2.3570 C   0  0  0  0  0  0  0  0  0  0  0  0
   -7.5450    7.4100   -1.7110 C   0  0  2  0  0  0  0  0  0  0  0  0
   -8.1670    6.2550   -1.1320 O   0  0  0  0  0  0  0  0  0  0  0  0
   -8.8560    6.8580   -2.2400 C   0  0  0  0  0  0  0  0  0  0  0  0
   -8.9040    6.0010   -3.4660 C   0  0  0  0  0  0  0  0  0  0  0  0
  -10.1280    7.5460   -1.8560 C   0  0  0  0  0  0  0  0  0  0  0  0
   -3.1600    8.6160   -1.4510 C   0  0  1  0  0  0  0  0  0  0  0  0
   -3.8600    9.1350   -0.1670 C   0  0  0  0  0  0  0  0  0  0  0  0
   -2.7880    9.9070    0.6450 C   0  0  0  0  0  0  0  0  0  0  0  0
   -1.6110   10.0920   -0.3400 C   0  0  1  0  0  0  0  0  0  0  0  0
   -2.0110   11.3190   -1.2180 C   0  0  0  0  0  0  0  0  0  0  0  0
   -0.1960   10.2780    0.3000 C   0  0  2  0  0  0  0  0  0  0  0  0
   -0.0370   11.5310    1.1780 C   0  0  0  0  0  0  0  0  0  0  0  0
    0.4350   12.7540    0.4640 C   0  0  0  0  0  0  0  0  0  0  0  0
    0.9900   12.7780   -0.7620 C   0  0  0  0  0  0  0  0  0  0  0  0
    1.2820   11.4770   -1.5210 C   0  0  1  0  0  0  0  0  0  0  0  0
    2.7150   11.5320   -2.1120 C   0  0  0  0  0  0  0  0  0  0  0  0
    2.9460   12.7730   -2.9700 C   0  0  0  0  0  0  0  0  0  0  0  0
    2.7030   14.0460   -2.1650 C   0  0  2  0  0  0  0  0  0  0  0  0
    3.7070   14.1490   -1.1500 O   0  0  0  0  0  0  0  0  0  0  0  0
    1.2940   14.0990   -1.5120 C   0  0  0  0  0  0  0  0  0  0  0  0
    0.2190   14.2920   -2.6110 C   0  0  0  0  0  0  0  0  0  0  0  0
    1.2300   15.3640   -0.6150 C   0  0  0  0  0  0  0  0  0  0  0  0
    1.0020   10.1320   -0.7230 C   0  0  1  0  0  0  0  0  0  0  0  0
    2.2580    9.7400    0.1160 C   0  0  0  0  0  0  0  0  0  0  0  0
    0.7730    8.9620   -1.7510 C   0  0  0  0  0  0  0  0  0  0  0  0
   -0.6680    8.7530   -2.2560 C   0  0  0  0  0  0  0  0  0  0  0  0
   -1.6570    8.7090   -1.0870 C   0  0  2  0  0  0  0  0  0  0  0  0
   -1.2930    7.4720   -0.1980 C   0  0  0  0  0  0  0  0  0  0  0  0
   -3.4727    6.1308   -3.7327 H   0  0  0  0  0  0  0  0  0  0  0  0
   -4.6462    7.4876   -3.8247 H   0  0  0  0  0  0  0  0  0  0  0  0
   -2.8819    7.8246   -3.8247 H   0  0  0  0  0  0  0  0  0  0  0  0
   -3.0358    6.4604   -1.5138 H   0  0  0  0  0  0  0  0  0  0  0  0
   -5.1333    6.0121   -0.8901 H   0  0  0  0  0  0  0  0  0  0  0  0
   -5.2698    7.8066   -0.5663 H   0  0  0  0  0  0  0  0  0  0  0  0
   -5.9828    7.9791   -3.0381 H   0  0  0  0  0  0  0  0  0  0  0  0
   -6.2851    6.1964   -2.9047 H   0  0  0  0  0  0  0  0  0  0  0  0
   -7.2333    8.4260   -1.4270 H   0  0  0  0  0  0  0  0  0  0  0  0
   -8.9633    4.9428   -3.1716 H   0  0  0  0  0  0  0  0  0  0  0  0
   -9.7887    6.2654   -4.0638 H   0  0  0  0  0  0  0  0  0  0  0  0
   -7.9953    6.1649   -4.0638 H   0  0  0  0  0  0  0  0  0  0  0  0
  -10.2056    7.5880   -0.7595 H   0  0  0  0  0  0  0  0  0  0  0  0
  -10.1295    8.5679   -2.2631 H   0  0  0  0  0  0  0  0  0  0  0  0
  -10.9841    6.9879   -2.2631 H   0  0  0  0  0  0  0  0  0  0  0  0
   -3.3640    9.2025   -2.3590 H   0  0  0  0  0  0  0  0  0  0  0  0
   -4.6901    9.8061   -0.4328 H   0  0  0  0  0  0  0  0  0  0  0  0
   -4.2771    8.3032    0.4196 H   0  0  0  0  0  0  0  0  0  0  0  0
   -3.1770   10.8823    0.9728 H   0  0  0  0  0  0  0  0  0  0  0  0
   -2.4883    9.3696    1.5568 H   0  0  0  0  0  0  0  0  0  0  0  0
   -2.2858   12.1619   -0.5668 H   0  0  0  0  0  0  0  0  0  0  0  0
   -1.1606   11.6083   -1.8530 H   0  0  0  0  0  0  0  0  0  0  0  0
   -2.8685   11.0515   -1.8530 H   0  0  0  0  0  0  0  0  0  0  0  0
   -0.1335    9.4220    0.9880 H   0  0  0  0  0  0  0  0  0  0  0  0
   -1.0148   11.7566    1.6287 H   0  0  0  0  0  0  0  0  0  0  0  0
    0.7426   11.2891    1.9153 H   0  0  0  0  0  0  0  0  0  0  0  0
    0.3195   13.7167    0.9835 H   0  0  0  0  0  0  0  0  0  0  0  0
    0.5447   11.4282   -2.3359 H   0  0  0  0  0  0  0  0  0  0  0  0
    3.4384   11.5363   -1.2834 H   0  0  0  0  0  0  0  0  0  0  0  0
    2.8445   10.6506   -2.7573 H   0  0  0  0  0  0  0  0  0  0  0  0
    3.9838   12.7704   -3.3346 H   0  0  0  0  0  0  0  0  0  0  0  0
    2.2413   12.7519   -3.8144 H   0  0  0  0  0  0  0  0  0  0  0  0
    2.7566   14.8930   -2.8648 H   0  0  0  0  0  0  0  0  0  0  0  0
    4.4960   13.6760   -1.4680 H   0  0  0  0  0  0  0  0  0  0  0  0
   -0.7594   14.4677   -2.1400 H   0  0  0  0  0  0  0  0  0  0  0  0
    0.4853   15.1567   -3.2366 H   0  0  0  0  0  0  0  0  0  0  0  0
    0.1679   13.3887   -3.2366 H   0  0  0  0  0  0  0  0  0  0  0  0
    1.2452   15.0642    0.4433 H   0  0  0  0  0  0  0  0  0  0  0  0
    2.0967   16.0075   -0.8263 H   0  0  0  0  0  0  0  0  0  0  0  0
    0.3027   15.9168   -0.8263 H   0  0  0  0  0  0  0  0  0  0  0  0
    2.0208    9.8140    1.1876 H   0  0  0  0  0  0  0  0  0  0  0  0
    2.5517    8.7075   -0.1241 H   0  0  0  0  0  0  0  0  0  0  0  0
    3.0868   10.4222   -0.1241 H   0  0  0  0  0  0  0  0  0  0  0  0
    1.4074    9.1602   -2.6275 H   0  0  0  0  0  0  0  0  0  0  0  0
    1.0214    8.0425   -1.2007 H   0  0  0  0  0  0  0  0  0  0  0  0
   -0.9387    9.5828   -2.9255 H   0  0  0  0  0  0  0  0  0  0  0  0
   -0.7162    7.7941   -2.7929 H   0  0  0  0  0  0  0  0  0  0  0  0
   -1.3740    7.7471    0.8640 H   0  0  0  0  0  0  0  0  0  0  0  0
   -1.9863    6.6465   -0.4168 H   0  0  0  0  0  0  0  0  0  0  0  0
   -0.2631    7.1536   -0.4168 H   0  0  0  0  0  0  0  0  0  0  0  0
  1  2  1  0
  2  3  1  0
  3  4  1  0
  4  5  1  0
  5  6  1  0
  6  7  1  0
  7  8  1  0
  7  9  1  0
  2 10  1  0
 10 11  1  0
 11 12  1  0
 12 13  1  0
 13 14  1  6
 13 15  1  0
 15 16  1  0
 16 17  1  0
 17 18  2  0
 18 19  1  0
 19 20  1  0
 20 21  1  0
 21 22  1  0
 22 23  1  0
 22 24  1  0
 24 25  1  0
 24 26  1  0
 19 27  1  0
 27 28  1  1
 27 29  1  0
 29 30  1  0
 30 31  1  0
 31 32  1  1
  7  5  1  0
 31 10  1  0
 31 13  1  0
 27 15  1  0
 24 18  1  0
  1 33  1  0
  1 34  1  0
  1 35  1  0
  2 36  1  1
  3 37  1  0
  3 38  1  0
  4 39  1  0
  4 40  1  0
  5 41  1  1
  8 42  1  0
  8 43  1  0
  8 44  1  0
  9 45  1  0
  9 46  1  0
  9 47  1  0
 10 48  1  6
 11 49  1  0
 11 50  1  0
 12 51  1  0
 12 52  1  0
 14 53  1  0
 14 54  1  0
 14 55  1  0
 15 56  1  1
 16 57  1  0
 16 58  1  0
 17 59  1  0
 19 60  1  6
 20 61  1  0
 20 62  1  0
 21 63  1  0
 21 64  1  0
 22 65  1  6
 23 66  1  0
 25 67  1  0
 25 68  1  0
 25 69  1  0
 26 70  1  0
 26 71  1  0
 26 72  1  0
 28 73  1  0
 28 74  1  0
 28 75  1  0
 29 76  1  0
 29 77  1  0
 30 78  1  0
 30 79  1  0
 32 80  1  0
 32 81  1  0
 32 82  1  0
M  END
>  <meeko>  (11) 
{"is_sidechain": [false], "intermolecular_energy": 2.731, "internal_energy": -0.839}

$$$$
EPH_relaxed_0001_pdb2pqr_Repair_412_r2_0001_out
     RDKit          3D

 82 86  0  0  0  0  0  0  0  0999 V2000
    2.4140   16.3670   -7.1830 C   0  0  0  0  0  0  0  0  0  0  0  0
    1.3870   15.2390   -7.0470 C   0  0  2  0  0  0  0  0  0  0  0  0
    0.1090   15.5160   -7.8640 C   0  0  0  0  0  0  0  0  0  0  0  0
    0.3820   16.0760   -9.2630 C   0  0  0  0  0  0  0  0  0  0  0  0
    1.8030   15.8500   -9.6830 C   0  0  2  0  0  0  0  0  0  0  0  0
    2.1960   16.5540  -10.8680 O   0  0  0  0  0  0  0  0  0  0  0  0
    2.1930   15.1200  -10.9540 C   0  0  0  0  0  0  0  0  0  0  0  0
    1.1600   14.5680  -11.8860 C   0  0  0  0  0  0  0  0  0  0  0  0
    3.5620   14.5190  -11.0430 C   0  0  0  0  0  0  0  0  0  0  0  0
    1.0320   15.0340   -5.5790 C   0  0  1  0  0  0  0  0  0  0  0  0
   -0.2960   15.7320   -5.1820 C   0  0  0  0  0  0  0  0  0  0  0  0
   -0.9800   14.8260   -4.1270 C   0  0  0  0  0  0  0  0  0  0  0  0
    0.1160   13.8180   -3.7090 C   0  0  1  0  0  0  0  0  0  0  0  0
    0.9900   14.5840   -2.6680 C   0  0  0  0  0  0  0  0  0  0  0  0
   -0.3840   12.4470   -3.1460 C   0  0  2  0  0  0  0  0  0  0  0  0
   -1.2040   12.5350   -1.8470 C   0  0  0  0  0  0  0  0  0  0  0  0
   -0.4110   12.4460   -0.5850 C   0  0  0  0  0  0  0  0  0  0  0  0
    0.8610   12.0170   -0.4900 C   0  0  0  0  0  0  0  0  0  0  0  0
    1.6030   11.4730   -1.7170 C   0  0  1  0  0  0  0  0  0  0  0  0
    2.3270   10.1530   -1.3410 C   0  0  0  0  0  0  0  0  0  0  0  0
    3.2410   10.3120   -0.1290 C   0  0  0  0  0  0  0  0  0  0  0  0
    2.4560   10.7990    1.0860 C   0  0  2  0  0  0  0  0  0  0  0  0
    1.5430    9.7730    1.4870 O   0  0  0  0  0  0  0  0  0  0  0  0
    1.6760   12.1180    0.8230 C   0  0  0  0  0  0  0  0  0  0  0  0
    2.6750   13.2940    0.6860 C   0  0  0  0  0  0  0  0  0  0  0  0
    0.8170   12.4230    2.0790 C   0  0  0  0  0  0  0  0  0  0  0  0
    0.7410   11.3390   -3.0450 C   0  0  1  0  0  0  0  0  0  0  0  0
    0.0120    9.9610   -3.0700 C   0  0  0  0  0  0  0  0  0  0  0  0
    1.7070   11.3520   -4.2890 C   0  0  0  0  0  0  0  0  0  0  0  0
    2.0690   12.7310   -4.8730 C   0  0  0  0  0  0  0  0  0  0  0  0
    0.8120   13.5770   -5.0980 C   0  0  2  0  0  0  0  0  0  0  0  0
   -0.0760   12.8420   -6.1590 C   0  0  0  0  0  0  0  0  0  0  0  0
    2.7219   16.7052   -6.1826 H   0  0  0  0  0  0  0  0  0  0  0  0
    3.2930   15.9984   -7.7321 H   0  0  0  0  0  0  0  0  0  0  0  0
    1.9648   17.2077   -7.7321 H   0  0  0  0  0  0  0  0  0  0  0  0
    1.8450   14.3238   -7.4503 H   0  0  0  0  0  0  0  0  0  0  0  0
   -0.4468   14.5726   -7.9699 H   0  0  0  0  0  0  0  0  0  0  0  0
   -0.4625   16.2807   -7.3175 H   0  0  0  0  0  0  0  0  0  0  0  0
   -0.2857   15.5793   -9.9824 H   0  0  0  0  0  0  0  0  0  0  0  0
    0.1996   17.1605   -9.2399 H   0  0  0  0  0  0  0  0  0  0  0  0
    2.1181   15.7285   -8.6361 H   0  0  0  0  0  0  0  0  0  0  0  0
    0.3374   14.1284  -11.3028 H   0  0  0  0  0  0  0  0  0  0  0  0
    0.7684   15.3771  -12.5201 H   0  0  0  0  0  0  0  0  0  0  0  0
    1.6150   13.7928  -12.5201 H   0  0  0  0  0  0  0  0  0  0  0  0
    3.9536   14.3471  -10.0295 H   0  0  0  0  0  0  0  0  0  0  0  0
    3.5079   13.5619  -11.5824 H   0  0  0  0  0  0  0  0  0  0  0  0
    4.2300   15.2066  -11.5824 H   0  0  0  0  0  0  0  0  0  0  0  0
    1.9344   15.4537   -5.1105 H   0  0  0  0  0  0  0  0  0  0  0  0
   -0.0891   16.7234   -4.7527 H   0  0  0  0  0  0  0  0  0  0  0  0
   -0.9442   15.8752   -6.0591 H   0  0  0  0  0  0  0  0  0  0  0  0
   -1.3121   15.4193   -3.2623 H   0  0  0  0  0  0  0  0  0  0  0  0
   -1.8763   14.3269   -4.5239 H   0  0  0  0  0  0  0  0  0  0  0  0
    0.6750   14.3079   -1.6509 H   0  0  0  0  0  0  0  0  0  0  0  0
    2.0476   14.3166   -2.8096 H   0  0  0  0  0  0  0  0  0  0  0  0
    0.8636   15.6675   -2.8096 H   0  0  0  0  0  0  0  0  0  0  0  0
   -1.0893   12.1163   -3.9227 H   0  0  0  0  0  0  0  0  0  0  0  0
   -1.7373   13.4971   -1.8462 H   0  0  0  0  0  0  0  0  0  0  0  0
   -1.8720   11.6610   -1.8490 H   0  0  0  0  0  0  0  0  0  0  0  0
   -0.9084   12.7573    0.3454 H   0  0  0  0  0  0  0  0  0  0  0  0
    2.3428   12.2399   -1.9900 H   0  0  0  0  0  0  0  0  0  0  0  0
    1.5700    9.3879   -1.1139 H   0  0  0  0  0  0  0  0  0  0  0  0
    2.9540    9.8606   -2.1962 H   0  0  0  0  0  0  0  0  0  0  0  0
    3.7007    9.3405    0.1052 H   0  0  0  0  0  0  0  0  0  0  0  0
    4.0151   11.0561   -0.3682 H   0  0  0  0  0  0  0  0  0  0  0  0
    3.1830   11.0173    1.8821 H   0  0  0  0  0  0  0  0  0  0  0  0
    1.4720    9.8040    2.4560 H   0  0  0  0  0  0  0  0  0  0  0  0
    2.9708   13.6423    1.6866 H   0  0  0  0  0  0  0  0  0  0  0  0
    3.5663   12.9559    0.1371 H   0  0  0  0  0  0  0  0  0  0  0  0
    2.1973   14.1189    0.1371 H   0  0  0  0  0  0  0  0  0  0  0  0
    1.4050   12.2142    2.9849 H   0  0  0  0  0  0  0  0  0  0  0  0
    0.5191   13.4819    2.0712 H   0  0  0  0  0  0  0  0  0  0  0  0
   -0.0820   11.7891    2.0712 H   0  0  0  0  0  0  0  0  0  0  0  0
   -0.1672    9.6222   -2.0389 H   0  0  0  0  0  0  0  0  0  0  0  0
   -0.9494   10.0643   -3.5944 H   0  0  0  0  0  0  0  0  0  0  0  0
    0.6383    9.2243   -3.5944 H   0  0  0  0  0  0  0  0  0  0  0  0
    2.6444   10.8618   -3.9875 H   0  0  0  0  0  0  0  0  0  0  0  0
    1.1539   10.8371   -5.0883 H   0  0  0  0  0  0  0  0  0  0  0  0
    2.7351   13.2553   -4.1720 H   0  0  0  0  0  0  0  0  0  0  0  0
    2.5700   12.5820   -5.8409 H   0  0  0  0  0  0  0  0  0  0  0  0
   -0.8249   12.2222   -5.6442 H   0  0  0  0  0  0  0  0  0  0  0  0
   -0.5860   13.5858   -6.7889 H   0  0  0  0  0  0  0  0  0  0  0  0
    0.5594   12.2020   -6.7889 H   0  0  0  0  0  0  0  0  0  0  0  0
  1  2  1  0
  2  3  1  0
  3  4  1  0
  4  5  1  0
  5  6  1  0
  6  7  1  0
  7  8  1  0
  7  9  1  0
  2 10  1  0
 10 11  1  0
 11 12  1  0
 12 13  1  0
 13 14  1  1
 13 15  1  0
 15 16  1  0
 16 17  1  0
 17 18  2  0
 18 19  1  0
 19 20  1  0
 20 21  1  0
 21 22  1  0
 22 23  1  0
 22 24  1  0
 24 25  1  0
 24 26  1  0
 19 27  1  0
 27 28  1  1
 27 29  1  0
 29 30  1  0
 30 31  1  0
 31 32  1  6
  7  5  1  0
 31 10  1  0
 31 13  1  0
 27 15  1  0
 24 18  1  0
  1 33  1  0
  1 34  1  0
  1 35  1  0
  2 36  1  6
  3 37  1  0
  3 38  1  0
  4 39  1  0
  4 40  1  0
  5 41  1  1
  8 42  1  0
  8 43  1  0
  8 44  1  0
  9 45  1  0
  9 46  1  0
  9 47  1  0
 10 48  1  1
 11 49  1  0
 11 50  1  0
 12 51  1  0
 12 52  1  0
 14 53  1  0
 14 54  1  0
 14 55  1  0
 15 56  1  6
 16 57  1  0
 16 58  1  0
 17 59  1  0
 19 60  1  6
 20 61  1  0
 20 62  1  0
 21 63  1  0
 21 64  1  0
 22 65  1  1
 23 66  1  0
 25 67  1  0
 25 68  1  0
 25 69  1  0
 26 70  1  0
 26 71  1  0
 26 72  1  0
 28 73  1  0
 28 74  1  0
 28 75  1  0
 29 76  1  0
 29 77  1  0
 30 78  1  0
 30 79  1  0
 32 80  1  0
 32 81  1  0
 32 82  1  0
M  END
>  <meeko>  (12) 
{"is_sidechain": [false], "intermolecular_energy": 2.731, "internal_energy": -0.839}

$$$$
EPH_relaxed_0001_pdb2pqr_Repair_412_r2_0001_out
     RDKit          3D

 82 86  0  0  0  0  0  0  0  0999 V2000
   -0.2870   15.1340   -7.5860 C   0  0  0  0  0  0  0  0  0  0  0  0
    1.0960   15.0870   -6.9310 C   0  0  2  0  0  0  0  0  0  0  0  0
    2.2340   15.1670   -7.9690 C   0  0  0  0  0  0  0  0  0  0  0  0
    2.2710   16.4890   -8.7400 C   0  0  0  0  0  0  0  0  0  0  0  0
    1.8770   16.3060  -10.1740 C   0  0  2  0  0  0  0  0  0  0  0  0
    1.1890   15.0800  -10.4540 O   0  0  0  0  0  0  0  0  0  0  0  0
    2.4740   15.2420  -11.0760 C   0  0  0  0  0  0  0  0  0  0  0  0
    3.5160   14.2910  -10.5770 C   0  0  0  0  0  0  0  0  0  0  0  0
    2.4050   15.4400  -12.5580 C   0  0  0  0  0  0  0  0  0  0  0  0
    1.2360   13.8150   -6.1020 C   0  0  1  0  0  0  0  0  0  0  0  0
    2.6640   13.2120   -6.1690 C   0  0  0  0  0  0  0  0  0  0  0  0
    2.9550   12.5960   -4.7760 C   0  0  0  0  0  0  0  0  0  0  0  0
    1.5800   12.5670   -4.0680 C   0  0  1  0  0  0  0  0  0  0  0  0
    0.8700   11.2930   -4.6230 C   0  0  0  0  0  0  0  0  0  0  0  0
    1.6080   12.5770   -2.5050 C   0  0  2  0  0  0  0  0  0  0  0  0
    2.2920   11.3610   -1.8560 C   0  0  0  0  0  0  0  0  0  0  0  0
    1.3910   10.2090   -1.5530 C   0  0  0  0  0  0  0  0  0  0  0  0
    0.0460   10.2540   -1.5260 C   0  0  0  0  0  0  0  0  0  0  0  0
   -0.7020   11.5790   -1.7240 C   0  0  1  0  0  0  0  0  0  0  0  0
   -1.8080   11.7160   -0.6440 C   0  0  0  0  0  0  0  0  0  0  0  0
   -2.7470   10.5140   -0.6140 C   0  0  0  0  0  0  0  0  0  0  0  0
   -1.9740    9.2230   -0.3580 C   0  0  2  0  0  0  0  0  0  0  0  0
   -1.4380    9.2620    0.9680 O   0  0  0  0  0  0  0  0  0  0  0  0
   -0.8260    8.9830   -1.3790 C   0  0  0  0  0  0  0  0  0  0  0  0
   -1.4260    8.6420   -2.7650 C   0  0  0  0  0  0  0  0  0  0  0  0
   -0.0390    7.7250   -0.9250 C   0  0  0  0  0  0  0  0  0  0  0  0
    0.2070   12.8790   -1.8340 C   0  0  1  0  0  0  0  0  0  0  0  0
    0.5070   13.4400   -0.4100 C   0  0  0  0  0  0  0  0  0  0  0  0
   -0.5920   14.0020   -2.5950 C   0  0  0  0  0  0  0  0  0  0  0  0
   -0.4830   14.0110   -4.1320 C   0  0  0  0  0  0  0  0  0  0  0  0
    0.9790   13.9270   -4.5790 C   0  0  2  0  0  0  0  0  0  0  0  0
    1.7150   15.2070   -4.0530 C   0  0  0  0  0  0  0  0  0  0  0  0
   -1.0617   15.1603   -6.8055 H   0  0  0  0  0  0  0  0  0  0  0  0
   -0.3660   16.0353   -8.2116 H   0  0  0  0  0  0  0  0  0  0  0  0
   -0.4270   14.2401   -8.2116 H   0  0  0  0  0  0  0  0  0  0  0  0
    1.1824   15.9680   -6.2780 H   0  0  0  0  0  0  0  0  0  0  0  0
    3.1926   15.0443   -7.4437 H   0  0  0  0  0  0  0  0  0  0  0  0
    2.0543   14.3699   -8.7055 H   0  0  0  0  0  0  0  0  0  0  0  0
    1.5749   17.1972   -8.2667 H   0  0  0  0  0  0  0  0  0  0  0  0
    3.3018   16.8721   -8.7140 H   0  0  0  0  0  0  0  0  0  0  0  0
    1.7436   17.3905  -10.3004 H   0  0  0  0  0  0  0  0  0  0  0  0
    3.5159   14.2911   -9.4770 H   0  0  0  0  0  0  0  0  0  0  0  0
    3.2936   13.2780  -10.9436 H   0  0  0  0  0  0  0  0  0  0  0  0
    4.5045   14.6048  -10.9436 H   0  0  0  0  0  0  0  0  0  0  0  0
    2.0502   16.4582  -12.7758 H   0  0  0  0  0  0  0  0  0  0  0  0
    3.4052   15.2992  -12.9937 H   0  0  0  0  0  0  0  0  0  0  0  0
    1.7089   14.7081  -12.9937 H   0  0  0  0  0  0  0  0  0  0  0  0
    0.4521   13.2023   -6.5712 H   0  0  0  0  0  0  0  0  0  0  0  0
    2.7105   12.4335   -6.9447 H   0  0  0  0  0  0  0  0  0  0  0  0
    3.4067   13.9826   -6.4232 H   0  0  0  0  0  0  0  0  0  0  0  0
    3.3608   11.5787   -4.8782 H   0  0  0  0  0  0  0  0  0  0  0  0
    3.7027   13.1732   -4.2123 H   0  0  0  0  0  0  0  0  0  0  0  0
    0.5236   10.6715   -3.7841 H   0  0  0  0  0  0  0  0  0  0  0  0
    0.0084   11.5920   -5.2380 H   0  0  0  0  0  0  0  0  0  0  0  0
    1.5775   10.7175   -5.2380 H   0  0  0  0  0  0  0  0  0  0  0  0
    2.2588   13.4365   -2.2865 H   0  0  0  0  0  0  0  0  0  0  0  0
    3.0774   11.0075   -2.5402 H   0  0  0  0  0  0  0  0  0  0  0  0
    2.6768   11.7098   -0.8863 H   0  0  0  0  0  0  0  0  0  0  0  0
    1.8669    9.2419   -1.3333 H   0  0  0  0  0  0  0  0  0  0  0  0
   -1.1598   11.5231   -2.7226 H   0  0  0  0  0  0  0  0  0  0  0  0
   -1.3288   11.8140    0.3413 H   0  0  0  0  0  0  0  0  0  0  0  0
   -2.4088   12.6036   -0.8915 H   0  0  0  0  0  0  0  0  0  0  0  0
   -3.4869   10.6553    0.1876 H   0  0  0  0  0  0  0  0  0  0  0  0
   -3.2474   10.4354   -1.5905 H   0  0  0  0  0  0  0  0  0  0  0  0
   -2.6792    8.3872   -0.4771 H   0  0  0  0  0  0  0  0  0  0  0  0
   -2.0400    8.7610    1.5430 H   0  0  0  0  0  0  0  0  0  0  0  0
   -2.3752    8.1025   -2.6310 H   0  0  0  0  0  0  0  0  0  0  0  0
   -1.6083    9.5715   -3.3244 H   0  0  0  0  0  0  0  0  0  0  0  0
   -0.7207    8.0098   -3.3244 H   0  0  0  0  0  0  0  0  0  0  0  0
   -0.0140    7.6850    0.1740 H   0  0  0  0  0  0  0  0  0  0  0  0
   -0.5340    6.8228   -1.3136 H   0  0  0  0  0  0  0  0  0  0  0  0
    0.9888    7.7755   -1.3136 H   0  0  0  0  0  0  0  0  0  0  0  0
    0.1310   12.7369    0.3478 H   0  0  0  0  0  0  0  0  0  0  0  0
    1.5928   13.5659   -0.2867 H   0  0  0  0  0  0  0  0  0  0  0  0
    0.0088   14.4129   -0.2867 H   0  0  0  0  0  0  0  0  0  0  0  0
   -1.6552   13.8869   -2.3373 H   0  0  0  0  0  0  0  0  0  0  0  0
   -0.1389   14.9497   -2.2684 H   0  0  0  0  0  0  0  0  0  0  0  0
   -1.0330   13.1486   -4.5367 H   0  0  0  0  0  0  0  0  0  0  0  0
   -0.9109   14.9520   -4.5081 H   0  0  0  0  0  0  0  0  0  0  0  0
    1.7137   15.2047   -2.9530 H   0  0  0  0  0  0  0  0  0  0  0  0
    2.7525   15.2096   -4.4184 H   0  0  0  0  0  0  0  0  0  0  0  0
    1.1953   16.1050   -4.4184 H   0  0  0  0  0  0  0  0  0  0  0  0
  1  2  1  0
  2  3  1  0
  3  4  1  0
  4  5  1  0
  5  6  1  0
  6  7  1  0
  7  8  1  0
  7  9  1  0
  2 10  1  0
 10 11  1  0
 11 12  1  0
 12 13  1  0
 13 14  1  1
 13 15  1  0
 15 16  1  0
 16 17  1  0
 17 18  2  0
 18 19  1  0
 19 20  1  0
 20 21  1  0
 21 22  1  0
 22 23  1  0
 22 24  1  0
 24 25  1  0
 24 26  1  0
 19 27  1  0
 27 28  1  1
 27 29  1  0
 29 30  1  0
 30 31  1  0
 31 32  1  1
  7  5  1  0
 31 10  1  0
 31 13  1  0
 27 15  1  0
 24 18  1  0
  1 33  1  0
  1 34  1  0
  1 35  1  0
  2 36  1  1
  3 37  1  0
  3 38  1  0
  4 39  1  0
  4 40  1  0
  5 41  1  6
  8 42  1  0
  8 43  1  0
  8 44  1  0
  9 45  1  0
  9 46  1  0
  9 47  1  0
 10 48  1  6
 11 49  1  0
 11 50  1  0
 12 51  1  0
 12 52  1  0
 14 53  1  0
 14 54  1  0
 14 55  1  0
 15 56  1  6
 16 57  1  0
 16 58  1  0
 17 59  1  0
 19 60  1  6
 20 61  1  0
 20 62  1  0
 21 63  1  0
 21 64  1  0
 22 65  1  1
 23 66  1  0
 25 67  1  0
 25 68  1  0
 25 69  1  0
 26 70  1  0
 26 71  1  0
 26 72  1  0
 28 73  1  0
 28 74  1  0
 28 75  1  0
 29 76  1  0
 29 77  1  0
 30 78  1  0
 30 79  1  0
 32 80  1  0
 32 81  1  0
 32 82  1  0
M  END
>  <meeko>  (13) 
{"is_sidechain": [false], "intermolecular_energy": 2.731, "internal_energy": -0.839}

$$$$
EPH_relaxed_0001_pdb2pqr_Repair_412_r2_0001_out
     RDKit          3D

 82 86  0  0  0  0  0  0  0  0999 V2000
   -2.1520    7.8500   -2.0060 C   0  0  0  0  0  0  0  0  0  0  0  0
   -2.2180    8.5290   -0.6360 C   0  0  2  0  0  0  0  0  0  0  0  0
   -3.6500    8.5530   -0.0670 C   0  0  0  0  0  0  0  0  0  0  0  0
   -4.7390    8.4220   -1.1350 C   0  0  0  0  0  0  0  0  0  0  0  0
   -5.7300    7.3520   -0.7890 C   0  0  2  0  0  0  0  0  0  0  0  0
   -5.9460    6.3800   -1.8200 O   0  0  0  0  0  0  0  0  0  0  0  0
   -7.0740    7.2020   -1.4770 C   0  0  0  0  0  0  0  0  0  0  0  0
   -7.5010    8.1340   -2.5680 C   0  0  0  0  0  0  0  0  0  0  0  0
   -8.1640    6.4630   -0.7650 C   0  0  0  0  0  0  0  0  0  0  0  0
   -1.6720    9.9490   -0.7330 C   0  0  1  0  0  0  0  0  0  0  0  0
   -1.1940   10.5000    0.6360 C   0  0  0  0  0  0  0  0  0  0  0  0
    0.0350   11.4020    0.3510 C   0  0  0  0  0  0  0  0  0  0  0  0
    0.0210   11.6070   -1.1820 C   0  0  1  0  0  0  0  0  0  0  0  0
   -1.0250   12.7390   -1.4260 C   0  0  0  0  0  0  0  0  0  0  0  0
    1.3960   11.9380   -1.8470 C   0  0  2  0  0  0  0  0  0  0  0  0
    2.0430   13.2560   -1.3870 C   0  0  0  0  0  0  0  0  0  0  0  0
    1.6810   14.4600   -2.1930 C   0  0  0  0  0  0  0  0  0  0  0  0
    1.1010   14.4420   -3.4070 C   0  0  0  0  0  0  0  0  0  0  0  0
    0.8390   13.1180   -4.1360 C   0  0  1  0  0  0  0  0  0  0  0  0
    1.3010   13.2380   -5.6120 C   0  0  0  0  0  0  0  0  0  0  0  0
    0.6740   14.4320   -6.3260 C   0  0  0  0  0  0  0  0  0  0  0  0
    1.0060   15.7350   -5.6040 C   0  0  2  0  0  0  0  0  0  0  0  0
    2.4120   15.9790   -5.7160 O   0  0  0  0  0  0  0  0  0  0  0  0
    0.5940   15.7280   -4.1060 C   0  0  0  0  0  0  0  0  0  0  0  0
   -0.9500   15.7680   -3.9900 C   0  0  0  0  0  0  0  0  0  0  0  0
    1.1120   17.0430   -3.4620 C   0  0  0  0  0  0  0  0  0  0  0  0
    1.4000   11.8120   -3.4250 C   0  0  1  0  0  0  0  0  0  0  0  0
    2.8810   11.5710   -3.8490 C   0  0  0  0  0  0  0  0  0  0  0  0
    0.5850   10.5620   -3.9270 C   0  0  0  0  0  0  0  0  0  0  0  0
   -0.7010   10.2150   -3.1550 C   0  0  0  0  0  0  0  0  0  0  0  0
   -0.4410   10.1770   -1.6460 C   0  0  2  0  0  0  0  0  0  0  0  0
    0.5910    9.0320   -1.3670 C   0  0  0  0  0  0  0  0  0  0  0  0
   -2.0464    6.7633   -1.8719 H   0  0  0  0  0  0  0  0  0  0  0  0
   -3.0750    8.0624   -2.5654 H   0  0  0  0  0  0  0  0  0  0  0  0
   -1.2872    8.2362   -2.5654 H   0  0  0  0  0  0  0  0  0  0  0  0
   -1.5989    7.9386    0.0554 H   0  0  0  0  0  0  0  0  0  0  0  0
   -3.7562    7.7182    0.6414 H   0  0  0  0  0  0  0  0  0  0  0  0
   -3.7882    9.5323    0.4145 H   0  0  0  0  0  0  0  0  0  0  0  0
   -5.2680    9.3823   -1.2242 H   0  0  0  0  0  0  0  0  0  0  0  0
   -4.2563    8.1478   -2.0846 H   0  0  0  0  0  0  0  0  0  0  0  0
   -5.4461    7.3998    0.2727 H   0  0  0  0  0  0  0  0  0  0  0  0
   -7.9204    9.0494   -2.1250 H   0  0  0  0  0  0  0  0  0  0  0  0
   -6.6317    8.3928   -3.1903 H   0  0  0  0  0  0  0  0  0  0  0  0
   -8.2647    7.6446   -3.1903 H   0  0  0  0  0  0  0  0  0  0  0  0
   -8.0227    6.5588    0.3217 H   0  0  0  0  0  0  0  0  0  0  0  0
   -9.1391    6.8870   -1.0468 H   0  0  0  0  0  0  0  0  0  0  0  0
   -8.1311    5.4002   -1.0468 H   0  0  0  0  0  0  0  0  0  0  0  0
   -2.5521   10.4563   -1.1550 H   0  0  0  0  0  0  0  0  0  0  0  0
   -1.9946   11.0886    1.1078 H   0  0  0  0  0  0  0  0  0  0  0  0
   -0.9320    9.6808    1.3217 H   0  0  0  0  0  0  0  0  0  0  0  0
   -0.0612   12.3657    0.8726 H   0  0  0  0  0  0  0  0  0  0  0  0
    0.9744   10.9508    0.7031 H   0  0  0  0  0  0  0  0  0  0  0  0
   -1.3808   13.1241   -0.4590 H   0  0  0  0  0  0  0  0  0  0  0  0
   -0.5561   13.5550   -1.9955 H   0  0  0  0  0  0  0  0  0  0  0  0
   -1.8754   12.3359   -1.9955 H   0  0  0  0  0  0  0  0  0  0  0  0
    2.0434   11.1369   -1.4610 H   0  0  0  0  0  0  0  0  0  0  0  0
    1.7377   13.4394   -0.3463 H   0  0  0  0  0  0  0  0  0  0  0  0
    3.1277   13.1219   -1.5109 H   0  0  0  0  0  0  0  0  0  0  0  0
    1.9076   15.4444   -1.7576 H   0  0  0  0  0  0  0  0  0  0  0  0
   -0.2490   12.9608   -4.0978 H   0  0  0  0  0  0  0  0  0  0  0  0
    2.3951   13.3505   -5.6310 H   0  0  0  0  0  0  0  0  0  0  0  0
    0.9785   12.3273   -6.1380 H   0  0  0  0  0  0  0  0  0  0  0  0
    1.0621   14.4811   -7.3541 H   0  0  0  0  0  0  0  0  0  0  0  0
   -0.4184   14.3029   -6.3331 H   0  0  0  0  0  0  0  0  0  0  0  0
    0.4245   16.5356   -6.0846 H   0  0  0  0  0  0  0  0  0  0  0  0
    2.7540   16.1400   -4.8210 H   0  0  0  0  0  0  0  0  0  0  0  0
   -1.2379   15.7755   -2.9284 H   0  0  0  0  0  0  0  0  0  0  0  0
   -1.3311   16.6763   -4.4796 H   0  0  0  0  0  0  0  0  0  0  0  0
   -1.3776   14.8806   -4.4796 H   0  0  0  0  0  0  0  0  0  0  0  0
    1.0767   16.9533   -2.3662 H   0  0  0  0  0  0  0  0  0  0  0  0
    2.1487   17.2243   -3.7818 H   0  0  0  0  0  0  0  0  0  0  0  0
    0.4774   17.8827   -3.7818 H   0  0  0  0  0  0  0  0  0  0  0  0
    3.5076   11.4690   -2.9507 H   0  0  0  0  0  0  0  0  0  0  0  0
    2.9458   10.6505   -4.4477 H   0  0  0  0  0  0  0  0  0  0  0  0
    3.2344   12.4235   -4.4477 H   0  0  0  0  0  0  0  0  0  0  0  0
    0.3045   10.7466   -4.9745 H   0  0  0  0  0  0  0  0  0  0  0  0
    1.2536    9.7022   -3.7729 H   0  0  0  0  0  0  0  0  0  0  0  0
   -1.4658   10.9760   -3.3693 H   0  0  0  0  0  0  0  0  0  0  0  0
   -1.0459    9.2213   -3.4767 H   0  0  0  0  0  0  0  0  0  0  0  0
    0.7089    8.9012   -0.2812 H   0  0  0  0  0  0  0  0  0  0  0  0
    0.2272    8.0941   -1.8119 H   0  0  0  0  0  0  0  0  0  0  0  0
    1.5615    9.2967   -1.8119 H   0  0  0  0  0  0  0  0  0  0  0  0
  1  2  1  0
  2  3  1  0
  3  4  1  0
  4  5  1  0
  5  6  1  0
  6  7  1  0
  7  8  1  0
  7  9  1  0
  2 10  1  0
 10 11  1  0
 11 12  1  0
 12 13  1  0
 13 14  1  1
 13 15  1  0
 15 16  1  0
 16 17  1  0
 17 18  2  0
 18 19  1  0
 19 20  1  0
 20 21  1  0
 21 22  1  0
 22 23  1  0
 22 24  1  0
 24 25  1  0
 24 26  1  0
 19 27  1  0
 27 28  1  6
 27 29  1  0
 29 30  1  0
 30 31  1  0
 31 32  1  6
  7  5  1  0
 31 10  1  0
 31 13  1  0
 27 15  1  0
 24 18  1  0
  1 33  1  0
  1 34  1  0
  1 35  1  0
  2 36  1  1
  3 37  1  0
  3 38  1  0
  4 39  1  0
  4 40  1  0
  5 41  1  1
  8 42  1  0
  8 43  1  0
  8 44  1  0
  9 45  1  0
  9 46  1  0
  9 47  1  0
 10 48  1  6
 11 49  1  0
 11 50  1  0
 12 51  1  0
 12 52  1  0
 14 53  1  0
 14 54  1  0
 14 55  1  0
 15 56  1  1
 16 57  1  0
 16 58  1  0
 17 59  1  0
 19 60  1  6
 20 61  1  0
 20 62  1  0
 21 63  1  0
 21 64  1  0
 22 65  1  6
 23 66  1  0
 25 67  1  0
 25 68  1  0
 25 69  1  0
 26 70  1  0
 26 71  1  0
 26 72  1  0
 28 73  1  0
 28 74  1  0
 28 75  1  0
 29 76  1  0
 29 77  1  0
 30 78  1  0
 30 79  1  0
 32 80  1  0
 32 81  1  0
 32 82  1  0
M  END
>  <meeko>  (14) 
{"is_sidechain": [false], "intermolecular_energy": 2.731, "internal_energy": -0.839}

$$$$
EPH_relaxed_0001_pdb2pqr_Repair_412_r2_0001_out
     RDKit          3D

 82 86  0  0  0  0  0  0  0  0999 V2000
    2.4530   17.6110   -3.7930 C   0  0  0  0  0  0  0  0  0  0  0  0
    2.2320   17.6840   -2.2800 C   0  0  2  0  0  0  0  0  0  0  0  0
    3.1700   18.7050   -1.6050 C   0  0  0  0  0  0  0  0  0  0  0  0
    2.4590   19.6380   -0.6210 C   0  0  0  0  0  0  0  0  0  0  0  0
    2.5810   19.1520    0.7910 C   0  0  2  0  0  0  0  0  0  0  0  0
    2.5900   20.1880    1.7820 O   0  0  0  0  0  0  0  0  0  0  0  0
    3.7940   19.4130    1.6640 C   0  0  0  0  0  0  0  0  0  0  0  0
    4.9690   20.1880    1.1550 C   0  0  0  0  0  0  0  0  0  0  0  0
    4.0450   18.5080    2.8290 C   0  0  0  0  0  0  0  0  0  0  0  0
    2.4290   16.3060   -1.6590 C   0  0  1  0  0  0  0  0  0  0  0  0
    3.1510   16.3670   -0.2870 C   0  0  0  0  0  0  0  0  0  0  0  0
    2.5450   15.2390    0.5880 C   0  0  0  0  0  0  0  0  0  0  0  0
    1.7440   14.3640   -0.4050 C   0  0  1  0  0  0  0  0  0  0  0  0
    2.8090   13.4430   -1.0780 C   0  0  0  0  0  0  0  0  0  0  0  0
    0.5640   13.5360    0.2010 C   0  0  2  0  0  0  0  0  0  0  0  0
    0.9750   12.4830    1.2460 C   0  0  0  0  0  0  0  0  0  0  0  0
    1.2760   11.1270    0.7000 C   0  0  0  0  0  0  0  0  0  0  0  0
    0.9490   10.6880   -0.5290 C   0  0  0  0  0  0  0  0  0  0  0  0
    0.1170   11.5580   -1.4810 C   0  0  1  0  0  0  0  0  0  0  0  0
   -1.0110   10.7010   -2.1120 C   0  0  0  0  0  0  0  0  0  0  0  0
   -0.4800    9.4400   -2.7880 C   0  0  0  0  0  0  0  0  0  0  0  0
    0.2910    8.5740   -1.7970 C   0  0  2  0  0  0  0  0  0  0  0  0
   -0.6220    8.0690   -0.8170 O   0  0  0  0  0  0  0  0  0  0  0  0
    1.4480    9.3330   -1.0900 C   0  0  0  0  0  0  0  0  0  0  0  0
    2.5830    9.6160   -2.1060 C   0  0  0  0  0  0  0  0  0  0  0  0
    2.0530    8.3890   -0.0150 C   0  0  0  0  0  0  0  0  0  0  0  0
   -0.4210   12.9260   -0.8770 C   0  0  1  0  0  0  0  0  0  0  0  0
   -1.7820   12.6900   -0.1540 C   0  0  0  0  0  0  0  0  0  0  0  0
   -0.7120   13.9280   -2.0560 C   0  0  0  0  0  0  0  0  0  0  0  0
    0.4640   14.8040   -2.5300 C   0  0  0  0  0  0  0  0  0  0  0  0
    1.1570   15.4800   -1.3430 C   0  0  2  0  0  0  0  0  0  0  0  0
    0.1160   16.4310   -0.6590 C   0  0  0  0  0  0  0  0  0  0  0  0
    3.4792   17.2720   -3.9977 H   0  0  0  0  0  0  0  0  0  0  0  0
    1.7376   16.9014   -4.2342 H   0  0  0  0  0  0  0  0  0  0  0  0
    2.3010   18.6071   -4.2342 H   0  0  0  0  0  0  0  0  0  0  0  0
    1.1991   18.0232   -2.1123 H   0  0  0  0  0  0  0  0  0  0  0  0
    3.9488   18.1527   -1.0588 H   0  0  0  0  0  0  0  0  0  0  0  0
    3.5852   19.3369   -2.4039 H   0  0  0  0  0  0  0  0  0  0  0  0
    2.9069   20.6401   -0.6930 H   0  0  0  0  0  0  0  0  0  0  0  0
    1.3911   19.6635   -0.8836 H   0  0  0  0  0  0  0  0  0  0  0  0
    2.0332   18.2302    0.5458 H   0  0  0  0  0  0  0  0  0  0  0  0
    5.5512   20.5720    2.0056 H   0  0  0  0  0  0  0  0  0  0  0  0
    5.6042   19.5310    0.5427 H   0  0  0  0  0  0  0  0  0  0  0  0
    4.6151   21.0305    0.5427 H   0  0  0  0  0  0  0  0  0  0  0  0
    3.8907   19.0643    3.7653 H   0  0  0  0  0  0  0  0  0  0  0  0
    3.3489   17.6572    2.7890 H   0  0  0  0  0  0  0  0  0  0  0  0
    5.0799   18.1373    2.7890 H   0  0  0  0  0  0  0  0  0  0  0  0
    3.0019   15.8214   -2.4633 H   0  0  0  0  0  0  0  0  0  0  0  0
    4.2309   16.2048   -0.4197 H   0  0  0  0  0  0  0  0  0  0  0  0
    3.0159   17.3504    0.1871 H   0  0  0  0  0  0  0  0  0  0  0  0
    3.3403   14.6512    1.0697 H   0  0  0  0  0  0  0  0  0  0  0  0
    1.9154   15.6327    1.3996 H   0  0  0  0  0  0  0  0  0  0  0  0
    3.3975   12.9341   -0.3004 H   0  0  0  0  0  0  0  0  0  0  0  0
    2.3026   12.6935   -1.7040 H   0  0  0  0  0  0  0  0  0  0  0  0
    3.4776   14.0522   -1.7040 H   0  0  0  0  0  0  0  0  0  0  0  0
   -0.0015   14.3010    0.7533 H   0  0  0  0  0  0  0  0  0  0  0  0
    1.8749   12.8492    1.7618 H   0  0  0  0  0  0  0  0  0  0  0  0
    0.1069   12.3580    1.9099 H   0  0  0  0  0  0  0  0  0  0  0  0
    1.8108   10.4268    1.3586 H   0  0  0  0  0  0  0  0  0  0  0  0
    0.8089   11.8997   -2.2649 H   0  0  0  0  0  0  0  0  0  0  0  0
   -1.7151   10.4065   -1.3198 H   0  0  0  0  0  0  0  0  0  0  0  0
   -1.5021   11.3118   -2.8838 H   0  0  0  0  0  0  0  0  0  0  0  0
   -1.3263    8.8625   -3.1884 H   0  0  0  0  0  0  0  0  0  0  0  0
    0.2011    9.7366   -3.5992 H   0  0  0  0  0  0  0  0  0  0  0  0
    0.7549    7.7555   -2.3670 H   0  0  0  0  0  0  0  0  0  0  0  0
   -1.1290    8.8230   -0.4710 H   0  0  0  0  0  0  0  0  0  0  0  0
    3.5115    9.8475   -1.5635 H   0  0  0  0  0  0  0  0  0  0  0  0
    2.7390    8.7292   -2.7379 H   0  0  0  0  0  0  0  0  0  0  0  0
    2.3044   10.4722   -2.7379 H   0  0  0  0  0  0  0  0  0  0  0  0
    1.8085    8.7705    0.9874 H   0  0  0  0  0  0  0  0  0  0  0  0
    1.6333    7.3794   -0.1355 H   0  0  0  0  0  0  0  0  0  0  0  0
    3.1456    8.3486   -0.1355 H   0  0  0  0  0  0  0  0  0  0  0  0
   -1.6282   12.7167    0.9349 H   0  0  0  0  0  0  0  0  0  0  0  0
   -2.4925   13.4784   -0.4434 H   0  0  0  0  0  0  0  0  0  0  0  0
   -2.1856   11.7085   -0.4434 H   0  0  0  0  0  0  0  0  0  0  0  0
   -1.0552   13.3370   -2.9179 H   0  0  0  0  0  0  0  0  0  0  0  0
   -1.4543   14.6346   -1.6565 H   0  0  0  0  0  0  0  0  0  0  0  0
    1.1923   14.1726   -3.0600 H   0  0  0  0  0  0  0  0  0  0  0  0
    0.0727   15.5847   -3.1989 H   0  0  0  0  0  0  0  0  0  0  0  0
    0.2066   16.3482    0.4341 H   0  0  0  0  0  0  0  0  0  0  0  0
    0.3111   17.4693   -0.9655 H   0  0  0  0  0  0  0  0  0  0  0  0
   -0.9004   16.1431   -0.9655 H   0  0  0  0  0  0  0  0  0  0  0  0
  1  2  1  0
  2  3  1  0
  3  4  1  0
  4  5  1  0
  5  6  1  0
  6  7  1  0
  7  8  1  0
  7  9  1  0
  2 10  1  0
 10 11  1  0
 11 12  1  0
 12 13  1  0
 13 14  1  6
 13 15  1  0
 15 16  1  0
 16 17  1  0
 17 18  2  0
 18 19  1  0
 19 20  1  0
 20 21  1  0
 21 22  1  0
 22 23  1  0
 22 24  1  0
 24 25  1  0
 24 26  1  0
 19 27  1  0
 27 28  1  1
 27 29  1  0
 29 30  1  0
 30 31  1  0
 31 32  1  1
  7  5  1  0
 31 10  1  0
 31 13  1  0
 27 15  1  0
 24 18  1  0
  1 33  1  0
  1 34  1  0
  1 35  1  0
  2 36  1  6
  3 37  1  0
  3 38  1  0
  4 39  1  0
  4 40  1  0
  5 41  1  1
  8 42  1  0
  8 43  1  0
  8 44  1  0
  9 45  1  0
  9 46  1  0
  9 47  1  0
 10 48  1  6
 11 49  1  0
 11 50  1  0
 12 51  1  0
 12 52  1  0
 14 53  1  0
 14 54  1  0
 14 55  1  0
 15 56  1  1
 16 57  1  0
 16 58  1  0
 17 59  1  0
 19 60  1  6
 20 61  1  0
 20 62  1  0
 21 63  1  0
 21 64  1  0
 22 65  1  6
 23 66  1  0
 25 67  1  0
 25 68  1  0
 25 69  1  0
 26 70  1  0
 26 71  1  0
 26 72  1  0
 28 73  1  0
 28 74  1  0
 28 75  1  0
 29 76  1  0
 29 77  1  0
 30 78  1  0
 30 79  1  0
 32 80  1  0
 32 81  1  0
 32 82  1  0
M  END
>  <meeko>  (15) 
{"is_sidechain": [false], "intermolecular_energy": 2.731, "internal_energy": -0.839}

$$$$
EPH_relaxed_0001_pdb2pqr_Repair_412_r2_0001_out
     RDKit          3D

 82 86  0  0  0  0  0  0  0  0999 V2000
    3.8640    9.5820    0.9410 C   0  0  0  0  0  0  0  0  0  0  0  0
    2.4760    9.9620    0.4180 C   0  0  2  0  0  0  0  0  0  0  0  0
    1.7990    8.7960   -0.3310 C   0  0  0  0  0  0  0  0  0  0  0  0
    0.3060    8.6500   -0.0220 C   0  0  0  0  0  0  0  0  0  0  0  0
   -0.4700    8.2190   -1.2290 C   0  0  2  0  0  0  0  0  0  0  0  0
   -0.8650    9.2860   -2.1000 O   0  0  0  0  0  0  0  0  0  0  0  0
   -1.9290    8.5690   -1.4540 C   0  0  0  0  0  0  0  0  0  0  0  0
   -2.6990    9.3830   -0.4620 C   0  0  0  0  0  0  0  0  0  0  0  0
   -2.7340    7.7160   -2.3860 C   0  0  0  0  0  0  0  0  0  0  0  0
    2.5790   11.1780   -0.4950 C   0  0  1  0  0  0  0  0  0  0  0  0
    2.5440   10.8000   -2.0000 C   0  0  0  0  0  0  0  0  0  0  0  0
    1.7920   11.9420   -2.7300 C   0  0  0  0  0  0  0  0  0  0  0  0
    1.7120   13.0840   -1.6910 C   0  0  1  0  0  0  0  0  0  0  0  0
    3.1050   13.7870   -1.7600 C   0  0  0  0  0  0  0  0  0  0  0  0
    0.5420   14.1040   -1.8730 C   0  0  2  0  0  0  0  0  0  0  0  0
    0.5760   14.9090   -3.1840 C   0  0  0  0  0  0  0  0  0  0  0  0
    1.3190   16.2020   -3.1190 C   0  0  0  0  0  0  0  0  0  0  0  0
    1.6900   16.8350   -1.9900 C   0  0  0  0  0  0  0  0  0  0  0  0
    1.2770   16.2980   -0.6140 C   0  0  1  0  0  0  0  0  0  0  0  0
    0.7410   17.4640    0.2580 C   0  0  0  0  0  0  0  0  0  0  0  0
    1.7280   18.6230    0.3560 C   0  0  0  0  0  0  0  0  0  0  0  0
    2.0690   19.1680   -1.0290 C   0  0  2  0  0  0  0  0  0  0  0  0
    0.8990   19.7710   -1.5880 O   0  0  0  0  0  0  0  0  0  0  0  0
    2.6110   18.0800   -1.9990 C   0  0  0  0  0  0  0  0  0  0  0  0
    4.0260   17.6410   -1.5500 C   0  0  0  0  0  0  0  0  0  0  0  0
    2.7810   18.7310   -3.3980 C   0  0  0  0  0  0  0  0  0  0  0  0
    0.3000   15.0440   -0.6230 C   0  0  1  0  0  0  0  0  0  0  0  0
   -1.1810   15.5240   -0.7060 C   0  0  0  0  0  0  0  0  0  0  0  0
    0.4410   14.2720    0.7420 C   0  0  0  0  0  0  0  0  0  0  0  0
    1.5380   13.1940    0.8200 C   0  0  0  0  0  0  0  0  0  0  0  0
    1.4650   12.2480   -0.3820 C   0  0  2  0  0  0  0  0  0  0  0  0
    0.0840   11.5110   -0.3270 C   0  0  0  0  0  0  0  0  0  0  0  0
    3.8547    9.5845    2.0410 H   0  0  0  0  0  0  0  0  0  0  0  0
    4.1301    8.5780    0.5789 H   0  0  0  0  0  0  0  0  0  0  0  0
    4.6044   10.3105    0.5789 H   0  0  0  0  0  0  0  0  0  0  0  0
    1.8489   10.2038    1.2888 H   0  0  0  0  0  0  0  0  0  0  0  0
    1.9152    8.9635   -1.4119 H   0  0  0  0  0  0  0  0  0  0  0  0
    2.2889    7.8703    0.0053 H   0  0  0  0  0  0  0  0  0  0  0  0
    0.1779    7.8987    0.7712 H   0  0  0  0  0  0  0  0  0  0  0  0
   -0.0754    9.6307    0.2987 H   0  0  0  0  0  0  0  0  0  0  0  0
    0.0741    7.2637   -1.2664 H   0  0  0  0  0  0  0  0  0  0  0  0
   -2.4152    9.0830    0.5576 H   0  0  0  0  0  0  0  0  0  0  0  0
   -2.4714   10.4494   -0.6072 H   0  0  0  0  0  0  0  0  0  0  0  0
   -3.7763    9.2149   -0.6072 H   0  0  0  0  0  0  0  0  0  0  0  0
   -3.3739    7.0380   -1.8022 H   0  0  0  0  0  0  0  0  0  0  0  0
   -3.3628    8.3583   -3.0201 H   0  0  0  0  0  0  0  0  0  0  0  0
   -2.0564    7.1254   -3.0201 H   0  0  0  0  0  0  0  0  0  0  0  0
    3.5354   11.5922   -0.1433 H   0  0  0  0  0  0  0  0  0  0  0  0
    3.5679   10.7095   -2.3918 H   0  0  0  0  0  0  0  0  0  0  0  0
    2.0404    9.8341   -2.1532 H   0  0  0  0  0  0  0  0  0  0  0  0
    2.3494   12.2663   -3.6211 H   0  0  0  0  0  0  0  0  0  0  0  0
    0.7981   11.6283   -3.0819 H   0  0  0  0  0  0  0  0  0  0  0  0
    3.4729   13.9727   -0.7401 H   0  0  0  0  0  0  0  0  0  0  0  0
    3.8162   13.1399   -2.2942 H   0  0  0  0  0  0  0  0  0  0  0  0
    3.0069   14.7435   -2.2942 H   0  0  0  0  0  0  0  0  0  0  0  0
   -0.3351   13.4447   -1.9501 H   0  0  0  0  0  0  0  0  0  0  0  0
    1.0494   14.2833   -3.9549 H   0  0  0  0  0  0  0  0  0  0  0  0
   -0.4689   15.1693   -3.4085 H   0  0  0  0  0  0  0  0  0  0  0  0
    1.5860   16.6779   -4.0741 H   0  0  0  0  0  0  0  0  0  0  0  0
    2.1910   15.8841   -0.1631 H   0  0  0  0  0  0  0  0  0  0  0  0
   -0.1950   17.8345   -0.1854 H   0  0  0  0  0  0  0  0  0  0  0  0
    0.5813   17.0747    1.2743 H   0  0  0  0  0  0  0  0  0  0  0  0
    1.2806   19.4268    0.9590 H   0  0  0  0  0  0  0  0  0  0  0  0
    2.6526   18.2579    0.8270 H   0  0  0  0  0  0  0  0  0  0  0  0
    2.8748   19.9063   -0.9039 H   0  0  0  0  0  0  0  0  0  0  0  0
    0.4950   19.1260   -2.1930 H   0  0  0  0  0  0  0  0  0  0  0  0
    4.0739   17.6262   -0.4511 H   0  0  0  0  0  0  0  0  0  0  0  0
    4.2387   16.6346   -1.9399 H   0  0  0  0  0  0  0  0  0  0  0  0
    4.7709   18.3503   -1.9399 H   0  0  0  0  0  0  0  0  0  0  0  0
    3.0573   19.7891   -3.2789 H   0  0  0  0  0  0  0  0  0  0  0  0
    3.5721   18.2057   -3.9532 H   0  0  0  0  0  0  0  0  0  0  0  0
    1.8341   18.6595   -3.9532 H   0  0  0  0  0  0  0  0  0  0  0  0
   -1.5818   15.6539    0.3101 H   0  0  0  0  0  0  0  0  0  0  0  0
   -1.2261   16.4828   -1.2433 H   0  0  0  0  0  0  0  0  0  0  0  0
   -1.7800   14.7740   -1.2433 H   0  0  0  0  0  0  0  0  0  0  0  0
    0.6492   15.0159    1.5251 H   0  0  0  0  0  0  0  0  0  0  0  0
   -0.5069   13.7274    0.8639 H   0  0  0  0  0  0  0  0  0  0  0  0
    2.5230   13.6835    0.8331 H   0  0  0  0  0  0  0  0  0  0  0  0
    1.3871   12.6066    1.7377 H   0  0  0  0  0  0  0  0  0  0  0  0
   -0.2072   11.3556    0.7223 H   0  0  0  0  0  0  0  0  0  0  0  0
   -0.6782   12.1223   -0.8324 H   0  0  0  0  0  0  0  0  0  0  0  0
    0.1675   10.5375   -0.8324 H   0  0  0  0  0  0  0  0  0  0  0  0
  1  2  1  0
  2  3  1  0
  3  4  1  0
  4  5  1  0
  5  6  1  0
  6  7  1  0
  7  8  1  0
  7  9  1  0
  2 10  1  0
 10 11  1  0
 11 12  1  0
 12 13  1  0
 13 14  1  1
 13 15  1  0
 15 16  1  0
 16 17  1  0
 17 18  2  0
 18 19  1  0
 19 20  1  0
 20 21  1  0
 21 22  1  0
 22 23  1  0
 22 24  1  0
 24 25  1  0
 24 26  1  0
 19 27  1  0
 27 28  1  6
 27 29  1  0
 29 30  1  0
 30 31  1  0
 31 32  1  6
  7  5  1  0
 31 10  1  0
 31 13  1  0
 27 15  1  0
 24 18  1  0
  1 33  1  0
  1 34  1  0
  1 35  1  0
  2 36  1  1
  3 37  1  0
  3 38  1  0
  4 39  1  0
  4 40  1  0
  5 41  1  6
  8 42  1  0
  8 43  1  0
  8 44  1  0
  9 45  1  0
  9 46  1  0
  9 47  1  0
 10 48  1  6
 11 49  1  0
 11 50  1  0
 12 51  1  0
 12 52  1  0
 14 53  1  0
 14 54  1  0
 14 55  1  0
 15 56  1  6
 16 57  1  0
 16 58  1  0
 17 59  1  0
 19 60  1  1
 20 61  1  0
 20 62  1  0
 21 63  1  0
 21 64  1  0
 22 65  1  1
 23 66  1  0
 25 67  1  0
 25 68  1  0
 25 69  1  0
 26 70  1  0
 26 71  1  0
 26 72  1  0
 28 73  1  0
 28 74  1  0
 28 75  1  0
 29 76  1  0
 29 77  1  0
 30 78  1  0
 30 79  1  0
 32 80  1  0
 32 81  1  0
 32 82  1  0
M  END
>  <meeko>  (16) 
{"is_sidechain": [false], "intermolecular_energy": 2.731, "internal_energy": -0.839}

$$$$
EPH_relaxed_0001_pdb2pqr_Repair_412_r2_0001_out
     RDKit          3D

 82 86  0  0  0  0  0  0  0  0999 V2000
    2.8280   11.3600   -5.3790 C   0  0  0  0  0  0  0  0  0  0  0  0
    1.8260   11.0530   -4.2630 C   0  0  2  0  0  0  0  0  0  0  0  0
    0.7060   10.1040   -4.7340 C   0  0  0  0  0  0  0  0  0  0  0  0
   -0.3600    9.8340   -3.6680 C   0  0  0  0  0  0  0  0  0  0  0  0
    0.1860    9.0230   -2.5320 C   0  0  2  0  0  0  0  0  0  0  0  0
   -0.6410    7.9220   -2.1310 O   0  0  0  0  0  0  0  0  0  0  0  0
   -0.4590    8.9650   -1.1590 C   0  0  0  0  0  0  0  0  0  0  0  0
   -1.7060    9.7340   -0.8510 C   0  0  0  0  0  0  0  0  0  0  0  0
    0.3830    8.5600    0.0100 C   0  0  0  0  0  0  0  0  0  0  0  0
    1.2230   12.3500   -3.7360 C   0  0  1  0  0  0  0  0  0  0  0  0
   -0.3170   12.2650   -3.5630 C   0  0  0  0  0  0  0  0  0  0  0  0
   -0.6760   13.1180   -2.3190 C   0  0  0  0  0  0  0  0  0  0  0  0
    0.6080   13.9260   -2.0170 C   0  0  1  0  0  0  0  0  0  0  0  0
    0.5680   15.1290   -3.0100 C   0  0  0  0  0  0  0  0  0  0  0  0
    0.7930   14.4020   -0.5390 C   0  0  2  0  0  0  0  0  0  0  0  0
   -0.2850   15.3730   -0.0270 C   0  0  0  0  0  0  0  0  0  0  0  0
    0.0110   16.8210   -0.2350 C   0  0  0  0  0  0  0  0  0  0  0  0
    1.2140   17.3370   -0.5480 C   0  0  0  0  0  0  0  0  0  0  0  0
    2.4570   16.4420   -0.6290 C   0  0  1  0  0  0  0  0  0  0  0  0
    3.6310   17.1170    0.1290 C   0  0  0  0  0  0  0  0  0  0  0  0
    3.9020   18.5370   -0.3570 C   0  0  0  0  0  0  0  0  0  0  0  0
    2.6590   19.4110   -0.2070 C   0  0  2  0  0  0  0  0  0  0  0  0
    2.3810   19.5820    1.1860 O   0  0  0  0  0  0  0  0  0  0  0  0
    1.4090   18.8270   -0.9220 C   0  0  0  0  0  0  0  0  0  0  0  0
    1.5950   18.9230   -2.4560 C   0  0  0  0  0  0  0  0  0  0  0  0
    0.1940   19.7300   -0.5740 C   0  0  0  0  0  0  0  0  0  0  0  0
    2.2490   14.9250   -0.2040 C   0  0  1  0  0  0  0  0  0  0  0  0
    2.4320   14.7740    1.3370 C   0  0  0  0  0  0  0  0  0  0  0  0
    3.3700   14.0450   -0.8730 C   0  0  0  0  0  0  0  0  0  0  0  0
    3.0780   13.5050   -2.2860 C   0  0  0  0  0  0  0  0  0  0  0  0
    1.6990   12.8420   -2.3460 C   0  0  2  0  0  0  0  0  0  0  0  0
    1.7160   11.6130   -1.3730 C   0  0  0  0  0  0  0  0  0  0  0  0
    3.7908   11.6550   -4.9364 H   0  0  0  0  0  0  0  0  0  0  0  0
    2.9697   10.4641   -6.0013 H   0  0  0  0  0  0  0  0  0  0  0  0
    2.4435   12.1815   -6.0013 H   0  0  0  0  0  0  0  0  0  0  0  0
    2.3733   10.5428   -3.4567 H   0  0  0  0  0  0  0  0  0  0  0  0
    0.2154   10.5534   -5.6099 H   0  0  0  0  0  0  0  0  0  0  0  0
    1.1791    9.1388   -4.9676 H   0  0  0  0  0  0  0  0  0  0  0  0
   -0.7248   10.7953   -3.2769 H   0  0  0  0  0  0  0  0  0  0  0  0
   -1.1762    9.2638   -4.1356 H   0  0  0  0  0  0  0  0  0  0  0  0
    1.2186    9.2232   -2.8541 H   0  0  0  0  0  0  0  0  0  0  0  0
   -1.8298    9.8103    0.2393 H   0  0  0  0  0  0  0  0  0  0  0  0
   -1.6308   10.7428   -1.2830 H   0  0  0  0  0  0  0  0  0  0  0  0
   -2.5737    9.2139   -1.2830 H   0  0  0  0  0  0  0  0  0  0  0  0
   -0.1408    8.8119    0.9439 H   0  0  0  0  0  0  0  0  0  0  0  0
    0.5650    7.4758   -0.0273 H   0  0  0  0  0  0  0  0  0  0  0  0
    1.3436    9.0946   -0.0273 H   0  0  0  0  0  0  0  0  0  0  0  0
    1.5646   13.0440   -4.5181 H   0  0  0  0  0  0  0  0  0  0  0  0
   -0.8209   12.6655   -4.4550 H   0  0  0  0  0  0  0  0  0  0  0  0
   -0.6426   11.2223   -3.4338 H   0  0  0  0  0  0  0  0  0  0  0  0
   -1.5164   13.7925   -2.5399 H   0  0  0  0  0  0  0  0  0  0  0  0
   -0.9904   12.4995   -1.4654 H   0  0  0  0  0  0  0  0  0  0  0  0
    0.5367   16.0713   -2.4433 H   0  0  0  0  0  0  0  0  0  0  0  0
    1.4672   15.1117   -3.6433 H   0  0  0  0  0  0  0  0  0  0  0  0
   -0.3281   15.0520   -3.6433 H   0  0  0  0  0  0  0  0  0  0  0  0
    0.6501   13.4708    0.0289 H   0  0  0  0  0  0  0  0  0  0  0  0
   -1.2263   15.1404   -0.5464 H   0  0  0  0  0  0  0  0  0  0  0  0
   -0.3348   15.2258    1.0620 H   0  0  0  0  0  0  0  0  0  0  0  0
   -0.8254   17.5266   -0.1229 H   0  0  0  0  0  0  0  0  0  0  0  0
    2.7013   16.3576   -1.6982 H   0  0  0  0  0  0  0  0  0  0  0  0
    3.3850   17.1521    1.2006 H   0  0  0  0  0  0  0  0  0  0  0  0
    4.5363   16.5213   -0.0595 H   0  0  0  0  0  0  0  0  0  0  0  0
    4.7207   18.9705    0.2361 H   0  0  0  0  0  0  0  0  0  0  0  0
    4.1774   18.4976   -1.4212 H   0  0  0  0  0  0  0  0  0  0  0  0
    2.8739   20.3755   -0.6903 H   0  0  0  0  0  0  0  0  0  0  0  0
    1.5960   19.0480    1.3970 H   0  0  0  0  0  0  0  0  0  0  0  0
    2.5522   19.4170   -2.6791 H   0  0  0  0  0  0  0  0  0  0  0  0
    1.5944   17.9120   -2.8894 H   0  0  0  0  0  0  0  0  0  0  0  0
    0.7706   19.5082   -2.8894 H   0  0  0  0  0  0  0  0  0  0  0  0
    0.0937   19.8046    0.5189 H   0  0  0  0  0  0  0  0  0  0  0  0
    0.3497   20.7333   -0.9972 H   0  0  0  0  0  0  0  0  0  0  0  0
   -0.7218   19.2916   -0.9972 H   0  0  0  0  0  0  0  0  0  0  0  0
    1.6844   15.3909    1.8572 H   0  0  0  0  0  0  0  0  0  0  0  0
    2.2987   13.7195    1.6205 H   0  0  0  0  0  0  0  0  0  0  0  0
    3.4420   15.1051    1.6205 H   0  0  0  0  0  0  0  0  0  0  0  0
    4.2822   14.6568   -0.9324 H   0  0  0  0  0  0  0  0  0  0  0  0
    3.4544   13.1526   -0.2354 H   0  0  0  0  0  0  0  0  0  0  0  0
    3.1078   14.3387   -3.0030 H   0  0  0  0  0  0  0  0  0  0  0  0
    3.8398   12.7526   -2.5380 H   0  0  0  0  0  0  0  0  0  0  0  0
    1.7111   11.9692   -0.3323 H   0  0  0  0  0  0  0  0  0  0  0  0
    0.8264   10.9913   -1.5520 H   0  0  0  0  0  0  0  0  0  0  0  0
    2.6225   11.0161   -1.5520 H   0  0  0  0  0  0  0  0  0  0  0  0
  1  2  1  0
  2  3  1  0
  3  4  1  0
  4  5  1  0
  5  6  1  0
  6  7  1  0
  7  8  1  0
  7  9  1  0
  2 10  1  0
 10 11  1  0
 11 12  1  0
 12 13  1  0
 13 14  1  6
 13 15  1  0
 15 16  1  0
 16 17  1  0
 17 18  2  0
 18 19  1  0
 19 20  1  0
 20 21  1  0
 21 22  1  0
 22 23  1  0
 22 24  1  0
 24 25  1  0
 24 26  1  0
 19 27  1  0
 27 28  1  1
 27 29  1  0
 29 30  1  0
 30 31  1  0
 31 32  1  1
  7  5  1  0
 31 10  1  0
 31 13  1  0
 27 15  1  0
 24 18  1  0
  1 33  1  0
  1 34  1  0
  1 35  1  0
  2 36  1  1
  3 37  1  0
  3 38  1  0
  4 39  1  0
  4 40  1  0
  5 41  1  1
  8 42  1  0
  8 43  1  0
  8 44  1  0
  9 45  1  0
  9 46  1  0
  9 47  1  0
 10 48  1  6
 11 49  1  0
 11 50  1  0
 12 51  1  0
 12 52  1  0
 14 53  1  0
 14 54  1  0
 14 55  1  0
 15 56  1  1
 16 57  1  0
 16 58  1  0
 17 59  1  0
 19 60  1  6
 20 61  1  0
 20 62  1  0
 21 63  1  0
 21 64  1  0
 22 65  1  6
 23 66  1  0
 25 67  1  0
 25 68  1  0
 25 69  1  0
 26 70  1  0
 26 71  1  0
 26 72  1  0
 28 73  1  0
 28 74  1  0
 28 75  1  0
 29 76  1  0
 29 77  1  0
 30 78  1  0
 30 79  1  0
 32 80  1  0
 32 81  1  0
 32 82  1  0
M  END
>  <meeko>  (17) 
{"is_sidechain": [false], "intermolecular_energy": 2.731, "internal_energy": -0.839}

$$$$
EPH_relaxed_0001_pdb2pqr_Repair_412_r2_0001_out
     RDKit          3D

 82 86  0  0  0  0  0  0  0  0999 V2000
    1.6960   18.5800   -2.3020 C   0  0  0  0  0  0  0  0  0  0  0  0
    2.1170   17.3570   -3.1220 C   0  0  2  0  0  0  0  0  0  0  0  0
    1.1140   17.0400   -4.2490 C   0  0  0  0  0  0  0  0  0  0  0  0
    1.6260   16.0070   -5.2570 C   0  0  0  0  0  0  0  0  0  0  0  0
    0.6160   15.7300   -6.3290 C   0  0  2  0  0  0  0  0  0  0  0  0
    0.7160   14.4300   -6.9240 O   0  0  0  0  0  0  0  0  0  0  0  0
    0.9770   15.5460   -7.7910 C   0  0  0  0  0  0  0  0  0  0  0  0
    2.3950   15.6330   -8.2610 C   0  0  0  0  0  0  0  0  0  0  0  0
   -0.0840   15.7680   -8.8230 C   0  0  0  0  0  0  0  0  0  0  0  0
    2.2730   16.1470   -2.2080 C   0  0  1  0  0  0  0  0  0  0  0  0
    2.7390   16.5330   -0.7790 C   0  0  0  0  0  0  0  0  0  0  0  0
    2.0490   15.5480    0.1990 C   0  0  0  0  0  0  0  0  0  0  0  0
    1.4800   14.4330   -0.7090 C   0  0  1  0  0  0  0  0  0  0  0  0
    2.6920   13.4930   -0.9980 C   0  0  0  0  0  0  0  0  0  0  0  0
    0.2570   13.6390   -0.1440 C   0  0  2  0  0  0  0  0  0  0  0  0
    0.5320   12.8480    1.1470 C   0  0  0  0  0  0  0  0  0  0  0  0
    0.9940   11.4420    0.9470 C   0  0  0  0  0  0  0  0  0  0  0  0
    0.9100   10.7470   -0.2030 C   0  0  0  0  0  0  0  0  0  0  0  0
    0.2130   11.3420   -1.4340 C   0  0  1  0  0  0  0  0  0  0  0  0
   -0.7420   10.2860   -2.0490 C   0  0  0  0  0  0  0  0  0  0  0  0
   -0.0360    8.9690   -2.3580 C   0  0  0  0  0  0  0  0  0  0  0  0
    0.5940    8.3800   -1.0980 C   0  0  2  0  0  0  0  0  0  0  0  0
   -0.4500    7.9980   -0.1960 O   0  0  0  0  0  0  0  0  0  0  0  0
    1.5690    9.3580   -0.3850 C   0  0  0  0  0  0  0  0  0  0  0  0
    2.8470    9.5350   -1.2420 C   0  0  0  0  0  0  0  0  0  0  0  0
    2.0240    8.6950    0.9430 C   0  0  0  0  0  0  0  0  0  0  0  0
   -0.4920   12.7500   -1.2190 C   0  0  1  0  0  0  0  0  0  0  0  0
   -1.9440   12.5430   -0.6910 C   0  0  0  0  0  0  0  0  0  0  0  0
   -0.6230   13.4770   -2.6090 C   0  0  0  0  0  0  0  0  0  0  0  0
    0.5700   14.3420   -3.0570 C   0  0  0  0  0  0  0  0  0  0  0  0
    1.0090   15.2920   -1.9380 C   0  0  2  0  0  0  0  0  0  0  0  0
   -0.1830   16.2640   -1.6410 C   0  0  0  0  0  0  0  0  0  0  0  0
    1.7759   18.3478   -1.2298 H   0  0  0  0  0  0  0  0  0  0  0  0
    2.3541   19.4277   -2.5436 H   0  0  0  0  0  0  0  0  0  0  0  0
    0.6556   18.8430   -2.5436 H   0  0  0  0  0  0  0  0  0  0  0  0
    3.0816   17.5923   -3.5954 H   0  0  0  0  0  0  0  0  0  0  0  0
    0.1909   16.6525   -3.7933 H   0  0  0  0  0  0  0  0  0  0  0  0
    0.9480   17.9753   -4.8037 H   0  0  0  0  0  0  0  0  0  0  0  0
    2.5454   16.3900   -5.7239 H   0  0  0  0  0  0  0  0  0  0  0  0
    1.8192   15.0681   -4.7174 H   0  0  0  0  0  0  0  0  0  0  0  0
   -0.1264   16.3679   -5.8272 H   0  0  0  0  0  0  0  0  0  0  0  0
    3.0676   15.6743   -7.3916 H   0  0  0  0  0  0  0  0  0  0  0  0
    2.6349   14.7479   -8.8685 H   0  0  0  0  0  0  0  0  0  0  0  0
    2.5249   16.5408   -8.8685 H   0  0  0  0  0  0  0  0  0  0  0  0
   -1.0439   15.9688   -8.3247 H   0  0  0  0  0  0  0  0  0  0  0  0
    0.1900   16.6283   -9.4514 H   0  0  0  0  0  0  0  0  0  0  0  0
   -0.1779   14.8701   -9.4514 H   0  0  0  0  0  0  0  0  0  0  0  0
    3.0023   15.5675   -2.7931 H   0  0  0  0  0  0  0  0  0  0  0  0
    3.8323   16.4416   -0.6997 H   0  0  0  0  0  0  0  0  0  0  0  0
    2.4716   17.5739   -0.5446 H   0  0  0  0  0  0  0  0  0  0  0  0
    2.7773   15.1345    0.9121 H   0  0  0  0  0  0  0  0  0  0  0  0
    1.2680   16.0356    0.8009 H   0  0  0  0  0  0  0  0  0  0  0  0
    3.1285   13.1545   -0.0467 H   0  0  0  0  0  0  0  0  0  0  0  0
    2.3504   12.6213   -1.5755 H   0  0  0  0  0  0  0  0  0  0  0  0
    3.4513   14.0407   -1.5755 H   0  0  0  0  0  0  0  0  0  0  0  0
   -0.4352   14.4448    0.1417 H   0  0  0  0  0  0  0  0  0  0  0  0
    1.3073   13.3831    1.7149 H   0  0  0  0  0  0  0  0  0  0  0  0
   -0.4314   12.7800    1.6735 H   0  0  0  0  0  0  0  0  0  0  0  0
    1.4408   10.9310    1.8126 H   0  0  0  0  0  0  0  0  0  0  0  0
    1.0132   11.5835   -2.1491 H   0  0  0  0  0  0  0  0  0  0  0  0
   -1.5573   10.0905   -1.3369 H   0  0  0  0  0  0  0  0  0  0  0  0
   -1.1224   10.6919   -2.9980 H   0  0  0  0  0  0  0  0  0  0  0  0
   -0.7678    8.2543   -2.7626 H   0  0  0  0  0  0  0  0  0  0  0  0
    0.7602    9.1608   -3.0924 H   0  0  0  0  0  0  0  0  0  0  0  0
    1.1926    7.5096   -1.4047 H   0  0  0  0  0  0  0  0  0  0  0  0
   -0.0430    7.8360    0.6720 H   0  0  0  0  0  0  0  0  0  0  0  0
    3.7179    9.6556   -0.5810 H   0  0  0  0  0  0  0  0  0  0  0  0
    2.9886    8.6479   -1.8768 H   0  0  0  0  0  0  0  0  0  0  0  0
    2.7421   10.4272   -1.8768 H   0  0  0  0  0  0  0  0  0  0  0  0
    1.6295    9.2699    1.7938 H   0  0  0  0  0  0  0  0  0  0  0  0
    1.6419    7.6645    0.9881 H   0  0  0  0  0  0  0  0  0  0  0  0
    3.1230    8.6809    0.9881 H   0  0  0  0  0  0  0  0  0  0  0  0
   -1.9378   12.5439    0.4090 H   0  0  0  0  0  0  0  0  0  0  0  0
   -2.5862   13.3587   -1.0547 H   0  0  0  0  0  0  0  0  0  0  0  0
   -2.3327   11.5804   -1.0547 H   0  0  0  0  0  0  0  0  0  0  0  0
   -0.7792   12.7035   -3.3754 H   0  0  0  0  0  0  0  0  0  0  0  0
   -1.4588   14.1816   -2.4869 H   0  0  0  0  0  0  0  0  0  0  0  0
    1.4115   13.6850   -3.3221 H   0  0  0  0  0  0  0  0  0  0  0  0
    0.2616   14.9420   -3.9258 H   0  0  0  0  0  0  0  0  0  0  0  0
   -0.3096   16.3673   -0.5532 H   0  0  0  0  0  0  0  0  0  0  0  0
    0.0294   17.2497   -2.0806 H   0  0  0  0  0  0  0  0  0  0  0  0
   -1.1058   15.8576   -2.0806 H   0  0  0  0  0  0  0  0  0  0  0  0
  1  2  1  0
  2  3  1  0
  3  4  1  0
  4  5  1  0
  5  6  1  0
  6  7  1  0
  7  8  1  0
  7  9  1  0
  2 10  1  0
 10 11  1  0
 11 12  1  0
 12 13  1  0
 13 14  1  6
 13 15  1  0
 15 16  1  0
 16 17  1  0
 17 18  2  0
 18 19  1  0
 19 20  1  0
 20 21  1  0
 21 22  1  0
 22 23  1  0
 22 24  1  0
 24 25  1  0
 24 26  1  0
 19 27  1  0
 27 28  1  1
 27 29  1  0
 29 30  1  0
 30 31  1  0
 31 32  1  1
  7  5  1  0
 31 10  1  0
 31 13  1  0
 27 15  1  0
 24 18  1  0
  1 33  1  0
  1 34  1  0
  1 35  1  0
  2 36  1  6
  3 37  1  0
  3 38  1  0
  4 39  1  0
  4 40  1  0
  5 41  1  6
  8 42  1  0
  8 43  1  0
  8 44  1  0
  9 45  1  0
  9 46  1  0
  9 47  1  0
 10 48  1  6
 11 49  1  0
 11 50  1  0
 12 51  1  0
 12 52  1  0
 14 53  1  0
 14 54  1  0
 14 55  1  0
 15 56  1  1
 16 57  1  0
 16 58  1  0
 17 59  1  0
 19 60  1  6
 20 61  1  0
 20 62  1  0
 21 63  1  0
 21 64  1  0
 22 65  1  6
 23 66  1  0
 25 67  1  0
 25 68  1  0
 25 69  1  0
 26 70  1  0
 26 71  1  0
 26 72  1  0
 28 73  1  0
 28 74  1  0
 28 75  1  0
 29 76  1  0
 29 77  1  0
 30 78  1  0
 30 79  1  0
 32 80  1  0
 32 81  1  0
 32 82  1  0
M  END
>  <meeko>  (18) 
{"is_sidechain": [false], "intermolecular_energy": 2.731, "internal_energy": -0.839}

$$$$
