EPH_relaxed_0001_pdb2pqr_Repair_161_r2_0001_out
     RDKit          3D

 82 86  0  0  0  0  0  0  0  0999 V2000
   -1.7130    8.5940   -1.8840 C   0  0  0  0  0  0  0  0  0  0  0  0
   -2.0900    9.1160   -0.4940 C   0  0  2  0  0  0  0  0  0  0  0  0
   -3.5850    9.4790   -0.3960 C   0  0  0  0  0  0  0  0  0  0  0  0
   -4.5050    8.2640   -0.2380 C   0  0  0  0  0  0  0  0  0  0  0  0
   -5.2040    7.9280   -1.5200 C   0  0  2  0  0  0  0  0  0  0  0  0
   -6.3530    8.7370   -1.8060 O   0  0  0  0  0  0  0  0  0  0  0  0
   -6.6020    7.3400   -1.5820 C   0  0  0  0  0  0  0  0  0  0  0  0
   -7.3830    7.0530   -0.3380 C   0  0  0  0  0  0  0  0  0  0  0  0
   -7.0110    6.5950   -2.8140 C   0  0  0  0  0  0  0  0  0  0  0  0
   -1.2360   10.3280   -0.1450 C   0  0  1  0  0  0  0  0  0  0  0  0
   -0.2120   10.0330    0.9840 C   0  0  0  0  0  0  0  0  0  0  0  0
    1.0590   10.8610    0.6630 C   0  0  0  0  0  0  0  0  0  0  0  0
    0.6120   11.8490   -0.4400 C   0  0  1  0  0  0  0  0  0  0  0  0
   -0.1020   13.0070    0.3250 C   0  0  0  0  0  0  0  0  0  0  0  0
    1.7380   12.3880   -1.3820 C   0  0  2  0  0  0  0  0  0  0  0  0
    2.8340   13.2110   -0.6840 C   0  0  0  0  0  0  0  0  0  0  0  0
    2.5800   14.6800   -0.6120 C   0  0  0  0  0  0  0  0  0  0  0  0
    1.6610   15.3510   -1.3310 C   0  0  0  0  0  0  0  0  0  0  0  0
    0.8260   14.6390   -2.4020 C   0  0  1  0  0  0  0  0  0  0  0  0
    0.8060   15.4930   -3.6970 C   0  0  0  0  0  0  0  0  0  0  0  0
    0.3380   16.9230   -3.4470 C   0  0  0  0  0  0  0  0  0  0  0  0
    1.2290   17.6180   -2.4200 C   0  0  2  0  0  0  0  0  0  0  0  0
    2.5340   17.7860   -2.9810 O   0  0  0  0  0  0  0  0  0  0  0  0
    1.3330   16.8430   -1.0760 C   0  0  0  0  0  0  0  0  0  0  0  0
   -0.0190   16.9220   -0.3250 C   0  0  0  0  0  0  0  0  0  0  0  0
    2.3690   17.5750   -0.1820 C   0  0  0  0  0  0  0  0  0  0  0  0
    1.2020   13.1200   -2.6790 C   0  0  1  0  0  0  0  0  0  0  0  0
    2.3430   13.0390   -3.7390 C   0  0  0  0  0  0  0  0  0  0  0  0
   -0.0410   12.3880   -3.3080 C   0  0  0  0  0  0  0  0  0  0  0  0
   -1.0560   11.7730   -2.3260 C   0  0  0  0  0  0  0  0  0  0  0  0
   -0.3490   10.9210   -1.2680 C   0  0  2  0  0  0  0  0  0  0  0  0
    0.3610    9.7350   -2.0060 C   0  0  0  0  0  0  0  0  0  0  0  0
   -1.0718    7.7062   -1.7808 H   0  0  0  0  0  0  0  0  0  0  0  0
   -2.6264    8.3246   -2.4347 H   0  0  0  0  0  0  0  0  0  0  0  0
   -1.1701    9.3763   -2.4347 H   0  0  0  0  0  0  0  0  0  0  0  0
   -1.8990    8.3069    0.2263 H   0  0  0  0  0  0  0  0  0  0  0  0
   -3.7262   10.1370    0.4741 H   0  0  0  0  0  0  0  0  0  0  0  0
   -3.8594    9.9690   -1.3418 H   0  0  0  0  0  0  0  0  0  0  0  0
   -3.9026    7.3992    0.0769 H   0  0  0  0  0  0  0  0  0  0  0  0
   -5.2686    8.5076    0.5154 H   0  0  0  0  0  0  0  0  0  0  0  0
   -4.2545    7.6248   -1.9853 H   0  0  0  0  0  0  0  0  0  0  0  0
   -6.7652    7.2800    0.5434 H   0  0  0  0  0  0  0  0  0  0  0  0
   -8.2887    7.6770   -0.3215 H   0  0  0  0  0  0  0  0  0  0  0  0
   -7.6691    5.9910   -0.3215 H   0  0  0  0  0  0  0  0  0  0  0  0
   -7.5220    5.6642   -2.5269 H   0  0  0  0  0  0  0  0  0  0  0  0
   -7.6931    7.2189   -3.4103 H   0  0  0  0  0  0  0  0  0  0  0  0
   -6.1185    6.3544   -3.4103 H   0  0  0  0  0  0  0  0  0  0  0  0
   -2.0298   11.0407    0.1232 H   0  0  0  0  0  0  0  0  0  0  0  0
   -0.6247   10.3348    1.9580 H   0  0  0  0  0  0  0  0  0  0  0  0
    0.0193    8.9589    1.0365 H   0  0  0  0  0  0  0  0  0  0  0  0
    1.4039   11.4046    1.5549 H   0  0  0  0  0  0  0  0  0  0  0  0
    1.8991   10.2282    0.3410 H   0  0  0  0  0  0  0  0  0  0  0  0
   -0.0029   12.8464    1.4087 H   0  0  0  0  0  0  0  0  0  0  0  0
    0.3614   13.9668    0.0527 H   0  0  0  0  0  0  0  0  0  0  0  0
   -1.1676   13.0240    0.0527 H   0  0  0  0  0  0  0  0  0  0  0  0
    2.2286   11.4624   -1.7176 H   0  0  0  0  0  0  0  0  0  0  0  0
    2.9398   12.8336    0.3438 H   0  0  0  0  0  0  0  0  0  0  0  0
    3.7412   13.0887   -1.2939 H   0  0  0  0  0  0  0  0  0  0  0  0
    3.1960   15.2637    0.0879 H   0  0  0  0  0  0  0  0  0  0  0  0
   -0.1912   14.5609   -1.9908 H   0  0  0  0  0  0  0  0  0  0  0  0
    1.8228   15.5228   -4.1156 H   0  0  0  0  0  0  0  0  0  0  0  0
    0.0949   15.0259   -4.3942 H   0  0  0  0  0  0  0  0  0  0  0  0
    0.3738   17.4838   -4.3926 H   0  0  0  0  0  0  0  0  0  0  0  0
   -0.6898   16.8924   -3.0561 H   0  0  0  0  0  0  0  0  0  0  0  0
    0.7691   18.5897   -2.1871 H   0  0  0  0  0  0  0  0  0  0  0  0
    2.9350   18.5670   -2.5640 H   0  0  0  0  0  0  0  0  0  0  0  0
    0.1630   16.9114    0.7598 H   0  0  0  0  0  0  0  0  0  0  0  0
   -0.5378   17.8520   -0.6007 H   0  0  0  0  0  0  0  0  0  0  0  0
   -0.6426   16.0588   -0.6007 H   0  0  0  0  0  0  0  0  0  0  0  0
    2.1258   17.4032    0.8769 H   0  0  0  0  0  0  0  0  0  0  0  0
    3.3760   17.1868   -0.3946 H   0  0  0  0  0  0  0  0  0  0  0  0
    2.3395   18.6539   -0.3946 H   0  0  0  0  0  0  0  0  0  0  0  0
    3.3144   12.9700   -3.2275 H   0  0  0  0  0  0  0  0  0  0  0  0
    2.1961   12.1490   -4.3686 H   0  0  0  0  0  0  0  0  0  0  0  0
    2.3233   13.9408   -4.3686 H   0  0  0  0  0  0  0  0  0  0  0  0
   -0.5795   13.1199   -3.9279 H   0  0  0  0  0  0  0  0  0  0  0  0
    0.3776   11.5342   -3.8610 H   0  0  0  0  0  0  0  0  0  0  0  0
   -1.6084   12.5822   -1.8259 H   0  0  0  0  0  0  0  0  0  0  0  0
   -1.7449   11.1286   -2.8919 H   0  0  0  0  0  0  0  0  0  0  0  0
    0.7780    9.0384   -1.2638 H   0  0  0  0  0  0  0  0  0  0  0  0
   -0.3689    9.2057   -2.6361 H   0  0  0  0  0  0  0  0  0  0  0  0
    1.1723   10.1283   -2.6361 H   0  0  0  0  0  0  0  0  0  0  0  0
  1  2  1  0
  2  3  1  0
  3  4  1  0
  4  5  1  0
  5  6  1  0
  6  7  1  0
  7  8  1  0
  7  9  1  0
  2 10  1  0
 10 11  1  0
 11 12  1  0
 12 13  1  0
 13 14  1  1
 13 15  1  0
 15 16  1  0
 16 17  1  0
 17 18  2  0
 18 19  1  0
 19 20  1  0
 20 21  1  0
 21 22  1  0
 22 23  1  0
 22 24  1  0
 24 25  1  0
 24 26  1  0
 19 27  1  0
 27 28  1  6
 27 29  1  0
 29 30  1  0
 30 31  1  0
 31 32  1  6
  7  5  1  0
 31 10  1  0
 31 13  1  0
 27 15  1  0
 24 18  1  0
  1 33  1  0
  1 34  1  0
  1 35  1  0
  2 36  1  1
  3 37  1  0
  3 38  1  0
  4 39  1  0
  4 40  1  0
  5 41  1  6
  8 42  1  0
  8 43  1  0
  8 44  1  0
  9 45  1  0
  9 46  1  0
  9 47  1  0
 10 48  1  1
 11 49  1  0
 11 50  1  0
 12 51  1  0
 12 52  1  0
 14 53  1  0
 14 54  1  0
 14 55  1  0
 15 56  1  6
 16 57  1  0
 16 58  1  0
 17 59  1  0
 19 60  1  1
 20 61  1  0
 20 62  1  0
 21 63  1  0
 21 64  1  0
 22 65  1  1
 23 66  1  0
 25 67  1  0
 25 68  1  0
 25 69  1  0
 26 70  1  0
 26 71  1  0
 26 72  1  0
 28 73  1  0
 28 74  1  0
 28 75  1  0
 29 76  1  0
 29 77  1  0
 30 78  1  0
 30 79  1  0
 32 80  1  0
 32 81  1  0
 32 82  1  0
M  END
>  <meeko>  (1) 
{"is_sidechain": [false], "intermolecular_energy": 2.731, "internal_energy": -0.839}

$$$$
EPH_relaxed_0001_pdb2pqr_Repair_161_r2_0001_out
     RDKit          3D

 82 86  0  0  0  0  0  0  0  0999 V2000
    2.2260   19.4810   -0.7420 C   0  0  0  0  0  0  0  0  0  0  0  0
    2.5280   18.3080    0.1940 C   0  0  2  0  0  0  0  0  0  0  0  0
    3.9680   17.7850    0.0240 C   0  0  0  0  0  0  0  0  0  0  0  0
    4.9620   18.3810    1.0250 C   0  0  0  0  0  0  0  0  0  0  0  0
    4.2680   18.9240    2.2370 C   0  0  2  0  0  0  0  0  0  0  0  0
    4.7570   20.1940    2.6880 O   0  0  0  0  0  0  0  0  0  0  0  0
    4.9450   19.0880    3.5850 C   0  0  0  0  0  0  0  0  0  0  0  0
    6.3780   18.7070    3.7900 C   0  0  0  0  0  0  0  0  0  0  0  0
    4.0900   19.1540    4.8120 C   0  0  0  0  0  0  0  0  0  0  0  0
    1.5320   17.1790   -0.0500 C   0  0  1  0  0  0  0  0  0  0  0  0
    0.2280   17.6700   -0.7340 C   0  0  0  0  0  0  0  0  0  0  0  0
   -0.2380   16.5320   -1.6770 C   0  0  0  0  0  0  0  0  0  0  0  0
    0.6130   15.3090   -1.2630 C   0  0  1  0  0  0  0  0  0  0  0  0
   -0.1040   14.7290   -0.0040 C   0  0  0  0  0  0  0  0  0  0  0  0
    0.8300   14.2150   -2.3590 C   0  0  2  0  0  0  0  0  0  0  0  0
   -0.4530   13.5200   -2.8500 C   0  0  0  0  0  0  0  0  0  0  0  0
   -0.8400   12.2910   -2.0970 C   0  0  0  0  0  0  0  0  0  0  0  0
   -0.0430   11.6030   -1.2580 C   0  0  0  0  0  0  0  0  0  0  0  0
    1.4280   11.9960   -1.0710 C   0  0  1  0  0  0  0  0  0  0  0  0
    2.3160   10.7250   -1.1410 C   0  0  0  0  0  0  0  0  0  0  0  0
    1.8700    9.6460   -0.1580 C   0  0  0  0  0  0  0  0  0  0  0  0
    0.4200    9.2410   -0.4130 C   0  0  2  0  0  0  0  0  0  0  0  0
    0.3410    8.5900   -1.6850 O   0  0  0  0  0  0  0  0  0  0  0  0
   -0.5660   10.4420   -0.3780 C   0  0  0  0  0  0  0  0  0  0  0  0
   -0.7060   10.9580    1.0760 C   0  0  0  0  0  0  0  0  0  0  0  0
   -1.9690    9.9190   -0.7890 C   0  0  0  0  0  0  0  0  0  0  0  0
    1.9590   13.1630   -2.0100 C   0  0  1  0  0  0  0  0  0  0  0  0
    2.4520   12.5720   -3.3670 C   0  0  0  0  0  0  0  0  0  0  0  0
    3.2140   13.8340   -1.3360 C   0  0  0  0  0  0  0  0  0  0  0  0
    2.9410   14.9880   -0.3540 C   0  0  0  0  0  0  0  0  0  0  0  0
    1.9860   16.0160   -0.9680 C   0  0  2  0  0  0  0  0  0  0  0  0
    2.6890   16.6330   -2.2240 C   0  0  0  0  0  0  0  0  0  0  0  0
    1.9956   20.3761   -0.1456 H   0  0  0  0  0  0  0  0  0  0  0  0
    3.1025   19.6789   -1.3765 H   0  0  0  0  0  0  0  0  0  0  0  0
    1.3629   19.2310   -1.3765 H   0  0  0  0  0  0  0  0  0  0  0  0
    2.4298   18.6748    1.2264 H   0  0  0  0  0  0  0  0  0  0  0  0
    3.9582   16.6926    0.1530 H   0  0  0  0  0  0  0  0  0  0  0  0
    4.3029   18.0863   -0.9795 H   0  0  0  0  0  0  0  0  0  0  0  0
    5.6661   17.5963    1.3387 H   0  0  0  0  0  0  0  0  0  0  0  0
    5.4907   19.2100    0.5318 H   0  0  0  0  0  0  0  0  0  0  0  0
    3.3228   18.4466    1.9391 H   0  0  0  0  0  0  0  0  0  0  0  0
    6.5918   18.6502    4.8675 H   0  0  0  0  0  0  0  0  0  0  0  0
    6.5669   17.7274    3.3266 H   0  0  0  0  0  0  0  0  0  0  0  0
    7.0284   19.4634    3.3266 H   0  0  0  0  0  0  0  0  0  0  0  0
    4.7281   19.1047    5.7066 H   0  0  0  0  0  0  0  0  0  0  0  0
    3.5259   20.0984    4.8155 H   0  0  0  0  0  0  0  0  0  0  0  0
    3.3877   18.3074    4.8155 H   0  0  0  0  0  0  0  0  0  0  0  0
    1.4069   16.8175    0.9813 H   0  0  0  0  0  0  0  0  0  0  0  0
   -0.5433   17.8741    0.0233 H   0  0  0  0  0  0  0  0  0  0  0  0
    0.4020   18.6006   -1.2940 H   0  0  0  0  0  0  0  0  0  0  0  0
   -1.3092   16.3252   -1.5362 H   0  0  0  0  0  0  0  0  0  0  0  0
   -0.1082   16.7904   -2.7383 H   0  0  0  0  0  0  0  0  0  0  0  0
    0.3780   15.1189    0.9046 H   0  0  0  0  0  0  0  0  0  0  0  0
   -1.1626   15.0279   -0.0146 H   0  0  0  0  0  0  0  0  0  0  0  0
   -0.0328   13.6314   -0.0146 H   0  0  0  0  0  0  0  0  0  0  0  0
    1.1961   14.8050   -3.2121 H   0  0  0  0  0  0  0  0  0  0  0  0
   -1.2806   14.2405   -2.7732 H   0  0  0  0  0  0  0  0  0  0  0  0
   -0.2473   13.1937   -3.8802 H   0  0  0  0  0  0  0  0  0  0  0  0
   -1.8639   11.9152   -2.2397 H   0  0  0  0  0  0  0  0  0  0  0  0
    1.4975   12.4462   -0.0698 H   0  0  0  0  0  0  0  0  0  0  0  0
    2.2663   10.3156   -2.1608 H   0  0  0  0  0  0  0  0  0  0  0  0
    3.3416   11.0185   -0.8727 H   0  0  0  0  0  0  0  0  0  0  0  0
    2.5161    8.7634   -0.2747 H   0  0  0  0  0  0  0  0  0  0  0  0
    1.9480   10.0475    0.8631 H   0  0  0  0  0  0  0  0  0  0  0  0
    0.1179    8.5637    0.3994 H   0  0  0  0  0  0  0  0  0  0  0  0
   -0.2240    9.1350   -2.2600 H   0  0  0  0  0  0  0  0  0  0  0  0
   -0.4843   10.1407    1.7781 H   0  0  0  0  0  0  0  0  0  0  0  0
    0.0002   11.7850    1.2412 H   0  0  0  0  0  0  0  0  0  0  0  0
   -1.7334   11.3147    1.2412 H   0  0  0  0  0  0  0  0  0  0  0  0
   -2.5575    9.6996    0.1140 H   0  0  0  0  0  0  0  0  0  0  0  0
   -2.4854   10.6850   -1.3861 H   0  0  0  0  0  0  0  0  0  0  0  0
   -1.8580    9.0019   -1.3861 H   0  0  0  0  0  0  0  0  0  0  0  0
    3.1457   11.7404   -3.1743 H   0  0  0  0  0  0  0  0  0  0  0  0
    1.5893   12.2041   -3.9418 H   0  0  0  0  0  0  0  0  0  0  0  0
    2.9686   13.3548   -3.9418 H   0  0  0  0  0  0  0  0  0  0  0  0
    3.7552   13.0501   -0.7860 H   0  0  0  0  0  0  0  0  0  0  0  0
    3.7770   14.2884   -2.1646 H   0  0  0  0  0  0  0  0  0  0  0  0
    2.4903   14.5810    0.5632 H   0  0  0  0  0  0  0  0  0  0  0  0
    3.8942   15.4873   -0.1258 H   0  0  0  0  0  0  0  0  0  0  0  0
    3.4787   17.3261   -1.8986 H   0  0  0  0  0  0  0  0  0  0  0  0
    3.1335   15.8281   -2.8278 H   0  0  0  0  0  0  0  0  0  0  0  0
    1.9486   17.1782   -2.8278 H   0  0  0  0  0  0  0  0  0  0  0  0
  1  2  1  0
  2  3  1  0
  3  4  1  0
  4  5  1  0
  5  6  1  0
  6  7  1  0
  7  8  1  0
  7  9  1  0
  2 10  1  0
 10 11  1  0
 11 12  1  0
 12 13  1  0
 13 14  1  1
 13 15  1  0
 15 16  1  0
 16 17  1  0
 17 18  2  0
 18 19  1  0
 19 20  1  0
 20 21  1  0
 21 22  1  0
 22 23  1  0
 22 24  1  0
 24 25  1  0
 24 26  1  0
 19 27  1  0
 27 28  1  6
 27 29  1  0
 29 30  1  0
 30 31  1  0
 31 32  1  6
  7  5  1  0
 31 10  1  0
 31 13  1  0
 27 15  1  0
 24 18  1  0
  1 33  1  0
  1 34  1  0
  1 35  1  0
  2 36  1  1
  3 37  1  0
  3 38  1  0
  4 39  1  0
  4 40  1  0
  5 41  1  1
  8 42  1  0
  8 43  1  0
  8 44  1  0
  9 45  1  0
  9 46  1  0
  9 47  1  0
 10 48  1  1
 11 49  1  0
 11 50  1  0
 12 51  1  0
 12 52  1  0
 14 53  1  0
 14 54  1  0
 14 55  1  0
 15 56  1  6
 16 57  1  0
 16 58  1  0
 17 59  1  0
 19 60  1  1
 20 61  1  0
 20 62  1  0
 21 63  1  0
 21 64  1  0
 22 65  1  1
 23 66  1  0
 25 67  1  0
 25 68  1  0
 25 69  1  0
 26 70  1  0
 26 71  1  0
 26 72  1  0
 28 73  1  0
 28 74  1  0
 28 75  1  0
 29 76  1  0
 29 77  1  0
 30 78  1  0
 30 79  1  0
 32 80  1  0
 32 81  1  0
 32 82  1  0
M  END
>  <meeko>  (2) 
{"is_sidechain": [false], "intermolecular_energy": 2.731, "internal_energy": -0.839}

$$$$
EPH_relaxed_0001_pdb2pqr_Repair_161_r2_0001_out
     RDKit          3D

 82 86  0  0  0  0  0  0  0  0999 V2000
    2.4680   18.0690   -2.5660 C   0  0  0  0  0  0  0  0  0  0  0  0
    1.1430   17.6940   -1.8970 C   0  0  2  0  0  0  0  0  0  0  0  0
    1.2330   17.7530   -0.3580 C   0  0  0  0  0  0  0  0  0  0  0  0
    0.8630   19.1180    0.2280 C   0  0  0  0  0  0  0  0  0  0  0  0
   -0.5930   19.1950    0.5780 C   0  0  2  0  0  0  0  0  0  0  0  0
   -1.4330   18.2910   -0.1510 O   0  0  0  0  0  0  0  0  0  0  0  0
   -1.6590   19.6910   -0.3810 C   0  0  0  0  0  0  0  0  0  0  0  0
   -1.3140   20.1450   -1.7650 C   0  0  0  0  0  0  0  0  0  0  0  0
   -2.9510   20.1940    0.1840 C   0  0  0  0  0  0  0  0  0  0  0  0
    0.7120   16.3010   -2.3400 C   0  0  1  0  0  0  0  0  0  0  0  0
    0.8810   16.0810   -3.8670 C   0  0  0  0  0  0  0  0  0  0  0  0
    1.2880   14.5980   -4.0640 C   0  0  0  0  0  0  0  0  0  0  0  0
    1.0190   13.9350   -2.6930 C   0  0  1  0  0  0  0  0  0  0  0  0
   -0.5150   13.6440   -2.6820 C   0  0  0  0  0  0  0  0  0  0  0  0
    1.8520   12.6520   -2.3700 C   0  0  2  0  0  0  0  0  0  0  0  0
    1.6120   11.4630   -3.3170 C   0  0  0  0  0  0  0  0  0  0  0  0
    0.5290   10.5240   -2.9000 C   0  0  0  0  0  0  0  0  0  0  0  0
   -0.0270   10.4660   -1.6760 C   0  0  0  0  0  0  0  0  0  0  0  0
    0.4970   11.3410   -0.5300 C   0  0  1  0  0  0  0  0  0  0  0  0
    0.6620   10.4760    0.7470 C   0  0  0  0  0  0  0  0  0  0  0  0
   -0.6180    9.7330    1.1190 C   0  0  0  0  0  0  0  0  0  0  0  0
   -1.0750    8.8300   -0.0230 C   0  0  2  0  0  0  0  0  0  0  0  0
   -0.1170    7.7820   -0.1950 O   0  0  0  0  0  0  0  0  0  0  0  0
   -1.2660    9.5890   -1.3660 C   0  0  0  0  0  0  0  0  0  0  0  0
   -2.5040   10.5140   -1.2700 C   0  0  0  0  0  0  0  0  0  0  0  0
   -1.5900    8.5420   -2.4650 C   0  0  0  0  0  0  0  0  0  0  0  0
    1.7920   12.2040   -0.8540 C   0  0  1  0  0  0  0  0  0  0  0  0
    3.0750   11.3590   -0.5870 C   0  0  0  0  0  0  0  0  0  0  0  0
    1.8530   13.4280    0.1350 C   0  0  0  0  0  0  0  0  0  0  0  0
    1.1090   14.7070   -0.2960 C   0  0  0  0  0  0  0  0  0  0  0  0
    1.4720   15.0950   -1.7330 C   0  0  2  0  0  0  0  0  0  0  0  0
    3.0050   15.4150   -1.7690 C   0  0  0  0  0  0  0  0  0  0  0  0
    3.2214   18.2822   -1.7934 H   0  0  0  0  0  0  0  0  0  0  0  0
    2.8119   17.2329   -3.1926 H   0  0  0  0  0  0  0  0  0  0  0  0
    2.3227   18.9613   -3.1926 H   0  0  0  0  0  0  0  0  0  0  0  0
    0.3921   18.4330   -2.2132 H   0  0  0  0  0  0  0  0  0  0  0  0
    0.5491   16.9991    0.0591 H   0  0  0  0  0  0  0  0  0  0  0  0
    2.2825   17.5617   -0.0897 H   0  0  0  0  0  0  0  0  0  0  0  0
    1.4578   19.2886    1.1375 H   0  0  0  0  0  0  0  0  0  0  0  0
    1.0743   19.8857   -0.5309 H   0  0  0  0  0  0  0  0  0  0  0  0
   -0.3528   19.4636    1.6173 H   0  0  0  0  0  0  0  0  0  0  0  0
   -0.6493   21.0197   -1.7089 H   0  0  0  0  0  0  0  0  0  0  0  0
   -0.8045   19.3311   -2.3016 H   0  0  0  0  0  0  0  0  0  0  0  0
   -2.2347   20.4179   -2.3016 H   0  0  0  0  0  0  0  0  0  0  0  0
   -2.9027   20.1752    1.2828 H   0  0  0  0  0  0  0  0  0  0  0  0
   -3.1239   21.2251   -0.1578 H   0  0  0  0  0  0  0  0  0  0  0  0
   -3.7756   19.5512   -0.1578 H   0  0  0  0  0  0  0  0  0  0  0  0
   -0.3289   16.3082   -1.9844 H   0  0  0  0  0  0  0  0  0  0  0  0
   -0.0669   16.2856   -4.3862 H   0  0  0  0  0  0  0  0  0  0  0  0
    1.6430   16.7576   -4.2811 H   0  0  0  0  0  0  0  0  0  0  0  0
    0.6771   14.1285   -4.8491 H   0  0  0  0  0  0  0  0  0  0  0  0
    2.3360   14.4913   -4.3809 H   0  0  0  0  0  0  0  0  0  0  0  0
   -0.8681   13.5770   -1.6424 H   0  0  0  0  0  0  0  0  0  0  0  0
   -1.0462   14.4574   -3.1979 H   0  0  0  0  0  0  0  0  0  0  0  0
   -0.7114   12.6926   -3.1979 H   0  0  0  0  0  0  0  0  0  0  0  0
    2.8823   12.9855   -2.5633 H   0  0  0  0  0  0  0  0  0  0  0  0
    1.3510   11.8645   -4.3073 H   0  0  0  0  0  0  0  0  0  0  0  0
    2.5425   10.8763   -3.3106 H   0  0  0  0  0  0  0  0  0  0  0  0
    0.1538    9.8200   -3.6573 H   0  0  0  0  0  0  0  0  0  0  0  0
   -0.2679   12.1133   -0.3616 H   0  0  0  0  0  0  0  0  0  0  0  0
    1.4599    9.7390    0.5732 H   0  0  0  0  0  0  0  0  0  0  0  0
    0.9099   11.1518    1.5787 H   0  0  0  0  0  0  0  0  0  0  0  0
   -0.4310    9.1180    2.0116 H   0  0  0  0  0  0  0  0  0  0  0  0
   -1.4075   10.4721    1.3201 H   0  0  0  0  0  0  0  0  0  0  0  0
   -2.0604    8.4256    0.2516 H   0  0  0  0  0  0  0  0  0  0  0  0
    0.2330    7.5550    0.6840 H   0  0  0  0  0  0  0  0  0  0  0  0
   -2.7457   10.6946   -0.2122 H   0  0  0  0  0  0  0  0  0  0  0  0
   -2.2853   11.4718   -1.7648 H   0  0  0  0  0  0  0  0  0  0  0  0
   -3.3605   10.0328   -1.7648 H   0  0  0  0  0  0  0  0  0  0  0  0
   -1.8836    7.5931   -1.9923 H   0  0  0  0  0  0  0  0  0  0  0  0
   -2.4160    8.9109   -3.0908 H   0  0  0  0  0  0  0  0  0  0  0  0
   -0.7000    8.3799   -3.0908 H   0  0  0  0  0  0  0  0  0  0  0  0
    3.2284   11.2580    0.4976 H   0  0  0  0  0  0  0  0  0  0  0  0
    2.9568   10.3614   -1.0351 H   0  0  0  0  0  0  0  0  0  0  0  0
    3.9449   11.8615   -1.0351 H   0  0  0  0  0  0  0  0  0  0  0  0
    1.4259   13.1020    1.0948 H   0  0  0  0  0  0  0  0  0  0  0  0
    2.9148   13.7125    0.1760 H   0  0  0  0  0  0  0  0  0  0  0  0
    0.0250   14.5309   -0.2338 H   0  0  0  0  0  0  0  0  0  0  0  0
    1.4050   15.5275    0.3742 H   0  0  0  0  0  0  0  0  0  0  0  0
    3.3872   15.4948   -0.7406 H   0  0  0  0  0  0  0  0  0  0  0  0
    3.5357   14.6083   -2.2958 H   0  0  0  0  0  0  0  0  0  0  0  0
    3.1686   16.3667   -2.2958 H   0  0  0  0  0  0  0  0  0  0  0  0
  1  2  1  0
  2  3  1  0
  3  4  1  0
  4  5  1  0
  5  6  1  0
  6  7  1  0
  7  8  1  0
  7  9  1  0
  2 10  1  0
 10 11  1  0
 11 12  1  0
 12 13  1  0
 13 14  1  6
 13 15  1  0
 15 16  1  0
 16 17  1  0
 17 18  2  0
 18 19  1  0
 19 20  1  0
 20 21  1  0
 21 22  1  0
 22 23  1  0
 22 24  1  0
 24 25  1  0
 24 26  1  0
 19 27  1  0
 27 28  1  1
 27 29  1  0
 29 30  1  0
 30 31  1  0
 31 32  1  1
  7  5  1  0
 31 10  1  0
 31 13  1  0
 27 15  1  0
 24 18  1  0
  1 33  1  0
  1 34  1  0
  1 35  1  0
  2 36  1  6
  3 37  1  0
  3 38  1  0
  4 39  1  0
  4 40  1  0
  5 41  1  1
  8 42  1  0
  8 43  1  0
  8 44  1  0
  9 45  1  0
  9 46  1  0
  9 47  1  0
 10 48  1  6
 11 49  1  0
 11 50  1  0
 12 51  1  0
 12 52  1  0
 14 53  1  0
 14 54  1  0
 14 55  1  0
 15 56  1  6
 16 57  1  0
 16 58  1  0
 17 59  1  0
 19 60  1  1
 20 61  1  0
 20 62  1  0
 21 63  1  0
 21 64  1  0
 22 65  1  1
 23 66  1  0
 25 67  1  0
 25 68  1  0
 25 69  1  0
 26 70  1  0
 26 71  1  0
 26 72  1  0
 28 73  1  0
 28 74  1  0
 28 75  1  0
 29 76  1  0
 29 77  1  0
 30 78  1  0
 30 79  1  0
 32 80  1  0
 32 81  1  0
 32 82  1  0
M  END
>  <meeko>  (3) 
{"is_sidechain": [false], "intermolecular_energy": 2.731, "internal_energy": -0.839}

$$$$
EPH_relaxed_0001_pdb2pqr_Repair_161_r2_0001_out
     RDKit          3D

 82 86  0  0  0  0  0  0  0  0999 V2000
    0.3910   18.4440   -0.1370 C   0  0  0  0  0  0  0  0  0  0  0  0
    1.4810   17.3860   -0.3240 C   0  0  2  0  0  0  0  0  0  0  0  0
    2.7020   17.9370   -1.0880 C   0  0  0  0  0  0  0  0  0  0  0  0
    3.9470   18.1120   -0.2140 C   0  0  0  0  0  0  0  0  0  0  0  0
    3.5960   18.5870    1.1630 C   0  0  2  0  0  0  0  0  0  0  0  0
    3.8810   19.9700    1.4100 O   0  0  0  0  0  0  0  0  0  0  0  0
    4.6280   19.0200    2.1870 C   0  0  0  0  0  0  0  0  0  0  0  0
    6.0920   18.9980    1.8780 C   0  0  0  0  0  0  0  0  0  0  0  0
    4.2520   18.9980    3.6360 C   0  0  0  0  0  0  0  0  0  0  0  0
    0.9120   16.1760   -1.0560 C   0  0  1  0  0  0  0  0  0  0  0  0
    0.7890   16.4070   -2.5860 C   0  0  0  0  0  0  0  0  0  0  0  0
    1.0830   15.0470   -3.2690 C   0  0  0  0  0  0  0  0  0  0  0  0
    1.0360   14.0150   -2.1180 C   0  0  1  0  0  0  0  0  0  0  0  0
   -0.4820   13.7220   -1.9030 C   0  0  0  0  0  0  0  0  0  0  0  0
    1.8520   12.6990   -2.3360 C   0  0  2  0  0  0  0  0  0  0  0  0
    1.3880   11.8320   -3.5190 C   0  0  0  0  0  0  0  0  0  0  0  0
    0.3560   10.8050   -3.1910 C   0  0  0  0  0  0  0  0  0  0  0  0
    0.0290   10.3930   -1.9520 C   0  0  0  0  0  0  0  0  0  0  0  0
    0.7940   10.9040   -0.7250 C   0  0  1  0  0  0  0  0  0  0  0  0
    1.1460    9.7090    0.2000 C   0  0  0  0  0  0  0  0  0  0  0  0
   -0.0780    8.8810    0.5780 C   0  0  0  0  0  0  0  0  0  0  0  0
   -0.7780    8.3420   -0.6670 C   0  0  2  0  0  0  0  0  0  0  0  0
    0.0830    7.3950   -1.3060 O   0  0  0  0  0  0  0  0  0  0  0  0
   -1.1730    9.4550   -1.6770 C   0  0  0  0  0  0  0  0  0  0  0  0
   -2.3280   10.3040   -1.0920 C   0  0  0  0  0  0  0  0  0  0  0  0
   -1.7410    8.7670   -2.9480 C   0  0  0  0  0  0  0  0  0  0  0  0
    2.0470   11.8330   -1.0260 C   0  0  1  0  0  0  0  0  0  0  0  0
    3.3160   10.9560   -1.2570 C   0  0  0  0  0  0  0  0  0  0  0  0
    2.3450   12.7210    0.2400 C   0  0  0  0  0  0  0  0  0  0  0  0
    1.5970   14.0640    0.3380 C   0  0  0  0  0  0  0  0  0  0  0  0
    1.7110   14.8520   -0.9710 C   0  0  2  0  0  0  0  0  0  0  0  0
    3.2250   15.1800   -1.2020 C   0  0  0  0  0  0  0  0  0  0  0  0
    0.2208   18.6092    0.9371 H   0  0  0  0  0  0  0  0  0  0  0  0
    0.7100   19.3861   -0.6069 H   0  0  0  0  0  0  0  0  0  0  0  0
   -0.5412   18.0971   -0.6069 H   0  0  0  0  0  0  0  0  0  0  0  0
    1.8255   17.0871    0.6770 H   0  0  0  0  0  0  0  0  0  0  0  0
    2.9452   17.2397   -1.9033 H   0  0  0  0  0  0  0  0  0  0  0  0
    2.4260   18.9354   -1.4581 H   0  0  0  0  0  0  0  0  0  0  0  0
    4.4663   17.1455   -0.1360 H   0  0  0  0  0  0  0  0  0  0  0  0
    4.5916   18.8695   -0.6838 H   0  0  0  0  0  0  0  0  0  0  0  0
    2.7540   17.8813    1.2172 H   0  0  0  0  0  0  0  0  0  0  0  0
    6.6648   18.9894    2.8170 H   0  0  0  0  0  0  0  0  0  0  0  0
    6.3302   18.0962    1.2949 H   0  0  0  0  0  0  0  0  0  0  0  0
    6.3572   19.8923    1.2949 H   0  0  0  0  0  0  0  0  0  0  0  0
    5.1619   19.0512    4.2518 H   0  0  0  0  0  0  0  0  0  0  0  0
    3.6064   19.8599    3.8604 H   0  0  0  0  0  0  0  0  0  0  0  0
    3.7114   18.0667    3.8604 H   0  0  0  0  0  0  0  0  0  0  0  0
   -0.0450   16.0724   -0.5236 H   0  0  0  0  0  0  0  0  0  0  0  0
   -0.2270   16.7453   -2.8375 H   0  0  0  0  0  0  0  0  0  0  0  0
    1.4934   17.1802   -2.9264 H   0  0  0  0  0  0  0  0  0  0  0  0
    0.3184   14.8193   -4.0263 H   0  0  0  0  0  0  0  0  0  0  0  0
    2.0499   15.0436   -3.7934 H   0  0  0  0  0  0  0  0  0  0  0  0
   -0.6983   13.6802   -0.8253 H   0  0  0  0  0  0  0  0  0  0  0  0
   -1.0789   14.5215   -2.3661 H   0  0  0  0  0  0  0  0  0  0  0  0
   -0.7385   12.7578   -2.3661 H   0  0  0  0  0  0  0  0  0  0  0  0
    2.8446   13.0807   -2.6170 H   0  0  0  0  0  0  0  0  0  0  0  0
    0.9706   12.5001   -4.2868 H   0  0  0  0  0  0  0  0  0  0  0  0
    2.2754   11.2752   -3.8544 H   0  0  0  0  0  0  0  0  0  0  0  0
   -0.1829   10.3460   -4.0329 H   0  0  0  0  0  0  0  0  0  0  0  0
    0.1100   11.5903   -0.2043 H   0  0  0  0  0  0  0  0  0  0  0  0
    1.8639    9.0590   -0.3216 H   0  0  0  0  0  0  0  0  0  0  0  0
    1.5709   10.1192    1.1280 H   0  0  0  0  0  0  0  0  0  0  0  0
    0.2392    8.0360    1.2068 H   0  0  0  0  0  0  0  0  0  0  0  0
   -0.7820    9.5250    1.1254 H   0  0  0  0  0  0  0  0  0  0  0  0
   -1.7155    7.8684   -0.3401 H   0  0  0  0  0  0  0  0  0  0  0  0
   -0.1820    7.3400   -2.2400 H   0  0  0  0  0  0  0  0  0  0  0  0
   -2.2858   10.2730    0.0068 H   0  0  0  0  0  0  0  0  0  0  0  0
   -2.2275   11.3448   -1.4336 H   0  0  0  0  0  0  0  0  0  0  0  0
   -3.2914    9.8974   -1.4336 H   0  0  0  0  0  0  0  0  0  0  0  0
   -2.4155    7.9500   -2.6523 H   0  0  0  0  0  0  0  0  0  0  0  0
   -2.2975    9.5036   -3.5460 H   0  0  0  0  0  0  0  0  0  0  0  0
   -0.9123    8.3600   -3.5460 H   0  0  0  0  0  0  0  0  0  0  0  0
    3.7407   10.6625   -0.2856 H   0  0  0  0  0  0  0  0  0  0  0  0
    3.0405   10.0546   -1.8241 H   0  0  0  0  0  0  0  0  0  0  0  0
    4.0618   11.5324   -1.8241 H   0  0  0  0  0  0  0  0  0  0  0  0
    2.0848   12.1294    1.1301 H   0  0  0  0  0  0  0  0  0  0  0  0
    3.4088   12.9892    0.1595 H   0  0  0  0  0  0  0  0  0  0  0  0
    0.5352   13.8699    0.5498 H   0  0  0  0  0  0  0  0  0  0  0  0
    2.0483   14.6587    1.1458 H   0  0  0  0  0  0  0  0  0  0  0  0
    3.7289   15.2892   -0.2303 H   0  0  0  0  0  0  0  0  0  0  0  0
    3.6949   14.3628   -1.7690 H   0  0  0  0  0  0  0  0  0  0  0  0
    3.3145   16.1184   -1.7690 H   0  0  0  0  0  0  0  0  0  0  0  0
  1  2  1  0
  2  3  1  0
  3  4  1  0
  4  5  1  0
  5  6  1  0
  6  7  1  0
  7  8  1  0
  7  9  1  0
  2 10  1  0
 10 11  1  0
 11 12  1  0
 12 13  1  0
 13 14  1  1
 13 15  1  0
 15 16  1  0
 16 17  1  0
 17 18  2  0
 18 19  1  0
 19 20  1  0
 20 21  1  0
 21 22  1  0
 22 23  1  0
 22 24  1  0
 24 25  1  0
 24 26  1  0
 19 27  1  0
 27 28  1  6
 27 29  1  0
 29 30  1  0
 30 31  1  0
 31 32  1  6
  7  5  1  0
 31 10  1  0
 31 13  1  0
 27 15  1  0
 24 18  1  0
  1 33  1  0
  1 34  1  0
  1 35  1  0
  2 36  1  1
  3 37  1  0
  3 38  1  0
  4 39  1  0
  4 40  1  0
  5 41  1  1
  8 42  1  0
  8 43  1  0
  8 44  1  0
  9 45  1  0
  9 46  1  0
  9 47  1  0
 10 48  1  1
 11 49  1  0
 11 50  1  0
 12 51  1  0
 12 52  1  0
 14 53  1  0
 14 54  1  0
 14 55  1  0
 15 56  1  6
 16 57  1  0
 16 58  1  0
 17 59  1  0
 19 60  1  1
 20 61  1  0
 20 62  1  0
 21 63  1  0
 21 64  1  0
 22 65  1  1
 23 66  1  0
 25 67  1  0
 25 68  1  0
 25 69  1  0
 26 70  1  0
 26 71  1  0
 26 72  1  0
 28 73  1  0
 28 74  1  0
 28 75  1  0
 29 76  1  0
 29 77  1  0
 30 78  1  0
 30 79  1  0
 32 80  1  0
 32 81  1  0
 32 82  1  0
M  END
>  <meeko>  (4) 
{"is_sidechain": [false], "intermolecular_energy": 2.731, "internal_energy": -0.839}

$$$$
EPH_relaxed_0001_pdb2pqr_Repair_161_r2_0001_out
     RDKit          3D

 82 86  0  0  0  0  0  0  0  0999 V2000
    2.2510   17.9710   -2.6710 C   0  0  0  0  0  0  0  0  0  0  0  0
    0.7260   17.8330   -2.6770 C   0  0  2  0  0  0  0  0  0  0  0  0
    0.0960   18.3010   -1.3500 C   0  0  0  0  0  0  0  0  0  0  0  0
    0.9090   17.9120   -0.1120 C   0  0  0  0  0  0  0  0  0  0  0  0
    1.4830   19.1150    0.5740 C   0  0  2  0  0  0  0  0  0  0  0  0
    2.4440   19.8440   -0.2000 O   0  0  0  0  0  0  0  0  0  0  0  0
    2.9360   19.2220    0.9980 C   0  0  0  0  0  0  0  0  0  0  0  0
    3.9050   18.1080    0.7520 C   0  0  0  0  0  0  0  0  0  0  0  0
    3.2960   20.1940    2.0780 C   0  0  0  0  0  0  0  0  0  0  0  0
    0.3360   16.3870   -2.9580 C   0  0  1  0  0  0  0  0  0  0  0  0
    0.3840   16.0380   -4.4690 C   0  0  0  0  0  0  0  0  0  0  0  0
    0.8530   14.5640   -4.5730 C   0  0  0  0  0  0  0  0  0  0  0  0
    0.7400   14.0160   -3.1320 C   0  0  1  0  0  0  0  0  0  0  0  0
   -0.7680   13.6550   -2.9560 C   0  0  0  0  0  0  0  0  0  0  0  0
    1.6680   12.8080   -2.7770 C   0  0  2  0  0  0  0  0  0  0  0  0
    1.4130   11.5280   -3.5920 C   0  0  0  0  0  0  0  0  0  0  0  0
    0.4240   10.5800   -2.9990 C   0  0  0  0  0  0  0  0  0  0  0  0
   -0.0210   10.6080   -1.7290 C   0  0  0  0  0  0  0  0  0  0  0  0
    0.5520   11.6060   -0.7150 C   0  0  1  0  0  0  0  0  0  0  0  0
    0.8730   10.8700    0.6120 C   0  0  0  0  0  0  0  0  0  0  0  0
   -0.3260   10.1040    1.1610 C   0  0  0  0  0  0  0  0  0  0  0  0
   -0.8310    9.0800    0.1470 C   0  0  2  0  0  0  0  0  0  0  0  0
    0.1660    8.0670   -0.0200 O   0  0  0  0  0  0  0  0  0  0  0  0
   -1.1780    9.7050   -1.2330 C   0  0  0  0  0  0  0  0  0  0  0  0
   -2.4530   10.5750   -1.1040 C   0  0  0  0  0  0  0  0  0  0  0  0
   -1.5380    8.5480   -2.2040 C   0  0  0  0  0  0  0  0  0  0  0  0
    1.7640   12.4970   -1.2280 C   0  0  1  0  0  0  0  0  0  0  0  0
    3.1100   11.7410   -1.0080 C   0  0  0  0  0  0  0  0  0  0  0  0
    1.8430   13.8070   -0.3590 C   0  0  0  0  0  0  0  0  0  0  0  0
    0.9950   15.0050   -0.8280 C   0  0  0  0  0  0  0  0  0  0  0  0
    1.2100   15.2780   -2.3200 C   0  0  2  0  0  0  0  0  0  0  0  0
    2.7150   15.6650   -2.5240 C   0  0  0  0  0  0  0  0  0  0  0  0
    2.6121   18.0037   -1.6325 H   0  0  0  0  0  0  0  0  0  0  0  0
    2.6991   17.1097   -3.1881 H   0  0  0  0  0  0  0  0  0  0  0  0
    2.5373   18.8987   -3.1881 H   0  0  0  0  0  0  0  0  0  0  0  0
    0.3376   18.4838   -3.4743 H   0  0  0  0  0  0  0  0  0  0  0  0
    0.0056   19.3970   -1.3759 H   0  0  0  0  0  0  0  0  0  0  0  0
   -0.8802   17.8014   -1.2637 H   0  0  0  0  0  0  0  0  0  0  0  0
    0.2533   17.3789    0.5922 H   0  0  0  0  0  0  0  0  0  0  0  0
    1.7425   17.2714   -0.4361 H   0  0  0  0  0  0  0  0  0  0  0  0
    0.5414   19.2839    1.1171 H   0  0  0  0  0  0  0  0  0  0  0  0
    4.2542   17.7065    1.7147 H   0  0  0  0  0  0  0  0  0  0  0  0
    3.4088   17.3100    0.1802 H   0  0  0  0  0  0  0  0  0  0  0  0
    4.7641   18.4889    0.1802 H   0  0  0  0  0  0  0  0  0  0  0  0
    3.1243   19.7304    3.0607 H   0  0  0  0  0  0  0  0  0  0  0  0
    4.3564   20.4710    1.9835 H   0  0  0  0  0  0  0  0  0  0  0  0
    2.6719   21.0949    1.9835 H   0  0  0  0  0  0  0  0  0  0  0  0
   -0.6694   16.3772   -2.5117 H   0  0  0  0  0  0  0  0  0  0  0  0
   -0.6150   16.1500   -4.9156 H   0  0  0  0  0  0  0  0  0  0  0  0
    1.0689   16.7093   -5.0078 H   0  0  0  0  0  0  0  0  0  0  0  0
    0.2033   13.9971   -5.2561 H   0  0  0  0  0  0  0  0  0  0  0  0
    1.8742   14.4785   -4.9728 H   0  0  0  0  0  0  0  0  0  0  0  0
   -1.0086   13.5974   -1.8842 H   0  0  0  0  0  0  0  0  0  0  0  0
   -1.3883   14.4300   -3.4299 H   0  0  0  0  0  0  0  0  0  0  0  0
   -0.9701   12.6831   -3.4299 H   0  0  0  0  0  0  0  0  0  0  0  0
    2.6576   13.1708   -3.0916 H   0  0  0  0  0  0  0  0  0  0  0  0
    1.0454   11.8252   -4.5852 H   0  0  0  0  0  0  0  0  0  0  0  0
    2.3716   10.9892   -3.6197 H   0  0  0  0  0  0  0  0  0  0  0  0
    0.0254    9.7923   -3.6552 H   0  0  0  0  0  0  0  0  0  0  0  0
   -0.2370   12.3534   -0.5451 H   0  0  0  0  0  0  0  0  0  0  0  0
    1.6929   10.1592    0.4315 H   0  0  0  0  0  0  0  0  0  0  0  0
    1.1526   11.6303    1.3562 H   0  0  0  0  0  0  0  0  0  0  0  0
   -0.0283    9.5817    2.0822 H   0  0  0  0  0  0  0  0  0  0  0  0
   -1.1346   10.8202    1.3688 H   0  0  0  0  0  0  0  0  0  0  0  0
   -1.7656    8.6559    0.5429 H   0  0  0  0  0  0  0  0  0  0  0  0
   -0.2020    7.3870   -0.6100 H   0  0  0  0  0  0  0  0  0  0  0  0
   -2.6835   10.7323   -0.0400 H   0  0  0  0  0  0  0  0  0  0  0  0
   -2.2843   11.5472   -1.5902 H   0  0  0  0  0  0  0  0  0  0  0  0
   -3.2967   10.0634   -1.5902 H   0  0  0  0  0  0  0  0  0  0  0  0
   -1.8157    7.6555   -1.6240 H   0  0  0  0  0  0  0  0  0  0  0  0
   -2.3843    8.8512   -2.8379 H   0  0  0  0  0  0  0  0  0  0  0  0
   -0.6691    8.3176   -2.8379 H   0  0  0  0  0  0  0  0  0  0  0  0
    3.2989   11.6349    0.0704 H   0  0  0  0  0  0  0  0  0  0  0  0
    3.0505   10.7443   -1.4696 H   0  0  0  0  0  0  0  0  0  0  0  0
    3.9301   12.3105   -1.4696 H   0  0  0  0  0  0  0  0  0  0  0  0
    1.5201   13.5498    0.6606 H   0  0  0  0  0  0  0  0  0  0  0  0
    2.8869   14.1440   -0.4412 H   0  0  0  0  0  0  0  0  0  0  0  0
   -0.0682   14.7842   -0.6521 H   0  0  0  0  0  0  0  0  0  0  0  0
    1.3021   15.8958   -0.2605 H   0  0  0  0  0  0  0  0  0  0  0  0
    3.1978   15.7892   -1.5435 H   0  0  0  0  0  0  0  0  0  0  0  0
    3.2254   14.8689   -3.0859 H   0  0  0  0  0  0  0  0  0  0  0  0
    2.7781   16.6086   -3.0859 H   0  0  0  0  0  0  0  0  0  0  0  0
  1  2  1  0
  2  3  1  0
  3  4  1  0
  4  5  1  0
  5  6  1  0
  6  7  1  0
  7  8  1  0
  7  9  1  0
  2 10  1  0
 10 11  1  0
 11 12  1  0
 12 13  1  0
 13 14  1  1
 13 15  1  0
 15 16  1  0
 16 17  1  0
 17 18  2  0
 18 19  1  0
 19 20  1  0
 20 21  1  0
 21 22  1  0
 22 23  1  0
 22 24  1  0
 24 25  1  0
 24 26  1  0
 19 27  1  0
 27 28  1  6
 27 29  1  0
 29 30  1  0
 30 31  1  0
 31 32  1  1
  7  5  1  0
 31 10  1  0
 31 13  1  0
 27 15  1  0
 24 18  1  0
  1 33  1  0
  1 34  1  0
  1 35  1  0
  2 36  1  6
  3 37  1  0
  3 38  1  0
  4 39  1  0
  4 40  1  0
  5 41  1  1
  8 42  1  0
  8 43  1  0
  8 44  1  0
  9 45  1  0
  9 46  1  0
  9 47  1  0
 10 48  1  1
 11 49  1  0
 11 50  1  0
 12 51  1  0
 12 52  1  0
 14 53  1  0
 14 54  1  0
 14 55  1  0
 15 56  1  6
 16 57  1  0
 16 58  1  0
 17 59  1  0
 19 60  1  1
 20 61  1  0
 20 62  1  0
 21 63  1  0
 21 64  1  0
 22 65  1  1
 23 66  1  0
 25 67  1  0
 25 68  1  0
 25 69  1  0
 26 70  1  0
 26 71  1  0
 26 72  1  0
 28 73  1  0
 28 74  1  0
 28 75  1  0
 29 76  1  0
 29 77  1  0
 30 78  1  0
 30 79  1  0
 32 80  1  0
 32 81  1  0
 32 82  1  0
M  END
>  <meeko>  (5) 
{"is_sidechain": [false], "intermolecular_energy": 2.731, "internal_energy": -0.839}

$$$$
EPH_relaxed_0001_pdb2pqr_Repair_161_r2_0001_out
     RDKit          3D

 82 86  0  0  0  0  0  0  0  0999 V2000
   -3.3970    9.3340    0.5300 C   0  0  0  0  0  0  0  0  0  0  0  0
   -2.5620    9.6860   -0.7040 C   0  0  2  0  0  0  0  0  0  0  0  0
   -1.8910    8.4450   -1.3250 C   0  0  0  0  0  0  0  0  0  0  0  0
   -2.8030    7.6640   -2.2750 C   0  0  0  0  0  0  0  0  0  0  0  0
   -4.2430    7.7720   -1.8750 C   0  0  2  0  0  0  0  0  0  0  0  0
   -4.7960    6.5810   -1.3000 O   0  0  0  0  0  0  0  0  0  0  0  0
   -5.3600    7.0000   -2.5530 C   0  0  0  0  0  0  0  0  0  0  0  0
   -5.0840    6.0640   -3.6880 C   0  0  0  0  0  0  0  0  0  0  0  0
   -6.7590    7.5190   -2.4410 C   0  0  0  0  0  0  0  0  0  0  0  0
   -1.5040   10.7210   -0.3370 C   0  0  1  0  0  0  0  0  0  0  0  0
   -0.4050   10.1460    0.5960 C   0  0  0  0  0  0  0  0  0  0  0  0
    0.9240   10.8400    0.2010 C   0  0  0  0  0  0  0  0  0  0  0  0
    0.4950   12.0180   -0.7050 C   0  0  1  0  0  0  0  0  0  0  0  0
    0.0540   13.1440    0.2820 C   0  0  0  0  0  0  0  0  0  0  0  0
    1.5640   12.5300   -1.7250 C   0  0  2  0  0  0  0  0  0  0  0  0
    2.8450   13.1040   -1.0950 C   0  0  0  0  0  0  0  0  0  0  0  0
    2.8170   14.5700   -0.8160 C   0  0  0  0  0  0  0  0  0  0  0  0
    1.9250   15.4450   -1.3170 C   0  0  0  0  0  0  0  0  0  0  0  0
    0.8700   14.9970   -2.3370 C   0  0  1  0  0  0  0  0  0  0  0  0
    0.8180   16.0140   -3.5080 C   0  0  0  0  0  0  0  0  0  0  0  0
    0.5960   17.4450   -3.0290 C   0  0  0  0  0  0  0  0  0  0  0  0
    1.6960   17.8740   -2.0620 C   0  0  2  0  0  0  0  0  0  0  0  0
    2.9340   17.9470   -2.7750 O   0  0  0  0  0  0  0  0  0  0  0  0
    1.8490   16.9180   -0.8460 C   0  0  0  0  0  0  0  0  0  0  0  0
    0.6250   17.0670    0.0910 C   0  0  0  0  0  0  0  0  0  0  0  0
    3.0820   17.3830   -0.0250 C   0  0  0  0  0  0  0  0  0  0  0  0
    0.9860   13.4940   -2.8400 C   0  0  1  0  0  0  0  0  0  0  0  0
    1.9660   13.4110   -4.0500 C   0  0  0  0  0  0  0  0  0  0  0  0
   -0.4180   13.0200   -3.3720 C   0  0  0  0  0  0  0  0  0  0  0  0
   -1.3840   12.4130   -2.3370 C   0  0  0  0  0  0  0  0  0  0  0  0
   -0.6840   11.3410   -1.4950 C   0  0  2  0  0  0  0  0  0  0  0  0
   -0.2490   10.1850   -2.4580 C   0  0  0  0  0  0  0  0  0  0  0  0
   -2.8267    9.5744    1.4394 H   0  0  0  0  0  0  0  0  0  0  0  0
   -4.3310    9.9150    0.5186 H   0  0  0  0  0  0  0  0  0  0  0  0
   -3.6332    8.2597    0.5186 H   0  0  0  0  0  0  0  0  0  0  0  0
   -3.2456   10.1033   -1.4580 H   0  0  0  0  0  0  0  0  0  0  0  0
   -1.0043    8.7740   -1.8867 H   0  0  0  0  0  0  0  0  0  0  0  0
   -1.6350    7.7688   -0.4960 H   0  0  0  0  0  0  0  0  0  0  0  0
   -2.6847    8.0648   -3.2925 H   0  0  0  0  0  0  0  0  0  0  0  0
   -2.5141    6.6034   -2.2329 H   0  0  0  0  0  0  0  0  0  0  0  0
   -4.1214    8.8394   -1.6386 H   0  0  0  0  0  0  0  0  0  0  0  0
   -4.7940    5.0804   -3.2899 H   0  0  0  0  0  0  0  0  0  0  0  0
   -5.9891    5.9578   -4.3041 H   0  0  0  0  0  0  0  0  0  0  0  0
   -4.2661    6.4659   -4.3041 H   0  0  0  0  0  0  0  0  0  0  0  0
   -7.0290    7.6192   -1.3794 H   0  0  0  0  0  0  0  0  0  0  0  0
   -6.8258    8.5017   -2.9306 H   0  0  0  0  0  0  0  0  0  0  0  0
   -7.4506    6.8176   -2.9306 H   0  0  0  0  0  0  0  0  0  0  0  0
   -2.1465   11.4876    0.1207 H   0  0  0  0  0  0  0  0  0  0  0  0
   -0.6482   10.3631    1.6466 H   0  0  0  0  0  0  0  0  0  0  0  0
   -0.3276    9.0539    0.4893 H   0  0  0  0  0  0  0  0  0  0  0  0
    1.4500   11.2085    1.0940 H   0  0  0  0  0  0  0  0  0  0  0  0
    1.6177   10.1541   -0.3072 H   0  0  0  0  0  0  0  0  0  0  0  0
    0.1896   12.7979    1.3173 H   0  0  0  0  0  0  0  0  0  0  0  0
    0.6671   14.0413    0.1121 H   0  0  0  0  0  0  0  0  0  0  0  0
   -1.0055   13.3863    0.1121 H   0  0  0  0  0  0  0  0  0  0  0  0
    1.8702   11.6028   -2.2314 H   0  0  0  0  0  0  0  0  0  0  0  0
    3.0200   12.5803   -0.1436 H   0  0  0  0  0  0  0  0  0  0  0  0
    3.6435   12.9506   -1.8359 H   0  0  0  0  0  0  0  0  0  0  0  0
    3.5909   14.9693   -0.1440 H   0  0  0  0  0  0  0  0  0  0  0  0
   -0.0902   14.9949   -1.8004 H   0  0  0  0  0  0  0  0  0  0  0  0
    1.7704   15.9693   -4.0566 H   0  0  0  0  0  0  0  0  0  0  0  0
   -0.0320   15.7408   -4.1506 H   0  0  0  0  0  0  0  0  0  0  0  0
    0.5974   18.1196   -3.8978 H   0  0  0  0  0  0  0  0  0  0  0  0
   -0.3701   17.4938   -2.5053 H   0  0  0  0  0  0  0  0  0  0  0  0
    1.4134   18.8563   -1.6555 H   0  0  0  0  0  0  0  0  0  0  0  0
    3.6220   18.2200   -2.1440 H   0  0  0  0  0  0  0  0  0  0  0  0
    0.9581   17.0265    1.1386 H   0  0  0  0  0  0  0  0  0  0  0  0
    0.1323   18.0318   -0.1000 H   0  0  0  0  0  0  0  0  0  0  0  0
   -0.0848   16.2486   -0.1000 H   0  0  0  0  0  0  0  0  0  0  0  0
    2.8601   17.2993    1.0491 H   0  0  0  0  0  0  0  0  0  0  0  0
    3.9467   16.7492   -0.2712 H   0  0  0  0  0  0  0  0  0  0  0  0
    3.3128   18.4299   -0.2712 H   0  0  0  0  0  0  0  0  0  0  0  0
    2.9983   13.3236   -3.6804 H   0  0  0  0  0  0  0  0  0  0  0  0
    1.7197   12.5305   -4.6616 H   0  0  0  0  0  0  0  0  0  0  0  0
    1.8713   14.3204   -4.6616 H   0  0  0  0  0  0  0  0  0  0  0  0
   -0.9159   13.8924   -3.8203 H   0  0  0  0  0  0  0  0  0  0  0  0
   -0.1986   12.2028   -4.0749 H   0  0  0  0  0  0  0  0  0  0  0  0
   -1.7478   13.2111   -1.6731 H   0  0  0  0  0  0  0  0  0  0  0  0
   -2.2230   11.9451   -2.8729 H   0  0  0  0  0  0  0  0  0  0  0  0
    0.0774    9.3175   -1.8656 H   0  0  0  0  0  0  0  0  0  0  0  0
   -1.1001    9.8965   -3.0924 H   0  0  0  0  0  0  0  0  0  0  0  0
    0.5811   10.5291   -3.0924 H   0  0  0  0  0  0  0  0  0  0  0  0
  1  2  1  0
  2  3  1  0
  3  4  1  0
  4  5  1  0
  5  6  1  0
  6  7  1  0
  7  8  1  0
  7  9  1  0
  2 10  1  0
 10 11  1  0
 11 12  1  0
 12 13  1  0
 13 14  1  1
 13 15  1  0
 15 16  1  0
 16 17  1  0
 17 18  2  0
 18 19  1  0
 19 20  1  0
 20 21  1  0
 21 22  1  0
 22 23  1  0
 22 24  1  0
 24 25  1  0
 24 26  1  0
 19 27  1  0
 27 28  1  6
 27 29  1  0
 29 30  1  0
 30 31  1  0
 31 32  1  6
  7  5  1  0
 31 10  1  0
 31 13  1  0
 27 15  1  0
 24 18  1  0
  1 33  1  0
  1 34  1  0
  1 35  1  0
  2 36  1  6
  3 37  1  0
  3 38  1  0
  4 39  1  0
  4 40  1  0
  5 41  1  1
  8 42  1  0
  8 43  1  0
  8 44  1  0
  9 45  1  0
  9 46  1  0
  9 47  1  0
 10 48  1  1
 11 49  1  0
 11 50  1  0
 12 51  1  0
 12 52  1  0
 14 53  1  0
 14 54  1  0
 14 55  1  0
 15 56  1  6
 16 57  1  0
 16 58  1  0
 17 59  1  0
 19 60  1  1
 20 61  1  0
 20 62  1  0
 21 63  1  0
 21 64  1  0
 22 65  1  1
 23 66  1  0
 25 67  1  0
 25 68  1  0
 25 69  1  0
 26 70  1  0
 26 71  1  0
 26 72  1  0
 28 73  1  0
 28 74  1  0
 28 75  1  0
 29 76  1  0
 29 77  1  0
 30 78  1  0
 30 79  1  0
 32 80  1  0
 32 81  1  0
 32 82  1  0
M  END
>  <meeko>  (6) 
{"is_sidechain": [false], "intermolecular_energy": 2.731, "internal_energy": -0.839}

$$$$
EPH_relaxed_0001_pdb2pqr_Repair_161_r2_0001_out
     RDKit          3D

 82 86  0  0  0  0  0  0  0  0999 V2000
   -0.7760   10.3400   -2.6990 C   0  0  0  0  0  0  0  0  0  0  0  0
   -0.1700   10.1080   -1.3120 C   0  0  2  0  0  0  0  0  0  0  0  0
   -1.1190    9.3180   -0.3890 C   0  0  0  0  0  0  0  0  0  0  0  0
   -2.6000    9.4810   -0.7430 C   0  0  0  0  0  0  0  0  0  0  0  0
   -3.3130    8.1630   -0.7650 C   0  0  2  0  0  0  0  0  0  0  0  0
   -3.8970    7.8200   -2.0290 O   0  0  0  0  0  0  0  0  0  0  0  0
   -4.8140    8.0270   -0.9430 C   0  0  0  0  0  0  0  0  0  0  0  0
   -5.6920    9.2280   -1.1090 C   0  0  0  0  0  0  0  0  0  0  0  0
   -5.4800    6.7730   -0.4690 C   0  0  0  0  0  0  0  0  0  0  0  0
    0.1880   11.4430   -0.6710 C   0  0  1  0  0  0  0  0  0  0  0  0
    1.3020   11.3120    0.4010 C   0  0  0  0  0  0  0  0  0  0  0  0
    2.1560   12.6030    0.3190 C   0  0  0  0  0  0  0  0  0  0  0  0
    1.3210   13.5690   -0.5530 C   0  0  1  0  0  0  0  0  0  0  0  0
    0.2650   14.1780    0.4220 C   0  0  0  0  0  0  0  0  0  0  0  0
    2.1180   14.6810   -1.3100 C   0  0  2  0  0  0  0  0  0  0  0  0
    2.8620   15.6790   -0.4070 C   0  0  0  0  0  0  0  0  0  0  0  0
    2.0840   16.8930   -0.0200 C   0  0  0  0  0  0  0  0  0  0  0  0
    0.9470   17.3130   -0.6070 C   0  0  0  0  0  0  0  0  0  0  0  0
    0.3850   16.5930   -1.8400 C   0  0  1  0  0  0  0  0  0  0  0  0
   -0.0140   17.6400   -2.9130 C   0  0  0  0  0  0  0  0  0  0  0  0
   -0.9680   18.7000   -2.3700 C   0  0  0  0  0  0  0  0  0  0  0  0
   -0.3500   19.4330   -1.1820 C   0  0  2  0  0  0  0  0  0  0  0  0
    0.7700   20.1940   -1.6430 O   0  0  0  0  0  0  0  0  0  0  0  0
    0.1000   18.4790   -0.0410 C   0  0  0  0  0  0  0  0  0  0  0  0
   -1.1450   17.8800    0.6590 C   0  0  0  0  0  0  0  0  0  0  0  0
    0.8330   19.3300    1.0310 C   0  0  0  0  0  0  0  0  0  0  0  0
    1.2850   15.4250   -2.4310 C   0  0  1  0  0  0  0  0  0  0  0  0
    2.3210   16.0100   -3.4400 C   0  0  0  0  0  0  0  0  0  0  0  0
    0.3740   14.4390   -3.2530 C   0  0  0  0  0  0  0  0  0  0  0  0
   -0.2900   13.2910   -2.4700 C   0  0  0  0  0  0  0  0  0  0  0  0
    0.7350   12.5550   -1.6020 C   0  0  2  0  0  0  0  0  0  0  0  0
    1.7970   11.9120   -2.5570 C   0  0  0  0  0  0  0  0  0  0  0  0
   -1.7984   10.7314   -2.5916 H   0  0  0  0  0  0  0  0  0  0  0  0
   -0.1614   11.0664   -3.2509 H   0  0  0  0  0  0  0  0  0  0  0  0
   -0.8036    9.3888   -3.2509 H   0  0  0  0  0  0  0  0  0  0  0  0
    0.7397    9.5042   -1.4452 H   0  0  0  0  0  0  0  0  0  0  0  0
   -0.8611    8.2508   -0.4574 H   0  0  0  0  0  0  0  0  0  0  0  0
   -0.9857    9.7181    0.6270 H   0  0  0  0  0  0  0  0  0  0  0  0
   -3.0760   10.1313    0.0057 H   0  0  0  0  0  0  0  0  0  0  0  0
   -2.6657    9.9232   -1.7481 H   0  0  0  0  0  0  0  0  0  0  0  0
   -2.6174    7.7469   -0.0214 H   0  0  0  0  0  0  0  0  0  0  0  0
   -5.9749    9.6150   -0.1190 H   0  0  0  0  0  0  0  0  0  0  0  0
   -5.1481   10.0058   -1.6650 H   0  0  0  0  0  0  0  0  0  0  0  0
   -6.5982    8.9457   -1.6650 H   0  0  0  0  0  0  0  0  0  0  0  0
   -5.4891    6.7559    0.6308 H   0  0  0  0  0  0  0  0  0  0  0  0
   -6.5134    6.7421   -0.8448 H   0  0  0  0  0  0  0  0  0  0  0  0
   -4.9269    5.8995   -0.8448 H   0  0  0  0  0  0  0  0  0  0  0  0
   -0.7995   11.7303   -0.2806 H   0  0  0  0  0  0  0  0  0  0  0  0
    0.8553   11.2163    1.4017 H   0  0  0  0  0  0  0  0  0  0  0  0
    1.9186   10.4187    0.2225 H   0  0  0  0  0  0  0  0  0  0  0  0
    2.3174   13.0260    1.3215 H   0  0  0  0  0  0  0  0  0  0  0  0
    3.1541   12.4165   -0.1041 H   0  0  0  0  0  0  0  0  0  0  0  0
    0.5781   13.9974    1.4609 H   0  0  0  0  0  0  0  0  0  0  0  0
    0.1851   15.2609    0.2461 H   0  0  0  0  0  0  0  0  0  0  0  0
   -0.7123   13.7048    0.2461 H   0  0  0  0  0  0  0  0  0  0  0  0
    2.9003   14.1032   -1.8240 H   0  0  0  0  0  0  0  0  0  0  0  0
    3.1513   15.1528    0.5147 H   0  0  0  0  0  0  0  0  0  0  0  0
    3.7179   16.0414   -0.9953 H   0  0  0  0  0  0  0  0  0  0  0  0
    2.4721   17.4951    0.8148 H   0  0  0  0  0  0  0  0  0  0  0  0
   -0.5088   16.0521   -1.4958 H   0  0  0  0  0  0  0  0  0  0  0  0
    0.8972   18.1382   -3.2755 H   0  0  0  0  0  0  0  0  0  0  0  0
   -0.5334   17.1068   -3.7229 H   0  0  0  0  0  0  0  0  0  0  0  0
   -1.1895   19.4265   -3.1657 H   0  0  0  0  0  0  0  0  0  0  0  0
   -1.8906   18.2035   -2.0349 H   0  0  0  0  0  0  0  0  0  0  0  0
   -1.1260   20.0862   -0.7565 H   0  0  0  0  0  0  0  0  0  0  0  0
    0.5630   21.1350   -1.5070 H   0  0  0  0  0  0  0  0  0  0  0  0
   -1.0174   17.9414    1.7498 H   0  0  0  0  0  0  0  0  0  0  0  0
   -2.0403   18.4459    0.3622 H   0  0  0  0  0  0  0  0  0  0  0  0
   -1.2615   16.8272    0.3622 H   0  0  0  0  0  0  0  0  0  0  0  0
    0.5388   18.9884    2.0344 H   0  0  0  0  0  0  0  0  0  0  0  0
    1.9203   19.2161    0.9091 H   0  0  0  0  0  0  0  0  0  0  0  0
    0.5593   20.3884    0.9091 H   0  0  0  0  0  0  0  0  0  0  0  0
    3.1486   16.4773   -2.8862 H   0  0  0  0  0  0  0  0  0  0  0  0
    2.7141   15.2005   -4.0726 H   0  0  0  0  0  0  0  0  0  0  0  0
    1.8308   16.7647   -4.0726 H   0  0  0  0  0  0  0  0  0  0  0  0
   -0.4276   15.0338   -3.7153 H   0  0  0  0  0  0  0  0  0  0  0  0
    1.0523   13.9468   -3.9655 H   0  0  0  0  0  0  0  0  0  0  0  0
   -1.0780   13.7049   -1.8236 H   0  0  0  0  0  0  0  0  0  0  0  0
   -0.7177   12.5771   -3.1893 H   0  0  0  0  0  0  0  0  0  0  0  0
    2.5865   11.4340   -1.9585 H   0  0  0  0  0  0  0  0  0  0  0  0
    1.3100   11.1569   -3.1916 H   0  0  0  0  0  0  0  0  0  0  0  0
    2.2403   12.6935   -3.1916 H   0  0  0  0  0  0  0  0  0  0  0  0
  1  2  1  0
  2  3  1  0
  3  4  1  0
  4  5  1  0
  5  6  1  0
  6  7  1  0
  7  8  1  0
  7  9  1  0
  2 10  1  0
 10 11  1  0
 11 12  1  0
 12 13  1  0
 13 14  1  1
 13 15  1  0
 15 16  1  0
 16 17  1  0
 17 18  2  0
 18 19  1  0
 19 20  1  0
 20 21  1  0
 21 22  1  0
 22 23  1  0
 22 24  1  0
 24 25  1  0
 24 26  1  0
 19 27  1  0
 27 28  1  6
 27 29  1  0
 29 30  1  0
 30 31  1  0
 31 32  1  6
  7  5  1  0
 31 10  1  0
 31 13  1  0
 27 15  1  0
 24 18  1  0
  1 33  1  0
  1 34  1  0
  1 35  1  0
  2 36  1  6
  3 37  1  0
  3 38  1  0
  4 39  1  0
  4 40  1  0
  5 41  1  1
  8 42  1  0
  8 43  1  0
  8 44  1  0
  9 45  1  0
  9 46  1  0
  9 47  1  0
 10 48  1  1
 11 49  1  0
 11 50  1  0
 12 51  1  0
 12 52  1  0
 14 53  1  0
 14 54  1  0
 14 55  1  0
 15 56  1  6
 16 57  1  0
 16 58  1  0
 17 59  1  0
 19 60  1  1
 20 61  1  0
 20 62  1  0
 21 63  1  0
 21 64  1  0
 22 65  1  1
 23 66  1  0
 25 67  1  0
 25 68  1  0
 25 69  1  0
 26 70  1  0
 26 71  1  0
 26 72  1  0
 28 73  1  0
 28 74  1  0
 28 75  1  0
 29 76  1  0
 29 77  1  0
 30 78  1  0
 30 79  1  0
 32 80  1  0
 32 81  1  0
 32 82  1  0
M  END
>  <meeko>  (7) 
{"is_sidechain": [false], "intermolecular_energy": 2.731, "internal_energy": -0.839}

$$$$
EPH_relaxed_0001_pdb2pqr_Repair_161_r2_0001_out
     RDKit          3D

 82 86  0  0  0  0  0  0  0  0999 V2000
    0.4390    8.8570   -2.3760 C   0  0  0  0  0  0  0  0  0  0  0  0
    1.1870   10.0020   -3.0650 C   0  0  2  0  0  0  0  0  0  0  0  0
    2.6860   10.0170   -2.7000 C   0  0  0  0  0  0  0  0  0  0  0  0
    3.5820   10.5800   -3.8070 C   0  0  0  0  0  0  0  0  0  0  0  0
    4.9780   10.8230   -3.3190 C   0  0  2  0  0  0  0  0  0  0  0  0
    5.5690   12.0460   -3.7780 O   0  0  0  0  0  0  0  0  0  0  0  0
    6.1930   10.8320   -4.2290 C   0  0  0  0  0  0  0  0  0  0  0  0
    6.0670   10.5940   -5.7010 C   0  0  0  0  0  0  0  0  0  0  0  0
    7.5410   10.5880   -3.6260 C   0  0  0  0  0  0  0  0  0  0  0  0
    0.5480   11.3360   -2.6980 C   0  0  1  0  0  0  0  0  0  0  0  0
   -0.8140   11.1670   -1.9740 C   0  0  0  0  0  0  0  0  0  0  0  0
   -0.9160   12.3160   -0.9380 C   0  0  0  0  0  0  0  0  0  0  0  0
    0.2210   13.2910   -1.3250 C   0  0  1  0  0  0  0  0  0  0  0  0
   -0.3560   14.1330   -2.5050 C   0  0  0  0  0  0  0  0  0  0  0  0
    0.7690   14.2020   -0.1790 C   0  0  2  0  0  0  0  0  0  0  0  0
   -0.2550   15.1790    0.4240 C   0  0  0  0  0  0  0  0  0  0  0  0
   -0.3190   16.5200   -0.2290 C   0  0  0  0  0  0  0  0  0  0  0  0
    0.6040   17.0260   -1.0690 C   0  0  0  0  0  0  0  0  0  0  0  0
    1.9040   16.2650   -1.3610 C   0  0  1  0  0  0  0  0  0  0  0  0
    3.1070   17.2400   -1.2640 C   0  0  0  0  0  0  0  0  0  0  0  0
    2.9370   18.4680   -2.1530 C   0  0  0  0  0  0  0  0  0  0  0  0
    1.6640   19.2300   -1.7930 C   0  0  2  0  0  0  0  0  0  0  0  0
    1.8120   19.7830   -0.4820 O   0  0  0  0  0  0  0  0  0  0  0  0
    0.3860   18.3470   -1.8460 C   0  0  0  0  0  0  0  0  0  0  0  0
    0.0570   17.9960   -3.3180 C   0  0  0  0  0  0  0  0  0  0  0  0
   -0.8040   19.1970   -1.3260 C   0  0  0  0  0  0  0  0  0  0  0  0
    2.1300   14.9320   -0.5250 C   0  0  1  0  0  0  0  0  0  0  0  0
    2.8150   15.2660    0.8350 C   0  0  0  0  0  0  0  0  0  0  0  0
    3.1280   13.9980   -1.3070 C   0  0  0  0  0  0  0  0  0  0  0  0
    2.5130   13.0360   -2.3410 C   0  0  0  0  0  0  0  0  0  0  0  0
    1.3360   12.2620   -1.7390 C   0  0  2  0  0  0  0  0  0  0  0  0
    1.8910   11.3880   -0.5630 C   0  0  0  0  0  0  0  0  0  0  0  0
    0.5151    8.9735   -1.2848 H   0  0  0  0  0  0  0  0  0  0  0  0
   -0.6196    8.8787   -2.6741 H   0  0  0  0  0  0  0  0  0  0  0  0
    0.8842    7.8963   -2.6741 H   0  0  0  0  0  0  0  0  0  0  0  0
    1.1123    9.8412   -4.1506 H   0  0  0  0  0  0  0  0  0  0  0  0
    2.8181   10.6336   -1.7987 H   0  0  0  0  0  0  0  0  0  0  0  0
    2.9892    8.9717   -2.5406 H   0  0  0  0  0  0  0  0  0  0  0  0
    3.6151    9.8613   -4.6391 H   0  0  0  0  0  0  0  0  0  0  0  0
    3.1603   11.5419   -4.1341 H   0  0  0  0  0  0  0  0  0  0  0  0
    4.7654   10.2960   -2.3772 H   0  0  0  0  0  0  0  0  0  0  0  0
    5.5588    9.6341   -5.8750 H   0  0  0  0  0  0  0  0  0  0  0  0
    5.4810   11.4067   -6.1550 H   0  0  0  0  0  0  0  0  0  0  0  0
    7.0686   10.5663   -6.1550 H   0  0  0  0  0  0  0  0  0  0  0  0
    7.4601   10.6026   -2.5291 H   0  0  0  0  0  0  0  0  0  0  0  0
    7.9168    9.6072   -3.9529 H   0  0  0  0  0  0  0  0  0  0  0  0
    8.2368   11.3748   -3.9529 H   0  0  0  0  0  0  0  0  0  0  0  0
    0.4884   11.7926   -3.6970 H   0  0  0  0  0  0  0  0  0  0  0  0
   -1.6390   11.2358   -2.6983 H   0  0  0  0  0  0  0  0  0  0  0  0
   -0.8806   10.1852   -1.4825 H   0  0  0  0  0  0  0  0  0  0  0  0
   -1.8945   12.8140   -1.0052 H   0  0  0  0  0  0  0  0  0  0  0  0
   -0.8222   11.9548    0.0968 H   0  0  0  0  0  0  0  0  0  0  0  0
   -0.9350   14.9779   -2.1038 H   0  0  0  0  0  0  0  0  0  0  0  0
    0.4710   14.5151   -3.1216 H   0  0  0  0  0  0  0  0  0  0  0  0
   -1.0108   13.4997   -3.1216 H   0  0  0  0  0  0  0  0  0  0  0  0
    0.9906   13.4736    0.6150 H   0  0  0  0  0  0  0  0  0  0  0  0
   -1.2504   14.7168    0.3493 H   0  0  0  0  0  0  0  0  0  0  0  0
    0.0705   15.3601    1.4590 H   0  0  0  0  0  0  0  0  0  0  0  0
   -1.1940   17.1478   -0.0051 H   0  0  0  0  0  0  0  0  0  0  0  0
    1.8111   15.8874   -2.3900 H   0  0  0  0  0  0  0  0  0  0  0  0
    3.2090   17.5716   -0.2201 H   0  0  0  0  0  0  0  0  0  0  0  0
    4.0026   16.7009   -1.6065 H   0  0  0  0  0  0  0  0  0  0  0  0
    3.8039   19.1319   -2.0196 H   0  0  0  0  0  0  0  0  0  0  0  0
    2.8639   18.1366   -3.1993 H   0  0  0  0  0  0  0  0  0  0  0  0
    1.5302   20.0216   -2.5449 H   0  0  0  0  0  0  0  0  0  0  0  0
    2.7590   19.7690   -0.2620 H   0  0  0  0  0  0  0  0  0  0  0  0
   -0.6950   17.1937   -3.3443 H   0  0  0  0  0  0  0  0  0  0  0  0
   -0.3391   18.8867   -3.8276 H   0  0  0  0  0  0  0  0  0  0  0  0
    0.9715   17.6583   -3.8276 H   0  0  0  0  0  0  0  0  0  0  0  0
   -0.8024   19.1958   -0.2260 H   0  0  0  0  0  0  0  0  0  0  0  0
   -0.7045   20.2296   -1.6917 H   0  0  0  0  0  0  0  0  0  0  0  0
   -1.7485   18.7679   -1.6917 H   0  0  0  0  0  0  0  0  0  0  0  0
    2.1629   14.9480    1.6618 H   0  0  0  0  0  0  0  0  0  0  0  0
    3.7763   14.7355    0.9014 H   0  0  0  0  0  0  0  0  0  0  0  0
    2.9891   16.3501    0.9014 H   0  0  0  0  0  0  0  0  0  0  0  0
    3.8425   14.6445   -1.8376 H   0  0  0  0  0  0  0  0  0  0  0  0
    3.5756   13.3487   -0.5401 H   0  0  0  0  0  0  0  0  0  0  0  0
    2.1575   13.6163   -3.2053 H   0  0  0  0  0  0  0  0  0  0  0  0
    3.2841   12.3155   -2.6513 H   0  0  0  0  0  0  0  0  0  0  0  0
    1.6036   11.8406    0.3975 H   0  0  0  0  0  0  0  0  0  0  0  0
    1.4713   10.3734   -0.6304 H   0  0  0  0  0  0  0  0  0  0  0  0
    2.9877   11.3364   -0.6304 H   0  0  0  0  0  0  0  0  0  0  0  0
  1  2  1  0
  2  3  1  0
  3  4  1  0
  4  5  1  0
  5  6  1  0
  6  7  1  0
  7  8  1  0
  7  9  1  0
  2 10  1  0
 10 11  1  0
 11 12  1  0
 12 13  1  0
 13 14  1  6
 13 15  1  0
 15 16  1  0
 16 17  1  0
 17 18  2  0
 18 19  1  0
 19 20  1  0
 20 21  1  0
 21 22  1  0
 22 23  1  0
 22 24  1  0
 24 25  1  0
 24 26  1  0
 19 27  1  0
 27 28  1  1
 27 29  1  0
 29 30  1  0
 30 31  1  0
 31 32  1  1
  7  5  1  0
 31 10  1  0
 31 13  1  0
 27 15  1  0
 24 18  1  0
  1 33  1  0
  1 34  1  0
  1 35  1  0
  2 36  1  6
  3 37  1  0
  3 38  1  0
  4 39  1  0
  4 40  1  0
  5 41  1  1
  8 42  1  0
  8 43  1  0
  8 44  1  0
  9 45  1  0
  9 46  1  0
  9 47  1  0
 10 48  1  6
 11 49  1  0
 11 50  1  0
 12 51  1  0
 12 52  1  0
 14 53  1  0
 14 54  1  0
 14 55  1  0
 15 56  1  1
 16 57  1  0
 16 58  1  0
 17 59  1  0
 19 60  1  6
 20 61  1  0
 20 62  1  0
 21 63  1  0
 21 64  1  0
 22 65  1  6
 23 66  1  0
 25 67  1  0
 25 68  1  0
 25 69  1  0
 26 70  1  0
 26 71  1  0
 26 72  1  0
 28 73  1  0
 28 74  1  0
 28 75  1  0
 29 76  1  0
 29 77  1  0
 30 78  1  0
 30 79  1  0
 32 80  1  0
 32 81  1  0
 32 82  1  0
M  END
>  <meeko>  (8) 
{"is_sidechain": [false], "intermolecular_energy": 2.731, "internal_energy": -0.839}

$$$$
EPH_relaxed_0001_pdb2pqr_Repair_161_r2_0001_out
     RDKit          3D

 82 86  0  0  0  0  0  0  0  0999 V2000
   -0.3090   10.4980   -4.0130 C   0  0  0  0  0  0  0  0  0  0  0  0
    0.9230   10.3420   -3.1170 C   0  0  2  0  0  0  0  0  0  0  0  0
    0.9170    9.0060   -2.3480 C   0  0  0  0  0  0  0  0  0  0  0  0
   -0.4720    8.5810   -1.8630 C   0  0  0  0  0  0  0  0  0  0  0  0
   -0.6960    8.9530   -0.4290 C   0  0  2  0  0  0  0  0  0  0  0  0
   -2.0700    8.9530   -0.0180 O   0  0  0  0  0  0  0  0  0  0  0  0
   -1.4010   10.2250    0.0060 C   0  0  0  0  0  0  0  0  0  0  0  0
   -1.9250   11.2070   -0.9950 C   0  0  0  0  0  0  0  0  0  0  0  0
   -1.1480   10.7470    1.3850 C   0  0  0  0  0  0  0  0  0  0  0  0
    1.0040   11.5070   -2.1380 C   0  0  1  0  0  0  0  0  0  0  0  0
    2.0640   11.2810   -1.0270 C   0  0  0  0  0  0  0  0  0  0  0  0
    2.6800   12.6680   -0.7070 C   0  0  0  0  0  0  0  0  0  0  0  0
    1.7350   13.6820   -1.3940 C   0  0  1  0  0  0  0  0  0  0  0  0
    0.5370   13.8460   -0.4070 C   0  0  0  0  0  0  0  0  0  0  0  0
    2.3620   15.0620   -1.7750 C   0  0  2  0  0  0  0  0  0  0  0  0
    2.8680   15.8990   -0.5880 C   0  0  0  0  0  0  0  0  0  0  0  0
    1.8670   16.8350    0.0060 C   0  0  0  0  0  0  0  0  0  0  0  0
    0.7070   17.2060   -0.5680 C   0  0  0  0  0  0  0  0  0  0  0  0
    0.3490   16.7490   -1.9870 C   0  0  1  0  0  0  0  0  0  0  0  0
   -0.1710   17.9600   -2.8060 C   0  0  0  0  0  0  0  0  0  0  0  0
   -1.3250   18.6800   -2.1160 C   0  0  0  0  0  0  0  0  0  0  0  0
   -0.9120   19.1710   -0.7310 C   0  0  2  0  0  0  0  0  0  0  0  0
    0.0790   20.1920   -0.8800 O   0  0  0  0  0  0  0  0  0  0  0  0
   -0.3620   18.0390    0.1810 C   0  0  0  0  0  0  0  0  0  0  0  0
   -1.5180   17.0920    0.5890 C   0  0  0  0  0  0  0  0  0  0  0  0
    0.1490   18.6900    1.4950 C   0  0  0  0  0  0  0  0  0  0  0  0
    1.4730   15.9290   -2.7560 C   0  0  1  0  0  0  0  0  0  0  0  0
    2.4410   16.9100   -3.4860 C   0  0  0  0  0  0  0  0  0  0  0  0
    0.7960   15.0570   -3.8790 C   0  0  0  0  0  0  0  0  0  0  0  0
    0.3040   13.6560   -3.4680 C   0  0  0  0  0  0  0  0  0  0  0  0
    1.3950   12.8930   -2.7110 C   0  0  2  0  0  0  0  0  0  0  0  0
    2.6050   12.6930   -3.6860 C   0  0  0  0  0  0  0  0  0  0  0  0
   -1.2060   10.6116   -3.3865 H   0  0  0  0  0  0  0  0  0  0  0  0
   -0.1902   11.3883   -4.6481 H   0  0  0  0  0  0  0  0  0  0  0  0
   -0.4158    9.6062   -4.6481 H   0  0  0  0  0  0  0  0  0  0  0  0
    1.8087   10.3424   -3.7693 H   0  0  0  0  0  0  0  0  0  0  0  0
    1.3080    8.2212   -3.0122 H   0  0  0  0  0  0  0  0  0  0  0  0
    1.5406    9.1475   -1.4530 H   0  0  0  0  0  0  0  0  0  0  0  0
   -1.2333    9.0769   -2.4831 H   0  0  0  0  0  0  0  0  0  0  0  0
   -0.5453    7.4868   -1.9489 H   0  0  0  0  0  0  0  0  0  0  0  0
    0.2667    8.5070   -0.1386 H   0  0  0  0  0  0  0  0  0  0  0  0
   -2.3798   12.0594   -0.4691 H   0  0  0  0  0  0  0  0  0  0  0  0
   -1.0977   11.5644   -1.6257 H   0  0  0  0  0  0  0  0  0  0  0  0
   -2.6825   10.7188   -1.6257 H   0  0  0  0  0  0  0  0  0  0  0  0
   -1.5029   10.0147    2.1251 H   0  0  0  0  0  0  0  0  0  0  0  0
   -0.0693   10.9133    1.5219 H   0  0  0  0  0  0  0  0  0  0  0  0
   -1.6857   11.6968    1.5219 H   0  0  0  0  0  0  0  0  0  0  0  0
   -0.0386   11.5257   -1.7877 H   0  0  0  0  0  0  0  0  0  0  0  0
    1.5875   10.8618   -0.1285 H   0  0  0  0  0  0  0  0  0  0  0  0
    2.8375   10.5722   -1.3576 H   0  0  0  0  0  0  0  0  0  0  0  0
    2.7093   12.8387    0.3793 H   0  0  0  0  0  0  0  0  0  0  0  0
    3.7170   12.7563   -1.0632 H   0  0  0  0  0  0  0  0  0  0  0  0
    0.9053   13.7956    0.6283 H   0  0  0  0  0  0  0  0  0  0  0  0
    0.0525   14.8188   -0.5768 H   0  0  0  0  0  0  0  0  0  0  0  0
   -0.1911   13.0392   -0.5768 H   0  0  0  0  0  0  0  0  0  0  0  0
    3.2607   14.7656   -2.3358 H   0  0  0  0  0  0  0  0  0  0  0  0
    3.1955   15.2062    0.2012 H   0  0  0  0  0  0  0  0  0  0  0  0
    3.6771   16.5303   -0.9840 H   0  0  0  0  0  0  0  0  0  0  0  0
    2.0969   17.2567    0.9956 H   0  0  0  0  0  0  0  0  0  0  0  0
   -0.4524   16.0042   -1.8731 H   0  0  0  0  0  0  0  0  0  0  0  0
    0.6556   18.6721   -2.9461 H   0  0  0  0  0  0  0  0  0  0  0  0
   -0.5432   17.5777   -3.7679 H   0  0  0  0  0  0  0  0  0  0  0  0
   -1.6285   19.5423   -2.7278 H   0  0  0  0  0  0  0  0  0  0  0  0
   -2.1615   17.9746   -2.0033 H   0  0  0  0  0  0  0  0  0  0  0  0
   -1.8139   19.5619   -0.2373 H   0  0  0  0  0  0  0  0  0  0  0  0
    0.9500   19.7610   -0.8730 H   0  0  0  0  0  0  0  0  0  0  0  0
   -1.5803   17.0409    1.6860 H   0  0  0  0  0  0  0  0  0  0  0  0
   -2.4664   17.4761    0.1853 H   0  0  0  0  0  0  0  0  0  0  0  0
   -1.3281   16.0865    0.1853 H   0  0  0  0  0  0  0  0  0  0  0  0
   -0.2722   18.1534    2.3580 H   0  0  0  0  0  0  0  0  0  0  0  0
    1.2471   18.6343    1.5289 H   0  0  0  0  0  0  0  0  0  0  0  0
   -0.1659   19.7434    1.5289 H   0  0  0  0  0  0  0  0  0  0  0  0
    3.0095   17.4862   -2.7412 H   0  0  0  0  0  0  0  0  0  0  0  0
    3.1374   16.3370   -4.1159 H   0  0  0  0  0  0  0  0  0  0  0  0
    1.8588   17.5987   -4.1159 H   0  0  0  0  0  0  0  0  0  0  0  0
   -0.0720   15.6169   -4.2573 H   0  0  0  0  0  0  0  0  0  0  0  0
    1.5878   14.8779   -4.6212 H   0  0  0  0  0  0  0  0  0  0  0  0
   -0.5784   13.7602   -2.8195 H   0  0  0  0  0  0  0  0  0  0  0  0
    0.0485   13.0928   -4.3777 H   0  0  0  0  0  0  0  0  0  0  0  0
    3.5249   12.5409   -3.1024 H   0  0  0  0  0  0  0  0  0  0  0  0
    2.4233   11.8127   -4.3201 H   0  0  0  0  0  0  0  0  0  0  0  0
    2.7163   13.5849   -4.3201 H   0  0  0  0  0  0  0  0  0  0  0  0
  1  2  1  0
  2  3  1  0
  3  4  1  0
  4  5  1  0
  5  6  1  0
  6  7  1  0
  7  8  1  0
  7  9  1  0
  2 10  1  0
 10 11  1  0
 11 12  1  0
 12 13  1  0
 13 14  1  1
 13 15  1  0
 15 16  1  0
 16 17  1  0
 17 18  2  0
 18 19  1  0
 19 20  1  0
 20 21  1  0
 21 22  1  0
 22 23  1  0
 22 24  1  0
 24 25  1  0
 24 26  1  0
 19 27  1  0
 27 28  1  6
 27 29  1  0
 29 30  1  0
 30 31  1  0
 31 32  1  6
  7  5  1  0
 31 10  1  0
 31 13  1  0
 27 15  1  0
 24 18  1  0
  1 33  1  0
  1 34  1  0
  1 35  1  0
  2 36  1  6
  3 37  1  0
  3 38  1  0
  4 39  1  0
  4 40  1  0
  5 41  1  1
  8 42  1  0
  8 43  1  0
  8 44  1  0
  9 45  1  0
  9 46  1  0
  9 47  1  0
 10 48  1  1
 11 49  1  0
 11 50  1  0
 12 51  1  0
 12 52  1  0
 14 53  1  0
 14 54  1  0
 14 55  1  0
 15 56  1  6
 16 57  1  0
 16 58  1  0
 17 59  1  0
 19 60  1  1
 20 61  1  0
 20 62  1  0
 21 63  1  0
 21 64  1  0
 22 65  1  1
 23 66  1  0
 25 67  1  0
 25 68  1  0
 25 69  1  0
 26 70  1  0
 26 71  1  0
 26 72  1  0
 28 73  1  0
 28 74  1  0
 28 75  1  0
 29 76  1  0
 29 77  1  0
 30 78  1  0
 30 79  1  0
 32 80  1  0
 32 81  1  0
 32 82  1  0
M  END
>  <meeko>  (9) 
{"is_sidechain": [false], "intermolecular_energy": 2.731, "internal_energy": -0.839}

$$$$
EPH_relaxed_0001_pdb2pqr_Repair_161_r2_0001_out
     RDKit          3D

 82 86  0  0  0  0  0  0  0  0999 V2000
    3.1900   18.0840    0.7420 C   0  0  0  0  0  0  0  0  0  0  0  0
    2.8870   17.3970   -0.5920 C   0  0  2  0  0  0  0  0  0  0  0  0
    2.3870   18.3930   -1.6580 C   0  0  0  0  0  0  0  0  0  0  0  0
    2.1560   19.8070   -1.1180 C   0  0  0  0  0  0  0  0  0  0  0  0
    0.7130   20.0480   -0.7930 C   0  0  2  0  0  0  0  0  0  0  0  0
   -0.0200   18.8740   -0.4190 O   0  0  0  0  0  0  0  0  0  0  0  0
   -0.4330   19.5180   -1.6340 C   0  0  0  0  0  0  0  0  0  0  0  0
   -0.1870   18.7080   -2.8680 C   0  0  0  0  0  0  0  0  0  0  0  0
   -1.7650   20.1940   -1.5350 C   0  0  0  0  0  0  0  0  0  0  0  0
    1.8560   16.2940   -0.3870 C   0  0  1  0  0  0  0  0  0  0  0  0
    0.4200   16.8470   -0.1880 C   0  0  0  0  0  0  0  0  0  0  0  0
   -0.5470   15.8340   -0.8530 C   0  0  0  0  0  0  0  0  0  0  0  0
    0.3220   14.5820   -1.1170 C   0  0  1  0  0  0  0  0  0  0  0  0
    0.3690   13.8310    0.2510 C   0  0  0  0  0  0  0  0  0  0  0  0
   -0.1510   13.6440   -2.2740 C   0  0  2  0  0  0  0  0  0  0  0  0
   -1.5320   12.9980   -2.0670 C   0  0  0  0  0  0  0  0  0  0  0  0
   -1.5200   11.6740   -1.3770 C   0  0  0  0  0  0  0  0  0  0  0  0
   -0.4360   10.8970   -1.1950 C   0  0  0  0  0  0  0  0  0  0  0  0
    0.9220   11.2860   -1.7930 C   0  0  1  0  0  0  0  0  0  0  0  0
    1.5560   10.0510   -2.4840 C   0  0  0  0  0  0  0  0  0  0  0  0
    1.6530    8.8450   -1.5540 C   0  0  0  0  0  0  0  0  0  0  0  0
    0.2760    8.4530   -1.0250 C   0  0  2  0  0  0  0  0  0  0  0  0
   -0.5170    7.9720   -2.1160 O   0  0  0  0  0  0  0  0  0  0  0  0
   -0.4650    9.6220   -0.3170 C   0  0  0  0  0  0  0  0  0  0  0  0
    0.2340    9.9410    1.0280 C   0  0  0  0  0  0  0  0  0  0  0  0
   -1.8940    9.1330    0.0420 C   0  0  0  0  0  0  0  0  0  0  0  0
    0.9250   12.5750   -2.7240 C   0  0  1  0  0  0  0  0  0  0  0  0
    0.5710   12.1740   -4.1880 C   0  0  0  0  0  0  0  0  0  0  0  0
    2.3810   13.1730   -2.7670 C   0  0  0  0  0  0  0  0  0  0  0  0
    2.7490   14.1850   -1.6650 C   0  0  0  0  0  0  0  0  0  0  0  0
    1.6740   15.2680   -1.5340 C   0  0  2  0  0  0  0  0  0  0  0  0
    1.6190   16.0550   -2.8870 C   0  0  0  0  0  0  0  0  0  0  0  0
    2.8979   17.4216    1.5702 H   0  0  0  0  0  0  0  0  0  0  0  0
    4.2667   18.2996    0.8072 H   0  0  0  0  0  0  0  0  0  0  0  0
    2.6232   19.0244    0.8072 H   0  0  0  0  0  0  0  0  0  0  0  0
    3.8279   16.9626   -0.9608 H   0  0  0  0  0  0  0  0  0  0  0  0
    3.1358   18.4462   -2.4621 H   0  0  0  0  0  0  0  0  0  0  0  0
    1.4147   18.0218   -2.0143 H   0  0  0  0  0  0  0  0  0  0  0  0
    2.7543   19.9419   -0.2049 H   0  0  0  0  0  0  0  0  0  0  0  0
    2.4564   20.5242   -1.8960 H   0  0  0  0  0  0  0  0  0  0  0  0
    0.9426   21.0523   -0.4074 H   0  0  0  0  0  0  0  0  0  0  0  0
    0.1218   17.6912   -2.5837 H   0  0  0  0  0  0  0  0  0  0  0  0
   -1.1104   18.6577   -3.4637 H   0  0  0  0  0  0  0  0  0  0  0  0
    0.6084   19.1797   -3.4637 H   0  0  0  0  0  0  0  0  0  0  0  0
   -2.0301   20.3285   -0.4759 H   0  0  0  0  0  0  0  0  0  0  0  0
   -1.7154   21.1760   -2.0282 H   0  0  0  0  0  0  0  0  0  0  0  0
   -2.5283   19.5742   -2.0282 H   0  0  0  0  0  0  0  0  0  0  0  0
    2.2889   15.7997    0.4952 H   0  0  0  0  0  0  0  0  0  0  0  0
    0.1944   16.9374    0.8848 H   0  0  0  0  0  0  0  0  0  0  0  0
    0.3159   17.8453   -0.6380 H   0  0  0  0  0  0  0  0  0  0  0  0
   -1.3812   15.5926   -0.1778 H   0  0  0  0  0  0  0  0  0  0  0  0
   -0.9984   16.2308   -1.7743 H   0  0  0  0  0  0  0  0  0  0  0  0
    0.3233   14.5616    1.0721 H   0  0  0  0  0  0  0  0  0  0  0  0
   -0.4880   13.1451    0.3224 H   0  0  0  0  0  0  0  0  0  0  0  0
    1.3048   13.2573    0.3224 H   0  0  0  0  0  0  0  0  0  0  0  0
   -0.2719   14.3467   -3.1116 H   0  0  0  0  0  0  0  0  0  0  0  0
   -2.1436   13.6882   -1.4674 H   0  0  0  0  0  0  0  0  0  0  0  0
   -1.9352   12.8128   -3.0736 H   0  0  0  0  0  0  0  0  0  0  0  0
   -2.4778   11.3021   -0.9842 H   0  0  0  0  0  0  0  0  0  0  0  0
    1.5487   11.6021   -0.9461 H   0  0  0  0  0  0  0  0  0  0  0  0
    0.9389    9.7776   -3.3526 H   0  0  0  0  0  0  0  0  0  0  0  0
    2.5785   10.3245   -2.7834 H   0  0  0  0  0  0  0  0  0  0  0  0
    2.0809    7.9965   -2.1080 H   0  0  0  0  0  0  0  0  0  0  0  0
    2.2949    9.1098   -0.7009 H   0  0  0  0  0  0  0  0  0  0  0  0
    0.4251    7.6709   -0.2659 H   0  0  0  0  0  0  0  0  0  0  0  0
   -0.3190    8.5260   -2.8900 H   0  0  0  0  0  0  0  0  0  0  0  0
   -0.4198    9.6426    1.8608 H   0  0  0  0  0  0  0  0  0  0  0  0
    1.1820    9.3864    1.0892 H   0  0  0  0  0  0  0  0  0  0  0  0
    0.4362   11.0205    1.0892 H   0  0  0  0  0  0  0  0  0  0  0  0
   -2.0046    9.0952    1.1358 H   0  0  0  0  0  0  0  0  0  0  0  0
   -2.6358    9.8284   -0.3777 H   0  0  0  0  0  0  0  0  0  0  0  0
   -2.0542    8.1289   -0.3777 H   0  0  0  0  0  0  0  0  0  0  0  0
   -0.1569   11.3494   -4.1765 H   0  0  0  0  0  0  0  0  0  0  0  0
    0.1367   13.0392   -4.7104 H   0  0  0  0  0  0  0  0  0  0  0  0
    1.4834   11.8504   -4.7104 H   0  0  0  0  0  0  0  0  0  0  0  0
    3.0879   12.3331   -2.6971 H   0  0  0  0  0  0  0  0  0  0  0  0
    2.4314   13.7408   -3.7078 H   0  0  0  0  0  0  0  0  0  0  0  0
    2.8438   13.6543   -0.7062 H   0  0  0  0  0  0  0  0  0  0  0  0
    3.7007   14.6663   -1.9345 H   0  0  0  0  0  0  0  0  0  0  0  0
    1.5437   17.1330   -2.6814 H   0  0  0  0  0  0  0  0  0  0  0  0
    2.5333   15.8550   -3.4650 H   0  0  0  0  0  0  0  0  0  0  0  0
    0.7414   15.7298   -3.4650 H   0  0  0  0  0  0  0  0  0  0  0  0
  1  2  1  0
  2  3  1  0
  3  4  1  0
  4  5  1  0
  5  6  1  0
  6  7  1  0
  7  8  1  0
  7  9  1  0
  2 10  1  0
 10 11  1  0
 11 12  1  0
 12 13  1  0
 13 14  1  1
 13 15  1  0
 15 16  1  0
 16 17  1  0
 17 18  2  0
 18 19  1  0
 19 20  1  0
 20 21  1  0
 21 22  1  0
 22 23  1  0
 22 24  1  0
 24 25  1  0
 24 26  1  0
 19 27  1  0
 27 28  1  6
 27 29  1  0
 29 30  1  0
 30 31  1  0
 31 32  1  6
  7  5  1  0
 31 10  1  0
 31 13  1  0
 27 15  1  0
 24 18  1  0
  1 33  1  0
  1 34  1  0
  1 35  1  0
  2 36  1  6
  3 37  1  0
  3 38  1  0
  4 39  1  0
  4 40  1  0
  5 41  1  1
  8 42  1  0
  8 43  1  0
  8 44  1  0
  9 45  1  0
  9 46  1  0
  9 47  1  0
 10 48  1  1
 11 49  1  0
 11 50  1  0
 12 51  1  0
 12 52  1  0
 14 53  1  0
 14 54  1  0
 14 55  1  0
 15 56  1  6
 16 57  1  0
 16 58  1  0
 17 59  1  0
 19 60  1  1
 20 61  1  0
 20 62  1  0
 21 63  1  0
 21 64  1  0
 22 65  1  1
 23 66  1  0
 25 67  1  0
 25 68  1  0
 25 69  1  0
 26 70  1  0
 26 71  1  0
 26 72  1  0
 28 73  1  0
 28 74  1  0
 28 75  1  0
 29 76  1  0
 29 77  1  0
 30 78  1  0
 30 79  1  0
 32 80  1  0
 32 81  1  0
 32 82  1  0
M  END
>  <meeko>  (10) 
{"is_sidechain": [false], "intermolecular_energy": 2.731, "internal_energy": -0.839}

$$$$
EPH_relaxed_0001_pdb2pqr_Repair_161_r2_0001_out
     RDKit          3D

 82 86  0  0  0  0  0  0  0  0999 V2000
   -0.8610   16.3740   -5.8450 C   0  0  0  0  0  0  0  0  0  0  0  0
    0.2280   15.6700   -6.6590 C   0  0  2  0  0  0  0  0  0  0  0  0
   -0.1800   15.4820   -8.1340 C   0  0  0  0  0  0  0  0  0  0  0  0
    0.4590   16.5000   -9.0830 C   0  0  0  0  0  0  0  0  0  0  0  0
    1.8610   16.1160   -9.4460 C   0  0  2  0  0  0  0  0  0  0  0  0
    2.3380   16.6800  -10.6750 O   0  0  0  0  0  0  0  0  0  0  0  0
    2.2080   15.2490  -10.6420 C   0  0  0  0  0  0  0  0  0  0  0  0
    1.1470   14.7130  -11.5520 C   0  0  0  0  0  0  0  0  0  0  0  0
    3.5180   14.5250  -10.6460 C   0  0  0  0  0  0  0  0  0  0  0  0
    0.5530   14.3190   -6.0330 C   0  0  1  0  0  0  0  0  0  0  0  0
    1.8050   13.6540   -6.6640 C   0  0  0  0  0  0  0  0  0  0  0  0
    2.5290   12.8920   -5.5240 C   0  0  0  0  0  0  0  0  0  0  0  0
    1.5080   12.8650   -4.3630 C   0  0  1  0  0  0  0  0  0  0  0  0
    0.5420   11.6880   -4.7060 C   0  0  0  0  0  0  0  0  0  0  0  0
    2.1020   12.7230   -2.9230 C   0  0  2  0  0  0  0  0  0  0  0  0
    2.8710   11.4170   -2.6600 C   0  0  0  0  0  0  0  0  0  0  0  0
    2.0500   10.2890   -2.1290 C   0  0  0  0  0  0  0  0  0  0  0  0
    0.8150   10.3990   -1.6050 C   0  0  0  0  0  0  0  0  0  0  0  0
    0.1590   11.7730   -1.4190 C   0  0  1  0  0  0  0  0  0  0  0  0
   -0.4650   11.8610   -0.0010 C   0  0  0  0  0  0  0  0  0  0  0  0
   -1.4250   10.7110    0.2880 C   0  0  0  0  0  0  0  0  0  0  0  0
   -0.7210    9.3640    0.1490 C   0  0  2  0  0  0  0  0  0  0  0  0
    0.2610    9.2480    1.1830 O   0  0  0  0  0  0  0  0  0  0  0  0
   -0.0460    9.1660   -1.2370 C   0  0  0  0  0  0  0  0  0  0  0  0
   -1.1330    8.9900   -2.3260 C   0  0  0  0  0  0  0  0  0  0  0  0
    0.7470    7.8310   -1.1960 C   0  0  0  0  0  0  0  0  0  0  0  0
    1.0690   13.0290   -1.7630 C   0  0  1  0  0  0  0  0  0  0  0  0
    1.9100   13.4360   -0.5150 C   0  0  0  0  0  0  0  0  0  0  0  0
    0.1440   14.2590   -2.0950 C   0  0  0  0  0  0  0  0  0  0  0  0
   -0.3120   14.4110   -3.5590 C   0  0  0  0  0  0  0  0  0  0  0  0
    0.8770   14.2960   -4.5180 C   0  0  2  0  0  0  0  0  0  0  0  0
    1.8550   15.4810   -4.2110 C   0  0  0  0  0  0  0  0  0  0  0  0
   -0.6588   16.2433   -4.7717 H   0  0  0  0  0  0  0  0  0  0  0  0
   -0.8657   17.4465   -6.0892 H   0  0  0  0  0  0  0  0  0  0  0  0
   -1.8409   15.9380   -6.0892 H   0  0  0  0  0  0  0  0  0  0  0  0
    1.1209   16.3123   -6.6424 H   0  0  0  0  0  0  0  0  0  0  0  0
    0.1219   14.4732   -8.4521 H   0  0  0  0  0  0  0  0  0  0  0  0
   -1.2686   15.6304   -8.1883 H   0  0  0  0  0  0  0  0  0  0  0  0
   -0.1437   16.5583  -10.0014 H   0  0  0  0  0  0  0  0  0  0  0  0
    0.4919   17.4727   -8.5704 H   0  0  0  0  0  0  0  0  0  0  0  0
    2.1442   16.0568   -8.3847 H   0  0  0  0  0  0  0  0  0  0  0  0
    0.3244   14.2975  -10.9514 H   0  0  0  0  0  0  0  0  0  0  0  0
    0.7635   15.5255  -12.1866 H   0  0  0  0  0  0  0  0  0  0  0  0
    1.5735   13.9222  -12.1866 H   0  0  0  0  0  0  0  0  0  0  0  0
    3.8413   14.3463   -9.6099 H   0  0  0  0  0  0  0  0  0  0  0  0
    3.4033   13.5622  -11.1655 H   0  0  0  0  0  0  0  0  0  0  0  0
    4.2721   15.1344  -11.1655 H   0  0  0  0  0  0  0  0  0  0  0  0
   -0.3956   13.7954   -6.2225 H   0  0  0  0  0  0  0  0  0  0  0  0
    1.5030   12.9530   -7.4561 H   0  0  0  0  0  0  0  0  0  0  0  0
    2.4660   14.4072   -7.1177 H   0  0  0  0  0  0  0  0  0  0  0  0
    2.7838   11.8699   -5.8408 H   0  0  0  0  0  0  0  0  0  0  0  0
    3.4754   13.3731   -5.2361 H   0  0  0  0  0  0  0  0  0  0  0  0
    0.1705   11.2353   -3.7748 H   0  0  0  0  0  0  0  0  0  0  0  0
   -0.3069   12.0694   -5.2924 H   0  0  0  0  0  0  0  0  0  0  0  0
    1.0816   10.9298   -5.2924 H   0  0  0  0  0  0  0  0  0  0  0  0
    2.8562   13.5234   -2.8990 H   0  0  0  0  0  0  0  0  0  0  0  0
    3.3224   11.0915   -3.6088 H   0  0  0  0  0  0  0  0  0  0  0  0
    3.6087   11.6506   -1.8782 H   0  0  0  0  0  0  0  0  0  0  0  0
    2.4918    9.2824   -2.1694 H   0  0  0  0  0  0  0  0  0  0  0  0
   -0.6321   11.8371   -2.1806 H   0  0  0  0  0  0  0  0  0  0  0  0
    0.3452   11.8394    0.7427 H   0  0  0  0  0  0  0  0  0  0  0  0
   -1.0396   12.7974    0.0534 H   0  0  0  0  0  0  0  0  0  0  0  0
   -1.8093   10.8121    1.3137 H   0  0  0  0  0  0  0  0  0  0  0  0
   -2.2504   10.7521   -0.4380 H   0  0  0  0  0  0  0  0  0  0  0  0
   -1.4876    8.5803    0.2396 H   0  0  0  0  0  0  0  0  0  0  0  0
   -0.1450    9.5580    2.0100 H   0  0  0  0  0  0  0  0  0  0  0  0
   -2.1102    8.8318   -1.8464 H   0  0  0  0  0  0  0  0  0  0  0  0
   -1.1740    9.8932   -2.9525 H   0  0  0  0  0  0  0  0  0  0  0  0
   -0.8869    8.1200   -2.9525 H   0  0  0  0  0  0  0  0  0  0  0  0
    0.9202    7.5394   -0.1496 H   0  0  0  0  0  0  0  0  0  0  0  0
    0.1690    7.0454   -1.7047 H   0  0  0  0  0  0  0  0  0  0  0  0
    1.7134    7.9628   -1.7047 H   0  0  0  0  0  0  0  0  0  0  0  0
    1.3605   13.1701    0.4001 H   0  0  0  0  0  0  0  0  0  0  0  0
    2.8727   12.9041   -0.5322 H   0  0  0  0  0  0  0  0  0  0  0  0
    2.0902   14.5210   -0.5322 H   0  0  0  0  0  0  0  0  0  0  0  0
   -0.7589   14.1738   -1.4725 H   0  0  0  0  0  0  0  0  0  0  0  0
    0.7618   15.1463   -1.8927 H   0  0  0  0  0  0  0  0  0  0  0  0
   -1.0407   13.6209   -3.7929 H   0  0  0  0  0  0  0  0  0  0  0  0
   -0.7681   15.4042   -3.6831 H   0  0  0  0  0  0  0  0  0  0  0  0
    1.9545   15.6016   -3.1222 H   0  0  0  0  0  0  0  0  0  0  0  0
    2.8412   15.2650   -4.6477 H   0  0  0  0  0  0  0  0  0  0  0  0
    1.4558   16.4084   -4.6477 H   0  0  0  0  0  0  0  0  0  0  0  0
  1  2  1  0
  2  3  1  0
  3  4  1  0
  4  5  1  0
  5  6  1  0
  6  7  1  0
  7  8  1  0
  7  9  1  0
  2 10  1  0
 10 11  1  0
 11 12  1  0
 12 13  1  0
 13 14  1  6
 13 15  1  0
 15 16  1  0
 16 17  1  0
 17 18  2  0
 18 19  1  0
 19 20  1  0
 20 21  1  0
 21 22  1  0
 22 23  1  0
 22 24  1  0
 24 25  1  0
 24 26  1  0
 19 27  1  0
 27 28  1  1
 27 29  1  0
 29 30  1  0
 30 31  1  0
 31 32  1  6
  7  5  1  0
 31 10  1  0
 31 13  1  0
 27 15  1  0
 24 18  1  0
  1 33  1  0
  1 34  1  0
  1 35  1  0
  2 36  1  6
  3 37  1  0
  3 38  1  0
  4 39  1  0
  4 40  1  0
  5 41  1  1
  8 42  1  0
  8 43  1  0
  8 44  1  0
  9 45  1  0
  9 46  1  0
  9 47  1  0
 10 48  1  1
 11 49  1  0
 11 50  1  0
 12 51  1  0
 12 52  1  0
 14 53  1  0
 14 54  1  0
 14 55  1  0
 15 56  1  6
 16 57  1  0
 16 58  1  0
 17 59  1  0
 19 60  1  6
 20 61  1  0
 20 62  1  0
 21 63  1  0
 21 64  1  0
 22 65  1  1
 23 66  1  0
 25 67  1  0
 25 68  1  0
 25 69  1  0
 26 70  1  0
 26 71  1  0
 26 72  1  0
 28 73  1  0
 28 74  1  0
 28 75  1  0
 29 76  1  0
 29 77  1  0
 30 78  1  0
 30 79  1  0
 32 80  1  0
 32 81  1  0
 32 82  1  0
M  END
>  <meeko>  (11) 
{"is_sidechain": [false], "intermolecular_energy": 2.731, "internal_energy": -0.839}

$$$$
EPH_relaxed_0001_pdb2pqr_Repair_161_r2_0001_out
     RDKit          3D

 82 86  0  0  0  0  0  0  0  0999 V2000
    3.1290   18.9510   -1.2410 C   0  0  0  0  0  0  0  0  0  0  0  0
    2.6450   17.9060   -2.2510 C   0  0  2  0  0  0  0  0  0  0  0  0
    1.1920   18.1610   -2.6990 C   0  0  0  0  0  0  0  0  0  0  0  0
    0.5500   19.3840   -2.0390 C   0  0  0  0  0  0  0  0  0  0  0  0
   -0.7880   19.0560   -1.4470 C   0  0  2  0  0  0  0  0  0  0  0  0
   -1.5430   20.1920   -1.0060 O   0  0  0  0  0  0  0  0  0  0  0  0
   -1.1310   19.2700    0.0150 C   0  0  0  0  0  0  0  0  0  0  0  0
   -0.1320   19.8330    0.9770 C   0  0  0  0  0  0  0  0  0  0  0  0
   -2.2590   18.4840    0.6080 C   0  0  0  0  0  0  0  0  0  0  0  0
    2.7680   16.5100   -1.6520 C   0  0  1  0  0  0  0  0  0  0  0  0
    3.3930   16.5210   -0.2320 C   0  0  0  0  0  0  0  0  0  0  0  0
    2.7040   15.3880    0.5700 C   0  0  0  0  0  0  0  0  0  0  0  0
    1.9550   14.5550   -0.4970 C   0  0  1  0  0  0  0  0  0  0  0  0
    3.0440   13.6250   -1.1170 C   0  0  0  0  0  0  0  0  0  0  0  0
    0.7180   13.7410    0.0050 C   0  0  2  0  0  0  0  0  0  0  0  0
    1.0320   12.6550    1.0490 C   0  0  0  0  0  0  0  0  0  0  0  0
    1.3420   11.3050    0.4920 C   0  0  0  0  0  0  0  0  0  0  0  0
    1.0920   10.9030   -0.7680 C   0  0  0  0  0  0  0  0  0  0  0  0
    0.3470   11.8130   -1.7530 C   0  0  1  0  0  0  0  0  0  0  0  0
   -0.7530   10.9980   -2.4820 C   0  0  0  0  0  0  0  0  0  0  0  0
   -0.2030    9.7420   -3.1510 C   0  0  0  0  0  0  0  0  0  0  0  0
    0.4790    8.8340   -2.1300 C   0  0  2  0  0  0  0  0  0  0  0  0
   -0.5120    8.3290   -1.2290 O   0  0  0  0  0  0  0  0  0  0  0  0
    1.6000    9.5500   -1.3260 C   0  0  0  0  0  0  0  0  0  0  0  0
    2.8080    9.8300   -2.2530 C   0  0  0  0  0  0  0  0  0  0  0  0
    2.1070    8.5680   -0.2360 C   0  0  0  0  0  0  0  0  0  0  0  0
   -0.2020   13.1800   -1.1540 C   0  0  1  0  0  0  0  0  0  0  0  0
   -1.6150   12.9590   -0.5330 C   0  0  0  0  0  0  0  0  0  0  0  0
   -0.3880   14.2160   -2.3250 C   0  0  0  0  0  0  0  0  0  0  0  0
    0.8360   15.0750   -2.6940 C   0  0  0  0  0  0  0  0  0  0  0  0
    1.4590   15.7070   -1.4460 C   0  0  2  0  0  0  0  0  0  0  0  0
    0.3940   16.6650   -0.8120 C   0  0  0  0  0  0  0  0  0  0  0  0
    2.9575   18.5806   -0.2195 H   0  0  0  0  0  0  0  0  0  0  0  0
    4.2035   19.1339   -1.3891 H   0  0  0  0  0  0  0  0  0  0  0  0
    2.5736   19.8889   -1.3891 H   0  0  0  0  0  0  0  0  0  0  0  0
    3.2839   17.9860   -3.1428 H   0  0  0  0  0  0  0  0  0  0  0  0
    1.1859   18.3112   -3.7887 H   0  0  0  0  0  0  0  0  0  0  0  0
    0.6027   17.2841   -2.3928 H   0  0  0  0  0  0  0  0  0  0  0  0
    1.2136   19.7478   -1.2407 H   0  0  0  0  0  0  0  0  0  0  0  0
    0.4040   20.1535   -2.8113 H   0  0  0  0  0  0  0  0  0  0  0  0
   -0.8935   18.1846   -2.1100 H   0  0  0  0  0  0  0  0  0  0  0  0
   -0.4680   19.6437    2.0072 H   0  0  0  0  0  0  0  0  0  0  0  0
    0.8440   19.3521    0.8154 H   0  0  0  0  0  0  0  0  0  0  0  0
   -0.0379   20.9170    0.8154 H   0  0  0  0  0  0  0  0  0  0  0  0
   -2.1982   18.5263    1.7055 H   0  0  0  0  0  0  0  0  0  0  0  0
   -3.2172   18.9110    0.2771 H   0  0  0  0  0  0  0  0  0  0  0  0
   -2.1903   17.4372    0.2771 H   0  0  0  0  0  0  0  0  0  0  0  0
    3.3857   16.0316   -2.4263 H   0  0  0  0  0  0  0  0  0  0  0  0
    4.4757   16.3368   -0.2935 H   0  0  0  0  0  0  0  0  0  0  0  0
    3.2457   17.4956    0.2562 H   0  0  0  0  0  0  0  0  0  0  0  0
    3.4511   14.7708    1.0905 H   0  0  0  0  0  0  0  0  0  0  0  0
    2.0281   15.7773    1.3456 H   0  0  0  0  0  0  0  0  0  0  0  0
    3.6132   13.1389   -0.3110 H   0  0  0  0  0  0  0  0  0  0  0  0
    2.5599   12.8573   -1.7385 H   0  0  0  0  0  0  0  0  0  0  0  0
    3.7265   14.2233   -1.7385 H   0  0  0  0  0  0  0  0  0  0  0  0
    0.1318   14.5054    0.5361 H   0  0  0  0  0  0  0  0  0  0  0  0
    1.9009   12.9884    1.6353 H   0  0  0  0  0  0  0  0  0  0  0  0
    0.1167   12.5344    1.6471 H   0  0  0  0  0  0  0  0  0  0  0  0
    1.8146   10.5775    1.1683 H   0  0  0  0  0  0  0  0  0  0  0  0
    1.0993   12.1556   -2.4787 H   0  0  0  0  0  0  0  0  0  0  0  0
   -1.5168   10.7011   -1.7481 H   0  0  0  0  0  0  0  0  0  0  0  0
   -1.1764   11.6382   -3.2699 H   0  0  0  0  0  0  0  0  0  0  0  0
   -1.0313    9.1938   -3.6237 H   0  0  0  0  0  0  0  0  0  0  0  0
    0.5394   10.0423   -3.9051 H   0  0  0  0  0  0  0  0  0  0  0  0
    0.9642    8.0179   -2.6855 H   0  0  0  0  0  0  0  0  0  0  0  0
   -0.0490    7.8400   -0.5270 H   0  0  0  0  0  0  0  0  0  0  0  0
    3.6990   10.0365   -1.6419 H   0  0  0  0  0  0  0  0  0  0  0  0
    2.9944    8.9513   -2.8879 H   0  0  0  0  0  0  0  0  0  0  0  0
    2.5888   10.7012   -2.8879 H   0  0  0  0  0  0  0  0  0  0  0  0
    1.8927    8.9831    0.7599 H   0  0  0  0  0  0  0  0  0  0  0  0
    1.5958    7.6005   -0.3477 H   0  0  0  0  0  0  0  0  0  0  0  0
    3.1919    8.4245   -0.3477 H   0  0  0  0  0  0  0  0  0  0  0  0
   -1.5392   12.9709    0.5643 H   0  0  0  0  0  0  0  0  0  0  0  0
   -2.2901   13.7625   -0.8626 H   0  0  0  0  0  0  0  0  0  0  0  0
   -2.0126   11.9878   -0.8626 H   0  0  0  0  0  0  0  0  0  0  0  0
   -0.6826   13.6534   -3.2232 H   0  0  0  0  0  0  0  0  0  0  0  0
   -1.1410   14.9301   -1.9603 H   0  0  0  0  0  0  0  0  0  0  0  0
    1.5858   14.4395   -3.1879 H   0  0  0  0  0  0  0  0  0  0  0  0
    0.5088   15.8800   -3.3685 H   0  0  0  0  0  0  0  0  0  0  0  0
    0.4568   16.6085    0.2848 H   0  0  0  0  0  0  0  0  0  0  0  0
    0.5893   17.6973   -1.1378 H   0  0  0  0  0  0  0  0  0  0  0  0
   -0.6120   16.3618   -1.1378 H   0  0  0  0  0  0  0  0  0  0  0  0
  1  2  1  0
  2  3  1  0
  3  4  1  0
  4  5  1  0
  5  6  1  0
  6  7  1  0
  7  8  1  0
  7  9  1  0
  2 10  1  0
 10 11  1  0
 11 12  1  0
 12 13  1  0
 13 14  1  6
 13 15  1  0
 15 16  1  0
 16 17  1  0
 17 18  2  0
 18 19  1  0
 19 20  1  0
 20 21  1  0
 21 22  1  0
 22 23  1  0
 22 24  1  0
 24 25  1  0
 24 26  1  0
 19 27  1  0
 27 28  1  1
 27 29  1  0
 29 30  1  0
 30 31  1  0
 31 32  1  1
  7  5  1  0
 31 10  1  0
 31 13  1  0
 27 15  1  0
 24 18  1  0
  1 33  1  0
  1 34  1  0
  1 35  1  0
  2 36  1  6
  3 37  1  0
  3 38  1  0
  4 39  1  0
  4 40  1  0
  5 41  1  6
  8 42  1  0
  8 43  1  0
  8 44  1  0
  9 45  1  0
  9 46  1  0
  9 47  1  0
 10 48  1  6
 11 49  1  0
 11 50  1  0
 12 51  1  0
 12 52  1  0
 14 53  1  0
 14 54  1  0
 14 55  1  0
 15 56  1  1
 16 57  1  0
 16 58  1  0
 17 59  1  0
 19 60  1  6
 20 61  1  0
 20 62  1  0
 21 63  1  0
 21 64  1  0
 22 65  1  6
 23 66  1  0
 25 67  1  0
 25 68  1  0
 25 69  1  0
 26 70  1  0
 26 71  1  0
 26 72  1  0
 28 73  1  0
 28 74  1  0
 28 75  1  0
 29 76  1  0
 29 77  1  0
 30 78  1  0
 30 79  1  0
 32 80  1  0
 32 81  1  0
 32 82  1  0
M  END
>  <meeko>  (12) 
{"is_sidechain": [false], "intermolecular_energy": 2.731, "internal_energy": -0.839}

$$$$
EPH_relaxed_0001_pdb2pqr_Repair_161_r2_0001_out
     RDKit          3D

 82 86  0  0  0  0  0  0  0  0999 V2000
   -3.7470    7.2050   -3.3910 C   0  0  0  0  0  0  0  0  0  0  0  0
   -3.7830    7.2940   -1.8630 C   0  0  2  0  0  0  0  0  0  0  0  0
   -5.2040    7.0860   -1.3020 C   0  0  0  0  0  0  0  0  0  0  0  0
   -6.3130    7.3500   -2.3240 C   0  0  0  0  0  0  0  0  0  0  0  0
   -7.6460    7.5270   -1.6620 C   0  0  2  0  0  0  0  0  0  0  0  0
   -8.2000    6.3300   -1.1000 O   0  0  0  0  0  0  0  0  0  0  0  0
   -8.9300    6.9160   -2.1900 C   0  0  0  0  0  0  0  0  0  0  0  0
   -8.9440    6.0810   -3.4320 C   0  0  0  0  0  0  0  0  0  0  0  0
  -10.2350    7.5270   -1.7810 C   0  0  0  0  0  0  0  0  0  0  0  0
   -3.2350    8.6410   -1.4070 C   0  0  1  0  0  0  0  0  0  0  0  0
   -3.8360    9.1030   -0.0530 C   0  0  0  0  0  0  0  0  0  0  0  0
   -2.7110    9.8600    0.7010 C   0  0  0  0  0  0  0  0  0  0  0  0
   -1.6180   10.0970   -0.3670 C   0  0  1  0  0  0  0  0  0  0  0  0
   -2.0990   11.3490   -1.1640 C   0  0  0  0  0  0  0  0  0  0  0  0
   -0.1590   10.2770    0.1660 C   0  0  2  0  0  0  0  0  0  0  0  0
    0.0560   11.5000    1.0750 C   0  0  0  0  0  0  0  0  0  0  0  0
    0.4570   12.7550    0.3730 C   0  0  0  0  0  0  0  0  0  0  0  0
    0.9130   12.8310   -0.8910 C   0  0  0  0  0  0  0  0  0  0  0  0
    1.1570   11.5630   -1.7190 C   0  0  1  0  0  0  0  0  0  0  0  0
    2.5380   11.6590   -2.4190 C   0  0  0  0  0  0  0  0  0  0  0  0
    2.6880   12.9330   -3.2460 C   0  0  0  0  0  0  0  0  0  0  0  0
    2.4960   14.1730   -2.3760 C   0  0  2  0  0  0  0  0  0  0  0  0
    3.5760   14.2510   -1.4410 O   0  0  0  0  0  0  0  0  0  0  0  0
    1.1420   14.1820   -1.6130 C   0  0  0  0  0  0  0  0  0  0  0  0
   -0.0180   14.4010   -2.6150 C   0  0  0  0  0  0  0  0  0  0  0  0
    1.1370   15.4130   -0.6660 C   0  0  0  0  0  0  0  0  0  0  0  0
    0.9560   10.1850   -0.9520 C   0  0  1  0  0  0  0  0  0  0  0  0
    2.2780    9.7800   -0.2310 C   0  0  0  0  0  0  0  0  0  0  0  0
    0.6580    9.0510   -2.0030 C   0  0  0  0  0  0  0  0  0  0  0  0
   -0.8160    8.8420   -2.4000 C   0  0  0  0  0  0  0  0  0  0  0  0
   -1.7090    8.7420   -1.1590 C   0  0  2  0  0  0  0  0  0  0  0  0
   -1.2620    7.4770   -0.3490 C   0  0  0  0  0  0  0  0  0  0  0  0
   -3.3503    6.2242   -3.6919 H   0  0  0  0  0  0  0  0  0  0  0  0
   -4.7650    7.3267   -3.7895 H   0  0  0  0  0  0  0  0  0  0  0  0
   -3.0998    8.0002   -3.7895 H   0  0  0  0  0  0  0  0  0  0  0  0
   -3.1513    6.4837   -1.4701 H   0  0  0  0  0  0  0  0  0  0  0  0
   -5.2917    6.0459   -0.9550 H   0  0  0  0  0  0  0  0  0  0  0  0
   -5.3378    7.8126   -0.4870 H   0  0  0  0  0  0  0  0  0  0  0  0
   -6.0698    8.2639   -2.8859 H   0  0  0  0  0  0  0  0  0  0  0  0
   -6.3758    6.4801   -2.9944 H   0  0  0  0  0  0  0  0  0  0  0  0
   -7.3861    8.5526   -1.3611 H   0  0  0  0  0  0  0  0  0  0  0  0
   -8.9619    5.0159   -3.1576 H   0  0  0  0  0  0  0  0  0  0  0  0
   -9.8382    6.3217   -4.0256 H   0  0  0  0  0  0  0  0  0  0  0  0
   -8.0422    6.2916   -4.0256 H   0  0  0  0  0  0  0  0  0  0  0  0
  -10.2980    7.5565   -0.6832 H   0  0  0  0  0  0  0  0  0  0  0  0
  -10.3018    8.5500   -2.1797 H   0  0  0  0  0  0  0  0  0  0  0  0
  -11.0635    6.9232   -2.1797 H   0  0  0  0  0  0  0  0  0  0  0  0
   -3.5164    9.2568   -2.2740 H   0  0  0  0  0  0  0  0  0  0  0  0
   -4.6918    9.7718   -0.2270 H   0  0  0  0  0  0  0  0  0  0  0  0
   -4.1957    8.2444    0.5330 H   0  0  0  0  0  0  0  0  0  0  0  0
   -3.0833   10.8172    1.0949 H   0  0  0  0  0  0  0  0  0  0  0  0
   -2.3341    9.2942    1.5658 H   0  0  0  0  0  0  0  0  0  0  0  0
   -2.4020   12.1378   -0.4598 H   0  0  0  0  0  0  0  0  0  0  0  0
   -1.2786   11.7181   -1.7971 H   0  0  0  0  0  0  0  0  0  0  0  0
   -2.9554   11.0739   -1.7971 H   0  0  0  0  0  0  0  0  0  0  0  0
   -0.0338    9.3966    0.8135 H   0  0  0  0  0  0  0  0  0  0  0  0
   -0.8853   11.6957    1.6095 H   0  0  0  0  0  0  0  0  0  0  0  0
    0.8946   11.2418    1.7384 H   0  0  0  0  0  0  0  0  0  0  0  0
    0.3727   13.6963    0.9359 H   0  0  0  0  0  0  0  0  0  0  0  0
    0.3574   11.5342   -2.4739 H   0  0  0  0  0  0  0  0  0  0  0  0
    3.3247   11.6429   -1.6504 H   0  0  0  0  0  0  0  0  0  0  0  0
    2.6246   10.8036   -3.1051 H   0  0  0  0  0  0  0  0  0  0  0  0
    3.6938   12.9573   -3.6908 H   0  0  0  0  0  0  0  0  0  0  0  0
    1.9197   12.9335   -4.0332 H   0  0  0  0  0  0  0  0  0  0  0  0
    2.4850   15.0469   -3.0440 H   0  0  0  0  0  0  0  0  0  0  0  0
    3.9210   13.3510   -1.3130 H   0  0  0  0  0  0  0  0  0  0  0  0
   -0.9522   14.5774   -2.0616 H   0  0  0  0  0  0  0  0  0  0  0  0
    0.2037   15.2732   -3.2476 H   0  0  0  0  0  0  0  0  0  0  0  0
   -0.1296   13.5081   -3.2476 H   0  0  0  0  0  0  0  0  0  0  0  0
    1.1384   15.0713    0.3796 H   0  0  0  0  0  0  0  0  0  0  0  0
    2.0327   16.0234   -0.8534 H   0  0  0  0  0  0  0  0  0  0  0  0
    0.2364   16.0161   -0.8534 H   0  0  0  0  0  0  0  0  0  0  0  0
    2.1304    9.8252    0.8581 H   0  0  0  0  0  0  0  0  0  0  0  0
    2.5550    8.7558   -0.5212 H   0  0  0  0  0  0  0  0  0  0  0  0
    3.0812   10.4733   -0.5212 H   0  0  0  0  0  0  0  0  0  0  0  0
    1.2186    9.2902   -2.9187 H   0  0  0  0  0  0  0  0  0  0  0  0
    0.9588    8.1150   -1.5097 H   0  0  0  0  0  0  0  0  0  0  0  0
   -1.1473    9.6923   -3.0142 H   0  0  0  0  0  0  0  0  0  0  0  0
   -0.8969    7.9029   -2.9671 H   0  0  0  0  0  0  0  0  0  0  0  0
   -1.3360    7.6864    0.7283 H   0  0  0  0  0  0  0  0  0  0  0  0
   -1.9150    6.6291   -0.6034 H   0  0  0  0  0  0  0  0  0  0  0  0
   -0.2213    7.2276   -0.6034 H   0  0  0  0  0  0  0  0  0  0  0  0
  1  2  1  0
  2  3  1  0
  3  4  1  0
  4  5  1  0
  5  6  1  0
  6  7  1  0
  7  8  1  0
  7  9  1  0
  2 10  1  0
 10 11  1  0
 11 12  1  0
 12 13  1  0
 13 14  1  6
 13 15  1  0
 15 16  1  0
 16 17  1  0
 17 18  2  0
 18 19  1  0
 19 20  1  0
 20 21  1  0
 21 22  1  0
 22 23  1  0
 22 24  1  0
 24 25  1  0
 24 26  1  0
 19 27  1  0
 27 28  1  1
 27 29  1  0
 29 30  1  0
 30 31  1  0
 31 32  1  1
  7  5  1  0
 31 10  1  0
 31 13  1  0
 27 15  1  0
 24 18  1  0
  1 33  1  0
  1 34  1  0
  1 35  1  0
  2 36  1  1
  3 37  1  0
  3 38  1  0
  4 39  1  0
  4 40  1  0
  5 41  1  1
  8 42  1  0
  8 43  1  0
  8 44  1  0
  9 45  1  0
  9 46  1  0
  9 47  1  0
 10 48  1  6
 11 49  1  0
 11 50  1  0
 12 51  1  0
 12 52  1  0
 14 53  1  0
 14 54  1  0
 14 55  1  0
 15 56  1  1
 16 57  1  0
 16 58  1  0
 17 59  1  0
 19 60  1  6
 20 61  1  0
 20 62  1  0
 21 63  1  0
 21 64  1  0
 22 65  1  6
 23 66  1  0
 25 67  1  0
 25 68  1  0
 25 69  1  0
 26 70  1  0
 26 71  1  0
 26 72  1  0
 28 73  1  0
 28 74  1  0
 28 75  1  0
 29 76  1  0
 29 77  1  0
 30 78  1  0
 30 79  1  0
 32 80  1  0
 32 81  1  0
 32 82  1  0
M  END
>  <meeko>  (13) 
{"is_sidechain": [false], "intermolecular_energy": 2.731, "internal_energy": -0.839}

$$$$
EPH_relaxed_0001_pdb2pqr_Repair_161_r2_0001_out
     RDKit          3D

 82 86  0  0  0  0  0  0  0  0999 V2000
   -2.3710    7.8360   -2.2160 C   0  0  0  0  0  0  0  0  0  0  0  0
   -2.2680    8.4160   -0.8020 C   0  0  2  0  0  0  0  0  0  0  0  0
   -3.6190    8.3770   -0.0600 C   0  0  0  0  0  0  0  0  0  0  0  0
   -4.8340    8.4670   -0.9870 C   0  0  0  0  0  0  0  0  0  0  0  0
   -5.6600    7.2170   -0.9420 C   0  0  2  0  0  0  0  0  0  0  0  0
   -5.7010    6.4820   -2.1720 O   0  0  0  0  0  0  0  0  0  0  0  0
   -6.9480    7.0360   -1.7220 C   0  0  0  0  0  0  0  0  0  0  0  0
   -7.4850    8.1210   -2.6030 C   0  0  0  0  0  0  0  0  0  0  0  0
   -7.9310    6.0090   -1.2530 C   0  0  0  0  0  0  0  0  0  0  0  0
   -1.7480    9.8470   -0.8640 C   0  0  1  0  0  0  0  0  0  0  0  0
   -1.3500   10.3980    0.5310 C   0  0  0  0  0  0  0  0  0  0  0  0
   -0.1270   11.3270    0.3130 C   0  0  0  0  0  0  0  0  0  0  0  0
   -0.0690   11.5410   -1.2180 C   0  0  1  0  0  0  0  0  0  0  0  0
   -1.1250   12.6540   -1.5070 C   0  0  0  0  0  0  0  0  0  0  0  0
    1.3300   11.9050   -1.8120 C   0  0  2  0  0  0  0  0  0  0  0  0
    1.9260   13.2330   -1.3120 C   0  0  0  0  0  0  0  0  0  0  0  0
    1.5800   14.4350   -2.1270 C   0  0  0  0  0  0  0  0  0  0  0  0
    1.0620   14.4140   -3.3690 C   0  0  0  0  0  0  0  0  0  0  0  0
    0.8630   13.0900   -4.1180 C   0  0  1  0  0  0  0  0  0  0  0  0
    1.3960   13.2300   -5.5680 C   0  0  0  0  0  0  0  0  0  0  0  0
    0.7800   14.4150   -6.3060 C   0  0  0  0  0  0  0  0  0  0  0  0
    1.0490   15.7200   -5.5610 C   0  0  2  0  0  0  0  0  0  0  0  0
    2.4530   15.9930   -5.6010 O   0  0  0  0  0  0  0  0  0  0  0  0
    0.5630   15.6940   -4.0850 C   0  0  0  0  0  0  0  0  0  0  0  0
   -0.9850   15.7010   -4.0460 C   0  0  0  0  0  0  0  0  0  0  0  0
    1.0210   17.0150   -3.4080 C   0  0  0  0  0  0  0  0  0  0  0  0
    1.4150   11.7910   -3.3880 C   0  0  1  0  0  0  0  0  0  0  0  0
    2.9200   11.5830   -3.7390 C   0  0  0  0  0  0  0  0  0  0  0  0
    0.6520   10.5280   -3.9380 C   0  0  0  0  0  0  0  0  0  0  0  0
   -0.6640   10.1500   -3.2320 C   0  0  0  0  0  0  0  0  0  0  0  0
   -0.4780   10.1060   -1.7120 C   0  0  2  0  0  0  0  0  0  0  0  0
    0.5620    8.9800   -1.3890 C   0  0  0  0  0  0  0  0  0  0  0  0
   -2.5630    6.7546   -2.1556 H   0  0  0  0  0  0  0  0  0  0  0  0
   -3.1963    8.3255   -2.7539 H   0  0  0  0  0  0  0  0  0  0  0  0
   -1.4277    8.0114   -2.7539 H   0  0  0  0  0  0  0  0  0  0  0  0
   -1.5626    7.7892   -0.2368 H   0  0  0  0  0  0  0  0  0  0  0  0
   -3.6797    7.4328    0.5011 H   0  0  0  0  0  0  0  0  0  0  0  0
   -3.6502    9.2589    0.5968 H   0  0  0  0  0  0  0  0  0  0  0  0
   -5.4578    9.3178   -0.6754 H   0  0  0  0  0  0  0  0  0  0  0  0
   -4.4704    8.6007   -2.0165 H   0  0  0  0  0  0  0  0  0  0  0  0
   -5.4128    7.0643    0.1189 H   0  0  0  0  0  0  0  0  0  0  0  0
   -7.8872    8.9336   -1.9802 H   0  0  0  0  0  0  0  0  0  0  0  0
   -6.6762    8.5116   -3.2380 H   0  0  0  0  0  0  0  0  0  0  0  0
   -8.2861    7.7149   -3.2380 H   0  0  0  0  0  0  0  0  0  0  0  0
   -7.9471    5.9922   -0.1532 H   0  0  0  0  0  0  0  0  0  0  0  0
   -8.9329    6.2611   -1.6306 H   0  0  0  0  0  0  0  0  0  0  0  0
   -7.6353    5.0191   -1.6306 H   0  0  0  0  0  0  0  0  0  0  0  0
   -2.6160   10.3391   -1.3270 H   0  0  0  0  0  0  0  0  0  0  0  0
   -2.1850   10.9668    0.9659 H   0  0  0  0  0  0  0  0  0  0  0  0
   -1.1056    9.5794    1.2239 H   0  0  0  0  0  0  0  0  0  0  0  0
   -0.2692   12.2852    0.8341 H   0  0  0  0  0  0  0  0  0  0  0  0
    0.8028   10.8933    0.7096 H   0  0  0  0  0  0  0  0  0  0  0  0
   -1.5051   13.0547   -0.5557 H   0  0  0  0  0  0  0  0  0  0  0  0
   -0.6554   13.4639   -2.0845 H   0  0  0  0  0  0  0  0  0  0  0  0
   -1.9585   12.2276   -2.0845 H   0  0  0  0  0  0  0  0  0  0  0  0
    1.9738   11.1142   -1.3995 H   0  0  0  0  0  0  0  0  0  0  0  0
    1.5655   13.4025   -0.2867 H   0  0  0  0  0  0  0  0  0  0  0  0
    3.0181   13.1218   -1.3828 H   0  0  0  0  0  0  0  0  0  0  0  0
    1.7639   15.4206   -1.6744 H   0  0  0  0  0  0  0  0  0  0  0  0
   -0.2221   12.9105   -4.1350 H   0  0  0  0  0  0  0  0  0  0  0  0
    2.4869   13.3661   -5.5311 H   0  0  0  0  0  0  0  0  0  0  0  0
    1.1202   12.3162   -6.1148 H   0  0  0  0  0  0  0  0  0  0  0  0
    1.2172   14.4787   -7.3134 H   0  0  0  0  0  0  0  0  0  0  0  0
   -0.3077   14.2635   -6.3682 H   0  0  0  0  0  0  0  0  0  0  0  0
    0.4762   16.5120   -6.0656 H   0  0  0  0  0  0  0  0  0  0  0  0
    2.6470   16.4140   -6.4560 H   0  0  0  0  0  0  0  0  0  0  0  0
   -1.3254   15.7025   -3.0000 H   0  0  0  0  0  0  0  0  0  0  0  0
   -1.3605   16.6009   -4.5551 H   0  0  0  0  0  0  0  0  0  0  0  0
   -1.3687   14.8046   -4.5551 H   0  0  0  0  0  0  0  0  0  0  0  0
    0.9810   16.8998   -2.3148 H   0  0  0  0  0  0  0  0  0  0  0  0
    2.0517   17.2461   -3.7149 H   0  0  0  0  0  0  0  0  0  0  0  0
    0.3545   17.8345   -3.7149 H   0  0  0  0  0  0  0  0  0  0  0  0
    3.5051   11.5021   -2.8111 H   0  0  0  0  0  0  0  0  0  0  0  0
    3.0353   10.6604   -4.3268 H   0  0  0  0  0  0  0  0  0  0  0  0
    3.2812   12.4398   -4.3268 H   0  0  0  0  0  0  0  0  0  0  0  0
    0.4200   10.7143   -4.9970 H   0  0  0  0  0  0  0  0  0  0  0  0
    1.3297    9.6807   -3.7569 H   0  0  0  0  0  0  0  0  0  0  0  0
   -1.4324   10.8974   -3.4790 H   0  0  0  0  0  0  0  0  0  0  0  0
   -0.9727    9.1520   -3.5765 H   0  0  0  0  0  0  0  0  0  0  0  0
    0.6603    8.8735   -0.2986 H   0  0  0  0  0  0  0  0  0  0  0  0
    0.2182    8.0285   -1.8208 H   0  0  0  0  0  0  0  0  0  0  0  0
    1.5378    9.2473   -1.8208 H   0  0  0  0  0  0  0  0  0  0  0  0
  1  2  1  0
  2  3  1  0
  3  4  1  0
  4  5  1  0
  5  6  1  0
  6  7  1  0
  7  8  1  0
  7  9  1  0
  2 10  1  0
 10 11  1  0
 11 12  1  0
 12 13  1  0
 13 14  1  1
 13 15  1  0
 15 16  1  0
 16 17  1  0
 17 18  2  0
 18 19  1  0
 19 20  1  0
 20 21  1  0
 21 22  1  0
 22 23  1  0
 22 24  1  0
 24 25  1  0
 24 26  1  0
 19 27  1  0
 27 28  1  1
 27 29  1  0
 29 30  1  0
 30 31  1  0
 31 32  1  6
  7  5  1  0
 31 10  1  0
 31 13  1  0
 27 15  1  0
 24 18  1  0
  1 33  1  0
  1 34  1  0
  1 35  1  0
  2 36  1  1
  3 37  1  0
  3 38  1  0
  4 39  1  0
  4 40  1  0
  5 41  1  1
  8 42  1  0
  8 43  1  0
  8 44  1  0
  9 45  1  0
  9 46  1  0
  9 47  1  0
 10 48  1  6
 11 49  1  0
 11 50  1  0
 12 51  1  0
 12 52  1  0
 14 53  1  0
 14 54  1  0
 14 55  1  0
 15 56  1  1
 16 57  1  0
 16 58  1  0
 17 59  1  0
 19 60  1  6
 20 61  1  0
 20 62  1  0
 21 63  1  0
 21 64  1  0
 22 65  1  6
 23 66  1  0
 25 67  1  0
 25 68  1  0
 25 69  1  0
 26 70  1  0
 26 71  1  0
 26 72  1  0
 28 73  1  0
 28 74  1  0
 28 75  1  0
 29 76  1  0
 29 77  1  0
 30 78  1  0
 30 79  1  0
 32 80  1  0
 32 81  1  0
 32 82  1  0
M  END
>  <meeko>  (14) 
{"is_sidechain": [false], "intermolecular_energy": 2.731, "internal_energy": -0.839}

$$$$
EPH_relaxed_0001_pdb2pqr_Repair_161_r2_0001_out
     RDKit          3D

 82 86  0  0  0  0  0  0  0  0999 V2000
    0.0670    9.2300   -2.0060 C   0  0  0  0  0  0  0  0  0  0  0  0
    1.0410   10.2650   -2.5770 C   0  0  2  0  0  0  0  0  0  0  0  0
    2.4590    9.6880   -2.7590 C   0  0  0  0  0  0  0  0  0  0  0  0
    3.3220   10.4780   -3.7470 C   0  0  0  0  0  0  0  0  0  0  0  0
    4.7250   10.6430   -3.2490 C   0  0  2  0  0  0  0  0  0  0  0  0
    5.3510   11.8780   -3.6210 O   0  0  0  0  0  0  0  0  0  0  0  0
    5.9380   10.6820   -4.1610 C   0  0  0  0  0  0  0  0  0  0  0  0
    5.8020   10.5550   -5.6460 C   0  0  0  0  0  0  0  0  0  0  0  0
    7.2790   10.3550   -3.5820 C   0  0  0  0  0  0  0  0  0  0  0  0
    1.0880   11.4890   -1.6700 C   0  0  1  0  0  0  0  0  0  0  0  0
    2.1670   11.3690   -0.5610 C   0  0  0  0  0  0  0  0  0  0  0  0
    2.7340   12.7940   -0.3330 C   0  0  0  0  0  0  0  0  0  0  0  0
    1.7460   13.7290   -1.0670 C   0  0  1  0  0  0  0  0  0  0  0  0
    0.5530   13.9090   -0.0770 C   0  0  0  0  0  0  0  0  0  0  0  0
    2.3170   15.1060   -1.5380 C   0  0  2  0  0  0  0  0  0  0  0  0
    2.8040   16.0310   -0.4090 C   0  0  0  0  0  0  0  0  0  0  0  0
    1.7760   16.9630    0.1400 C   0  0  0  0  0  0  0  0  0  0  0  0
    0.5970   17.2570   -0.4410 C   0  0  0  0  0  0  0  0  0  0  0  0
    0.2410   16.7020   -1.8260 C   0  0  1  0  0  0  0  0  0  0  0  0
   -0.3310   17.8420   -2.7090 C   0  0  0  0  0  0  0  0  0  0  0  0
   -1.5040   18.5610   -2.0490 C   0  0  0  0  0  0  0  0  0  0  0  0
   -1.0950   19.1490   -0.7010 C   0  0  2  0  0  0  0  0  0  0  0  0
   -0.1440   20.1940   -0.9240 O   0  0  0  0  0  0  0  0  0  0  0  0
   -0.4950   18.0940    0.2710 C   0  0  0  0  0  0  0  0  0  0  0  0
   -1.6100   17.1320    0.7490 C   0  0  0  0  0  0  0  0  0  0  0  0
    0.0060   18.8420    1.5360 C   0  0  0  0  0  0  0  0  0  0  0  0
    1.3870   15.8790   -2.5580 C   0  0  1  0  0  0  0  0  0  0  0  0
    2.3110   16.8490   -3.3570 C   0  0  0  0  0  0  0  0  0  0  0  0
    0.7310   14.9170   -3.6180 C   0  0  0  0  0  0  0  0  0  0  0  0
    0.2960   13.5260   -3.1180 C   0  0  0  0  0  0  0  0  0  0  0  0
    1.4220   12.8500   -2.3300 C   0  0  2  0  0  0  0  0  0  0  0  0
    2.6280   12.6360   -3.3060 C   0  0  0  0  0  0  0  0  0  0  0  0
    0.0988    9.2638   -0.9070 H   0  0  0  0  0  0  0  0  0  0  0  0
   -0.9527    9.4570   -2.3505 H   0  0  0  0  0  0  0  0  0  0  0  0
    0.3554    8.2259   -2.3505 H   0  0  0  0  0  0  0  0  0  0  0  0
    0.6725   10.5542   -3.5723 H   0  0  0  0  0  0  0  0  0  0  0  0
    2.9623    9.6880   -1.7809 H   0  0  0  0  0  0  0  0  0  0  0  0
    2.3437    8.6747   -3.1712 H   0  0  0  0  0  0  0  0  0  0  0  0
    3.3454    9.9422   -4.7074 H   0  0  0  0  0  0  0  0  0  0  0  0
    2.8801   11.4785   -3.8642 H   0  0  0  0  0  0  0  0  0  0  0  0
    4.4989   10.0554   -2.3470 H   0  0  0  0  0  0  0  0  0  0  0  0
    5.0166    9.8216   -5.8809 H   0  0  0  0  0  0  0  0  0  0  0  0
    5.5317   11.5315   -6.0743 H   0  0  0  0  0  0  0  0  0  0  0  0
    6.7577   10.2186   -6.0743 H   0  0  0  0  0  0  0  0  0  0  0  0
    7.2177   10.3699   -2.4838 H   0  0  0  0  0  0  0  0  0  0  0  0
    7.5896    9.3548   -3.9183 H   0  0  0  0  0  0  0  0  0  0  0  0
    8.0152   11.1000   -3.9183 H   0  0  0  0  0  0  0  0  0  0  0  0
    0.0492   11.4911   -1.3081 H   0  0  0  0  0  0  0  0  0  0  0  0
    1.7158   10.9878    0.3670 H   0  0  0  0  0  0  0  0  0  0  0  0
    2.9627   10.6700   -0.8579 H   0  0  0  0  0  0  0  0  0  0  0  0
    2.7683   13.0311    0.7406 H   0  0  0  0  0  0  0  0  0  0  0  0
    3.7631   12.8982   -0.7072 H   0  0  0  0  0  0  0  0  0  0  0  0
    0.9232   13.8531    0.9573 H   0  0  0  0  0  0  0  0  0  0  0  0
    0.0815   14.8885   -0.2453 H   0  0  0  0  0  0  0  0  0  0  0  0
   -0.1865   13.1123   -0.2453 H   0  0  0  0  0  0  0  0  0  0  0  0
    3.2201   14.8095   -2.0917 H   0  0  0  0  0  0  0  0  0  0  0  0
    3.1651   15.3993    0.4159 H   0  0  0  0  0  0  0  0  0  0  0  0
    3.5850   16.6664   -0.8520 H   0  0  0  0  0  0  0  0  0  0  0  0
    2.0000   17.4510    1.1000 H   0  0  0  0  0  0  0  0  0  0  0  0
   -0.5313   15.9369   -1.6584 H   0  0  0  0  0  0  0  0  0  0  0  0
    0.4677   18.5734   -2.9015 H   0  0  0  0  0  0  0  0  0  0  0  0
   -0.6989   17.3893   -3.6416 H   0  0  0  0  0  0  0  0  0  0  0  0
   -1.8448   19.3734   -2.7076 H   0  0  0  0  0  0  0  0  0  0  0  0
   -2.3132   17.8344   -1.8840 H   0  0  0  0  0  0  0  0  0  0  0  0
   -2.0052   19.5364   -0.2198 H   0  0  0  0  0  0  0  0  0  0  0  0
   -0.4470   20.9770   -0.4320 H   0  0  0  0  0  0  0  0  0  0  0  0
   -1.6316   17.1133    1.8486 H   0  0  0  0  0  0  0  0  0  0  0  0
   -2.5820   17.4796    0.3690 H   0  0  0  0  0  0  0  0  0  0  0  0
   -1.4086   16.1196    0.3690 H   0  0  0  0  0  0  0  0  0  0  0  0
   -0.3459   18.3166    2.4361 H   0  0  0  0  0  0  0  0  0  0  0  0
    1.1056   18.8698    1.5341 H   0  0  0  0  0  0  0  0  0  0  0  0
   -0.3868   19.8695    1.5341 H   0  0  0  0  0  0  0  0  0  0  0  0
    2.8946   17.4617   -2.6541 H   0  0  0  0  0  0  0  0  0  0  0  0
    2.9953   16.2652   -3.9902 H   0  0  0  0  0  0  0  0  0  0  0  0
    1.6947   17.5042   -3.9902 H   0  0  0  0  0  0  0  0  0  0  0  0
   -0.1613   15.4211   -4.0177 H   0  0  0  0  0  0  0  0  0  0  0  0
    1.5210   14.7228   -4.3584 H   0  0  0  0  0  0  0  0  0  0  0  0
   -0.5832   13.6366   -2.4662 H   0  0  0  0  0  0  0  0  0  0  0  0
    0.0530   12.9002   -3.9894 H   0  0  0  0  0  0  0  0  0  0  0  0
    3.5467   12.4730   -2.7234 H   0  0  0  0  0  0  0  0  0  0  0  0
    2.4352   11.7580   -3.9400 H   0  0  0  0  0  0  0  0  0  0  0  0
    2.7491   13.5267   -3.9400 H   0  0  0  0  0  0  0  0  0  0  0  0
  1  2  1  0
  2  3  1  0
  3  4  1  0
  4  5  1  0
  5  6  1  0
  6  7  1  0
  7  8  1  0
  7  9  1  0
  2 10  1  0
 10 11  1  0
 11 12  1  0
 12 13  1  0
 13 14  1  1
 13 15  1  0
 15 16  1  0
 16 17  1  0
 17 18  2  0
 18 19  1  0
 19 20  1  0
 20 21  1  0
 21 22  1  0
 22 23  1  0
 22 24  1  0
 24 25  1  0
 24 26  1  0
 19 27  1  0
 27 28  1  6
 27 29  1  0
 29 30  1  0
 30 31  1  0
 31 32  1  6
  7  5  1  0
 31 10  1  0
 31 13  1  0
 27 15  1  0
 24 18  1  0
  1 33  1  0
  1 34  1  0
  1 35  1  0
  2 36  1  6
  3 37  1  0
  3 38  1  0
  4 39  1  0
  4 40  1  0
  5 41  1  1
  8 42  1  0
  8 43  1  0
  8 44  1  0
  9 45  1  0
  9 46  1  0
  9 47  1  0
 10 48  1  1
 11 49  1  0
 11 50  1  0
 12 51  1  0
 12 52  1  0
 14 53  1  0
 14 54  1  0
 14 55  1  0
 15 56  1  6
 16 57  1  0
 16 58  1  0
 17 59  1  0
 19 60  1  1
 20 61  1  0
 20 62  1  0
 21 63  1  0
 21 64  1  0
 22 65  1  1
 23 66  1  0
 25 67  1  0
 25 68  1  0
 25 69  1  0
 26 70  1  0
 26 71  1  0
 26 72  1  0
 28 73  1  0
 28 74  1  0
 28 75  1  0
 29 76  1  0
 29 77  1  0
 30 78  1  0
 30 79  1  0
 32 80  1  0
 32 81  1  0
 32 82  1  0
M  END
>  <meeko>  (15) 
{"is_sidechain": [false], "intermolecular_energy": 2.731, "internal_energy": -0.839}

$$$$
EPH_relaxed_0001_pdb2pqr_Repair_161_r2_0001_out
     RDKit          3D

 82 86  0  0  0  0  0  0  0  0999 V2000
    2.8860   11.3830   -5.3550 C   0  0  0  0  0  0  0  0  0  0  0  0
    1.8820   11.0900   -4.2380 C   0  0  2  0  0  0  0  0  0  0  0  0
    0.7590   10.1400   -4.7000 C   0  0  0  0  0  0  0  0  0  0  0  0
   -0.3220    9.9030   -3.6420 C   0  0  0  0  0  0  0  0  0  0  0  0
    0.1950    9.0910   -2.4940 C   0  0  2  0  0  0  0  0  0  0  0  0
   -0.6660    8.0220   -2.0810 O   0  0  0  0  0  0  0  0  0  0  0  0
   -0.4550    9.0720   -1.1230 C   0  0  0  0  0  0  0  0  0  0  0  0
   -1.6790    9.8810   -0.8280 C   0  0  0  0  0  0  0  0  0  0  0  0
    0.3700    8.6560    0.0550 C   0  0  0  0  0  0  0  0  0  0  0  0
    1.2820   12.3930   -3.7220 C   0  0  1  0  0  0  0  0  0  0  0  0
   -0.2560   12.3100   -3.5330 C   0  0  0  0  0  0  0  0  0  0  0  0
   -0.6020   13.1800   -2.2970 C   0  0  0  0  0  0  0  0  0  0  0  0
    0.6840   13.9930   -2.0200 C   0  0  1  0  0  0  0  0  0  0  0  0
    0.6320   15.1820   -3.0290 C   0  0  0  0  0  0  0  0  0  0  0  0
    0.8840   14.4900   -0.5510 C   0  0  2  0  0  0  0  0  0  0  0  0
   -0.1900   15.4670   -0.0420 C   0  0  0  0  0  0  0  0  0  0  0  0
    0.1010   16.9130   -0.2730 C   0  0  0  0  0  0  0  0  0  0  0  0
    1.3000   17.4260   -0.6070 C   0  0  0  0  0  0  0  0  0  0  0  0
    2.5440   16.5310   -0.6870 C   0  0  1  0  0  0  0  0  0  0  0  0
    3.7240   17.2180    0.0480 C   0  0  0  0  0  0  0  0  0  0  0  0
    3.9880   18.6320   -0.4610 C   0  0  0  0  0  0  0  0  0  0  0  0
    2.7460   19.5060   -0.3100 C   0  0  2  0  0  0  0  0  0  0  0  0
    2.4820   19.6960    1.0830 O   0  0  0  0  0  0  0  0  0  0  0  0
    1.4890   18.9100   -1.0040 C   0  0  0  0  0  0  0  0  0  0  0  0
    1.6590   18.9850   -2.5410 C   0  0  0  0  0  0  0  0  0  0  0  0
    0.2770   19.8170   -0.6570 C   0  0  0  0  0  0  0  0  0  0  0  0
    2.3420   15.0200   -0.2390 C   0  0  1  0  0  0  0  0  0  0  0  0
    2.5410   14.8910    1.3020 C   0  0  0  0  0  0  0  0  0  0  0  0
    3.4570   14.1320   -0.9070 C   0  0  0  0  0  0  0  0  0  0  0  0
    3.1510   13.5710   -2.3090 C   0  0  0  0  0  0  0  0  0  0  0  0
    1.7720   12.9050   -2.3450 C   0  0  2  0  0  0  0  0  0  0  0  0
    1.8010   11.6910   -1.3550 C   0  0  0  0  0  0  0  0  0  0  0  0
    3.8533   11.6653   -4.9138 H   0  0  0  0  0  0  0  0  0  0  0  0
    3.0148   10.4850   -5.9771 H   0  0  0  0  0  0  0  0  0  0  0  0
    2.5116   12.2093   -5.9771 H   0  0  0  0  0  0  0  0  0  0  0  0
    2.4284   10.5856   -3.4274 H   0  0  0  0  0  0  0  0  0  0  0  0
    0.2827   10.5734   -5.5918 H   0  0  0  0  0  0  0  0  0  0  0  0
    1.2267    9.1657   -4.9050 H   0  0  0  0  0  0  0  0  0  0  0  0
   -0.6692   10.8755   -3.2630 H   0  0  0  0  0  0  0  0  0  0  0  0
   -1.1460    9.3463   -4.1123 H   0  0  0  0  0  0  0  0  0  0  0  0
    1.2341    9.2546   -2.8157 H   0  0  0  0  0  0  0  0  0  0  0  0
   -1.8083    9.9665    0.2610 H   0  0  0  0  0  0  0  0  0  0  0  0
   -1.5689   10.8848   -1.2641 H   0  0  0  0  0  0  0  0  0  0  0  0
   -2.5594    9.3863   -1.2641 H   0  0  0  0  0  0  0  0  0  0  0  0
   -0.1566    8.9215    0.9835 H   0  0  0  0  0  0  0  0  0  0  0  0
    0.5320    7.5685    0.0235 H   0  0  0  0  0  0  0  0  0  0  0  0
    1.3408    9.1724    0.0235 H   0  0  0  0  0  0  0  0  0  0  0  0
    1.6145   13.0762   -4.5174 H   0  0  0  0  0  0  0  0  0  0  0  0
   -0.7689   12.6984   -4.4253 H   0  0  0  0  0  0  0  0  0  0  0  0
   -0.5805   11.2692   -3.3869 H   0  0  0  0  0  0  0  0  0  0  0  0
   -1.4454   13.8507   -2.5180 H   0  0  0  0  0  0  0  0  0  0  0  0
   -0.9064   12.5730   -1.4316 H   0  0  0  0  0  0  0  0  0  0  0  0
    0.5905   16.1314   -2.4751 H   0  0  0  0  0  0  0  0  0  0  0  0
    1.5317   15.1656   -3.6616 H   0  0  0  0  0  0  0  0  0  0  0  0
   -0.2629   15.0872   -3.6616 H   0  0  0  0  0  0  0  0  0  0  0  0
    0.7489   13.5668    0.0316 H   0  0  0  0  0  0  0  0  0  0  0  0
   -1.1362   15.2258   -0.5485 H   0  0  0  0  0  0  0  0  0  0  0  0
   -0.2279   15.3352    1.0494 H   0  0  0  0  0  0  0  0  0  0  0  0
   -0.7351   17.6190   -0.1608 H   0  0  0  0  0  0  0  0  0  0  0  0
    2.7782   16.4313   -1.7572 H   0  0  0  0  0  0  0  0  0  0  0  0
    3.4894   17.2679    1.1215 H   0  0  0  0  0  0  0  0  0  0  0  0
    4.6281   16.6210   -0.1420 H   0  0  0  0  0  0  0  0  0  0  0  0
    4.8124   19.0748    0.1171 H   0  0  0  0  0  0  0  0  0  0  0  0
    4.2522   18.5780   -1.5274 H   0  0  0  0  0  0  0  0  0  0  0  0
    2.9547   20.4640   -0.8086 H   0  0  0  0  0  0  0  0  0  0  0  0
    2.4900   18.8210    1.5060 H   0  0  0  0  0  0  0  0  0  0  0  0
    2.6413   19.4184   -2.7805 H   0  0  0  0  0  0  0  0  0  0  0  0
    1.5908   17.9732   -2.9673 H   0  0  0  0  0  0  0  0  0  0  0  0
    0.8657   19.6167   -2.9673 H   0  0  0  0  0  0  0  0  0  0  0  0
    0.1764   19.8923    0.4358 H   0  0  0  0  0  0  0  0  0  0  0  0
    0.4362   20.8196   -1.0805 H   0  0  0  0  0  0  0  0  0  0  0  0
   -0.6400   19.3815   -1.0805 H   0  0  0  0  0  0  0  0  0  0  0  0
    1.7277   15.4182    1.8221 H   0  0  0  0  0  0  0  0  0  0  0  0
    2.5293   13.8282    1.5855 H   0  0  0  0  0  0  0  0  0  0  0  0
    3.5064   15.3355    1.5855 H   0  0  0  0  0  0  0  0  0  0  0  0
    4.3676   14.7441   -0.9850 H   0  0  0  0  0  0  0  0  0  0  0  0
    3.5493   13.2490   -0.2575 H   0  0  0  0  0  0  0  0  0  0  0  0
    3.1720   14.3942   -3.0383 H   0  0  0  0  0  0  0  0  0  0  0  0
    3.9113   12.8160   -2.5579 H   0  0  0  0  0  0  0  0  0  0  0  0
    1.7921   12.0620   -0.3195 H   0  0  0  0  0  0  0  0  0  0  0  0
    0.9177   11.0579   -1.5252 H   0  0  0  0  0  0  0  0  0  0  0  0
    2.7135   11.1008   -1.5252 H   0  0  0  0  0  0  0  0  0  0  0  0
  1  2  1  0
  2  3  1  0
  3  4  1  0
  4  5  1  0
  5  6  1  0
  6  7  1  0
  7  8  1  0
  7  9  1  0
  2 10  1  0
 10 11  1  0
 11 12  1  0
 12 13  1  0
 13 14  1  6
 13 15  1  0
 15 16  1  0
 16 17  1  0
 17 18  2  0
 18 19  1  0
 19 20  1  0
 20 21  1  0
 21 22  1  0
 22 23  1  0
 22 24  1  0
 24 25  1  0
 24 26  1  0
 19 27  1  0
 27 28  1  1
 27 29  1  0
 29 30  1  0
 30 31  1  0
 31 32  1  1
  7  5  1  0
 31 10  1  0
 31 13  1  0
 27 15  1  0
 24 18  1  0
  1 33  1  0
  1 34  1  0
  1 35  1  0
  2 36  1  1
  3 37  1  0
  3 38  1  0
  4 39  1  0
  4 40  1  0
  5 41  1  1
  8 42  1  0
  8 43  1  0
  8 44  1  0
  9 45  1  0
  9 46  1  0
  9 47  1  0
 10 48  1  6
 11 49  1  0
 11 50  1  0
 12 51  1  0
 12 52  1  0
 14 53  1  0
 14 54  1  0
 14 55  1  0
 15 56  1  1
 16 57  1  0
 16 58  1  0
 17 59  1  0
 19 60  1  6
 20 61  1  0
 20 62  1  0
 21 63  1  0
 21 64  1  0
 22 65  1  6
 23 66  1  0
 25 67  1  0
 25 68  1  0
 25 69  1  0
 26 70  1  0
 26 71  1  0
 26 72  1  0
 28 73  1  0
 28 74  1  0
 28 75  1  0
 29 76  1  0
 29 77  1  0
 30 78  1  0
 30 79  1  0
 32 80  1  0
 32 81  1  0
 32 82  1  0
M  END
>  <meeko>  (16) 
{"is_sidechain": [false], "intermolecular_energy": 2.731, "internal_energy": -0.839}

$$$$
EPH_relaxed_0001_pdb2pqr_Repair_161_r2_0001_out
     RDKit          3D

 82 86  0  0  0  0  0  0  0  0999 V2000
    0.8570   14.7800   -2.6300 C   0  0  0  0  0  0  0  0  0  0  0  0
    1.1580   14.0860   -3.9620 C   0  0  2  0  0  0  0  0  0  0  0  0
    0.5000   14.8080   -5.1550 C   0  0  0  0  0  0  0  0  0  0  0  0
    1.2400   14.6080   -6.4800 C   0  0  0  0  0  0  0  0  0  0  0  0
    0.9470   15.7110   -7.4510 C   0  0  2  0  0  0  0  0  0  0  0  0
    0.4130   15.2760   -8.7080 O   0  0  0  0  0  0  0  0  0  0  0  0
    1.7050   15.9050   -8.7510 C   0  0  0  0  0  0  0  0  0  0  0  0
    2.8160   14.9860   -9.1510 C   0  0  0  0  0  0  0  0  0  0  0  0
    1.6950   17.2590   -9.3900 C   0  0  0  0  0  0  0  0  0  0  0  0
    0.6930   12.6360   -3.9090 C   0  0  1  0  0  0  0  0  0  0  0  0
    1.8220   11.6330   -4.2680 C   0  0  0  0  0  0  0  0  0  0  0  0
    1.5960   10.3730   -3.3920 C   0  0  0  0  0  0  0  0  0  0  0  0
    0.1740   10.5530   -2.8100 C   0  0  1  0  0  0  0  0  0  0  0  0
   -0.7870   10.0880   -3.9480 C   0  0  0  0  0  0  0  0  0  0  0  0
   -0.1200    9.8100   -1.4660 C   0  0  2  0  0  0  0  0  0  0  0  0
   -0.0290    8.2760   -1.5350 C   0  0  0  0  0  0  0  0  0  0  0  0
   -1.3030    7.5760   -1.8760 C   0  0  0  0  0  0  0  0  0  0  0  0
   -2.5310    8.1250   -1.8380 C   0  0  0  0  0  0  0  0  0  0  0  0
   -2.7390    9.5560   -1.3270 C   0  0  1  0  0  0  0  0  0  0  0  0
   -3.9350    9.5850   -0.3400 C   0  0  0  0  0  0  0  0  0  0  0  0
   -5.2050    8.9900   -0.9410 C   0  0  0  0  0  0  0  0  0  0  0  0
   -4.9740    7.5480   -1.3840 C   0  0  2  0  0  0  0  0  0  0  0  0
   -4.7430    6.7410   -0.2250 O   0  0  0  0  0  0  0  0  0  0  0  0
   -3.7860    7.3930   -2.3740 C   0  0  0  0  0  0  0  0  0  0  0  0
   -4.1640    8.0140   -3.7420 C   0  0  0  0  0  0  0  0  0  0  0  0
   -3.5730    5.8770   -2.6300 C   0  0  0  0  0  0  0  0  0  0  0  0
   -1.4490   10.2780   -0.7450 C   0  0  1  0  0  0  0  0  0  0  0  0
   -1.2810    9.9310    0.7660 C   0  0  0  0  0  0  0  0  0  0  0  0
   -1.6540   11.8380   -0.8210 C   0  0  0  0  0  0  0  0  0  0  0  0
   -1.2320   12.5300   -2.1310 C   0  0  0  0  0  0  0  0  0  0  0  0
    0.1790   12.1030   -2.5480 C   0  0  2  0  0  0  0  0  0  0  0  0
    1.1710   12.5770   -1.4320 C   0  0  0  0  0  0  0  0  0  0  0  0
    1.1438   14.1188   -1.7990 H   0  0  0  0  0  0  0  0  0  0  0  0
    1.4295   15.7172   -2.5672 H   0  0  0  0  0  0  0  0  0  0  0  0
   -0.2184   15.0024   -2.5672 H   0  0  0  0  0  0  0  0  0  0  0  0
    2.2467   14.1216   -4.1152 H   0  0  0  0  0  0  0  0  0  0  0  0
   -0.5254   14.4266   -5.2690 H   0  0  0  0  0  0  0  0  0  0  0  0
    0.5251   15.8849   -4.9323 H   0  0  0  0  0  0  0  0  0  0  0  0
    2.3221   14.5840   -6.2838 H   0  0  0  0  0  0  0  0  0  0  0  0
    0.8985   13.6612   -6.9237 H   0  0  0  0  0  0  0  0  0  0  0  0
    0.7030   16.4008   -6.6296 H   0  0  0  0  0  0  0  0  0  0  0  0
    3.3019   14.5841   -8.2497 H   0  0  0  0  0  0  0  0  0  0  0  0
    2.4090   14.1571   -9.7487 H   0  0  0  0  0  0  0  0  0  0  0  0
    3.5539   15.5412   -9.7487 H   0  0  0  0  0  0  0  0  0  0  0  0
    1.6893   18.0332   -8.6086 H   0  0  0  0  0  0  0  0  0  0  0  0
    2.5923   17.3759  -10.0154 H   0  0  0  0  0  0  0  0  0  0  0  0
    0.7961   17.3627  -10.0154 H   0  0  0  0  0  0  0  0  0  0  0  0
   -0.1346   12.6815   -4.6322 H   0  0  0  0  0  0  0  0  0  0  0  0
    1.7682   11.3678   -5.3342 H   0  0  0  0  0  0  0  0  0  0  0  0
    2.8136   12.0711   -4.0816 H   0  0  0  0  0  0  0  0  0  0  0  0
    1.6530    9.4599   -4.0028 H   0  0  0  0  0  0  0  0  0  0  0  0
    2.3585   10.2688   -2.6061 H   0  0  0  0  0  0  0  0  0  0  0  0
   -1.6937    9.6493   -3.5058 H   0  0  0  0  0  0  0  0  0  0  0  0
   -1.0636   10.9519   -4.5702 H   0  0  0  0  0  0  0  0  0  0  0  0
   -0.2812    9.3350   -4.5702 H   0  0  0  0  0  0  0  0  0  0  0  0
    0.7188   10.1305   -0.8305 H   0  0  0  0  0  0  0  0  0  0  0  0
    0.7178    8.0139   -2.2989 H   0  0  0  0  0  0  0  0  0  0  0  0
    0.2403    7.9414   -0.5223 H   0  0  0  0  0  0  0  0  0  0  0  0
   -1.2317    6.5225   -2.1843 H   0  0  0  0  0  0  0  0  0  0  0  0
   -2.9725   10.1646   -2.2130 H   0  0  0  0  0  0  0  0  0  0  0  0
   -3.6658    9.0081    0.5571 H   0  0  0  0  0  0  0  0  0  0  0  0
   -4.1421   10.6378   -0.0977 H   0  0  0  0  0  0  0  0  0  0  0  0
   -6.0048    9.0111   -0.1861 H   0  0  0  0  0  0  0  0  0  0  0  0
   -5.4906    9.5863   -1.8201 H   0  0  0  0  0  0  0  0  0  0  0  0
   -5.8753    7.2207   -1.9230 H   0  0  0  0  0  0  0  0  0  0  0  0
   -3.8450    6.3760   -0.2950 H   0  0  0  0  0  0  0  0  0  0  0  0
   -4.7296    8.9433   -3.5791 H   0  0  0  0  0  0  0  0  0  0  0  0
   -3.2482    8.2368   -4.3091 H   0  0  0  0  0  0  0  0  0  0  0  0
   -4.7826    7.3029   -4.3091 H   0  0  0  0  0  0  0  0  0  0  0  0
   -3.4989    5.3495   -1.6676 H   0  0  0  0  0  0  0  0  0  0  0  0
   -4.4240    5.4786   -3.2019 H   0  0  0  0  0  0  0  0  0  0  0  0
   -2.6452    5.7285   -3.2019 H   0  0  0  0  0  0  0  0  0  0  0  0
   -1.6794   10.7539    1.3777 H   0  0  0  0  0  0  0  0  0  0  0  0
   -1.8309    9.0058    0.9931 H   0  0  0  0  0  0  0  0  0  0  0  0
   -0.2142    9.7886    0.9931 H   0  0  0  0  0  0  0  0  0  0  0  0
   -2.7240   12.0411   -0.6669 H   0  0  0  0  0  0  0  0  0  0  0  0
   -0.9904   12.2539   -0.0485 H   0  0  0  0  0  0  0  0  0  0  0  0
   -1.9405   12.2564   -2.9267 H   0  0  0  0  0  0  0  0  0  0  0  0
   -1.2353   13.6180   -1.9693 H   0  0  0  0  0  0  0  0  0  0  0  0
    0.7366   12.3694   -0.4430 H   0  0  0  0  0  0  0  0  0  0  0  0
    2.1237   12.0368   -1.5347 H   0  0  0  0  0  0  0  0  0  0  0  0
    1.3493   13.6576   -1.5347 H   0  0  0  0  0  0  0  0  0  0  0  0
  1  2  1  0
  2  3  1  0
  3  4  1  0
  4  5  1  0
  5  6  1  0
  6  7  1  0
  7  8  1  0
  7  9  1  0
  2 10  1  0
 10 11  1  0
 11 12  1  0
 12 13  1  0
 13 14  1  6
 13 15  1  0
 15 16  1  0
 16 17  1  0
 17 18  2  0
 18 19  1  0
 19 20  1  0
 20 21  1  0
 21 22  1  0
 22 23  1  0
 22 24  1  0
 24 25  1  0
 24 26  1  0
 19 27  1  0
 27 28  1  1
 27 29  1  0
 29 30  1  0
 30 31  1  0
 31 32  1  1
  7  5  1  0
 31 10  1  0
 31 13  1  0
 27 15  1  0
 24 18  1  0
  1 33  1  0
  1 34  1  0
  1 35  1  0
  2 36  1  6
  3 37  1  0
  3 38  1  0
  4 39  1  0
  4 40  1  0
  5 41  1  1
  8 42  1  0
  8 43  1  0
  8 44  1  0
  9 45  1  0
  9 46  1  0
  9 47  1  0
 10 48  1  6
 11 49  1  0
 11 50  1  0
 12 51  1  0
 12 52  1  0
 14 53  1  0
 14 54  1  0
 14 55  1  0
 15 56  1  1
 16 57  1  0
 16 58  1  0
 17 59  1  0
 19 60  1  6
 20 61  1  0
 20 62  1  0
 21 63  1  0
 21 64  1  0
 22 65  1  6
 23 66  1  0
 25 67  1  0
 25 68  1  0
 25 69  1  0
 26 70  1  0
 26 71  1  0
 26 72  1  0
 28 73  1  0
 28 74  1  0
 28 75  1  0
 29 76  1  0
 29 77  1  0
 30 78  1  0
 30 79  1  0
 32 80  1  0
 32 81  1  0
 32 82  1  0
M  END
>  <meeko>  (17) 
{"is_sidechain": [false], "intermolecular_energy": 2.731, "internal_energy": -0.839}

$$$$
EPH_relaxed_0001_pdb2pqr_Repair_161_r2_0001_out
     RDKit          3D

 82 86  0  0  0  0  0  0  0  0999 V2000
   -1.7890   14.7270    0.2460 C   0  0  0  0  0  0  0  0  0  0  0  0
   -0.4210   15.4080    0.3440 C   0  0  2  0  0  0  0  0  0  0  0  0
   -0.2990   16.6060   -0.6190 C   0  0  0  0  0  0  0  0  0  0  0  0
    1.1460   17.0130   -0.9160 C   0  0  0  0  0  0  0  0  0  0  0  0
    1.5920   18.1510   -0.0470 C   0  0  2  0  0  0  0  0  0  0  0  0
    2.3060   19.1860   -0.7360 O   0  0  0  0  0  0  0  0  0  0  0  0
    3.0480   18.4540    0.2530 C   0  0  0  0  0  0  0  0  0  0  0  0
    4.1520   17.6160   -0.3110 C   0  0  0  0  0  0  0  0  0  0  0  0
    3.3740   19.2540    1.4760 C   0  0  0  0  0  0  0  0  0  0  0  0
    0.6850   14.3980    0.0610 C   0  0  1  0  0  0  0  0  0  0  0  0
    0.8590   13.3660    1.2070 C   0  0  0  0  0  0  0  0  0  0  0  0
    1.2490   12.0210    0.5420 C   0  0  0  0  0  0  0  0  0  0  0  0
    1.6090   12.3960   -0.9150 C   0  0  1  0  0  0  0  0  0  0  0  0
    3.0740   12.9290   -0.8420 C   0  0  0  0  0  0  0  0  0  0  0  0
    1.4600   11.2590   -1.9780 C   0  0  2  0  0  0  0  0  0  0  0  0
    2.3730   10.0390   -1.7600 C   0  0  0  0  0  0  0  0  0  0  0  0
    3.7040   10.1100   -2.4330 C   0  0  0  0  0  0  0  0  0  0  0  0
    4.0410   10.9740   -3.4090 C   0  0  0  0  0  0  0  0  0  0  0  0
    3.0060   11.9390   -4.0000 C   0  0  1  0  0  0  0  0  0  0  0  0
    3.1000   11.9150   -5.5480 C   0  0  0  0  0  0  0  0  0  0  0  0
    4.5130   12.1950   -6.0520 C   0  0  0  0  0  0  0  0  0  0  0  0
    5.5040   11.1800   -5.4890 C   0  0  2  0  0  0  0  0  0  0  0  0
    5.2030    9.8910   -6.0330 O   0  0  0  0  0  0  0  0  0  0  0  0
    5.4910   11.1080   -3.9370 C   0  0  0  0  0  0  0  0  0  0  0  0
    6.1040   12.4040   -3.3500 C   0  0  0  0  0  0  0  0  0  0  0  0
    6.4300    9.9500   -3.5050 C   0  0  0  0  0  0  0  0  0  0  0  0
    1.5150   11.7620   -3.4770 C   0  0  1  0  0  0  0  0  0  0  0  0
    0.7750   10.6900   -4.3340 C   0  0  0  0  0  0  0  0  0  0  0  0
    0.7340   13.1130   -3.6840 C   0  0  0  0  0  0  0  0  0  0  0  0
    0.8220   14.1480   -2.5460 C   0  0  0  0  0  0  0  0  0  0  0  0
    0.5230   13.4990   -1.1910 C   0  0  2  0  0  0  0  0  0  0  0  0
   -0.9520   12.9740   -1.2270 C   0  0  0  0  0  0  0  0  0  0  0  0
   -2.1760   14.5344    1.2575 H   0  0  0  0  0  0  0  0  0  0  0  0
   -2.4871   15.3828   -0.2949 H   0  0  0  0  0  0  0  0  0  0  0  0
   -1.6866   13.7747   -0.2949 H   0  0  0  0  0  0  0  0  0  0  0  0
   -0.3171   15.7951    1.3684 H   0  0  0  0  0  0  0  0  0  0  0  0
   -0.7866   16.3393   -1.5683 H   0  0  0  0  0  0  0  0  0  0  0  0
   -0.7795   17.4642   -0.1264 H   0  0  0  0  0  0  0  0  0  0  0  0
    1.8034   16.1493   -0.7374 H   0  0  0  0  0  0  0  0  0  0  0  0
    1.2011   17.3405   -1.9647 H   0  0  0  0  0  0  0  0  0  0  0  0
    0.7146   18.0279    0.6050 H   0  0  0  0  0  0  0  0  0  0  0  0
    4.7339   17.1743    0.5114 H   0  0  0  0  0  0  0  0  0  0  0  0
    3.7238   16.8134   -0.9295 H   0  0  0  0  0  0  0  0  0  0  0  0
    4.8099   18.2442   -0.9295 H   0  0  0  0  0  0  0  0  0  0  0  0
    3.1342   18.6655    2.3738 H   0  0  0  0  0  0  0  0  0  0  0  0
    4.4454   19.5032    1.4763 H   0  0  0  0  0  0  0  0  0  0  0  0
    2.7819   20.1811    1.4763 H   0  0  0  0  0  0  0  0  0  0  0  0
    1.5326   15.0856   -0.0762 H   0  0  0  0  0  0  0  0  0  0  0  0
    1.6532   13.6932    1.8941 H   0  0  0  0  0  0  0  0  0  0  0  0
   -0.0677   13.2640    1.7908 H   0  0  0  0  0  0  0  0  0  0  0  0
    2.1137   11.5718    1.0524 H   0  0  0  0  0  0  0  0  0  0  0  0
    0.4381   11.2795    0.5937 H   0  0  0  0  0  0  0  0  0  0  0  0
    3.3726   13.0376    0.2111 H   0  0  0  0  0  0  0  0  0  0  0  0
    3.7481   12.2185   -1.3428 H   0  0  0  0  0  0  0  0  0  0  0  0
    3.1339   13.9065   -1.3428 H   0  0  0  0  0  0  0  0  0  0  0  0
    0.4353   10.9012   -1.7994 H   0  0  0  0  0  0  0  0  0  0  0  0
    2.5442    9.9315   -0.6787 H   0  0  0  0  0  0  0  0  0  0  0  0
    1.8495    9.1828   -2.2105 H   0  0  0  0  0  0  0  0  0  0  0  0
    4.4738    9.3965   -2.1038 H   0  0  0  0  0  0  0  0  0  0  0  0
    3.2732   12.9380   -3.6251 H   0  0  0  0  0  0  0  0  0  0  0  0
    2.7884   10.9223   -5.9050 H   0  0  0  0  0  0  0  0  0  0  0  0
    2.4437   12.7084   -5.9351 H   0  0  0  0  0  0  0  0  0  0  0  0
    4.5218   12.1357   -7.1504 H   0  0  0  0  0  0  0  0  0  0  0  0
    4.8120   13.1997   -5.7187 H   0  0  0  0  0  0  0  0  0  0  0  0
    6.5130   11.5078   -5.7795 H   0  0  0  0  0  0  0  0  0  0  0  0
    5.9700    9.6080   -6.5600 H   0  0  0  0  0  0  0  0  0  0  0  0
    6.0811   12.3555   -2.2513 H   0  0  0  0  0  0  0  0  0  0  0  0
    7.1450   12.5043   -3.6909 H   0  0  0  0  0  0  0  0  0  0  0  0
    5.5212   13.2724   -3.6909 H   0  0  0  0  0  0  0  0  0  0  0  0
    6.4700    9.9006   -2.4068 H   0  0  0  0  0  0  0  0  0  0  0  0
    6.0451    8.9987   -3.9010 H   0  0  0  0  0  0  0  0  0  0  0  0
    7.4403   10.1300   -3.9010 H   0  0  0  0  0  0  0  0  0  0  0  0
    0.2772    9.9688   -3.6691 H   0  0  0  0  0  0  0  0  0  0  0  0
    0.0238   11.1827   -4.9687 H   0  0  0  0  0  0  0  0  0  0  0  0
    1.5020   10.1622   -4.9687 H   0  0  0  0  0  0  0  0  0  0  0  0
    1.1254   13.5872   -4.5961 H   0  0  0  0  0  0  0  0  0  0  0  0
   -0.3272   12.8274   -3.7318 H   0  0  0  0  0  0  0  0  0  0  0  0
    1.8357   14.5745   -2.5250 H   0  0  0  0  0  0  0  0  0  0  0  0
    0.0768   14.9360   -2.7298 H   0  0  0  0  0  0  0  0  0  0  0  0
   -1.3198   12.8431   -0.1986 H   0  0  0  0  0  0  0  0  0  0  0  0
   -1.5873   13.7012   -1.7538 H   0  0  0  0  0  0  0  0  0  0  0  0
   -0.9849   12.0089   -1.7538 H   0  0  0  0  0  0  0  0  0  0  0  0
  1  2  1  0
  2  3  1  0
  3  4  1  0
  4  5  1  0
  5  6  1  0
  6  7  1  0
  7  8  1  0
  7  9  1  0
  2 10  1  0
 10 11  1  0
 11 12  1  0
 12 13  1  0
 13 14  1  1
 13 15  1  0
 15 16  1  0
 16 17  1  0
 17 18  2  0
 18 19  1  0
 19 20  1  0
 20 21  1  0
 21 22  1  0
 22 23  1  0
 22 24  1  0
 24 25  1  0
 24 26  1  0
 19 27  1  0
 27 28  1  6
 27 29  1  0
 29 30  1  0
 30 31  1  0
 31 32  1  6
  7  5  1  0
 31 10  1  0
 31 13  1  0
 27 15  1  0
 24 18  1  0
  1 33  1  0
  1 34  1  0
  1 35  1  0
  2 36  1  1
  3 37  1  0
  3 38  1  0
  4 39  1  0
  4 40  1  0
  5 41  1  1
  8 42  1  0
  8 43  1  0
  8 44  1  0
  9 45  1  0
  9 46  1  0
  9 47  1  0
 10 48  1  6
 11 49  1  0
 11 50  1  0
 12 51  1  0
 12 52  1  0
 14 53  1  0
 14 54  1  0
 14 55  1  0
 15 56  1  1
 16 57  1  0
 16 58  1  0
 17 59  1  0
 19 60  1  1
 20 61  1  0
 20 62  1  0
 21 63  1  0
 21 64  1  0
 22 65  1  6
 23 66  1  0
 25 67  1  0
 25 68  1  0
 25 69  1  0
 26 70  1  0
 26 71  1  0
 26 72  1  0
 28 73  1  0
 28 74  1  0
 28 75  1  0
 29 76  1  0
 29 77  1  0
 30 78  1  0
 30 79  1  0
 32 80  1  0
 32 81  1  0
 32 82  1  0
M  END
>  <meeko>  (18) 
{"is_sidechain": [false], "intermolecular_energy": 2.731, "internal_energy": -0.839}

$$$$
