EPH_relaxed_0001_pdb2pqr_Repair_109_r2_0001_out
     RDKit          3D

 82 86  0  0  0  0  0  0  0  0999 V2000
   -1.4250    8.4800   -1.6510 C   0  0  0  0  0  0  0  0  0  0  0  0
   -1.9590    9.2210   -0.4220 C   0  0  2  0  0  0  0  0  0  0  0  0
   -3.4140    9.6920   -0.6140 C   0  0  0  0  0  0  0  0  0  0  0  0
   -4.4520    8.7560    0.0120 C   0  0  0  0  0  0  0  0  0  0  0  0
   -4.6190    7.4990   -0.7880 C   0  0  2  0  0  0  0  0  0  0  0  0
   -5.2730    7.6760   -2.0510 O   0  0  0  0  0  0  0  0  0  0  0  0
   -5.9670    6.8700   -1.0850 C   0  0  0  0  0  0  0  0  0  0  0  0
   -7.2390    7.4780   -0.5850 C   0  0  0  0  0  0  0  0  0  0  0  0
   -6.0150    5.4160   -1.4370 C   0  0  0  0  0  0  0  0  0  0  0  0
   -1.0630   10.4130   -0.1040 C   0  0  1  0  0  0  0  0  0  0  0  0
    0.0540   10.0660    0.9160 C   0  0  0  0  0  0  0  0  0  0  0  0
    1.3000   10.8960    0.5150 C   0  0  0  0  0  0  0  0  0  0  0  0
    0.7680   11.9300   -0.5050 C   0  0  1  0  0  0  0  0  0  0  0  0
    0.1370   13.0630    0.3650 C   0  0  0  0  0  0  0  0  0  0  0  0
    1.8100   12.4970   -1.5230 C   0  0  2  0  0  0  0  0  0  0  0  0
    2.9740   13.2840   -0.8950 C   0  0  0  0  0  0  0  0  0  0  0  0
    2.7430   14.7510   -0.7440 C   0  0  0  0  0  0  0  0  0  0  0  0
    1.7710   15.4570   -1.3520 C   0  0  0  0  0  0  0  0  0  0  0  0
    0.8350   14.7930   -2.3700 C   0  0  1  0  0  0  0  0  0  0  0  0
    0.7100   15.6970   -3.6240 C   0  0  0  0  0  0  0  0  0  0  0  0
    0.2820   17.1200   -3.2790 C   0  0  0  0  0  0  0  0  0  0  0  0
    1.2680   17.7670   -2.3100 C   0  0  2  0  0  0  0  0  0  0  0  0
    2.5200   17.9470   -2.9780 O   0  0  0  0  0  0  0  0  0  0  0  0
    1.4830   16.9400   -1.0120 C   0  0  0  0  0  0  0  0  0  0  0  0
    0.2040   16.9990   -0.1390 C   0  0  0  0  0  0  0  0  0  0  0  0
    2.6030   17.6290   -0.1870 C   0  0  0  0  0  0  0  0  0  0  0  0
    1.1690   13.2830   -2.7370 C   0  0  1  0  0  0  0  0  0  0  0  0
    2.2100   13.2360   -3.8980 C   0  0  0  0  0  0  0  0  0  0  0  0
   -0.1340   12.5860   -3.2810 C   0  0  0  0  0  0  0  0  0  0  0  0
   -1.0640   11.9400   -2.2360 C   0  0  0  0  0  0  0  0  0  0  0  0
   -0.2730   11.0420   -1.2790 C   0  0  2  0  0  0  0  0  0  0  0  0
    0.3540    9.8810   -2.1220 C   0  0  0  0  0  0  0  0  0  0  0  0
   -0.8105    7.6273   -1.3267 H   0  0  0  0  0  0  0  0  0  0  0  0
   -2.2691    8.1151   -2.2546 H   0  0  0  0  0  0  0  0  0  0  0  0
   -0.8118    9.1653   -2.2546 H   0  0  0  0  0  0  0  0  0  0  0  0
   -1.9501    8.5137    0.4204 H   0  0  0  0  0  0  0  0  0  0  0  0
   -3.5208   10.6858   -0.1546 H   0  0  0  0  0  0  0  0  0  0  0  0
   -3.6066    9.7072   -1.6969 H   0  0  0  0  0  0  0  0  0  0  0  0
   -4.1259    8.4909    1.0286 H   0  0  0  0  0  0  0  0  0  0  0  0
   -5.4187    9.2805    0.0324 H   0  0  0  0  0  0  0  0  0  0  0  0
   -3.6863    7.0852   -0.3771 H   0  0  0  0  0  0  0  0  0  0  0  0
   -7.2380    7.4775    0.5150 H   0  0  0  0  0  0  0  0  0  0  0  0
   -7.3198    8.5121   -0.9512 H   0  0  0  0  0  0  0  0  0  0  0  0
   -8.0945    6.8914   -0.9512 H   0  0  0  0  0  0  0  0  0  0  0  0
   -6.0348    4.8161   -0.5152 H   0  0  0  0  0  0  0  0  0  0  0  0
   -6.9204    5.2113   -2.0272 H   0  0  0  0  0  0  0  0  0  0  0  0
   -5.1251    5.1521   -2.0272 H   0  0  0  0  0  0  0  0  0  0  0  0
   -1.8213   11.1209    0.2618 H   0  0  0  0  0  0  0  0  0  0  0  0
   -0.2667   10.3321    1.9340 H   0  0  0  0  0  0  0  0  0  0  0  0
    0.2772    8.9889    0.9058 H   0  0  0  0  0  0  0  0  0  0  0  0
    1.7288   11.4016    1.3928 H   0  0  0  0  0  0  0  0  0  0  0  0
    2.1010   10.2698    0.0952 H   0  0  0  0  0  0  0  0  0  0  0  0
    0.2700   12.8243    1.4305 H   0  0  0  0  0  0  0  0  0  0  0  0
    0.6329   14.0184    0.1386 H   0  0  0  0  0  0  0  0  0  0  0  0
   -0.9364   13.1444    0.1386 H   0  0  0  0  0  0  0  0  0  0  0  0
    2.2575   11.5814   -1.9370 H   0  0  0  0  0  0  0  0  0  0  0  0
    3.1675   12.8657    0.1038 H   0  0  0  0  0  0  0  0  0  0  0  0
    3.8217   13.1789   -1.5881 H   0  0  0  0  0  0  0  0  0  0  0  0
    3.4248   15.3021   -0.0796 H   0  0  0  0  0  0  0  0  0  0  0  0
   -0.1426   14.7062   -1.8733 H   0  0  0  0  0  0  0  0  0  0  0  0
    1.6860   15.7352   -4.1299 H   0  0  0  0  0  0  0  0  0  0  0  0
   -0.0654   15.2631   -4.2725 H   0  0  0  0  0  0  0  0  0  0  0  0
    0.2402   17.7170   -4.2020 H   0  0  0  0  0  0  0  0  0  0  0  0
   -0.7074   17.0824   -2.7998 H   0  0  0  0  0  0  0  0  0  0  0  0
    0.8407   18.7321   -2.0001 H   0  0  0  0  0  0  0  0  0  0  0  0
    2.8380   18.8430   -2.7720 H   0  0  0  0  0  0  0  0  0  0  0  0
    0.4850   16.9860    0.9244 H   0  0  0  0  0  0  0  0  0  0  0  0
   -0.3491   17.9236   -0.3609 H   0  0  0  0  0  0  0  0  0  0  0  0
   -0.4318   16.1292   -0.3609 H   0  0  0  0  0  0  0  0  0  0  0  0
    2.3981   17.5029    0.8864 H   0  0  0  0  0  0  0  0  0  0  0  0
    3.5729   17.1712   -0.4314 H   0  0  0  0  0  0  0  0  0  0  0  0
    2.6317   18.7011   -0.4314 H   0  0  0  0  0  0  0  0  0  0  0  0
    3.2257   13.1901   -3.4781 H   0  0  0  0  0  0  0  0  0  0  0  0
    2.0287   12.3451   -4.5172 H   0  0  0  0  0  0  0  0  0  0  0  0
    2.1097   14.1396   -4.5172 H   0  0  0  0  0  0  0  0  0  0  0  0
   -0.7174   13.3463   -3.8210 H   0  0  0  0  0  0  0  0  0  0  0  0
    0.2237   11.7521   -3.9028 H   0  0  0  0  0  0  0  0  0  0  0  0
   -1.5610   12.7327   -1.6576 H   0  0  0  0  0  0  0  0  0  0  0  0
   -1.8078   11.3233   -2.7618 H   0  0  0  0  0  0  0  0  0  0  0  0
    0.7661    9.1178   -1.4455 H   0  0  0  0  0  0  0  0  0  0  0  0
   -0.4221    9.4280   -2.7564 H   0  0  0  0  0  0  0  0  0  0  0  0
    1.1584   10.2816   -2.7564 H   0  0  0  0  0  0  0  0  0  0  0  0
  1  2  1  0
  2  3  1  0
  3  4  1  0
  4  5  1  0
  5  6  1  0
  6  7  1  0
  7  8  1  0
  7  9  1  0
  2 10  1  0
 10 11  1  0
 11 12  1  0
 12 13  1  0
 13 14  1  1
 13 15  1  0
 15 16  1  0
 16 17  1  0
 17 18  2  0
 18 19  1  0
 19 20  1  0
 20 21  1  0
 21 22  1  0
 22 23  1  0
 22 24  1  0
 24 25  1  0
 24 26  1  0
 19 27  1  0
 27 28  1  6
 27 29  1  0
 29 30  1  0
 30 31  1  0
 31 32  1  6
  7  5  1  0
 31 10  1  0
 31 13  1  0
 27 15  1  0
 24 18  1  0
  1 33  1  0
  1 34  1  0
  1 35  1  0
  2 36  1  1
  3 37  1  0
  3 38  1  0
  4 39  1  0
  4 40  1  0
  5 41  1  6
  8 42  1  0
  8 43  1  0
  8 44  1  0
  9 45  1  0
  9 46  1  0
  9 47  1  0
 10 48  1  1
 11 49  1  0
 11 50  1  0
 12 51  1  0
 12 52  1  0
 14 53  1  0
 14 54  1  0
 14 55  1  0
 15 56  1  6
 16 57  1  0
 16 58  1  0
 17 59  1  0
 19 60  1  1
 20 61  1  0
 20 62  1  0
 21 63  1  0
 21 64  1  0
 22 65  1  1
 23 66  1  0
 25 67  1  0
 25 68  1  0
 25 69  1  0
 26 70  1  0
 26 71  1  0
 26 72  1  0
 28 73  1  0
 28 74  1  0
 28 75  1  0
 29 76  1  0
 29 77  1  0
 30 78  1  0
 30 79  1  0
 32 80  1  0
 32 81  1  0
 32 82  1  0
M  END
>  <meeko>  (1) 
{"is_sidechain": [false], "intermolecular_energy": 2.731, "internal_energy": -0.839}

$$$$
EPH_relaxed_0001_pdb2pqr_Repair_109_r2_0001_out
     RDKit          3D

 82 86  0  0  0  0  0  0  0  0999 V2000
    4.2050   17.5780   -0.5930 C   0  0  0  0  0  0  0  0  0  0  0  0
    2.8450   18.1390   -0.1700 C   0  0  2  0  0  0  0  0  0  0  0  0
    2.9020   18.8200    1.2120 C   0  0  0  0  0  0  0  0  0  0  0  0
    4.2790   18.7460    1.8780 C   0  0  0  0  0  0  0  0  0  0  0  0
    4.2500   19.2900    3.2740 C   0  0  2  0  0  0  0  0  0  0  0  0
    5.3200   20.1910    3.5880 O   0  0  0  0  0  0  0  0  0  0  0  0
    5.2940   18.9570    4.3240 C   0  0  0  0  0  0  0  0  0  0  0  0
    6.4400   18.0440    4.0220 C   0  0  0  0  0  0  0  0  0  0  0  0
    4.9350   19.1240    5.7680 C   0  0  0  0  0  0  0  0  0  0  0  0
    1.8030   17.0260   -0.1600 C   0  0  1  0  0  0  0  0  0  0  0  0
    0.3730   17.5440   -0.4680 C   0  0  0  0  0  0  0  0  0  0  0  0
   -0.3420   16.4280   -1.2730 C   0  0  0  0  0  0  0  0  0  0  0  0
    0.5700   15.1880   -1.1160 C   0  0  1  0  0  0  0  0  0  0  0  0
    0.2000   14.5930    0.2790 C   0  0  0  0  0  0  0  0  0  0  0  0
    0.4740   14.1120   -2.2460 C   0  0  2  0  0  0  0  0  0  0  0  0
   -0.9030   13.4410   -2.3920 C   0  0  0  0  0  0  0  0  0  0  0  0
   -1.0970   12.2010   -1.5830 C   0  0  0  0  0  0  0  0  0  0  0  0
   -0.1180   11.4910   -0.9930 C   0  0  0  0  0  0  0  0  0  0  0  0
    1.3570   11.8640   -1.1950 C   0  0  1  0  0  0  0  0  0  0  0  0
    2.1750   10.5850   -1.5140 C   0  0  0  0  0  0  0  0  0  0  0  0
    1.9880    9.4930   -0.4650 C   0  0  0  0  0  0  0  0  0  0  0  0
    0.5160    9.1090   -0.3360 C   0  0  2  0  0  0  0  0  0  0  0  0
    0.0950    8.4820   -1.5510 O   0  0  0  0  0  0  0  0  0  0  0  0
   -0.4080   10.3190   -0.0240 C   0  0  0  0  0  0  0  0  0  0  0  0
   -0.1530   10.8090    1.4230 C   0  0  0  0  0  0  0  0  0  0  0  0
   -1.8780    9.8180   -0.0590 C   0  0  0  0  0  0  0  0  0  0  0  0
    1.6390   13.0420   -2.2230 C   0  0  1  0  0  0  0  0  0  0  0  0
    1.7490   12.4710   -3.6700 C   0  0  0  0  0  0  0  0  0  0  0  0
    3.0370   13.6870   -1.8930 C   0  0  0  0  0  0  0  0  0  0  0  0
    3.0500   14.8270   -0.8560 C   0  0  0  0  0  0  0  0  0  0  0  0
    1.9820   15.8760   -1.1810 C   0  0  2  0  0  0  0  0  0  0  0  0
    2.3390   16.5080   -2.5700 C   0  0  0  0  0  0  0  0  0  0  0  0
    4.7957   17.3343    0.3024 H   0  0  0  0  0  0  0  0  0  0  0  0
    4.0558   16.6680   -1.1927 H   0  0  0  0  0  0  0  0  0  0  0  0
    4.7408   18.3285   -1.1927 H   0  0  0  0  0  0  0  0  0  0  0  0
    2.5612   18.9068   -0.9048 H   0  0  0  0  0  0  0  0  0  0  0  0
    2.6323   19.8793    1.0886 H   0  0  0  0  0  0  0  0  0  0  0  0
    2.1995   18.2815    1.8651 H   0  0  0  0  0  0  0  0  0  0  0  0
    4.6026   17.6952    1.9116 H   0  0  0  0  0  0  0  0  0  0  0  0
    4.9786   19.3555    1.2872 H   0  0  0  0  0  0  0  0  0  0  0  0
    3.1507   19.2552    3.2897 H   0  0  0  0  0  0  0  0  0  0  0  0
    6.8846   17.6898    4.9637 H   0  0  0  0  0  0  0  0  0  0  0  0
    6.0794   17.1830    3.4401 H   0  0  0  0  0  0  0  0  0  0  0  0
    7.1987   18.5879    3.4401 H   0  0  0  0  0  0  0  0  0  0  0  0
    5.7539   18.7430    6.3959 H   0  0  0  0  0  0  0  0  0  0  0  0
    4.7725   20.1902    5.9845 H   0  0  0  0  0  0  0  0  0  0  0  0
    4.0148   18.5615    5.9845 H   0  0  0  0  0  0  0  0  0  0  0  0
    1.9478   16.6464    0.8622 H   0  0  0  0  0  0  0  0  0  0  0  0
   -0.1684   17.7418    0.4689 H   0  0  0  0  0  0  0  0  0  0  0  0
    0.4072   18.4835   -1.0391 H   0  0  0  0  0  0  0  0  0  0  0  0
   -1.3415   16.2299   -0.8586 H   0  0  0  0  0  0  0  0  0  0  0  0
   -0.4919   16.7047   -2.3270 H   0  0  0  0  0  0  0  0  0  0  0  0
    0.6025   15.2403    1.0721 H   0  0  0  0  0  0  0  0  0  0  0  0
   -0.8943   14.5340    0.3739 H   0  0  0  0  0  0  0  0  0  0  0  0
    0.6311   13.5855    0.3739 H   0  0  0  0  0  0  0  0  0  0  0  0
    0.6116   14.7133   -3.1568 H   0  0  0  0  0  0  0  0  0  0  0  0
   -1.6697   14.1687   -2.0879 H   0  0  0  0  0  0  0  0  0  0  0  0
   -0.9813   13.1328   -3.4450 H   0  0  0  0  0  0  0  0  0  0  0  0
   -2.1276   11.8371   -1.4588 H   0  0  0  0  0  0  0  0  0  0  0  0
    1.6959   12.2951   -0.2414 H   0  0  0  0  0  0  0  0  0  0  0  0
    1.8523   10.1947   -2.4905 H   0  0  0  0  0  0  0  0  0  0  0  0
    3.2393   10.8627   -1.5202 H   0  0  0  0  0  0  0  0  0  0  0  0
    2.5672    8.6059   -0.7611 H   0  0  0  0  0  0  0  0  0  0  0  0
    2.3386    9.8738    0.5056 H   0  0  0  0  0  0  0  0  0  0  0  0
    0.4283    8.4202    0.5172 H   0  0  0  0  0  0  0  0  0  0  0  0
    0.4940    7.5960   -1.5790 H   0  0  0  0  0  0  0  0  0  0  0  0
   -0.5399   10.0655    2.1354 H   0  0  0  0  0  0  0  0  0  0  0  0
    0.9277   10.9401    1.5806 H   0  0  0  0  0  0  0  0  0  0  0  0
   -0.6657   11.7694    1.5806 H   0  0  0  0  0  0  0  0  0  0  0  0
   -2.2471    9.6922    0.9696 H   0  0  0  0  0  0  0  0  0  0  0  0
   -2.5037   10.5536   -0.5857 H   0  0  0  0  0  0  0  0  0  0  0  0
   -1.9242    8.8534   -0.5857 H   0  0  0  0  0  0  0  0  0  0  0  0
    1.9569   11.3918   -3.6235 H   0  0  0  0  0  0  0  0  0  0  0  0
    0.8019   12.6393   -4.2036 H   0  0  0  0  0  0  0  0  0  0  0  0
    2.5658   12.9791   -4.2036 H   0  0  0  0  0  0  0  0  0  0  0  0
    3.6916   12.8873   -1.5163 H   0  0  0  0  0  0  0  0  0  0  0  0
    3.3689   14.1505   -2.8338 H   0  0  0  0  0  0  0  0  0  0  0  0
    2.8513   14.4083    0.1416 H   0  0  0  0  0  0  0  0  0  0  0  0
    4.0370   15.3121   -0.8804 H   0  0  0  0  0  0  0  0  0  0  0  0
    2.8746   17.4562   -2.4146 H   0  0  0  0  0  0  0  0  0  0  0  0
    2.9785   15.8140   -3.1351 H   0  0  0  0  0  0  0  0  0  0  0  0
    1.4145   16.6974   -3.1351 H   0  0  0  0  0  0  0  0  0  0  0  0
  1  2  1  0
  2  3  1  0
  3  4  1  0
  4  5  1  0
  5  6  1  0
  6  7  1  0
  7  8  1  0
  7  9  1  0
  2 10  1  0
 10 11  1  0
 11 12  1  0
 12 13  1  0
 13 14  1  1
 13 15  1  0
 15 16  1  0
 16 17  1  0
 17 18  2  0
 18 19  1  0
 19 20  1  0
 20 21  1  0
 21 22  1  0
 22 23  1  0
 22 24  1  0
 24 25  1  0
 24 26  1  0
 19 27  1  0
 27 28  1  6
 27 29  1  0
 29 30  1  0
 30 31  1  0
 31 32  1  6
  7  5  1  0
 31 10  1  0
 31 13  1  0
 27 15  1  0
 24 18  1  0
  1 33  1  0
  1 34  1  0
  1 35  1  0
  2 36  1  6
  3 37  1  0
  3 38  1  0
  4 39  1  0
  4 40  1  0
  5 41  1  1
  8 42  1  0
  8 43  1  0
  8 44  1  0
  9 45  1  0
  9 46  1  0
  9 47  1  0
 10 48  1  1
 11 49  1  0
 11 50  1  0
 12 51  1  0
 12 52  1  0
 14 53  1  0
 14 54  1  0
 14 55  1  0
 15 56  1  6
 16 57  1  0
 16 58  1  0
 17 59  1  0
 19 60  1  1
 20 61  1  0
 20 62  1  0
 21 63  1  0
 21 64  1  0
 22 65  1  1
 23 66  1  0
 25 67  1  0
 25 68  1  0
 25 69  1  0
 26 70  1  0
 26 71  1  0
 26 72  1  0
 28 73  1  0
 28 74  1  0
 28 75  1  0
 29 76  1  0
 29 77  1  0
 30 78  1  0
 30 79  1  0
 32 80  1  0
 32 81  1  0
 32 82  1  0
M  END
>  <meeko>  (2) 
{"is_sidechain": [false], "intermolecular_energy": 2.731, "internal_energy": -0.839}

$$$$
EPH_relaxed_0001_pdb2pqr_Repair_109_r2_0001_out
     RDKit          3D

 82 86  0  0  0  0  0  0  0  0999 V2000
    2.4480   17.9420   -2.6490 C   0  0  0  0  0  0  0  0  0  0  0  0
    1.1180   17.6010   -1.9720 C   0  0  2  0  0  0  0  0  0  0  0  0
    1.2120   17.6770   -0.4350 C   0  0  0  0  0  0  0  0  0  0  0  0
    0.8900   19.0610    0.1350 C   0  0  0  0  0  0  0  0  0  0  0  0
   -0.5450   19.1680    0.5540 C   0  0  2  0  0  0  0  0  0  0  0  0
   -1.4320   18.2580   -0.1100 O   0  0  0  0  0  0  0  0  0  0  0  0
   -1.6510   19.6550   -0.3630 C   0  0  0  0  0  0  0  0  0  0  0  0
   -1.3690   20.0700   -1.7730 C   0  0  0  0  0  0  0  0  0  0  0  0
   -2.9070   20.1900    0.2510 C   0  0  0  0  0  0  0  0  0  0  0  0
    0.6590   16.2120   -2.3980 C   0  0  1  0  0  0  0  0  0  0  0  0
    0.7410   16.0000   -3.9330 C   0  0  0  0  0  0  0  0  0  0  0  0
    1.1320   14.5160   -4.1590 C   0  0  0  0  0  0  0  0  0  0  0  0
    0.9370   13.8470   -2.7790 C   0  0  1  0  0  0  0  0  0  0  0  0
   -0.5940   13.5600   -2.6850 C   0  0  0  0  0  0  0  0  0  0  0  0
    1.7830   12.5600   -2.5100 C   0  0  2  0  0  0  0  0  0  0  0  0
    1.4870   11.3760   -3.4480 C   0  0  0  0  0  0  0  0  0  0  0  0
    0.4260   10.4380   -2.9760 C   0  0  0  0  0  0  0  0  0  0  0  0
   -0.0620   10.3760   -1.7230 C   0  0  0  0  0  0  0  0  0  0  0  0
    0.5280   11.2430   -0.6040 C   0  0  1  0  0  0  0  0  0  0  0  0
    0.7610   10.3710    0.6580 C   0  0  0  0  0  0  0  0  0  0  0  0
   -0.4980    9.6290    1.0970 C   0  0  0  0  0  0  0  0  0  0  0  0
   -1.0220    8.7340   -0.0230 C   0  0  2  0  0  0  0  0  0  0  0  0
   -0.0770    7.6840   -0.2530 O   0  0  0  0  0  0  0  0  0  0  0  0
   -1.2840    9.5010   -1.3490 C   0  0  0  0  0  0  0  0  0  0  0  0
   -2.5120   10.4280   -1.1800 C   0  0  0  0  0  0  0  0  0  0  0  0
   -1.6720    8.4600   -2.4340 C   0  0  0  0  0  0  0  0  0  0  0  0
    1.8060   12.1040   -0.9940 C   0  0  1  0  0  0  0  0  0  0  0  0
    3.0990   11.2540   -0.8040 C   0  0  0  0  0  0  0  0  0  0  0  0
    1.9260   13.3230   -0.0050 C   0  0  0  0  0  0  0  0  0  0  0  0
    1.1630   14.6060   -0.3870 C   0  0  0  0  0  0  0  0  0  0  0  0
    1.4460   15.0000   -1.8400 C   0  0  2  0  0  0  0  0  0  0  0  0
    2.9760   15.3160   -1.9600 C   0  0  0  0  0  0  0  0  0  0  0  0
    3.2108   18.1376   -1.8810 H   0  0  0  0  0  0  0  0  0  0  0  0
    2.7675   17.0967   -3.2762 H   0  0  0  0  0  0  0  0  0  0  0  0
    2.3214   18.8367   -3.2762 H   0  0  0  0  0  0  0  0  0  0  0  0
    0.3809   18.3511   -2.2946 H   0  0  0  0  0  0  0  0  0  0  0  0
    0.5033   16.9523   -0.0077 H   0  0  0  0  0  0  0  0  0  0  0  0
    2.2550   17.4539   -0.1659 H   0  0  0  0  0  0  0  0  0  0  0  0
    1.5313   19.2443    1.0097 H   0  0  0  0  0  0  0  0  0  0  0  0
    1.0739   19.8072   -0.6520 H   0  0  0  0  0  0  0  0  0  0  0  0
   -0.2499   19.4592    1.5729 H   0  0  0  0  0  0  0  0  0  0  0  0
   -0.7508   20.9798   -1.7708 H   0  0  0  0  0  0  0  0  0  0  0  0
   -0.8316   19.2628   -2.2923 H   0  0  0  0  0  0  0  0  0  0  0  0
   -2.3174   20.2724   -2.2923 H   0  0  0  0  0  0  0  0  0  0  0  0
   -2.8233   20.1543    1.3472 H   0  0  0  0  0  0  0  0  0  0  0  0
   -3.0584   21.2307   -0.0715 H   0  0  0  0  0  0  0  0  0  0  0  0
   -3.7623   19.5781   -0.0715 H   0  0  0  0  0  0  0  0  0  0  0  0
   -0.3604   16.2207   -1.9848 H   0  0  0  0  0  0  0  0  0  0  0  0
   -0.2340   16.2098   -4.3971 H   0  0  0  0  0  0  0  0  0  0  0  0
    1.4801   16.6769   -4.3865 H   0  0  0  0  0  0  0  0  0  0  0  0
    0.4773   14.0521   -4.9114 H   0  0  0  0  0  0  0  0  0  0  0  0
    2.1607   14.4079   -4.5334 H   0  0  0  0  0  0  0  0  0  0  0  0
   -0.8923   13.5041   -1.6277 H   0  0  0  0  0  0  0  0  0  0  0  0
   -1.1499   14.3696   -3.1805 H   0  0  0  0  0  0  0  0  0  0  0  0
   -0.8190   12.6040   -3.1805 H   0  0  0  0  0  0  0  0  0  0  0  0
    2.8017   12.8917   -2.7595 H   0  0  0  0  0  0  0  0  0  0  0  0
    1.1727   11.7831   -4.4203 H   0  0  0  0  0  0  0  0  0  0  0  0
    2.4146   10.7867   -3.4960 H   0  0  0  0  0  0  0  0  0  0  0  0
    0.0076    9.7383   -3.7145 H   0  0  0  0  0  0  0  0  0  0  0  0
   -0.2242   12.0167   -0.3905 H   0  0  0  0  0  0  0  0  0  0  0  0
    1.5461    9.6330    0.4367 H   0  0  0  0  0  0  0  0  0  0  0  0
    1.0560   11.0423    1.4779 H   0  0  0  0  0  0  0  0  0  0  0  0
   -0.2626    9.0079    1.9738 H   0  0  0  0  0  0  0  0  0  0  0  0
   -1.2727   10.3690    1.3467 H   0  0  0  0  0  0  0  0  0  0  0  0
   -1.9925    8.3315    0.3027 H   0  0  0  0  0  0  0  0  0  0  0  0
    0.4220    7.5510    0.5710 H   0  0  0  0  0  0  0  0  0  0  0  0
   -2.7125   10.5794   -0.1091 H   0  0  0  0  0  0  0  0  0  0  0  0
   -2.3070   11.3985   -1.6554 H   0  0  0  0  0  0  0  0  0  0  0  0
   -3.3892    9.9649   -1.6554 H   0  0  0  0  0  0  0  0  0  0  0  0
   -2.0167    7.5352   -1.9482 H   0  0  0  0  0  0  0  0  0  0  0  0
   -2.4787    8.8674   -3.0612 H   0  0  0  0  0  0  0  0  0  0  0  0
   -0.7955    8.2400   -3.0612 H   0  0  0  0  0  0  0  0  0  0  0  0
    3.2975   11.1235    0.2700 H   0  0  0  0  0  0  0  0  0  0  0  0
    2.9625   10.2689   -1.2740 H   0  0  0  0  0  0  0  0  0  0  0  0
    3.9493   11.7699   -1.2740 H   0  0  0  0  0  0  0  0  0  0  0  0
    1.5527   12.9936    0.9759 H   0  0  0  0  0  0  0  0  0  0  0  0
    2.9892   13.6045   -0.0232 H   0  0  0  0  0  0  0  0  0  0  0  0
    0.0836   14.4327   -0.2648 H   0  0  0  0  0  0  0  0  0  0  0  0
    1.4985   15.4223    0.2695 H   0  0  0  0  0  0  0  0  0  0  0  0
    3.4118   15.4060   -0.9540 H   0  0  0  0  0  0  0  0  0  0  0  0
    3.4768   14.5023   -2.5051 H   0  0  0  0  0  0  0  0  0  0  0  0
    3.1135   16.2615   -2.5051 H   0  0  0  0  0  0  0  0  0  0  0  0
  1  2  1  0
  2  3  1  0
  3  4  1  0
  4  5  1  0
  5  6  1  0
  6  7  1  0
  7  8  1  0
  7  9  1  0
  2 10  1  0
 10 11  1  0
 11 12  1  0
 12 13  1  0
 13 14  1  1
 13 15  1  0
 15 16  1  0
 16 17  1  0
 17 18  2  0
 18 19  1  0
 19 20  1  0
 20 21  1  0
 21 22  1  0
 22 23  1  0
 22 24  1  0
 24 25  1  0
 24 26  1  0
 19 27  1  0
 27 28  1  6
 27 29  1  0
 29 30  1  0
 30 31  1  0
 31 32  1  1
  7  5  1  0
 31 10  1  0
 31 13  1  0
 27 15  1  0
 24 18  1  0
  1 33  1  0
  1 34  1  0
  1 35  1  0
  2 36  1  6
  3 37  1  0
  3 38  1  0
  4 39  1  0
  4 40  1  0
  5 41  1  1
  8 42  1  0
  8 43  1  0
  8 44  1  0
  9 45  1  0
  9 46  1  0
  9 47  1  0
 10 48  1  1
 11 49  1  0
 11 50  1  0
 12 51  1  0
 12 52  1  0
 14 53  1  0
 14 54  1  0
 14 55  1  0
 15 56  1  6
 16 57  1  0
 16 58  1  0
 17 59  1  0
 19 60  1  1
 20 61  1  0
 20 62  1  0
 21 63  1  0
 21 64  1  0
 22 65  1  1
 23 66  1  0
 25 67  1  0
 25 68  1  0
 25 69  1  0
 26 70  1  0
 26 71  1  0
 26 72  1  0
 28 73  1  0
 28 74  1  0
 28 75  1  0
 29 76  1  0
 29 77  1  0
 30 78  1  0
 30 79  1  0
 32 80  1  0
 32 81  1  0
 32 82  1  0
M  END
>  <meeko>  (3) 
{"is_sidechain": [false], "intermolecular_energy": 2.731, "internal_energy": -0.839}

$$$$
EPH_relaxed_0001_pdb2pqr_Repair_109_r2_0001_out
     RDKit          3D

 82 86  0  0  0  0  0  0  0  0999 V2000
    2.2070   18.0150   -2.5450 C   0  0  0  0  0  0  0  0  0  0  0  0
    0.6860   17.8680   -2.6480 C   0  0  2  0  0  0  0  0  0  0  0  0
   -0.0320   18.3490   -1.3710 C   0  0  0  0  0  0  0  0  0  0  0  0
    0.6730   17.9350   -0.0760 C   0  0  0  0  0  0  0  0  0  0  0  0
    1.2150   19.1210    0.6630 C   0  0  2  0  0  0  0  0  0  0  0  0
    2.1130   19.9410   -0.0960 O   0  0  0  0  0  0  0  0  0  0  0  0
    2.6760   19.2720    1.0450 C   0  0  0  0  0  0  0  0  0  0  0  0
    3.6860   18.2230    0.6990 C   0  0  0  0  0  0  0  0  0  0  0  0
    3.0290   20.1940    2.1700 C   0  0  0  0  0  0  0  0  0  0  0  0
    0.3220   16.4160   -2.9350 C   0  0  1  0  0  0  0  0  0  0  0  0
    0.4050   16.0670   -4.4450 C   0  0  0  0  0  0  0  0  0  0  0  0
    0.8970   14.5990   -4.5380 C   0  0  0  0  0  0  0  0  0  0  0  0
    0.7640   14.0510   -3.0980 C   0  0  1  0  0  0  0  0  0  0  0  0
   -0.7430   13.6690   -2.9520 C   0  0  0  0  0  0  0  0  0  0  0  0
    1.7010   12.8570   -2.7230 C   0  0  2  0  0  0  0  0  0  0  0  0
    1.4800   11.5730   -3.5420 C   0  0  0  0  0  0  0  0  0  0  0  0
    0.4930   10.6120   -2.9670 C   0  0  0  0  0  0  0  0  0  0  0  0
    0.0230   10.6340   -1.7060 C   0  0  0  0  0  0  0  0  0  0  0  0
    0.5620   11.6420   -0.6820 C   0  0  1  0  0  0  0  0  0  0  0  0
    0.8680   10.9120    0.6520 C   0  0  0  0  0  0  0  0  0  0  0  0
   -0.3310   10.1290    1.1790 C   0  0  0  0  0  0  0  0  0  0  0  0
   -0.8010    9.0970    0.1560 C   0  0  2  0  0  0  0  0  0  0  0  0
    0.2130    8.0990    0.0100 O   0  0  0  0  0  0  0  0  0  0  0  0
   -1.1300    9.7160   -1.2310 C   0  0  0  0  0  0  0  0  0  0  0  0
   -2.4190   10.5680   -1.1290 C   0  0  0  0  0  0  0  0  0  0  0  0
   -1.4540    8.5530   -2.2080 C   0  0  0  0  0  0  0  0  0  0  0  0
    1.7710   12.5490   -1.1730 C   0  0  1  0  0  0  0  0  0  0  0  0
    3.1230   11.8130   -0.9250 C   0  0  0  0  0  0  0  0  0  0  0  0
    1.8140   13.8620   -0.3040 C   0  0  0  0  0  0  0  0  0  0  0  0
    0.9590   15.0470   -0.7910 C   0  0  0  0  0  0  0  0  0  0  0  0
    1.2000   15.3210   -2.2790 C   0  0  2  0  0  0  0  0  0  0  0  0
    2.7020   15.7290   -2.4540 C   0  0  0  0  0  0  0  0  0  0  0  0
    2.5017   18.0435   -1.4856 H   0  0  0  0  0  0  0  0  0  0  0  0
    2.6923   17.1596   -3.0377 H   0  0  0  0  0  0  0  0  0  0  0  0
    2.5195   18.9475   -3.0377 H   0  0  0  0  0  0  0  0  0  0  0  0
    0.3475   18.5067   -3.4772 H   0  0  0  0  0  0  0  0  0  0  0  0
   -0.0913   19.4471   -1.3985 H   0  0  0  0  0  0  0  0  0  0  0  0
   -1.0248   17.8754   -1.3624 H   0  0  0  0  0  0  0  0  0  0  0  0
   -0.0467   17.4108    0.5699 H   0  0  0  0  0  0  0  0  0  0  0  0
    1.5165   17.2797   -0.3389 H   0  0  0  0  0  0  0  0  0  0  0  0
    0.2866   19.2116    1.2460 H   0  0  0  0  0  0  0  0  0  0  0  0
    4.0997   17.7933    1.6232 H   0  0  0  0  0  0  0  0  0  0  0  0
    3.2033   17.4294    0.1097 H   0  0  0  0  0  0  0  0  0  0  0  0
    4.4973   18.6753    0.1097 H   0  0  0  0  0  0  0  0  0  0  0  0
    2.8368   19.6919    3.1297 H   0  0  0  0  0  0  0  0  0  0  0  0
    4.0936   20.4627    2.1036 H   0  0  0  0  0  0  0  0  0  0  0  0
    2.4161   21.1050    2.1036 H   0  0  0  0  0  0  0  0  0  0  0  0
   -0.6917   16.3912   -2.5087 H   0  0  0  0  0  0  0  0  0  0  0  0
   -0.5864   16.1646   -4.9115 H   0  0  0  0  0  0  0  0  0  0  0  0
    1.0907   16.7477   -4.9708 H   0  0  0  0  0  0  0  0  0  0  0  0
    0.2687   14.0221   -5.2326 H   0  0  0  0  0  0  0  0  0  0  0  0
    1.9268   14.5275   -4.9181 H   0  0  0  0  0  0  0  0  0  0  0  0
   -1.0029   13.6031   -1.8852 H   0  0  0  0  0  0  0  0  0  0  0  0
   -1.3646   14.4380   -3.4340 H   0  0  0  0  0  0  0  0  0  0  0  0
   -0.9232   12.6968   -3.4340 H   0  0  0  0  0  0  0  0  0  0  0  0
    2.6918   13.2333   -3.0177 H   0  0  0  0  0  0  0  0  0  0  0  0
    1.1275   11.8644   -4.5424 H   0  0  0  0  0  0  0  0  0  0  0  0
    2.4464   11.0477   -3.5511 H   0  0  0  0  0  0  0  0  0  0  0  0
    0.1180    9.8185   -3.6302 H   0  0  0  0  0  0  0  0  0  0  0  0
   -0.2406   12.3783   -0.5283 H   0  0  0  0  0  0  0  0  0  0  0  0
    1.7013   10.2129    0.4883 H   0  0  0  0  0  0  0  0  0  0  0  0
    1.1223   11.6769    1.4005 H   0  0  0  0  0  0  0  0  0  0  0  0
   -0.0438    9.6118    2.1064 H   0  0  0  0  0  0  0  0  0  0  0  0
   -1.1538   10.8335    1.3706 H   0  0  0  0  0  0  0  0  0  0  0  0
   -1.7370    8.6596    0.5336 H   0  0  0  0  0  0  0  0  0  0  0  0
    0.2820    7.6230    0.8550 H   0  0  0  0  0  0  0  0  0  0  0  0
   -2.6672   10.7321   -0.0700 H   0  0  0  0  0  0  0  0  0  0  0  0
   -2.2575   11.5378   -1.6223 H   0  0  0  0  0  0  0  0  0  0  0  0
   -3.2480   10.0393   -1.6223 H   0  0  0  0  0  0  0  0  0  0  0  0
   -1.7056    7.6500   -1.6325 H   0  0  0  0  0  0  0  0  0  0  0  0
   -2.3081    8.8337   -2.8418 H   0  0  0  0  0  0  0  0  0  0  0  0
   -0.5778    8.3516   -2.8418 H   0  0  0  0  0  0  0  0  0  0  0  0
    3.2961   11.7188    0.1572 H   0  0  0  0  0  0  0  0  0  0  0  0
    3.0840   10.8116   -1.3786 H   0  0  0  0  0  0  0  0  0  0  0  0
    3.9428   12.3893   -1.3786 H   0  0  0  0  0  0  0  0  0  0  0  0
    1.4746   13.6013    0.7093 H   0  0  0  0  0  0  0  0  0  0  0  0
    2.8544   14.2137   -0.3663 H   0  0  0  0  0  0  0  0  0  0  0  0
   -0.1042   14.8115   -0.6359 H   0  0  0  0  0  0  0  0  0  0  0  0
    1.2420   15.9428   -0.2187 H   0  0  0  0  0  0  0  0  0  0  0  0
    3.1654   15.8549   -1.4644 H   0  0  0  0  0  0  0  0  0  0  0  0
    3.2332   14.9426   -3.0103 H   0  0  0  0  0  0  0  0  0  0  0  0
    2.7623   16.6761   -3.0103 H   0  0  0  0  0  0  0  0  0  0  0  0
  1  2  1  0
  2  3  1  0
  3  4  1  0
  4  5  1  0
  5  6  1  0
  6  7  1  0
  7  8  1  0
  7  9  1  0
  2 10  1  0
 10 11  1  0
 11 12  1  0
 12 13  1  0
 13 14  1  1
 13 15  1  0
 15 16  1  0
 16 17  1  0
 17 18  2  0
 18 19  1  0
 19 20  1  0
 20 21  1  0
 21 22  1  0
 22 23  1  0
 22 24  1  0
 24 25  1  0
 24 26  1  0
 19 27  1  0
 27 28  1  6
 27 29  1  0
 29 30  1  0
 30 31  1  0
 31 32  1  1
  7  5  1  0
 31 10  1  0
 31 13  1  0
 27 15  1  0
 24 18  1  0
  1 33  1  0
  1 34  1  0
  1 35  1  0
  2 36  1  6
  3 37  1  0
  3 38  1  0
  4 39  1  0
  4 40  1  0
  5 41  1  1
  8 42  1  0
  8 43  1  0
  8 44  1  0
  9 45  1  0
  9 46  1  0
  9 47  1  0
 10 48  1  1
 11 49  1  0
 11 50  1  0
 12 51  1  0
 12 52  1  0
 14 53  1  0
 14 54  1  0
 14 55  1  0
 15 56  1  6
 16 57  1  0
 16 58  1  0
 17 59  1  0
 19 60  1  1
 20 61  1  0
 20 62  1  0
 21 63  1  0
 21 64  1  0
 22 65  1  1
 23 66  1  0
 25 67  1  0
 25 68  1  0
 25 69  1  0
 26 70  1  0
 26 71  1  0
 26 72  1  0
 28 73  1  0
 28 74  1  0
 28 75  1  0
 29 76  1  0
 29 77  1  0
 30 78  1  0
 30 79  1  0
 32 80  1  0
 32 81  1  0
 32 82  1  0
M  END
>  <meeko>  (4) 
{"is_sidechain": [false], "intermolecular_energy": 2.731, "internal_energy": -0.839}

$$$$
EPH_relaxed_0001_pdb2pqr_Repair_109_r2_0001_out
     RDKit          3D

 82 86  0  0  0  0  0  0  0  0999 V2000
    3.6590   17.8060    0.6590 C   0  0  0  0  0  0  0  0  0  0  0  0
    2.7790   18.1080   -0.5570 C   0  0  2  0  0  0  0  0  0  0  0  0
    2.0850   19.4810   -0.4450 C   0  0  0  0  0  0  0  0  0  0  0  0
    1.1900   19.6190    0.7890 C   0  0  0  0  0  0  0  0  0  0  0  0
   -0.1560   20.1770    0.4370 C   0  0  2  0  0  0  0  0  0  0  0  0
   -1.1020   20.1820    1.5150 O   0  0  0  0  0  0  0  0  0  0  0  0
   -1.4220   19.3420    0.3940 C   0  0  0  0  0  0  0  0  0  0  0  0
   -1.4020   17.8780    0.7060 C   0  0  0  0  0  0  0  0  0  0  0  0
   -2.5780   19.8360   -0.4190 C   0  0  0  0  0  0  0  0  0  0  0  0
    1.7360   17.0100   -0.7290 C   0  0  1  0  0  0  0  0  0  0  0  0
    0.5240   17.4660   -1.5850 C   0  0  0  0  0  0  0  0  0  0  0  0
    0.0620   16.2320   -2.4010 C   0  0  0  0  0  0  0  0  0  0  0  0
    0.7980   15.0370   -1.7510 C   0  0  1  0  0  0  0  0  0  0  0  0
   -0.0510   14.6800   -0.4910 C   0  0  0  0  0  0  0  0  0  0  0  0
    1.0310   13.7890   -2.6630 C   0  0  2  0  0  0  0  0  0  0  0  0
   -0.2510   13.1000   -3.1640 C   0  0  0  0  0  0  0  0  0  0  0  0
   -0.7740   12.0110   -2.2870 C   0  0  0  0  0  0  0  0  0  0  0  0
   -0.0900   11.4090   -1.2960 C   0  0  0  0  0  0  0  0  0  0  0  0
    1.3840   11.7460   -1.0370 C   0  0  1  0  0  0  0  0  0  0  0  0
    2.1910   10.4340   -0.8550 C   0  0  0  0  0  0  0  0  0  0  0  0
    1.6020    9.5300    0.2230 C   0  0  0  0  0  0  0  0  0  0  0  0
    0.1540    9.1690   -0.0990 C   0  0  2  0  0  0  0  0  0  0  0  0
    0.1330    8.3500   -1.2720 O   0  0  0  0  0  0  0  0  0  0  0  0
   -0.7540   10.4120   -0.3140 C   0  0  0  0  0  0  0  0  0  0  0  0
   -0.9750   11.1350    1.0370 C   0  0  0  0  0  0  0  0  0  0  0  0
   -2.1500    9.9100   -0.7710 C   0  0  0  0  0  0  0  0  0  0  0  0
    2.0600   12.7400   -2.0770 C   0  0  1  0  0  0  0  0  0  0  0  0
    2.6190   11.9380   -3.2920 C   0  0  0  0  0  0  0  0  0  0  0  0
    3.2980   13.4330   -1.3950 C   0  0  0  0  0  0  0  0  0  0  0  0
    3.0220   14.7280   -0.6070 C   0  0  0  0  0  0  0  0  0  0  0  0
    2.1850   15.7070   -1.4370 C   0  0  2  0  0  0  0  0  0  0  0  0
    3.0240   16.1020   -2.7000 C   0  0  0  0  0  0  0  0  0  0  0  0
    3.0907   18.0010    1.5804 H   0  0  0  0  0  0  0  0  0  0  0  0
    3.9677   16.7505    0.6351 H   0  0  0  0  0  0  0  0  0  0  0  0
    4.5508   18.4495    0.6351 H   0  0  0  0  0  0  0  0  0  0  0  0
    3.4342   18.1402   -1.4400 H   0  0  0  0  0  0  0  0  0  0  0  0
    2.8607   20.2596   -0.4003 H   0  0  0  0  0  0  0  0  0  0  0  0
    1.4355   19.5859   -1.3266 H   0  0  0  0  0  0  0  0  0  0  0  0
    1.0566   18.6271    1.2455 H   0  0  0  0  0  0  0  0  0  0  0  0
    1.6766   20.3130    1.4901 H   0  0  0  0  0  0  0  0  0  0  0  0
    0.2945   20.8717   -0.2872 H   0  0  0  0  0  0  0  0  0  0  0  0
   -1.4001   17.7355    1.7967 H   0  0  0  0  0  0  0  0  0  0  0  0
   -2.2937   17.3991    0.2753 H   0  0  0  0  0  0  0  0  0  0  0  0
   -0.4976   17.4236    0.2753 H   0  0  0  0  0  0  0  0  0  0  0  0
   -3.3790   20.1783    0.2527 H   0  0  0  0  0  0  0  0  0  0  0  0
   -2.2492   20.6722   -1.0535 H   0  0  0  0  0  0  0  0  0  0  0  0
   -2.9551   19.0204   -1.0535 H   0  0  0  0  0  0  0  0  0  0  0  0
    1.5079   16.8057    0.3275 H   0  0  0  0  0  0  0  0  0  0  0  0
   -0.2902   17.8151   -0.9329 H   0  0  0  0  0  0  0  0  0  0  0  0
    0.8011   18.2974   -2.2498 H   0  0  0  0  0  0  0  0  0  0  0  0
   -1.0280   16.1035   -2.3272 H   0  0  0  0  0  0  0  0  0  0  0  0
    0.2912   16.3305   -3.4723 H   0  0  0  0  0  0  0  0  0  0  0  0
    0.5213   14.9207    0.4170 H   0  0  0  0  0  0  0  0  0  0  0  0
   -0.9845   15.2618   -0.5010 H   0  0  0  0  0  0  0  0  0  0  0  0
   -0.2882   13.6059   -0.5010 H   0  0  0  0  0  0  0  0  0  0  0  0
    1.5008   14.2317   -3.5536 H   0  0  0  0  0  0  0  0  0  0  0  0
   -1.0343   13.8665   -3.2579 H   0  0  0  0  0  0  0  0  0  0  0  0
    0.0138   12.6214   -4.1184 H   0  0  0  0  0  0  0  0  0  0  0  0
   -1.8051   11.6719   -2.4656 H   0  0  0  0  0  0  0  0  0  0  0  0
    1.4042   12.3281   -0.1038 H   0  0  0  0  0  0  0  0  0  0  0  0
    2.1956    9.8875   -1.8097 H   0  0  0  0  0  0  0  0  0  0  0  0
    3.2088   10.7088   -0.5409 H   0  0  0  0  0  0  0  0  0  0  0  0
    2.1979    8.6074    0.2843 H   0  0  0  0  0  0  0  0  0  0  0  0
    1.6249   10.0671    1.1827 H   0  0  0  0  0  0  0  0  0  0  0  0
   -0.2523    8.6299    0.7695 H   0  0  0  0  0  0  0  0  0  0  0  0
    0.5510    8.8540   -1.9910 H   0  0  0  0  0  0  0  0  0  0  0  0
   -0.7628   10.4407    1.8634 H   0  0  0  0  0  0  0  0  0  0  0  0
   -0.3007   12.0015    1.1037 H   0  0  0  0  0  0  0  0  0  0  0  0
   -2.0185   11.4764    1.1037 H   0  0  0  0  0  0  0  0  0  0  0  0
   -2.7670    9.6881    0.1122 H   0  0  0  0  0  0  0  0  0  0  0  0
   -2.6400   10.6882   -1.3745 H   0  0  0  0  0  0  0  0  0  0  0  0
   -2.0322    8.9979   -1.3745 H   0  0  0  0  0  0  0  0  0  0  0  0
    3.2125   11.0865   -2.9275 H   0  0  0  0  0  0  0  0  0  0  0  0
    1.7826   11.5673   -3.9027 H   0  0  0  0  0  0  0  0  0  0  0  0
    3.2562   12.5944   -3.9027 H   0  0  0  0  0  0  0  0  0  0  0  0
    3.7432   12.7078   -0.6980 H   0  0  0  0  0  0  0  0  0  0  0  0
    3.9525   13.7354   -2.2257 H   0  0  0  0  0  0  0  0  0  0  0  0
    2.4756   14.4789    0.3146 H   0  0  0  0  0  0  0  0  0  0  0  0
    3.9840   15.2046   -0.3673 H   0  0  0  0  0  0  0  0  0  0  0  0
    3.9767   16.5505   -2.3818 H   0  0  0  0  0  0  0  0  0  0  0  0
    3.2247   15.2038   -3.3024 H   0  0  0  0  0  0  0  0  0  0  0  0
    2.4596   16.8290   -3.3024 H   0  0  0  0  0  0  0  0  0  0  0  0
  1  2  1  0
  2  3  1  0
  3  4  1  0
  4  5  1  0
  5  6  1  0
  6  7  1  0
  7  8  1  0
  7  9  1  0
  2 10  1  0
 10 11  1  0
 11 12  1  0
 12 13  1  0
 13 14  1  1
 13 15  1  0
 15 16  1  0
 16 17  1  0
 17 18  2  0
 18 19  1  0
 19 20  1  0
 20 21  1  0
 21 22  1  0
 22 23  1  0
 22 24  1  0
 24 25  1  0
 24 26  1  0
 19 27  1  0
 27 28  1  6
 27 29  1  0
 29 30  1  0
 30 31  1  0
 31 32  1  6
  7  5  1  0
 31 10  1  0
 31 13  1  0
 27 15  1  0
 24 18  1  0
  1 33  1  0
  1 34  1  0
  1 35  1  0
  2 36  1  6
  3 37  1  0
  3 38  1  0
  4 39  1  0
  4 40  1  0
  5 41  1  6
  8 42  1  0
  8 43  1  0
  8 44  1  0
  9 45  1  0
  9 46  1  0
  9 47  1  0
 10 48  1  1
 11 49  1  0
 11 50  1  0
 12 51  1  0
 12 52  1  0
 14 53  1  0
 14 54  1  0
 14 55  1  0
 15 56  1  6
 16 57  1  0
 16 58  1  0
 17 59  1  0
 19 60  1  1
 20 61  1  0
 20 62  1  0
 21 63  1  0
 21 64  1  0
 22 65  1  1
 23 66  1  0
 25 67  1  0
 25 68  1  0
 25 69  1  0
 26 70  1  0
 26 71  1  0
 26 72  1  0
 28 73  1  0
 28 74  1  0
 28 75  1  0
 29 76  1  0
 29 77  1  0
 30 78  1  0
 30 79  1  0
 32 80  1  0
 32 81  1  0
 32 82  1  0
M  END
>  <meeko>  (5) 
{"is_sidechain": [false], "intermolecular_energy": 2.731, "internal_energy": -0.839}

$$$$
EPH_relaxed_0001_pdb2pqr_Repair_109_r2_0001_out
     RDKit          3D

 82 86  0  0  0  0  0  0  0  0999 V2000
    0.4420    8.8080   -2.3610 C   0  0  0  0  0  0  0  0  0  0  0  0
    1.1800    9.9510   -3.0640 C   0  0  2  0  0  0  0  0  0  0  0  0
    2.6820    9.9720   -2.7170 C   0  0  0  0  0  0  0  0  0  0  0  0
    3.5570   10.5920   -3.8090 C   0  0  0  0  0  0  0  0  0  0  0  0
    4.9560   10.8360   -3.3270 C   0  0  2  0  0  0  0  0  0  0  0  0
    5.5560   12.0430   -3.8150 O   0  0  0  0  0  0  0  0  0  0  0  0
    6.1700   10.8140   -4.2370 C   0  0  0  0  0  0  0  0  0  0  0  0
    6.0410   10.5410   -5.7030 C   0  0  0  0  0  0  0  0  0  0  0  0
    7.5160   10.5730   -3.6280 C   0  0  0  0  0  0  0  0  0  0  0  0
    0.5410   11.2850   -2.6970 C   0  0  1  0  0  0  0  0  0  0  0  0
   -0.8350   11.1180   -2.0000 C   0  0  0  0  0  0  0  0  0  0  0  0
   -0.9500   12.2580   -0.9560 C   0  0  0  0  0  0  0  0  0  0  0  0
    0.2000   13.2290   -1.3120 C   0  0  1  0  0  0  0  0  0  0  0  0
   -0.3500   14.0860   -2.4950 C   0  0  0  0  0  0  0  0  0  0  0  0
    0.7320   14.1270   -0.1480 C   0  0  2  0  0  0  0  0  0  0  0  0
   -0.2980   15.1050    0.4450 C   0  0  0  0  0  0  0  0  0  0  0  0
   -0.3420   16.4520   -0.1980 C   0  0  0  0  0  0  0  0  0  0  0  0
    0.5990   16.9590   -1.0150 C   0  0  0  0  0  0  0  0  0  0  0  0
    1.9000   16.1940   -1.2890 C   0  0  1  0  0  0  0  0  0  0  0  0
    3.1060   17.1610   -1.1610 C   0  0  0  0  0  0  0  0  0  0  0  0
    2.9610   18.3980   -2.0410 C   0  0  0  0  0  0  0  0  0  0  0  0
    1.6850   19.1640   -1.6990 C   0  0  2  0  0  0  0  0  0  0  0  0
    1.8120   19.7040   -0.3800 O   0  0  0  0  0  0  0  0  0  0  0  0
    0.4040   18.2890   -1.7840 C   0  0  0  0  0  0  0  0  0  0  0  0
    0.1000   17.9530   -3.2650 C   0  0  0  0  0  0  0  0  0  0  0  0
   -0.7910   19.1420   -1.2790 C   0  0  0  0  0  0  0  0  0  0  0  0
    2.1030   14.8520   -0.4620 C   0  0  1  0  0  0  0  0  0  0  0  0
    2.7640   15.1700    0.9140 C   0  0  0  0  0  0  0  0  0  0  0  0
    3.1100   13.9200   -1.2340 C   0  0  0  0  0  0  0  0  0  0  0  0
    2.5090   12.9700   -2.2880 C   0  0  0  0  0  0  0  0  0  0  0  0
    1.3170   12.1980   -1.7140 C   0  0  2  0  0  0  0  0  0  0  0  0
    1.8440   11.3100   -0.5360 C   0  0  0  0  0  0  0  0  0  0  0  0
    0.5235    8.9343   -1.2713 H   0  0  0  0  0  0  0  0  0  0  0  0
   -0.6183    8.8215   -2.6534 H   0  0  0  0  0  0  0  0  0  0  0  0
    0.8907    7.8472   -2.6534 H   0  0  0  0  0  0  0  0  0  0  0  0
    1.0944    9.7839   -4.1479 H   0  0  0  0  0  0  0  0  0  0  0  0
    2.8168   10.5527   -1.7925 H   0  0  0  0  0  0  0  0  0  0  0  0
    3.0008    8.9252   -2.6053 H   0  0  0  0  0  0  0  0  0  0  0  0
    3.5908    9.9081   -4.6699 H   0  0  0  0  0  0  0  0  0  0  0  0
    3.1180   11.5602   -4.0916 H   0  0  0  0  0  0  0  0  0  0  0  0
    4.7399   10.3332   -2.3728 H   0  0  0  0  0  0  0  0  0  0  0  0
    5.5754    9.5557   -5.8529 H   0  0  0  0  0  0  0  0  0  0  0  0
    5.4143   11.3170   -6.1667 H   0  0  0  0  0  0  0  0  0  0  0  0
    7.0384   10.5496   -6.1667 H   0  0  0  0  0  0  0  0  0  0  0  0
    7.4304   10.5883   -2.5314 H   0  0  0  0  0  0  0  0  0  0  0  0
    7.8951    9.5927   -3.9525 H   0  0  0  0  0  0  0  0  0  0  0  0
    8.2117   11.3609   -3.9525 H   0  0  0  0  0  0  0  0  0  0  0  0
    0.5019   11.7505   -3.6929 H   0  0  0  0  0  0  0  0  0  0  0  0
   -1.6459   11.1981   -2.7389 H   0  0  0  0  0  0  0  0  0  0  0  0
   -0.9163   10.1324   -1.5184 H   0  0  0  0  0  0  0  0  0  0  0  0
   -1.9239   12.7627   -1.0376 H   0  0  0  0  0  0  0  0  0  0  0  0
   -0.8785   11.8869    0.0771 H   0  0  0  0  0  0  0  0  0  0  0  0
   -0.9037   14.9488   -2.0963 H   0  0  0  0  0  0  0  0  0  0  0  0
    0.4889   14.4417   -3.1112 H   0  0  0  0  0  0  0  0  0  0  0  0
   -1.0228   13.4715   -3.1112 H   0  0  0  0  0  0  0  0  0  0  0  0
    0.9350   13.3903    0.6433 H   0  0  0  0  0  0  0  0  0  0  0  0
   -1.2945   14.6493    0.3480 H   0  0  0  0  0  0  0  0  0  0  0  0
    0.0089   15.2752    1.4875 H   0  0  0  0  0  0  0  0  0  0  0  0
   -1.2177   17.0830    0.0142 H   0  0  0  0  0  0  0  0  0  0  0  0
    1.8245   15.8264   -2.3230 H   0  0  0  0  0  0  0  0  0  0  0  0
    3.1903   17.4824   -0.1124 H   0  0  0  0  0  0  0  0  0  0  0  0
    4.0043   16.6194   -1.4924 H   0  0  0  0  0  0  0  0  0  0  0  0
    3.8288   19.0555   -1.8838 H   0  0  0  0  0  0  0  0  0  0  0  0
    2.9072   18.0772   -3.0918 H   0  0  0  0  0  0  0  0  0  0  0  0
    1.5690   19.9628   -2.4463 H   0  0  0  0  0  0  0  0  0  0  0  0
    1.7960   20.6730   -0.4560 H   0  0  0  0  0  0  0  0  0  0  0  0
   -0.6373   17.1381   -3.3122 H   0  0  0  0  0  0  0  0  0  0  0  0
   -0.3053   18.8437   -3.7673 H   0  0  0  0  0  0  0  0  0  0  0  0
    1.0267   17.6386   -3.7673 H   0  0  0  0  0  0  0  0  0  0  0  0
   -0.7987   19.1475   -0.1790 H   0  0  0  0  0  0  0  0  0  0  0  0
   -0.6887   20.1724   -1.6501 H   0  0  0  0  0  0  0  0  0  0  0  0
   -1.7323   18.7104   -1.6501 H   0  0  0  0  0  0  0  0  0  0  0  0
    2.0947   14.8480    1.7254 H   0  0  0  0  0  0  0  0  0  0  0  0
    3.7212   14.6338    0.9936 H   0  0  0  0  0  0  0  0  0  0  0  0
    2.9424   16.2525    0.9936 H   0  0  0  0  0  0  0  0  0  0  0  0
    3.8372   14.5675   -1.7458 H   0  0  0  0  0  0  0  0  0  0  0  0
    3.5401   13.2615   -0.4650 H   0  0  0  0  0  0  0  0  0  0  0  0
    2.1728   13.5595   -3.1537 H   0  0  0  0  0  0  0  0  0  0  0  0
    3.2817   12.2479   -2.5906 H   0  0  0  0  0  0  0  0  0  0  0  0
    1.5693   11.7728    0.4234 H   0  0  0  0  0  0  0  0  0  0  0  0
    1.3940   10.3084   -0.6021 H   0  0  0  0  0  0  0  0  0  0  0  0
    2.9387   11.2252   -0.6021 H   0  0  0  0  0  0  0  0  0  0  0  0
  1  2  1  0
  2  3  1  0
  3  4  1  0
  4  5  1  0
  5  6  1  0
  6  7  1  0
  7  8  1  0
  7  9  1  0
  2 10  1  0
 10 11  1  0
 11 12  1  0
 12 13  1  0
 13 14  1  6
 13 15  1  0
 15 16  1  0
 16 17  1  0
 17 18  2  0
 18 19  1  0
 19 20  1  0
 20 21  1  0
 21 22  1  0
 22 23  1  0
 22 24  1  0
 24 25  1  0
 24 26  1  0
 19 27  1  0
 27 28  1  1
 27 29  1  0
 29 30  1  0
 30 31  1  0
 31 32  1  1
  7  5  1  0
 31 10  1  0
 31 13  1  0
 27 15  1  0
 24 18  1  0
  1 33  1  0
  1 34  1  0
  1 35  1  0
  2 36  1  6
  3 37  1  0
  3 38  1  0
  4 39  1  0
  4 40  1  0
  5 41  1  1
  8 42  1  0
  8 43  1  0
  8 44  1  0
  9 45  1  0
  9 46  1  0
  9 47  1  0
 10 48  1  6
 11 49  1  0
 11 50  1  0
 12 51  1  0
 12 52  1  0
 14 53  1  0
 14 54  1  0
 14 55  1  0
 15 56  1  1
 16 57  1  0
 16 58  1  0
 17 59  1  0
 19 60  1  6
 20 61  1  0
 20 62  1  0
 21 63  1  0
 21 64  1  0
 22 65  1  6
 23 66  1  0
 25 67  1  0
 25 68  1  0
 25 69  1  0
 26 70  1  0
 26 71  1  0
 26 72  1  0
 28 73  1  0
 28 74  1  0
 28 75  1  0
 29 76  1  0
 29 77  1  0
 30 78  1  0
 30 79  1  0
 32 80  1  0
 32 81  1  0
 32 82  1  0
M  END
>  <meeko>  (6) 
{"is_sidechain": [false], "intermolecular_energy": 2.731, "internal_energy": -0.839}

$$$$
EPH_relaxed_0001_pdb2pqr_Repair_109_r2_0001_out
     RDKit          3D

 82 86  0  0  0  0  0  0  0  0999 V2000
   -0.2700   10.5820   -4.1510 C   0  0  0  0  0  0  0  0  0  0  0  0
    0.9390   10.3950   -3.2310 C   0  0  2  0  0  0  0  0  0  0  0  0
    0.8990    9.0450   -2.4870 C   0  0  0  0  0  0  0  0  0  0  0  0
   -0.4870    8.6780   -1.9510 C   0  0  0  0  0  0  0  0  0  0  0  0
   -0.6320    9.0300   -0.5010 C   0  0  2  0  0  0  0  0  0  0  0  0
   -1.9760    8.9840   -0.0050 O   0  0  0  0  0  0  0  0  0  0  0  0
   -1.3460   10.2760   -0.0100 C   0  0  0  0  0  0  0  0  0  0  0  0
   -1.9620   11.2500   -0.9650 C   0  0  0  0  0  0  0  0  0  0  0  0
   -1.0230   10.7940    1.3570 C   0  0  0  0  0  0  0  0  0  0  0  0
    1.0110   11.5400   -2.2280 C   0  0  1  0  0  0  0  0  0  0  0  0
    2.0720   11.3000   -1.1210 C   0  0  0  0  0  0  0  0  0  0  0  0
    2.6770   12.6840   -0.7740 C   0  0  0  0  0  0  0  0  0  0  0  0
    1.7260   13.7050   -1.4400 C   0  0  1  0  0  0  0  0  0  0  0  0
    0.5260   13.8400   -0.4510 C   0  0  0  0  0  0  0  0  0  0  0  0
    2.3430   15.0970   -1.7930 C   0  0  2  0  0  0  0  0  0  0  0  0
    2.8420   15.9140   -0.5890 C   0  0  0  0  0  0  0  0  0  0  0  0
    1.8340   16.8300    0.0230 C   0  0  0  0  0  0  0  0  0  0  0  0
    0.6720   17.2050   -0.5440 C   0  0  0  0  0  0  0  0  0  0  0  0
    0.3180   16.7730   -1.9730 C   0  0  1  0  0  0  0  0  0  0  0  0
   -0.2100   17.9970   -2.7680 C   0  0  0  0  0  0  0  0  0  0  0  0
   -1.3690   18.6950   -2.0650 C   0  0  0  0  0  0  0  0  0  0  0  0
   -0.9610   19.1610   -0.6700 C   0  0  2  0  0  0  0  0  0  0  0  0
    0.0230   20.1920   -0.7980 O   0  0  0  0  0  0  0  0  0  0  0  0
   -0.4030   18.0140    0.2200 C   0  0  0  0  0  0  0  0  0  0  0  0
   -1.5520   17.0510    0.6080 C   0  0  0  0  0  0  0  0  0  0  0  0
    0.1030   18.6430    1.5470 C   0  0  0  0  0  0  0  0  0  0  0  0
    1.4480   15.9770   -2.7580 C   0  0  1  0  0  0  0  0  0  0  0  0
    2.4100   16.9790   -3.4660 C   0  0  0  0  0  0  0  0  0  0  0  0
    0.7780   15.1230   -3.8980 C   0  0  0  0  0  0  0  0  0  0  0  0
    0.2970   13.7100   -3.5160 C   0  0  0  0  0  0  0  0  0  0  0  0
    1.3920   12.9400   -2.7730 C   0  0  2  0  0  0  0  0  0  0  0  0
    2.6040   12.7680   -3.7510 C   0  0  0  0  0  0  0  0  0  0  0  0
   -1.1756   10.7221   -3.5425 H   0  0  0  0  0  0  0  0  0  0  0  0
   -0.1143   11.4667   -4.7858 H   0  0  0  0  0  0  0  0  0  0  0  0
   -0.3889    9.6916   -4.7858 H   0  0  0  0  0  0  0  0  0  0  0  0
    1.8392   10.3973   -3.8631 H   0  0  0  0  0  0  0  0  0  0  0  0
    1.2226    8.2560   -3.1818 H   0  0  0  0  0  0  0  0  0  0  0  0
    1.5656    9.1379   -1.6169 H   0  0  0  0  0  0  0  0  0  0  0  0
   -1.2482    9.2234   -2.5281 H   0  0  0  0  0  0  0  0  0  0  0  0
   -0.6178    7.5907   -2.0546 H   0  0  0  0  0  0  0  0  0  0  0  0
    0.3598    8.6109   -0.2759 H   0  0  0  0  0  0  0  0  0  0  0  0
   -2.4666   12.0479   -0.4004 H   0  0  0  0  0  0  0  0  0  0  0  0
   -1.1770   11.6891   -1.5982 H   0  0  0  0  0  0  0  0  0  0  0  0
   -2.6951   10.7289   -1.5982 H   0  0  0  0  0  0  0  0  0  0  0  0
   -1.4449   10.1173    2.1147 H   0  0  0  0  0  0  0  0  0  0  0  0
    0.0688   10.8474    1.4804 H   0  0  0  0  0  0  0  0  0  0  0  0
   -1.4555   11.7979    1.4804 H   0  0  0  0  0  0  0  0  0  0  0  0
   -0.0317   11.5432   -1.8775 H   0  0  0  0  0  0  0  0  0  0  0  0
    1.5982   10.8599   -0.2312 H   0  0  0  0  0  0  0  0  0  0  0  0
    2.8509   10.6034   -1.4648 H   0  0  0  0  0  0  0  0  0  0  0  0
    2.7051   12.8331    0.3155 H   0  0  0  0  0  0  0  0  0  0  0  0
    3.7131   12.7866   -1.1290 H   0  0  0  0  0  0  0  0  0  0  0  0
    0.8971   13.7983    0.5837 H   0  0  0  0  0  0  0  0  0  0  0  0
    0.0180   14.8010   -0.6198 H   0  0  0  0  0  0  0  0  0  0  0  0
   -0.1828   13.0159   -0.6198 H   0  0  0  0  0  0  0  0  0  0  0  0
    3.2443   14.8186   -2.3588 H   0  0  0  0  0  0  0  0  0  0  0  0
    3.1745   15.2080    0.1863 H   0  0  0  0  0  0  0  0  0  0  0  0
    3.6463   16.5594   -0.9719 H   0  0  0  0  0  0  0  0  0  0  0  0
    2.0600   17.2324    1.0215 H   0  0  0  0  0  0  0  0  0  0  0  0
   -0.4776   16.0198   -1.8742 H   0  0  0  0  0  0  0  0  0  0  0  0
    0.6118   18.7174   -2.8931 H   0  0  0  0  0  0  0  0  0  0  0  0
   -0.5790   17.6314   -3.7376 H   0  0  0  0  0  0  0  0  0  0  0  0
   -1.6778   19.5673   -2.6598 H   0  0  0  0  0  0  0  0  0  0  0  0
   -2.2006   17.9817   -1.9672 H   0  0  0  0  0  0  0  0  0  0  0  0
   -1.8660   19.5353   -0.1691 H   0  0  0  0  0  0  0  0  0  0  0  0
   -0.2760   20.7980   -1.4960 H   0  0  0  0  0  0  0  0  0  0  0  0
   -1.6249   16.9899    1.7039 H   0  0  0  0  0  0  0  0  0  0  0  0
   -2.5006   17.4279    0.1979 H   0  0  0  0  0  0  0  0  0  0  0  0
   -1.3467   16.0512    0.1979 H   0  0  0  0  0  0  0  0  0  0  0  0
   -0.3329   18.1011    2.3993 H   0  0  0  0  0  0  0  0  0  0  0  0
    1.1999   18.5737    1.5908 H   0  0  0  0  0  0  0  0  0  0  0  0
   -0.1997   19.6996    1.5908 H   0  0  0  0  0  0  0  0  0  0  0  0
    2.9624   17.5544   -2.7085 H   0  0  0  0  0  0  0  0  0  0  0  0
    3.1210   16.4228   -4.0945 H   0  0  0  0  0  0  0  0  0  0  0  0
    1.8253   17.6668   -4.0945 H   0  0  0  0  0  0  0  0  0  0  0  0
   -0.0944   15.6837   -4.2648 H   0  0  0  0  0  0  0  0  0  0  0  0
    1.5713   14.9653   -4.6435 H   0  0  0  0  0  0  0  0  0  0  0  0
   -0.5872   13.7942   -2.8670 H   0  0  0  0  0  0  0  0  0  0  0  0
    0.0479   13.1635   -4.4375 H   0  0  0  0  0  0  0  0  0  0  0  0
    3.5285   12.6368   -3.1696 H   0  0  0  0  0  0  0  0  0  0  0  0
    2.4410   11.8840   -4.3850 H   0  0  0  0  0  0  0  0  0  0  0  0
    2.6934   13.6625   -4.3850 H   0  0  0  0  0  0  0  0  0  0  0  0
  1  2  1  0
  2  3  1  0
  3  4  1  0
  4  5  1  0
  5  6  1  0
  6  7  1  0
  7  8  1  0
  7  9  1  0
  2 10  1  0
 10 11  1  0
 11 12  1  0
 12 13  1  0
 13 14  1  1
 13 15  1  0
 15 16  1  0
 16 17  1  0
 17 18  2  0
 18 19  1  0
 19 20  1  0
 20 21  1  0
 21 22  1  0
 22 23  1  0
 22 24  1  0
 24 25  1  0
 24 26  1  0
 19 27  1  0
 27 28  1  6
 27 29  1  0
 29 30  1  0
 30 31  1  0
 31 32  1  6
  7  5  1  0
 31 10  1  0
 31 13  1  0
 27 15  1  0
 24 18  1  0
  1 33  1  0
  1 34  1  0
  1 35  1  0
  2 36  1  6
  3 37  1  0
  3 38  1  0
  4 39  1  0
  4 40  1  0
  5 41  1  1
  8 42  1  0
  8 43  1  0
  8 44  1  0
  9 45  1  0
  9 46  1  0
  9 47  1  0
 10 48  1  1
 11 49  1  0
 11 50  1  0
 12 51  1  0
 12 52  1  0
 14 53  1  0
 14 54  1  0
 14 55  1  0
 15 56  1  6
 16 57  1  0
 16 58  1  0
 17 59  1  0
 19 60  1  1
 20 61  1  0
 20 62  1  0
 21 63  1  0
 21 64  1  0
 22 65  1  1
 23 66  1  0
 25 67  1  0
 25 68  1  0
 25 69  1  0
 26 70  1  0
 26 71  1  0
 26 72  1  0
 28 73  1  0
 28 74  1  0
 28 75  1  0
 29 76  1  0
 29 77  1  0
 30 78  1  0
 30 79  1  0
 32 80  1  0
 32 81  1  0
 32 82  1  0
M  END
>  <meeko>  (7) 
{"is_sidechain": [false], "intermolecular_energy": 2.731, "internal_energy": -0.839}

$$$$
EPH_relaxed_0001_pdb2pqr_Repair_109_r2_0001_out
     RDKit          3D

 82 86  0  0  0  0  0  0  0  0999 V2000
    2.5650   18.9000   -2.6030 C   0  0  0  0  0  0  0  0  0  0  0  0
    1.7840   19.0050   -1.2900 C   0  0  2  0  0  0  0  0  0  0  0  0
    2.5780   19.7510   -0.2000 C   0  0  0  0  0  0  0  0  0  0  0  0
    2.8190   18.9210    1.0640 C   0  0  0  0  0  0  0  0  0  0  0  0
    4.2300   19.0490    1.5510 C   0  0  2  0  0  0  0  0  0  0  0  0
    4.5450   18.2430    2.6940 O   0  0  0  0  0  0  0  0  0  0  0  0
    4.6010   19.6650    2.8870 C   0  0  0  0  0  0  0  0  0  0  0  0
    3.5560   20.1940    3.8190 C   0  0  0  0  0  0  0  0  0  0  0  0
    5.9890   20.1940    3.0710 C   0  0  0  0  0  0  0  0  0  0  0  0
    1.4050   17.6130   -0.7980 C   0  0  1  0  0  0  0  0  0  0  0  0
    0.1660   17.6260    0.1370 C   0  0  0  0  0  0  0  0  0  0  0  0
   -0.6200   16.3200   -0.1430 C   0  0  0  0  0  0  0  0  0  0  0  0
    0.3520   15.4510   -0.9760 C   0  0  1  0  0  0  0  0  0  0  0  0
    1.3060   14.8000    0.0730 C   0  0  0  0  0  0  0  0  0  0  0  0
   -0.3040   14.3770   -1.9040 C   0  0  2  0  0  0  0  0  0  0  0  0
   -1.1110   13.2890   -1.1750 C   0  0  0  0  0  0  0  0  0  0  0  0
   -0.3360   12.0730   -0.7870 C   0  0  0  0  0  0  0  0  0  0  0  0
    0.8780   11.7360   -1.2590 C   0  0  0  0  0  0  0  0  0  0  0  0
    1.5550   12.5660   -2.3580 C   0  0  1  0  0  0  0  0  0  0  0  0
    2.1200   11.6190   -3.4480 C   0  0  0  0  0  0  0  0  0  0  0  0
    3.0440   10.5500   -2.8730 C   0  0  0  0  0  0  0  0  0  0  0  0
    2.3180    9.7080   -1.8260 C   0  0  2  0  0  0  0  0  0  0  0  0
    1.2920    8.9500   -2.4750 O   0  0  0  0  0  0  0  0  0  0  0  0
    1.6970   10.5550   -0.6810 C   0  0  0  0  0  0  0  0  0  0  0  0
    2.8250   11.1360    0.2080 C   0  0  0  0  0  0  0  0  0  0  0  0
    0.8760    9.6010    0.2280 C   0  0  0  0  0  0  0  0  0  0  0  0
    0.6850   13.7490   -2.9670 C   0  0  1  0  0  0  0  0  0  0  0  0
   -0.1980   13.2120   -4.1350 C   0  0  0  0  0  0  0  0  0  0  0  0
    1.6490   14.8230   -3.5970 C   0  0  0  0  0  0  0  0  0  0  0  0
    2.1680   15.9270   -2.6560 C   0  0  0  0  0  0  0  0  0  0  0  0
    1.0180   16.5610   -1.8680 C   0  0  2  0  0  0  0  0  0  0  0  0
    0.0520   17.2430   -2.8960 C   0  0  0  0  0  0  0  0  0  0  0  0
    3.6333   18.7564   -2.3837 H   0  0  0  0  0  0  0  0  0  0  0  0
    2.1917   18.0440   -3.1842 H   0  0  0  0  0  0  0  0  0  0  0  0
    2.4310   19.8242   -3.1842 H   0  0  0  0  0  0  0  0  0  0  0  0
    0.8737   19.5884   -1.4924 H   0  0  0  0  0  0  0  0  0  0  0  0
    3.5541   20.0391   -0.6174 H   0  0  0  0  0  0  0  0  0  0  0  0
    1.9749   20.6214    0.0976 H   0  0  0  0  0  0  0  0  0  0  0  0
    2.1365   19.2681    1.8538 H   0  0  0  0  0  0  0  0  0  0  0  0
    2.6352   17.8642    0.8202 H   0  0  0  0  0  0  0  0  0  0  0  0
    4.5911   19.2317    0.5282 H   0  0  0  0  0  0  0  0  0  0  0  0
    3.8761   20.0319    4.8588 H   0  0  0  0  0  0  0  0  0  0  0  0
    3.4176   21.2707    3.6415 H   0  0  0  0  0  0  0  0  0  0  0  0
    2.6063   19.6681    3.6415 H   0  0  0  0  0  0  0  0  0  0  0  0
    6.2099   20.2782    4.1453 H   0  0  0  0  0  0  0  0  0  0  0  0
    6.7085   19.5070    2.6015 H   0  0  0  0  0  0  0  0  0  0  0  0
    6.0687   21.1856    2.6015 H   0  0  0  0  0  0  0  0  0  0  0  0
    2.3494   17.3262   -0.3125 H   0  0  0  0  0  0  0  0  0  0  0  0
    0.4858   17.6574    1.1890 H   0  0  0  0  0  0  0  0  0  0  0  0
   -0.4600   18.5111   -0.0495 H   0  0  0  0  0  0  0  0  0  0  0  0
   -0.8826   15.8153    0.7984 H   0  0  0  0  0  0  0  0  0  0  0  0
   -1.5674   16.5078   -0.6694 H   0  0  0  0  0  0  0  0  0  0  0  0
    0.9542   15.0400    1.0872 H   0  0  0  0  0  0  0  0  0  0  0  0
    1.3119   13.7086   -0.0643 H   0  0  0  0  0  0  0  0  0  0  0  0
    2.3244   15.1924   -0.0643 H   0  0  0  0  0  0  0  0  0  0  0  0
   -1.0420   14.9692   -2.4650 H   0  0  0  0  0  0  0  0  0  0  0  0
   -1.5293   13.7321   -0.2592 H   0  0  0  0  0  0  0  0  0  0  0  0
   -1.8759   12.9479   -1.8882 H   0  0  0  0  0  0  0  0  0  0  0  0
   -0.7967   11.3954   -0.0531 H   0  0  0  0  0  0  0  0  0  0  0  0
    2.3800   13.1047   -1.8689 H   0  0  0  0  0  0  0  0  0  0  0  0
    1.2789   11.1228   -3.9543 H   0  0  0  0  0  0  0  0  0  0  0  0
    2.7104   12.2295   -4.1471 H   0  0  0  0  0  0  0  0  0  0  0  0
    3.3873    9.8948   -3.6872 H   0  0  0  0  0  0  0  0  0  0  0  0
    3.9000   11.0467   -2.3927 H   0  0  0  0  0  0  0  0  0  0  0  0
    3.0639    9.0485   -1.3582 H   0  0  0  0  0  0  0  0  0  0  0  0
    1.5610    8.0160   -2.4580 H   0  0  0  0  0  0  0  0  0  0  0  0
    2.5629   11.0010    1.2678 H   0  0  0  0  0  0  0  0  0  0  0  0
    3.7677   10.6113   -0.0063 H   0  0  0  0  0  0  0  0  0  0  0  0
    2.9452   12.2082   -0.0063 H   0  0  0  0  0  0  0  0  0  0  0  0
    1.0782    9.8359    1.2834 H   0  0  0  0  0  0  0  0  0  0  0  0
   -0.1967    9.7314    0.0223 H   0  0  0  0  0  0  0  0  0  0  0  0
    1.1648    8.5597    0.0223 H   0  0  0  0  0  0  0  0  0  0  0  0
   -1.0692   12.6822   -3.7224 H   0  0  0  0  0  0  0  0  0  0  0  0
   -0.5405   14.0549   -4.7532 H   0  0  0  0  0  0  0  0  0  0  0  0
    0.3929   12.5202   -4.7532 H   0  0  0  0  0  0  0  0  0  0  0  0
    2.5233   14.2903   -3.9992 H   0  0  0  0  0  0  0  0  0  0  0  0
    1.0427   15.3478   -4.3499 H   0  0  0  0  0  0  0  0  0  0  0  0
    2.8891   15.4887   -1.9504 H   0  0  0  0  0  0  0  0  0  0  0  0
    2.6494   16.7077   -3.2632 H   0  0  0  0  0  0  0  0  0  0  0  0
   -0.7299   17.7950   -2.3539 H   0  0  0  0  0  0  0  0  0  0  0  0
    0.6219   17.9401   -3.5279 H   0  0  0  0  0  0  0  0  0  0  0  0
   -0.4141   16.4727   -3.5279 H   0  0  0  0  0  0  0  0  0  0  0  0
  1  2  1  0
  2  3  1  0
  3  4  1  0
  4  5  1  0
  5  6  1  0
  6  7  1  0
  7  8  1  0
  7  9  1  0
  2 10  1  0
 10 11  1  0
 11 12  1  0
 12 13  1  0
 13 14  1  1
 13 15  1  0
 15 16  1  0
 16 17  1  0
 17 18  2  0
 18 19  1  0
 19 20  1  0
 20 21  1  0
 21 22  1  0
 22 23  1  0
 22 24  1  0
 24 25  1  0
 24 26  1  0
 19 27  1  0
 27 28  1  6
 27 29  1  0
 29 30  1  0
 30 31  1  0
 31 32  1  6
  7  5  1  0
 31 10  1  0
 31 13  1  0
 27 15  1  0
 24 18  1  0
  1 33  1  0
  1 34  1  0
  1 35  1  0
  2 36  1  6
  3 37  1  0
  3 38  1  0
  4 39  1  0
  4 40  1  0
  5 41  1  6
  8 42  1  0
  8 43  1  0
  8 44  1  0
  9 45  1  0
  9 46  1  0
  9 47  1  0
 10 48  1  1
 11 49  1  0
 11 50  1  0
 12 51  1  0
 12 52  1  0
 14 53  1  0
 14 54  1  0
 14 55  1  0
 15 56  1  6
 16 57  1  0
 16 58  1  0
 17 59  1  0
 19 60  1  1
 20 61  1  0
 20 62  1  0
 21 63  1  0
 21 64  1  0
 22 65  1  1
 23 66  1  0
 25 67  1  0
 25 68  1  0
 25 69  1  0
 26 70  1  0
 26 71  1  0
 26 72  1  0
 28 73  1  0
 28 74  1  0
 28 75  1  0
 29 76  1  0
 29 77  1  0
 30 78  1  0
 30 79  1  0
 32 80  1  0
 32 81  1  0
 32 82  1  0
M  END
>  <meeko>  (8) 
{"is_sidechain": [false], "intermolecular_energy": 2.731, "internal_energy": -0.839}

$$$$
EPH_relaxed_0001_pdb2pqr_Repair_109_r2_0001_out
     RDKit          3D

 82 86  0  0  0  0  0  0  0  0999 V2000
    2.7490   19.2800   -1.0850 C   0  0  0  0  0  0  0  0  0  0  0  0
    2.4660   18.2420   -2.1740 C   0  0  2  0  0  0  0  0  0  0  0  0
    1.0350   18.3640   -2.7360 C   0  0  0  0  0  0  0  0  0  0  0  0
    0.2540   19.5550   -2.1750 C   0  0  0  0  0  0  0  0  0  0  0  0
   -1.0010   19.1180   -1.4810 C   0  0  2  0  0  0  0  0  0  0  0  0
   -1.8770   20.1860   -1.0980 O   0  0  0  0  0  0  0  0  0  0  0  0
   -1.3020   19.4220   -0.0260 C   0  0  0  0  0  0  0  0  0  0  0  0
   -0.3420   20.1930    0.8250 C   0  0  0  0  0  0  0  0  0  0  0  0
   -2.2890   18.5590    0.6960 C   0  0  0  0  0  0  0  0  0  0  0  0
    2.6910   16.8380   -1.6240 C   0  0  1  0  0  0  0  0  0  0  0  0
    3.3370   16.8460   -0.2130 C   0  0  0  0  0  0  0  0  0  0  0  0
    2.7370   15.6430    0.5600 C   0  0  0  0  0  0  0  0  0  0  0  0
    2.0290   14.7970   -0.5230 C   0  0  1  0  0  0  0  0  0  0  0  0
    3.1670   13.9630   -1.1890 C   0  0  0  0  0  0  0  0  0  0  0  0
    0.8570   13.8860   -0.0320 C   0  0  2  0  0  0  0  0  0  0  0  0
    1.2590   12.7900    0.9710 C   0  0  0  0  0  0  0  0  0  0  0  0
    1.6490   11.4830    0.3650 C   0  0  0  0  0  0  0  0  0  0  0  0
    1.4060   11.1050   -0.9040 C   0  0  0  0  0  0  0  0  0  0  0  0
    0.5870   11.9960   -1.8470 C   0  0  1  0  0  0  0  0  0  0  0  0
   -0.4680   11.1320   -2.5880 C   0  0  0  0  0  0  0  0  0  0  0  0
    0.1540    9.9380   -3.3060 C   0  0  0  0  0  0  0  0  0  0  0  0
    0.9100    9.0460   -2.3250 C   0  0  2  0  0  0  0  0  0  0  0  0
   -0.0290    8.4460   -1.4280 O   0  0  0  0  0  0  0  0  0  0  0  0
    1.9940    9.8090   -1.5130 C   0  0  0  0  0  0  0  0  0  0  0  0
    3.1660   10.1990   -2.4470 C   0  0  0  0  0  0  0  0  0  0  0  0
    2.5840    8.8280   -0.4640 C   0  0  0  0  0  0  0  0  0  0  0  0
   -0.0420   13.3020   -1.1960 C   0  0  1  0  0  0  0  0  0  0  0  0
   -1.4270   12.9670   -0.5630 C   0  0  0  0  0  0  0  0  0  0  0  0
   -0.3160   14.3600   -2.3290 C   0  0  0  0  0  0  0  0  0  0  0  0
    0.8430   15.3110   -2.6860 C   0  0  0  0  0  0  0  0  0  0  0  0
    1.4420   15.9430   -1.4260 C   0  0  2  0  0  0  0  0  0  0  0  0
    0.3260   16.8060   -0.7470 C   0  0  0  0  0  0  0  0  0  0  0  0
    2.6227   18.8168   -0.0953 H   0  0  0  0  0  0  0  0  0  0  0  0
    3.7803   19.6483   -1.1886 H   0  0  0  0  0  0  0  0  0  0  0  0
    2.0473   20.1208   -1.1886 H   0  0  0  0  0  0  0  0  0  0  0  0
    3.1633   18.4338   -3.0028 H   0  0  0  0  0  0  0  0  0  0  0  0
    1.0990   18.4741   -3.8286 H   0  0  0  0  0  0  0  0  0  0  0  0
    0.4933   17.4544   -2.4373 H   0  0  0  0  0  0  0  0  0  0  0  0
    0.8904   20.0918   -1.4561 H   0  0  0  0  0  0  0  0  0  0  0  0
   -0.0280   20.2065   -3.0152 H   0  0  0  0  0  0  0  0  0  0  0  0
   -1.0218   18.1822   -2.0587 H   0  0  0  0  0  0  0  0  0  0  0  0
   -0.5666   20.0126    1.8866 H   0  0  0  0  0  0  0  0  0  0  0  0
    0.6854   19.8662    0.6069 H   0  0  0  0  0  0  0  0  0  0  0  0
   -0.4394   21.2668    0.6069 H   0  0  0  0  0  0  0  0  0  0  0  0
   -2.1542   18.6769    1.7813 H   0  0  0  0  0  0  0  0  0  0  0  0
   -3.3103   18.8591    0.4186 H   0  0  0  0  0  0  0  0  0  0  0  0
   -2.1279   17.5068    0.4186 H   0  0  0  0  0  0  0  0  0  0  0  0
    3.3258   16.4266   -2.4226 H   0  0  0  0  0  0  0  0  0  0  0  0
    4.4285   16.7371   -0.2954 H   0  0  0  0  0  0  0  0  0  0  0  0
    3.1336   17.7925    0.3094 H   0  0  0  0  0  0  0  0  0  0  0  0
    3.5316   15.0608    1.0496 H   0  0  0  0  0  0  0  0  0  0  0  0
    2.0486   15.9609    1.3569 H   0  0  0  0  0  0  0  0  0  0  0  0
    3.7915   13.5053   -0.4077 H   0  0  0  0  0  0  0  0  0  0  0  0
    2.7250   13.1734   -1.8144 H   0  0  0  0  0  0  0  0  0  0  0  0
    3.7868   14.6223   -1.8144 H   0  0  0  0  0  0  0  0  0  0  0  0
    0.2298   14.5923    0.5318 H   0  0  0  0  0  0  0  0  0  0  0  0
    2.1130   13.1616    1.5563 H   0  0  0  0  0  0  0  0  0  0  0  0
    0.3634   12.5891    1.5773 H   0  0  0  0  0  0  0  0  0  0  0  0
    2.1802   10.7677    1.0102 H   0  0  0  0  0  0  0  0  0  0  0  0
    1.3033   12.4132   -2.5700 H   0  0  0  0  0  0  0  0  0  0  0  0
   -1.1984   10.7608   -1.8540 H   0  0  0  0  0  0  0  0  0  0  0  0
   -0.9456   11.7673   -3.3484 H   0  0  0  0  0  0  0  0  0  0  0  0
   -0.6431    9.3511   -3.7858 H   0  0  0  0  0  0  0  0  0  0  0  0
    0.8629   10.3114   -4.0597 H   0  0  0  0  0  0  0  0  0  0  0  0
    1.4389    8.2827   -2.9147 H   0  0  0  0  0  0  0  0  0  0  0  0
    0.2790    7.5430   -1.2400 H   0  0  0  0  0  0  0  0  0  0  0  0
    4.0370   10.4888   -1.8409 H   0  0  0  0  0  0  0  0  0  0  0  0
    3.4303    9.3404   -3.0818 H   0  0  0  0  0  0  0  0  0  0  0  0
    2.8632   11.0448   -3.0818 H   0  0  0  0  0  0  0  0  0  0  0  0
    2.3622    9.1968    0.5483 H   0  0  0  0  0  0  0  0  0  0  0  0
    2.1342    7.8332   -0.5986 H   0  0  0  0  0  0  0  0  0  0  0  0
    3.6736    8.7590   -0.5986 H   0  0  0  0  0  0  0  0  0  0  0  0
   -1.3435   12.9872    0.5336 H   0  0  0  0  0  0  0  0  0  0  0  0
   -2.1685   13.7117   -0.8880 H   0  0  0  0  0  0  0  0  0  0  0  0
   -1.7462   11.9658   -0.8880 H   0  0  0  0  0  0  0  0  0  0  0  0
   -0.5869   13.8082   -3.2412 H   0  0  0  0  0  0  0  0  0  0  0  0
   -1.1094   15.0096   -1.9308 H   0  0  0  0  0  0  0  0  0  0  0  0
    1.6256   14.7433   -3.2106 H   0  0  0  0  0  0  0  0  0  0  0  0
    0.4526   16.1135   -3.3291 H   0  0  0  0  0  0  0  0  0  0  0  0
    0.4204   16.7330    0.3465 H   0  0  0  0  0  0  0  0  0  0  0  0
    0.4362   17.8562   -1.0552 H   0  0  0  0  0  0  0  0  0  0  0  0
   -0.6627   16.4352   -1.0552 H   0  0  0  0  0  0  0  0  0  0  0  0
  1  2  1  0
  2  3  1  0
  3  4  1  0
  4  5  1  0
  5  6  1  0
  6  7  1  0
  7  8  1  0
  7  9  1  0
  2 10  1  0
 10 11  1  0
 11 12  1  0
 12 13  1  0
 13 14  1  6
 13 15  1  0
 15 16  1  0
 16 17  1  0
 17 18  2  0
 18 19  1  0
 19 20  1  0
 20 21  1  0
 21 22  1  0
 22 23  1  0
 22 24  1  0
 24 25  1  0
 24 26  1  0
 19 27  1  0
 27 28  1  1
 27 29  1  0
 29 30  1  0
 30 31  1  0
 31 32  1  1
  7  5  1  0
 31 10  1  0
 31 13  1  0
 27 15  1  0
 24 18  1  0
  1 33  1  0
  1 34  1  0
  1 35  1  0
  2 36  1  6
  3 37  1  0
  3 38  1  0
  4 39  1  0
  4 40  1  0
  5 41  1  6
  8 42  1  0
  8 43  1  0
  8 44  1  0
  9 45  1  0
  9 46  1  0
  9 47  1  0
 10 48  1  6
 11 49  1  0
 11 50  1  0
 12 51  1  0
 12 52  1  0
 14 53  1  0
 14 54  1  0
 14 55  1  0
 15 56  1  1
 16 57  1  0
 16 58  1  0
 17 59  1  0
 19 60  1  6
 20 61  1  0
 20 62  1  0
 21 63  1  0
 21 64  1  0
 22 65  1  6
 23 66  1  0
 25 67  1  0
 25 68  1  0
 25 69  1  0
 26 70  1  0
 26 71  1  0
 26 72  1  0
 28 73  1  0
 28 74  1  0
 28 75  1  0
 29 76  1  0
 29 77  1  0
 30 78  1  0
 30 79  1  0
 32 80  1  0
 32 81  1  0
 32 82  1  0
M  END
>  <meeko>  (9) 
{"is_sidechain": [false], "intermolecular_energy": 2.731, "internal_energy": -0.839}

$$$$
EPH_relaxed_0001_pdb2pqr_Repair_109_r2_0001_out
     RDKit          3D

 82 86  0  0  0  0  0  0  0  0999 V2000
   -0.8340   16.3670   -5.8380 C   0  0  0  0  0  0  0  0  0  0  0  0
    0.2470   15.6610   -6.6620 C   0  0  2  0  0  0  0  0  0  0  0  0
   -0.1690   15.4870   -8.1360 C   0  0  0  0  0  0  0  0  0  0  0  0
    0.4720   16.5070   -9.0810 C   0  0  0  0  0  0  0  0  0  0  0  0
    1.8710   16.1160   -9.4520 C   0  0  2  0  0  0  0  0  0  0  0  0
    2.3400   16.6710  -10.6880 O   0  0  0  0  0  0  0  0  0  0  0  0
    2.2070   15.2410  -10.6450 C   0  0  0  0  0  0  0  0  0  0  0  0
    1.1370   14.7030  -11.5430 C   0  0  0  0  0  0  0  0  0  0  0  0
    3.5150   14.5140  -10.6540 C   0  0  0  0  0  0  0  0  0  0  0  0
    0.5660   14.3040   -6.0460 C   0  0  1  0  0  0  0  0  0  0  0  0
    1.8360   13.6540   -6.6580 C   0  0  0  0  0  0  0  0  0  0  0  0
    2.5390   12.8820   -5.5130 C   0  0  0  0  0  0  0  0  0  0  0  0
    1.4930   12.8340   -4.3750 C   0  0  1  0  0  0  0  0  0  0  0  0
    0.5420   11.6560   -4.7540 C   0  0  0  0  0  0  0  0  0  0  0  0
    2.0570   12.6770   -2.9250 C   0  0  2  0  0  0  0  0  0  0  0  0
    2.8280   11.3720   -2.6620 C   0  0  0  0  0  0  0  0  0  0  0  0
    2.0030   10.2320   -2.1630 C   0  0  0  0  0  0  0  0  0  0  0  0
    0.7560   10.3290   -1.6650 C   0  0  0  0  0  0  0  0  0  0  0  0
    0.0880   11.6970   -1.4750 C   0  0  1  0  0  0  0  0  0  0  0  0
   -0.5660   11.7620   -0.0700 C   0  0  0  0  0  0  0  0  0  0  0  0
   -1.5260   10.6040    0.1830 C   0  0  0  0  0  0  0  0  0  0  0  0
   -0.8110    9.2620    0.0420 C   0  0  2  0  0  0  0  0  0  0  0  0
    0.1490    9.1380    1.0960 O   0  0  0  0  0  0  0  0  0  0  0  0
   -0.1060    9.0860   -1.3320 C   0  0  0  0  0  0  0  0  0  0  0  0
   -1.1690    8.9180   -2.4450 C   0  0  0  0  0  0  0  0  0  0  0  0
    0.6940    7.7560   -1.2900 C   0  0  0  0  0  0  0  0  0  0  0  0
    0.9980   12.9620   -1.7840 C   0  0  1  0  0  0  0  0  0  0  0  0
    1.8100   13.3570   -0.5120 C   0  0  0  0  0  0  0  0  0  0  0  0
    0.0730   14.1910   -2.1190 C   0  0  0  0  0  0  0  0  0  0  0  0
   -0.3520   14.3600   -3.5900 C   0  0  0  0  0  0  0  0  0  0  0  0
    0.8580   14.2640   -4.5250 C   0  0  2  0  0  0  0  0  0  0  0  0
    1.8230   15.4500   -4.1820 C   0  0  0  0  0  0  0  0  0  0  0  0
   -0.6256   16.2309   -4.7665 H   0  0  0  0  0  0  0  0  0  0  0  0
   -0.8352   17.4405   -6.0779 H   0  0  0  0  0  0  0  0  0  0  0  0
   -1.8175   15.9366   -6.0779 H   0  0  0  0  0  0  0  0  0  0  0  0
    1.1448   16.2964   -6.6455 H   0  0  0  0  0  0  0  0  0  0  0  0
    0.1244   14.4785   -8.4629 H   0  0  0  0  0  0  0  0  0  0  0  0
   -1.2567   15.6439   -8.1837 H   0  0  0  0  0  0  0  0  0  0  0  0
   -0.1339   16.5748   -9.9966 H   0  0  0  0  0  0  0  0  0  0  0  0
    0.5127   17.4764   -8.5628 H   0  0  0  0  0  0  0  0  0  0  0  0
    2.1618   16.0622   -8.3925 H   0  0  0  0  0  0  0  0  0  0  0  0
    0.3191   14.2917  -10.9332 H   0  0  0  0  0  0  0  0  0  0  0  0
    0.7494   15.5134  -12.1778 H   0  0  0  0  0  0  0  0  0  0  0  0
    1.5563   13.9085  -12.1778 H   0  0  0  0  0  0  0  0  0  0  0  0
    3.8409   14.3328   -9.6191 H   0  0  0  0  0  0  0  0  0  0  0  0
    3.3964   13.5524  -11.1747 H   0  0  0  0  0  0  0  0  0  0  0  0
    4.2691   15.1224  -11.1747 H   0  0  0  0  0  0  0  0  0  0  0  0
   -0.3753   13.7776   -6.2624 H   0  0  0  0  0  0  0  0  0  0  0  0
    1.5556   12.9615   -7.4654 H   0  0  0  0  0  0  0  0  0  0  0  0
    2.5023   14.4167   -7.0874 H   0  0  0  0  0  0  0  0  0  0  0  0
    2.8069   11.8656   -5.8373 H   0  0  0  0  0  0  0  0  0  0  0  0
    3.4759   13.3648   -5.1982 H   0  0  0  0  0  0  0  0  0  0  0  0
    0.1604   11.1833   -3.8370 H   0  0  0  0  0  0  0  0  0  0  0  0
   -0.3012   12.0414   -5.3461 H   0  0  0  0  0  0  0  0  0  0  0  0
    1.0965   10.9130   -5.3461 H   0  0  0  0  0  0  0  0  0  0  0  0
    2.8058   13.4812   -2.8749 H   0  0  0  0  0  0  0  0  0  0  0  0
    3.3016   11.0614   -3.6050 H   0  0  0  0  0  0  0  0  0  0  0  0
    3.5470   11.6000   -1.8613 H   0  0  0  0  0  0  0  0  0  0  0  0
    2.4518    9.2286   -2.2059 H   0  0  0  0  0  0  0  0  0  0  0  0
   -0.6876   11.7677   -2.2518 H   0  0  0  0  0  0  0  0  0  0  0  0
    0.2285   11.7338    0.6903 H   0  0  0  0  0  0  0  0  0  0  0  0
   -1.1465   12.6947   -0.0150 H   0  0  0  0  0  0  0  0  0  0  0  0
   -1.9332   10.6898    1.2012 H   0  0  0  0  0  0  0  0  0  0  0  0
   -2.3358   10.6503   -0.5601 H   0  0  0  0  0  0  0  0  0  0  0  0
   -1.5742    8.4724    0.1061 H   0  0  0  0  0  0  0  0  0  0  0  0
    1.0210    9.0090    0.6860 H   0  0  0  0  0  0  0  0  0  0  0  0
   -2.1572    8.7618   -1.9877 H   0  0  0  0  0  0  0  0  0  0  0  0
   -1.1928    9.8235   -3.0690 H   0  0  0  0  0  0  0  0  0  0  0  0
   -0.9123    8.0493   -3.0690 H   0  0  0  0  0  0  0  0  0  0  0  0
    0.8685    7.4660   -0.2434 H   0  0  0  0  0  0  0  0  0  0  0  0
    0.1205    6.9669   -1.7984 H   0  0  0  0  0  0  0  0  0  0  0  0
    1.6598    7.8928   -1.7984 H   0  0  0  0  0  0  0  0  0  0  0  0
    1.2404   13.0799    0.3873 H   0  0  0  0  0  0  0  0  0  0  0  0
    2.7740   12.8272   -0.5132 H   0  0  0  0  0  0  0  0  0  0  0  0
    1.9882   14.4425   -0.5132 H   0  0  0  0  0  0  0  0  0  0  0  0
   -0.8426   14.0921   -1.5174 H   0  0  0  0  0  0  0  0  0  0  0  0
    0.6807   15.0791   -1.8912 H   0  0  0  0  0  0  0  0  0  0  0  0
   -1.0712   13.5693   -3.8499 H   0  0  0  0  0  0  0  0  0  0  0  0
   -0.8106   15.3525   -3.7107 H   0  0  0  0  0  0  0  0  0  0  0  0
    1.9055   15.5514   -3.0898 H   0  0  0  0  0  0  0  0  0  0  0  0
    2.8171   15.2487   -4.6077 H   0  0  0  0  0  0  0  0  0  0  0  0
    1.4238   16.3824   -4.6077 H   0  0  0  0  0  0  0  0  0  0  0  0
  1  2  1  0
  2  3  1  0
  3  4  1  0
  4  5  1  0
  5  6  1  0
  6  7  1  0
  7  8  1  0
  7  9  1  0
  2 10  1  0
 10 11  1  0
 11 12  1  0
 12 13  1  0
 13 14  1  6
 13 15  1  0
 15 16  1  0
 16 17  1  0
 17 18  2  0
 18 19  1  0
 19 20  1  0
 20 21  1  0
 21 22  1  0
 22 23  1  0
 22 24  1  0
 24 25  1  0
 24 26  1  0
 19 27  1  0
 27 28  1  1
 27 29  1  0
 29 30  1  0
 30 31  1  0
 31 32  1  1
  7  5  1  0
 31 10  1  0
 31 13  1  0
 27 15  1  0
 24 18  1  0
  1 33  1  0
  1 34  1  0
  1 35  1  0
  2 36  1  6
  3 37  1  0
  3 38  1  0
  4 39  1  0
  4 40  1  0
  5 41  1  1
  8 42  1  0
  8 43  1  0
  8 44  1  0
  9 45  1  0
  9 46  1  0
  9 47  1  0
 10 48  1  1
 11 49  1  0
 11 50  1  0
 12 51  1  0
 12 52  1  0
 14 53  1  0
 14 54  1  0
 14 55  1  0
 15 56  1  1
 16 57  1  0
 16 58  1  0
 17 59  1  0
 19 60  1  6
 20 61  1  0
 20 62  1  0
 21 63  1  0
 21 64  1  0
 22 65  1  1
 23 66  1  0
 25 67  1  0
 25 68  1  0
 25 69  1  0
 26 70  1  0
 26 71  1  0
 26 72  1  0
 28 73  1  0
 28 74  1  0
 28 75  1  0
 29 76  1  0
 29 77  1  0
 30 78  1  0
 30 79  1  0
 32 80  1  0
 32 81  1  0
 32 82  1  0
M  END
>  <meeko>  (10) 
{"is_sidechain": [false], "intermolecular_energy": 2.731, "internal_energy": -0.839}

$$$$
EPH_relaxed_0001_pdb2pqr_Repair_109_r2_0001_out
     RDKit          3D

 82 86  0  0  0  0  0  0  0  0999 V2000
   -0.5620    9.2590   -1.8590 C   0  0  0  0  0  0  0  0  0  0  0  0
    0.5160   10.1750   -2.4440 C   0  0  2  0  0  0  0  0  0  0  0  0
    1.8700    9.4530   -2.5980 C   0  0  0  0  0  0  0  0  0  0  0  0
    2.7520   10.0300   -3.7080 C   0  0  0  0  0  0  0  0  0  0  0  0
    4.1920   10.0930   -3.2960 C   0  0  2  0  0  0  0  0  0  0  0  0
    4.6400   11.3920   -2.8860 O   0  0  0  0  0  0  0  0  0  0  0  0
    5.2510   10.8550   -4.0710 C   0  0  0  0  0  0  0  0  0  0  0  0
    4.9150   11.6040   -5.3220 C   0  0  0  0  0  0  0  0  0  0  0  0
    6.6860   10.4700   -3.8880 C   0  0  0  0  0  0  0  0  0  0  0  0
    0.6810   11.4100   -1.5660 C   0  0  1  0  0  0  0  0  0  0  0  0
    1.7860   11.2350   -0.4900 C   0  0  0  0  0  0  0  0  0  0  0  0
    2.4600   12.6200   -0.3110 C   0  0  0  0  0  0  0  0  0  0  0  0
    1.5150   13.6090   -1.0340 C   0  0  1  0  0  0  0  0  0  0  0  0
    0.3720   13.8930   -0.0090 C   0  0  0  0  0  0  0  0  0  0  0  0
    2.1660   14.9320   -1.5530 C   0  0  2  0  0  0  0  0  0  0  0  0
    2.7550   15.8420   -0.4610 C   0  0  0  0  0  0  0  0  0  0  0  0
    1.8140   16.8560    0.1010 C   0  0  0  0  0  0  0  0  0  0  0  0
    0.6410   17.2220   -0.4470 C   0  0  0  0  0  0  0  0  0  0  0  0
    0.2000   16.6670   -1.8080 C   0  0  1  0  0  0  0  0  0  0  0  0
   -0.3200   17.8270   -2.6970 C   0  0  0  0  0  0  0  0  0  0  0  0
   -1.4160   18.6400   -2.0150 C   0  0  0  0  0  0  0  0  0  0  0  0
   -0.9210   19.2230   -0.6940 C   0  0  2  0  0  0  0  0  0  0  0  0
    0.0930   20.1940   -0.9700 O   0  0  0  0  0  0  0  0  0  0  0  0
   -0.3650   18.1480    0.2800 C   0  0  0  0  0  0  0  0  0  0  0  0
   -1.5280   17.2780    0.8150 C   0  0  0  0  0  0  0  0  0  0  0  0
    0.2300   18.8820    1.5120 C   0  0  0  0  0  0  0  0  0  0  0  0
    1.2590   15.7500   -2.5590 C   0  0  1  0  0  0  0  0  0  0  0  0
    2.2220   16.6350   -3.4080 C   0  0  0  0  0  0  0  0  0  0  0  0
    0.5010   14.8160   -3.5760 C   0  0  0  0  0  0  0  0  0  0  0  0
   -0.0140   13.4700   -3.0320 C   0  0  0  0  0  0  0  0  0  0  0  0
    1.0880   12.7310   -2.2660 C   0  0  2  0  0  0  0  0  0  0  0  0
    2.2420   12.4120   -3.2760 C   0  0  0  0  0  0  0  0  0  0  0  0
   -0.5182    9.2962   -0.7605 H   0  0  0  0  0  0  0  0  0  0  0  0
   -1.5528    9.5957   -2.1981 H   0  0  0  0  0  0  0  0  0  0  0  0
   -0.3896    8.2269   -2.1981 H   0  0  0  0  0  0  0  0  0  0  0  0
    0.1857   10.4752   -3.4494 H   0  0  0  0  0  0  0  0  0  0  0  0
    2.4151    9.5303   -1.6457 H   0  0  0  0  0  0  0  0  0  0  0  0
    1.6493    8.4107   -2.8717 H   0  0  0  0  0  0  0  0  0  0  0  0
    2.6642    9.3930   -4.6005 H   0  0  0  0  0  0  0  0  0  0  0  0
    2.4108   11.0542   -3.9194 H   0  0  0  0  0  0  0  0  0  0  0  0
    4.1544    9.0605   -2.9184 H   0  0  0  0  0  0  0  0  0  0  0  0
    4.4778   12.5787   -5.0596 H   0  0  0  0  0  0  0  0  0  0  0  0
    5.8296   11.7596   -5.9130 H   0  0  0  0  0  0  0  0  0  0  0  0
    4.1906   11.0244   -5.9130 H   0  0  0  0  0  0  0  0  0  0  0  0
    6.9150   10.4086   -2.8139 H   0  0  0  0  0  0  0  0  0  0  0  0
    6.8660    9.4918   -4.3578 H   0  0  0  0  0  0  0  0  0  0  0  0
    7.3314   11.2267   -4.3578 H   0  0  0  0  0  0  0  0  0  0  0  0
   -0.3422   11.4931   -1.1708 H   0  0  0  0  0  0  0  0  0  0  0  0
    1.3406   10.9049    0.4601 H   0  0  0  0  0  0  0  0  0  0  0  0
    2.5199   10.4756   -0.7977 H   0  0  0  0  0  0  0  0  0  0  0  0
    2.5469   12.8749    0.7555 H   0  0  0  0  0  0  0  0  0  0  0  0
    3.4810   12.6435   -0.7197 H   0  0  0  0  0  0  0  0  0  0  0  0
    0.7643   13.7955    1.0140 H   0  0  0  0  0  0  0  0  0  0  0  0
   -0.0102   14.9134   -0.1594 H   0  0  0  0  0  0  0  0  0  0  0  0
   -0.4434   13.1701   -0.1594 H   0  0  0  0  0  0  0  0  0  0  0  0
    3.0266   14.5604   -2.1287 H   0  0  0  0  0  0  0  0  0  0  0  0
    3.0986   15.2025    0.3654 H   0  0  0  0  0  0  0  0  0  0  0  0
    3.5632   16.4115   -0.9431 H   0  0  0  0  0  0  0  0  0  0  0  0
    2.1043   17.3451    1.0426 H   0  0  0  0  0  0  0  0  0  0  0  0
   -0.6182   15.9624   -1.5981 H   0  0  0  0  0  0  0  0  0  0  0  0
    0.5211   18.4959   -2.9316 H   0  0  0  0  0  0  0  0  0  0  0  0
   -0.7502   17.3835   -3.6070 H   0  0  0  0  0  0  0  0  0  0  0  0
   -1.7208   19.4619   -2.6795 H   0  0  0  0  0  0  0  0  0  0  0  0
   -2.2684   17.9762   -1.8083 H   0  0  0  0  0  0  0  0  0  0  0  0
   -1.7849   19.6830   -0.1920 H   0  0  0  0  0  0  0  0  0  0  0  0
   -0.2810   20.8410   -1.5920 H   0  0  0  0  0  0  0  0  0  0  0  0
   -1.5165   17.2866    1.9149 H   0  0  0  0  0  0  0  0  0  0  0  0
   -2.4850   17.6837    0.4552 H   0  0  0  0  0  0  0  0  0  0  0  0
   -1.4090   16.2454    0.4552 H   0  0  0  0  0  0  0  0  0  0  0  0
   -0.1477   18.4161    2.4341 H   0  0  0  0  0  0  0  0  0  0  0  0
    1.3273   18.8094    1.4874 H   0  0  0  0  0  0  0  0  0  0  0  0
   -0.0681   19.9406    1.4874 H   0  0  0  0  0  0  0  0  0  0  0  0
    2.8642   17.2252   -2.7378 H   0  0  0  0  0  0  0  0  0  0  0  0
    2.8483   15.9908   -4.0426 H   0  0  0  0  0  0  0  0  0  0  0  0
    1.6328   17.3134   -4.0426 H   0  0  0  0  0  0  0  0  0  0  0  0
   -0.3664   15.3744   -3.9577 H   0  0  0  0  0  0  0  0  0  0  0  0
    1.2500   14.5512   -4.3368 H   0  0  0  0  0  0  0  0  0  0  0  0
   -0.8606   13.6557   -2.3547 H   0  0  0  0  0  0  0  0  0  0  0  0
   -0.3301   12.8461   -3.8810 H   0  0  0  0  0  0  0  0  0  0  0  0
    3.1567   12.1592   -2.7197 H   0  0  0  0  0  0  0  0  0  0  0  0
    1.9506   11.5607   -3.9088 H   0  0  0  0  0  0  0  0  0  0  0  0
    2.4292   13.2921   -3.9088 H   0  0  0  0  0  0  0  0  0  0  0  0
  1  2  1  0
  2  3  1  0
  3  4  1  0
  4  5  1  0
  5  6  1  0
  6  7  1  0
  7  8  1  0
  7  9  1  0
  2 10  1  0
 10 11  1  0
 11 12  1  0
 12 13  1  0
 13 14  1  1
 13 15  1  0
 15 16  1  0
 16 17  1  0
 17 18  2  0
 18 19  1  0
 19 20  1  0
 20 21  1  0
 21 22  1  0
 22 23  1  0
 22 24  1  0
 24 25  1  0
 24 26  1  0
 19 27  1  0
 27 28  1  6
 27 29  1  0
 29 30  1  0
 30 31  1  0
 31 32  1  6
  7  5  1  0
 31 10  1  0
 31 13  1  0
 27 15  1  0
 24 18  1  0
  1 33  1  0
  1 34  1  0
  1 35  1  0
  2 36  1  6
  3 37  1  0
  3 38  1  0
  4 39  1  0
  4 40  1  0
  5 41  1  1
  8 42  1  0
  8 43  1  0
  8 44  1  0
  9 45  1  0
  9 46  1  0
  9 47  1  0
 10 48  1  1
 11 49  1  0
 11 50  1  0
 12 51  1  0
 12 52  1  0
 14 53  1  0
 14 54  1  0
 14 55  1  0
 15 56  1  6
 16 57  1  0
 16 58  1  0
 17 59  1  0
 19 60  1  1
 20 61  1  0
 20 62  1  0
 21 63  1  0
 21 64  1  0
 22 65  1  1
 23 66  1  0
 25 67  1  0
 25 68  1  0
 25 69  1  0
 26 70  1  0
 26 71  1  0
 26 72  1  0
 28 73  1  0
 28 74  1  0
 28 75  1  0
 29 76  1  0
 29 77  1  0
 30 78  1  0
 30 79  1  0
 32 80  1  0
 32 81  1  0
 32 82  1  0
M  END
>  <meeko>  (11) 
{"is_sidechain": [false], "intermolecular_energy": 2.731, "internal_energy": -0.839}

$$$$
EPH_relaxed_0001_pdb2pqr_Repair_109_r2_0001_out
     RDKit          3D

 82 86  0  0  0  0  0  0  0  0999 V2000
    2.8690   11.4650   -5.5880 C   0  0  0  0  0  0  0  0  0  0  0  0
    2.0050   11.1480   -4.3650 C   0  0  2  0  0  0  0  0  0  0  0  0
    0.9100   10.1090   -4.6800 C   0  0  0  0  0  0  0  0  0  0  0  0
   -0.1840   10.0240   -3.6120 C   0  0  0  0  0  0  0  0  0  0  0  0
    0.1470    9.0100   -2.5590 C   0  0  2  0  0  0  0  0  0  0  0  0
   -0.8990    8.0690   -2.2840 O   0  0  0  0  0  0  0  0  0  0  0  0
   -0.5400    8.9510   -1.2080 C   0  0  0  0  0  0  0  0  0  0  0  0
   -1.6140    9.9250   -0.8360 C   0  0  0  0  0  0  0  0  0  0  0  0
    0.1620    8.2670   -0.0770 C   0  0  0  0  0  0  0  0  0  0  0  0
    1.3710   12.4270   -3.8310 C   0  0  1  0  0  0  0  0  0  0  0  0
   -0.1730   12.3240   -3.7100 C   0  0  0  0  0  0  0  0  0  0  0  0
   -0.5800   13.1470   -2.4610 C   0  0  0  0  0  0  0  0  0  0  0  0
    0.6850   13.9610   -2.1010 C   0  0  1  0  0  0  0  0  0  0  0  0
    0.6630   15.1850   -3.0700 C   0  0  0  0  0  0  0  0  0  0  0  0
    0.8170   14.4090   -0.6090 C   0  0  2  0  0  0  0  0  0  0  0  0
   -0.2880   15.3580   -0.1120 C   0  0  0  0  0  0  0  0  0  0  0  0
   -0.0010   16.8130   -0.2810 C   0  0  0  0  0  0  0  0  0  0  0  0
    1.2060   17.3480   -0.5450 C   0  0  0  0  0  0  0  0  0  0  0  0
    2.4610   16.4670   -0.6030 C   0  0  1  0  0  0  0  0  0  0  0  0
    3.6020   17.1380    0.2060 C   0  0  0  0  0  0  0  0  0  0  0  0
    3.8730   18.5710   -0.2430 C   0  0  0  0  0  0  0  0  0  0  0  0
    2.6160   19.4290   -0.1150 C   0  0  2  0  0  0  0  0  0  0  0  0
    2.2920   19.5680    1.2710 O   0  0  0  0  0  0  0  0  0  0  0  0
    1.3960   18.8470   -0.8820 C   0  0  0  0  0  0  0  0  0  0  0  0
    1.6300   18.9760   -2.4080 C   0  0  0  0  0  0  0  0  0  0  0  0
    0.1620   19.7300   -0.5560 C   0  0  0  0  0  0  0  0  0  0  0  0
    2.2550   14.9400   -0.2160 C   0  0  1  0  0  0  0  0  0  0  0  0
    2.3910   14.7590    1.3270 C   0  0  0  0  0  0  0  0  0  0  0  0
    3.4060   14.0850   -0.8670 C   0  0  0  0  0  0  0  0  0  0  0  0
    3.1660   13.5710   -2.2990 C   0  0  0  0  0  0  0  0  0  0  0  0
    1.7960   12.8950   -2.4160 C   0  0  2  0  0  0  0  0  0  0  0  0
    1.7960   11.6470   -1.4690 C   0  0  0  0  0  0  0  0  0  0  0  0
    3.8539   11.8264   -5.2574 H   0  0  0  0  0  0  0  0  0  0  0  0
    2.9964   10.5550   -6.1928 H   0  0  0  0  0  0  0  0  0  0  0  0
    2.3776   12.2414   -6.1928 H   0  0  0  0  0  0  0  0  0  0  0  0
    2.6634   10.7113   -3.5996 H   0  0  0  0  0  0  0  0  0  0  0  0
    0.4404   10.3789   -5.6374 H   0  0  0  0  0  0  0  0  0  0  0  0
    1.4012    9.1254   -4.7158 H   0  0  0  0  0  0  0  0  0  0  0  0
   -0.2947   11.0094   -3.1358 H   0  0  0  0  0  0  0  0  0  0  0  0
   -1.1191    9.7161   -4.1027 H   0  0  0  0  0  0  0  0  0  0  0  0
    1.2087    9.0242   -2.8465 H   0  0  0  0  0  0  0  0  0  0  0  0
   -1.6862    9.9904    0.2597 H   0  0  0  0  0  0  0  0  0  0  0  0
   -1.3692   10.9155   -1.2472 H   0  0  0  0  0  0  0  0  0  0  0  0
   -2.5759    9.5849   -1.2472 H   0  0  0  0  0  0  0  0  0  0  0  0
   -0.2274    8.6464    0.8793 H   0  0  0  0  0  0  0  0  0  0  0  0
   -0.0121    7.1827   -0.1395 H   0  0  0  0  0  0  0  0  0  0  0  0
    1.2414    8.4692   -0.1395 H   0  0  0  0  0  0  0  0  0  0  0  0
    1.7307   13.1398   -4.5876 H   0  0  0  0  0  0  0  0  0  0  0  0
   -0.6519   12.7386   -4.6093 H   0  0  0  0  0  0  0  0  0  0  0  0
   -0.4924   11.2758   -3.6134 H   0  0  0  0  0  0  0  0  0  0  0  0
   -1.4199   13.8177   -2.6947 H   0  0  0  0  0  0  0  0  0  0  0  0
   -0.9148   12.5075   -1.6310 H   0  0  0  0  0  0  0  0  0  0  0  0
    0.6463   16.1160   -2.4844 H   0  0  0  0  0  0  0  0  0  0  0  0
    1.5616   15.1668   -3.7042 H   0  0  0  0  0  0  0  0  0  0  0  0
   -0.2344   15.1345   -3.7042 H   0  0  0  0  0  0  0  0  0  0  0  0
    0.6662   13.4646   -0.0655 H   0  0  0  0  0  0  0  0  0  0  0  0
   -1.2097   15.1266   -0.6661 H   0  0  0  0  0  0  0  0  0  0  0  0
   -0.3715   15.1877    0.9715 H   0  0  0  0  0  0  0  0  0  0  0  0
   -0.8481   17.5076   -0.1813 H   0  0  0  0  0  0  0  0  0  0  0  0
    2.7415   16.4068   -1.6649 H   0  0  0  0  0  0  0  0  0  0  0  0
    3.3211   17.1488    1.2695 H   0  0  0  0  0  0  0  0  0  0  0  0
    4.5194   16.5555    0.0356 H   0  0  0  0  0  0  0  0  0  0  0  0
    4.6679   19.0008    0.3843 H   0  0  0  0  0  0  0  0  0  0  0  0
    4.1824   18.5561   -1.2985 H   0  0  0  0  0  0  0  0  0  0  0  0
    2.8354   20.4057   -0.5711 H   0  0  0  0  0  0  0  0  0  0  0  0
    2.0860   20.5040    1.4330 H   0  0  0  0  0  0  0  0  0  0  0  0
    2.5800   19.4997   -2.5903 H   0  0  0  0  0  0  0  0  0  0  0  0
    1.6717   17.9734   -2.8586 H   0  0  0  0  0  0  0  0  0  0  0  0
    0.8045   19.5465   -2.8586 H   0  0  0  0  0  0  0  0  0  0  0  0
    0.0476   19.8118    0.5350 H   0  0  0  0  0  0  0  0  0  0  0  0
    0.3045   20.7324   -0.9860 H   0  0  0  0  0  0  0  0  0  0  0  0
   -0.7408   19.2716   -0.9860 H   0  0  0  0  0  0  0  0  0  0  0  0
    1.8066   15.5368    1.8403 H   0  0  0  0  0  0  0  0  0  0  0  0
    2.0131   13.7668    1.6145 H   0  0  0  0  0  0  0  0  0  0  0  0
    3.4492   14.8458    1.6145 H   0  0  0  0  0  0  0  0  0  0  0  0
    4.3131   14.7070   -0.8846 H   0  0  0  0  0  0  0  0  0  0  0  0
    3.4786   13.1803   -0.2454 H   0  0  0  0  0  0  0  0  0  0  0  0
    3.2097   14.4193   -2.9980 H   0  0  0  0  0  0  0  0  0  0  0  0
    3.9439   12.8321   -2.5417 H   0  0  0  0  0  0  0  0  0  0  0  0
    2.8331   11.3549   -1.2474 H   0  0  0  0  0  0  0  0  0  0  0  0
    1.2775   11.8978   -0.5319 H   0  0  0  0  0  0  0  0  0  0  0  0
    1.2775   10.8120   -1.9628 H   0  0  0  0  0  0  0  0  0  0  0  0
  1  2  1  0
  2  3  1  0
  3  4  1  0
  4  5  1  0
  5  6  1  0
  6  7  1  0
  7  8  1  0
  7  9  1  0
  2 10  1  0
 10 11  1  0
 11 12  1  0
 12 13  1  0
 13 14  1  6
 13 15  1  0
 15 16  1  0
 16 17  1  0
 17 18  2  0
 18 19  1  0
 19 20  1  0
 20 21  1  0
 21 22  1  0
 22 23  1  0
 22 24  1  0
 24 25  1  0
 24 26  1  0
 19 27  1  0
 27 28  1  1
 27 29  1  0
 29 30  1  0
 30 31  1  0
 31 32  1  1
  7  5  1  0
 31 10  1  0
 31 13  1  0
 27 15  1  0
 24 18  1  0
  1 33  1  0
  1 34  1  0
  1 35  1  0
  2 36  1  1
  3 37  1  0
  3 38  1  0
  4 39  1  0
  4 40  1  0
  5 41  1  1
  8 42  1  0
  8 43  1  0
  8 44  1  0
  9 45  1  0
  9 46  1  0
  9 47  1  0
 10 48  1  6
 11 49  1  0
 11 50  1  0
 12 51  1  0
 12 52  1  0
 14 53  1  0
 14 54  1  0
 14 55  1  0
 15 56  1  1
 16 57  1  0
 16 58  1  0
 17 59  1  0
 19 60  1  6
 20 61  1  0
 20 62  1  0
 21 63  1  0
 21 64  1  0
 22 65  1  6
 23 66  1  0
 25 67  1  0
 25 68  1  0
 25 69  1  0
 26 70  1  0
 26 71  1  0
 26 72  1  0
 28 73  1  0
 28 74  1  0
 28 75  1  0
 29 76  1  0
 29 77  1  0
 30 78  1  0
 30 79  1  0
 32 80  1  0
 32 81  1  0
 32 82  1  0
M  END
>  <meeko>  (12) 
{"is_sidechain": [false], "intermolecular_energy": 2.731, "internal_energy": -0.839}

$$$$
EPH_relaxed_0001_pdb2pqr_Repair_109_r2_0001_out
     RDKit          3D

 82 86  0  0  0  0  0  0  0  0999 V2000
    0.9610   14.8870   -2.6180 C   0  0  0  0  0  0  0  0  0  0  0  0
    1.2170   14.2090   -3.9670 C   0  0  2  0  0  0  0  0  0  0  0  0
    0.5090   14.9380   -5.1260 C   0  0  0  0  0  0  0  0  0  0  0  0
    1.0880   14.6080   -6.5050 C   0  0  0  0  0  0  0  0  0  0  0  0
    0.8450   15.7140   -7.4870 C   0  0  2  0  0  0  0  0  0  0  0  0
    0.3860   15.2820   -8.7740 O   0  0  0  0  0  0  0  0  0  0  0  0
    1.6750   15.9160   -8.7410 C   0  0  0  0  0  0  0  0  0  0  0  0
    2.8110   15.0030   -9.0810 C   0  0  0  0  0  0  0  0  0  0  0  0
    1.6960   17.2720   -9.3750 C   0  0  0  0  0  0  0  0  0  0  0  0
    0.7640   12.7550   -3.9120 C   0  0  1  0  0  0  0  0  0  0  0  0
    1.8980   11.7610   -4.2800 C   0  0  0  0  0  0  0  0  0  0  0  0
    1.6890   10.4990   -3.4050 C   0  0  0  0  0  0  0  0  0  0  0  0
    0.2700   10.6660   -2.8110 C   0  0  1  0  0  0  0  0  0  0  0  0
   -0.6960   10.1950   -3.9430 C   0  0  0  0  0  0  0  0  0  0  0  0
   -0.0090    9.9200   -1.4660 C   0  0  2  0  0  0  0  0  0  0  0  0
    0.0950    8.3860   -1.5370 C   0  0  0  0  0  0  0  0  0  0  0  0
   -1.1760    7.6760   -1.8700 C   0  0  0  0  0  0  0  0  0  0  0  0
   -2.4090    8.2150   -1.8230 C   0  0  0  0  0  0  0  0  0  0  0  0
   -2.6240    9.6450   -1.3080 C   0  0  1  0  0  0  0  0  0  0  0  0
   -3.8130    9.6630   -0.3120 C   0  0  0  0  0  0  0  0  0  0  0  0
   -5.0820    9.0580   -0.9050 C   0  0  0  0  0  0  0  0  0  0  0  0
   -4.8430    7.6180   -1.3510 C   0  0  2  0  0  0  0  0  0  0  0  0
   -4.5970    6.8120   -0.1940 O   0  0  0  0  0  0  0  0  0  0  0  0
   -3.6620    7.4740   -2.3500 C   0  0  0  0  0  0  0  0  0  0  0  0
   -4.0550    8.0930   -3.7140 C   0  0  0  0  0  0  0  0  0  0  0  0
   -3.4380    5.9600   -2.6090 C   0  0  0  0  0  0  0  0  0  0  0  0
   -1.3350   10.3770   -0.7340 C   0  0  1  0  0  0  0  0  0  0  0  0
   -1.1540   10.0290    0.7750 C   0  0  0  0  0  0  0  0  0  0  0  0
   -1.5530   11.9340   -0.8080 C   0  0  0  0  0  0  0  0  0  0  0  0
   -1.1470   12.6320   -2.1200 C   0  0  0  0  0  0  0  0  0  0  0  0
    0.2640   12.2160   -2.5480 C   0  0  2  0  0  0  0  0  0  0  0  0
    1.2610   12.6970   -1.4390 C   0  0  0  0  0  0  0  0  0  0  0  0
    1.2224   14.1946   -1.8042 H   0  0  0  0  0  0  0  0  0  0  0  0
    1.5786   15.7940   -2.5404 H   0  0  0  0  0  0  0  0  0  0  0  0
   -0.1019   15.1594   -2.5404 H   0  0  0  0  0  0  0  0  0  0  0  0
    2.2989   14.2540   -4.1604 H   0  0  0  0  0  0  0  0  0  0  0  0
   -0.5535   14.6533   -5.1181 H   0  0  0  0  0  0  0  0  0  0  0  0
    0.6553   16.0163   -4.9652 H   0  0  0  0  0  0  0  0  0  0  0  0
    2.1721   14.4493   -6.4078 H   0  0  0  0  0  0  0  0  0  0  0  0
    0.5890   13.7017   -6.8786 H   0  0  0  0  0  0  0  0  0  0  0  0
    0.5510   16.3993   -6.6783 H   0  0  0  0  0  0  0  0  0  0  0  0
    3.2730   14.6317   -8.1543 H   0  0  0  0  0  0  0  0  0  0  0  0
    2.4349   14.1530   -9.6693 H   0  0  0  0  0  0  0  0  0  0  0  0
    3.5601   15.5532   -9.6693 H   0  0  0  0  0  0  0  0  0  0  0  0
    1.7079   18.0433   -8.5908 H   0  0  0  0  0  0  0  0  0  0  0  0
    2.5958   17.3706  -10.0000 H   0  0  0  0  0  0  0  0  0  0  0  0
    0.7997   17.3985  -10.0000 H   0  0  0  0  0  0  0  0  0  0  0  0
   -0.0690   12.7953   -4.6292 H   0  0  0  0  0  0  0  0  0  0  0  0
    1.8386   11.4967   -5.3461 H   0  0  0  0  0  0  0  0  0  0  0  0
    2.8873   12.2067   -4.0997 H   0  0  0  0  0  0  0  0  0  0  0  0
    1.7486    9.5874   -4.0178 H   0  0  0  0  0  0  0  0  0  0  0  0
    2.4585   10.4001   -2.6252 H   0  0  0  0  0  0  0  0  0  0  0  0
   -1.5990    9.7547   -3.4949 H   0  0  0  0  0  0  0  0  0  0  0  0
   -0.9785   11.0565   -4.5659 H   0  0  0  0  0  0  0  0  0  0  0  0
   -0.1913    9.4419   -4.5659 H   0  0  0  0  0  0  0  0  0  0  0  0
    0.8313   10.2472   -0.8360 H   0  0  0  0  0  0  0  0  0  0  0  0
    0.8387    8.1308   -2.3063 H   0  0  0  0  0  0  0  0  0  0  0  0
    0.3746    8.0525   -0.5268 H   0  0  0  0  0  0  0  0  0  0  0  0
   -1.0983    6.6234   -2.1800 H   0  0  0  0  0  0  0  0  0  0  0  0
   -2.8681   10.2530   -2.1916 H   0  0  0  0  0  0  0  0  0  0  0  0
   -3.5325    9.0874    0.5824 H   0  0  0  0  0  0  0  0  0  0  0  0
   -4.0271   10.7137   -0.0665 H   0  0  0  0  0  0  0  0  0  0  0  0
   -5.8768    9.0722   -0.1447 H   0  0  0  0  0  0  0  0  0  0  0  0
   -5.3778    9.6526   -1.7819 H   0  0  0  0  0  0  0  0  0  0  0  0
   -5.7455    7.2832   -1.8834 H   0  0  0  0  0  0  0  0  0  0  0  0
   -5.3520    6.2090   -0.0900 H   0  0  0  0  0  0  0  0  0  0  0  0
   -4.6377    9.0107   -3.5459 H   0  0  0  0  0  0  0  0  0  0  0  0
   -3.1450    8.3354   -4.2825 H   0  0  0  0  0  0  0  0  0  0  0  0
   -4.6615    7.3726   -4.2825 H   0  0  0  0  0  0  0  0  0  0  0  0
   -3.3598    5.4312   -1.6476 H   0  0  0  0  0  0  0  0  0  0  0  0
   -4.2862    5.5565   -3.1815 H   0  0  0  0  0  0  0  0  0  0  0  0
   -2.5093    5.8194   -3.1815 H   0  0  0  0  0  0  0  0  0  0  0  0
   -1.5746   10.8376    1.3908 H   0  0  0  0  0  0  0  0  0  0  0  0
   -1.6767    9.0875    0.9994 H   0  0  0  0  0  0  0  0  0  0  0  0
   -0.0830    9.9164    0.9994 H   0  0  0  0  0  0  0  0  0  0  0  0
   -2.6235   12.1280   -0.6456 H   0  0  0  0  0  0  0  0  0  0  0  0
   -0.8860   12.3542   -0.0408 H   0  0  0  0  0  0  0  0  0  0  0  0
   -1.8595   12.3545   -2.9108 H   0  0  0  0  0  0  0  0  0  0  0  0
   -1.1578   13.7198   -1.9567 H   0  0  0  0  0  0  0  0  0  0  0  0
    0.8332   12.4906   -0.4468 H   0  0  0  0  0  0  0  0  0  0  0  0
    2.2151   12.1601   -1.5458 H   0  0  0  0  0  0  0  0  0  0  0  0
    1.4346   13.7780   -1.5458 H   0  0  0  0  0  0  0  0  0  0  0  0
  1  2  1  0
  2  3  1  0
  3  4  1  0
  4  5  1  0
  5  6  1  0
  6  7  1  0
  7  8  1  0
  7  9  1  0
  2 10  1  0
 10 11  1  0
 11 12  1  0
 12 13  1  0
 13 14  1  6
 13 15  1  0
 15 16  1  0
 16 17  1  0
 17 18  2  0
 18 19  1  0
 19 20  1  0
 20 21  1  0
 21 22  1  0
 22 23  1  0
 22 24  1  0
 24 25  1  0
 24 26  1  0
 19 27  1  0
 27 28  1  1
 27 29  1  0
 29 30  1  0
 30 31  1  0
 31 32  1  1
  7  5  1  0
 31 10  1  0
 31 13  1  0
 27 15  1  0
 24 18  1  0
  1 33  1  0
  1 34  1  0
  1 35  1  0
  2 36  1  6
  3 37  1  0
  3 38  1  0
  4 39  1  0
  4 40  1  0
  5 41  1  1
  8 42  1  0
  8 43  1  0
  8 44  1  0
  9 45  1  0
  9 46  1  0
  9 47  1  0
 10 48  1  6
 11 49  1  0
 11 50  1  0
 12 51  1  0
 12 52  1  0
 14 53  1  0
 14 54  1  0
 14 55  1  0
 15 56  1  1
 16 57  1  0
 16 58  1  0
 17 59  1  0
 19 60  1  6
 20 61  1  0
 20 62  1  0
 21 63  1  0
 21 64  1  0
 22 65  1  6
 23 66  1  0
 25 67  1  0
 25 68  1  0
 25 69  1  0
 26 70  1  0
 26 71  1  0
 26 72  1  0
 28 73  1  0
 28 74  1  0
 28 75  1  0
 29 76  1  0
 29 77  1  0
 30 78  1  0
 30 79  1  0
 32 80  1  0
 32 81  1  0
 32 82  1  0
M  END
>  <meeko>  (13) 
{"is_sidechain": [false], "intermolecular_energy": 2.731, "internal_energy": -0.839}

$$$$
EPH_relaxed_0001_pdb2pqr_Repair_109_r2_0001_out
     RDKit          3D

 82 86  0  0  0  0  0  0  0  0999 V2000
   -4.4190    7.0250   -2.8020 C   0  0  0  0  0  0  0  0  0  0  0  0
   -4.5790    7.4670   -1.3450 C   0  0  2  0  0  0  0  0  0  0  0  0
   -6.0580    7.6700   -0.9590 C   0  0  0  0  0  0  0  0  0  0  0  0
   -6.8310    6.3620   -0.7740 C   0  0  0  0  0  0  0  0  0  0  0  0
   -8.2820    6.5220   -1.1130 C   0  0  2  0  0  0  0  0  0  0  0  0
   -8.7820    7.8600   -0.9880 O   0  0  0  0  0  0  0  0  0  0  0  0
   -9.3440    6.8870   -0.0930 C   0  0  0  0  0  0  0  0  0  0  0  0
   -8.9990    7.1130    1.3460 C   0  0  0  0  0  0  0  0  0  0  0  0
  -10.7710    6.5470   -0.3920 C   0  0  0  0  0  0  0  0  0  0  0  0
   -3.7970    8.7530   -1.1030 C   0  0  1  0  0  0  0  0  0  0  0  0
   -4.2050    9.4620    0.2150 C   0  0  0  0  0  0  0  0  0  0  0  0
   -2.9200   10.1100    0.7910 C   0  0  0  0  0  0  0  0  0  0  0  0
   -1.8960   10.0400   -0.3650 C   0  0  1  0  0  0  0  0  0  0  0  0
   -2.2460   11.2510   -1.2850 C   0  0  0  0  0  0  0  0  0  0  0  0
   -0.3880   10.0450    0.0460 C   0  0  2  0  0  0  0  0  0  0  0  0
    0.0860   11.3150    0.7740 C   0  0  0  0  0  0  0  0  0  0  0  0
    0.6140   12.3960   -0.1090 C   0  0  0  0  0  0  0  0  0  0  0  0
    0.9700   12.2490   -1.3990 C   0  0  0  0  0  0  0  0  0  0  0  0
    0.9480   10.8690   -2.0690 C   0  0  1  0  0  0  0  0  0  0  0  0
    2.2650   10.6580   -2.8620 C   0  0  0  0  0  0  0  0  0  0  0  0
    2.5370   11.7840   -3.8540 C   0  0  0  0  0  0  0  0  0  0  0  0
    2.6100   13.1330   -3.1420 C   0  0  2  0  0  0  0  0  0  0  0  0
    3.7630   13.1450   -2.2950 O   0  0  0  0  0  0  0  0  0  0  0  0
    1.3410   13.4510   -2.3020 C   0  0  0  0  0  0  0  0  0  0  0  0
    0.1480   13.7350   -3.2480 C   0  0  0  0  0  0  0  0  0  0  0  0
    1.6020   14.7690   -1.5250 C   0  0  0  0  0  0  0  0  0  0  0  0
    0.6040    9.6420   -1.1200 C   0  0  1  0  0  0  0  0  0  0  0  0
    1.9040    9.1170   -0.4370 C   0  0  0  0  0  0  0  0  0  0  0  0
    0.0500    8.4550   -1.9930 C   0  0  0  0  0  0  0  0  0  0  0  0
   -1.4660    8.4420   -2.2650 C   0  0  0  0  0  0  0  0  0  0  0  0
   -2.2580    8.6340   -0.9680 C   0  0  2  0  0  0  0  0  0  0  0  0
   -1.9430    7.4180   -0.0310 C   0  0  0  0  0  0  0  0  0  0  0  0
   -4.0447    5.9911   -2.8325 H   0  0  0  0  0  0  0  0  0  0  0  0
   -5.3932    7.0775   -3.3102 H   0  0  0  0  0  0  0  0  0  0  0  0
   -3.7041    7.6889   -3.3102 H   0  0  0  0  0  0  0  0  0  0  0  0
   -4.1789    6.6631   -0.7096 H   0  0  0  0  0  0  0  0  0  0  0  0
   -6.0963    8.2325   -0.0145 H   0  0  0  0  0  0  0  0  0  0  0  0
   -6.5355    8.2108   -1.7894 H   0  0  0  0  0  0  0  0  0  0  0  0
   -6.3944    5.5943   -1.4298 H   0  0  0  0  0  0  0  0  0  0  0  0
   -6.7567    6.0668    0.2830 H   0  0  0  0  0  0  0  0  0  0  0  0
   -8.2211    5.7153   -1.8583 H   0  0  0  0  0  0  0  0  0  0  0  0
   -9.7484    6.6221    1.9842 H   0  0  0  0  0  0  0  0  0  0  0  0
   -8.0054    6.6902    1.5556 H   0  0  0  0  0  0  0  0  0  0  0  0
   -8.9897    8.1928    1.5556 H   0  0  0  0  0  0  0  0  0  0  0  0
  -11.3220    6.4157    0.5510 H   0  0  0  0  0  0  0  0  0  0  0  0
  -11.2279    7.3614   -0.9733 H   0  0  0  0  0  0  0  0  0  0  0  0
  -10.8116    5.6140   -0.9733 H   0  0  0  0  0  0  0  0  0  0  0  0
   -4.0536    9.3003   -2.0220 H   0  0  0  0  0  0  0  0  0  0  0  0
   -4.9603   10.2352    0.0110 H   0  0  0  0  0  0  0  0  0  0  0  0
   -4.6411    8.7477    0.9289 H   0  0  0  0  0  0  0  0  0  0  0  0
   -3.1080   11.1544    1.0805 H   0  0  0  0  0  0  0  0  0  0  0  0
   -2.5633    9.5962    1.6959 H   0  0  0  0  0  0  0  0  0  0  0  0
   -2.4980   12.1229   -0.6634 H   0  0  0  0  0  0  0  0  0  0  0  0
   -1.3805   11.4912   -1.9200 H   0  0  0  0  0  0  0  0  0  0  0  0
   -3.1062   10.9925   -1.9200 H   0  0  0  0  0  0  0  0  0  0  0  0
   -0.3453    9.2391    0.7934 H   0  0  0  0  0  0  0  0  0  0  0  0
   -0.7666   11.7222    1.3373 H   0  0  0  0  0  0  0  0  0  0  0  0
    0.9270   11.0046    1.4114 H   0  0  0  0  0  0  0  0  0  0  0  0
    0.7215   13.3981    0.3316 H   0  0  0  0  0  0  0  0  0  0  0  0
    0.0928   10.8806   -2.7607 H   0  0  0  0  0  0  0  0  0  0  0  0
    3.1013   10.6062   -2.1493 H   0  0  0  0  0  0  0  0  0  0  0  0
    2.1636    9.7249   -3.4356 H   0  0  0  0  0  0  0  0  0  0  0  0
    3.4937   11.5929   -4.3620 H   0  0  0  0  0  0  0  0  0  0  0  0
    1.7140   11.8160   -4.5831 H   0  0  0  0  0  0  0  0  0  0  0  0
    2.6776   13.9119   -3.9158 H   0  0  0  0  0  0  0  0  0  0  0  0
    4.5160   12.8230   -2.8190 H   0  0  0  0  0  0  0  0  0  0  0  0
   -0.7507   13.9489   -2.6508 H   0  0  0  0  0  0  0  0  0  0  0  0
    0.3817   14.6026   -3.8825 H   0  0  0  0  0  0  0  0  0  0  0  0
   -0.0343   12.8552   -3.8825 H   0  0  0  0  0  0  0  0  0  0  0  0
    1.5628   14.5711   -0.4437 H   0  0  0  0  0  0  0  0  0  0  0  0
    2.5951   15.1605   -1.7903 H   0  0  0  0  0  0  0  0  0  0  0  0
    0.8331   15.5095   -1.7903 H   0  0  0  0  0  0  0  0  0  0  0  0
    1.7885    9.1636    0.6559 H   0  0  0  0  0  0  0  0  0  0  0  0
    2.0839    8.0757   -0.7426 H   0  0  0  0  0  0  0  0  0  0  0  0
    2.7565    9.7413   -0.7426 H   0  0  0  0  0  0  0  0  0  0  0  0
    0.5624    8.4899   -2.9657 H   0  0  0  0  0  0  0  0  0  0  0  0
    0.2443    7.5478   -1.4021 H   0  0  0  0  0  0  0  0  0  0  0  0
   -1.7135    9.2566   -2.9616 H   0  0  0  0  0  0  0  0  0  0  0  0
   -1.7358    7.4681   -2.6995 H   0  0  0  0  0  0  0  0  0  0  0  0
   -2.0248    7.7338    1.0195 H   0  0  0  0  0  0  0  0  0  0  0  0
   -2.6610    6.6081   -0.2274 H   0  0  0  0  0  0  0  0  0  0  0  0
   -0.9221    7.0586   -0.2274 H   0  0  0  0  0  0  0  0  0  0  0  0
  1  2  1  0
  2  3  1  0
  3  4  1  0
  4  5  1  0
  5  6  1  0
  6  7  1  0
  7  8  1  0
  7  9  1  0
  2 10  1  0
 10 11  1  0
 11 12  1  0
 12 13  1  0
 13 14  1  6
 13 15  1  0
 15 16  1  0
 16 17  1  0
 17 18  2  0
 18 19  1  0
 19 20  1  0
 20 21  1  0
 21 22  1  0
 22 23  1  0
 22 24  1  0
 24 25  1  0
 24 26  1  0
 19 27  1  0
 27 28  1  1
 27 29  1  0
 29 30  1  0
 30 31  1  0
 31 32  1  1
  7  5  1  0
 31 10  1  0
 31 13  1  0
 27 15  1  0
 24 18  1  0
  1 33  1  0
  1 34  1  0
  1 35  1  0
  2 36  1  1
  3 37  1  0
  3 38  1  0
  4 39  1  0
  4 40  1  0
  5 41  1  6
  8 42  1  0
  8 43  1  0
  8 44  1  0
  9 45  1  0
  9 46  1  0
  9 47  1  0
 10 48  1  6
 11 49  1  0
 11 50  1  0
 12 51  1  0
 12 52  1  0
 14 53  1  0
 14 54  1  0
 14 55  1  0
 15 56  1  1
 16 57  1  0
 16 58  1  0
 17 59  1  0
 19 60  1  6
 20 61  1  0
 20 62  1  0
 21 63  1  0
 21 64  1  0
 22 65  1  6
 23 66  1  0
 25 67  1  0
 25 68  1  0
 25 69  1  0
 26 70  1  0
 26 71  1  0
 26 72  1  0
 28 73  1  0
 28 74  1  0
 28 75  1  0
 29 76  1  0
 29 77  1  0
 30 78  1  0
 30 79  1  0
 32 80  1  0
 32 81  1  0
 32 82  1  0
M  END
>  <meeko>  (14) 
{"is_sidechain": [false], "intermolecular_energy": 2.731, "internal_energy": -0.839}

$$$$
EPH_relaxed_0001_pdb2pqr_Repair_109_r2_0001_out
     RDKit          3D

 82 86  0  0  0  0  0  0  0  0999 V2000
   -2.1180    8.0860   -1.8500 C   0  0  0  0  0  0  0  0  0  0  0  0
   -1.9260    8.7140   -0.4660 C   0  0  2  0  0  0  0  0  0  0  0  0
   -3.2340    8.7340    0.3490 C   0  0  0  0  0  0  0  0  0  0  0  0
   -4.4980    8.7260   -0.5140 C   0  0  0  0  0  0  0  0  0  0  0  0
   -4.7930    7.3600   -1.0540 C   0  0  2  0  0  0  0  0  0  0  0  0
   -5.5240    7.3480   -2.2870 O   0  0  0  0  0  0  0  0  0  0  0  0
   -6.1920    6.7810   -1.1480 C   0  0  0  0  0  0  0  0  0  0  0  0
   -7.3900    7.5570   -0.6960 C   0  0  0  0  0  0  0  0  0  0  0  0
   -6.3480    5.2940   -1.2190 C   0  0  0  0  0  0  0  0  0  0  0  0
   -1.3800   10.1300   -0.6100 C   0  0  1  0  0  0  0  0  0  0  0  0
   -0.8100   10.6880    0.7210 C   0  0  0  0  0  0  0  0  0  0  0  0
    0.4020   11.5800    0.3490 C   0  0  0  0  0  0  0  0  0  0  0  0
    0.2890   11.7740   -1.1810 C   0  0  1  0  0  0  0  0  0  0  0  0
   -0.7640   12.9110   -1.3650 C   0  0  0  0  0  0  0  0  0  0  0  0
    1.6200   12.0920   -1.9370 C   0  0  2  0  0  0  0  0  0  0  0  0
    2.3030   13.4090   -1.5300 C   0  0  0  0  0  0  0  0  0  0  0  0
    1.8960   14.6090   -2.3200 C   0  0  0  0  0  0  0  0  0  0  0  0
    1.2380   14.5860   -3.4940 C   0  0  0  0  0  0  0  0  0  0  0  0
    0.9210   13.2580   -4.1940 C   0  0  1  0  0  0  0  0  0  0  0  0
    1.2870   13.3650   -5.6970 C   0  0  0  0  0  0  0  0  0  0  0  0
    0.6210   14.5570   -6.3780 C   0  0  0  0  0  0  0  0  0  0  0  0
    1.0070   15.8640   -5.6900 C   0  0  2  0  0  0  0  0  0  0  0  0
    2.4030   16.0980   -5.8950 O   0  0  0  0  0  0  0  0  0  0  0  0
    0.6940   15.8700   -4.1670 C   0  0  0  0  0  0  0  0  0  0  0  0
   -0.8390   15.9200   -3.9510 C   0  0  0  0  0  0  0  0  0  0  0  0
    1.2590   17.1860   -3.5690 C   0  0  0  0  0  0  0  0  0  0  0  0
    1.5200   11.9550   -3.5110 C   0  0  1  0  0  0  0  0  0  0  0  0
    2.9690   11.7010   -4.0280 C   0  0  0  0  0  0  0  0  0  0  0  0
    0.6670   10.7060   -3.9500 C   0  0  0  0  0  0  0  0  0  0  0  0
   -0.5680   10.3720   -3.0920 C   0  0  0  0  0  0  0  0  0  0  0  0
   -0.2100   10.3440   -1.6030 C   0  0  2  0  0  0  0  0  0  0  0  0
    0.8320    9.1940   -1.3830 C   0  0  0  0  0  0  0  0  0  0  0  0
   -2.4379    7.0397   -1.7367 H   0  0  0  0  0  0  0  0  0  0  0  0
   -2.8859    8.6463   -2.4036 H   0  0  0  0  0  0  0  0  0  0  0  0
   -1.1681    8.1211   -2.4036 H   0  0  0  0  0  0  0  0  0  0  0  0
   -1.2048    8.0911    0.0834 H   0  0  0  0  0  0  0  0  0  0  0  0
   -3.2517    7.8466    0.9987 H   0  0  0  0  0  0  0  0  0  0  0  0
   -3.2416    9.6737    0.9208 H   0  0  0  0  0  0  0  0  0  0  0  0
   -5.3493    9.0587    0.0980 H   0  0  0  0  0  0  0  0  0  0  0  0
   -4.3355    9.4031   -1.3656 H   0  0  0  0  0  0  0  0  0  0  0  0
   -3.8584    6.9653   -0.6290 H   0  0  0  0  0  0  0  0  0  0  0  0
   -7.4206    7.5768    0.4034 H   0  0  0  0  0  0  0  0  0  0  0  0
   -7.3265    8.5860   -1.0797 H   0  0  0  0  0  0  0  0  0  0  0  0
   -8.3031    7.0783   -1.0797 H   0  0  0  0  0  0  0  0  0  0  0  0
   -6.3913    4.8808   -0.2005 H   0  0  0  0  0  0  0  0  0  0  0  0
   -7.2769    5.0479   -1.7544 H   0  0  0  0  0  0  0  0  0  0  0  0
   -5.4904    4.8605   -1.7544 H   0  0  0  0  0  0  0  0  0  0  0  0
   -2.2829   10.6394   -0.9778 H   0  0  0  0  0  0  0  0  0  0  0  0
   -1.5746   11.2848    1.2399 H   0  0  0  0  0  0  0  0  0  0  0  0
   -0.5082    9.8722    1.3944 H   0  0  0  0  0  0  0  0  0  0  0  0
    0.3455   12.5480    0.8683 H   0  0  0  0  0  0  0  0  0  0  0  0
    1.3599   11.1254    0.6421 H   0  0  0  0  0  0  0  0  0  0  0  0
   -1.0945   13.2679   -0.3784 H   0  0  0  0  0  0  0  0  0  0  0  0
   -0.3109   13.7436   -1.9232 H   0  0  0  0  0  0  0  0  0  0  0  0
   -1.6288   12.5230   -1.9232 H   0  0  0  0  0  0  0  0  0  0  0  0
    2.2868   11.2897   -1.5882 H   0  0  0  0  0  0  0  0  0  0  0  0
    2.0671   13.6018   -0.4730 H   0  0  0  0  0  0  0  0  0  0  0  0
    3.3767   13.2674   -1.7229 H   0  0  0  0  0  0  0  0  0  0  0  0
    2.1559   15.5951   -1.9077 H   0  0  0  0  0  0  0  0  0  0  0  0
   -0.1630   13.1069   -4.0841 H   0  0  0  0  0  0  0  0  0  0  0  0
    2.3781   13.4716   -5.7875 H   0  0  0  0  0  0  0  0  0  0  0  0
    0.9267   12.4523   -6.1942 H   0  0  0  0  0  0  0  0  0  0  0  0
    0.9409   14.5957   -7.4298 H   0  0  0  0  0  0  0  0  0  0  0  0
   -0.4702   14.4344   -6.3121 H   0  0  0  0  0  0  0  0  0  0  0  0
    0.4003   16.6646   -6.1382 H   0  0  0  0  0  0  0  0  0  0  0  0
    2.8460   15.2330   -5.9180 H   0  0  0  0  0  0  0  0  0  0  0  0
   -1.0573   15.9271   -2.8729 H   0  0  0  0  0  0  0  0  0  0  0  0
   -1.2449   16.8319   -4.4133 H   0  0  0  0  0  0  0  0  0  0  0  0
   -1.3034   15.0365   -4.4133 H   0  0  0  0  0  0  0  0  0  0  0  0
    1.2348   17.1297   -2.4707 H   0  0  0  0  0  0  0  0  0  0  0  0
    2.2966   17.3262   -3.9062 H   0  0  0  0  0  0  0  0  0  0  0  0
    0.6460   18.0348   -3.9062 H   0  0  0  0  0  0  0  0  0  0  0  0
    3.6484   11.5819   -3.1711 H   0  0  0  0  0  0  0  0  0  0  0  0
    2.9853   10.7863   -4.6388 H   0  0  0  0  0  0  0  0  0  0  0  0
    3.2955   12.5556   -4.6388 H   0  0  0  0  0  0  0  0  0  0  0  0
    0.3193   10.8852   -4.9781 H   0  0  0  0  0  0  0  0  0  0  0  0
    1.3395    9.8432   -3.8345 H   0  0  0  0  0  0  0  0  0  0  0  0
   -1.3413   11.1356   -3.2618 H   0  0  0  0  0  0  0  0  0  0  0  0
   -0.9382    9.3777   -3.3824 H   0  0  0  0  0  0  0  0  0  0  0  0
    0.9780    9.0328   -0.3047 H   0  0  0  0  0  0  0  0  0  0  0  0
    0.4591    8.2680   -1.8449 H   0  0  0  0  0  0  0  0  0  0  0  0
    1.7902    9.4741   -1.8449 H   0  0  0  0  0  0  0  0  0  0  0  0
  1  2  1  0
  2  3  1  0
  3  4  1  0
  4  5  1  0
  5  6  1  0
  6  7  1  0
  7  8  1  0
  7  9  1  0
  2 10  1  0
 10 11  1  0
 11 12  1  0
 12 13  1  0
 13 14  1  1
 13 15  1  0
 15 16  1  0
 16 17  1  0
 17 18  2  0
 18 19  1  0
 19 20  1  0
 20 21  1  0
 21 22  1  0
 22 23  1  0
 22 24  1  0
 24 25  1  0
 24 26  1  0
 19 27  1  0
 27 28  1  6
 27 29  1  0
 29 30  1  0
 30 31  1  0
 31 32  1  6
  7  5  1  0
 31 10  1  0
 31 13  1  0
 27 15  1  0
 24 18  1  0
  1 33  1  0
  1 34  1  0
  1 35  1  0
  2 36  1  1
  3 37  1  0
  3 38  1  0
  4 39  1  0
  4 40  1  0
  5 41  1  6
  8 42  1  0
  8 43  1  0
  8 44  1  0
  9 45  1  0
  9 46  1  0
  9 47  1  0
 10 48  1  6
 11 49  1  0
 11 50  1  0
 12 51  1  0
 12 52  1  0
 14 53  1  0
 14 54  1  0
 14 55  1  0
 15 56  1  1
 16 57  1  0
 16 58  1  0
 17 59  1  0
 19 60  1  6
 20 61  1  0
 20 62  1  0
 21 63  1  0
 21 64  1  0
 22 65  1  6
 23 66  1  0
 25 67  1  0
 25 68  1  0
 25 69  1  0
 26 70  1  0
 26 71  1  0
 26 72  1  0
 28 73  1  0
 28 74  1  0
 28 75  1  0
 29 76  1  0
 29 77  1  0
 30 78  1  0
 30 79  1  0
 32 80  1  0
 32 81  1  0
 32 82  1  0
M  END
>  <meeko>  (15) 
{"is_sidechain": [false], "intermolecular_energy": 2.731, "internal_energy": -0.839}

$$$$
EPH_relaxed_0001_pdb2pqr_Repair_109_r2_0001_out
     RDKit          3D

 82 86  0  0  0  0  0  0  0  0999 V2000
   -1.7420   14.8060    0.3800 C   0  0  0  0  0  0  0  0  0  0  0  0
   -0.3930   15.5140    0.2330 C   0  0  2  0  0  0  0  0  0  0  0  0
   -0.4060   16.5620   -0.8980 C   0  0  0  0  0  0  0  0  0  0  0  0
   -0.0430   17.9740   -0.4330 C   0  0  0  0  0  0  0  0  0  0  0  0
    1.3900   18.0650   -0.0030 C   0  0  2  0  0  0  0  0  0  0  0  0
    2.0490   19.2850   -0.3690 O   0  0  0  0  0  0  0  0  0  0  0  0
    2.5550   18.0850   -0.9760 C   0  0  0  0  0  0  0  0  0  0  0  0
    2.3380   18.0130   -2.4550 C   0  0  0  0  0  0  0  0  0  0  0  0
    3.9090   17.6840   -0.4790 C   0  0  0  0  0  0  0  0  0  0  0  0
    0.7070   14.4890   -0.0190 C   0  0  1  0  0  0  0  0  0  0  0  0
    0.8520   13.4700    1.1420 C   0  0  0  0  0  0  0  0  0  0  0  0
    1.2380   12.1120    0.5000 C   0  0  0  0  0  0  0  0  0  0  0  0
    1.6260   12.4650   -0.9550 C   0  0  1  0  0  0  0  0  0  0  0  0
    3.0950   12.9840   -0.8640 C   0  0  0  0  0  0  0  0  0  0  0  0
    1.4830   11.3160   -2.0060 C   0  0  2  0  0  0  0  0  0  0  0  0
    2.3790   10.0900   -1.7580 C   0  0  0  0  0  0  0  0  0  0  0  0
    3.7210   10.1390   -2.4110 C   0  0  0  0  0  0  0  0  0  0  0  0
    4.0830   10.9870   -3.3910 C   0  0  0  0  0  0  0  0  0  0  0  0
    3.0670   11.9550   -4.0110 C   0  0  1  0  0  0  0  0  0  0  0  0
    3.1870   11.9110   -5.5570 C   0  0  0  0  0  0  0  0  0  0  0  0
    4.6100   12.1700   -6.0420 C   0  0  0  0  0  0  0  0  0  0  0  0
    5.5810   11.1520   -5.4500 C   0  0  2  0  0  0  0  0  0  0  0  0
    5.2760    9.8600   -5.9830 O   0  0  0  0  0  0  0  0  0  0  0  0
    5.5430   11.1000   -3.8970 C   0  0  0  0  0  0  0  0  0  0  0  0
    6.1600   12.3960   -3.3160 C   0  0  0  0  0  0  0  0  0  0  0  0
    6.4630    9.9370   -3.4350 C   0  0  0  0  0  0  0  0  0  0  0  0
    1.5670   11.8000   -3.5100 C   0  0  1  0  0  0  0  0  0  0  0  0
    0.8290   10.7250   -4.3650 C   0  0  0  0  0  0  0  0  0  0  0  0
    0.8030   13.1560   -3.7460 C   0  0  0  0  0  0  0  0  0  0  0  0
    0.8840   14.2040   -2.6200 C   0  0  0  0  0  0  0  0  0  0  0  0
    0.5570   13.5760   -1.2620 C   0  0  2  0  0  0  0  0  0  0  0  0
   -0.9230   13.0650   -1.3150 C   0  0  0  0  0  0  0  0  0  0  0  0
   -1.9770   14.6827    1.4475 H   0  0  0  0  0  0  0  0  0  0  0  0
   -2.5267   15.4085   -0.1009 H   0  0  0  0  0  0  0  0  0  0  0  0
   -1.6919   13.8180   -0.1009 H   0  0  0  0  0  0  0  0  0  0  0  0
   -0.1957   16.0479    1.1743 H   0  0  0  0  0  0  0  0  0  0  0  0
    0.3179   16.2527   -1.6663 H   0  0  0  0  0  0  0  0  0  0  0  0
   -1.4352   16.6055   -1.2839 H   0  0  0  0  0  0  0  0  0  0  0  0
   -0.2116   18.6768   -1.2623 H   0  0  0  0  0  0  0  0  0  0  0  0
   -0.6766   18.2240    0.4307 H   0  0  0  0  0  0  0  0  0  0  0  0
    1.1852   17.4579    0.8912 H   0  0  0  0  0  0  0  0  0  0  0  0
    1.3121   17.6726   -2.6589 H   0  0  0  0  0  0  0  0  0  0  0  0
    2.4884   19.0092   -2.8966 H   0  0  0  0  0  0  0  0  0  0  0  0
    3.0541   17.3043   -2.8966 H   0  0  0  0  0  0  0  0  0  0  0  0
    3.9105   17.6836    0.6210 H   0  0  0  0  0  0  0  0  0  0  0  0
    4.1507   16.6757   -0.8464 H   0  0  0  0  0  0  0  0  0  0  0  0
    4.6607   18.3981   -0.8464 H   0  0  0  0  0  0  0  0  0  0  0  0
    1.5634   15.1667   -0.1506 H   0  0  0  0  0  0  0  0  0  0  0  0
    1.6389   13.7975    1.8374 H   0  0  0  0  0  0  0  0  0  0  0  0
   -0.0848   13.3851    1.7123 H   0  0  0  0  0  0  0  0  0  0  0  0
    2.0892   11.6598    1.0301 H   0  0  0  0  0  0  0  0  0  0  0  0
    0.4183   11.3800    0.5474 H   0  0  0  0  0  0  0  0  0  0  0  0
    3.3831   13.0858    0.1927 H   0  0  0  0  0  0  0  0  0  0  0  0
    3.7678   12.2692   -1.3603 H   0  0  0  0  0  0  0  0  0  0  0  0
    3.1695   13.9629   -1.3603 H   0  0  0  0  0  0  0  0  0  0  0  0
    0.4521   10.9701   -1.8397 H   0  0  0  0  0  0  0  0  0  0  0  0
    2.5321    9.9947   -0.6729 H   0  0  0  0  0  0  0  0  0  0  0  0
    1.8537    9.2333   -2.2054 H   0  0  0  0  0  0  0  0  0  0  0  0
    4.4776    9.4212   -2.0613 H   0  0  0  0  0  0  0  0  0  0  0  0
    3.3373   12.9562   -3.6443 H   0  0  0  0  0  0  0  0  0  0  0  0
    2.8708   10.9172   -5.9069 H   0  0  0  0  0  0  0  0  0  0  0  0
    2.5460   12.7069   -5.9640 H   0  0  0  0  0  0  0  0  0  0  0  0
    4.6355   12.0962   -7.1392 H   0  0  0  0  0  0  0  0  0  0  0  0
    4.9143   13.1760   -5.7173 H   0  0  0  0  0  0  0  0  0  0  0  0
    6.5980   11.4658   -5.7278 H   0  0  0  0  0  0  0  0  0  0  0  0
    4.3100    9.8010   -6.0780 H   0  0  0  0  0  0  0  0  0  0  0  0
    6.1388   12.3515   -2.2171 H   0  0  0  0  0  0  0  0  0  0  0  0
    7.2007   12.4925   -3.6591 H   0  0  0  0  0  0  0  0  0  0  0  0
    5.5788   13.2646   -3.6591 H   0  0  0  0  0  0  0  0  0  0  0  0
    6.4888    9.9044   -2.3358 H   0  0  0  0  0  0  0  0  0  0  0  0
    6.0715    8.9843   -3.8210 H   0  0  0  0  0  0  0  0  0  0  0  0
    7.4803   10.0987   -3.8210 H   0  0  0  0  0  0  0  0  0  0  0  0
    0.3336   10.0034   -3.6988 H   0  0  0  0  0  0  0  0  0  0  0  0
    0.0759   11.2150   -4.9997 H   0  0  0  0  0  0  0  0  0  0  0  0
    1.5568   10.1983   -4.9997 H   0  0  0  0  0  0  0  0  0  0  0  0
    1.2132   13.6148   -4.6577 H   0  0  0  0  0  0  0  0  0  0  0  0
   -0.2602   12.8805   -3.8068 H   0  0  0  0  0  0  0  0  0  0  0  0
    1.9018   14.6201   -2.5883 H   0  0  0  0  0  0  0  0  0  0  0  0
    0.1499   14.9970   -2.8255 H   0  0  0  0  0  0  0  0  0  0  0  0
   -1.3026   12.9340   -0.2909 H   0  0  0  0  0  0  0  0  0  0  0  0
   -1.5459   13.8001   -1.8457 H   0  0  0  0  0  0  0  0  0  0  0  0
   -0.9597   12.1022   -1.8457 H   0  0  0  0  0  0  0  0  0  0  0  0
  1  2  1  0
  2  3  1  0
  3  4  1  0
  4  5  1  0
  5  6  1  0
  6  7  1  0
  7  8  1  0
  7  9  1  0
  2 10  1  0
 10 11  1  0
 11 12  1  0
 12 13  1  0
 13 14  1  1
 13 15  1  0
 15 16  1  0
 16 17  1  0
 17 18  2  0
 18 19  1  0
 19 20  1  0
 20 21  1  0
 21 22  1  0
 22 23  1  0
 22 24  1  0
 24 25  1  0
 24 26  1  0
 19 27  1  0
 27 28  1  6
 27 29  1  0
 29 30  1  0
 30 31  1  0
 31 32  1  6
  7  5  1  0
 31 10  1  0
 31 13  1  0
 27 15  1  0
 24 18  1  0
  1 33  1  0
  1 34  1  0
  1 35  1  0
  2 36  1  1
  3 37  1  0
  3 38  1  0
  4 39  1  0
  4 40  1  0
  5 41  1  1
  8 42  1  0
  8 43  1  0
  8 44  1  0
  9 45  1  0
  9 46  1  0
  9 47  1  0
 10 48  1  6
 11 49  1  0
 11 50  1  0
 12 51  1  0
 12 52  1  0
 14 53  1  0
 14 54  1  0
 14 55  1  0
 15 56  1  6
 16 57  1  0
 16 58  1  0
 17 59  1  0
 19 60  1  1
 20 61  1  0
 20 62  1  0
 21 63  1  0
 21 64  1  0
 22 65  1  1
 23 66  1  0
 25 67  1  0
 25 68  1  0
 25 69  1  0
 26 70  1  0
 26 71  1  0
 26 72  1  0
 28 73  1  0
 28 74  1  0
 28 75  1  0
 29 76  1  0
 29 77  1  0
 30 78  1  0
 30 79  1  0
 32 80  1  0
 32 81  1  0
 32 82  1  0
M  END
>  <meeko>  (16) 
{"is_sidechain": [false], "intermolecular_energy": 2.731, "internal_energy": -0.839}

$$$$
EPH_relaxed_0001_pdb2pqr_Repair_109_r2_0001_out
     RDKit          3D

 82 86  0  0  0  0  0  0  0  0999 V2000
    3.1580   14.8470   -7.5390 C   0  0  0  0  0  0  0  0  0  0  0  0
    1.6340   14.8930   -7.3970 C   0  0  2  0  0  0  0  0  0  0  0  0
    1.0270   16.1430   -8.0660 C   0  0  0  0  0  0  0  0  0  0  0  0
    1.9550   16.8080   -9.0850 C   0  0  0  0  0  0  0  0  0  0  0  0
    1.6130   16.4100  -10.4890 C   0  0  2  0  0  0  0  0  0  0  0  0
    1.0020   15.1190  -10.6140 O   0  0  0  0  0  0  0  0  0  0  0  0
    2.2930   15.2710  -11.2250 C   0  0  0  0  0  0  0  0  0  0  0  0
    3.3720   14.4590  -10.5800 C   0  0  0  0  0  0  0  0  0  0  0  0
    2.2560   15.2630  -12.7220 C   0  0  0  0  0  0  0  0  0  0  0  0
    1.2480   14.8520   -5.9230 C   0  0  1  0  0  0  0  0  0  0  0  0
   -0.0050   15.7130   -5.6090 C   0  0  0  0  0  0  0  0  0  0  0  0
   -0.7870   14.9740   -4.4930 C   0  0  0  0  0  0  0  0  0  0  0  0
    0.1960   13.9000   -3.9730 C   0  0  1  0  0  0  0  0  0  0  0  0
    1.1350   14.6610   -2.9850 C   0  0  0  0  0  0  0  0  0  0  0  0
   -0.4460   12.6410   -3.3040 C   0  0  2  0  0  0  0  0  0  0  0  0
   -1.2640   12.9240   -2.0320 C   0  0  0  0  0  0  0  0  0  0  0  0
   -0.4960   12.8630   -0.7530 C   0  0  0  0  0  0  0  0  0  0  0  0
    0.7260   12.3180   -0.6000 C   0  0  0  0  0  0  0  0  0  0  0  0
    1.4190   11.5970   -1.7630 C   0  0  1  0  0  0  0  0  0  0  0  0
    2.0000   10.2490   -1.2640 C   0  0  0  0  0  0  0  0  0  0  0  0
    2.9150   10.4180   -0.0550 C   0  0  0  0  0  0  0  0  0  0  0  0
    2.1730   11.0850    1.1010 C   0  0  2  0  0  0  0  0  0  0  0  0
    1.1570   10.1940    1.5710 O   0  0  0  0  0  0  0  0  0  0  0  0
    1.5360   12.4480    0.7140 C   0  0  0  0  0  0  0  0  0  0  0  0
    2.6500   13.5010    0.4950 C   0  0  0  0  0  0  0  0  0  0  0  0
    0.7010   12.9460    1.9250 C   0  0  0  0  0  0  0  0  0  0  0  0
    0.5590   11.4370   -3.0900 C   0  0  1  0  0  0  0  0  0  0  0  0
   -0.3080   10.1430   -3.0100 C   0  0  0  0  0  0  0  0  0  0  0  0
    1.5320   11.2460   -4.3130 C   0  0  0  0  0  0  0  0  0  0  0  0
    2.0370   12.5250   -5.0060 C   0  0  0  0  0  0  0  0  0  0  0  0
    0.8760   13.4720   -5.3240 C   0  0  2  0  0  0  0  0  0  0  0  0
   -0.0740   12.7420   -6.3330 C   0  0  0  0  0  0  0  0  0  0  0  0
    3.6190   14.8331   -6.5404 H   0  0  0  0  0  0  0  0  0  0  0  0
    3.4478   13.9397   -8.0893 H   0  0  0  0  0  0  0  0  0  0  0  0
    3.5020   15.7352   -8.0893 H   0  0  0  0  0  0  0  0  0  0  0  0
    1.2262   14.0110   -7.9126 H   0  0  0  0  0  0  0  0  0  0  0  0
    0.1015   15.8462   -8.5812 H   0  0  0  0  0  0  0  0  0  0  0  0
    0.8463   16.8785   -7.2682 H   0  0  0  0  0  0  0  0  0  0  0  0
    1.8627   17.9001   -8.9916 H   0  0  0  0  0  0  0  0  0  0  0  0
    2.9841   16.4800   -8.8767 H   0  0  0  0  0  0  0  0  0  0  0  0
    1.4237   17.4580  -10.7646 H   0  0  0  0  0  0  0  0  0  0  0  0
    3.2792   14.5288   -9.4861 H   0  0  0  0  0  0  0  0  0  0  0  0
    3.2749   13.4080  -10.8899 H   0  0  0  0  0  0  0  0  0  0  0  0
    4.3550   14.8433  -10.8899 H   0  0  0  0  0  0  0  0  0  0  0  0
    1.2336   15.0419  -13.0623 H   0  0  0  0  0  0  0  0  0  0  0  0
    2.5638   16.2485  -13.1017 H   0  0  0  0  0  0  0  0  0  0  0  0
    2.9434   14.4927  -13.1017 H   0  0  0  0  0  0  0  0  0  0  0  0
    2.1849   15.2166   -5.4766 H   0  0  0  0  0  0  0  0  0  0  0  0
    0.2988   16.7114   -5.2612 H   0  0  0  0  0  0  0  0  0  0  0  0
   -0.6277   15.8461   -6.5059 H   0  0  0  0  0  0  0  0  0  0  0  0
   -1.0639   15.6696   -3.6871 H   0  0  0  0  0  0  0  0  0  0  0  0
   -1.7262   14.5360   -4.8619 H   0  0  0  0  0  0  0  0  0  0  0  0
    0.8456   14.4265   -1.9500 H   0  0  0  0  0  0  0  0  0  0  0  0
    2.1760   14.3486   -3.1544 H   0  0  0  0  0  0  0  0  0  0  0  0
    1.0450   15.7441   -3.1544 H   0  0  0  0  0  0  0  0  0  0  0  0
   -1.1748   12.3169   -4.0615 H   0  0  0  0  0  0  0  0  0  0  0  0
   -1.6946   13.9322   -2.1221 H   0  0  0  0  0  0  0  0  0  0  0  0
   -2.0189   12.1262   -1.9719 H   0  0  0  0  0  0  0  0  0  0  0  0
   -0.9680   13.3000    0.1393 H   0  0  0  0  0  0  0  0  0  0  0  0
    2.2362   12.2581   -2.0871 H   0  0  0  0  0  0  0  0  0  0  0  0
    1.1665    9.5873   -0.9857 H   0  0  0  0  0  0  0  0  0  0  0  0
    2.6009    9.8218   -2.0804 H   0  0  0  0  0  0  0  0  0  0  0  0
    3.2708    9.4287    0.2685 H   0  0  0  0  0  0  0  0  0  0  0  0
    3.7634   11.0562   -0.3429 H   0  0  0  0  0  0  0  0  0  0  0  0
    2.9106   11.2969    1.8891 H   0  0  0  0  0  0  0  0  0  0  0  0
    0.9600    9.5680    0.8550 H   0  0  0  0  0  0  0  0  0  0  0  0
    3.0204   13.8511    1.4698 H   0  0  0  0  0  0  0  0  0  0  0  0
    3.4775   13.0473   -0.0702 H   0  0  0  0  0  0  0  0  0  0  0  0
    2.2435   14.3527   -0.0702 H   0  0  0  0  0  0  0  0  0  0  0  0
    1.1984   12.6493    2.8602 H   0  0  0  0  0  0  0  0  0  0  0  0
    0.6166   14.0421    1.8863 H   0  0  0  0  0  0  0  0  0  0  0  0
   -0.3035   12.4993    1.8863 H   0  0  0  0  0  0  0  0  0  0  0  0
   -0.4822    9.8830   -1.9555 H   0  0  0  0  0  0  0  0  0  0  0  0
   -1.2728   10.3166   -3.5091 H   0  0  0  0  0  0  0  0  0  0  0  0
    0.2195    9.3168   -3.5091 H   0  0  0  0  0  0  0  0  0  0  0  0
    2.4123   10.6923   -3.9544 H   0  0  0  0  0  0  0  0  0  0  0  0
    0.9363   10.7222   -5.0751 H   0  0  0  0  0  0  0  0  0  0  0  0
    2.7476   13.0377   -4.3411 H   0  0  0  0  0  0  0  0  0  0  0  0
    2.5271   12.2423   -5.9493 H   0  0  0  0  0  0  0  0  0  0  0  0
   -0.8261   12.1641   -5.7759 H   0  0  0  0  0  0  0  0  0  0  0  0
   -0.5788   13.4868   -6.9658 H   0  0  0  0  0  0  0  0  0  0  0  0
    0.5157   12.0625   -6.9658 H   0  0  0  0  0  0  0  0  0  0  0  0
  1  2  1  0
  2  3  1  0
  3  4  1  0
  4  5  1  0
  5  6  1  0
  6  7  1  0
  7  8  1  0
  7  9  1  0
  2 10  1  0
 10 11  1  0
 11 12  1  0
 12 13  1  0
 13 14  1  1
 13 15  1  0
 15 16  1  0
 16 17  1  0
 17 18  2  0
 18 19  1  0
 19 20  1  0
 20 21  1  0
 21 22  1  0
 22 23  1  0
 22 24  1  0
 24 25  1  0
 24 26  1  0
 19 27  1  0
 27 28  1  1
 27 29  1  0
 29 30  1  0
 30 31  1  0
 31 32  1  6
  7  5  1  0
 31 10  1  0
 31 13  1  0
 27 15  1  0
 24 18  1  0
  1 33  1  0
  1 34  1  0
  1 35  1  0
  2 36  1  6
  3 37  1  0
  3 38  1  0
  4 39  1  0
  4 40  1  0
  5 41  1  6
  8 42  1  0
  8 43  1  0
  8 44  1  0
  9 45  1  0
  9 46  1  0
  9 47  1  0
 10 48  1  1
 11 49  1  0
 11 50  1  0
 12 51  1  0
 12 52  1  0
 14 53  1  0
 14 54  1  0
 14 55  1  0
 15 56  1  6
 16 57  1  0
 16 58  1  0
 17 59  1  0
 19 60  1  6
 20 61  1  0
 20 62  1  0
 21 63  1  0
 21 64  1  0
 22 65  1  1
 23 66  1  0
 25 67  1  0
 25 68  1  0
 25 69  1  0
 26 70  1  0
 26 71  1  0
 26 72  1  0
 28 73  1  0
 28 74  1  0
 28 75  1  0
 29 76  1  0
 29 77  1  0
 30 78  1  0
 30 79  1  0
 32 80  1  0
 32 81  1  0
 32 82  1  0
M  END
>  <meeko>  (17) 
{"is_sidechain": [false], "intermolecular_energy": 2.731, "internal_energy": -0.839}

$$$$
EPH_relaxed_0001_pdb2pqr_Repair_109_r2_0001_out
     RDKit          3D

 82 86  0  0  0  0  0  0  0  0999 V2000
    3.1670   11.3110   -4.1850 C   0  0  0  0  0  0  0  0  0  0  0  0
    2.0250   11.8630   -5.0420 C   0  0  2  0  0  0  0  0  0  0  0  0
    2.5410   12.5590   -6.3180 C   0  0  0  0  0  0  0  0  0  0  0  0
    1.8610   13.9010   -6.6050 C   0  0  0  0  0  0  0  0  0  0  0  0
    2.3330   14.4960   -7.8970 C   0  0  2  0  0  0  0  0  0  0  0  0
    2.4630   15.9240   -7.8850 O   0  0  0  0  0  0  0  0  0  0  0  0
    1.4700   15.3850   -8.7730 C   0  0  0  0  0  0  0  0  0  0  0  0
    0.0640   15.7270   -8.3930 C   0  0  0  0  0  0  0  0  0  0  0  0
    1.8210   15.5180  -10.2220 C   0  0  0  0  0  0  0  0  0  0  0  0
    1.1830   12.8340   -4.2240 C   0  0  1  0  0  0  0  0  0  0  0  0
   -0.2100   12.2550   -3.8570 C   0  0  0  0  0  0  0  0  0  0  0  0
   -0.5640   12.7980   -2.4490 C   0  0  0  0  0  0  0  0  0  0  0  0
    0.4680   13.9220   -2.1930 C   0  0  1  0  0  0  0  0  0  0  0  0
   -0.0970   15.1640   -2.9510 C   0  0  0  0  0  0  0  0  0  0  0  0
    0.7760   14.2500   -0.6960 C   0  0  2  0  0  0  0  0  0  0  0  0
   -0.4230   14.7680    0.1180 C   0  0  0  0  0  0  0  0  0  0  0  0
   -0.5980   16.2510    0.1210 C   0  0  0  0  0  0  0  0  0  0  0  0
    0.3290   17.1490   -0.2630 C   0  0  0  0  0  0  0  0  0  0  0  0
    1.7400   16.7010   -0.6650 C   0  0  1  0  0  0  0  0  0  0  0  0
    2.7880   17.6110    0.0270 C   0  0  0  0  0  0  0  0  0  0  0  0
    2.5470   19.0930   -0.2420 C   0  0  0  0  0  0  0  0  0  0  0  0
    1.1550   19.5120    0.2240 C   0  0  2  0  0  0  0  0  0  0  0  0
    1.1000   19.4180    1.6510 O   0  0  0  0  0  0  0  0  0  0  0  0
    0.0160   18.6590   -0.4000 C   0  0  0  0  0  0  0  0  0  0  0  0
   -0.1170   18.9930   -1.9070 C   0  0  0  0  0  0  0  0  0  0  0  0
   -1.3210   19.0910    0.2600 C   0  0  0  0  0  0  0  0  0  0  0  0
    2.0560   15.1550   -0.4810 C   0  0  1  0  0  0  0  0  0  0  0  0
    2.5540   14.8830    0.9720 C   0  0  0  0  0  0  0  0  0  0  0  0
    3.2400   14.7540   -1.4380 C   0  0  0  0  0  0  0  0  0  0  0  0
    2.8620   14.3250   -2.8690 C   0  0  0  0  0  0  0  0  0  0  0  0
    1.7440   13.2780   -2.8490 C   0  0  2  0  0  0  0  0  0  0  0  0
    2.2900   12.0080   -2.1120 C   0  0  0  0  0  0  0  0  0  0  0  0
    2.9178   11.4315   -3.1204 H   0  0  0  0  0  0  0  0  0  0  0  0
    3.3111   10.2438   -4.4094 H   0  0  0  0  0  0  0  0  0  0  0  0
    4.0928   11.8611   -4.4094 H   0  0  0  0  0  0  0  0  0  0  0  0
    1.4065   11.0099   -5.3577 H   0  0  0  0  0  0  0  0  0  0  0  0
    3.6212   12.7340   -6.2055 H   0  0  0  0  0  0  0  0  0  0  0  0
    2.3094   11.8940   -7.1630 H   0  0  0  0  0  0  0  0  0  0  0  0
    0.7735   13.7450   -6.6605 H   0  0  0  0  0  0  0  0  0  0  0  0
    2.1183   14.5966   -5.7927 H   0  0  0  0  0  0  0  0  0  0  0  0
    2.9323   13.6006   -8.1186 H   0  0  0  0  0  0  0  0  0  0  0  0
   -0.0246   15.7486   -7.2968 H   0  0  0  0  0  0  0  0  0  0  0  0
   -0.1963   16.7146   -8.8014 H   0  0  0  0  0  0  0  0  0  0  0  0
   -0.6209   14.9693   -8.8014 H   0  0  0  0  0  0  0  0  0  0  0  0
    2.8458   15.9063  -10.3169 H   0  0  0  0  0  0  0  0  0  0  0  0
    1.7558   14.5328  -10.7070 H   0  0  0  0  0  0  0  0  0  0  0  0
    1.1193   16.2126  -10.7070 H   0  0  0  0  0  0  0  0  0  0  0  0
    1.1625   13.6885   -4.9164 H   0  0  0  0  0  0  0  0  0  0  0  0
   -0.9617   12.5838   -4.5897 H   0  0  0  0  0  0  0  0  0  0  0  0
   -0.1944   11.1551   -3.8634 H   0  0  0  0  0  0  0  0  0  0  0  0
   -1.5878   13.2001   -2.4340 H   0  0  0  0  0  0  0  0  0  0  0  0
   -0.5267   12.0141   -1.6782 H   0  0  0  0  0  0  0  0  0  0  0  0
   -0.4383   15.9142   -2.2225 H   0  0  0  0  0  0  0  0  0  0  0  0
    0.6921   15.5984   -3.5824 H   0  0  0  0  0  0  0  0  0  0  0  0
   -0.9430   14.8546   -3.5824 H   0  0  0  0  0  0  0  0  0  0  0  0
    1.0130   13.2594   -0.2807 H   0  0  0  0  0  0  0  0  0  0  0  0
   -1.3365   14.3186   -0.2987 H   0  0  0  0  0  0  0  0  0  0  0  0
   -0.2287   14.4820    1.1623 H   0  0  0  0  0  0  0  0  0  0  0  0
   -1.5661   16.6430    0.4661 H   0  0  0  0  0  0  0  0  0  0  0  0
    1.7998   16.8259   -1.7562 H   0  0  0  0  0  0  0  0  0  0  0  0
    2.7428   17.4381    1.1124 H   0  0  0  0  0  0  0  0  0  0  0  0
    3.7754   17.3541   -0.3840 H   0  0  0  0  0  0  0  0  0  0  0  0
    3.3008   19.6843    0.2984 H   0  0  0  0  0  0  0  0  0  0  0  0
    2.6233   19.2705   -1.3249 H   0  0  0  0  0  0  0  0  0  0  0  0
    0.9917   20.5461   -0.1136 H   0  0  0  0  0  0  0  0  0  0  0  0
    1.0820   18.4740    1.8830 H   0  0  0  0  0  0  0  0  0  0  0  0
   -0.5217   20.0093   -2.0230 H   0  0  0  0  0  0  0  0  0  0  0  0
    0.8725   18.9357   -2.3840 H   0  0  0  0  0  0  0  0  0  0  0  0
   -0.7963   18.2712   -2.3840 H   0  0  0  0  0  0  0  0  0  0  0  0
   -1.2172   19.0575    1.3546 H   0  0  0  0  0  0  0  0  0  0  0  0
   -1.5704   20.1155   -0.0535 H   0  0  0  0  0  0  0  0  0  0  0  0
   -2.1227   18.4062   -0.0535 H   0  0  0  0  0  0  0  0  0  0  0  0
    1.8232   15.2821    1.6908 H   0  0  0  0  0  0  0  0  0  0  0  0
    2.6645   13.7993    1.1249 H   0  0  0  0  0  0  0  0  0  0  0  0
    3.5255   15.3758    1.1249 H   0  0  0  0  0  0  0  0  0  0  0  0
    3.9122   15.6211   -1.5172 H   0  0  0  0  0  0  0  0  0  0  0  0
    3.6909   13.8615   -0.9796 H   0  0  0  0  0  0  0  0  0  0  0  0
    2.5196   15.2067   -3.4306 H   0  0  0  0  0  0  0  0  0  0  0  0
    3.7479   13.8837   -3.3489 H   0  0  0  0  0  0  0  0  0  0  0  0
    2.2251   12.1590   -1.0243 H   0  0  0  0  0  0  0  0  0  0  0  0
    1.6890   11.1319   -2.3971 H   0  0  0  0  0  0  0  0  0  0  0  0
    3.3393   11.8414   -2.3971 H   0  0  0  0  0  0  0  0  0  0  0  0
  1  2  1  0
  2  3  1  0
  3  4  1  0
  4  5  1  0
  5  6  1  0
  6  7  1  0
  7  8  1  0
  7  9  1  0
  2 10  1  0
 10 11  1  0
 11 12  1  0
 12 13  1  0
 13 14  1  6
 13 15  1  0
 15 16  1  0
 16 17  1  0
 17 18  2  0
 18 19  1  0
 19 20  1  0
 20 21  1  0
 21 22  1  0
 22 23  1  0
 22 24  1  0
 24 25  1  0
 24 26  1  0
 19 27  1  0
 27 28  1  1
 27 29  1  0
 29 30  1  0
 30 31  1  0
 31 32  1  1
  7  5  1  0
 31 10  1  0
 31 13  1  0
 27 15  1  0
 24 18  1  0
  1 33  1  0
  1 34  1  0
  1 35  1  0
  2 36  1  6
  3 37  1  0
  3 38  1  0
  4 39  1  0
  4 40  1  0
  5 41  1  6
  8 42  1  0
  8 43  1  0
  8 44  1  0
  9 45  1  0
  9 46  1  0
  9 47  1  0
 10 48  1  6
 11 49  1  0
 11 50  1  0
 12 51  1  0
 12 52  1  0
 14 53  1  0
 14 54  1  0
 14 55  1  0
 15 56  1  1
 16 57  1  0
 16 58  1  0
 17 59  1  0
 19 60  1  6
 20 61  1  0
 20 62  1  0
 21 63  1  0
 21 64  1  0
 22 65  1  1
 23 66  1  0
 25 67  1  0
 25 68  1  0
 25 69  1  0
 26 70  1  0
 26 71  1  0
 26 72  1  0
 28 73  1  0
 28 74  1  0
 28 75  1  0
 29 76  1  0
 29 77  1  0
 30 78  1  0
 30 79  1  0
 32 80  1  0
 32 81  1  0
 32 82  1  0
M  END
>  <meeko>  (18) 
{"is_sidechain": [false], "intermolecular_energy": 2.731, "internal_energy": -0.839}

$$$$
EPH_relaxed_0001_pdb2pqr_Repair_109_r2_0001_out
     RDKit          3D

 82 86  0  0  0  0  0  0  0  0999 V2000
    0.0500    8.2060   -3.3920 C   0  0  0  0  0  0  0  0  0  0  0  0
   -0.5120    8.5510   -2.0100 C   0  0  2  0  0  0  0  0  0  0  0  0
   -1.8330    7.8120   -1.7190 C   0  0  0  0  0  0  0  0  0  0  0  0
   -2.7450    7.6770   -2.9420 C   0  0  0  0  0  0  0  0  0  0  0  0
   -3.7560    6.5850   -2.7620 C   0  0  2  0  0  0  0  0  0  0  0  0
   -5.0210    6.8310   -3.3900 O   0  0  0  0  0  0  0  0  0  0  0  0
   -5.0310    6.7510   -1.9560 C   0  0  0  0  0  0  0  0  0  0  0  0
   -5.3620    8.0420   -1.2760 C   0  0  0  0  0  0  0  0  0  0  0  0
   -5.7060    5.5250   -1.4250 C   0  0  0  0  0  0  0  0  0  0  0  0
   -0.7200   10.0560   -1.8950 C   0  0  1  0  0  0  0  0  0  0  0  0
   -2.1840   10.4310   -1.5410 C   0  0  0  0  0  0  0  0  0  0  0  0
   -2.1170   11.6840   -0.6310 C   0  0  0  0  0  0  0  0  0  0  0  0
   -0.6590   12.1830   -0.7610 C   0  0  1  0  0  0  0  0  0  0  0  0
   -0.6300   12.9940   -2.0950 C   0  0  0  0  0  0  0  0  0  0  0  0
   -0.1060   13.0220    0.4370 C   0  0  2  0  0  0  0  0  0  0  0  0
   -0.8420   14.3480    0.6990 C   0  0  0  0  0  0  0  0  0  0  0  0
   -0.2930   15.5350   -0.0200 C   0  0  0  0  0  0  0  0  0  0  0  0
    0.9110   15.6000   -0.6170 C   0  0  0  0  0  0  0  0  0  0  0  0
    1.9020   14.4330   -0.5210 C   0  0  1  0  0  0  0  0  0  0  0  0
    3.3110   14.9780   -0.1680 C   0  0  0  0  0  0  0  0  0  0  0  0
    3.7780   16.0610   -1.1360 C   0  0  0  0  0  0  0  0  0  0  0  0
    2.7970   17.2300   -1.1610 C   0  0  2  0  0  0  0  0  0  0  0  0
    2.8250   17.8830    0.1120 O   0  0  0  0  0  0  0  0  0  0  0  0
    1.3410   16.8010   -1.4950 C   0  0  0  0  0  0  0  0  0  0  0  0
    1.2530   16.3730   -2.9810 C   0  0  0  0  0  0  0  0  0  0  0  0
    0.4300   18.0500   -1.3490 C   0  0  0  0  0  0  0  0  0  0  0  0
    1.4630   13.2260    0.4160 C   0  0  1  0  0  0  0  0  0  0  0  0
    1.8950   13.5100    1.8870 C   0  0  0  0  0  0  0  0  0  0  0  0
    2.2290   11.9250   -0.0290 C   0  0  0  0  0  0  0  0  0  0  0  0
    1.5730   11.0750   -1.1330 C   0  0  0  0  0  0  0  0  0  0  0  0
    0.0990   10.8070   -0.8150 C   0  0  2  0  0  0  0  0  0  0  0  0
    0.0390    9.9730    0.5100 C   0  0  0  0  0  0  0  0  0  0  0  0
    0.9823    7.6337   -3.2763 H   0  0  0  0  0  0  0  0  0  0  0  0
   -0.6841    7.6028   -3.9462 H   0  0  0  0  0  0  0  0  0  0  0  0
    0.2556    9.1337   -3.9462 H   0  0  0  0  0  0  0  0  0  0  0  0
    0.2227    8.2191   -1.2616 H   0  0  0  0  0  0  0  0  0  0  0  0
   -1.5930    6.8033   -1.3516 H   0  0  0  0  0  0  0  0  0  0  0  0
   -2.3792    8.4106   -0.9751 H   0  0  0  0  0  0  0  0  0  0  0  0
   -3.2729    8.6291   -3.0998 H   0  0  0  0  0  0  0  0  0  0  0  0
   -2.1188    7.4247   -3.8105 H   0  0  0  0  0  0  0  0  0  0  0  0
   -2.9638    5.8221   -2.7416 H   0  0  0  0  0  0  0  0  0  0  0  0
   -5.3261    7.9018   -0.1856 H   0  0  0  0  0  0  0  0  0  0  0  0
   -4.6316    8.8097   -1.5713 H   0  0  0  0  0  0  0  0  0  0  0  0
   -6.3717    8.3636   -1.5713 H   0  0  0  0  0  0  0  0  0  0  0  0
   -5.6939    5.5470   -0.3253 H   0  0  0  0  0  0  0  0  0  0  0  0
   -6.7468    5.4967   -1.7798 H   0  0  0  0  0  0  0  0  0  0  0  0
   -5.1733    4.6304   -1.7798 H   0  0  0  0  0  0  0  0  0  0  0  0
   -0.3915   10.3648   -2.8983 H   0  0  0  0  0  0  0  0  0  0  0  0
   -2.7490   10.6579   -2.4571 H   0  0  0  0  0  0  0  0  0  0  0  0
   -2.6926    9.5994   -1.0313 H   0  0  0  0  0  0  0  0  0  0  0  0
   -2.8230   12.4533   -0.9769 H   0  0  0  0  0  0  0  0  0  0  0  0
   -2.3893   11.4582    0.4106 H   0  0  0  0  0  0  0  0  0  0  0  0
   -0.5915   14.0699   -1.8693 H   0  0  0  0  0  0  0  0  0  0  0  0
    0.2586   12.7096   -2.6778 H   0  0  0  0  0  0  0  0  0  0  0  0
   -1.5366   12.7738   -2.6778 H   0  0  0  0  0  0  0  0  0  0  0  0
   -0.3323   12.3788    1.3002 H   0  0  0  0  0  0  0  0  0  0  0  0
   -1.8909   14.2206    0.3932 H   0  0  0  0  0  0  0  0  0  0  0  0
   -0.7180   14.5579    1.7716 H   0  0  0  0  0  0  0  0  0  0  0  0
   -0.9266   16.4331   -0.0657 H   0  0  0  0  0  0  0  0  0  0  0  0
    1.9204   13.9670   -1.5172 H   0  0  0  0  0  0  0  0  0  0  0  0
    3.2815   15.4010    0.8470 H   0  0  0  0  0  0  0  0  0  0  0  0
    4.0203   14.1400   -0.2365 H   0  0  0  0  0  0  0  0  0  0  0  0
    4.7656   16.4265   -0.8181 H   0  0  0  0  0  0  0  0  0  0  0  0
    3.8348   15.6286   -2.1459 H   0  0  0  0  0  0  0  0  0  0  0  0
    3.1160   17.9106   -1.9641 H   0  0  0  0  0  0  0  0  0  0  0  0
    1.9990   17.6630    0.5750 H   0  0  0  0  0  0  0  0  0  0  0  0
    1.0318   15.2971   -3.0402 H   0  0  0  0  0  0  0  0  0  0  0  0
    0.4526   16.9399   -3.4791 H   0  0  0  0  0  0  0  0  0  0  0  0
    2.2121   16.5781   -3.4791 H   0  0  0  0  0  0  0  0  0  0  0  0
    0.2723   18.2661   -0.2820 H   0  0  0  0  0  0  0  0  0  0  0  0
    0.9118   18.9136   -1.8308 H   0  0  0  0  0  0  0  0  0  0  0  0
   -0.5395   17.8551   -1.8308 H   0  0  0  0  0  0  0  0  0  0  0  0
    1.1790   13.0393    2.5768 H   0  0  0  0  0  0  0  0  0  0  0  0
    2.8988   13.0950    2.0610 H   0  0  0  0  0  0  0  0  0  0  0  0
    1.9120   14.5960    2.0610 H   0  0  0  0  0  0  0  0  0  0  0  0
    3.2218   12.2309   -0.3906 H   0  0  0  0  0  0  0  0  0  0  0  0
    2.2408   11.2796    0.8617 H   0  0  0  0  0  0  0  0  0  0  0  0
    1.6427   11.6124   -2.0902 H   0  0  0  0  0  0  0  0  0  0  0  0
    2.0998   10.1112   -1.1934 H   0  0  0  0  0  0  0  0  0  0  0  0
    0.0879   10.6526    1.3736 H   0  0  0  0  0  0  0  0  0  0  0  0
   -0.9023    9.4049    0.5433 H   0  0  0  0  0  0  0  0  0  0  0  0
    0.8893    9.2760    0.5433 H   0  0  0  0  0  0  0  0  0  0  0  0
  1  2  1  0
  2  3  1  0
  3  4  1  0
  4  5  1  0
  5  6  1  0
  6  7  1  0
  7  8  1  0
  7  9  1  0
  2 10  1  0
 10 11  1  0
 11 12  1  0
 12 13  1  0
 13 14  1  6
 13 15  1  0
 15 16  1  0
 16 17  1  0
 17 18  2  0
 18 19  1  0
 19 20  1  0
 20 21  1  0
 21 22  1  0
 22 23  1  0
 22 24  1  0
 24 25  1  0
 24 26  1  0
 19 27  1  0
 27 28  1  1
 27 29  1  0
 29 30  1  0
 30 31  1  0
 31 32  1  1
  7  5  1  0
 31 10  1  0
 31 13  1  0
 27 15  1  0
 24 18  1  0
  1 33  1  0
  1 34  1  0
  1 35  1  0
  2 36  1  1
  3 37  1  0
  3 38  1  0
  4 39  1  0
  4 40  1  0
  5 41  1  6
  8 42  1  0
  8 43  1  0
  8 44  1  0
  9 45  1  0
  9 46  1  0
  9 47  1  0
 10 48  1  6
 11 49  1  0
 11 50  1  0
 12 51  1  0
 12 52  1  0
 14 53  1  0
 14 54  1  0
 14 55  1  0
 15 56  1  1
 16 57  1  0
 16 58  1  0
 17 59  1  0
 19 60  1  6
 20 61  1  0
 20 62  1  0
 21 63  1  0
 21 64  1  0
 22 65  1  6
 23 66  1  0
 25 67  1  0
 25 68  1  0
 25 69  1  0
 26 70  1  0
 26 71  1  0
 26 72  1  0
 28 73  1  0
 28 74  1  0
 28 75  1  0
 29 76  1  0
 29 77  1  0
 30 78  1  0
 30 79  1  0
 32 80  1  0
 32 81  1  0
 32 82  1  0
M  END
>  <meeko>  (19) 
{"is_sidechain": [false], "intermolecular_energy": 2.731, "internal_energy": -0.839}

$$$$
