EPH_relaxed_0001_pdb2pqr_Repair_188_r2_0001_out
     RDKit          3D

 82 86  0  0  0  0  0  0  0  0999 V2000
   -1.6800    8.6560   -1.8930 C   0  0  0  0  0  0  0  0  0  0  0  0
   -2.0750    9.1440   -0.4960 C   0  0  2  0  0  0  0  0  0  0  0  0
   -3.5800    9.4640   -0.3960 C   0  0  0  0  0  0  0  0  0  0  0  0
   -4.4670    8.2210   -0.2810 C   0  0  0  0  0  0  0  0  0  0  0  0
   -5.1920    7.9370   -1.5610 C   0  0  2  0  0  0  0  0  0  0  0  0
   -6.3500    8.7520   -1.7870 O   0  0  0  0  0  0  0  0  0  0  0  0
   -6.5880    7.3450   -1.6180 C   0  0  0  0  0  0  0  0  0  0  0  0
   -7.3410    7.0010   -0.3710 C   0  0  0  0  0  0  0  0  0  0  0  0
   -7.0210    6.6520   -2.8720 C   0  0  0  0  0  0  0  0  0  0  0  0
   -1.2550   10.3740   -0.1250 C   0  0  1  0  0  0  0  0  0  0  0  0
   -0.2650   10.1030    1.0390 C   0  0  0  0  0  0  0  0  0  0  0  0
    1.0010   10.9530    0.7570 C   0  0  0  0  0  0  0  0  0  0  0  0
    0.5730   11.9280   -0.3650 C   0  0  1  0  0  0  0  0  0  0  0  0
   -0.1880   13.0760    0.3690 C   0  0  0  0  0  0  0  0  0  0  0  0
    1.7190   12.4830   -1.2720 C   0  0  2  0  0  0  0  0  0  0  0  0
    2.7760   13.3300   -0.5420 C   0  0  0  0  0  0  0  0  0  0  0  0
    2.4930   14.7950   -0.4860 C   0  0  0  0  0  0  0  0  0  0  0  0
    1.5860   15.4450   -1.2390 C   0  0  0  0  0  0  0  0  0  0  0  0
    0.8000   14.7120   -2.3340 C   0  0  1  0  0  0  0  0  0  0  0  0
    0.8080   15.5600   -3.6330 C   0  0  0  0  0  0  0  0  0  0  0  0
    0.3050   16.9830   -3.4060 C   0  0  0  0  0  0  0  0  0  0  0  0
    1.1480   17.6980   -2.3530 C   0  0  2  0  0  0  0  0  0  0  0  0
    2.4690   17.8880   -2.8710 O   0  0  0  0  0  0  0  0  0  0  0  0
    1.2210   16.9320   -1.0030 C   0  0  0  0  0  0  0  0  0  0  0  0
   -0.1560   16.9880   -0.2970 C   0  0  0  0  0  0  0  0  0  0  0  0
    2.2140   17.6870   -0.0790 C   0  0  0  0  0  0  0  0  0  0  0  0
    1.2140   13.2000   -2.5900 C   0  0  1  0  0  0  0  0  0  0  0  0
    2.3910   13.1350   -3.6110 C   0  0  0  0  0  0  0  0  0  0  0  0
    0.0060   12.4420   -3.2570 C   0  0  0  0  0  0  0  0  0  0  0  0
   -1.0300   11.8120   -2.3060 C   0  0  0  0  0  0  0  0  0  0  0  0
   -0.3420   10.9780   -1.2210 C   0  0  2  0  0  0  0  0  0  0  0  0
    0.4140    9.8020   -1.9290 C   0  0  0  0  0  0  0  0  0  0  0  0
   -0.9903    7.8039   -1.8023 H   0  0  0  0  0  0  0  0  0  0  0  0
   -2.5811    8.3417   -2.4400 H   0  0  0  0  0  0  0  0  0  0  0  0
   -1.1849    9.4719   -2.4400 H   0  0  0  0  0  0  0  0  0  0  0  0
   -1.8639    8.3286    0.2115 H   0  0  0  0  0  0  0  0  0  0  0  0
   -3.7435   10.0908    0.4930 H   0  0  0  0  0  0  0  0  0  0  0  0
   -3.8626    9.9757   -1.3278 H   0  0  0  0  0  0  0  0  0  0  0  0
   -3.8368    7.3555   -0.0287 H   0  0  0  0  0  0  0  0  0  0  0  0
   -5.2158    8.4055    0.5034 H   0  0  0  0  0  0  0  0  0  0  0  0
   -4.2517    7.6589   -2.0594 H   0  0  0  0  0  0  0  0  0  0  0  0
   -6.7396    7.2758    0.5081 H   0  0  0  0  0  0  0  0  0  0  0  0
   -8.2916    7.5541   -0.3523 H   0  0  0  0  0  0  0  0  0  0  0  0
   -7.5452    5.9203   -0.3523 H   0  0  0  0  0  0  0  0  0  0  0  0
   -7.5875    5.7454   -2.6130 H   0  0  0  0  0  0  0  0  0  0  0  0
   -7.6586    7.3266   -3.4623 H   0  0  0  0  0  0  0  0  0  0  0  0
   -6.1352    6.3748   -3.4623 H   0  0  0  0  0  0  0  0  0  0  0  0
   -2.0699   11.0736    0.1125 H   0  0  0  0  0  0  0  0  0  0  0  0
   -0.7159   10.4014    1.9969 H   0  0  0  0  0  0  0  0  0  0  0  0
   -0.0160    9.0336    1.1047 H   0  0  0  0  0  0  0  0  0  0  0  0
    1.3058   11.5065    1.6574 H   0  0  0  0  0  0  0  0  0  0  0  0
    1.8630   10.3345    0.4665 H   0  0  0  0  0  0  0  0  0  0  0  0
   -0.0973   12.9392    1.4567 H   0  0  0  0  0  0  0  0  0  0  0  0
    0.2471   14.0452    0.0838 H   0  0  0  0  0  0  0  0  0  0  0  0
   -1.2501   13.0527    0.0838 H   0  0  0  0  0  0  0  0  0  0  0  0
    2.2362   11.5645   -1.5866 H   0  0  0  0  0  0  0  0  0  0  0  0
    2.8543   12.9594    0.4907 H   0  0  0  0  0  0  0  0  0  0  0  0
    3.7050   13.2218   -1.1210 H   0  0  0  0  0  0  0  0  0  0  0  0
    3.0745   15.3934    0.2308 H   0  0  0  0  0  0  0  0  0  0  0  0
   -0.2290   14.6161   -1.9573 H   0  0  0  0  0  0  0  0  0  0  0  0
    1.8377   15.6070   -4.0171 H   0  0  0  0  0  0  0  0  0  0  0  0
    0.1296   15.0767   -4.3515 H   0  0  0  0  0  0  0  0  0  0  0  0
    0.3625   17.5405   -4.3525 H   0  0  0  0  0  0  0  0  0  0  0  0
   -0.7348   16.9354   -3.0503 H   0  0  0  0  0  0  0  0  0  0  0  0
    0.6623   18.6618   -2.1404 H   0  0  0  0  0  0  0  0  0  0  0  0
    2.9270   18.5140   -2.2860 H   0  0  0  0  0  0  0  0  0  0  0  0
   -0.0096   16.9820    0.7932 H   0  0  0  0  0  0  0  0  0  0  0  0
   -0.6818   17.9083   -0.5913 H   0  0  0  0  0  0  0  0  0  0  0  0
   -0.7548   16.1135   -0.5913 H   0  0  0  0  0  0  0  0  0  0  0  0
    1.9572   17.4917    0.9726 H   0  0  0  0  0  0  0  0  0  0  0  0
    3.2378   17.3372   -0.2774 H   0  0  0  0  0  0  0  0  0  0  0  0
    2.1506   18.7671   -0.2774 H   0  0  0  0  0  0  0  0  0  0  0  0
    3.3457   13.0823   -3.0671 H   0  0  0  0  0  0  0  0  0  0  0  0
    2.2792   12.2417   -4.2430 H   0  0  0  0  0  0  0  0  0  0  0  0
    2.3783   14.0352   -4.2430 H   0  0  0  0  0  0  0  0  0  0  0  0
   -0.5249   13.1612   -3.8980 H   0  0  0  0  0  0  0  0  0  0  0  0
    0.4586   11.5939   -3.7918 H   0  0  0  0  0  0  0  0  0  0  0  0
   -1.6138   12.6127   -1.8284 H   0  0  0  0  0  0  0  0  0  0  0  0
   -1.6878   11.1525   -2.8911 H   0  0  0  0  0  0  0  0  0  0  0  0
    0.8443    9.1327   -1.1694 H   0  0  0  0  0  0  0  0  0  0  0  0
   -0.2913    9.2382   -2.5573 H   0  0  0  0  0  0  0  0  0  0  0  0
    1.2197   10.2096   -2.5573 H   0  0  0  0  0  0  0  0  0  0  0  0
  1  2  1  0
  2  3  1  0
  3  4  1  0
  4  5  1  0
  5  6  1  0
  6  7  1  0
  7  8  1  0
  7  9  1  0
  2 10  1  0
 10 11  1  0
 11 12  1  0
 12 13  1  0
 13 14  1  1
 13 15  1  0
 15 16  1  0
 16 17  1  0
 17 18  2  0
 18 19  1  0
 19 20  1  0
 20 21  1  0
 21 22  1  0
 22 23  1  0
 22 24  1  0
 24 25  1  0
 24 26  1  0
 19 27  1  0
 27 28  1  6
 27 29  1  0
 29 30  1  0
 30 31  1  0
 31 32  1  6
  7  5  1  0
 31 10  1  0
 31 13  1  0
 27 15  1  0
 24 18  1  0
  1 33  1  0
  1 34  1  0
  1 35  1  0
  2 36  1  1
  3 37  1  0
  3 38  1  0
  4 39  1  0
  4 40  1  0
  5 41  1  6
  8 42  1  0
  8 43  1  0
  8 44  1  0
  9 45  1  0
  9 46  1  0
  9 47  1  0
 10 48  1  1
 11 49  1  0
 11 50  1  0
 12 51  1  0
 12 52  1  0
 14 53  1  0
 14 54  1  0
 14 55  1  0
 15 56  1  6
 16 57  1  0
 16 58  1  0
 17 59  1  0
 19 60  1  1
 20 61  1  0
 20 62  1  0
 21 63  1  0
 21 64  1  0
 22 65  1  1
 23 66  1  0
 25 67  1  0
 25 68  1  0
 25 69  1  0
 26 70  1  0
 26 71  1  0
 26 72  1  0
 28 73  1  0
 28 74  1  0
 28 75  1  0
 29 76  1  0
 29 77  1  0
 30 78  1  0
 30 79  1  0
 32 80  1  0
 32 81  1  0
 32 82  1  0
M  END
>  <meeko>  (1) 
{"is_sidechain": [false], "intermolecular_energy": 2.731, "internal_energy": -0.839}

$$$$
EPH_relaxed_0001_pdb2pqr_Repair_188_r2_0001_out
     RDKit          3D

 82 86  0  0  0  0  0  0  0  0999 V2000
    4.2510   17.2080   -0.6700 C   0  0  0  0  0  0  0  0  0  0  0  0
    2.8900   17.8430   -0.3720 C   0  0  2  0  0  0  0  0  0  0  0  0
    2.9100   18.6740    0.9270 C   0  0  0  0  0  0  0  0  0  0  0  0
    4.2610   18.6610    1.6460 C   0  0  0  0  0  0  0  0  0  0  0  0
    4.1500   19.1880    3.0440 C   0  0  2  0  0  0  0  0  0  0  0  0
    5.1140   20.1940    3.3830 O   0  0  0  0  0  0  0  0  0  0  0  0
    5.2050   18.9580    4.1110 C   0  0  0  0  0  0  0  0  0  0  0  0
    6.4460   18.1730    3.8250 C   0  0  0  0  0  0  0  0  0  0  0  0
    4.8050   19.0750    5.5490 C   0  0  0  0  0  0  0  0  0  0  0  0
    1.8200   16.7620   -0.2820 C   0  0  1  0  0  0  0  0  0  0  0  0
    0.3830   17.3300   -0.4250 C   0  0  0  0  0  0  0  0  0  0  0  0
   -0.4480   16.2610   -1.1800 C   0  0  0  0  0  0  0  0  0  0  0  0
    0.4340   14.9910   -1.1530 C   0  0  1  0  0  0  0  0  0  0  0  0
    0.1930   14.3650    0.2560 C   0  0  0  0  0  0  0  0  0  0  0  0
    0.1870   13.9530   -2.2960 C   0  0  2  0  0  0  0  0  0  0  0  0
   -1.2190   13.3270   -2.3150 C   0  0  0  0  0  0  0  0  0  0  0  0
   -1.3680   12.0700   -1.5240 C   0  0  0  0  0  0  0  0  0  0  0  0
   -0.3560   11.3130   -1.0600 C   0  0  0  0  0  0  0  0  0  0  0  0
    1.1010   11.6480   -1.4040 C   0  0  1  0  0  0  0  0  0  0  0  0
    1.8400   10.3560   -1.8420 C   0  0  0  0  0  0  0  0  0  0  0  0
    1.7270    9.2390   -0.8100 C   0  0  0  0  0  0  0  0  0  0  0  0
    0.2650    8.8940   -0.5370 C   0  0  2  0  0  0  0  0  0  0  0  0
   -0.3010    8.3170   -1.7180 O   0  0  0  0  0  0  0  0  0  0  0  0
   -0.5820   10.1210   -0.0970 C   0  0  0  0  0  0  0  0  0  0  0  0
   -0.1620   10.5600    1.3270 C   0  0  0  0  0  0  0  0  0  0  0  0
   -2.0630    9.6660    0.0080 C   0  0  0  0  0  0  0  0  0  0  0  0
    1.3130   12.8480   -2.4240 C   0  0  1  0  0  0  0  0  0  0  0  0
    1.2530   12.3190   -3.8890 C   0  0  0  0  0  0  0  0  0  0  0  0
    2.7580   13.4420   -2.2260 C   0  0  0  0  0  0  0  0  0  0  0  0
    2.9150   14.5480   -1.1650 C   0  0  0  0  0  0  0  0  0  0  0  0
    1.8540   15.6380   -1.3480 C   0  0  2  0  0  0  0  0  0  0  0  0
    2.0850   16.3010   -2.7490 C   0  0  0  0  0  0  0  0  0  0  0  0
    4.7598   16.9706    0.2759 H   0  0  0  0  0  0  0  0  0  0  0  0
    4.1057   16.2847   -1.2500 H   0  0  0  0  0  0  0  0  0  0  0  0
    4.8652   17.9125   -1.2500 H   0  0  0  0  0  0  0  0  0  0  0  0
    2.6562   18.5286   -1.1998 H   0  0  0  0  0  0  0  0  0  0  0  0
    2.6601   19.7156    0.6766 H   0  0  0  0  0  0  0  0  0  0  0  0
    2.1781   18.2189    1.6106 H   0  0  0  0  0  0  0  0  0  0  0  0
    4.6349   17.6272    1.6834 H   0  0  0  0  0  0  0  0  0  0  0  0
    4.9522   19.3104    1.0887 H   0  0  0  0  0  0  0  0  0  0  0  0
    3.0603   19.0381    3.0394 H   0  0  0  0  0  0  0  0  0  0  0  0
    6.9177   17.8746    4.7729 H   0  0  0  0  0  0  0  0  0  0  0  0
    6.1863   17.2746    3.2459 H   0  0  0  0  0  0  0  0  0  0  0  0
    7.1465   18.7926    3.2459 H   0  0  0  0  0  0  0  0  0  0  0  0
    5.6631   18.8240    6.1899 H   0  0  0  0  0  0  0  0  0  0  0  0
    4.4812   20.1055    5.7568 H   0  0  0  0  0  0  0  0  0  0  0  0
    3.9769   18.3815    5.7568 H   0  0  0  0  0  0  0  0  0  0  0  0
    2.0584   16.3485    0.7091 H   0  0  0  0  0  0  0  0  0  0  0  0
   -0.0515   17.5154    0.5684 H   0  0  0  0  0  0  0  0  0  0  0  0
    0.3884   18.2844   -0.9718 H   0  0  0  0  0  0  0  0  0  0  0  0
   -1.4049   16.0803   -0.6684 H   0  0  0  0  0  0  0  0  0  0  0  0
   -0.6979   16.5738   -2.2046 H   0  0  0  0  0  0  0  0  0  0  0  0
    0.4728   15.0918    1.0329 H   0  0  0  0  0  0  0  0  0  0  0  0
   -0.8700   14.1037    0.3642 H   0  0  0  0  0  0  0  0  0  0  0  0
    0.8063   13.4583    0.3642 H   0  0  0  0  0  0  0  0  0  0  0  0
    0.2495   14.5776   -3.1993 H   0  0  0  0  0  0  0  0  0  0  0  0
   -1.9262   14.0674   -1.9129 H   0  0  0  0  0  0  0  0  0  0  0  0
   -1.4159   13.0529   -3.3619 H   0  0  0  0  0  0  0  0  0  0  0  0
   -2.3914   11.7337   -1.3013 H   0  0  0  0  0  0  0  0  0  0  0  0
    1.5503   12.0391   -0.4792 H   0  0  0  0  0  0  0  0  0  0  0  0
    1.4056   10.0055   -2.7899 H   0  0  0  0  0  0  0  0  0  0  0  0
    2.9064   10.6024   -1.9518 H   0  0  0  0  0  0  0  0  0  0  0  0
    2.2431    8.3448   -1.1895 H   0  0  0  0  0  0  0  0  0  0  0  0
    2.1883    9.5802    0.1285 H   0  0  0  0  0  0  0  0  0  0  0  0
    0.2450    8.1822    0.3014 H   0  0  0  0  0  0  0  0  0  0  0  0
   -0.3960    7.3620   -1.5630 H   0  0  0  0  0  0  0  0  0  0  0  0
   -0.7220    9.9747    2.0712 H   0  0  0  0  0  0  0  0  0  0  0  0
    0.9162   10.3877    1.4608 H   0  0  0  0  0  0  0  0  0  0  0  0
   -0.3818   11.6295    1.4608 H   0  0  0  0  0  0  0  0  0  0  0  0
   -2.3457    9.5792    1.0675 H   0  0  0  0  0  0  0  0  0  0  0  0
   -2.7100   10.4068   -0.4846 H   0  0  0  0  0  0  0  0  0  0  0  0
   -2.1824    8.6897   -0.4846 H   0  0  0  0  0  0  0  0  0  0  0  0
    1.1290   11.2260   -3.8794 H   0  0  0  0  0  0  0  0  0  0  0  0
    0.4014   12.7800   -4.4107 H   0  0  0  0  0  0  0  0  0  0  0  0
    2.1862   12.5776   -4.4107 H   0  0  0  0  0  0  0  0  0  0  0  0
    3.4228   12.6126   -1.9430 H   0  0  0  0  0  0  0  0  0  0  0  0
    3.0046   13.9244   -3.1833 H   0  0  0  0  0  0  0  0  0  0  0  0
    2.8065   14.1046   -0.1642 H   0  0  0  0  0  0  0  0  0  0  0  0
    3.9096   15.0041   -1.2783 H   0  0  0  0  0  0  0  0  0  0  0  0
    2.4441   17.3317   -2.6122 H   0  0  0  0  0  0  0  0  0  0  0  0
    2.8347   15.7228   -3.3091 H   0  0  0  0  0  0  0  0  0  0  0  0
    1.1384   16.3139   -3.3091 H   0  0  0  0  0  0  0  0  0  0  0  0
  1  2  1  0
  2  3  1  0
  3  4  1  0
  4  5  1  0
  5  6  1  0
  6  7  1  0
  7  8  1  0
  7  9  1  0
  2 10  1  0
 10 11  1  0
 11 12  1  0
 12 13  1  0
 13 14  1  1
 13 15  1  0
 15 16  1  0
 16 17  1  0
 17 18  2  0
 18 19  1  0
 19 20  1  0
 20 21  1  0
 21 22  1  0
 22 23  1  0
 22 24  1  0
 24 25  1  0
 24 26  1  0
 19 27  1  0
 27 28  1  6
 27 29  1  0
 29 30  1  0
 30 31  1  0
 31 32  1  6
  7  5  1  0
 31 10  1  0
 31 13  1  0
 27 15  1  0
 24 18  1  0
  1 33  1  0
  1 34  1  0
  1 35  1  0
  2 36  1  6
  3 37  1  0
  3 38  1  0
  4 39  1  0
  4 40  1  0
  5 41  1  1
  8 42  1  0
  8 43  1  0
  8 44  1  0
  9 45  1  0
  9 46  1  0
  9 47  1  0
 10 48  1  1
 11 49  1  0
 11 50  1  0
 12 51  1  0
 12 52  1  0
 14 53  1  0
 14 54  1  0
 14 55  1  0
 15 56  1  6
 16 57  1  0
 16 58  1  0
 17 59  1  0
 19 60  1  1
 20 61  1  0
 20 62  1  0
 21 63  1  0
 21 64  1  0
 22 65  1  1
 23 66  1  0
 25 67  1  0
 25 68  1  0
 25 69  1  0
 26 70  1  0
 26 71  1  0
 26 72  1  0
 28 73  1  0
 28 74  1  0
 28 75  1  0
 29 76  1  0
 29 77  1  0
 30 78  1  0
 30 79  1  0
 32 80  1  0
 32 81  1  0
 32 82  1  0
M  END
>  <meeko>  (2) 
{"is_sidechain": [false], "intermolecular_energy": 2.731, "internal_energy": -0.839}

$$$$
EPH_relaxed_0001_pdb2pqr_Repair_188_r2_0001_out
     RDKit          3D

 82 86  0  0  0  0  0  0  0  0999 V2000
    1.8160   18.2580   -1.9860 C   0  0  0  0  0  0  0  0  0  0  0  0
    1.5080   17.2490   -0.8750 C   0  0  2  0  0  0  0  0  0  0  0  0
    2.7780   16.8150   -0.1170 C   0  0  0  0  0  0  0  0  0  0  0  0
    3.7570   17.9610    0.1510 C   0  0  0  0  0  0  0  0  0  0  0  0
    3.4380   18.6740    1.4300 C   0  0  2  0  0  0  0  0  0  0  0  0
    3.8070   20.0600    1.4500 O   0  0  0  0  0  0  0  0  0  0  0  0
    4.4970   19.2060    2.3770 C   0  0  0  0  0  0  0  0  0  0  0  0
    5.9560   19.0460    2.0860 C   0  0  0  0  0  0  0  0  0  0  0  0
    4.1240   19.4430    3.8080 C   0  0  0  0  0  0  0  0  0  0  0  0
    0.8080   16.0290   -1.4610 C   0  0  1  0  0  0  0  0  0  0  0  0
    0.4090   16.2250   -2.9480 C   0  0  0  0  0  0  0  0  0  0  0  0
    0.5650   14.8460   -3.6390 C   0  0  0  0  0  0  0  0  0  0  0  0
    0.7240   13.8420   -2.4740 C   0  0  1  0  0  0  0  0  0  0  0  0
   -0.7300   13.5690   -1.9780 C   0  0  0  0  0  0  0  0  0  0  0  0
    1.4800   12.5140   -2.8050 C   0  0  2  0  0  0  0  0  0  0  0  0
    0.8030   11.6240   -3.8620 C   0  0  0  0  0  0  0  0  0  0  0  0
   -0.1570   10.6140   -3.3250 C   0  0  0  0  0  0  0  0  0  0  0  0
   -0.2540   10.2350   -2.0380 C   0  0  0  0  0  0  0  0  0  0  0  0
    0.7250   10.7670   -0.9830 C   0  0  1  0  0  0  0  0  0  0  0  0
    1.2340    9.5900   -0.1100 C   0  0  0  0  0  0  0  0  0  0  0  0
    0.0960    8.7830    0.5060 C   0  0  0  0  0  0  0  0  0  0  0  0
   -0.8230    8.2220   -0.5760 C   0  0  2  0  0  0  0  0  0  0  0  0
   -0.0980    7.2520   -1.3390 O   0  0  0  0  0  0  0  0  0  0  0  0
   -1.3900    9.3150   -1.5250 C   0  0  0  0  0  0  0  0  0  0  0  0
   -2.4140   10.1880   -0.7590 C   0  0  0  0  0  0  0  0  0  0  0  0
   -2.1840    8.6030   -2.6530 C   0  0  0  0  0  0  0  0  0  0  0  0
    1.9070   11.6760   -1.5320 C   0  0  1  0  0  0  0  0  0  0  0  0
    3.1080   10.7820   -1.9690 C   0  0  0  0  0  0  0  0  0  0  0  0
    2.4360   12.5910   -0.3640 C   0  0  0  0  0  0  0  0  0  0  0  0
    1.7250   13.9430   -0.1640 C   0  0  0  0  0  0  0  0  0  0  0  0
    1.6020   14.6990   -1.4900 C   0  0  2  0  0  0  0  0  0  0  0  0
    3.0500   15.0070   -2.0020 C   0  0  0  0  0  0  0  0  0  0  0  0
    2.1093   19.2188   -1.5378 H   0  0  0  0  0  0  0  0  0  0  0  0
    2.6389   17.8776   -2.6090 H   0  0  0  0  0  0  0  0  0  0  0  0
    0.9209   18.4021   -2.6090 H   0  0  0  0  0  0  0  0  0  0  0  0
    0.8453   17.7454   -0.1509 H   0  0  0  0  0  0  0  0  0  0  0  0
    2.4756   16.3837    0.8487 H   0  0  0  0  0  0  0  0  0  0  0  0
    3.3011   16.0884   -0.7561 H   0  0  0  0  0  0  0  0  0  0  0  0
    4.7760   17.5518    0.2154 H   0  0  0  0  0  0  0  0  0  0  0  0
    3.6741   18.6833   -0.6745 H   0  0  0  0  0  0  0  0  0  0  0  0
    2.5552   18.0383    1.5927 H   0  0  0  0  0  0  0  0  0  0  0  0
    6.5140   18.9848    3.0320 H   0  0  0  0  0  0  0  0  0  0  0  0
    6.1154   18.1250    1.5060 H   0  0  0  0  0  0  0  0  0  0  0  0
    6.3112   19.9106    1.5060 H   0  0  0  0  0  0  0  0  0  0  0  0
    4.8690   18.9696    4.4644 H   0  0  0  0  0  0  0  0  0  0  0  0
    4.0962   20.5248    4.0053 H   0  0  0  0  0  0  0  0  0  0  0  0
    3.1328   19.0087    4.0053 H   0  0  0  0  0  0  0  0  0  0  0  0
   -0.0367   15.9481   -0.7611 H   0  0  0  0  0  0  0  0  0  0  0  0
   -0.6338   16.5680   -3.0182 H   0  0  0  0  0  0  0  0  0  0  0  0
    1.0441   16.9825   -3.4306 H   0  0  0  0  0  0  0  0  0  0  0  0
   -0.3268   14.6084   -4.2375 H   0  0  0  0  0  0  0  0  0  0  0  0
    1.4194   14.8205   -4.3313 H   0  0  0  0  0  0  0  0  0  0  0  0
   -0.7477   13.5657   -0.8781 H   0  0  0  0  0  0  0  0  0  0  0  0
   -1.3994   14.3572   -2.3531 H   0  0  0  0  0  0  0  0  0  0  0  0
   -1.0679   12.5917   -2.3531 H   0  0  0  0  0  0  0  0  0  0  0  0
    2.4064   12.8804   -3.2714 H   0  0  0  0  0  0  0  0  0  0  0  0
    0.2553   12.2779   -4.5566 H   0  0  0  0  0  0  0  0  0  0  0  0
    1.6111   11.0514   -4.3406 H   0  0  0  0  0  0  0  0  0  0  0  0
   -0.8428   10.1399   -4.0426 H   0  0  0  0  0  0  0  0  0  0  0  0
    0.1520   11.4713   -0.3620 H   0  0  0  0  0  0  0  0  0  0  0  0
    1.8402    8.9213   -0.7387 H   0  0  0  0  0  0  0  0  0  0  0  0
    1.8243   10.0169    0.7141 H   0  0  0  0  0  0  0  0  0  0  0  0
    0.5187    7.9499    1.0867 H   0  0  0  0  0  0  0  0  0  0  0  0
   -0.4924    9.4462    1.1571 H   0  0  0  0  0  0  0  0  0  0  0  0
   -1.6871    7.7656   -0.0710 H   0  0  0  0  0  0  0  0  0  0  0  0
    0.4790    7.7340   -1.9550 H   0  0  0  0  0  0  0  0  0  0  0  0
   -2.2661   10.0619    0.3237 H   0  0  0  0  0  0  0  0  0  0  0  0
   -2.2690   11.2446   -1.0282 H   0  0  0  0  0  0  0  0  0  0  0  0
   -3.4344    9.8777   -1.0282 H   0  0  0  0  0  0  0  0  0  0  0  0
   -2.9326    7.9317   -2.2069 H   0  0  0  0  0  0  0  0  0  0  0  0
   -2.6906    9.3551   -3.2757 H   0  0  0  0  0  0  0  0  0  0  0  0
   -1.4914    8.0177   -3.2757 H   0  0  0  0  0  0  0  0  0  0  0  0
    3.6234   10.3983   -1.0762 H   0  0  0  0  0  0  0  0  0  0  0  0
    2.7375    9.9381   -2.5695 H   0  0  0  0  0  0  0  0  0  0  0  0
    3.8101   11.3790   -2.5695 H   0  0  0  0  0  0  0  0  0  0  0  0
    2.3403   12.0229    0.5731 H   0  0  0  0  0  0  0  0  0  0  0  0
    3.4683   12.8475   -0.6444 H   0  0  0  0  0  0  0  0  0  0  0  0
    0.7188   13.7637    0.2427 H   0  0  0  0  0  0  0  0  0  0  0  0
    2.3192   14.5520    0.5332 H   0  0  0  0  0  0  0  0  0  0  0  0
    3.7205   15.1496   -1.1417 H   0  0  0  0  0  0  0  0  0  0  0  0
    3.4100   14.1653   -2.6119 H   0  0  0  0  0  0  0  0  0  0  0  0
    3.0363   15.9223   -2.6119 H   0  0  0  0  0  0  0  0  0  0  0  0
  1  2  1  0
  2  3  1  0
  3  4  1  0
  4  5  1  0
  5  6  1  0
  6  7  1  0
  7  8  1  0
  7  9  1  0
  2 10  1  0
 10 11  1  0
 11 12  1  0
 12 13  1  0
 13 14  1  1
 13 15  1  0
 15 16  1  0
 16 17  1  0
 17 18  2  0
 18 19  1  0
 19 20  1  0
 20 21  1  0
 21 22  1  0
 22 23  1  0
 22 24  1  0
 24 25  1  0
 24 26  1  0
 19 27  1  0
 27 28  1  6
 27 29  1  0
 29 30  1  0
 30 31  1  0
 31 32  1  6
  7  5  1  0
 31 10  1  0
 31 13  1  0
 27 15  1  0
 24 18  1  0
  1 33  1  0
  1 34  1  0
  1 35  1  0
  2 36  1  1
  3 37  1  0
  3 38  1  0
  4 39  1  0
  4 40  1  0
  5 41  1  1
  8 42  1  0
  8 43  1  0
  8 44  1  0
  9 45  1  0
  9 46  1  0
  9 47  1  0
 10 48  1  1
 11 49  1  0
 11 50  1  0
 12 51  1  0
 12 52  1  0
 14 53  1  0
 14 54  1  0
 14 55  1  0
 15 56  1  6
 16 57  1  0
 16 58  1  0
 17 59  1  0
 19 60  1  1
 20 61  1  0
 20 62  1  0
 21 63  1  0
 21 64  1  0
 22 65  1  1
 23 66  1  0
 25 67  1  0
 25 68  1  0
 25 69  1  0
 26 70  1  0
 26 71  1  0
 26 72  1  0
 28 73  1  0
 28 74  1  0
 28 75  1  0
 29 76  1  0
 29 77  1  0
 30 78  1  0
 30 79  1  0
 32 80  1  0
 32 81  1  0
 32 82  1  0
M  END
>  <meeko>  (3) 
{"is_sidechain": [false], "intermolecular_energy": 2.731, "internal_energy": -0.839}

$$$$
EPH_relaxed_0001_pdb2pqr_Repair_188_r2_0001_out
     RDKit          3D

 82 86  0  0  0  0  0  0  0  0999 V2000
    1.9760   18.1700   -2.8360 C   0  0  0  0  0  0  0  0  0  0  0  0
    0.8210   17.6160   -1.9970 C   0  0  2  0  0  0  0  0  0  0  0  0
    1.1330   17.6450   -0.4870 C   0  0  0  0  0  0  0  0  0  0  0  0
    0.8400   18.9930    0.1770 C   0  0  0  0  0  0  0  0  0  0  0  0
   -0.6000   19.1130    0.5750 C   0  0  2  0  0  0  0  0  0  0  0  0
   -1.4930   18.2480   -0.1400 O   0  0  0  0  0  0  0  0  0  0  0  0
   -1.6790   19.6590   -0.3410 C   0  0  0  0  0  0  0  0  0  0  0  0
   -1.3640   20.1220   -1.7280 C   0  0  0  0  0  0  0  0  0  0  0  0
   -2.9350   20.1940    0.2730 C   0  0  0  0  0  0  0  0  0  0  0  0
    0.4960   16.1930   -2.4350 C   0  0  1  0  0  0  0  0  0  0  0  0
    0.8380   15.9340   -3.9260 C   0  0  0  0  0  0  0  0  0  0  0  0
    1.3220   14.4650   -4.0260 C   0  0  0  0  0  0  0  0  0  0  0  0
    0.9320   13.8330   -2.6690 C   0  0  1  0  0  0  0  0  0  0  0  0
   -0.5810   13.4770   -2.8130 C   0  0  0  0  0  0  0  0  0  0  0  0
    1.7750   12.5970   -2.2140 C   0  0  2  0  0  0  0  0  0  0  0  0
    1.6870   11.3710   -3.1390 C   0  0  0  0  0  0  0  0  0  0  0  0
    0.6030   10.3990   -2.8080 C   0  0  0  0  0  0  0  0  0  0  0  0
   -0.0810   10.3550   -1.6490 C   0  0  0  0  0  0  0  0  0  0  0  0
    0.2810   11.2860   -0.4850 C   0  0  1  0  0  0  0  0  0  0  0  0
    0.3400   10.4690    0.8320 C   0  0  0  0  0  0  0  0  0  0  0  0
   -0.9420    9.6830    1.0910 C   0  0  0  0  0  0  0  0  0  0  0  0
   -1.2370    8.7270   -0.0620 C   0  0  2  0  0  0  0  0  0  0  0  0
   -0.2250    7.7160   -0.0930 O   0  0  0  0  0  0  0  0  0  0  0  0
   -1.3100    9.4360   -1.4430 C   0  0  0  0  0  0  0  0  0  0  0  0
   -2.5870   10.3090   -1.5130 C   0  0  0  0  0  0  0  0  0  0  0  0
   -1.4710    8.3420   -2.5330 C   0  0  0  0  0  0  0  0  0  0  0  0
    1.5680   12.1940   -0.6980 C   0  0  1  0  0  0  0  0  0  0  0  0
    2.8470   11.4140   -0.2660 C   0  0  0  0  0  0  0  0  0  0  0  0
    1.4730   13.4500    0.2480 C   0  0  0  0  0  0  0  0  0  0  0  0
    0.7310   14.6810   -0.3050 C   0  0  0  0  0  0  0  0  0  0  0  0
    1.2320   15.0400   -1.7070 C   0  0  2  0  0  0  0  0  0  0  0  0
    2.7460   15.4250   -1.5900 C   0  0  0  0  0  0  0  0  0  0  0  0
    2.7649   18.5484   -2.1693 H   0  0  0  0  0  0  0  0  0  0  0  0
    2.3848   17.3700   -3.4707 H   0  0  0  0  0  0  0  0  0  0  0  0
    1.6080   18.9896   -3.4707 H   0  0  0  0  0  0  0  0  0  0  0  0
   -0.0510   18.2649   -2.1657 H   0  0  0  0  0  0  0  0  0  0  0  0
    0.5239   16.8744    0.0082 H   0  0  0  0  0  0  0  0  0  0  0  0
    2.2121   17.4614   -0.3785 H   0  0  0  0  0  0  0  0  0  0  0  0
    1.4676   19.0921    1.0750 H   0  0  0  0  0  0  0  0  0  0  0  0
    1.0628   19.7887   -0.5491 H   0  0  0  0  0  0  0  0  0  0  0  0
   -0.3178   19.3575    1.6097 H   0  0  0  0  0  0  0  0  0  0  0  0
   -0.7458   21.0306   -1.6797 H   0  0  0  0  0  0  0  0  0  0  0  0
   -0.8147   19.3327   -2.2621 H   0  0  0  0  0  0  0  0  0  0  0  0
   -2.2998   20.3432   -2.2621 H   0  0  0  0  0  0  0  0  0  0  0  0
   -2.8513   20.1583    1.3692 H   0  0  0  0  0  0  0  0  0  0  0  0
   -3.0864   21.2347   -0.0495 H   0  0  0  0  0  0  0  0  0  0  0  0
   -3.7903   19.5821   -0.0495 H   0  0  0  0  0  0  0  0  0  0  0  0
   -0.5770   16.1662   -2.1944 H   0  0  0  0  0  0  0  0  0  0  0  0
   -0.0554   16.0817   -4.5506 H   0  0  0  0  0  0  0  0  0  0  0  0
    1.6131   16.6298   -4.2797 H   0  0  0  0  0  0  0  0  0  0  0  0
    0.8189   13.9459   -4.8551 H   0  0  0  0  0  0  0  0  0  0  0  0
    2.4016   14.3939   -4.2246 H   0  0  0  0  0  0  0  0  0  0  0  0
   -1.0295   13.3715   -1.8142 H   0  0  0  0  0  0  0  0  0  0  0  0
   -1.0955   14.2786   -3.3632 H   0  0  0  0  0  0  0  0  0  0  0  0
   -0.6841   12.5301   -3.3632 H   0  0  0  0  0  0  0  0  0  0  0  0
    2.8065   12.9676   -2.3074 H   0  0  0  0  0  0  0  0  0  0  0  0
    1.5195   11.7306   -4.1650 H   0  0  0  0  0  0  0  0  0  0  0  0
    2.6339   10.8257   -3.0125 H   0  0  0  0  0  0  0  0  0  0  0  0
    0.3411    9.6561   -3.5758 H   0  0  0  0  0  0  0  0  0  0  0  0
   -0.5277   12.0295   -0.4272 H   0  0  0  0  0  0  0  0  0  0  0  0
    1.1807    9.7622    0.7711 H   0  0  0  0  0  0  0  0  0  0  0  0
    0.4685   11.1807    1.6609 H   0  0  0  0  0  0  0  0  0  0  0  0
   -0.8280    9.1036    2.0191 H   0  0  0  0  0  0  0  0  0  0  0  0
   -1.7774   10.3929    1.1815 H   0  0  0  0  0  0  0  0  0  0  0  0
   -2.2301    8.2897    0.1183 H   0  0  0  0  0  0  0  0  0  0  0  0
   -0.6180    6.8940    0.2470 H   0  0  0  0  0  0  0  0  0  0  0  0
   -2.9281   10.5422   -0.4935 H   0  0  0  0  0  0  0  0  0  0  0  0
   -2.3632   11.2439   -2.0476 H   0  0  0  0  0  0  0  0  0  0  0  0
   -3.3769    9.7610   -2.0476 H   0  0  0  0  0  0  0  0  0  0  0  0
   -1.6150    7.3634   -2.0518 H   0  0  0  0  0  0  0  0  0  0  0  0
   -2.3446    8.5746   -3.1597 H   0  0  0  0  0  0  0  0  0  0  0  0
   -0.5674    8.3130   -3.1597 H   0  0  0  0  0  0  0  0  0  0  0  0
    2.9025   11.3802    0.8321 H   0  0  0  0  0  0  0  0  0  0  0  0
    2.8028   10.3890   -0.6626 H   0  0  0  0  0  0  0  0  0  0  0  0
    3.7381   11.9226   -0.6626 H   0  0  0  0  0  0  0  0  0  0  0  0
    0.9574   13.1359    1.1675 H   0  0  0  0  0  0  0  0  0  0  0  0
    2.5120   13.7810    0.3924 H   0  0  0  0  0  0  0  0  0  0  0  0
   -0.3456   14.4604   -0.3533 H   0  0  0  0  0  0  0  0  0  0  0  0
    0.9201   15.5337    0.3637 H   0  0  0  0  0  0  0  0  0  0  0  0
    3.0253   15.4960   -0.5284 H   0  0  0  0  0  0  0  0  0  0  0  0
    3.3592   14.6542   -2.0797 H   0  0  0  0  0  0  0  0  0  0  0  0
    2.9166   16.3951   -2.0797 H   0  0  0  0  0  0  0  0  0  0  0  0
  1  2  1  0
  2  3  1  0
  3  4  1  0
  4  5  1  0
  5  6  1  0
  6  7  1  0
  7  8  1  0
  7  9  1  0
  2 10  1  0
 10 11  1  0
 11 12  1  0
 12 13  1  0
 13 14  1  6
 13 15  1  0
 15 16  1  0
 16 17  1  0
 17 18  2  0
 18 19  1  0
 19 20  1  0
 20 21  1  0
 21 22  1  0
 22 23  1  0
 22 24  1  0
 24 25  1  0
 24 26  1  0
 19 27  1  0
 27 28  1  1
 27 29  1  0
 29 30  1  0
 30 31  1  0
 31 32  1  1
  7  5  1  0
 31 10  1  0
 31 13  1  0
 27 15  1  0
 24 18  1  0
  1 33  1  0
  1 34  1  0
  1 35  1  0
  2 36  1  1
  3 37  1  0
  3 38  1  0
  4 39  1  0
  4 40  1  0
  5 41  1  1
  8 42  1  0
  8 43  1  0
  8 44  1  0
  9 45  1  0
  9 46  1  0
  9 47  1  0
 10 48  1  6
 11 49  1  0
 11 50  1  0
 12 51  1  0
 12 52  1  0
 14 53  1  0
 14 54  1  0
 14 55  1  0
 15 56  1  1
 16 57  1  0
 16 58  1  0
 17 59  1  0
 19 60  1  1
 20 61  1  0
 20 62  1  0
 21 63  1  0
 21 64  1  0
 22 65  1  1
 23 66  1  0
 25 67  1  0
 25 68  1  0
 25 69  1  0
 26 70  1  0
 26 71  1  0
 26 72  1  0
 28 73  1  0
 28 74  1  0
 28 75  1  0
 29 76  1  0
 29 77  1  0
 30 78  1  0
 30 79  1  0
 32 80  1  0
 32 81  1  0
 32 82  1  0
M  END
>  <meeko>  (4) 
{"is_sidechain": [false], "intermolecular_energy": 2.731, "internal_energy": -0.839}

$$$$
EPH_relaxed_0001_pdb2pqr_Repair_188_r2_0001_out
     RDKit          3D

 82 86  0  0  0  0  0  0  0  0999 V2000
    3.8320   17.5080    0.4850 C   0  0  0  0  0  0  0  0  0  0  0  0
    2.7940   17.8720   -0.5800 C   0  0  2  0  0  0  0  0  0  0  0  0
    2.1650   19.2570   -0.3290 C   0  0  0  0  0  0  0  0  0  0  0  0
    1.1530   19.2740    0.8200 C   0  0  0  0  0  0  0  0  0  0  0  0
   -0.0980   20.0090    0.4450 C   0  0  2  0  0  0  0  0  0  0  0  0
   -1.0330   20.1850    1.5170 O   0  0  0  0  0  0  0  0  0  0  0  0
   -1.4720   19.3640    0.4230 C   0  0  0  0  0  0  0  0  0  0  0  0
   -1.6640   17.9240    0.7810 C   0  0  0  0  0  0  0  0  0  0  0  0
   -2.5440   19.9940   -0.4110 C   0  0  0  0  0  0  0  0  0  0  0  0
    1.7050   16.8070   -0.6310 C   0  0  1  0  0  0  0  0  0  0  0  0
    0.3800   17.3360   -1.2420 C   0  0  0  0  0  0  0  0  0  0  0  0
   -0.2490   16.1600   -2.0320 C   0  0  0  0  0  0  0  0  0  0  0  0
    0.5510   14.9150   -1.5820 C   0  0  1  0  0  0  0  0  0  0  0  0
   -0.0840   14.5030   -0.2170 C   0  0  0  0  0  0  0  0  0  0  0  0
    0.5890   13.7170   -2.5860 C   0  0  2  0  0  0  0  0  0  0  0  0
   -0.7780   13.0840   -2.8970 C   0  0  0  0  0  0  0  0  0  0  0  0
   -1.1770   11.9560   -2.0040 C   0  0  0  0  0  0  0  0  0  0  0  0
   -0.3550   11.2850   -1.1760 C   0  0  0  0  0  0  0  0  0  0  0  0
    1.1510   11.5780   -1.1550 C   0  0  1  0  0  0  0  0  0  0  0  0
    1.9390   10.2420   -1.1820 C   0  0  0  0  0  0  0  0  0  0  0  0
    1.5140    9.2890   -0.0690 C   0  0  0  0  0  0  0  0  0  0  0  0
    0.0220    8.9760   -0.1600 C   0  0  2  0  0  0  0  0  0  0  0  0
   -0.2200    8.2260   -1.3540 O   0  0  0  0  0  0  0  0  0  0  0  0
   -0.8720   10.2470   -0.1500 C   0  0  0  0  0  0  0  0  0  0  0  0
   -0.8400   10.8960    1.2560 C   0  0  0  0  0  0  0  0  0  0  0  0
   -2.3400    9.8000   -0.3890 C   0  0  0  0  0  0  0  0  0  0  0  0
    1.6710   12.6160   -2.2400 C   0  0  1  0  0  0  0  0  0  0  0  0
    1.9940   11.8740   -3.5730 C   0  0  0  0  0  0  0  0  0  0  0  0
    3.0270   13.2440   -1.7420 C   0  0  0  0  0  0  0  0  0  0  0  0
    2.9260   14.4970   -0.8510 C   0  0  0  0  0  0  0  0  0  0  0  0
    1.9910   15.5380   -1.4730 C   0  0  2  0  0  0  0  0  0  0  0  0
    2.6150   15.9880   -2.8370 C   0  0  0  0  0  0  0  0  0  0  0  0
    3.3998   17.6595    1.4851 H   0  0  0  0  0  0  0  0  0  0  0  0
    4.1237   16.4539    0.3675 H   0  0  0  0  0  0  0  0  0  0  0  0
    4.7182   18.1490    0.3675 H   0  0  0  0  0  0  0  0  0  0  0  0
    3.3154   17.9168   -1.5475 H   0  0  0  0  0  0  0  0  0  0  0  0
    2.9712   19.9669   -0.0923 H   0  0  0  0  0  0  0  0  0  0  0  0
    1.6185   19.5324   -1.2430 H   0  0  0  0  0  0  0  0  0  0  0  0
    0.8929   18.2377    1.0815 H   0  0  0  0  0  0  0  0  0  0  0  0
    1.6126   19.7923    1.6745 H   0  0  0  0  0  0  0  0  0  0  0  0
    0.4482   20.6080   -0.2985 H   0  0  0  0  0  0  0  0  0  0  0  0
   -1.6783   17.8171    1.8757 H   0  0  0  0  0  0  0  0  0  0  0  0
   -2.6177   17.5668    0.3653 H   0  0  0  0  0  0  0  0  0  0  0  0
   -0.8372   17.3294    0.3653 H   0  0  0  0  0  0  0  0  0  0  0  0
   -3.3046   20.4410    0.2460 H   0  0  0  0  0  0  0  0  0  0  0  0
   -2.1024   20.7763   -1.0459 H   0  0  0  0  0  0  0  0  0  0  0  0
   -3.0126   19.2276   -1.0459 H   0  0  0  0  0  0  0  0  0  0  0  0
    1.6514   16.5463    0.4363 H   0  0  0  0  0  0  0  0  0  0  0  0
   -0.3016   17.6631   -0.4430 H   0  0  0  0  0  0  0  0  0  0  0  0
    0.5647   18.1989   -1.8987 H   0  0  0  0  0  0  0  0  0  0  0  0
   -1.3141   16.0489   -1.7804 H   0  0  0  0  0  0  0  0  0  0  0  0
   -0.2012   16.3156   -3.1199 H   0  0  0  0  0  0  0  0  0  0  0  0
    0.5277   14.8999    0.6066 H   0  0  0  0  0  0  0  0  0  0  0  0
   -1.1025   14.9128   -0.1478 H   0  0  0  0  0  0  0  0  0  0  0  0
   -0.1247   13.4059   -0.1478 H   0  0  0  0  0  0  0  0  0  0  0  0
    0.9135   14.2005   -3.5192 H   0  0  0  0  0  0  0  0  0  0  0  0
   -1.5431   13.8699   -2.8142 H   0  0  0  0  0  0  0  0  0  0  0  0
   -0.6925   12.6567   -3.9070 H   0  0  0  0  0  0  0  0  0  0  0  0
   -2.2325   11.6470   -2.0245 H   0  0  0  0  0  0  0  0  0  0  0  0
    1.3447   12.1062   -0.2098 H   0  0  0  0  0  0  0  0  0  0  0  0
    1.7673    9.7510   -2.1512 H   0  0  0  0  0  0  0  0  0  0  0  0
    3.0025   10.4787   -1.0306 H   0  0  0  0  0  0  0  0  0  0  0  0
    2.0846    8.3529   -0.1590 H   0  0  0  0  0  0  0  0  0  0  0  0
    1.7140    9.7691    0.9003 H   0  0  0  0  0  0  0  0  0  0  0  0
   -0.2486    8.3957    0.7345 H   0  0  0  0  0  0  0  0  0  0  0  0
   -0.2300    7.2840   -1.1130 H   0  0  0  0  0  0  0  0  0  0  0  0
   -0.8788   10.1094    2.0239 H   0  0  0  0  0  0  0  0  0  0  0  0
    0.0878   11.4755    1.3713 H   0  0  0  0  0  0  0  0  0  0  0  0
   -1.7063   11.5640    1.3713 H   0  0  0  0  0  0  0  0  0  0  0  0
   -2.8393    9.6480    0.5793 H   0  0  0  0  0  0  0  0  0  0  0  0
   -2.8719   10.5769   -0.9578 H   0  0  0  0  0  0  0  0  0  0  0  0
   -2.3486    8.8585   -0.9578 H   0  0  0  0  0  0  0  0  0  0  0  0
    2.4238   10.8867   -3.3482 H   0  0  0  0  0  0  0  0  0  0  0  0
    1.0695   11.7475   -4.1555 H   0  0  0  0  0  0  0  0  0  0  0  0
    2.7165   12.4644   -4.1555 H   0  0  0  0  0  0  0  0  0  0  0  0
    3.5616   12.4712   -1.1702 H   0  0  0  0  0  0  0  0  0  0  0  0
    3.5410   13.5802   -2.6546 H   0  0  0  0  0  0  0  0  0  0  0  0
    2.5356   14.2065    0.1355 H   0  0  0  0  0  0  0  0  0  0  0  0
    3.9283   14.9396   -0.7534 H   0  0  0  0  0  0  0  0  0  0  0  0
    3.4938   16.6217   -2.6469 H   0  0  0  0  0  0  0  0  0  0  0  0
    2.9201   15.1007   -3.4111 H   0  0  0  0  0  0  0  0  0  0  0  0
    1.8694   16.5577   -3.4111 H   0  0  0  0  0  0  0  0  0  0  0  0
  1  2  1  0
  2  3  1  0
  3  4  1  0
  4  5  1  0
  5  6  1  0
  6  7  1  0
  7  8  1  0
  7  9  1  0
  2 10  1  0
 10 11  1  0
 11 12  1  0
 12 13  1  0
 13 14  1  1
 13 15  1  0
 15 16  1  0
 16 17  1  0
 17 18  2  0
 18 19  1  0
 19 20  1  0
 20 21  1  0
 21 22  1  0
 22 23  1  0
 22 24  1  0
 24 25  1  0
 24 26  1  0
 19 27  1  0
 27 28  1  6
 27 29  1  0
 29 30  1  0
 30 31  1  0
 31 32  1  6
  7  5  1  0
 31 10  1  0
 31 13  1  0
 27 15  1  0
 24 18  1  0
  1 33  1  0
  1 34  1  0
  1 35  1  0
  2 36  1  6
  3 37  1  0
  3 38  1  0
  4 39  1  0
  4 40  1  0
  5 41  1  6
  8 42  1  0
  8 43  1  0
  8 44  1  0
  9 45  1  0
  9 46  1  0
  9 47  1  0
 10 48  1  1
 11 49  1  0
 11 50  1  0
 12 51  1  0
 12 52  1  0
 14 53  1  0
 14 54  1  0
 14 55  1  0
 15 56  1  6
 16 57  1  0
 16 58  1  0
 17 59  1  0
 19 60  1  1
 20 61  1  0
 20 62  1  0
 21 63  1  0
 21 64  1  0
 22 65  1  1
 23 66  1  0
 25 67  1  0
 25 68  1  0
 25 69  1  0
 26 70  1  0
 26 71  1  0
 26 72  1  0
 28 73  1  0
 28 74  1  0
 28 75  1  0
 29 76  1  0
 29 77  1  0
 30 78  1  0
 30 79  1  0
 32 80  1  0
 32 81  1  0
 32 82  1  0
M  END
>  <meeko>  (5) 
{"is_sidechain": [false], "intermolecular_energy": 2.731, "internal_energy": -0.839}

$$$$
EPH_relaxed_0001_pdb2pqr_Repair_188_r2_0001_out
     RDKit          3D

 82 86  0  0  0  0  0  0  0  0999 V2000
   -5.1150    5.9210   -1.8890 C   0  0  0  0  0  0  0  0  0  0  0  0
   -5.4590    7.4130   -1.8560 C   0  0  2  0  0  0  0  0  0  0  0  0
   -5.2510    8.0260   -0.4570 C   0  0  0  0  0  0  0  0  0  0  0  0
   -4.1920    9.1320   -0.4210 C   0  0  0  0  0  0  0  0  0  0  0  0
   -2.8300    8.6060   -0.7600 C   0  0  2  0  0  0  0  0  0  0  0  0
   -1.8100    8.9260    0.1950 O   0  0  0  0  0  0  0  0  0  0  0  0
   -1.6540    9.4970   -1.1140 C   0  0  0  0  0  0  0  0  0  0  0  0
   -1.7860   10.9880   -1.1470 C   0  0  0  0  0  0  0  0  0  0  0  0
   -0.5210    8.9100   -1.8960 C   0  0  0  0  0  0  0  0  0  0  0  0
   -6.8990    7.6240   -2.3090 C   0  0  1  0  0  0  0  0  0  0  0  0
   -7.2120    6.9190   -3.6560 C   0  0  0  0  0  0  0  0  0  0  0  0
   -8.6820    6.4330   -3.5760 C   0  0  0  0  0  0  0  0  0  0  0  0
   -9.2640    7.1540   -2.3380 C   0  0  1  0  0  0  0  0  0  0  0  0
   -9.6330    8.5840   -2.8440 C   0  0  0  0  0  0  0  0  0  0  0  0
  -10.4780    6.4580   -1.6410 C   0  0  2  0  0  0  0  0  0  0  0  0
  -11.7390    6.3170   -2.5120 C   0  0  0  0  0  0  0  0  0  0  0  0
  -12.7020    7.4540   -2.4280 C   0  0  0  0  0  0  0  0  0  0  0  0
  -12.7070    8.4070   -1.4770 C   0  0  0  0  0  0  0  0  0  0  0  0
  -11.7310    8.3450   -0.2950 C   0  0  1  0  0  0  0  0  0  0  0  0
  -12.4990    8.6220    1.0250 C   0  0  0  0  0  0  0  0  0  0  0  0
  -13.2810    9.9320    0.9820 C   0  0  0  0  0  0  0  0  0  0  0  0
  -14.2810    9.9320   -0.1710 C   0  0  2  0  0  0  0  0  0  0  0  0
  -15.2870    8.9500    0.0900 O   0  0  0  0  0  0  0  0  0  0  0  0
  -13.6240    9.6530   -1.5520 C   0  0  0  0  0  0  0  0  0  0  0  0
  -12.7600   10.8680   -1.9730 C   0  0  0  0  0  0  0  0  0  0  0  0
  -14.7580    9.5410   -2.6060 C   0  0  0  0  0  0  0  0  0  0  0  0
  -10.8260    7.0410   -0.2110 C   0  0  1  0  0  0  0  0  0  0  0  0
  -11.5840    5.9150    0.5560 C   0  0  0  0  0  0  0  0  0  0  0  0
   -9.5370    7.3640    0.6330 C   0  0  0  0  0  0  0  0  0  0  0  0
   -8.3300    7.9380   -0.1340 C   0  0  0  0  0  0  0  0  0  0  0  0
   -8.0210    7.1000   -1.3780 C   0  0  2  0  0  0  0  0  0  0  0  0
   -7.6250    5.6610   -0.8990 C   0  0  0  0  0  0  0  0  0  0  0  0
   -5.0276    5.5420   -0.8601 H   0  0  0  0  0  0  0  0  0  0  0  0
   -5.9103    5.3729   -2.4153 H   0  0  0  0  0  0  0  0  0  0  0  0
   -4.1600    5.7765   -2.4153 H   0  0  0  0  0  0  0  0  0  0  0  0
   -4.7732    7.9264   -2.5460 H   0  0  0  0  0  0  0  0  0  0  0  0
   -6.2077    8.4500   -0.1178 H   0  0  0  0  0  0  0  0  0  0  0  0
   -4.8944    7.2178    0.1985 H   0  0  0  0  0  0  0  0  0  0  0  0
   -4.4648    9.9107   -1.1485 H   0  0  0  0  0  0  0  0  0  0  0  0
   -4.1576    9.5410    0.5995 H   0  0  0  0  0  0  0  0  0  0  0  0
   -3.2669    7.7280   -1.2582 H   0  0  0  0  0  0  0  0  0  0  0  0
   -1.8203   11.3759   -0.1182 H   0  0  0  0  0  0  0  0  0  0  0  0
   -0.9227   11.4210   -1.6735 H   0  0  0  0  0  0  0  0  0  0  0  0
   -2.7120   11.2626   -1.6735 H   0  0  0  0  0  0  0  0  0  0  0  0
    0.2377    8.5169   -1.2033 H   0  0  0  0  0  0  0  0  0  0  0  0
   -0.8972    8.0934   -2.5297 H   0  0  0  0  0  0  0  0  0  0  0  0
   -0.0708    9.6883   -2.5297 H   0  0  0  0  0  0  0  0  0  0  0  0
   -6.9213    8.7232   -2.3448 H   0  0  0  0  0  0  0  0  0  0  0  0
   -7.0917    7.6257   -4.4903 H   0  0  0  0  0  0  0  0  0  0  0  0
   -6.5265    6.0763   -3.8292 H   0  0  0  0  0  0  0  0  0  0  0  0
   -9.2342    6.7146   -4.4847 H   0  0  0  0  0  0  0  0  0  0  0  0
   -8.7558    5.3385   -3.4945 H   0  0  0  0  0  0  0  0  0  0  0  0
   -9.8037    9.2454   -1.9817 H   0  0  0  0  0  0  0  0  0  0  0  0
   -8.8080    8.9815   -3.4534 H   0  0  0  0  0  0  0  0  0  0  0  0
  -10.5473    8.5327   -3.4534 H   0  0  0  0  0  0  0  0  0  0  0  0
  -10.1056    5.4344   -1.4873 H   0  0  0  0  0  0  0  0  0  0  0  0
  -11.4191    6.2192   -3.5599 H   0  0  0  0  0  0  0  0  0  0  0  0
  -12.2751    5.4353   -2.1310 H   0  0  0  0  0  0  0  0  0  0  0  0
  -13.4733    7.5190   -3.2096 H   0  0  0  0  0  0  0  0  0  0  0  0
  -10.9899    9.1387   -0.4703 H   0  0  0  0  0  0  0  0  0  0  0  0
  -13.2035    7.7962    1.2032 H   0  0  0  0  0  0  0  0  0  0  0  0
  -11.7570    8.7019    1.8331 H   0  0  0  0  0  0  0  0  0  0  0  0
  -13.8244   10.0583    1.9300 H   0  0  0  0  0  0  0  0  0  0  0  0
  -12.5721   10.7596    0.8322 H   0  0  0  0  0  0  0  0  0  0  0  0
  -14.7167   10.9404   -0.2288 H   0  0  0  0  0  0  0  0  0  0  0  0
  -15.7610    9.2210    0.8950 H   0  0  0  0  0  0  0  0  0  0  0  0
  -12.3922   11.3853   -1.0746 H   0  0  0  0  0  0  0  0  0  0  0  0
  -11.9052   10.5202   -2.5717 H   0  0  0  0  0  0  0  0  0  0  0  0
  -13.3691   11.5612   -2.5717 H   0  0  0  0  0  0  0  0  0  0  0  0
  -15.7267    9.4453   -2.0936 H   0  0  0  0  0  0  0  0  0  0  0  0
  -14.7638   10.4429   -3.2356 H   0  0  0  0  0  0  0  0  0  0  0  0
  -14.5872    8.6554   -3.2356 H   0  0  0  0  0  0  0  0  0  0  0  0
  -11.4773    6.0734    1.6393 H   0  0  0  0  0  0  0  0  0  0  0  0
  -12.6498    5.9401    0.2849 H   0  0  0  0  0  0  0  0  0  0  0  0
  -11.1597    4.9370    0.2849 H   0  0  0  0  0  0  0  0  0  0  0  0
   -9.8192    8.0953    1.4048 H   0  0  0  0  0  0  0  0  0  0  0  0
   -9.1961    6.3927    1.0208 H   0  0  0  0  0  0  0  0  0  0  0  0
   -8.5571    8.9692   -0.4423 H   0  0  0  0  0  0  0  0  0  0  0  0
   -7.4522    7.9182    0.5287 H   0  0  0  0  0  0  0  0  0  0  0  0
   -7.6165    5.6300    0.2005 H   0  0  0  0  0  0  0  0  0  0  0  0
   -8.3563    4.9333   -1.2807 H   0  0  0  0  0  0  0  0  0  0  0  0
   -6.6244    5.4099   -1.2807 H   0  0  0  0  0  0  0  0  0  0  0  0
  1  2  1  0
  2  3  1  0
  3  4  1  0
  4  5  1  0
  5  6  1  0
  6  7  1  0
  7  8  1  0
  7  9  1  0
  2 10  1  0
 10 11  1  0
 11 12  1  0
 12 13  1  0
 13 14  1  6
 13 15  1  0
 15 16  1  0
 16 17  1  0
 17 18  2  0
 18 19  1  0
 19 20  1  0
 20 21  1  0
 21 22  1  0
 22 23  1  0
 22 24  1  0
 24 25  1  0
 24 26  1  0
 19 27  1  0
 27 28  1  1
 27 29  1  0
 29 30  1  0
 30 31  1  0
 31 32  1  1
  7  5  1  0
 31 10  1  0
 31 13  1  0
 27 15  1  0
 24 18  1  0
  1 33  1  0
  1 34  1  0
  1 35  1  0
  2 36  1  6
  3 37  1  0
  3 38  1  0
  4 39  1  0
  4 40  1  0
  5 41  1  6
  8 42  1  0
  8 43  1  0
  8 44  1  0
  9 45  1  0
  9 46  1  0
  9 47  1  0
 10 48  1  6
 11 49  1  0
 11 50  1  0
 12 51  1  0
 12 52  1  0
 14 53  1  0
 14 54  1  0
 14 55  1  0
 15 56  1  1
 16 57  1  0
 16 58  1  0
 17 59  1  0
 19 60  1  6
 20 61  1  0
 20 62  1  0
 21 63  1  0
 21 64  1  0
 22 65  1  6
 23 66  1  0
 25 67  1  0
 25 68  1  0
 25 69  1  0
 26 70  1  0
 26 71  1  0
 26 72  1  0
 28 73  1  0
 28 74  1  0
 28 75  1  0
 29 76  1  0
 29 77  1  0
 30 78  1  0
 30 79  1  0
 32 80  1  0
 32 81  1  0
 32 82  1  0
M  END
>  <meeko>  (6) 
{"is_sidechain": [false], "intermolecular_energy": 2.731, "internal_energy": -0.839}

$$$$
EPH_relaxed_0001_pdb2pqr_Repair_188_r2_0001_out
     RDKit          3D

 82 86  0  0  0  0  0  0  0  0999 V2000
    1.0730   19.1110   -2.2380 C   0  0  0  0  0  0  0  0  0  0  0  0
    0.8210   18.0910   -1.1240 C   0  0  2  0  0  0  0  0  0  0  0  0
    2.0180   17.9780   -0.1590 C   0  0  0  0  0  0  0  0  0  0  0  0
    2.3610   19.2890    0.5530 C   0  0  0  0  0  0  0  0  0  0  0  0
    3.7820   19.3050    1.0310 C   0  0  2  0  0  0  0  0  0  0  0  0
    4.0770   18.3560    2.0640 O   0  0  0  0  0  0  0  0  0  0  0  0
    4.1900   19.7420    2.4250 C   0  0  0  0  0  0  0  0  0  0  0  0
    3.1770   20.1940    3.4300 C   0  0  0  0  0  0  0  0  0  0  0  0
    5.6000   20.1930    2.6490 C   0  0  0  0  0  0  0  0  0  0  0  0
    0.5080   16.7280   -1.7290 C   0  0  1  0  0  0  0  0  0  0  0  0
    0.8000   16.6690   -3.2520 C   0  0  0  0  0  0  0  0  0  0  0  0
    1.3090   15.2360   -3.5550 C   0  0  0  0  0  0  0  0  0  0  0  0
    0.9820   14.4270   -2.2770 C   0  0  1  0  0  0  0  0  0  0  0  0
   -0.5280   14.0560   -2.4140 C   0  0  0  0  0  0  0  0  0  0  0  0
    1.8650   13.1650   -2.0130 C   0  0  2  0  0  0  0  0  0  0  0  0
    1.7670   12.0640   -3.0840 C   0  0  0  0  0  0  0  0  0  0  0  0
    0.7150   11.0320   -2.8430 C   0  0  0  0  0  0  0  0  0  0  0  0
    0.0760   10.8250   -1.6770 C   0  0  0  0  0  0  0  0  0  0  0  0
    0.4620   11.6090   -0.4160 C   0  0  1  0  0  0  0  0  0  0  0  0
    0.5850   10.6330    0.7830 C   0  0  0  0  0  0  0  0  0  0  0  0
   -0.6700    9.7890    0.9830 C   0  0  0  0  0  0  0  0  0  0  0  0
   -0.9890    8.9800   -0.2720 C   0  0  2  0  0  0  0  0  0  0  0  0
    0.0410    8.0070   -0.4660 O   0  0  0  0  0  0  0  0  0  0  0  0
   -1.1270    9.8570   -1.5480 C   0  0  0  0  0  0  0  0  0  0  0  0
   -2.4230   10.7010   -1.4620 C   0  0  0  0  0  0  0  0  0  0  0  0
   -1.3060    8.9070   -2.7630 C   0  0  0  0  0  0  0  0  0  0  0  0
    1.7220   12.5670   -0.5550 C   0  0  1  0  0  0  0  0  0  0  0  0
    3.0310   11.7700   -0.2700 C   0  0  0  0  0  0  0  0  0  0  0  0
    1.6380   13.6900    0.5460 C   0  0  0  0  0  0  0  0  0  0  0  0
    0.8510   14.9630    0.1810 C   0  0  0  0  0  0  0  0  0  0  0  0
    1.2930   15.5090   -1.1800 C   0  0  2  0  0  0  0  0  0  0  0  0
    2.8030   15.9130   -1.0670 C   0  0  0  0  0  0  0  0  0  0  0  0
    1.3143   20.0877   -1.7932 H   0  0  0  0  0  0  0  0  0  0  0  0
    1.9148   18.7736   -2.8605 H   0  0  0  0  0  0  0  0  0  0  0  0
    0.1709   19.2044   -2.8605 H   0  0  0  0  0  0  0  0  0  0  0  0
   -0.0412   18.4446   -0.5396 H   0  0  0  0  0  0  0  0  0  0  0  0
    1.7795   17.2213    0.6029 H   0  0  0  0  0  0  0  0  0  0  0  0
    2.8940   17.7027   -0.7647 H   0  0  0  0  0  0  0  0  0  0  0  0
    2.2108   20.1245   -0.1465 H   0  0  0  0  0  0  0  0  0  0  0  0
    1.7033   19.3856    1.4294 H   0  0  0  0  0  0  0  0  0  0  0  0
    4.1396   19.5958    0.0322 H   0  0  0  0  0  0  0  0  0  0  0  0
    3.5647   20.0210    4.4447 H   0  0  0  0  0  0  0  0  0  0  0  0
    2.9769   21.2668    3.2919 H   0  0  0  0  0  0  0  0  0  0  0  0
    2.2449   19.6264    3.2919 H   0  0  0  0  0  0  0  0  0  0  0  0
    5.7975   20.2562    3.7293 H   0  0  0  0  0  0  0  0  0  0  0  0
    6.2928   19.4716    2.1911 H   0  0  0  0  0  0  0  0  0  0  0  0
    5.7456   21.1825    2.1911 H   0  0  0  0  0  0  0  0  0  0  0  0
   -0.5546   16.6451   -1.4571 H   0  0  0  0  0  0  0  0  0  0  0  0
   -0.1184   16.8731   -3.8219 H   0  0  0  0  0  0  0  0  0  0  0  0
    1.5476   17.4227   -3.5402 H   0  0  0  0  0  0  0  0  0  0  0  0
    0.7860   14.8142   -4.4260 H   0  0  0  0  0  0  0  0  0  0  0  0
    2.3818   15.2170   -3.7975 H   0  0  0  0  0  0  0  0  0  0  0  0
   -0.9711   13.9471   -1.4131 H   0  0  0  0  0  0  0  0  0  0  0  0
   -1.0528   14.8519   -2.9627 H   0  0  0  0  0  0  0  0  0  0  0  0
   -0.6242   13.1075   -2.9627 H   0  0  0  0  0  0  0  0  0  0  0  0
    2.8845   13.5701   -2.0933 H   0  0  0  0  0  0  0  0  0  0  0  0
    1.5548   12.5467   -4.0494 H   0  0  0  0  0  0  0  0  0  0  0  0
    2.7284   11.5300   -3.0605 H   0  0  0  0  0  0  0  0  0  0  0  0
    0.4392   10.3866   -3.6900 H   0  0  0  0  0  0  0  0  0  0  0  0
   -0.3584   12.3193   -0.2358 H   0  0  0  0  0  0  0  0  0  0  0  0
    1.4370    9.9606    0.6041 H   0  0  0  0  0  0  0  0  0  0  0  0
    0.7288   11.2369    1.6911 H   0  0  0  0  0  0  0  0  0  0  0  0
   -0.5097    9.0993    1.8248 H   0  0  0  0  0  0  0  0  0  0  0  0
   -1.5155   10.4609    1.1920 H   0  0  0  0  0  0  0  0  0  0  0  0
   -1.9659    8.4991   -0.1156 H   0  0  0  0  0  0  0  0  0  0  0  0
    0.4770    8.2040   -1.3130 H   0  0  0  0  0  0  0  0  0  0  0  0
   -2.6815   10.8694   -0.4062 H   0  0  0  0  0  0  0  0  0  0  0  0
   -2.2638   11.6691   -1.9594 H   0  0  0  0  0  0  0  0  0  0  0  0
   -3.2440   10.1639   -1.9594 H   0  0  0  0  0  0  0  0  0  0  0  0
   -1.4985    7.8851   -2.4042 H   0  0  0  0  0  0  0  0  0  0  0  0
   -2.1558    9.2477   -3.3728 H   0  0  0  0  0  0  0  0  0  0  0  0
   -0.3905    8.9151   -3.3728 H   0  0  0  0  0  0  0  0  0  0  0  0
    3.1769   11.6811    0.8166 H   0  0  0  0  0  0  0  0  0  0  0  0
    2.9528   10.7661   -0.7128 H   0  0  0  0  0  0  0  0  0  0  0  0
    3.8870   12.3004   -0.7128 H   0  0  0  0  0  0  0  0  0  0  0  0
    1.1640   13.2493    1.4354 H   0  0  0  0  0  0  0  0  0  0  0  0
    2.6750   14.0254    0.6948 H   0  0  0  0  0  0  0  0  0  0  0  0
   -0.2220   14.7239    0.1416 H   0  0  0  0  0  0  0  0  0  0  0  0
    1.0470   15.7282    0.9465 H   0  0  0  0  0  0  0  0  0  0  0  0
    3.0840   15.9882   -0.0062 H   0  0  0  0  0  0  0  0  0  0  0  0
    3.4245   15.1496   -1.5578 H   0  0  0  0  0  0  0  0  0  0  0  0
    2.9603   16.8848   -1.5578 H   0  0  0  0  0  0  0  0  0  0  0  0
  1  2  1  0
  2  3  1  0
  3  4  1  0
  4  5  1  0
  5  6  1  0
  6  7  1  0
  7  8  1  0
  7  9  1  0
  2 10  1  0
 10 11  1  0
 11 12  1  0
 12 13  1  0
 13 14  1  6
 13 15  1  0
 15 16  1  0
 16 17  1  0
 17 18  2  0
 18 19  1  0
 19 20  1  0
 20 21  1  0
 21 22  1  0
 22 23  1  0
 22 24  1  0
 24 25  1  0
 24 26  1  0
 19 27  1  0
 27 28  1  1
 27 29  1  0
 29 30  1  0
 30 31  1  0
 31 32  1  1
  7  5  1  0
 31 10  1  0
 31 13  1  0
 27 15  1  0
 24 18  1  0
  1 33  1  0
  1 34  1  0
  1 35  1  0
  2 36  1  1
  3 37  1  0
  3 38  1  0
  4 39  1  0
  4 40  1  0
  5 41  1  6
  8 42  1  0
  8 43  1  0
  8 44  1  0
  9 45  1  0
  9 46  1  0
  9 47  1  0
 10 48  1  6
 11 49  1  0
 11 50  1  0
 12 51  1  0
 12 52  1  0
 14 53  1  0
 14 54  1  0
 14 55  1  0
 15 56  1  1
 16 57  1  0
 16 58  1  0
 17 59  1  0
 19 60  1  1
 20 61  1  0
 20 62  1  0
 21 63  1  0
 21 64  1  0
 22 65  1  1
 23 66  1  0
 25 67  1  0
 25 68  1  0
 25 69  1  0
 26 70  1  0
 26 71  1  0
 26 72  1  0
 28 73  1  0
 28 74  1  0
 28 75  1  0
 29 76  1  0
 29 77  1  0
 30 78  1  0
 30 79  1  0
 32 80  1  0
 32 81  1  0
 32 82  1  0
M  END
>  <meeko>  (7) 
{"is_sidechain": [false], "intermolecular_energy": 2.731, "internal_energy": -0.839}

$$$$
EPH_relaxed_0001_pdb2pqr_Repair_188_r2_0001_out
     RDKit          3D

 82 86  0  0  0  0  0  0  0  0999 V2000
    0.7200   10.8470   -4.4200 C   0  0  0  0  0  0  0  0  0  0  0  0
    0.7900   10.3210   -2.9840 C   0  0  2  0  0  0  0  0  0  0  0  0
   -0.4010    9.4030   -2.6430 C   0  0  0  0  0  0  0  0  0  0  0  0
   -0.2820    8.7240   -1.2750 C   0  0  0  0  0  0  0  0  0  0  0  0
   -1.6280    8.4570   -0.6710 C   0  0  2  0  0  0  0  0  0  0  0  0
   -2.7320    8.6350   -1.5670 O   0  0  0  0  0  0  0  0  0  0  0  0
   -2.6730    9.5330   -0.4470 C   0  0  0  0  0  0  0  0  0  0  0  0
   -2.4180   10.9590   -0.8240 C   0  0  0  0  0  0  0  0  0  0  0  0
   -3.7390    9.2930    0.5760 C   0  0  0  0  0  0  0  0  0  0  0  0
    0.8440   11.4890   -2.0050 C   0  0  1  0  0  0  0  0  0  0  0  0
    1.8450   11.2490   -0.8440 C   0  0  0  0  0  0  0  0  0  0  0  0
    2.4690   12.6260   -0.4990 C   0  0  0  0  0  0  0  0  0  0  0  0
    1.5760   13.6530   -1.2340 C   0  0  1  0  0  0  0  0  0  0  0  0
    0.3350   13.8420   -0.3070 C   0  0  0  0  0  0  0  0  0  0  0  0
    2.2460   15.0210   -1.5890 C   0  0  2  0  0  0  0  0  0  0  0  0
    2.7080   15.8540   -0.3810 C   0  0  0  0  0  0  0  0  0  0  0  0
    1.6970   16.8090    0.1600 C   0  0  0  0  0  0  0  0  0  0  0  0
    0.5730   17.1990   -0.4710 C   0  0  0  0  0  0  0  0  0  0  0  0
    0.2760   16.7420   -1.9050 C   0  0  1  0  0  0  0  0  0  0  0  0
   -0.1820   17.9580   -2.7520 C   0  0  0  0  0  0  0  0  0  0  0  0
   -1.3550   18.7020   -2.1210 C   0  0  0  0  0  0  0  0  0  0  0  0
   -1.0010   19.1910   -0.7190 C   0  0  2  0  0  0  0  0  0  0  0  0
    0.0140   20.1940   -0.8240 O   0  0  0  0  0  0  0  0  0  0  0  0
   -0.5160   18.0530    0.2230 C   0  0  0  0  0  0  0  0  0  0  0  0
   -1.7070   17.1280    0.5770 C   0  0  0  0  0  0  0  0  0  0  0  0
   -0.0580   18.7010    1.5570 C   0  0  0  0  0  0  0  0  0  0  0  0
    1.4210   15.8990   -2.6150 C   0  0  1  0  0  0  0  0  0  0  0  0
    2.4410   16.8590   -3.3000 C   0  0  0  0  0  0  0  0  0  0  0  0
    0.7840   15.0340   -3.7660 C   0  0  0  0  0  0  0  0  0  0  0  0
    0.2480   13.6440   -3.3760 C   0  0  0  0  0  0  0  0  0  0  0  0
    1.2870   12.8640   -2.5630 C   0  0  2  0  0  0  0  0  0  0  0  0
    2.5390   12.6390   -3.4780 C   0  0  0  0  0  0  0  0  0  0  0  0
    0.5749   11.9373   -4.4045 H   0  0  0  0  0  0  0  0  0  0  0  0
    1.6577   10.6093   -4.9437 H   0  0  0  0  0  0  0  0  0  0  0  0
   -0.1229   10.3724   -4.9437 H   0  0  0  0  0  0  0  0  0  0  0  0
    1.7065    9.7190   -2.8963 H   0  0  0  0  0  0  0  0  0  0  0  0
   -1.3197   10.0080   -2.6519 H   0  0  0  0  0  0  0  0  0  0  0  0
   -0.4180    8.6038   -3.3986 H   0  0  0  0  0  0  0  0  0  0  0  0
    0.2506    7.7691   -1.3958 H   0  0  0  0  0  0  0  0  0  0  0  0
    0.2682    9.3992   -0.6031 H   0  0  0  0  0  0  0  0  0  0  0  0
   -1.2031    7.6916   -0.0050 H   0  0  0  0  0  0  0  0  0  0  0  0
   -2.3096   11.5654    0.0873 H   0  0  0  0  0  0  0  0  0  0  0  0
   -1.4944   11.0216   -1.4182 H   0  0  0  0  0  0  0  0  0  0  0  0
   -3.2626   11.3378   -1.4182 H   0  0  0  0  0  0  0  0  0  0  0  0
   -3.3086    9.3899    1.5837 H   0  0  0  0  0  0  0  0  0  0  0  0
   -4.5431   10.0326    0.4481 H   0  0  0  0  0  0  0  0  0  0  0  0
   -4.1486    8.2802    0.4481 H   0  0  0  0  0  0  0  0  0  0  0  0
   -0.2136   11.5276   -1.7051 H   0  0  0  0  0  0  0  0  0  0  0  0
    1.3186   10.8416    0.0318 H   0  0  0  0  0  0  0  0  0  0  0  0
    2.6210   10.5256   -1.1349 H   0  0  0  0  0  0  0  0  0  0  0  0
    2.4489   12.8005    0.5869 H   0  0  0  0  0  0  0  0  0  0  0  0
    3.5234   12.6950   -0.8048 H   0  0  0  0  0  0  0  0  0  0  0  0
    0.6525   13.7937    0.7451 H   0  0  0  0  0  0  0  0  0  0  0  0
   -0.1259   14.8207   -0.5063 H   0  0  0  0  0  0  0  0  0  0  0  0
   -0.3964   13.0449   -0.5063 H   0  0  0  0  0  0  0  0  0  0  0  0
    3.1657   14.7070   -2.1043 H   0  0  0  0  0  0  0  0  0  0  0  0
    2.9842   15.1587    0.4254 H   0  0  0  0  0  0  0  0  0  0  0  0
    3.5464   16.4695   -0.7391 H   0  0  0  0  0  0  0  0  0  0  0  0
    1.8858   17.2300    1.1586 H   0  0  0  0  0  0  0  0  0  0  0  0
   -0.5432   16.0119   -1.8281 H   0  0  0  0  0  0  0  0  0  0  0  0
    0.6632   18.6545   -2.8547 H   0  0  0  0  0  0  0  0  0  0  0  0
   -0.5145   17.5779   -3.7292 H   0  0  0  0  0  0  0  0  0  0  0  0
   -1.6124   19.5672   -2.7496 H   0  0  0  0  0  0  0  0  0  0  0  0
   -2.2088   18.0124   -2.0469 H   0  0  0  0  0  0  0  0  0  0  0  0
   -1.9186   19.5993   -0.2703 H   0  0  0  0  0  0  0  0  0  0  0  0
   -0.2580   20.8170   -1.5190 H   0  0  0  0  0  0  0  0  0  0  0  0
   -1.8017   17.0544    1.6704 H   0  0  0  0  0  0  0  0  0  0  0  0
   -2.6334   17.5457    0.1560 H   0  0  0  0  0  0  0  0  0  0  0  0
   -1.5316   16.1270    0.1560 H   0  0  0  0  0  0  0  0  0  0  0  0
   -0.4643   18.1262    2.4023 H   0  0  0  0  0  0  0  0  0  0  0  0
    1.0409   18.6996    1.6070 H   0  0  0  0  0  0  0  0  0  0  0  0
   -0.4260   19.7364    1.6070 H   0  0  0  0  0  0  0  0  0  0  0  0
    3.0126   17.3970   -2.5294 H   0  0  0  0  0  0  0  0  0  0  0  0
    3.1305   16.2746   -3.9269 H   0  0  0  0  0  0  0  0  0  0  0  0
    1.8994   17.5827   -3.9269 H   0  0  0  0  0  0  0  0  0  0  0  0
   -0.0546   15.6075   -4.1878 H   0  0  0  0  0  0  0  0  0  0  0  0
    1.6081   14.8377   -4.4676 H   0  0  0  0  0  0  0  0  0  0  0  0
   -0.6635   13.7661   -2.7724 H   0  0  0  0  0  0  0  0  0  0  0  0
    0.0282   13.0820   -4.2957 H   0  0  0  0  0  0  0  0  0  0  0  0
    3.4280   12.4792   -2.8502 H   0  0  0  0  0  0  0  0  0  0  0  0
    2.3751   11.7559   -4.1131 H   0  0  0  0  0  0  0  0  0  0  0  0
    2.6928   13.5239   -4.1131 H   0  0  0  0  0  0  0  0  0  0  0  0
  1  2  1  0
  2  3  1  0
  3  4  1  0
  4  5  1  0
  5  6  1  0
  6  7  1  0
  7  8  1  0
  7  9  1  0
  2 10  1  0
 10 11  1  0
 11 12  1  0
 12 13  1  0
 13 14  1  1
 13 15  1  0
 15 16  1  0
 16 17  1  0
 17 18  2  0
 18 19  1  0
 19 20  1  0
 20 21  1  0
 21 22  1  0
 22 23  1  0
 22 24  1  0
 24 25  1  0
 24 26  1  0
 19 27  1  0
 27 28  1  6
 27 29  1  0
 29 30  1  0
 30 31  1  0
 31 32  1  6
  7  5  1  0
 31 10  1  0
 31 13  1  0
 27 15  1  0
 24 18  1  0
  1 33  1  0
  1 34  1  0
  1 35  1  0
  2 36  1  6
  3 37  1  0
  3 38  1  0
  4 39  1  0
  4 40  1  0
  5 41  1  1
  8 42  1  0
  8 43  1  0
  8 44  1  0
  9 45  1  0
  9 46  1  0
  9 47  1  0
 10 48  1  1
 11 49  1  0
 11 50  1  0
 12 51  1  0
 12 52  1  0
 14 53  1  0
 14 54  1  0
 14 55  1  0
 15 56  1  6
 16 57  1  0
 16 58  1  0
 17 59  1  0
 19 60  1  1
 20 61  1  0
 20 62  1  0
 21 63  1  0
 21 64  1  0
 22 65  1  1
 23 66  1  0
 25 67  1  0
 25 68  1  0
 25 69  1  0
 26 70  1  0
 26 71  1  0
 26 72  1  0
 28 73  1  0
 28 74  1  0
 28 75  1  0
 29 76  1  0
 29 77  1  0
 30 78  1  0
 30 79  1  0
 32 80  1  0
 32 81  1  0
 32 82  1  0
M  END
>  <meeko>  (8) 
{"is_sidechain": [false], "intermolecular_energy": 2.731, "internal_energy": -0.839}

$$$$
EPH_relaxed_0001_pdb2pqr_Repair_188_r2_0001_out
     RDKit          3D

 82 86  0  0  0  0  0  0  0  0999 V2000
   -0.8650   16.3670   -5.7780 C   0  0  0  0  0  0  0  0  0  0  0  0
    0.1890   15.6560   -6.6300 C   0  0  2  0  0  0  0  0  0  0  0  0
   -0.2560   15.5050   -8.0980 C   0  0  0  0  0  0  0  0  0  0  0  0
    0.3940   16.5170   -9.0460 C   0  0  0  0  0  0  0  0  0  0  0  0
    1.8010   16.1310   -9.3890 C   0  0  2  0  0  0  0  0  0  0  0  0
    2.3020   16.7100  -10.6010 O   0  0  0  0  0  0  0  0  0  0  0  0
    2.1660   15.2790  -10.5900 C   0  0  0  0  0  0  0  0  0  0  0  0
    1.1190   14.7600  -11.5250 C   0  0  0  0  0  0  0  0  0  0  0  0
    3.4730   14.5500  -10.5790 C   0  0  0  0  0  0  0  0  0  0  0  0
    0.5000   14.2870   -6.0360 C   0  0  1  0  0  0  0  0  0  0  0  0
    1.7350   13.6160   -6.6950 C   0  0  0  0  0  0  0  0  0  0  0  0
    2.4600   12.8200   -5.5800 C   0  0  0  0  0  0  0  0  0  0  0  0
    1.4500   12.7830   -4.4080 C   0  0  1  0  0  0  0  0  0  0  0  0
    0.4630   11.6280   -4.7660 C   0  0  0  0  0  0  0  0  0  0  0  0
    2.0570   12.6010   -2.9790 C   0  0  2  0  0  0  0  0  0  0  0  0
    2.8090   11.2780   -2.7520 C   0  0  0  0  0  0  0  0  0  0  0  0
    1.9770   10.1520   -2.2360 C   0  0  0  0  0  0  0  0  0  0  0  0
    0.7490   10.2690   -1.6970 C   0  0  0  0  0  0  0  0  0  0  0  0
    0.1160   11.6490   -1.4740 C   0  0  1  0  0  0  0  0  0  0  0  0
   -0.4910   11.7150   -0.0470 C   0  0  0  0  0  0  0  0  0  0  0  0
   -1.4660   10.5740    0.2270 C   0  0  0  0  0  0  0  0  0  0  0  0
   -0.7840    9.2200    0.0510 C   0  0  2  0  0  0  0  0  0  0  0  0
    0.2070    9.0670    1.0720 O   0  0  0  0  0  0  0  0  0  0  0  0
   -0.1270    9.0420   -1.3460 C   0  0  0  0  0  0  0  0  0  0  0  0
   -1.2290    8.9060   -2.4260 C   0  0  0  0  0  0  0  0  0  0  0  0
    0.6450    7.6950   -1.3420 C   0  0  0  0  0  0  0  0  0  0  0  0
    1.0420   12.8980   -1.8010 C   0  0  1  0  0  0  0  0  0  0  0  0
    1.9030   13.2650   -0.5540 C   0  0  0  0  0  0  0  0  0  0  0  0
    0.1330   14.1490   -2.0970 C   0  0  0  0  0  0  0  0  0  0  0  0
   -0.3360   14.3390   -3.5520 C   0  0  0  0  0  0  0  0  0  0  0  0
    0.8400   14.2270   -4.5260 C   0  0  2  0  0  0  0  0  0  0  0  0
    1.8400   15.3890   -4.2050 C   0  0  0  0  0  0  0  0  0  0  0  0
   -0.6389   16.2145   -4.7124 H   0  0  0  0  0  0  0  0  0  0  0  0
   -0.8546   17.4433   -6.0046 H   0  0  0  0  0  0  0  0  0  0  0  0
   -1.8591   15.9542   -6.0046 H   0  0  0  0  0  0  0  0  0  0  0  0
    1.0955   16.2790   -6.6229 H   0  0  0  0  0  0  0  0  0  0  0  0
    0.0067   14.4924   -8.4380 H   0  0  0  0  0  0  0  0  0  0  0  0
   -1.3401   15.6893   -8.1256 H   0  0  0  0  0  0  0  0  0  0  0  0
   -0.1973   16.5687   -9.9721 H   0  0  0  0  0  0  0  0  0  0  0  0
    0.4200   17.4933   -8.5399 H   0  0  0  0  0  0  0  0  0  0  0  0
    2.0648   16.0555   -8.3238 H   0  0  0  0  0  0  0  0  0  0  0  0
    0.2820   14.3451  -10.9443 H   0  0  0  0  0  0  0  0  0  0  0  0
    0.7538   15.5814  -12.1590 H   0  0  0  0  0  0  0  0  0  0  0  0
    1.5516   13.9720  -12.1590 H   0  0  0  0  0  0  0  0  0  0  0  0
    3.7866   14.3751   -9.5392 H   0  0  0  0  0  0  0  0  0  0  0  0
    3.3590   13.5852  -11.0948 H   0  0  0  0  0  0  0  0  0  0  0  0
    4.2340   15.1539  -11.0948 H   0  0  0  0  0  0  0  0  0  0  0  0
   -0.4587   13.7822   -6.2259 H   0  0  0  0  0  0  0  0  0  0  0  0
    1.4133   12.9361   -7.4977 H   0  0  0  0  0  0  0  0  0  0  0  0
    2.4023   14.3684   -7.1406 H   0  0  0  0  0  0  0  0  0  0  0  0
    2.6967   11.8014   -5.9211 H   0  0  0  0  0  0  0  0  0  0  0  0
    3.4164   13.2811   -5.2924 H   0  0  0  0  0  0  0  0  0  0  0  0
    0.0766   11.1759   -3.8407 H   0  0  0  0  0  0  0  0  0  0  0  0
   -0.3744   12.0306   -5.3548 H   0  0  0  0  0  0  0  0  0  0  0  0
    0.9912   10.8636   -5.3548 H   0  0  0  0  0  0  0  0  0  0  0  0
    2.8237   13.3891   -2.9471 H   0  0  0  0  0  0  0  0  0  0  0  0
    3.2452   10.9659   -3.7124 H   0  0  0  0  0  0  0  0  0  0  0  0
    3.5585   11.4839   -1.9737 H   0  0  0  0  0  0  0  0  0  0  0  0
    2.4034    9.1401   -2.3016 H   0  0  0  0  0  0  0  0  0  0  0  0
   -0.6824   11.7424   -2.2249 H   0  0  0  0  0  0  0  0  0  0  0  0
    0.3268   11.6639    0.6868 H   0  0  0  0  0  0  0  0  0  0  0  0
   -1.0499   12.6589    0.0349 H   0  0  0  0  0  0  0  0  0  0  0  0
   -1.8381   10.6583    1.2587 H   0  0  0  0  0  0  0  0  0  0  0  0
   -2.2983   10.6437   -0.4888 H   0  0  0  0  0  0  0  0  0  0  0  0
   -1.5613    8.4459    0.1326 H   0  0  0  0  0  0  0  0  0  0  0  0
    0.2750    8.1190    1.2760 H   0  0  0  0  0  0  0  0  0  0  0  0
   -2.2075    8.7852   -1.9382 H   0  0  0  0  0  0  0  0  0  0  0  0
   -1.2410    9.8095   -3.0534 H   0  0  0  0  0  0  0  0  0  0  0  0
   -1.0210    8.0267   -3.0534 H   0  0  0  0  0  0  0  0  0  0  0  0
    0.8260    7.3792   -0.3040 H   0  0  0  0  0  0  0  0  0  0  0  0
    0.0488    6.9291   -1.8596 H   0  0  0  0  0  0  0  0  0  0  0  0
    1.6072    7.8223   -1.8596 H   0  0  0  0  0  0  0  0  0  0  0  0
    1.3425   13.0261    0.3618 H   0  0  0  0  0  0  0  0  0  0  0  0
    2.8392   12.6877   -0.5720 H   0  0  0  0  0  0  0  0  0  0  0  0
    2.1348   14.3401   -0.5720 H   0  0  0  0  0  0  0  0  0  0  0  0
   -0.7645   14.0647   -1.4665 H   0  0  0  0  0  0  0  0  0  0  0  0
    0.7669   15.0221   -1.8829 H   0  0  0  0  0  0  0  0  0  0  0  0
   -1.0790   13.5650   -3.7945 H   0  0  0  0  0  0  0  0  0  0  0  0
   -0.7782   15.3414   -3.6499 H   0  0  0  0  0  0  0  0  0  0  0  0
    1.9355   15.4999   -3.1148 H   0  0  0  0  0  0  0  0  0  0  0  0
    2.8242   15.1557   -4.6374 H   0  0  0  0  0  0  0  0  0  0  0  0
    1.4627   16.3274   -4.6374 H   0  0  0  0  0  0  0  0  0  0  0  0
  1  2  1  0
  2  3  1  0
  3  4  1  0
  4  5  1  0
  5  6  1  0
  6  7  1  0
  7  8  1  0
  7  9  1  0
  2 10  1  0
 10 11  1  0
 11 12  1  0
 12 13  1  0
 13 14  1  6
 13 15  1  0
 15 16  1  0
 16 17  1  0
 17 18  2  0
 18 19  1  0
 19 20  1  0
 20 21  1  0
 21 22  1  0
 22 23  1  0
 22 24  1  0
 24 25  1  0
 24 26  1  0
 19 27  1  0
 27 28  1  1
 27 29  1  0
 29 30  1  0
 30 31  1  0
 31 32  1  1
  7  5  1  0
 31 10  1  0
 31 13  1  0
 27 15  1  0
 24 18  1  0
  1 33  1  0
  1 34  1  0
  1 35  1  0
  2 36  1  6
  3 37  1  0
  3 38  1  0
  4 39  1  0
  4 40  1  0
  5 41  1  1
  8 42  1  0
  8 43  1  0
  8 44  1  0
  9 45  1  0
  9 46  1  0
  9 47  1  0
 10 48  1  1
 11 49  1  0
 11 50  1  0
 12 51  1  0
 12 52  1  0
 14 53  1  0
 14 54  1  0
 14 55  1  0
 15 56  1  1
 16 57  1  0
 16 58  1  0
 17 59  1  0
 19 60  1  6
 20 61  1  0
 20 62  1  0
 21 63  1  0
 21 64  1  0
 22 65  1  1
 23 66  1  0
 25 67  1  0
 25 68  1  0
 25 69  1  0
 26 70  1  0
 26 71  1  0
 26 72  1  0
 28 73  1  0
 28 74  1  0
 28 75  1  0
 29 76  1  0
 29 77  1  0
 30 78  1  0
 30 79  1  0
 32 80  1  0
 32 81  1  0
 32 82  1  0
M  END
>  <meeko>  (9) 
{"is_sidechain": [false], "intermolecular_energy": 2.731, "internal_energy": -0.839}

$$$$
EPH_relaxed_0001_pdb2pqr_Repair_188_r2_0001_out
     RDKit          3D

 82 86  0  0  0  0  0  0  0  0999 V2000
   -0.2810   15.0910   -7.6090 C   0  0  0  0  0  0  0  0  0  0  0  0
    1.0910   15.0670   -6.9300 C   0  0  2  0  0  0  0  0  0  0  0  0
    2.2450   15.1520   -7.9490 C   0  0  0  0  0  0  0  0  0  0  0  0
    2.2900   16.4740   -8.7200 C   0  0  0  0  0  0  0  0  0  0  0  0
    1.8850   16.2940  -10.1520 C   0  0  2  0  0  0  0  0  0  0  0  0
    1.1970   15.0680  -10.4300 O   0  0  0  0  0  0  0  0  0  0  0  0
    2.4770   15.2340  -11.0620 C   0  0  0  0  0  0  0  0  0  0  0  0
    3.5250   14.2830  -10.5730 C   0  0  0  0  0  0  0  0  0  0  0  0
    2.3980   15.4360  -12.5430 C   0  0  0  0  0  0  0  0  0  0  0  0
    1.2320   13.8050   -6.0870 C   0  0  1  0  0  0  0  0  0  0  0  0
    2.6700   13.2240   -6.1170 C   0  0  0  0  0  0  0  0  0  0  0  0
    2.9400   12.6250   -4.7130 C   0  0  0  0  0  0  0  0  0  0  0  0
    1.5510   12.5810   -4.0340 C   0  0  1  0  0  0  0  0  0  0  0  0
    0.8720   11.2910   -4.5930 C   0  0  0  0  0  0  0  0  0  0  0  0
    1.5440   12.6060   -2.4710 C   0  0  2  0  0  0  0  0  0  0  0  0
    2.2320   11.4060   -1.7960 C   0  0  0  0  0  0  0  0  0  0  0  0
    1.3430   10.2430   -1.5020 C   0  0  0  0  0  0  0  0  0  0  0  0
   -0.0030   10.2680   -1.5050 C   0  0  0  0  0  0  0  0  0  0  0  0
   -0.7670   11.5790   -1.7300 C   0  0  1  0  0  0  0  0  0  0  0  0
   -1.8980   11.7080   -0.6770 C   0  0  0  0  0  0  0  0  0  0  0  0
   -2.8190   10.4920   -0.6560 C   0  0  0  0  0  0  0  0  0  0  0  0
   -2.0320    9.2160   -0.3710 C   0  0  2  0  0  0  0  0  0  0  0  0
   -1.5260    9.2750    0.9660 O   0  0  0  0  0  0  0  0  0  0  0  0
   -0.8590    8.9850   -1.3640 C   0  0  0  0  0  0  0  0  0  0  0  0
   -1.4230    8.6210   -2.7600 C   0  0  0  0  0  0  0  0  0  0  0  0
   -0.0620    7.7430   -0.8810 C   0  0  0  0  0  0  0  0  0  0  0  0
    0.1240   12.8910   -1.8330 C   0  0  1  0  0  0  0  0  0  0  0  0
    0.3840   13.4700   -0.4090 C   0  0  0  0  0  0  0  0  0  0  0  0
   -0.6750   13.9950   -2.6220 C   0  0  0  0  0  0  0  0  0  0  0  0
   -0.5330   13.9920   -4.1560 C   0  0  0  0  0  0  0  0  0  0  0  0
    0.9400   13.9270   -4.5700 C   0  0  2  0  0  0  0  0  0  0  0  0
    1.6440   15.2230   -4.0410 C   0  0  0  0  0  0  0  0  0  0  0  0
   -1.0695   15.1048   -6.8421 H   0  0  0  0  0  0  0  0  0  0  0  0
   -0.3639   15.9907   -8.2364 H   0  0  0  0  0  0  0  0  0  0  0  0
   -0.3954   14.1947   -8.2364 H   0  0  0  0  0  0  0  0  0  0  0  0
    1.1557   15.9547   -6.2836 H   0  0  0  0  0  0  0  0  0  0  0  0
    3.1953   15.0331   -7.4080 H   0  0  0  0  0  0  0  0  0  0  0  0
    2.0800   14.3544   -8.6884 H   0  0  0  0  0  0  0  0  0  0  0  0
    1.6037   17.1889   -8.2425 H   0  0  0  0  0  0  0  0  0  0  0  0
    3.3244   16.8477   -8.7003 H   0  0  0  0  0  0  0  0  0  0  0  0
    1.7487   17.3787  -10.2742 H   0  0  0  0  0  0  0  0  0  0  0  0
    3.5308   14.2777   -9.4730 H   0  0  0  0  0  0  0  0  0  0  0  0
    3.3035   13.2712  -10.9434 H   0  0  0  0  0  0  0  0  0  0  0  0
    4.5106   14.6014  -10.9434 H   0  0  0  0  0  0  0  0  0  0  0  0
    2.0049   16.4411  -12.7555 H   0  0  0  0  0  0  0  0  0  0  0  0
    3.4020   15.3348  -12.9809 H   0  0  0  0  0  0  0  0  0  0  0  0
    1.7291   14.6805  -12.9809 H   0  0  0  0  0  0  0  0  0  0  0  0
    0.4683   13.1759   -6.5676 H   0  0  0  0  0  0  0  0  0  0  0  0
    2.7456   12.4395   -6.8844 H   0  0  0  0  0  0  0  0  0  0  0  0
    3.4060   14.0040   -6.3617 H   0  0  0  0  0  0  0  0  0  0  0  0
    3.3633   11.6132   -4.7973 H   0  0  0  0  0  0  0  0  0  0  0  0
    3.6665   13.2187   -4.1388 H   0  0  0  0  0  0  0  0  0  0  0  0
    0.5396   10.6595   -3.7559 H   0  0  0  0  0  0  0  0  0  0  0  0
    0.0042   11.5707   -5.2085 H   0  0  0  0  0  0  0  0  0  0  0  0
    1.5938   10.7340   -5.2085 H   0  0  0  0  0  0  0  0  0  0  0  0
    2.1756   13.4782   -2.2469 H   0  0  0  0  0  0  0  0  0  0  0  0
    3.0375   11.0587   -2.4597 H   0  0  0  0  0  0  0  0  0  0  0  0
    2.5897   11.7693   -0.8213 H   0  0  0  0  0  0  0  0  0  0  0  0
    1.8286    9.2854   -1.2629 H   0  0  0  0  0  0  0  0  0  0  0  0
   -1.2030   11.5074   -2.7374 H   0  0  0  0  0  0  0  0  0  0  0  0
   -1.4424   11.8225    0.3176 H   0  0  0  0  0  0  0  0  0  0  0  0
   -2.5069   12.5835   -0.9465 H   0  0  0  0  0  0  0  0  0  0  0  0
   -3.5784   10.6292    0.1279 H   0  0  0  0  0  0  0  0  0  0  0  0
   -3.2968   10.3967   -1.6422 H   0  0  0  0  0  0  0  0  0  0  0  0
   -2.7215    8.3683   -0.4975 H   0  0  0  0  0  0  0  0  0  0  0  0
   -0.9210   10.0340    1.0180 H   0  0  0  0  0  0  0  0  0  0  0  0
   -2.3418    8.0280   -2.6410 H   0  0  0  0  0  0  0  0  0  0  0  0
   -1.6509    9.5429   -3.3152 H   0  0  0  0  0  0  0  0  0  0  0  0
   -0.6768    8.0336   -3.3152 H   0  0  0  0  0  0  0  0  0  0  0  0
   -0.0480    7.7212    0.2187 H   0  0  0  0  0  0  0  0  0  0  0  0
   -0.5426    6.8289   -1.2598 H   0  0  0  0  0  0  0  0  0  0  0  0
    0.9692    7.7990   -1.2598 H   0  0  0  0  0  0  0  0  0  0  0  0
    0.0571   12.7420    0.3481 H   0  0  0  0  0  0  0  0  0  0  0  0
    1.4585   13.6703   -0.2852 H   0  0  0  0  0  0  0  0  0  0  0  0
   -0.1802   14.4062   -0.2852 H   0  0  0  0  0  0  0  0  0  0  0  0
   -1.7417   13.8662   -2.3863 H   0  0  0  0  0  0  0  0  0  0  0  0
   -0.2430   14.9522   -2.2947 H   0  0  0  0  0  0  0  0  0  0  0  0
   -1.0605   13.1174   -4.5645 H   0  0  0  0  0  0  0  0  0  0  0  0
   -0.9674   14.9225   -4.5503 H   0  0  0  0  0  0  0  0  0  0  0  0
    1.6416   15.2186   -2.9410 H   0  0  0  0  0  0  0  0  0  0  0  0
    2.6815   15.2514   -4.4053 H   0  0  0  0  0  0  0  0  0  0  0  0
    1.1031   16.1088   -4.4053 H   0  0  0  0  0  0  0  0  0  0  0  0
  1  2  1  0
  2  3  1  0
  3  4  1  0
  4  5  1  0
  5  6  1  0
  6  7  1  0
  7  8  1  0
  7  9  1  0
  2 10  1  0
 10 11  1  0
 11 12  1  0
 12 13  1  0
 13 14  1  1
 13 15  1  0
 15 16  1  0
 16 17  1  0
 17 18  2  0
 18 19  1  0
 19 20  1  0
 20 21  1  0
 21 22  1  0
 22 23  1  0
 22 24  1  0
 24 25  1  0
 24 26  1  0
 19 27  1  0
 27 28  1  1
 27 29  1  0
 29 30  1  0
 30 31  1  0
 31 32  1  1
  7  5  1  0
 31 10  1  0
 31 13  1  0
 27 15  1  0
 24 18  1  0
  1 33  1  0
  1 34  1  0
  1 35  1  0
  2 36  1  1
  3 37  1  0
  3 38  1  0
  4 39  1  0
  4 40  1  0
  5 41  1  6
  8 42  1  0
  8 43  1  0
  8 44  1  0
  9 45  1  0
  9 46  1  0
  9 47  1  0
 10 48  1  6
 11 49  1  0
 11 50  1  0
 12 51  1  0
 12 52  1  0
 14 53  1  0
 14 54  1  0
 14 55  1  0
 15 56  1  6
 16 57  1  0
 16 58  1  0
 17 59  1  0
 19 60  1  6
 20 61  1  0
 20 62  1  0
 21 63  1  0
 21 64  1  0
 22 65  1  1
 23 66  1  0
 25 67  1  0
 25 68  1  0
 25 69  1  0
 26 70  1  0
 26 71  1  0
 26 72  1  0
 28 73  1  0
 28 74  1  0
 28 75  1  0
 29 76  1  0
 29 77  1  0
 30 78  1  0
 30 79  1  0
 32 80  1  0
 32 81  1  0
 32 82  1  0
M  END
>  <meeko>  (10) 
{"is_sidechain": [false], "intermolecular_energy": 2.731, "internal_energy": -0.839}

$$$$
EPH_relaxed_0001_pdb2pqr_Repair_188_r2_0001_out
     RDKit          3D

 82 86  0  0  0  0  0  0  0  0999 V2000
   -1.9890    7.8880   -1.9120 C   0  0  0  0  0  0  0  0  0  0  0  0
   -2.0450    8.5840   -0.5490 C   0  0  2  0  0  0  0  0  0  0  0  0
   -3.4730    8.6120    0.0310 C   0  0  0  0  0  0  0  0  0  0  0  0
   -4.5710    8.6040   -1.0360 C   0  0  0  0  0  0  0  0  0  0  0  0
   -5.3500    7.3230   -1.0200 C   0  0  2  0  0  0  0  0  0  0  0  0
   -5.5120    6.7050   -2.3030 O   0  0  0  0  0  0  0  0  0  0  0  0
   -6.7140    7.1660   -1.6650 C   0  0  0  0  0  0  0  0  0  0  0  0
   -7.3790    8.3060   -2.3720 C   0  0  0  0  0  0  0  0  0  0  0  0
   -7.6070    6.0620   -1.1920 C   0  0  0  0  0  0  0  0  0  0  0  0
   -1.5040   10.0040   -0.6690 C   0  0  1  0  0  0  0  0  0  0  0  0
   -0.9670   10.5540    0.6800 C   0  0  0  0  0  0  0  0  0  0  0  0
    0.2490   11.4560    0.3430 C   0  0  0  0  0  0  0  0  0  0  0  0
    0.1690   11.6620   -1.1880 C   0  0  1  0  0  0  0  0  0  0  0  0
   -0.8860   12.7950   -1.3860 C   0  0  0  0  0  0  0  0  0  0  0  0
    1.5150   11.9930   -1.9110 C   0  0  2  0  0  0  0  0  0  0  0  0
    2.1810   13.3110   -1.4780 C   0  0  0  0  0  0  0  0  0  0  0  0
    1.7860   14.5150   -2.2660 C   0  0  0  0  0  0  0  0  0  0  0  0
    1.1540   14.4990   -3.4550 C   0  0  0  0  0  0  0  0  0  0  0  0
    0.8600   13.1760   -4.1730 C   0  0  1  0  0  0  0  0  0  0  0  0
    1.2600   13.2970   -5.6670 C   0  0  0  0  0  0  0  0  0  0  0  0
    0.6030   14.4910   -6.3530 C   0  0  0  0  0  0  0  0  0  0  0  0
    0.9650   15.7940   -5.6450 C   0  0  2  0  0  0  0  0  0  0  0  0
    2.3650   16.0380   -5.8160 O   0  0  0  0  0  0  0  0  0  0  0  0
    0.6180   15.7860   -4.1300 C   0  0  0  0  0  0  0  0  0  0  0  0
   -0.9190   15.8250   -3.9480 C   0  0  0  0  0  0  0  0  0  0  0  0
    1.1630   17.1000   -3.5080 C   0  0  0  0  0  0  0  0  0  0  0  0
    1.4510   11.8690   -3.4880 C   0  0  1  0  0  0  0  0  0  0  0  0
    2.9130   11.6280   -3.9750 C   0  0  0  0  0  0  0  0  0  0  0  0
    0.6150   10.6200   -3.9560 C   0  0  0  0  0  0  0  0  0  0  0  0
   -0.6370   10.2720   -3.1290 C   0  0  0  0  0  0  0  0  0  0  0  0
   -0.3130   10.2330   -1.6330 C   0  0  2  0  0  0  0  0  0  0  0  0
    0.7300    9.0870   -1.3990 C   0  0  0  0  0  0  0  0  0  0  0  0
   -1.9016    6.8013   -1.7655 H   0  0  0  0  0  0  0  0  0  0  0  0
   -2.9079    8.1094   -2.4748 H   0  0  0  0  0  0  0  0  0  0  0  0
   -1.1174    8.2534   -2.4748 H   0  0  0  0  0  0  0  0  0  0  0  0
   -1.4187    8.0040    0.1448 H   0  0  0  0  0  0  0  0  0  0  0  0
   -3.6050    7.7277    0.6717 H   0  0  0  0  0  0  0  0  0  0  0  0
   -3.5746    9.5541    0.5897 H   0  0  0  0  0  0  0  0  0  0  0  0
   -5.2583    9.4417   -0.8466 H   0  0  0  0  0  0  0  0  0  0  0  0
   -4.0924    8.7022   -2.0215 H   0  0  0  0  0  0  0  0  0  0  0  0
   -4.9775    7.0813   -0.0136 H   0  0  0  0  0  0  0  0  0  0  0  0
   -7.7886    9.0082   -1.6310 H   0  0  0  0  0  0  0  0  0  0  0  0
   -6.6427    8.8262   -3.0022 H   0  0  0  0  0  0  0  0  0  0  0  0
   -8.1943    7.9211   -3.0022 H   0  0  0  0  0  0  0  0  0  0  0  0
   -7.6196    6.0464   -0.0922 H   0  0  0  0  0  0  0  0  0  0  0  0
   -8.6271    6.2290   -1.5681 H   0  0  0  0  0  0  0  0  0  0  0  0
   -7.2305    5.0993   -1.5681 H   0  0  0  0  0  0  0  0  0  0  0  0
   -2.4012   10.5113   -1.0532 H   0  0  0  0  0  0  0  0  0  0  0  0
   -1.7464   11.1424    1.1864 H   0  0  0  0  0  0  0  0  0  0  0  0
   -0.6761    9.7341    1.3532 H   0  0  0  0  0  0  0  0  0  0  0  0
    0.1756   12.4194    0.8689 H   0  0  0  0  0  0  0  0  0  0  0  0
    1.2026   11.0044    0.6541 H   0  0  0  0  0  0  0  0  0  0  0  0
   -1.2235   13.1575   -0.4038 H   0  0  0  0  0  0  0  0  0  0  0  0
   -0.4317   13.6251   -1.9469 H   0  0  0  0  0  0  0  0  0  0  0  0
   -1.7463   12.4010   -1.9469 H   0  0  0  0  0  0  0  0  0  0  0  0
    2.1782   11.1914   -1.5540 H   0  0  0  0  0  0  0  0  0  0  0  0
    1.9201   13.4935   -0.4251 H   0  0  0  0  0  0  0  0  0  0  0  0
    3.2594   13.1768   -1.6484 H   0  0  0  0  0  0  0  0  0  0  0  0
    2.0318   15.4988   -1.8396 H   0  0  0  0  0  0  0  0  0  0  0  0
   -0.2255   13.0195   -4.0885 H   0  0  0  0  0  0  0  0  0  0  0  0
    2.3523   13.4101   -5.7317 H   0  0  0  0  0  0  0  0  0  0  0  0
    0.9166   12.3864   -6.1797 H   0  0  0  0  0  0  0  0  0  0  0  0
    0.9471   14.5407   -7.3966 H   0  0  0  0  0  0  0  0  0  0  0  0
   -0.4887   14.3616   -6.3137 H   0  0  0  0  0  0  0  0  0  0  0  0
    0.3631   16.5943   -6.1002 H   0  0  0  0  0  0  0  0  0  0  0  0
    2.7910   15.1850   -6.0060 H   0  0  0  0  0  0  0  0  0  0  0  0
   -1.1611   15.8311   -2.8750 H   0  0  0  0  0  0  0  0  0  0  0  0
   -1.3212   16.7336   -4.4198 H   0  0  0  0  0  0  0  0  0  0  0  0
   -1.3667   14.9379   -4.4198 H   0  0  0  0  0  0  0  0  0  0  0  0
    1.1325   17.0265   -2.4109 H   0  0  0  0  0  0  0  0  0  0  0  0
    2.2009   17.2581   -3.8362 H   0  0  0  0  0  0  0  0  0  0  0  0
    0.5417   17.9463   -3.8362 H   0  0  0  0  0  0  0  0  0  0  0  0
    3.5762   11.5187   -3.1042 H   0  0  0  0  0  0  0  0  0  0  0  0
    2.9509   10.7115   -4.5821 H   0  0  0  0  0  0  0  0  0  0  0  0
    3.2430   12.4839   -4.5821 H   0  0  0  0  0  0  0  0  0  0  0  0
    0.2894   10.8061   -4.9901 H   0  0  0  0  0  0  0  0  0  0  0  0
    1.2895    9.7599   -3.8324 H   0  0  0  0  0  0  0  0  0  0  0  0
   -1.4105   11.0329   -3.3098 H   0  0  0  0  0  0  0  0  0  0  0  0
   -0.9948    9.2782   -3.4361 H   0  0  0  0  0  0  0  0  0  0  0  0
    0.8698    8.9334   -0.3188 H   0  0  0  0  0  0  0  0  0  0  0  0
    0.3619    8.1571   -1.8570 H   0  0  0  0  0  0  0  0  0  0  0  0
    1.6904    9.3661   -1.8570 H   0  0  0  0  0  0  0  0  0  0  0  0
  1  2  1  0
  2  3  1  0
  3  4  1  0
  4  5  1  0
  5  6  1  0
  6  7  1  0
  7  8  1  0
  7  9  1  0
  2 10  1  0
 10 11  1  0
 11 12  1  0
 12 13  1  0
 13 14  1  1
 13 15  1  0
 15 16  1  0
 16 17  1  0
 17 18  2  0
 18 19  1  0
 19 20  1  0
 20 21  1  0
 21 22  1  0
 22 23  1  0
 22 24  1  0
 24 25  1  0
 24 26  1  0
 19 27  1  0
 27 28  1  6
 27 29  1  0
 29 30  1  0
 30 31  1  0
 31 32  1  6
  7  5  1  0
 31 10  1  0
 31 13  1  0
 27 15  1  0
 24 18  1  0
  1 33  1  0
  1 34  1  0
  1 35  1  0
  2 36  1  1
  3 37  1  0
  3 38  1  0
  4 39  1  0
  4 40  1  0
  5 41  1  1
  8 42  1  0
  8 43  1  0
  8 44  1  0
  9 45  1  0
  9 46  1  0
  9 47  1  0
 10 48  1  6
 11 49  1  0
 11 50  1  0
 12 51  1  0
 12 52  1  0
 14 53  1  0
 14 54  1  0
 14 55  1  0
 15 56  1  1
 16 57  1  0
 16 58  1  0
 17 59  1  0
 19 60  1  6
 20 61  1  0
 20 62  1  0
 21 63  1  0
 21 64  1  0
 22 65  1  6
 23 66  1  0
 25 67  1  0
 25 68  1  0
 25 69  1  0
 26 70  1  0
 26 71  1  0
 26 72  1  0
 28 73  1  0
 28 74  1  0
 28 75  1  0
 29 76  1  0
 29 77  1  0
 30 78  1  0
 30 79  1  0
 32 80  1  0
 32 81  1  0
 32 82  1  0
M  END
>  <meeko>  (11) 
{"is_sidechain": [false], "intermolecular_energy": 2.731, "internal_energy": -0.839}

$$$$
EPH_relaxed_0001_pdb2pqr_Repair_188_r2_0001_out
     RDKit          3D

 82 86  0  0  0  0  0  0  0  0999 V2000
    2.6320   18.9420   -1.3250 C   0  0  0  0  0  0  0  0  0  0  0  0
    2.2650   17.8940   -2.3790 C   0  0  2  0  0  0  0  0  0  0  0  0
    0.8010   18.0250   -2.8430 C   0  0  0  0  0  0  0  0  0  0  0  0
    0.1200   19.3140   -2.3750 C   0  0  0  0  0  0  0  0  0  0  0  0
   -1.1270   19.0310   -1.5940 C   0  0  2  0  0  0  0  0  0  0  0  0
   -1.8720   20.1950   -1.2130 O   0  0  0  0  0  0  0  0  0  0  0  0
   -1.3100   19.4220   -0.1390 C   0  0  0  0  0  0  0  0  0  0  0  0
   -0.2310   20.1300    0.6200 C   0  0  0  0  0  0  0  0  0  0  0  0
   -2.3300   18.6910    0.6760 C   0  0  0  0  0  0  0  0  0  0  0  0
    2.5150   16.4940   -1.8300 C   0  0  1  0  0  0  0  0  0  0  0  0
    3.4170   16.5000   -0.5670 C   0  0  0  0  0  0  0  0  0  0  0  0
    2.9120   15.3560    0.3490 C   0  0  0  0  0  0  0  0  0  0  0  0
    1.9650   14.5260   -0.5500 C   0  0  1  0  0  0  0  0  0  0  0  0
    2.9100   13.6080   -1.3870 C   0  0  0  0  0  0  0  0  0  0  0  0
    0.8610   13.7000    0.1870 C   0  0  2  0  0  0  0  0  0  0  0  0
    1.3870   12.6090    1.1360 C   0  0  0  0  0  0  0  0  0  0  0  0
    1.5840   11.2650    0.5170 C   0  0  0  0  0  0  0  0  0  0  0  0
    1.0840   10.8700   -0.6690 C   0  0  0  0  0  0  0  0  0  0  0  0
    0.1500   11.7820   -1.4740 C   0  0  1  0  0  0  0  0  0  0  0  0
   -1.0720   10.9650   -1.9700 C   0  0  0  0  0  0  0  0  0  0  0  0
   -0.6630    9.7170   -2.7470 C   0  0  0  0  0  0  0  0  0  0  0  0
    0.2170    8.8070   -1.8940 C   0  0  2  0  0  0  0  0  0  0  0  0
   -0.5660    8.2880   -0.8150 O   0  0  0  0  0  0  0  0  0  0  0  0
    1.4750    9.5250   -1.3300 C   0  0  0  0  0  0  0  0  0  0  0  0
    2.4670    9.8190   -2.4820 C   0  0  0  0  0  0  0  0  0  0  0  0
    2.1990    8.5380   -0.3750 C   0  0  0  0  0  0  0  0  0  0  0  0
   -0.2730   13.1400   -0.7640 C   0  0  1  0  0  0  0  0  0  0  0  0
   -1.5280   12.9050    0.1300 C   0  0  0  0  0  0  0  0  0  0  0  0
   -0.7000   14.1830   -1.8640 C   0  0  0  0  0  0  0  0  0  0  0  0
    0.4190   15.0530   -2.4680 C   0  0  0  0  0  0  0  0  0  0  0  0
    1.2800   15.6810   -1.3680 C   0  0  2  0  0  0  0  0  0  0  0  0
    0.3620   16.6270   -0.5220 C   0  0  0  0  0  0  0  0  0  0  0  0
    2.4839   18.5191   -0.3204 H   0  0  0  0  0  0  0  0  0  0  0  0
    3.6856   19.2331   -1.4487 H   0  0  0  0  0  0  0  0  0  0  0  0
    1.9902   19.8268   -1.4487 H   0  0  0  0  0  0  0  0  0  0  0  0
    2.9057   18.0686   -3.2560 H   0  0  0  0  0  0  0  0  0  0  0  0
    0.7818   18.0016   -3.9426 H   0  0  0  0  0  0  0  0  0  0  0  0
    0.2458   17.1874   -2.3956 H   0  0  0  0  0  0  0  0  0  0  0  0
    0.8194   19.8756   -1.7383 H   0  0  0  0  0  0  0  0  0  0  0  0
   -0.1584   19.8970   -3.2653 H   0  0  0  0  0  0  0  0  0  0  0  0
   -1.2722   18.0792   -2.1259 H   0  0  0  0  0  0  0  0  0  0  0  0
   -0.4063   20.0150    1.6998 H   0  0  0  0  0  0  0  0  0  0  0  0
    0.7458   19.6967    0.3589 H   0  0  0  0  0  0  0  0  0  0  0  0
   -0.2397   21.1985    0.3589 H   0  0  0  0  0  0  0  0  0  0  0  0
   -2.1208   18.8409    1.7455 H   0  0  0  0  0  0  0  0  0  0  0  0
   -3.3327   19.0774    0.4408 H   0  0  0  0  0  0  0  0  0  0  0  0
   -2.2863   17.6173    0.4408 H   0  0  0  0  0  0  0  0  0  0  0  0
    2.9638   16.0247   -2.7179 H   0  0  0  0  0  0  0  0  0  0  0  0
    4.4655   16.3242   -0.8495 H   0  0  0  0  0  0  0  0  0  0  0  0
    3.3673   17.4702   -0.0509 H   0  0  0  0  0  0  0  0  0  0  0  0
    3.7528   14.7400    0.7005 H   0  0  0  0  0  0  0  0  0  0  0  0
    2.4068   15.7348    1.2497 H   0  0  0  0  0  0  0  0  0  0  0  0
    3.5309   13.0049   -0.7082 H   0  0  0  0  0  0  0  0  0  0  0  0
    2.3067   12.9419   -2.0213 H   0  0  0  0  0  0  0  0  0  0  0  0
    3.5584   14.2303   -2.0213 H   0  0  0  0  0  0  0  0  0  0  0  0
    0.3917   14.4572    0.8323 H   0  0  0  0  0  0  0  0  0  0  0  0
    2.3555   12.9443    1.5355 H   0  0  0  0  0  0  0  0  0  0  0  0
    0.6134   12.4781    1.9070 H   0  0  0  0  0  0  0  0  0  0  0  0
    2.1884   10.5362    1.0769 H   0  0  0  0  0  0  0  0  0  0  0  0
    0.7373   12.1346   -2.3347 H   0  0  0  0  0  0  0  0  0  0  0  0
   -1.6688   10.6583   -1.0983 H   0  0  0  0  0  0  0  0  0  0  0  0
   -1.6506   11.6077   -2.6498 H   0  0  0  0  0  0  0  0  0  0  0  0
   -1.5673    9.1664   -3.0456 H   0  0  0  0  0  0  0  0  0  0  0  0
   -0.0911   10.0274   -3.6339 H   0  0  0  0  0  0  0  0  0  0  0  0
    0.5829    7.9981   -2.5435 H   0  0  0  0  0  0  0  0  0  0  0  0
   -1.3000    7.7800   -1.2010 H   0  0  0  0  0  0  0  0  0  0  0  0
    3.4417   10.1079   -2.0618 H   0  0  0  0  0  0  0  0  0  0  0  0
    2.5872    8.9179   -3.1013 H   0  0  0  0  0  0  0  0  0  0  0  0
    2.0768   10.6401   -3.1013 H   0  0  0  0  0  0  0  0  0  0  0  0
    1.9927    8.8193    0.6682 H   0  0  0  0  0  0  0  0  0  0  0  0
    1.8345    7.5165   -0.5583 H   0  0  0  0  0  0  0  0  0  0  0  0
    3.2828    8.5789   -0.5583 H   0  0  0  0  0  0  0  0  0  0  0  0
   -1.2386   12.9592    1.1898 H   0  0  0  0  0  0  0  0  0  0  0  0
   -2.2809   13.6778   -0.0845 H   0  0  0  0  0  0  0  0  0  0  0  0
   -1.9503   11.9122   -0.0845 H   0  0  0  0  0  0  0  0  0  0  0  0
   -1.1688   13.6248   -2.6878 H   0  0  0  0  0  0  0  0  0  0  0  0
   -1.3667   14.8893   -1.3476 H   0  0  0  0  0  0  0  0  0  0  0  0
    1.0558   14.4259   -3.1093 H   0  0  0  0  0  0  0  0  0  0  0  0
   -0.0430   15.8603   -3.0553 H   0  0  0  0  0  0  0  0  0  0  0  0
    0.5372   16.4465    0.5488 H   0  0  0  0  0  0  0  0  0  0  0  0
    0.5966   17.6749   -0.7604 H   0  0  0  0  0  0  0  0  0  0  0  0
   -0.6925   16.4240   -0.7604 H   0  0  0  0  0  0  0  0  0  0  0  0
  1  2  1  0
  2  3  1  0
  3  4  1  0
  4  5  1  0
  5  6  1  0
  6  7  1  0
  7  8  1  0
  7  9  1  0
  2 10  1  0
 10 11  1  0
 11 12  1  0
 12 13  1  0
 13 14  1  6
 13 15  1  0
 15 16  1  0
 16 17  1  0
 17 18  2  0
 18 19  1  0
 19 20  1  0
 20 21  1  0
 21 22  1  0
 22 23  1  0
 22 24  1  0
 24 25  1  0
 24 26  1  0
 19 27  1  0
 27 28  1  1
 27 29  1  0
 29 30  1  0
 30 31  1  0
 31 32  1  1
  7  5  1  0
 31 10  1  0
 31 13  1  0
 27 15  1  0
 24 18  1  0
  1 33  1  0
  1 34  1  0
  1 35  1  0
  2 36  1  6
  3 37  1  0
  3 38  1  0
  4 39  1  0
  4 40  1  0
  5 41  1  1
  8 42  1  0
  8 43  1  0
  8 44  1  0
  9 45  1  0
  9 46  1  0
  9 47  1  0
 10 48  1  6
 11 49  1  0
 11 50  1  0
 12 51  1  0
 12 52  1  0
 14 53  1  0
 14 54  1  0
 14 55  1  0
 15 56  1  1
 16 57  1  0
 16 58  1  0
 17 59  1  0
 19 60  1  6
 20 61  1  0
 20 62  1  0
 21 63  1  0
 21 64  1  0
 22 65  1  6
 23 66  1  0
 25 67  1  0
 25 68  1  0
 25 69  1  0
 26 70  1  0
 26 71  1  0
 26 72  1  0
 28 73  1  0
 28 74  1  0
 28 75  1  0
 29 76  1  0
 29 77  1  0
 30 78  1  0
 30 79  1  0
 32 80  1  0
 32 81  1  0
 32 82  1  0
M  END
>  <meeko>  (12) 
{"is_sidechain": [false], "intermolecular_energy": 2.731, "internal_energy": -0.839}

$$$$
EPH_relaxed_0001_pdb2pqr_Repair_188_r2_0001_out
     RDKit          3D

 82 86  0  0  0  0  0  0  0  0999 V2000
   -3.9100    7.0950   -3.4010 C   0  0  0  0  0  0  0  0  0  0  0  0
   -3.9650    7.1950   -1.8740 C   0  0  2  0  0  0  0  0  0  0  0  0
   -5.3930    6.9960   -1.3300 C   0  0  0  0  0  0  0  0  0  0  0  0
   -6.4910    7.3900   -2.3220 C   0  0  0  0  0  0  0  0  0  0  0  0
   -7.8170    7.5580   -1.6450 C   0  0  2  0  0  0  0  0  0  0  0  0
   -8.3680    6.3510   -1.1010 O   0  0  0  0  0  0  0  0  0  0  0  0
   -9.1070    6.9590   -2.1720 C   0  0  0  0  0  0  0  0  0  0  0  0
   -9.1350    6.1480   -3.4300 C   0  0  0  0  0  0  0  0  0  0  0  0
  -10.4060    7.5650   -1.7400 C   0  0  0  0  0  0  0  0  0  0  0  0
   -3.4180    8.5440   -1.4220 C   0  0  1  0  0  0  0  0  0  0  0  0
   -4.0130    9.0050   -0.0650 C   0  0  0  0  0  0  0  0  0  0  0  0
   -2.8870    9.7650    0.6820 C   0  0  0  0  0  0  0  0  0  0  0  0
   -1.7990   10.0040   -0.3910 C   0  0  1  0  0  0  0  0  0  0  0  0
   -2.2880   11.2550   -1.1850 C   0  0  0  0  0  0  0  0  0  0  0  0
   -0.3380   10.1880    0.1350 C   0  0  2  0  0  0  0  0  0  0  0  0
   -0.1210   11.4120    1.0430 C   0  0  0  0  0  0  0  0  0  0  0  0
    0.2730   12.6670    0.3380 C   0  0  0  0  0  0  0  0  0  0  0  0
    0.7230   12.7440   -0.9290 C   0  0  0  0  0  0  0  0  0  0  0  0
    0.9660   11.4760   -1.7570 C   0  0  1  0  0  0  0  0  0  0  0  0
    2.3430   11.5760   -2.4640 C   0  0  0  0  0  0  0  0  0  0  0  0
    2.4850   12.8490   -3.2920 C   0  0  0  0  0  0  0  0  0  0  0  0
    2.2950   14.0890   -2.4220 C   0  0  2  0  0  0  0  0  0  0  0  0
    3.3800   14.1710   -1.4920 O   0  0  0  0  0  0  0  0  0  0  0  0
    0.9450   14.0960   -1.6520 C   0  0  0  0  0  0  0  0  0  0  0  0
   -0.2210   14.3110   -2.6480 C   0  0  0  0  0  0  0  0  0  0  0  0
    0.9410   15.3270   -0.7060 C   0  0  0  0  0  0  0  0  0  0  0  0
    0.7720   10.0990   -0.9890 C   0  0  1  0  0  0  0  0  0  0  0  0
    2.0980    9.6970   -0.2740 C   0  0  0  0  0  0  0  0  0  0  0  0
    0.4710    8.9630   -2.0380 C   0  0  0  0  0  0  0  0  0  0  0  0
   -1.0050    8.7500   -2.4270 C   0  0  0  0  0  0  0  0  0  0  0  0
   -1.8910    8.6480   -1.1820 C   0  0  2  0  0  0  0  0  0  0  0  0
   -1.4370    7.3850   -0.3740 C   0  0  0  0  0  0  0  0  0  0  0  0
   -3.3984    6.1649   -3.6893 H   0  0  0  0  0  0  0  0  0  0  0  0
   -4.9330    7.0913   -3.8053 H   0  0  0  0  0  0  0  0  0  0  0  0
   -3.3591    7.9570   -3.8053 H   0  0  0  0  0  0  0  0  0  0  0  0
   -3.3416    6.3855   -1.4665 H   0  0  0  0  0  0  0  0  0  0  0  0
   -5.5218    5.9342   -1.0733 H   0  0  0  0  0  0  0  0  0  0  0  0
   -5.4984    7.6553   -0.4558 H   0  0  0  0  0  0  0  0  0  0  0  0
   -6.2132    8.3399   -2.8021 H   0  0  0  0  0  0  0  0  0  0  0  0
   -6.5858    6.5848   -3.0654 H   0  0  0  0  0  0  0  0  0  0  0  0
   -7.5527    8.5775   -1.3276 H   0  0  0  0  0  0  0  0  0  0  0  0
   -9.1719    5.0784   -3.1759 H   0  0  0  0  0  0  0  0  0  0  0  0
  -10.0244    6.4158   -4.0192 H   0  0  0  0  0  0  0  0  0  0  0  0
   -8.2292    6.3539   -4.0192 H   0  0  0  0  0  0  0  0  0  0  0  0
  -10.4529    7.5869   -0.6412 H   0  0  0  0  0  0  0  0  0  0  0  0
  -10.4800    8.5906   -2.1307 H   0  0  0  0  0  0  0  0  0  0  0  0
  -11.2395    6.9628   -2.1307 H   0  0  0  0  0  0  0  0  0  0  0  0
   -3.7054    9.1591   -2.2875 H   0  0  0  0  0  0  0  0  0  0  0  0
   -4.8717    9.6713   -0.2347 H   0  0  0  0  0  0  0  0  0  0  0  0
   -4.3671    8.1456    0.5233 H   0  0  0  0  0  0  0  0  0  0  0  0
   -3.2599   10.7217    1.0767 H   0  0  0  0  0  0  0  0  0  0  0  0
   -2.5046    9.2006    1.5453 H   0  0  0  0  0  0  0  0  0  0  0  0
   -2.5950   12.0405   -0.4788 H   0  0  0  0  0  0  0  0  0  0  0  0
   -1.4703   11.6302   -1.8180 H   0  0  0  0  0  0  0  0  0  0  0  0
   -3.1434   10.9762   -1.8180 H   0  0  0  0  0  0  0  0  0  0  0  0
   -0.2079    9.3081    0.7822 H   0  0  0  0  0  0  0  0  0  0  0  0
   -1.0598   11.6057    1.5825 H   0  0  0  0  0  0  0  0  0  0  0  0
    0.7214   11.1561    1.7024 H   0  0  0  0  0  0  0  0  0  0  0  0
    0.1888   13.6085    0.9006 H   0  0  0  0  0  0  0  0  0  0  0  0
    0.1627   11.4437   -2.5078 H   0  0  0  0  0  0  0  0  0  0  0  0
    3.1336   11.5629   -1.6993 H   0  0  0  0  0  0  0  0  0  0  0  0
    2.4286   10.7205   -3.1501 H   0  0  0  0  0  0  0  0  0  0  0  0
    3.4881   12.8755   -3.7426 H   0  0  0  0  0  0  0  0  0  0  0  0
    1.7121   12.8471   -4.0747 H   0  0  0  0  0  0  0  0  0  0  0  0
    2.2789   14.9619   -3.0912 H   0  0  0  0  0  0  0  0  0  0  0  0
    3.2470   14.9700   -0.9550 H   0  0  0  0  0  0  0  0  0  0  0  0
   -1.1531   14.4829   -2.0898 H   0  0  0  0  0  0  0  0  0  0  0  0
   -0.0062   15.1847   -3.2809 H   0  0  0  0  0  0  0  0  0  0  0  0
   -0.3320   13.4182   -3.2809 H   0  0  0  0  0  0  0  0  0  0  0  0
    0.9421   14.9858    0.3397 H   0  0  0  0  0  0  0  0  0  0  0  0
    1.8372   15.9366   -0.8937 H   0  0  0  0  0  0  0  0  0  0  0  0
    0.0409   15.9308   -0.8937 H   0  0  0  0  0  0  0  0  0  0  0  0
    1.9547    9.7404    0.8158 H   0  0  0  0  0  0  0  0  0  0  0  0
    2.3768    8.6740   -0.5667 H   0  0  0  0  0  0  0  0  0  0  0  0
    2.8980   10.3930   -0.5667 H   0  0  0  0  0  0  0  0  0  0  0  0
    1.0261    9.2029   -2.9569 H   0  0  0  0  0  0  0  0  0  0  0  0
    0.7768    8.0281   -1.5457 H   0  0  0  0  0  0  0  0  0  0  0  0
   -1.3418    9.5992   -3.0397 H   0  0  0  0  0  0  0  0  0  0  0  0
   -1.0863    7.8104   -2.9932 H   0  0  0  0  0  0  0  0  0  0  0  0
   -1.5117    7.5928    0.7036 H   0  0  0  0  0  0  0  0  0  0  0  0
   -2.0855    6.5339   -0.6291 H   0  0  0  0  0  0  0  0  0  0  0  0
   -0.3951    7.1415   -0.6291 H   0  0  0  0  0  0  0  0  0  0  0  0
  1  2  1  0
  2  3  1  0
  3  4  1  0
  4  5  1  0
  5  6  1  0
  6  7  1  0
  7  8  1  0
  7  9  1  0
  2 10  1  0
 10 11  1  0
 11 12  1  0
 12 13  1  0
 13 14  1  6
 13 15  1  0
 15 16  1  0
 16 17  1  0
 17 18  2  0
 18 19  1  0
 19 20  1  0
 20 21  1  0
 21 22  1  0
 22 23  1  0
 22 24  1  0
 24 25  1  0
 24 26  1  0
 19 27  1  0
 27 28  1  1
 27 29  1  0
 29 30  1  0
 30 31  1  0
 31 32  1  1
  7  5  1  0
 31 10  1  0
 31 13  1  0
 27 15  1  0
 24 18  1  0
  1 33  1  0
  1 34  1  0
  1 35  1  0
  2 36  1  1
  3 37  1  0
  3 38  1  0
  4 39  1  0
  4 40  1  0
  5 41  1  1
  8 42  1  0
  8 43  1  0
  8 44  1  0
  9 45  1  0
  9 46  1  0
  9 47  1  0
 10 48  1  6
 11 49  1  0
 11 50  1  0
 12 51  1  0
 12 52  1  0
 14 53  1  0
 14 54  1  0
 14 55  1  0
 15 56  1  1
 16 57  1  0
 16 58  1  0
 17 59  1  0
 19 60  1  6
 20 61  1  0
 20 62  1  0
 21 63  1  0
 21 64  1  0
 22 65  1  6
 23 66  1  0
 25 67  1  0
 25 68  1  0
 25 69  1  0
 26 70  1  0
 26 71  1  0
 26 72  1  0
 28 73  1  0
 28 74  1  0
 28 75  1  0
 29 76  1  0
 29 77  1  0
 30 78  1  0
 30 79  1  0
 32 80  1  0
 32 81  1  0
 32 82  1  0
M  END
>  <meeko>  (13) 
{"is_sidechain": [false], "intermolecular_energy": 2.731, "internal_energy": -0.839}

$$$$
EPH_relaxed_0001_pdb2pqr_Repair_188_r2_0001_out
     RDKit          3D

 82 86  0  0  0  0  0  0  0  0999 V2000
    0.2710    8.9270   -2.3140 C   0  0  0  0  0  0  0  0  0  0  0  0
    0.8640   10.0480   -3.1730 C   0  0  2  0  0  0  0  0  0  0  0  0
    2.4020   10.1000   -3.0770 C   0  0  0  0  0  0  0  0  0  0  0  0
    3.0670   10.8280   -4.2490 C   0  0  0  0  0  0  0  0  0  0  0  0
    4.4970   11.1660   -3.9510 C   0  0  2  0  0  0  0  0  0  0  0  0
    5.1460   11.9580   -4.9550 O   0  0  0  0  0  0  0  0  0  0  0  0
    5.6670   10.6340   -4.7570 C   0  0  0  0  0  0  0  0  0  0  0  0
    5.4600    9.7170   -5.9220 C   0  0  0  0  0  0  0  0  0  0  0  0
    7.0210   10.6080   -4.1190 C   0  0  0  0  0  0  0  0  0  0  0  0
    0.2700   11.3890   -2.7600 C   0  0  1  0  0  0  0  0  0  0  0  0
   -1.0980   11.2410   -2.0410 C   0  0  0  0  0  0  0  0  0  0  0  0
   -1.1610   12.3560   -0.9660 C   0  0  0  0  0  0  0  0  0  0  0  0
    0.0090   13.3050   -1.3180 C   0  0  1  0  0  0  0  0  0  0  0  0
   -0.5390   14.2080   -2.4680 C   0  0  0  0  0  0  0  0  0  0  0  0
    0.5870   14.1560   -0.1410 C   0  0  2  0  0  0  0  0  0  0  0  0
   -0.4040   15.1460    0.4960 C   0  0  0  0  0  0  0  0  0  0  0  0
   -0.4220   16.5100   -0.1100 C   0  0  0  0  0  0  0  0  0  0  0  0
    0.5180   17.0130   -0.9310 C   0  0  0  0  0  0  0  0  0  0  0  0
    1.7920   16.2190   -1.2500 C   0  0  1  0  0  0  0  0  0  0  0  0
    3.0270   17.1490   -1.1200 C   0  0  0  0  0  0  0  0  0  0  0  0
    2.9000   18.4130   -1.9650 C   0  0  0  0  0  0  0  0  0  0  0  0
    1.6530   19.2040   -1.5780 C   0  0  2  0  0  0  0  0  0  0  0  0
    1.8190   19.7050   -0.2480 O   0  0  0  0  0  0  0  0  0  0  0  0
    0.3460   18.3670   -1.6620 C   0  0  0  0  0  0  0  0  0  0  0  0
    0.0060   18.0800   -3.1450 C   0  0  0  0  0  0  0  0  0  0  0  0
   -0.8150   19.2390   -1.1120 C   0  0  0  0  0  0  0  0  0  0  0  0
    1.9720   14.8510   -0.4620 C   0  0  1  0  0  0  0  0  0  0  0  0
    2.6670   15.1140    0.9090 C   0  0  0  0  0  0  0  0  0  0  0  0
    2.9380   13.9120   -1.2770 C   0  0  0  0  0  0  0  0  0  0  0  0
    2.2910   13.0080   -2.3440 C   0  0  0  0  0  0  0  0  0  0  0  0
    1.0880   12.2540   -1.7680 C   0  0  2  0  0  0  0  0  0  0  0  0
    1.6120   11.3210   -0.6240 C   0  0  0  0  0  0  0  0  0  0  0  0
    0.4010    9.1728   -1.2497 H   0  0  0  0  0  0  0  0  0  0  0  0
   -0.8008    8.8216   -2.5377 H   0  0  0  0  0  0  0  0  0  0  0  0
    0.7870    7.9816   -2.5377 H   0  0  0  0  0  0  0  0  0  0  0  0
    0.6056    9.8348   -4.2207 H   0  0  0  0  0  0  0  0  0  0  0  0
    2.6747   10.6187   -2.1461 H   0  0  0  0  0  0  0  0  0  0  0  0
    2.7611    9.0605   -3.0984 H   0  0  0  0  0  0  0  0  0  0  0  0
    3.0312   10.1806   -5.1376 H   0  0  0  0  0  0  0  0  0  0  0  0
    2.5215   11.7671   -4.4239 H   0  0  0  0  0  0  0  0  0  0  0  0
    4.2930   11.1840   -2.8702 H   0  0  0  0  0  0  0  0  0  0  0  0
    5.2316    8.7051   -5.5561 H   0  0  0  0  0  0  0  0  0  0  0  0
    4.6221   10.0838   -6.5330 H   0  0  0  0  0  0  0  0  0  0  0  0
    6.3743    9.6883   -6.5330 H   0  0  0  0  0  0  0  0  0  0  0  0
    6.9107   10.6101   -3.0245 H   0  0  0  0  0  0  0  0  0  0  0  0
    7.5564    9.6994   -4.4318 H   0  0  0  0  0  0  0  0  0  0  0  0
    7.5908   11.4954   -4.4318 H   0  0  0  0  0  0  0  0  0  0  0  0
    0.2269   11.8816   -3.7426 H   0  0  0  0  0  0  0  0  0  0  0  0
   -1.9199   11.3629   -2.7618 H   0  0  0  0  0  0  0  0  0  0  0  0
   -1.1984   10.2455   -1.5839 H   0  0  0  0  0  0  0  0  0  0  0  0
   -2.1218   12.8893   -1.0157 H   0  0  0  0  0  0  0  0  0  0  0  0
   -1.0801   11.9555    0.0553 H   0  0  0  0  0  0  0  0  0  0  0  0
   -1.0639   15.0730   -2.0365 H   0  0  0  0  0  0  0  0  0  0  0  0
    0.2983   14.5595   -3.0888 H   0  0  0  0  0  0  0  0  0  0  0  0
   -1.2374   13.6276   -3.0888 H   0  0  0  0  0  0  0  0  0  0  0  0
    0.7834   13.3933    0.6269 H   0  0  0  0  0  0  0  0  0  0  0  0
   -1.4144   14.7207    0.4057 H   0  0  0  0  0  0  0  0  0  0  0  0
   -0.0733   15.2800    1.5365 H   0  0  0  0  0  0  0  0  0  0  0  0
   -1.2758   17.1588    0.1353 H   0  0  0  0  0  0  0  0  0  0  0  0
    1.6873   15.8807   -2.2914 H   0  0  0  0  0  0  0  0  0  0  0  0
    3.1396   17.4400   -0.0652 H   0  0  0  0  0  0  0  0  0  0  0  0
    3.9036   16.5921   -1.4825 H   0  0  0  0  0  0  0  0  0  0  0  0
    3.7886   19.0420   -1.8079 H   0  0  0  0  0  0  0  0  0  0  0  0
    2.8174   18.1219   -3.0226 H   0  0  0  0  0  0  0  0  0  0  0  0
    1.5460   20.0258   -2.3014 H   0  0  0  0  0  0  0  0  0  0  0  0
    1.8070   20.6760   -0.2960 H   0  0  0  0  0  0  0  0  0  0  0  0
   -0.8336   17.3713   -3.1982 H   0  0  0  0  0  0  0  0  0  0  0  0
   -0.2743   19.0187   -3.6452 H   0  0  0  0  0  0  0  0  0  0  0  0
    0.8844   17.6461   -3.6452 H   0  0  0  0  0  0  0  0  0  0  0  0
   -0.7954   19.2243   -0.0123 H   0  0  0  0  0  0  0  0  0  0  0  0
   -0.6967   20.2734   -1.4670 H   0  0  0  0  0  0  0  0  0  0  0  0
   -1.7754   18.8371   -1.4670 H   0  0  0  0  0  0  0  0  0  0  0  0
    1.9777   14.8531    1.7255 H   0  0  0  0  0  0  0  0  0  0  0  0
    3.5747   14.4972    0.9843 H   0  0  0  0  0  0  0  0  0  0  0  0
    2.9389   16.1772    0.9843 H   0  0  0  0  0  0  0  0  0  0  0  0
    3.6741   14.5522   -1.7851 H   0  0  0  0  0  0  0  0  0  0  0  0
    3.3631   13.2214   -0.5338 H   0  0  0  0  0  0  0  0  0  0  0  0
    1.9558   13.6298   -3.1872 H   0  0  0  0  0  0  0  0  0  0  0  0
    3.0372   12.2731   -2.6802 H   0  0  0  0  0  0  0  0  0  0  0  0
    1.3638   11.7630    0.3522 H   0  0  0  0  0  0  0  0  0  0  0  0
    1.1370   10.3326   -0.7104 H   0  0  0  0  0  0  0  0  0  0  0  0
    2.7032   11.2122   -0.7104 H   0  0  0  0  0  0  0  0  0  0  0  0
  1  2  1  0
  2  3  1  0
  3  4  1  0
  4  5  1  0
  5  6  1  0
  6  7  1  0
  7  8  1  0
  7  9  1  0
  2 10  1  0
 10 11  1  0
 11 12  1  0
 12 13  1  0
 13 14  1  6
 13 15  1  0
 15 16  1  0
 16 17  1  0
 17 18  2  0
 18 19  1  0
 19 20  1  0
 20 21  1  0
 21 22  1  0
 22 23  1  0
 22 24  1  0
 24 25  1  0
 24 26  1  0
 19 27  1  0
 27 28  1  1
 27 29  1  0
 29 30  1  0
 30 31  1  0
 31 32  1  1
  7  5  1  0
 31 10  1  0
 31 13  1  0
 27 15  1  0
 24 18  1  0
  1 33  1  0
  1 34  1  0
  1 35  1  0
  2 36  1  6
  3 37  1  0
  3 38  1  0
  4 39  1  0
  4 40  1  0
  5 41  1  1
  8 42  1  0
  8 43  1  0
  8 44  1  0
  9 45  1  0
  9 46  1  0
  9 47  1  0
 10 48  1  6
 11 49  1  0
 11 50  1  0
 12 51  1  0
 12 52  1  0
 14 53  1  0
 14 54  1  0
 14 55  1  0
 15 56  1  1
 16 57  1  0
 16 58  1  0
 17 59  1  0
 19 60  1  6
 20 61  1  0
 20 62  1  0
 21 63  1  0
 21 64  1  0
 22 65  1  6
 23 66  1  0
 25 67  1  0
 25 68  1  0
 25 69  1  0
 26 70  1  0
 26 71  1  0
 26 72  1  0
 28 73  1  0
 28 74  1  0
 28 75  1  0
 29 76  1  0
 29 77  1  0
 30 78  1  0
 30 79  1  0
 32 80  1  0
 32 81  1  0
 32 82  1  0
M  END
>  <meeko>  (14) 
{"is_sidechain": [false], "intermolecular_energy": 2.731, "internal_energy": -0.839}

$$$$
EPH_relaxed_0001_pdb2pqr_Repair_188_r2_0001_out
     RDKit          3D

 82 86  0  0  0  0  0  0  0  0999 V2000
    1.7140   10.8180   -4.5950 C   0  0  0  0  0  0  0  0  0  0  0  0
    0.8360   10.5980   -3.3600 C   0  0  2  0  0  0  0  0  0  0  0  0
   -0.2990    9.5890   -3.6270 C   0  0  0  0  0  0  0  0  0  0  0  0
   -0.3840    8.4680   -2.5880 C   0  0  0  0  0  0  0  0  0  0  0  0
    0.0370    8.9390   -1.2290 C   0  0  2  0  0  0  0  0  0  0  0  0
   -0.2610    8.0300   -0.1610 O   0  0  0  0  0  0  0  0  0  0  0  0
   -0.9420    9.2950   -0.1260 C   0  0  0  0  0  0  0  0  0  0  0  0
   -2.4210    9.1950   -0.3340 C   0  0  0  0  0  0  0  0  0  0  0  0
   -0.4820   10.1970    0.9760 C   0  0  0  0  0  0  0  0  0  0  0  0
    0.2530   11.9260   -2.8930 C   0  0  1  0  0  0  0  0  0  0  0  0
   -1.0830   11.7540   -2.1220 C   0  0  0  0  0  0  0  0  0  0  0  0
   -1.1080   12.8450   -1.0210 C   0  0  0  0  0  0  0  0  0  0  0  0
    0.0410   13.8080   -1.4000 C   0  0  1  0  0  0  0  0  0  0  0  0
   -0.5580   14.7320   -2.5050 C   0  0  0  0  0  0  0  0  0  0  0  0
    0.6630   14.6370   -0.2280 C   0  0  2  0  0  0  0  0  0  0  0  0
   -0.3060   15.6060    0.4710 C   0  0  0  0  0  0  0  0  0  0  0  0
   -0.3560   16.9830   -0.1040 C   0  0  0  0  0  0  0  0  0  0  0  0
    0.5470   17.5100   -0.9520 C   0  0  0  0  0  0  0  0  0  0  0  0
    1.8100   16.7310   -1.3400 C   0  0  1  0  0  0  0  0  0  0  0  0
    3.0450   17.6650   -1.2400 C   0  0  0  0  0  0  0  0  0  0  0  0
    2.8770   18.9460   -2.0510 C   0  0  0  0  0  0  0  0  0  0  0  0
    1.6430   19.7210   -1.5960 C   0  0  2  0  0  0  0  0  0  0  0  0
    1.8610   20.1940   -0.2630 O   0  0  0  0  0  0  0  0  0  0  0  0
    0.3380   18.8790   -1.6440 C   0  0  0  0  0  0  0  0  0  0  0  0
   -0.0610   18.6220   -3.1180 C   0  0  0  0  0  0  0  0  0  0  0  0
   -0.8040   19.7310   -1.0280 C   0  0  0  0  0  0  0  0  0  0  0  0
    2.0290   15.3470   -0.5910 C   0  0  1  0  0  0  0  0  0  0  0  0
    2.7790   15.5840    0.7560 C   0  0  0  0  0  0  0  0  0  0  0  0
    2.9660   14.4320   -1.4650 C   0  0  0  0  0  0  0  0  0  0  0  0
    2.2810   13.5470   -2.5250 C   0  0  0  0  0  0  0  0  0  0  0  0
    1.1070   12.7740   -1.9170 C   0  0  2  0  0  0  0  0  0  0  0  0
    1.6820   11.8190   -0.8160 C   0  0  0  0  0  0  0  0  0  0  0  0
    2.7357   11.0740   -4.2777 H   0  0  0  0  0  0  0  0  0  0  0  0
    1.7369    9.8978   -5.1973 H   0  0  0  0  0  0  0  0  0  0  0  0
    1.3003   11.6402   -5.1973 H   0  0  0  0  0  0  0  0  0  0  0  0
    1.4751   10.1750   -2.5709 H   0  0  0  0  0  0  0  0  0  0  0  0
   -1.2546   10.1339   -3.6287 H   0  0  0  0  0  0  0  0  0  0  0  0
   -0.0847    9.1136   -4.5955 H   0  0  0  0  0  0  0  0  0  0  0  0
   -1.4224    8.1090   -2.5350 H   0  0  0  0  0  0  0  0  0  0  0  0
    0.2966    7.6612   -2.8975 H   0  0  0  0  0  0  0  0  0  0  0  0
    0.8948    9.4788   -1.6565 H   0  0  0  0  0  0  0  0  0  0  0  0
   -2.9271    9.1608    0.6421 H   0  0  0  0  0  0  0  0  0  0  0  0
   -2.7720   10.0715   -0.8985 H   0  0  0  0  0  0  0  0  0  0  0  0
   -2.6508    8.2793   -0.8985 H   0  0  0  0  0  0  0  0  0  0  0  0
   -0.7162    9.7377    1.9477 H   0  0  0  0  0  0  0  0  0  0  0  0
    0.6043   10.3501    0.8952 H   0  0  0  0  0  0  0  0  0  0  0  0
   -0.9959   11.1662    0.8952 H   0  0  0  0  0  0  0  0  0  0  0  0
    0.1668   12.4400   -3.8617 H   0  0  0  0  0  0  0  0  0  0  0  0
   -1.9346   11.8862   -2.8056 H   0  0  0  0  0  0  0  0  0  0  0  0
   -1.1589   10.7482   -1.6830 H   0  0  0  0  0  0  0  0  0  0  0  0
   -2.0729   13.3732   -1.0196 H   0  0  0  0  0  0  0  0  0  0  0  0
   -0.9833   12.4231   -0.0128 H   0  0  0  0  0  0  0  0  0  0  0  0
   -1.0984   15.5656   -2.0327 H   0  0  0  0  0  0  0  0  0  0  0  0
    0.2546   15.1295   -3.1308 H   0  0  0  0  0  0  0  0  0  0  0  0
   -1.2526   14.1524   -3.1308 H   0  0  0  0  0  0  0  0  0  0  0  0
    0.8951   13.8594    0.5146 H   0  0  0  0  0  0  0  0  0  0  0  0
   -1.3170   15.1765    0.4130 H   0  0  0  0  0  0  0  0  0  0  0  0
    0.0661   15.7191    1.4999 H   0  0  0  0  0  0  0  0  0  0  0  0
   -1.2024   17.6209    0.1902 H   0  0  0  0  0  0  0  0  0  0  0  0
    1.6641   16.4152   -2.3835 H   0  0  0  0  0  0  0  0  0  0  0  0
    3.1994   17.9336   -0.1845 H   0  0  0  0  0  0  0  0  0  0  0  0
    3.9088   17.1212   -1.6500 H   0  0  0  0  0  0  0  0  0  0  0  0
    3.7681   19.5767   -1.9167 H   0  0  0  0  0  0  0  0  0  0  0  0
    2.7524   18.6774   -3.1104 H   0  0  0  0  0  0  0  0  0  0  0  0
    1.5025   20.5573   -2.2967 H   0  0  0  0  0  0  0  0  0  0  0  0
    1.9720   21.1590   -0.3070 H   0  0  0  0  0  0  0  0  0  0  0  0
   -0.9854   18.0266   -3.1492 H   0  0  0  0  0  0  0  0  0  0  0  0
   -0.2269   19.5835   -3.6260 H   0  0  0  0  0  0  0  0  0  0  0  0
    0.7458   18.0734   -3.6260 H   0  0  0  0  0  0  0  0  0  0  0  0
   -0.7439   19.6862    0.0694 H   0  0  0  0  0  0  0  0  0  0  0  0
   -0.7016   20.7752   -1.3585 H   0  0  0  0  0  0  0  0  0  0  0  0
   -1.7758   19.3354   -1.3585 H   0  0  0  0  0  0  0  0  0  0  0  0
    2.1013   15.3699    1.5956 H   0  0  0  0  0  0  0  0  0  0  0  0
    3.6529   14.9182    0.8112 H   0  0  0  0  0  0  0  0  0  0  0  0
    3.1117   16.6310    0.8112 H   0  0  0  0  0  0  0  0  0  0  0  0
    3.6774   15.0878   -1.9883 H   0  0  0  0  0  0  0  0  0  0  0  0
    3.4244   13.7280   -0.7549 H   0  0  0  0  0  0  0  0  0  0  0  0
    1.9085   14.1847   -3.3402 H   0  0  0  0  0  0  0  0  0  0  0  0
    3.0167   12.8242   -2.9075 H   0  0  0  0  0  0  0  0  0  0  0  0
    1.4407   12.2198    0.1795 H   0  0  0  0  0  0  0  0  0  0  0  0
    1.2351   10.8201   -0.9273 H   0  0  0  0  0  0  0  0  0  0  0  0
    2.7740   11.7466   -0.9273 H   0  0  0  0  0  0  0  0  0  0  0  0
  1  2  1  0
  2  3  1  0
  3  4  1  0
  4  5  1  0
  5  6  1  0
  6  7  1  0
  7  8  1  0
  7  9  1  0
  2 10  1  0
 10 11  1  0
 11 12  1  0
 12 13  1  0
 13 14  1  6
 13 15  1  0
 15 16  1  0
 16 17  1  0
 17 18  2  0
 18 19  1  0
 19 20  1  0
 20 21  1  0
 21 22  1  0
 22 23  1  0
 22 24  1  0
 24 25  1  0
 24 26  1  0
 19 27  1  0
 27 28  1  1
 27 29  1  0
 29 30  1  0
 30 31  1  0
 31 32  1  1
  7  5  1  0
 31 10  1  0
 31 13  1  0
 27 15  1  0
 24 18  1  0
  1 33  1  0
  1 34  1  0
  1 35  1  0
  2 36  1  1
  3 37  1  0
  3 38  1  0
  4 39  1  0
  4 40  1  0
  5 41  1  6
  8 42  1  0
  8 43  1  0
  8 44  1  0
  9 45  1  0
  9 46  1  0
  9 47  1  0
 10 48  1  6
 11 49  1  0
 11 50  1  0
 12 51  1  0
 12 52  1  0
 14 53  1  0
 14 54  1  0
 14 55  1  0
 15 56  1  1
 16 57  1  0
 16 58  1  0
 17 59  1  0
 19 60  1  6
 20 61  1  0
 20 62  1  0
 21 63  1  0
 21 64  1  0
 22 65  1  6
 23 66  1  0
 25 67  1  0
 25 68  1  0
 25 69  1  0
 26 70  1  0
 26 71  1  0
 26 72  1  0
 28 73  1  0
 28 74  1  0
 28 75  1  0
 29 76  1  0
 29 77  1  0
 30 78  1  0
 30 79  1  0
 32 80  1  0
 32 81  1  0
 32 82  1  0
M  END
>  <meeko>  (15) 
{"is_sidechain": [false], "intermolecular_energy": 2.731, "internal_energy": -0.839}

$$$$
EPH_relaxed_0001_pdb2pqr_Repair_188_r2_0001_out
     RDKit          3D

 82 86  0  0  0  0  0  0  0  0999 V2000
    0.9320   14.8970   -2.5950 C   0  0  0  0  0  0  0  0  0  0  0  0
    1.2030   14.2250   -3.9440 C   0  0  2  0  0  0  0  0  0  0  0  0
    0.5090   14.9590   -5.1090 C   0  0  0  0  0  0  0  0  0  0  0  0
    1.0790   14.6060   -6.4860 C   0  0  0  0  0  0  0  0  0  0  0  0
    0.8310   15.6950   -7.4840 C   0  0  2  0  0  0  0  0  0  0  0  0
    0.3820   15.2410   -8.7680 O   0  0  0  0  0  0  0  0  0  0  0  0
    1.6650   15.8870   -8.7370 C   0  0  0  0  0  0  0  0  0  0  0  0
    2.8110   14.9810   -9.0580 C   0  0  0  0  0  0  0  0  0  0  0  0
    1.6760   17.2350   -9.3900 C   0  0  0  0  0  0  0  0  0  0  0  0
    0.7490   12.7700   -3.9010 C   0  0  1  0  0  0  0  0  0  0  0  0
    1.8790   11.7800   -4.2900 C   0  0  0  0  0  0  0  0  0  0  0  0
    1.6770   10.5090   -3.4260 C   0  0  0  0  0  0  0  0  0  0  0  0
    0.2640   10.6710   -2.8180 C   0  0  1  0  0  0  0  0  0  0  0  0
   -0.7130   10.2130   -3.9460 C   0  0  0  0  0  0  0  0  0  0  0  0
   -0.0030    9.9100   -1.4790 C   0  0  2  0  0  0  0  0  0  0  0  0
    0.0980    8.3780   -1.5670 C   0  0  0  0  0  0  0  0  0  0  0  0
   -1.1760    7.6720   -1.8950 C   0  0  0  0  0  0  0  0  0  0  0  0
   -2.4080    8.2120   -1.8310 C   0  0  0  0  0  0  0  0  0  0  0  0
   -2.6180    9.6360   -1.3000 C   0  0  1  0  0  0  0  0  0  0  0  0
   -3.7970    9.6440   -0.2930 C   0  0  0  0  0  0  0  0  0  0  0  0
   -5.0720    9.0470   -0.8810 C   0  0  0  0  0  0  0  0  0  0  0  0
   -4.8390    7.6120   -1.3440 C   0  0  2  0  0  0  0  0  0  0  0  0
   -4.5830    6.7930   -0.1990 O   0  0  0  0  0  0  0  0  0  0  0  0
   -3.6660    7.4770   -2.3550 C   0  0  0  0  0  0  0  0  0  0  0  0
   -4.0710    8.1110   -3.7090 C   0  0  0  0  0  0  0  0  0  0  0  0
   -3.4460    5.9650   -2.6330 C   0  0  0  0  0  0  0  0  0  0  0  0
   -1.3230   10.3600   -0.7300 C   0  0  1  0  0  0  0  0  0  0  0  0
   -1.1280    9.9960    0.7740 C   0  0  0  0  0  0  0  0  0  0  0  0
   -1.5400   11.9190   -0.7850 C   0  0  0  0  0  0  0  0  0  0  0  0
   -1.1450   12.6300   -2.0940 C   0  0  0  0  0  0  0  0  0  0  0  0
    0.2610   12.2180   -2.5380 C   0  0  2  0  0  0  0  0  0  0  0  0
    1.2690   12.6860   -1.4330 C   0  0  0  0  0  0  0  0  0  0  0  0
    1.2088   14.2106   -1.7812 H   0  0  0  0  0  0  0  0  0  0  0  0
    1.5292   15.8175   -2.5173 H   0  0  0  0  0  0  0  0  0  0  0  0
   -0.1367   15.1457   -2.5173 H   0  0  0  0  0  0  0  0  0  0  0  0
    2.2872   14.2711   -4.1241 H   0  0  0  0  0  0  0  0  0  0  0  0
   -0.5592   14.6965   -5.0977 H   0  0  0  0  0  0  0  0  0  0  0  0
    0.6785   16.0352   -4.9573 H   0  0  0  0  0  0  0  0  0  0  0  0
    2.1636   14.4479   -6.3930 H   0  0  0  0  0  0  0  0  0  0  0  0
    0.5768   13.6942   -6.8415 H   0  0  0  0  0  0  0  0  0  0  0  0
    0.5269   16.3886   -6.6862 H   0  0  0  0  0  0  0  0  0  0  0  0
    3.2665   14.6209   -8.1238 H   0  0  0  0  0  0  0  0  0  0  0  0
    2.4476   14.1234   -9.6432 H   0  0  0  0  0  0  0  0  0  0  0  0
    3.5616   15.5325   -9.6432 H   0  0  0  0  0  0  0  0  0  0  0  0
    1.6824   18.0171   -8.6165 H   0  0  0  0  0  0  0  0  0  0  0  0
    2.5750   17.3316  -10.0165 H   0  0  0  0  0  0  0  0  0  0  0  0
    0.7787   17.3463  -10.0165 H   0  0  0  0  0  0  0  0  0  0  0  0
   -0.0904   12.8172   -4.6104 H   0  0  0  0  0  0  0  0  0  0  0  0
    1.8097   11.5268   -5.3582 H   0  0  0  0  0  0  0  0  0  0  0  0
    2.8703   12.2234   -4.1146 H   0  0  0  0  0  0  0  0  0  0  0  0
    1.7304    9.6037   -4.0486 H   0  0  0  0  0  0  0  0  0  0  0  0
    2.4534   10.4015   -2.6542 H   0  0  0  0  0  0  0  0  0  0  0  0
   -1.6211    9.7873   -3.4941 H   0  0  0  0  0  0  0  0  0  0  0  0
   -0.9844   11.0777   -4.5694 H   0  0  0  0  0  0  0  0  0  0  0  0
   -0.2220    9.4512   -4.5694 H   0  0  0  0  0  0  0  0  0  0  0  0
    0.8441   10.2292   -0.8541 H   0  0  0  0  0  0  0  0  0  0  0  0
    0.8340    8.1302   -2.3460 H   0  0  0  0  0  0  0  0  0  0  0  0
    0.3862    8.0342   -0.5627 H   0  0  0  0  0  0  0  0  0  0  0  0
   -1.1021    6.6225   -2.2159 H   0  0  0  0  0  0  0  0  0  0  0  0
   -2.8707   10.2536   -2.1745 H   0  0  0  0  0  0  0  0  0  0  0  0
   -3.5088    9.0580    0.5922 H   0  0  0  0  0  0  0  0  0  0  0  0
   -4.0076   10.6920   -0.0334 H   0  0  0  0  0  0  0  0  0  0  0  0
   -5.8601    9.0542   -0.1136 H   0  0  0  0  0  0  0  0  0  0  0  0
   -5.3748    9.6512   -1.7489 H   0  0  0  0  0  0  0  0  0  0  0  0
   -5.7473    7.2848   -1.8713 H   0  0  0  0  0  0  0  0  0  0  0  0
   -3.8930    6.1530   -0.4430 H   0  0  0  0  0  0  0  0  0  0  0  0
   -4.6549    9.0251   -3.5258 H   0  0  0  0  0  0  0  0  0  0  0  0
   -3.1660    8.3626   -4.2814 H   0  0  0  0  0  0  0  0  0  0  0  0
   -4.6797    7.3956   -4.2814 H   0  0  0  0  0  0  0  0  0  0  0  0
   -3.3673    5.4243   -1.6783 H   0  0  0  0  0  0  0  0  0  0  0  0
   -4.2962    5.5705   -3.2088 H   0  0  0  0  0  0  0  0  0  0  0  0
   -2.5186    5.8292   -3.2088 H   0  0  0  0  0  0  0  0  0  0  0  0
   -1.5544   10.7920    1.4022 H   0  0  0  0  0  0  0  0  0  0  0  0
   -1.6377    9.0455    0.9903 H   0  0  0  0  0  0  0  0  0  0  0  0
   -0.0543    9.8938    0.9903 H   0  0  0  0  0  0  0  0  0  0  0  0
   -2.6087   12.1125   -0.6106 H   0  0  0  0  0  0  0  0  0  0  0  0
   -0.8659   12.3305   -0.0193 H   0  0  0  0  0  0  0  0  0  0  0  0
   -1.8645   12.3605   -2.8812 H   0  0  0  0  0  0  0  0  0  0  0  0
   -1.1539   13.7161   -1.9200 H   0  0  0  0  0  0  0  0  0  0  0  0
    0.8416   12.4876   -0.4390 H   0  0  0  0  0  0  0  0  0  0  0  0
    2.2147   12.1348   -1.5422 H   0  0  0  0  0  0  0  0  0  0  0  0
    1.4582   13.7641   -1.5422 H   0  0  0  0  0  0  0  0  0  0  0  0
  1  2  1  0
  2  3  1  0
  3  4  1  0
  4  5  1  0
  5  6  1  0
  6  7  1  0
  7  8  1  0
  7  9  1  0
  2 10  1  0
 10 11  1  0
 11 12  1  0
 12 13  1  0
 13 14  1  6
 13 15  1  0
 15 16  1  0
 16 17  1  0
 17 18  2  0
 18 19  1  0
 19 20  1  0
 20 21  1  0
 21 22  1  0
 22 23  1  0
 22 24  1  0
 24 25  1  0
 24 26  1  0
 19 27  1  0
 27 28  1  1
 27 29  1  0
 29 30  1  0
 30 31  1  0
 31 32  1  1
  7  5  1  0
 31 10  1  0
 31 13  1  0
 27 15  1  0
 24 18  1  0
  1 33  1  0
  1 34  1  0
  1 35  1  0
  2 36  1  6
  3 37  1  0
  3 38  1  0
  4 39  1  0
  4 40  1  0
  5 41  1  1
  8 42  1  0
  8 43  1  0
  8 44  1  0
  9 45  1  0
  9 46  1  0
  9 47  1  0
 10 48  1  6
 11 49  1  0
 11 50  1  0
 12 51  1  0
 12 52  1  0
 14 53  1  0
 14 54  1  0
 14 55  1  0
 15 56  1  1
 16 57  1  0
 16 58  1  0
 17 59  1  0
 19 60  1  6
 20 61  1  0
 20 62  1  0
 21 63  1  0
 21 64  1  0
 22 65  1  6
 23 66  1  0
 25 67  1  0
 25 68  1  0
 25 69  1  0
 26 70  1  0
 26 71  1  0
 26 72  1  0
 28 73  1  0
 28 74  1  0
 28 75  1  0
 29 76  1  0
 29 77  1  0
 30 78  1  0
 30 79  1  0
 32 80  1  0
 32 81  1  0
 32 82  1  0
M  END
>  <meeko>  (16) 
{"is_sidechain": [false], "intermolecular_energy": 2.731, "internal_energy": -0.839}

$$$$
EPH_relaxed_0001_pdb2pqr_Repair_188_r2_0001_out
     RDKit          3D

 82 86  0  0  0  0  0  0  0  0999 V2000
    3.0590   11.2700   -4.2330 C   0  0  0  0  0  0  0  0  0  0  0  0
    1.9810   11.9100   -5.1110 C   0  0  2  0  0  0  0  0  0  0  0  0
    2.5830   12.6420   -6.3280 C   0  0  0  0  0  0  0  0  0  0  0  0
    1.8730   13.9560   -6.6680 C   0  0  0  0  0  0  0  0  0  0  0  0
    2.3640   14.5310   -7.9620 C   0  0  2  0  0  0  0  0  0  0  0  0
    2.4750   15.9600   -7.9780 O   0  0  0  0  0  0  0  0  0  0  0  0
    1.5070   15.3900   -8.8740 C   0  0  0  0  0  0  0  0  0  0  0  0
    0.0890   15.7200   -8.5290 C   0  0  0  0  0  0  0  0  0  0  0  0
    1.8850   15.4980  -10.3180 C   0  0  0  0  0  0  0  0  0  0  0  0
    1.1430   12.8770   -4.2840 C   0  0  1  0  0  0  0  0  0  0  0  0
   -0.2530   12.3010   -3.9260 C   0  0  0  0  0  0  0  0  0  0  0  0
   -0.6060   12.8310   -2.5120 C   0  0  0  0  0  0  0  0  0  0  0  0
    0.4310   13.9470   -2.2430 C   0  0  1  0  0  0  0  0  0  0  0  0
   -0.1260   15.2000   -2.9890 C   0  0  0  0  0  0  0  0  0  0  0  0
    0.7380   14.2580   -0.7420 C   0  0  2  0  0  0  0  0  0  0  0  0
   -0.4590   14.7740    0.0750 C   0  0  0  0  0  0  0  0  0  0  0  0
   -0.6270   16.2570    0.0940 C   0  0  0  0  0  0  0  0  0  0  0  0
    0.3050   17.1540   -0.2800 C   0  0  0  0  0  0  0  0  0  0  0  0
    1.7140   16.7040   -0.6850 C   0  0  1  0  0  0  0  0  0  0  0  0
    2.7670   17.6010    0.0180 C   0  0  0  0  0  0  0  0  0  0  0  0
    2.5330   19.0870   -0.2360 C   0  0  0  0  0  0  0  0  0  0  0  0
    1.1430   19.5090    0.2330 C   0  0  2  0  0  0  0  0  0  0  0  0
    1.0850   19.4000    1.6590 O   0  0  0  0  0  0  0  0  0  0  0  0
    0.0010   18.6680   -0.4020 C   0  0  0  0  0  0  0  0  0  0  0  0
   -0.1290   19.0180   -1.9050 C   0  0  0  0  0  0  0  0  0  0  0  0
   -1.3350   19.1000    0.2610 C   0  0  0  0  0  0  0  0  0  0  0  0
    2.0220   15.1540   -0.5160 C   0  0  1  0  0  0  0  0  0  0  0  0
    2.5170   14.8650    0.9350 C   0  0  0  0  0  0  0  0  0  0  0  0
    3.2060   14.7580   -1.4760 C   0  0  0  0  0  0  0  0  0  0  0  0
    2.8270   14.3450   -2.9110 C   0  0  0  0  0  0  0  0  0  0  0  0
    1.7040   13.3040   -2.9040 C   0  0  2  0  0  0  0  0  0  0  0  0
    2.2430   12.0230   -2.1800 C   0  0  0  0  0  0  0  0  0  0  0  0
    2.8057   11.4204   -3.1732 H   0  0  0  0  0  0  0  0  0  0  0  0
    3.1145   10.1925   -4.4474 H   0  0  0  0  0  0  0  0  0  0  0  0
    4.0315   11.7371   -4.4474 H   0  0  0  0  0  0  0  0  0  0  0  0
    1.3429   11.1003   -5.4947 H   0  0  0  0  0  0  0  0  0  0  0  0
    3.6389   12.8631   -6.1131 H   0  0  0  0  0  0  0  0  0  0  0  0
    2.4622   11.9769   -7.1958 H   0  0  0  0  0  0  0  0  0  0  0  0
    0.7924   13.7671   -6.7488 H   0  0  0  0  0  0  0  0  0  0  0  0
    2.0872   14.6793   -5.8674 H   0  0  0  0  0  0  0  0  0  0  0  0
    2.9799   13.6396   -8.1521 H   0  0  0  0  0  0  0  0  0  0  0  0
   -0.0256   15.7467   -7.4353 H   0  0  0  0  0  0  0  0  0  0  0  0
   -0.1714   16.7027   -8.9490 H   0  0  0  0  0  0  0  0  0  0  0  0
   -0.5785   14.9532   -8.9490 H   0  0  0  0  0  0  0  0  0  0  0  0
    2.9398   15.7994  -10.3994 H   0  0  0  0  0  0  0  0  0  0  0  0
    1.7433   14.5234  -10.8080 H   0  0  0  0  0  0  0  0  0  0  0  0
    1.2498   16.2506  -10.8080 H   0  0  0  0  0  0  0  0  0  0  0  0
    1.1282   13.7392   -4.9669 H   0  0  0  0  0  0  0  0  0  0  0  0
   -1.0020   12.6415   -4.6561 H   0  0  0  0  0  0  0  0  0  0  0  0
   -0.2433   11.2012   -3.9447 H   0  0  0  0  0  0  0  0  0  0  0  0
   -1.6278   13.2379   -2.4938 H   0  0  0  0  0  0  0  0  0  0  0  0
   -0.5733   12.0388   -1.7496 H   0  0  0  0  0  0  0  0  0  0  0  0
   -0.4582   15.9472   -2.2532 H   0  0  0  0  0  0  0  0  0  0  0  0
    0.6645   15.6327   -3.6197 H   0  0  0  0  0  0  0  0  0  0  0  0
   -0.9769   14.9030   -3.6197 H   0  0  0  0  0  0  0  0  0  0  0  0
    0.9687   13.2619   -0.3364 H   0  0  0  0  0  0  0  0  0  0  0  0
   -1.3741   14.3338   -0.3479 H   0  0  0  0  0  0  0  0  0  0  0  0
   -0.2671   14.4764    1.1165 H   0  0  0  0  0  0  0  0  0  0  0  0
   -1.5933   16.6501    0.4428 H   0  0  0  0  0  0  0  0  0  0  0  0
    1.7753   16.8413   -1.7747 H   0  0  0  0  0  0  0  0  0  0  0  0
    2.7201   17.4168    1.1015 H   0  0  0  0  0  0  0  0  0  0  0  0
    3.7537   17.3432   -0.3942 H   0  0  0  0  0  0  0  0  0  0  0  0
    3.2894   19.6691    0.3108 H   0  0  0  0  0  0  0  0  0  0  0  0
    2.6104   19.2746   -1.3171 H   0  0  0  0  0  0  0  0  0  0  0  0
    0.9859   20.5478   -0.0929 H   0  0  0  0  0  0  0  0  0  0  0  0
    1.9630   19.6320    2.0070 H   0  0  0  0  0  0  0  0  0  0  0  0
   -0.5102   20.0444   -2.0108 H   0  0  0  0  0  0  0  0  0  0  0  0
    0.8574   18.9418   -2.3859 H   0  0  0  0  0  0  0  0  0  0  0  0
   -0.8265   18.3164   -2.3859 H   0  0  0  0  0  0  0  0  0  0  0  0
   -1.2291   19.0658    1.3554 H   0  0  0  0  0  0  0  0  0  0  0  0
   -1.5848   20.1247   -0.0513 H   0  0  0  0  0  0  0  0  0  0  0  0
   -2.1375   18.4156   -0.0513 H   0  0  0  0  0  0  0  0  0  0  0  0
    1.8004   15.2834    1.6570 H   0  0  0  0  0  0  0  0  0  0  0  0
    2.5970   13.7783    1.0855 H   0  0  0  0  0  0  0  0  0  0  0  0
    3.5027   15.3295    1.0855 H   0  0  0  0  0  0  0  0  0  0  0  0
    3.8816   15.6233   -1.5460 H   0  0  0  0  0  0  0  0  0  0  0  0
    3.6537   13.8595   -1.0262 H   0  0  0  0  0  0  0  0  0  0  0  0
    2.4899   15.2341   -3.4640 H   0  0  0  0  0  0  0  0  0  0  0  0
    3.7113   13.9033   -3.3936 H   0  0  0  0  0  0  0  0  0  0  0  0
    2.1833   12.1649   -1.0908 H   0  0  0  0  0  0  0  0  0  0  0  0
    1.6342   11.1541   -2.4705 H   0  0  0  0  0  0  0  0  0  0  0  0
    3.2899   11.8508   -2.4705 H   0  0  0  0  0  0  0  0  0  0  0  0
  1  2  1  0
  2  3  1  0
  3  4  1  0
  4  5  1  0
  5  6  1  0
  6  7  1  0
  7  8  1  0
  7  9  1  0
  2 10  1  0
 10 11  1  0
 11 12  1  0
 12 13  1  0
 13 14  1  6
 13 15  1  0
 15 16  1  0
 16 17  1  0
 17 18  2  0
 18 19  1  0
 19 20  1  0
 20 21  1  0
 21 22  1  0
 22 23  1  0
 22 24  1  0
 24 25  1  0
 24 26  1  0
 19 27  1  0
 27 28  1  1
 27 29  1  0
 29 30  1  0
 30 31  1  0
 31 32  1  1
  7  5  1  0
 31 10  1  0
 31 13  1  0
 27 15  1  0
 24 18  1  0
  1 33  1  0
  1 34  1  0
  1 35  1  0
  2 36  1  6
  3 37  1  0
  3 38  1  0
  4 39  1  0
  4 40  1  0
  5 41  1  6
  8 42  1  0
  8 43  1  0
  8 44  1  0
  9 45  1  0
  9 46  1  0
  9 47  1  0
 10 48  1  6
 11 49  1  0
 11 50  1  0
 12 51  1  0
 12 52  1  0
 14 53  1  0
 14 54  1  0
 14 55  1  0
 15 56  1  1
 16 57  1  0
 16 58  1  0
 17 59  1  0
 19 60  1  6
 20 61  1  0
 20 62  1  0
 21 63  1  0
 21 64  1  0
 22 65  1  1
 23 66  1  0
 25 67  1  0
 25 68  1  0
 25 69  1  0
 26 70  1  0
 26 71  1  0
 26 72  1  0
 28 73  1  0
 28 74  1  0
 28 75  1  0
 29 76  1  0
 29 77  1  0
 30 78  1  0
 30 79  1  0
 32 80  1  0
 32 81  1  0
 32 82  1  0
M  END
>  <meeko>  (17) 
{"is_sidechain": [false], "intermolecular_energy": 2.731, "internal_energy": -0.839}

$$$$
EPH_relaxed_0001_pdb2pqr_Repair_188_r2_0001_out
     RDKit          3D

 82 86  0  0  0  0  0  0  0  0999 V2000
    1.5410   18.4490   -2.0120 C   0  0  0  0  0  0  0  0  0  0  0  0
    2.0360   17.3500   -2.9560 C   0  0  2  0  0  0  0  0  0  0  0  0
    1.0720   17.1220   -4.1380 C   0  0  0  0  0  0  0  0  0  0  0  0
    1.4610   15.9390   -5.0300 C   0  0  0  0  0  0  0  0  0  0  0  0
    0.4890   15.7510   -6.1560 C   0  0  2  0  0  0  0  0  0  0  0  0
    0.4970   14.4430   -6.7410 O   0  0  0  0  0  0  0  0  0  0  0  0
    0.9110   15.5210   -7.5950 C   0  0  0  0  0  0  0  0  0  0  0  0
    2.3550   15.4680   -7.9860 C   0  0  0  0  0  0  0  0  0  0  0  0
   -0.0650   15.8350   -8.6850 C   0  0  0  0  0  0  0  0  0  0  0  0
    2.2310   16.0500   -2.1840 C   0  0  1  0  0  0  0  0  0  0  0  0
    2.9250   16.2680   -0.8140 C   0  0  0  0  0  0  0  0  0  0  0  0
    2.3110   15.2370    0.1680 C   0  0  0  0  0  0  0  0  0  0  0  0
    1.5360   14.2510   -0.7370 C   0  0  1  0  0  0  0  0  0  0  0  0
    2.6200   13.2710   -1.2850 C   0  0  0  0  0  0  0  0  0  0  0  0
    0.3510   13.4830   -0.0660 C   0  0  2  0  0  0  0  0  0  0  0  0
    0.7490   12.5550    1.0960 C   0  0  0  0  0  0  0  0  0  0  0  0
    1.0710   11.1500    0.7080 C   0  0  0  0  0  0  0  0  0  0  0  0
    0.7710   10.5760   -0.4720 C   0  0  0  0  0  0  0  0  0  0  0  0
   -0.0490   11.3280   -1.5280 C   0  0  1  0  0  0  0  0  0  0  0  0
   -1.1590   10.3960   -2.0820 C   0  0  0  0  0  0  0  0  0  0  0  0
   -0.6050    9.0740   -2.6050 C   0  0  0  0  0  0  0  0  0  0  0  0
    0.1530    8.3290   -1.5100 C   0  0  2  0  0  0  0  0  0  0  0  0
   -0.7750    7.9260   -0.4990 O   0  0  0  0  0  0  0  0  0  0  0  0
    1.2910    9.1730   -0.8700 C   0  0  0  0  0  0  0  0  0  0  0  0
    2.4430    9.3530   -1.8900 C   0  0  0  0  0  0  0  0  0  0  0  0
    1.8820    8.3580    0.3120 C   0  0  0  0  0  0  0  0  0  0  0  0
   -0.6090   12.7490   -1.0880 C   0  0  1  0  0  0  0  0  0  0  0  0
   -1.9820   12.5810   -0.3690 C   0  0  0  0  0  0  0  0  0  0  0  0
   -0.8840   13.6130   -2.3750 C   0  0  0  0  0  0  0  0  0  0  0  0
    0.2940   14.4430   -2.9210 C   0  0  0  0  0  0  0  0  0  0  0  0
    0.9590   15.2520   -1.8030 C   0  0  2  0  0  0  0  0  0  0  0  0
   -0.1020   16.2620   -1.2470 C   0  0  0  0  0  0  0  0  0  0  0  0
    1.6851   18.1292   -0.9694 H   0  0  0  0  0  0  0  0  0  0  0  0
    2.1101   19.3726   -2.1942 H   0  0  0  0  0  0  0  0  0  0  0  0
    0.4722   18.6349   -2.1942 H   0  0  0  0  0  0  0  0  0  0  0  0
    2.9979   17.6815   -3.3740 H   0  0  0  0  0  0  0  0  0  0  0  0
    0.0656   16.9367   -3.7346 H   0  0  0  0  0  0  0  0  0  0  0  0
    1.1129   18.0248   -4.7651 H   0  0  0  0  0  0  0  0  0  0  0  0
    2.4613   16.1224   -5.4493 H   0  0  0  0  0  0  0  0  0  0  0  0
    1.4530   15.0277   -4.4141 H   0  0  0  0  0  0  0  0  0  0  0  0
   -0.2156   16.4609   -5.6981 H   0  0  0  0  0  0  0  0  0  0  0  0
    2.9794   15.4451   -7.0807 H   0  0  0  0  0  0  0  0  0  0  0  0
    2.5404   14.5624   -8.5823 H   0  0  0  0  0  0  0  0  0  0  0  0
    2.6063   16.3575   -8.5823 H   0  0  0  0  0  0  0  0  0  0  0  0
   -1.0233   16.1433   -8.2415 H   0  0  0  0  0  0  0  0  0  0  0  0
    0.3305   16.6512   -9.3074 H   0  0  0  0  0  0  0  0  0  0  0  0
   -0.2197   14.9413   -9.3074 H   0  0  0  0  0  0  0  0  0  0  0  0
    2.8232   15.4854   -2.9192 H   0  0  0  0  0  0  0  0  0  0  0  0
    4.0085   16.1030   -0.9078 H   0  0  0  0  0  0  0  0  0  0  0  0
    2.7726   17.2960   -0.4534 H   0  0  0  0  0  0  0  0  0  0  0  0
    3.1014   14.7132    0.7256 H   0  0  0  0  0  0  0  0  0  0  0  0
    1.6629   15.7112    0.9198 H   0  0  0  0  0  0  0  0  0  0  0  0
    3.1448   12.7966   -0.4427 H   0  0  0  0  0  0  0  0  0  0  0  0
    2.1373   12.4966   -1.8993 H   0  0  0  0  0  0  0  0  0  0  0  0
    3.3419   13.8291   -1.8993 H   0  0  0  0  0  0  0  0  0  0  0  0
   -0.2304   14.2990    0.3880 H   0  0  0  0  0  0  0  0  0  0  0  0
    1.6357   12.9842    1.5854 H   0  0  0  0  0  0  0  0  0  0  0  0
   -0.1312   12.4953    1.7531 H   0  0  0  0  0  0  0  0  0  0  0  0
    1.5981   10.5313    1.4492 H   0  0  0  0  0  0  0  0  0  0  0  0
    0.6555   11.5882   -2.3317 H   0  0  0  0  0  0  0  0  0  0  0  0
   -1.8762   10.1835   -1.2755 H   0  0  0  0  0  0  0  0  0  0  0  0
   -1.6400   10.9136   -2.9250 H   0  0  0  0  0  0  0  0  0  0  0  0
   -1.4387    8.4478   -2.9556 H   0  0  0  0  0  0  0  0  0  0  0  0
    0.0900    9.2867   -3.4307 H   0  0  0  0  0  0  0  0  0  0  0  0
    0.6343    7.4569   -1.9766 H   0  0  0  0  0  0  0  0  0  0  0  0
   -1.5780    8.4640   -0.6060 H   0  0  0  0  0  0  0  0  0  0  0  0
    3.3903    9.5010   -1.3509 H   0  0  0  0  0  0  0  0  0  0  0  0
    2.5170    8.4555   -2.5217 H   0  0  0  0  0  0  0  0  0  0  0  0
    2.2397   10.2303   -2.5217 H   0  0  0  0  0  0  0  0  0  0  0  0
    1.5581    8.8047    1.2636 H   0  0  0  0  0  0  0  0  0  0  0  0
    1.5262    7.3187    0.2549 H   0  0  0  0  0  0  0  0  0  0  0  0
    2.9804    8.3732    0.2549 H   0  0  0  0  0  0  0  0  0  0  0  0
   -1.8302   12.5996    0.7203 H   0  0  0  0  0  0  0  0  0  0  0  0
   -2.6514   13.4039   -0.6600 H   0  0  0  0  0  0  0  0  0  0  0  0
   -2.4332   11.6209   -0.6600 H   0  0  0  0  0  0  0  0  0  0  0  0
   -1.2060   12.9278   -3.1730 H   0  0  0  0  0  0  0  0  0  0  0  0
   -1.6387   14.3523   -2.0688 H   0  0  0  0  0  0  0  0  0  0  0  0
    1.0371   13.7644   -3.3651 H   0  0  0  0  0  0  0  0  0  0  0  0
   -0.0904   15.1417   -3.6787 H   0  0  0  0  0  0  0  0  0  0  0  0
   -0.0837   16.2446   -0.1473 H   0  0  0  0  0  0  0  0  0  0  0  0
    0.1357   17.2758   -1.6017 H   0  0  0  0  0  0  0  0  0  0  0  0
   -1.1028   15.9747   -1.6017 H   0  0  0  0  0  0  0  0  0  0  0  0
  1  2  1  0
  2  3  1  0
  3  4  1  0
  4  5  1  0
  5  6  1  0
  6  7  1  0
  7  8  1  0
  7  9  1  0
  2 10  1  0
 10 11  1  0
 11 12  1  0
 12 13  1  0
 13 14  1  6
 13 15  1  0
 15 16  1  0
 16 17  1  0
 17 18  2  0
 18 19  1  0
 19 20  1  0
 20 21  1  0
 21 22  1  0
 22 23  1  0
 22 24  1  0
 24 25  1  0
 24 26  1  0
 19 27  1  0
 27 28  1  1
 27 29  1  0
 29 30  1  0
 30 31  1  0
 31 32  1  1
  7  5  1  0
 31 10  1  0
 31 13  1  0
 27 15  1  0
 24 18  1  0
  1 33  1  0
  1 34  1  0
  1 35  1  0
  2 36  1  6
  3 37  1  0
  3 38  1  0
  4 39  1  0
  4 40  1  0
  5 41  1  6
  8 42  1  0
  8 43  1  0
  8 44  1  0
  9 45  1  0
  9 46  1  0
  9 47  1  0
 10 48  1  6
 11 49  1  0
 11 50  1  0
 12 51  1  0
 12 52  1  0
 14 53  1  0
 14 54  1  0
 14 55  1  0
 15 56  1  1
 16 57  1  0
 16 58  1  0
 17 59  1  0
 19 60  1  6
 20 61  1  0
 20 62  1  0
 21 63  1  0
 21 64  1  0
 22 65  1  6
 23 66  1  0
 25 67  1  0
 25 68  1  0
 25 69  1  0
 26 70  1  0
 26 71  1  0
 26 72  1  0
 28 73  1  0
 28 74  1  0
 28 75  1  0
 29 76  1  0
 29 77  1  0
 30 78  1  0
 30 79  1  0
 32 80  1  0
 32 81  1  0
 32 82  1  0
M  END
>  <meeko>  (18) 
{"is_sidechain": [false], "intermolecular_energy": 2.731, "internal_energy": -0.839}

$$$$
EPH_relaxed_0001_pdb2pqr_Repair_188_r2_0001_out
     RDKit          3D

 82 86  0  0  0  0  0  0  0  0999 V2000
    2.2560   13.9840   -1.8930 C   0  0  0  0  0  0  0  0  0  0  0  0
    1.5620   13.7310   -3.2340 C   0  0  2  0  0  0  0  0  0  0  0  0
    0.4270   14.7400   -3.5000 C   0  0  0  0  0  0  0  0  0  0  0  0
    0.8880   16.2000   -3.4950 C   0  0  0  0  0  0  0  0  0  0  0  0
    0.4200   16.9250   -2.2700 C   0  0  2  0  0  0  0  0  0  0  0  0
    0.2420   18.3370   -2.4410 O   0  0  0  0  0  0  0  0  0  0  0  0
    1.2680   17.9340   -1.5200 C   0  0  0  0  0  0  0  0  0  0  0  0
    2.6560   18.2730   -1.9670 C   0  0  0  0  0  0  0  0  0  0  0  0
    0.9400   18.2220   -0.0880 C   0  0  0  0  0  0  0  0  0  0  0  0
    1.0150   12.3090   -3.2750 C   0  0  1  0  0  0  0  0  0  0  0  0
    2.1300   11.2450   -3.4580 C   0  0  0  0  0  0  0  0  0  0  0  0
    1.6950    9.9970   -2.6460 C   0  0  0  0  0  0  0  0  0  0  0  0
    0.2100   10.2550   -2.3010 C   0  0  1  0  0  0  0  0  0  0  0  0
   -0.5770    9.8490   -3.5860 C   0  0  0  0  0  0  0  0  0  0  0  0
   -0.3410    9.5260   -1.0320 C   0  0  2  0  0  0  0  0  0  0  0  0
   -0.3250    7.9890   -1.1040 C   0  0  0  0  0  0  0  0  0  0  0  0
   -1.5620    7.3630   -1.6560 C   0  0  0  0  0  0  0  0  0  0  0  0
   -2.7480    7.9800   -1.8130 C   0  0  0  0  0  0  0  0  0  0  0  0
   -2.9570    9.4200   -1.3250 C   0  0  1  0  0  0  0  0  0  0  0  0
   -4.2950    9.5130   -0.5450 C   0  0  0  0  0  0  0  0  0  0  0  0
   -5.4800    8.9930   -1.3520 C   0  0  0  0  0  0  0  0  0  0  0  0
   -5.2610    7.5410   -1.7690 C   0  0  2  0  0  0  0  0  0  0  0  0
   -5.2660    6.7190   -0.5980 O   0  0  0  0  0  0  0  0  0  0  0  0
   -3.9370    7.3220   -2.5550 C   0  0  0  0  0  0  0  0  0  0  0  0
   -4.0520    7.9680   -3.9580 C   0  0  0  0  0  0  0  0  0  0  0  0
   -3.7690    5.7970   -2.7910 C   0  0  0  0  0  0  0  0  0  0  0  0
   -1.7420   10.0660   -0.5310 C   0  0  1  0  0  0  0  0  0  0  0  0
   -1.8420    9.7050    0.9830 C   0  0  0  0  0  0  0  0  0  0  0  0
   -1.8450   11.6350   -0.6210 C   0  0  0  0  0  0  0  0  0  0  0  0
   -1.1780   12.3060   -1.8360 C   0  0  0  0  0  0  0  0  0  0  0  0
    0.2560   11.8020   -2.0230 C   0  0  2  0  0  0  0  0  0  0  0  0
    1.0780   12.2150   -0.7550 C   0  0  0  0  0  0  0  0  0  0  0  0
    1.5688   13.7335   -1.0715 H   0  0  0  0  0  0  0  0  0  0  0  0
    3.1566   13.3563   -1.8220 H   0  0  0  0  0  0  0  0  0  0  0  0
    2.5413   15.0440   -1.8220 H   0  0  0  0  0  0  0  0  0  0  0  0
    2.3135   13.8637   -4.0262 H   0  0  0  0  0  0  0  0  0  0  0  0
   -0.0118   14.5177   -4.4839 H   0  0  0  0  0  0  0  0  0  0  0  0
   -0.2998   14.6295   -2.6818 H   0  0  0  0  0  0  0  0  0  0  0  0
    1.9872   16.2268   -3.5269 H   0  0  0  0  0  0  0  0  0  0  0  0
    0.4557   16.6990   -4.3748 H   0  0  0  0  0  0  0  0  0  0  0  0
   -0.1453   16.0426   -1.9355 H   0  0  0  0  0  0  0  0  0  0  0  0
    3.2968   18.4295   -1.0867 H   0  0  0  0  0  0  0  0  0  0  0  0
    3.0586   17.4468   -2.5714 H   0  0  0  0  0  0  0  0  0  0  0  0
    2.6324   19.1918   -2.5714 H   0  0  0  0  0  0  0  0  0  0  0  0
    1.6051   17.6380    0.5651 H   0  0  0  0  0  0  0  0  0  0  0  0
    1.0795   19.2947    0.1115 H   0  0  0  0  0  0  0  0  0  0  0  0
   -0.1057   17.9449    0.1115 H   0  0  0  0  0  0  0  0  0  0  0  0
    0.3205   12.4033   -4.1228 H   0  0  0  0  0  0  0  0  0  0  0  0
    2.2361   10.9866   -4.5219 H   0  0  0  0  0  0  0  0  0  0  0  0
    3.1007   11.6257   -3.1075 H   0  0  0  0  0  0  0  0  0  0  0  0
    1.8004    9.0841   -3.2506 H   0  0  0  0  0  0  0  0  0  0  0  0
    2.3123    9.8475   -1.7479 H   0  0  0  0  0  0  0  0  0  0  0  0
   -1.5208    9.3621   -3.2994 H   0  0  0  0  0  0  0  0  0  0  0  0
   -0.7942   10.7476   -4.1822 H   0  0  0  0  0  0  0  0  0  0  0  0
    0.0293    9.1512   -4.1822 H   0  0  0  0  0  0  0  0  0  0  0  0
    0.3989    9.7973   -0.2646 H   0  0  0  0  0  0  0  0  0  0  0  0
    0.5209    7.6874   -1.7392 H   0  0  0  0  0  0  0  0  0  0  0  0
   -0.2438    7.6369   -0.0650 H   0  0  0  0  0  0  0  0  0  0  0  0
   -1.4994    6.3078   -1.9604 H   0  0  0  0  0  0  0  0  0  0  0  0
   -3.0080   10.0435   -2.2298 H   0  0  0  0  0  0  0  0  0  0  0  0
   -4.2080    8.9186    0.3765 H   0  0  0  0  0  0  0  0  0  0  0  0
   -4.4806   10.5749   -0.3260 H   0  0  0  0  0  0  0  0  0  0  0  0
   -6.3901    9.0577   -0.7376 H   0  0  0  0  0  0  0  0  0  0  0  0
   -5.5836    9.6069   -2.2589 H   0  0  0  0  0  0  0  0  0  0  0  0
   -6.0798    7.2668   -2.4505 H   0  0  0  0  0  0  0  0  0  0  0  0
   -4.7520    5.9180   -0.7980 H   0  0  0  0  0  0  0  0  0  0  0  0
   -4.2439    9.0458   -3.8508 H   0  0  0  0  0  0  0  0  0  0  0  0
   -3.1127    7.8159   -4.5098 H   0  0  0  0  0  0  0  0  0  0  0  0
   -4.8811    7.5011   -4.5098 H   0  0  0  0  0  0  0  0  0  0  0  0
   -3.7121    5.2801   -1.8217 H   0  0  0  0  0  0  0  0  0  0  0  0
   -4.6307    5.4168   -3.3593 H   0  0  0  0  0  0  0  0  0  0  0  0
   -2.8452    5.6135   -3.3593 H   0  0  0  0  0  0  0  0  0  0  0  0
   -1.5968   10.5903    1.5880 H   0  0  0  0  0  0  0  0  0  0  0  0
   -2.8654    9.3748    1.2144 H   0  0  0  0  0  0  0  0  0  0  0  0
   -1.1343    8.8953    1.2144 H   0  0  0  0  0  0  0  0  0  0  0  0
   -2.9130   11.8978   -0.6404 H   0  0  0  0  0  0  0  0  0  0  0  0
   -1.2937   12.0103    0.2538 H   0  0  0  0  0  0  0  0  0  0  0  0
   -1.7612   12.0749   -2.7396 H   0  0  0  0  0  0  0  0  0  0  0  0
   -1.1480   13.3920   -1.6638 H   0  0  0  0  0  0  0  0  0  0  0  0
    0.5203   11.9348    0.1508 H   0  0  0  0  0  0  0  0  0  0  0  0
    2.0487   11.6976   -0.7627 H   0  0  0  0  0  0  0  0  0  0  0  0
    1.2422   13.3026   -0.7627 H   0  0  0  0  0  0  0  0  0  0  0  0
  1  2  1  0
  2  3  1  0
  3  4  1  0
  4  5  1  0
  5  6  1  0
  6  7  1  0
  7  8  1  0
  7  9  1  0
  2 10  1  0
 10 11  1  0
 11 12  1  0
 12 13  1  0
 13 14  1  6
 13 15  1  0
 15 16  1  0
 16 17  1  0
 17 18  2  0
 18 19  1  0
 19 20  1  0
 20 21  1  0
 21 22  1  0
 22 23  1  0
 22 24  1  0
 24 25  1  0
 24 26  1  0
 19 27  1  0
 27 28  1  1
 27 29  1  0
 29 30  1  0
 30 31  1  0
 31 32  1  1
  7  5  1  0
 31 10  1  0
 31 13  1  0
 27 15  1  0
 24 18  1  0
  1 33  1  0
  1 34  1  0
  1 35  1  0
  2 36  1  6
  3 37  1  0
  3 38  1  0
  4 39  1  0
  4 40  1  0
  5 41  1  1
  8 42  1  0
  8 43  1  0
  8 44  1  0
  9 45  1  0
  9 46  1  0
  9 47  1  0
 10 48  1  6
 11 49  1  0
 11 50  1  0
 12 51  1  0
 12 52  1  0
 14 53  1  0
 14 54  1  0
 14 55  1  0
 15 56  1  1
 16 57  1  0
 16 58  1  0
 17 59  1  0
 19 60  1  6
 20 61  1  0
 20 62  1  0
 21 63  1  0
 21 64  1  0
 22 65  1  6
 23 66  1  0
 25 67  1  0
 25 68  1  0
 25 69  1  0
 26 70  1  0
 26 71  1  0
 26 72  1  0
 28 73  1  0
 28 74  1  0
 28 75  1  0
 29 76  1  0
 29 77  1  0
 30 78  1  0
 30 79  1  0
 32 80  1  0
 32 81  1  0
 32 82  1  0
M  END
>  <meeko>  (19) 
{"is_sidechain": [false], "intermolecular_energy": 2.731, "internal_energy": -0.839}

$$$$
