EPH_relaxed_0001_pdb2pqr_Repair_361_r2_0001_out
     RDKit          3D

 82 86  0  0  0  0  0  0  0  0999 V2000
    2.2720   20.1940   -0.7000 C   0  0  0  0  0  0  0  0  0  0  0  0
    2.0420   19.1870    0.4300 C   0  0  2  0  0  0  0  0  0  0  0  0
    3.3640   18.7240    1.0740 C   0  0  0  0  0  0  0  0  0  0  0  0
    3.9110   19.6950    2.1230 C   0  0  0  0  0  0  0  0  0  0  0  0
    5.1900   19.1970    2.7260 C   0  0  2  0  0  0  0  0  0  0  0  0
    5.1030   17.8980    3.3260 O   0  0  0  0  0  0  0  0  0  0  0  0
    5.3870   18.9900    4.2160 C   0  0  0  0  0  0  0  0  0  0  0  0
    4.2930   19.2780    5.1950 C   0  0  0  0  0  0  0  0  0  0  0  0
    6.7820   18.9780    4.7580 C   0  0  0  0  0  0  0  0  0  0  0  0
    1.2690   17.9830   -0.0970 C   0  0  1  0  0  0  0  0  0  0  0  0
    0.2500   18.3650   -1.2040 C   0  0  0  0  0  0  0  0  0  0  0  0
    0.2150   17.1830   -2.2060 C   0  0  0  0  0  0  0  0  0  0  0  0
    0.9510   16.0330   -1.4790 C   0  0  1  0  0  0  0  0  0  0  0  0
   -0.1150   15.4170   -0.5200 C   0  0  0  0  0  0  0  0  0  0  0  0
    1.6040   14.9450   -2.3920 C   0  0  2  0  0  0  0  0  0  0  0  0
    0.6190   14.1490   -3.2660 C   0  0  0  0  0  0  0  0  0  0  0  0
    0.0800   12.9030   -2.6450 C   0  0  0  0  0  0  0  0  0  0  0  0
    0.5830   12.2890   -1.5580 C   0  0  0  0  0  0  0  0  0  0  0  0
    1.8700   12.7940   -0.8940 C   0  0  1  0  0  0  0  0  0  0  0  0
    2.8100   11.5940   -0.6070 C   0  0  0  0  0  0  0  0  0  0  0  0
    2.1270   10.4970    0.2040 C   0  0  0  0  0  0  0  0  0  0  0  0
    0.8850    9.9800   -0.5170 C   0  0  2  0  0  0  0  0  0  0  0  0
    1.2910    9.3090   -1.7130 O   0  0  0  0  0  0  0  0  0  0  0  0
   -0.1320   11.1020   -0.8670 C   0  0  0  0  0  0  0  0  0  0  0  0
   -0.7980   11.6250    0.4300 C   0  0  0  0  0  0  0  0  0  0  0  0
   -1.2690   10.4690   -1.7140 C   0  0  0  0  0  0  0  0  0  0  0  0
    2.6130   13.9860   -1.6380 C   0  0  1  0  0  0  0  0  0  0  0  0
    3.5800   13.4180   -2.7200 C   0  0  0  0  0  0  0  0  0  0  0  0
    3.5110   14.7590   -0.6010 C   0  0  0  0  0  0  0  0  0  0  0  0
    2.8390   15.9020    0.1840 C   0  0  0  0  0  0  0  0  0  0  0  0
    2.0870   16.8470   -0.7590 C   0  0  2  0  0  0  0  0  0  0  0  0
    3.1380   17.4990   -1.7210 C   0  0  0  0  0  0  0  0  0  0  0  0
    2.4975   21.1814   -0.2709 H   0  0  0  0  0  0  0  0  0  0  0  0
    3.1175   19.8621   -1.3205 H   0  0  0  0  0  0  0  0  0  0  0  0
    1.3663   20.2620   -1.3205 H   0  0  0  0  0  0  0  0  0  0  0  0
    1.4552   19.6935    1.2105 H   0  0  0  0  0  0  0  0  0  0  0  0
    3.1926   17.7510    1.5575 H   0  0  0  0  0  0  0  0  0  0  0  0
    4.1110   18.6669    0.2686 H   0  0  0  0  0  0  0  0  0  0  0  0
    4.0973   20.6681    1.6452 H   0  0  0  0  0  0  0  0  0  0  0  0
    3.1658   19.7868    2.9269 H   0  0  0  0  0  0  0  0  0  0  0  0
    5.7828   19.7342    1.9710 H   0  0  0  0  0  0  0  0  0  0  0  0
    4.6812   19.1758    6.2191 H   0  0  0  0  0  0  0  0  0  0  0  0
    3.9254   20.3035    5.0428 H   0  0  0  0  0  0  0  0  0  0  0  0
    3.4681   18.5664    5.0428 H   0  0  0  0  0  0  0  0  0  0  0  0
    6.7482   18.9783    5.8575 H   0  0  0  0  0  0  0  0  0  0  0  0
    7.3038   18.0753    4.4074 H   0  0  0  0  0  0  0  0  0  0  0  0
    7.3193   19.8716    4.4074 H   0  0  0  0  0  0  0  0  0  0  0  0
    0.8215   17.6261    0.8423 H   0  0  0  0  0  0  0  0  0  0  0  0
   -0.7467   18.5190   -0.7647 H   0  0  0  0  0  0  0  0  0  0  0  0
    0.5428   19.2994   -1.7052 H   0  0  0  0  0  0  0  0  0  0  0  0
   -0.8226   16.8974   -2.4335 H   0  0  0  0  0  0  0  0  0  0  0  0
    0.6852   17.4372   -3.1674 H   0  0  0  0  0  0  0  0  0  0  0  0
    0.1863   15.5911    0.5235 H   0  0  0  0  0  0  0  0  0  0  0  0
   -1.0907   15.8905   -0.7038 H   0  0  0  0  0  0  0  0  0  0  0  0
   -0.1920   14.3352   -0.7038 H   0  0  0  0  0  0  0  0  0  0  0  0
    2.2004   15.5507   -3.0902 H   0  0  0  0  0  0  0  0  0  0  0  0
   -0.2310   14.8053   -3.5045 H   0  0  0  0  0  0  0  0  0  0  0  0
    1.1881   13.8270   -4.1505 H   0  0  0  0  0  0  0  0  0  0  0  0
   -0.8037   12.4478   -3.1160 H   0  0  0  0  0  0  0  0  0  0  0  0
    1.5602   13.2607    0.0527 H   0  0  0  0  0  0  0  0  0  0  0  0
    3.1420   11.1690   -1.5657 H   0  0  0  0  0  0  0  0  0  0  0  0
    3.6581   11.9683   -0.0148 H   0  0  0  0  0  0  0  0  0  0  0  0
    2.8316    9.6649    0.3494 H   0  0  0  0  0  0  0  0  0  0  0  0
    1.8215   10.9156    1.1743 H   0  0  0  0  0  0  0  0  0  0  0  0
    0.3691    9.2916    0.1686 H   0  0  0  0  0  0  0  0  0  0  0  0
    2.0680    9.7770   -2.0640 H   0  0  0  0  0  0  0  0  0  0  0  0
   -0.2727   11.2125    1.3040 H   0  0  0  0  0  0  0  0  0  0  0  0
   -0.7424   12.7233    0.4535 H   0  0  0  0  0  0  0  0  0  0  0  0
   -1.8518   11.3106    0.4535 H   0  0  0  0  0  0  0  0  0  0  0  0
   -2.0318   10.0443   -1.0448 H   0  0  0  0  0  0  0  0  0  0  0  0
   -1.7272   11.2418   -2.3486 H   0  0  0  0  0  0  0  0  0  0  0  0
   -0.8535    9.6724   -2.3486 H   0  0  0  0  0  0  0  0  0  0  0  0
    4.4284   12.9197   -2.2282 H   0  0  0  0  0  0  0  0  0  0  0  0
    3.0422   12.6923   -3.3478 H   0  0  0  0  0  0  0  0  0  0  0  0
    3.9520   14.2411   -3.3478 H   0  0  0  0  0  0  0  0  0  0  0  0
    3.8810   14.0256    0.1305 H   0  0  0  0  0  0  0  0  0  0  0  0
    4.2931   15.2445   -1.2032 H   0  0  0  0  0  0  0  0  0  0  0  0
    2.1283   15.4734    0.9059 H   0  0  0  0  0  0  0  0  0  0  0  0
    3.6194   16.4752    0.7059 H   0  0  0  0  0  0  0  0  0  0  0  0
    3.9250   17.9872   -1.1275 H   0  0  0  0  0  0  0  0  0  0  0  0
    3.5869   16.7205   -2.3554 H   0  0  0  0  0  0  0  0  0  0  0  0
    2.6399   18.2470   -2.3554 H   0  0  0  0  0  0  0  0  0  0  0  0
  1  2  1  0
  2  3  1  0
  3  4  1  0
  4  5  1  0
  5  6  1  0
  6  7  1  0
  7  8  1  0
  7  9  1  0
  2 10  1  0
 10 11  1  0
 11 12  1  0
 12 13  1  0
 13 14  1  1
 13 15  1  0
 15 16  1  0
 16 17  1  0
 17 18  2  0
 18 19  1  0
 19 20  1  0
 20 21  1  0
 21 22  1  0
 22 23  1  0
 22 24  1  0
 24 25  1  0
 24 26  1  0
 19 27  1  0
 27 28  1  6
 27 29  1  0
 29 30  1  0
 30 31  1  0
 31 32  1  6
  7  5  1  0
 31 10  1  0
 31 13  1  0
 27 15  1  0
 24 18  1  0
  1 33  1  0
  1 34  1  0
  1 35  1  0
  2 36  1  1
  3 37  1  0
  3 38  1  0
  4 39  1  0
  4 40  1  0
  5 41  1  6
  8 42  1  0
  8 43  1  0
  8 44  1  0
  9 45  1  0
  9 46  1  0
  9 47  1  0
 10 48  1  1
 11 49  1  0
 11 50  1  0
 12 51  1  0
 12 52  1  0
 14 53  1  0
 14 54  1  0
 14 55  1  0
 15 56  1  6
 16 57  1  0
 16 58  1  0
 17 59  1  0
 19 60  1  1
 20 61  1  0
 20 62  1  0
 21 63  1  0
 21 64  1  0
 22 65  1  1
 23 66  1  0
 25 67  1  0
 25 68  1  0
 25 69  1  0
 26 70  1  0
 26 71  1  0
 26 72  1  0
 28 73  1  0
 28 74  1  0
 28 75  1  0
 29 76  1  0
 29 77  1  0
 30 78  1  0
 30 79  1  0
 32 80  1  0
 32 81  1  0
 32 82  1  0
M  END
>  <meeko>  (1) 
{"is_sidechain": [false], "intermolecular_energy": 2.731, "internal_energy": -0.839}

$$$$
EPH_relaxed_0001_pdb2pqr_Repair_361_r2_0001_out
     RDKit          3D

 82 86  0  0  0  0  0  0  0  0999 V2000
    2.7100   18.9290   -1.2290 C   0  0  0  0  0  0  0  0  0  0  0  0
    2.4280   17.8840   -2.3110 C   0  0  2  0  0  0  0  0  0  0  0  0
    1.0050   18.0150   -2.8890 C   0  0  0  0  0  0  0  0  0  0  0  0
    0.2920   19.3080   -2.4830 C   0  0  0  0  0  0  0  0  0  0  0  0
   -1.0010   19.0300   -1.7780 C   0  0  2  0  0  0  0  0  0  0  0  0
   -1.7810   20.1940   -1.4770 O   0  0  0  0  0  0  0  0  0  0  0  0
   -1.2830   19.4560   -0.3490 C   0  0  0  0  0  0  0  0  0  0  0  0
   -0.2650   20.1940    0.4610 C   0  0  0  0  0  0  0  0  0  0  0  0
   -2.3480   18.7330    0.4150 C   0  0  0  0  0  0  0  0  0  0  0  0
    2.6340   16.4830   -1.7470 C   0  0  1  0  0  0  0  0  0  0  0  0
    3.5540   16.4710   -0.4980 C   0  0  0  0  0  0  0  0  0  0  0  0
    3.0200   15.3590    0.4410 C   0  0  0  0  0  0  0  0  0  0  0  0
    2.0300   14.5540   -0.4320 C   0  0  1  0  0  0  0  0  0  0  0  0
    2.9270   13.5900   -1.2710 C   0  0  0  0  0  0  0  0  0  0  0  0
    0.9070   13.7790    0.3310 C   0  0  2  0  0  0  0  0  0  0  0  0
    1.4060   12.6810    1.2880 C   0  0  0  0  0  0  0  0  0  0  0  0
    1.5430   11.3230    0.6840 C   0  0  0  0  0  0  0  0  0  0  0  0
    1.0110   10.9310   -0.4890 C   0  0  0  0  0  0  0  0  0  0  0  0
    0.1000   11.8680   -1.2930 C   0  0  1  0  0  0  0  0  0  0  0  0
   -1.1590   11.0900   -1.7600 C   0  0  0  0  0  0  0  0  0  0  0  0
   -0.8090    9.8180   -2.5260 C   0  0  0  0  0  0  0  0  0  0  0  0
    0.0500    8.8870   -1.6740 C   0  0  2  0  0  0  0  0  0  0  0  0
   -0.7360    8.4120   -0.5760 O   0  0  0  0  0  0  0  0  0  0  0  0
    1.3420    9.5640   -1.1370 C   0  0  0  0  0  0  0  0  0  0  0  0
    2.3270    9.8060   -2.3080 C   0  0  0  0  0  0  0  0  0  0  0  0
    2.0430    8.5640   -0.1800 C   0  0  0  0  0  0  0  0  0  0  0  0
   -0.2610   13.2500   -0.5960 C   0  0  1  0  0  0  0  0  0  0  0  0
   -1.5110   13.0740    0.3200 C   0  0  0  0  0  0  0  0  0  0  0  0
   -0.6650   14.2940   -1.7030 C   0  0  0  0  0  0  0  0  0  0  0  0
    0.4760   15.1130   -2.3350 C   0  0  0  0  0  0  0  0  0  0  0  0
    1.3760   15.7220   -1.2560 C   0  0  2  0  0  0  0  0  0  0  0  0
    0.5060   16.7140   -0.4100 C   0  0  0  0  0  0  0  0  0  0  0  0
    2.5865   18.4715   -0.2363 H   0  0  0  0  0  0  0  0  0  0  0  0
    3.7402   19.2993   -1.3365 H   0  0  0  0  0  0  0  0  0  0  0  0
    2.0059   19.7673   -1.3365 H   0  0  0  0  0  0  0  0  0  0  0  0
    3.1358   18.0615   -3.1341 H   0  0  0  0  0  0  0  0  0  0  0  0
    1.0719   17.9853   -3.9866 H   0  0  0  0  0  0  0  0  0  0  0  0
    0.4147   17.1810   -2.4817 H   0  0  0  0  0  0  0  0  0  0  0  0
    0.9481   19.8812   -1.8115 H   0  0  0  0  0  0  0  0  0  0  0  0
    0.0687   19.8780   -3.3969 H   0  0  0  0  0  0  0  0  0  0  0  0
   -1.1013   18.0633   -2.2932 H   0  0  0  0  0  0  0  0  0  0  0  0
   -0.4702   20.0453    1.5314 H   0  0  0  0  0  0  0  0  0  0  0  0
    0.7391   19.8126    0.2237 H   0  0  0  0  0  0  0  0  0  0  0  0
   -0.3152   21.2669    0.2237 H   0  0  0  0  0  0  0  0  0  0  0  0
   -2.1709   18.8532    1.4940 H   0  0  0  0  0  0  0  0  0  0  0  0
   -3.3323   19.1503    0.1562 H   0  0  0  0  0  0  0  0  0  0  0  0
   -2.3234   17.6642    0.1562 H   0  0  0  0  0  0  0  0  0  0  0  0
    3.0518   15.9863   -2.6351 H   0  0  0  0  0  0  0  0  0  0  0  0
    4.5907   16.2517   -0.7934 H   0  0  0  0  0  0  0  0  0  0  0  0
    3.5487   17.4490    0.0055 H   0  0  0  0  0  0  0  0  0  0  0  0
    3.8422   14.7164    0.7889 H   0  0  0  0  0  0  0  0  0  0  0  0
    2.5428   15.7685    1.3435 H   0  0  0  0  0  0  0  0  0  0  0  0
    3.5173   12.9556   -0.5934 H   0  0  0  0  0  0  0  0  0  0  0  0
    2.2903   12.9558   -1.9053 H   0  0  0  0  0  0  0  0  0  0  0  0
    3.6054   14.1794   -1.9053 H   0  0  0  0  0  0  0  0  0  0  0  0
    0.4755   14.5615    0.9725 H   0  0  0  0  0  0  0  0  0  0  0  0
    2.3922   12.9846    1.6690 H   0  0  0  0  0  0  0  0  0  0  0  0
    0.6400   12.5895    2.0721 H   0  0  0  0  0  0  0  0  0  0  0  0
    2.1283   10.5794    1.2448 H   0  0  0  0  0  0  0  0  0  0  0  0
    0.6870   12.1881   -2.1665 H   0  0  0  0  0  0  0  0  0  0  0  0
   -1.7532   10.8169   -0.8755 H   0  0  0  0  0  0  0  0  0  0  0  0
   -1.7235   11.7450   -2.4400 H   0  0  0  0  0  0  0  0  0  0  0  0
   -1.7377    9.2977   -2.8033 H   0  0  0  0  0  0  0  0  0  0  0  0
   -0.2401   10.0953   -3.4257 H   0  0  0  0  0  0  0  0  0  0  0  0
    0.3762    8.0574   -2.3186 H   0  0  0  0  0  0  0  0  0  0  0  0
   -1.5100    7.9530   -0.9450 H   0  0  0  0  0  0  0  0  0  0  0  0
    3.3214   10.0503   -1.9061 H   0  0  0  0  0  0  0  0  0  0  0  0
    2.3938    8.8976   -2.9247 H   0  0  0  0  0  0  0  0  0  0  0  0
    1.9652   10.6420   -2.9247 H   0  0  0  0  0  0  0  0  0  0  0  0
    1.8415    8.8515    0.8625 H   0  0  0  0  0  0  0  0  0  0  0  0
    1.6568    7.5502   -0.3620 H   0  0  0  0  0  0  0  0  0  0  0  0
    3.1277    8.5813   -0.3620 H   0  0  0  0  0  0  0  0  0  0  0  0
   -1.2017   13.1175    1.3747 H   0  0  0  0  0  0  0  0  0  0  0  0
   -2.2317   13.8795    0.1157 H   0  0  0  0  0  0  0  0  0  0  0  0
   -1.9812   12.1008    0.1157 H   0  0  0  0  0  0  0  0  0  0  0  0
   -1.1671   13.7434   -2.5122 H   0  0  0  0  0  0  0  0  0  0  0  0
   -1.2965   15.0316   -1.1861 H   0  0  0  0  0  0  0  0  0  0  0  0
    1.0791   14.4541   -2.9770 H   0  0  0  0  0  0  0  0  0  0  0  0
    0.0360   15.9293   -2.9267 H   0  0  0  0  0  0  0  0  0  0  0  0
    0.6716   16.5252    0.6610 H   0  0  0  0  0  0  0  0  0  0  0  0
    0.7932   17.7487   -0.6486 H   0  0  0  0  0  0  0  0  0  0  0  0
   -0.5573   16.5643   -0.6486 H   0  0  0  0  0  0  0  0  0  0  0  0
  1  2  1  0
  2  3  1  0
  3  4  1  0
  4  5  1  0
  5  6  1  0
  6  7  1  0
  7  8  1  0
  7  9  1  0
  2 10  1  0
 10 11  1  0
 11 12  1  0
 12 13  1  0
 13 14  1  6
 13 15  1  0
 15 16  1  0
 16 17  1  0
 17 18  2  0
 18 19  1  0
 19 20  1  0
 20 21  1  0
 21 22  1  0
 22 23  1  0
 22 24  1  0
 24 25  1  0
 24 26  1  0
 19 27  1  0
 27 28  1  1
 27 29  1  0
 29 30  1  0
 30 31  1  0
 31 32  1  1
  7  5  1  0
 31 10  1  0
 31 13  1  0
 27 15  1  0
 24 18  1  0
  1 33  1  0
  1 34  1  0
  1 35  1  0
  2 36  1  6
  3 37  1  0
  3 38  1  0
  4 39  1  0
  4 40  1  0
  5 41  1  1
  8 42  1  0
  8 43  1  0
  8 44  1  0
  9 45  1  0
  9 46  1  0
  9 47  1  0
 10 48  1  6
 11 49  1  0
 11 50  1  0
 12 51  1  0
 12 52  1  0
 14 53  1  0
 14 54  1  0
 14 55  1  0
 15 56  1  1
 16 57  1  0
 16 58  1  0
 17 59  1  0
 19 60  1  6
 20 61  1  0
 20 62  1  0
 21 63  1  0
 21 64  1  0
 22 65  1  6
 23 66  1  0
 25 67  1  0
 25 68  1  0
 25 69  1  0
 26 70  1  0
 26 71  1  0
 26 72  1  0
 28 73  1  0
 28 74  1  0
 28 75  1  0
 29 76  1  0
 29 77  1  0
 30 78  1  0
 30 79  1  0
 32 80  1  0
 32 81  1  0
 32 82  1  0
M  END
>  <meeko>  (2) 
{"is_sidechain": [false], "intermolecular_energy": 2.731, "internal_energy": -0.839}

$$$$
EPH_relaxed_0001_pdb2pqr_Repair_361_r2_0001_out
     RDKit          3D

 82 86  0  0  0  0  0  0  0  0999 V2000
    2.4750   18.9120   -2.3230 C   0  0  0  0  0  0  0  0  0  0  0  0
    1.7730   18.9660   -0.9630 C   0  0  2  0  0  0  0  0  0  0  0  0
    2.6590   19.6110    0.1230 C   0  0  0  0  0  0  0  0  0  0  0  0
    3.6300   18.6310    0.7870 C   0  0  0  0  0  0  0  0  0  0  0  0
    3.7590   18.8890    2.2570 C   0  0  2  0  0  0  0  0  0  0  0  0
    4.2470   20.1940    2.5950 O   0  0  0  0  0  0  0  0  0  0  0  0
    5.0900   19.0890    2.9580 C   0  0  0  0  0  0  0  0  0  0  0  0
    6.3830   19.0370    2.2060 C   0  0  0  0  0  0  0  0  0  0  0  0
    5.1650   18.8470    4.4330 C   0  0  0  0  0  0  0  0  0  0  0  0
    1.3630   17.5620   -0.5340 C   0  0  1  0  0  0  0  0  0  0  0  0
    0.0960   17.5580    0.3620 C   0  0  0  0  0  0  0  0  0  0  0  0
   -0.6970   16.2730    0.0090 C   0  0  0  0  0  0  0  0  0  0  0  0
    0.2900   15.4220   -0.8240 C   0  0  1  0  0  0  0  0  0  0  0  0
    1.2040   14.7210    0.2290 C   0  0  0  0  0  0  0  0  0  0  0  0
   -0.3490   14.3920   -1.8110 C   0  0  2  0  0  0  0  0  0  0  0  0
   -1.1910   13.2880   -1.1480 C   0  0  0  0  0  0  0  0  0  0  0  0
   -0.4440   12.0490   -0.7810 C   0  0  0  0  0  0  0  0  0  0  0  0
    0.7810   11.7130   -1.2280 C   0  0  0  0  0  0  0  0  0  0  0  0
    1.5010   12.5740   -2.2730 C   0  0  1  0  0  0  0  0  0  0  0  0
    2.0900   11.6600   -3.3800 C   0  0  0  0  0  0  0  0  0  0  0  0
    2.9820   10.5590   -2.8160 C   0  0  0  0  0  0  0  0  0  0  0  0
    2.2140    9.6890   -1.8250 C   0  0  2  0  0  0  0  0  0  0  0  0
    1.2000    8.9690   -2.5320 O   0  0  0  0  0  0  0  0  0  0  0  0
    1.5670   10.5020   -0.6690 C   0  0  0  0  0  0  0  0  0  0  0  0
    2.6740   11.0340    0.2750 C   0  0  0  0  0  0  0  0  0  0  0  0
    0.7070    9.5260    0.1780 C   0  0  0  0  0  0  0  0  0  0  0  0
    0.6660   13.7890   -2.8660 C   0  0  1  0  0  0  0  0  0  0  0  0
   -0.1870   13.3070   -4.0790 C   0  0  0  0  0  0  0  0  0  0  0  0
    1.6610   14.8730   -3.4250 C   0  0  0  0  0  0  0  0  0  0  0  0
    2.1640   15.9350   -2.4290 C   0  0  0  0  0  0  0  0  0  0  0  0
    0.9970   16.5550   -1.6530 C   0  0  2  0  0  0  0  0  0  0  0  0
    0.0720   17.2870   -2.6850 C   0  0  0  0  0  0  0  0  0  0  0  0
    3.5614   18.8284   -2.1718 H   0  0  0  0  0  0  0  0  0  0  0  0
    2.1151   18.0389   -2.8870 H   0  0  0  0  0  0  0  0  0  0  0  0
    2.2528   19.8299   -2.8870 H   0  0  0  0  0  0  0  0  0  0  0  0
    0.8788   19.5964   -1.0769 H   0  0  0  0  0  0  0  0  0  0  0  0
    3.2439   20.4190   -0.3407 H   0  0  0  0  0  0  0  0  0  0  0  0
    1.9853   19.9795    0.9106 H   0  0  0  0  0  0  0  0  0  0  0  0
    3.2607   17.6059    0.6361 H   0  0  0  0  0  0  0  0  0  0  0  0
    4.6203   18.7650    0.3272 H   0  0  0  0  0  0  0  0  0  0  0  0
    2.9037   18.2314    2.4714 H   0  0  0  0  0  0  0  0  0  0  0  0
    7.2204   19.0033    2.9185 H   0  0  0  0  0  0  0  0  0  0  0  0
    6.4033   18.1373    1.5734 H   0  0  0  0  0  0  0  0  0  0  0  0
    6.4755   19.9322    1.5734 H   0  0  0  0  0  0  0  0  0  0  0  0
    4.8808   19.7640    4.9699 H   0  0  0  0  0  0  0  0  0  0  0  0
    4.4768   18.0337    4.7066 H   0  0  0  0  0  0  0  0  0  0  0  0
    6.1926   18.5654    4.7066 H   0  0  0  0  0  0  0  0  0  0  0  0
    2.2883   17.2450   -0.0307 H   0  0  0  0  0  0  0  0  0  0  0  0
    0.3829   17.5464    1.4239 H   0  0  0  0  0  0  0  0  0  0  0  0
   -0.5127   18.4579    0.1896 H   0  0  0  0  0  0  0  0  0  0  0  0
   -0.9960   15.7379    0.9224 H   0  0  0  0  0  0  0  0  0  0  0  0
   -1.6246   16.4928   -0.5399 H   0  0  0  0  0  0  0  0  0  0  0  0
    0.8635   14.9822    1.2418 H   0  0  0  0  0  0  0  0  0  0  0  0
    1.1498   13.6307    0.0937 H   0  0  0  0  0  0  0  0  0  0  0  0
    2.2430   15.0560    0.0937 H   0  0  0  0  0  0  0  0  0  0  0  0
   -1.0612   15.0147   -2.3722 H   0  0  0  0  0  0  0  0  0  0  0  0
   -1.6328   13.7028   -0.2300 H   0  0  0  0  0  0  0  0  0  0  0  0
   -1.9363   12.9829   -1.8973 H   0  0  0  0  0  0  0  0  0  0  0  0
   -0.9356   11.3515   -0.0868 H   0  0  0  0  0  0  0  0  0  0  0  0
    2.3149   13.0843   -1.7372 H   0  0  0  0  0  0  0  0  0  0  0  0
    1.2599   11.1937   -3.9310 H   0  0  0  0  0  0  0  0  0  0  0  0
    2.7097   12.2881   -4.0369 H   0  0  0  0  0  0  0  0  0  0  0  0
    3.3435    9.9297   -3.6427 H   0  0  0  0  0  0  0  0  0  0  0  0
    3.8276   11.0269   -2.2906 H   0  0  0  0  0  0  0  0  0  0  0  0
    2.9372    9.0030   -1.3599 H   0  0  0  0  0  0  0  0  0  0  0  0
    1.2520    8.0380   -2.2560 H   0  0  0  0  0  0  0  0  0  0  0  0
    2.3664   10.8862    1.3207 H   0  0  0  0  0  0  0  0  0  0  0  0
    3.6099   10.4873    0.0873 H   0  0  0  0  0  0  0  0  0  0  0  0
    2.8318   12.1063    0.0873 H   0  0  0  0  0  0  0  0  0  0  0  0
    0.8780    9.7200    1.2472 H   0  0  0  0  0  0  0  0  0  0  0  0
   -0.3571    9.6769   -0.0565 H   0  0  0  0  0  0  0  0  0  0  0  0
    0.9907    8.4894   -0.0565 H   0  0  0  0  0  0  0  0  0  0  0  0
   -1.0900   12.7968   -3.7126 H   0  0  0  0  0  0  0  0  0  0  0  0
   -0.4782   14.1741   -4.6901 H   0  0  0  0  0  0  0  0  0  0  0  0
    0.4055   12.6102   -4.6901 H   0  0  0  0  0  0  0  0  0  0  0  0
    2.5410   14.3444   -3.8201 H   0  0  0  0  0  0  0  0  0  0  0  0
    1.0837   15.4333   -4.1752 H   0  0  0  0  0  0  0  0  0  0  0  0
    2.8578   15.4620   -1.7184 H   0  0  0  0  0  0  0  0  0  0  0  0
    2.6732   16.7310   -2.9922 H   0  0  0  0  0  0  0  0  0  0  0  0
   -0.6799   17.8820   -2.1459 H   0  0  0  0  0  0  0  0  0  0  0  0
    0.6807   17.9507   -3.3167 H   0  0  0  0  0  0  0  0  0  0  0  0
   -0.4340   16.5421   -3.3167 H   0  0  0  0  0  0  0  0  0  0  0  0
  1  2  1  0
  2  3  1  0
  3  4  1  0
  4  5  1  0
  5  6  1  0
  6  7  1  0
  7  8  1  0
  7  9  1  0
  2 10  1  0
 10 11  1  0
 11 12  1  0
 12 13  1  0
 13 14  1  1
 13 15  1  0
 15 16  1  0
 16 17  1  0
 17 18  2  0
 18 19  1  0
 19 20  1  0
 20 21  1  0
 21 22  1  0
 22 23  1  0
 22 24  1  0
 24 25  1  0
 24 26  1  0
 19 27  1  0
 27 28  1  6
 27 29  1  0
 29 30  1  0
 30 31  1  0
 31 32  1  6
  7  5  1  0
 31 10  1  0
 31 13  1  0
 27 15  1  0
 24 18  1  0
  1 33  1  0
  1 34  1  0
  1 35  1  0
  2 36  1  6
  3 37  1  0
  3 38  1  0
  4 39  1  0
  4 40  1  0
  5 41  1  1
  8 42  1  0
  8 43  1  0
  8 44  1  0
  9 45  1  0
  9 46  1  0
  9 47  1  0
 10 48  1  1
 11 49  1  0
 11 50  1  0
 12 51  1  0
 12 52  1  0
 14 53  1  0
 14 54  1  0
 14 55  1  0
 15 56  1  6
 16 57  1  0
 16 58  1  0
 17 59  1  0
 19 60  1  1
 20 61  1  0
 20 62  1  0
 21 63  1  0
 21 64  1  0
 22 65  1  1
 23 66  1  0
 25 67  1  0
 25 68  1  0
 25 69  1  0
 26 70  1  0
 26 71  1  0
 26 72  1  0
 28 73  1  0
 28 74  1  0
 28 75  1  0
 29 76  1  0
 29 77  1  0
 30 78  1  0
 30 79  1  0
 32 80  1  0
 32 81  1  0
 32 82  1  0
M  END
>  <meeko>  (3) 
{"is_sidechain": [false], "intermolecular_energy": 2.731, "internal_energy": -0.839}

$$$$
EPH_relaxed_0001_pdb2pqr_Repair_361_r2_0001_out
     RDKit          3D

 82 86  0  0  0  0  0  0  0  0999 V2000
   -0.3050   18.2730   -0.0800 C   0  0  0  0  0  0  0  0  0  0  0  0
    1.0150   17.5390   -0.3290 C   0  0  2  0  0  0  0  0  0  0  0  0
    2.0640   18.4450   -1.0060 C   0  0  0  0  0  0  0  0  0  0  0  0
    2.6530   19.5070   -0.0750 C   0  0  0  0  0  0  0  0  0  0  0  0
    3.9110   19.0290    0.5860 C   0  0  2  0  0  0  0  0  0  0  0  0
    3.7090   18.0890    1.6490 O   0  0  0  0  0  0  0  0  0  0  0  0
    4.2780   19.3540    2.0220 C   0  0  0  0  0  0  0  0  0  0  0  0
    3.3860   20.1920    2.8840 C   0  0  0  0  0  0  0  0  0  0  0  0
    5.7160   19.2720    2.4300 C   0  0  0  0  0  0  0  0  0  0  0  0
    0.7690   16.3000   -1.1820 C   0  0  1  0  0  0  0  0  0  0  0  0
    1.1290   16.5210   -2.6750 C   0  0  0  0  0  0  0  0  0  0  0  0
    1.6910   15.1770   -3.2040 C   0  0  0  0  0  0  0  0  0  0  0  0
    1.3310   14.1460   -2.1080 C   0  0  1  0  0  0  0  0  0  0  0  0
   -0.1610   13.7750   -2.3820 C   0  0  0  0  0  0  0  0  0  0  0  0
    2.2370   12.8750   -2.0310 C   0  0  2  0  0  0  0  0  0  0  0  0
    2.2180   11.9820   -3.2840 C   0  0  0  0  0  0  0  0  0  0  0  0
    1.1860   10.9020   -3.2810 C   0  0  0  0  0  0  0  0  0  0  0  0
    0.5020   10.4770   -2.2030 C   0  0  0  0  0  0  0  0  0  0  0  0
    0.8100   11.0290   -0.8060 C   0  0  1  0  0  0  0  0  0  0  0  0
    0.9080    9.8570    0.2050 C   0  0  0  0  0  0  0  0  0  0  0  0
   -0.3300    8.9660    0.1900 C   0  0  0  0  0  0  0  0  0  0  0  0
   -0.5700    8.3890   -1.2030 C   0  0  2  0  0  0  0  0  0  0  0  0
    0.4950    7.4870   -1.5180 O   0  0  0  0  0  0  0  0  0  0  0  0
   -0.6770    9.4780   -2.3070 C   0  0  0  0  0  0  0  0  0  0  0  0
   -1.9990   10.2660   -2.1350 C   0  0  0  0  0  0  0  0  0  0  0  0
   -0.7760    8.7570   -3.6790 C   0  0  0  0  0  0  0  0  0  0  0  0
    2.0470   12.0230   -0.7110 C   0  0  1  0  0  0  0  0  0  0  0  0
    3.3650   11.2130   -0.5100 C   0  0  0  0  0  0  0  0  0  0  0  0
    1.8830   12.9280    0.5670 C   0  0  0  0  0  0  0  0  0  0  0  0
    1.0770   14.2300    0.3970 C   0  0  0  0  0  0  0  0  0  0  0  0
    1.5630   15.0200   -0.8220 C   0  0  2  0  0  0  0  0  0  0  0  0
    3.0540   15.4260   -0.5660 C   0  0  0  0  0  0  0  0  0  0  0  0
   -0.4737   18.3668    1.0029 H   0  0  0  0  0  0  0  0  0  0  0  0
   -0.2584   19.2748   -0.5320 H   0  0  0  0  0  0  0  0  0  0  0  0
   -1.1314   17.7049   -0.5320 H   0  0  0  0  0  0  0  0  0  0  0  0
    1.4177   17.2414    0.6504 H   0  0  0  0  0  0  0  0  0  0  0  0
    2.8848   17.8114   -1.3731 H   0  0  0  0  0  0  0  0  0  0  0  0
    1.5503   18.9795   -1.8186 H   0  0  0  0  0  0  0  0  0  0  0  0
    2.8794   20.4095   -0.6618 H   0  0  0  0  0  0  0  0  0  0  0  0
    1.9136   19.7226    0.7104 H   0  0  0  0  0  0  0  0  0  0  0  0
    4.4693   19.1219   -0.3573 H   0  0  0  0  0  0  0  0  0  0  0  0
    3.6028   19.9884    3.9430 H   0  0  0  0  0  0  0  0  0  0  0  0
    3.5649   21.2563    2.6712 H   0  0  0  0  0  0  0  0  0  0  0  0
    2.3349   19.9471    2.6712 H   0  0  0  0  0  0  0  0  0  0  0  0
    5.7860   19.2680    3.5278 H   0  0  0  0  0  0  0  0  0  0  0  0
    6.1582   18.3472    2.0310 H   0  0  0  0  0  0  0  0  0  0  0  0
    6.2604   20.1406    2.0310 H   0  0  0  0  0  0  0  0  0  0  0  0
   -0.3017   16.1478   -0.9810 H   0  0  0  0  0  0  0  0  0  0  0  0
    0.2310   16.8057   -3.2429 H   0  0  0  0  0  0  0  0  0  0  0  0
    1.8669   17.3289   -2.7876 H   0  0  0  0  0  0  0  0  0  0  0  0
    1.2189   14.9081   -4.1604 H   0  0  0  0  0  0  0  0  0  0  0  0
    2.7734   15.2231   -3.3944 H   0  0  0  0  0  0  0  0  0  0  0  0
   -0.6879   13.6440   -1.4253 H   0  0  0  0  0  0  0  0  0  0  0  0
   -0.6398   14.5814   -2.9568 H   0  0  0  0  0  0  0  0  0  0  0  0
   -0.2063   12.8382   -2.9568 H   0  0  0  0  0  0  0  0  0  0  0  0
    3.2472   13.3082   -1.9892 H   0  0  0  0  0  0  0  0  0  0  0  0
    2.0346   12.6252   -4.1573 H   0  0  0  0  0  0  0  0  0  0  0  0
    3.1925   11.4723   -3.3098 H   0  0  0  0  0  0  0  0  0  0  0  0
    0.9666   10.4127   -4.2414 H   0  0  0  0  0  0  0  0  0  0  0  0
   -0.0378   11.6782   -0.5420 H   0  0  0  0  0  0  0  0  0  0  0  0
    1.7860    9.2449   -0.0489 H   0  0  0  0  0  0  0  0  0  0  0  0
    0.9944   10.2912    1.2120 H   0  0  0  0  0  0  0  0  0  0  0  0
   -0.1877    8.1399    0.9022 H   0  0  0  0  0  0  0  0  0  0  0  0
   -1.2026    9.5725    0.4740 H   0  0  0  0  0  0  0  0  0  0  0  0
   -1.5385    7.8679   -1.1821 H   0  0  0  0  0  0  0  0  0  0  0  0
    1.1730    7.9890   -2.0000 H   0  0  0  0  0  0  0  0  0  0  0  0
   -2.2131   10.3936   -1.0636 H   0  0  0  0  0  0  0  0  0  0  0  0
   -1.9016   11.2536   -2.6096 H   0  0  0  0  0  0  0  0  0  0  0  0
   -2.8213    9.7106   -2.6096 H   0  0  0  0  0  0  0  0  0  0  0  0
   -0.9240    7.6791   -3.5169 H   0  0  0  0  0  0  0  0  0  0  0  0
   -1.6269    9.1628   -4.2459 H   0  0  0  0  0  0  0  0  0  0  0  0
    0.1527    8.9184   -4.2459 H   0  0  0  0  0  0  0  0  0  0  0  0
    3.5609   11.0926    0.5657 H   0  0  0  0  0  0  0  0  0  0  0  0
    3.2614   10.2224   -0.9770 H   0  0  0  0  0  0  0  0  0  0  0  0
    4.2020   11.7528   -0.9770 H   0  0  0  0  0  0  0  0  0  0  0  0
    1.3830   12.3255    1.3396 H   0  0  0  0  0  0  0  0  0  0  0  0
    2.9025   13.2518    0.8233 H   0  0  0  0  0  0  0  0  0  0  0  0
    0.0140   13.9804    0.2637 H   0  0  0  0  0  0  0  0  0  0  0  0
    1.2172   14.8493    1.2952 H   0  0  0  0  0  0  0  0  0  0  0  0
    3.2395   15.4765    0.5171 H   0  0  0  0  0  0  0  0  0  0  0  0
    3.7208   14.6767   -1.0176 H   0  0  0  0  0  0  0  0  0  0  0  0
    3.2488   16.4099   -1.0176 H   0  0  0  0  0  0  0  0  0  0  0  0
  1  2  1  0
  2  3  1  0
  3  4  1  0
  4  5  1  0
  5  6  1  0
  6  7  1  0
  7  8  1  0
  7  9  1  0
  2 10  1  0
 10 11  1  0
 11 12  1  0
 12 13  1  0
 13 14  1  6
 13 15  1  0
 15 16  1  0
 16 17  1  0
 17 18  2  0
 18 19  1  0
 19 20  1  0
 20 21  1  0
 21 22  1  0
 22 23  1  0
 22 24  1  0
 24 25  1  0
 24 26  1  0
 19 27  1  0
 27 28  1  1
 27 29  1  0
 29 30  1  0
 30 31  1  0
 31 32  1  1
  7  5  1  0
 31 10  1  0
 31 13  1  0
 27 15  1  0
 24 18  1  0
  1 33  1  0
  1 34  1  0
  1 35  1  0
  2 36  1  1
  3 37  1  0
  3 38  1  0
  4 39  1  0
  4 40  1  0
  5 41  1  6
  8 42  1  0
  8 43  1  0
  8 44  1  0
  9 45  1  0
  9 46  1  0
  9 47  1  0
 10 48  1  6
 11 49  1  0
 11 50  1  0
 12 51  1  0
 12 52  1  0
 14 53  1  0
 14 54  1  0
 14 55  1  0
 15 56  1  1
 16 57  1  0
 16 58  1  0
 17 59  1  0
 19 60  1  1
 20 61  1  0
 20 62  1  0
 21 63  1  0
 21 64  1  0
 22 65  1  1
 23 66  1  0
 25 67  1  0
 25 68  1  0
 25 69  1  0
 26 70  1  0
 26 71  1  0
 26 72  1  0
 28 73  1  0
 28 74  1  0
 28 75  1  0
 29 76  1  0
 29 77  1  0
 30 78  1  0
 30 79  1  0
 32 80  1  0
 32 81  1  0
 32 82  1  0
M  END
>  <meeko>  (4) 
{"is_sidechain": [false], "intermolecular_energy": 2.731, "internal_energy": -0.839}

$$$$
EPH_relaxed_0001_pdb2pqr_Repair_361_r2_0001_out
     RDKit          3D

 82 86  0  0  0  0  0  0  0  0999 V2000
    0.3160    8.8730   -2.3170 C   0  0  0  0  0  0  0  0  0  0  0  0
    1.0630   10.0090   -3.0220 C   0  0  2  0  0  0  0  0  0  0  0  0
    2.5660   10.0150   -2.6810 C   0  0  0  0  0  0  0  0  0  0  0  0
    3.4500   10.5650   -3.8030 C   0  0  0  0  0  0  0  0  0  0  0  0
    4.8510   10.8170   -3.3330 C   0  0  2  0  0  0  0  0  0  0  0  0
    5.4430   12.0220   -3.8360 O   0  0  0  0  0  0  0  0  0  0  0  0
    6.0580   10.7910   -4.2510 C   0  0  0  0  0  0  0  0  0  0  0  0
    5.9210   10.5060   -5.7140 C   0  0  0  0  0  0  0  0  0  0  0  0
    7.4100   10.5600   -3.6500 C   0  0  0  0  0  0  0  0  0  0  0  0
    0.4390   11.3500   -2.6510 C   0  0  1  0  0  0  0  0  0  0  0  0
   -0.9170   11.1940   -1.9120 C   0  0  0  0  0  0  0  0  0  0  0  0
   -0.9970   12.3460   -0.8780 C   0  0  0  0  0  0  0  0  0  0  0  0
    0.1440   13.3100   -1.2780 C   0  0  1  0  0  0  0  0  0  0  0  0
   -0.4380   14.1560   -2.4530 C   0  0  0  0  0  0  0  0  0  0  0  0
    0.7120   14.2180   -0.1390 C   0  0  2  0  0  0  0  0  0  0  0  0
   -0.2970   15.2050    0.4730 C   0  0  0  0  0  0  0  0  0  0  0  0
   -0.3560   16.5450   -0.1830 C   0  0  0  0  0  0  0  0  0  0  0  0
    0.5630   17.0410   -1.0330 C   0  0  0  0  0  0  0  0  0  0  0  0
    1.8530   16.2690   -1.3370 C   0  0  1  0  0  0  0  0  0  0  0  0
    3.0650   17.2330   -1.2550 C   0  0  0  0  0  0  0  0  0  0  0  0
    2.8970   18.4610   -2.1440 C   0  0  0  0  0  0  0  0  0  0  0  0
    1.6350   19.2350   -1.7720 C   0  0  2  0  0  0  0  0  0  0  0  0
    1.8020   19.7890   -0.4640 O   0  0  0  0  0  0  0  0  0  0  0  0
    0.3490   18.3630   -1.8110 C   0  0  0  0  0  0  0  0  0  0  0  0
    0.0010   18.0130   -3.2790 C   0  0  0  0  0  0  0  0  0  0  0  0
   -0.8280   19.2250   -1.2800 C   0  0  0  0  0  0  0  0  0  0  0  0
    2.0760   14.9350   -0.5020 C   0  0  1  0  0  0  0  0  0  0  0  0
    2.7780   15.2660    0.8510 C   0  0  0  0  0  0  0  0  0  0  0  0
    3.0570   13.9910   -1.2920 C   0  0  0  0  0  0  0  0  0  0  0  0
    2.4220   13.0330   -2.3180 C   0  0  0  0  0  0  0  0  0  0  0  0
    1.2450   12.2710   -1.7010 C   0  0  2  0  0  0  0  0  0  0  0  0
    1.8040   11.3930   -0.5300 C   0  0  0  0  0  0  0  0  0  0  0  0
    0.3995    8.9999   -1.2275 H   0  0  0  0  0  0  0  0  0  0  0  0
   -0.7444    8.8950   -2.6085 H   0  0  0  0  0  0  0  0  0  0  0  0
    0.7564    7.9081   -2.6085 H   0  0  0  0  0  0  0  0  0  0  0  0
    0.9713    9.8432   -4.1056 H   0  0  0  0  0  0  0  0  0  0  0  0
    2.7162   10.6352   -1.7850 H   0  0  0  0  0  0  0  0  0  0  0  0
    2.8634    8.9680   -2.5218 H   0  0  0  0  0  0  0  0  0  0  0  0
    3.4760    9.8357   -4.6261 H   0  0  0  0  0  0  0  0  0  0  0  0
    3.0234   11.5222   -4.1373 H   0  0  0  0  0  0  0  0  0  0  0  0
    4.6437   10.3216   -2.3730 H   0  0  0  0  0  0  0  0  0  0  0  0
    5.4483    9.5226   -5.8533 H   0  0  0  0  0  0  0  0  0  0  0  0
    5.2975   11.2821   -6.1819 H   0  0  0  0  0  0  0  0  0  0  0  0
    6.9165   10.5039   -6.1819 H   0  0  0  0  0  0  0  0  0  0  0  0
    7.3308   10.5735   -2.5529 H   0  0  0  0  0  0  0  0  0  0  0  0
    7.7949    9.5831   -3.9778 H   0  0  0  0  0  0  0  0  0  0  0  0
    8.0974   11.3537   -3.9778 H   0  0  0  0  0  0  0  0  0  0  0  0
    0.3731   11.8053   -3.6502 H   0  0  0  0  0  0  0  0  0  0  0  0
   -1.7492   11.2685   -2.6274 H   0  0  0  0  0  0  0  0  0  0  0  0
   -0.9874   10.2138   -1.4179 H   0  0  0  0  0  0  0  0  0  0  0  0
   -1.9716   12.8527   -0.9360 H   0  0  0  0  0  0  0  0  0  0  0  0
   -0.8950   11.9857    0.1563 H   0  0  0  0  0  0  0  0  0  0  0  0
   -1.0174   14.9982   -2.0466 H   0  0  0  0  0  0  0  0  0  0  0  0
    0.3865   14.5422   -3.0703 H   0  0  0  0  0  0  0  0  0  0  0  0
   -1.0934   13.5241   -3.0703 H   0  0  0  0  0  0  0  0  0  0  0  0
    0.9354   13.4899    0.6547 H   0  0  0  0  0  0  0  0  0  0  0  0
   -1.2972   14.7514    0.4102 H   0  0  0  0  0  0  0  0  0  0  0  0
    0.0407   15.3854    1.5042 H   0  0  0  0  0  0  0  0  0  0  0  0
   -1.2236   17.1807    0.0476 H   0  0  0  0  0  0  0  0  0  0  0  0
    1.7461   15.8909   -2.3644 H   0  0  0  0  0  0  0  0  0  0  0  0
    3.1813   17.5654   -0.2129 H   0  0  0  0  0  0  0  0  0  0  0  0
    3.9517   16.6851   -1.6066 H   0  0  0  0  0  0  0  0  0  0  0  0
    3.7712   19.1171   -2.0206 H   0  0  0  0  0  0  0  0  0  0  0  0
    2.8100   18.1288   -3.1890 H   0  0  0  0  0  0  0  0  0  0  0  0
    1.4999   20.0270   -2.5233 H   0  0  0  0  0  0  0  0  0  0  0  0
    1.6480   19.0760    0.1790 H   0  0  0  0  0  0  0  0  0  0  0  0
   -0.7745   17.2331   -3.2960 H   0  0  0  0  0  0  0  0  0  0  0  0
   -0.3717   18.9119   -3.7918 H   0  0  0  0  0  0  0  0  0  0  0  0
    0.9021   17.6454   -3.7918 H   0  0  0  0  0  0  0  0  0  0  0  0
   -0.8198   19.2190   -0.1800 H   0  0  0  0  0  0  0  0  0  0  0  0
   -0.7184   20.2580   -1.6419 H   0  0  0  0  0  0  0  0  0  0  0  0
   -1.7797   18.8088   -1.6419 H   0  0  0  0  0  0  0  0  0  0  0  0
    2.1293   14.9602    1.6851 H   0  0  0  0  0  0  0  0  0  0  0  0
    3.7329   14.7233    0.9110 H   0  0  0  0  0  0  0  0  0  0  0  0
    2.9668   16.3480    0.9110 H   0  0  0  0  0  0  0  0  0  0  0  0
    3.7719   14.6299   -1.8311 H   0  0  0  0  0  0  0  0  0  0  0  0
    3.5068   13.3390   -0.5287 H   0  0  0  0  0  0  0  0  0  0  0  0
    2.0621   13.6151   -3.1792 H   0  0  0  0  0  0  0  0  0  0  0  0
    3.1830   12.3052   -2.6363 H   0  0  0  0  0  0  0  0  0  0  0  0
    1.5185   11.8414    0.4330 H   0  0  0  0  0  0  0  0  0  0  0  0
    1.3854   10.3782   -0.6004 H   0  0  0  0  0  0  0  0  0  0  0  0
    2.9006   11.3429   -0.6004 H   0  0  0  0  0  0  0  0  0  0  0  0
  1  2  1  0
  2  3  1  0
  3  4  1  0
  4  5  1  0
  5  6  1  0
  6  7  1  0
  7  8  1  0
  7  9  1  0
  2 10  1  0
 10 11  1  0
 11 12  1  0
 12 13  1  0
 13 14  1  6
 13 15  1  0
 15 16  1  0
 16 17  1  0
 17 18  2  0
 18 19  1  0
 19 20  1  0
 20 21  1  0
 21 22  1  0
 22 23  1  0
 22 24  1  0
 24 25  1  0
 24 26  1  0
 19 27  1  0
 27 28  1  1
 27 29  1  0
 29 30  1  0
 30 31  1  0
 31 32  1  1
  7  5  1  0
 31 10  1  0
 31 13  1  0
 27 15  1  0
 24 18  1  0
  1 33  1  0
  1 34  1  0
  1 35  1  0
  2 36  1  6
  3 37  1  0
  3 38  1  0
  4 39  1  0
  4 40  1  0
  5 41  1  1
  8 42  1  0
  8 43  1  0
  8 44  1  0
  9 45  1  0
  9 46  1  0
  9 47  1  0
 10 48  1  6
 11 49  1  0
 11 50  1  0
 12 51  1  0
 12 52  1  0
 14 53  1  0
 14 54  1  0
 14 55  1  0
 15 56  1  1
 16 57  1  0
 16 58  1  0
 17 59  1  0
 19 60  1  6
 20 61  1  0
 20 62  1  0
 21 63  1  0
 21 64  1  0
 22 65  1  6
 23 66  1  0
 25 67  1  0
 25 68  1  0
 25 69  1  0
 26 70  1  0
 26 71  1  0
 26 72  1  0
 28 73  1  0
 28 74  1  0
 28 75  1  0
 29 76  1  0
 29 77  1  0
 30 78  1  0
 30 79  1  0
 32 80  1  0
 32 81  1  0
 32 82  1  0
M  END
>  <meeko>  (5) 
{"is_sidechain": [false], "intermolecular_energy": 2.731, "internal_energy": -0.839}

$$$$
EPH_relaxed_0001_pdb2pqr_Repair_361_r2_0001_out
     RDKit          3D

 82 86  0  0  0  0  0  0  0  0999 V2000
   -0.0770    7.4330   -0.5820 C   0  0  0  0  0  0  0  0  0  0  0  0
   -1.0680    8.5930   -0.7190 C   0  0  2  0  0  0  0  0  0  0  0  0
   -1.6710    8.6770   -2.1350 C   0  0  0  0  0  0  0  0  0  0  0  0
   -2.2660    7.3560   -2.6300 C   0  0  0  0  0  0  0  0  0  0  0  0
   -3.7050    7.5090   -3.0230 C   0  0  2  0  0  0  0  0  0  0  0  0
   -4.6380    7.3660   -1.9440 O   0  0  0  0  0  0  0  0  0  0  0  0
   -4.7090    6.3720   -2.9790 C   0  0  0  0  0  0  0  0  0  0  0  0
   -4.3140    4.9990   -2.5330 C   0  0  0  0  0  0  0  0  0  0  0  0
   -5.9380    6.4710   -3.8270 C   0  0  0  0  0  0  0  0  0  0  0  0
   -0.3810    9.9070   -0.3660 C   0  0  1  0  0  0  0  0  0  0  0  0
    0.7320    9.7320    0.7020 C   0  0  0  0  0  0  0  0  0  0  0  0
    1.8510   10.7460    0.3520 C   0  0  0  0  0  0  0  0  0  0  0  0
    1.2090   11.6900   -0.6920 C   0  0  1  0  0  0  0  0  0  0  0  0
    0.3750   12.7080    0.1480 C   0  0  0  0  0  0  0  0  0  0  0  0
    2.1950   12.4150   -1.6650 C   0  0  2  0  0  0  0  0  0  0  0  0
    3.1950   13.3700   -0.9900 C   0  0  0  0  0  0  0  0  0  0  0  0
    2.7350   14.7830   -0.8530 C   0  0  0  0  0  0  0  0  0  0  0  0
    1.6920   15.3330   -1.5030 C   0  0  0  0  0  0  0  0  0  0  0  0
    0.9140   14.5370   -2.5590 C   0  0  1  0  0  0  0  0  0  0  0  0
    0.7040   15.4170   -3.8200 C   0  0  0  0  0  0  0  0  0  0  0  0
    0.0470   16.7550   -3.4960 C   0  0  0  0  0  0  0  0  0  0  0  0
    0.8800   17.5420   -2.4870 C   0  0  2  0  0  0  0  0  0  0  0  0
    2.1160   17.9160   -3.1020 O   0  0  0  0  0  0  0  0  0  0  0  0
    1.1640   16.7520   -1.1790 C   0  0  0  0  0  0  0  0  0  0  0  0
   -0.1440   16.6100   -0.3620 C   0  0  0  0  0  0  0  0  0  0  0  0
    2.1290   17.6020   -0.3090 C   0  0  0  0  0  0  0  0  0  0  0  0
    1.4920   13.0980   -2.9080 C   0  0  1  0  0  0  0  0  0  0  0  0
    2.5760   13.2170   -4.0230 C   0  0  0  0  0  0  0  0  0  0  0  0
    0.3370   12.2110   -3.5050 C   0  0  0  0  0  0  0  0  0  0  0  0
   -0.5260   11.4250   -2.4990 C   0  0  0  0  0  0  0  0  0  0  0  0
    0.3520   10.6560   -1.5070 C   0  0  2  0  0  0  0  0  0  0  0  0
    1.1860    9.6080   -2.3200 C   0  0  0  0  0  0  0  0  0  0  0  0
    0.1000    7.2259    0.4837 H   0  0  0  0  0  0  0  0  0  0  0  0
   -0.4925    6.5367   -1.0657 H   0  0  0  0  0  0  0  0  0  0  0  0
    0.8732    7.7035   -1.0657 H   0  0  0  0  0  0  0  0  0  0  0  0
   -1.8956    8.4064   -0.0188 H   0  0  0  0  0  0  0  0  0  0  0  0
   -2.4673    9.4359   -2.1289 H   0  0  0  0  0  0  0  0  0  0  0  0
   -0.8496    8.9360   -2.8193 H   0  0  0  0  0  0  0  0  0  0  0  0
   -1.6926    7.0117   -3.5033 H   0  0  0  0  0  0  0  0  0  0  0  0
   -2.2103    6.6258   -1.8092 H   0  0  0  0  0  0  0  0  0  0  0  0
   -3.4384    8.2278   -3.8118 H   0  0  0  0  0  0  0  0  0  0  0  0
   -4.3027    4.9596   -1.4338 H   0  0  0  0  0  0  0  0  0  0  0  0
   -5.0376    4.2658   -2.9187 H   0  0  0  0  0  0  0  0  0  0  0  0
   -3.3114    4.7625   -2.9187 H   0  0  0  0  0  0  0  0  0  0  0  0
   -6.8249    6.5424   -3.1803 H   0  0  0  0  0  0  0  0  0  0  0  0
   -5.8741    7.3669   -4.4620 H   0  0  0  0  0  0  0  0  0  0  0  0
   -6.0184    5.5764   -4.4620 H   0  0  0  0  0  0  0  0  0  0  0  0
   -1.2547   10.4876   -0.0350 H   0  0  0  0  0  0  0  0  0  0  0  0
    0.3311    9.9414    1.7047 H   0  0  0  0  0  0  0  0  0  0  0  0
    1.1187    8.7022    0.7044 H   0  0  0  0  0  0  0  0  0  0  0  0
    2.1595   11.3079    1.2459 H   0  0  0  0  0  0  0  0  0  0  0  0
    2.7560   10.2527   -0.0322 H   0  0  0  0  0  0  0  0  0  0  0  0
    0.5327   12.5154    1.2195 H   0  0  0  0  0  0  0  0  0  0  0  0
    0.6971   13.7321   -0.0918 H   0  0  0  0  0  0  0  0  0  0  0  0
   -0.6924   12.5937   -0.0918 H   0  0  0  0  0  0  0  0  0  0  0  0
    2.7969   11.5813   -2.0557 H   0  0  0  0  0  0  0  0  0  0  0  0
    3.4076   12.9827    0.0174 H   0  0  0  0  0  0  0  0  0  0  0  0
    4.0773   13.3998   -1.6463 H   0  0  0  0  0  0  0  0  0  0  0  0
    3.2956   15.4301   -0.1624 H   0  0  0  0  0  0  0  0  0  0  0  0
   -0.0587   14.2982   -2.1042 H   0  0  0  0  0  0  0  0  0  0  0  0
    1.6829   15.6079   -4.2839 H   0  0  0  0  0  0  0  0  0  0  0  0
    0.0334   14.8715   -4.5003 H   0  0  0  0  0  0  0  0  0  0  0  0
   -0.0478   17.3428   -4.4209 H   0  0  0  0  0  0  0  0  0  0  0  0
   -0.9440   16.5628   -3.0591 H   0  0  0  0  0  0  0  0  0  0  0  0
    0.2969   18.4286   -2.1971 H   0  0  0  0  0  0  0  0  0  0  0  0
    2.8370   17.5850   -2.5400 H   0  0  0  0  0  0  0  0  0  0  0  0
    0.0902   16.6354    0.7125 H   0  0  0  0  0  0  0  0  0  0  0  0
   -0.8226   17.4398   -0.6091 H   0  0  0  0  0  0  0  0  0  0  0  0
   -0.6287   15.6540   -0.6091 H   0  0  0  0  0  0  0  0  0  0  0  0
    1.9208   17.4186    0.7554 H   0  0  0  0  0  0  0  0  0  0  0  0
    3.1686   17.3208   -0.5330 H   0  0  0  0  0  0  0  0  0  0  0  0
    1.9813   18.6688   -0.5330 H   0  0  0  0  0  0  0  0  0  0  0  0
    3.5678   13.3259   -3.5600 H   0  0  0  0  0  0  0  0  0  0  0  0
    2.5604   12.3117   -4.6477 H   0  0  0  0  0  0  0  0  0  0  0  0
    2.3643   14.0973   -4.6477 H   0  0  0  0  0  0  0  0  0  0  0  0
   -0.3332   12.8744   -4.0714 H   0  0  0  0  0  0  0  0  0  0  0  0
    0.8452   11.4447   -4.1087 H   0  0  0  0  0  0  0  0  0  0  0  0
   -1.1635   12.1293   -1.9444 H   0  0  0  0  0  0  0  0  0  0  0  0
   -1.1425   10.7031   -3.0546 H   0  0  0  0  0  0  0  0  0  0  0  0
    1.7163    8.9417   -1.6237 H   0  0  0  0  0  0  0  0  0  0  0  0
    0.5109    9.0140   -2.9535 H   0  0  0  0  0  0  0  0  0  0  0  0
    1.9164   10.1325   -2.9535 H   0  0  0  0  0  0  0  0  0  0  0  0
  1  2  1  0
  2  3  1  0
  3  4  1  0
  4  5  1  0
  5  6  1  0
  6  7  1  0
  7  8  1  0
  7  9  1  0
  2 10  1  0
 10 11  1  0
 11 12  1  0
 12 13  1  0
 13 14  1  1
 13 15  1  0
 15 16  1  0
 16 17  1  0
 17 18  2  0
 18 19  1  0
 19 20  1  0
 20 21  1  0
 21 22  1  0
 22 23  1  0
 22 24  1  0
 24 25  1  0
 24 26  1  0
 19 27  1  0
 27 28  1  6
 27 29  1  0
 29 30  1  0
 30 31  1  0
 31 32  1  6
  7  5  1  0
 31 10  1  0
 31 13  1  0
 27 15  1  0
 24 18  1  0
  1 33  1  0
  1 34  1  0
  1 35  1  0
  2 36  1  1
  3 37  1  0
  3 38  1  0
  4 39  1  0
  4 40  1  0
  5 41  1  6
  8 42  1  0
  8 43  1  0
  8 44  1  0
  9 45  1  0
  9 46  1  0
  9 47  1  0
 10 48  1  1
 11 49  1  0
 11 50  1  0
 12 51  1  0
 12 52  1  0
 14 53  1  0
 14 54  1  0
 14 55  1  0
 15 56  1  6
 16 57  1  0
 16 58  1  0
 17 59  1  0
 19 60  1  1
 20 61  1  0
 20 62  1  0
 21 63  1  0
 21 64  1  0
 22 65  1  1
 23 66  1  0
 25 67  1  0
 25 68  1  0
 25 69  1  0
 26 70  1  0
 26 71  1  0
 26 72  1  0
 28 73  1  0
 28 74  1  0
 28 75  1  0
 29 76  1  0
 29 77  1  0
 30 78  1  0
 30 79  1  0
 32 80  1  0
 32 81  1  0
 32 82  1  0
M  END
>  <meeko>  (6) 
{"is_sidechain": [false], "intermolecular_energy": 2.731, "internal_energy": -0.839}

$$$$
EPH_relaxed_0001_pdb2pqr_Repair_361_r2_0001_out
     RDKit          3D

 82 86  0  0  0  0  0  0  0  0999 V2000
    2.0750   18.2180   -2.6700 C   0  0  0  0  0  0  0  0  0  0  0  0
    0.8310   17.6370   -1.9920 C   0  0  2  0  0  0  0  0  0  0  0  0
    0.9420   17.6620   -0.4540 C   0  0  0  0  0  0  0  0  0  0  0  0
    0.6150   19.0230    0.1650 C   0  0  0  0  0  0  0  0  0  0  0  0
   -0.8360   19.1350    0.5240 C   0  0  2  0  0  0  0  0  0  0  0  0
   -1.7020   18.2520   -0.2020 O   0  0  0  0  0  0  0  0  0  0  0  0
   -1.8950   19.6580   -0.4280 C   0  0  0  0  0  0  0  0  0  0  0  0
   -1.5470   20.1050   -1.8140 C   0  0  0  0  0  0  0  0  0  0  0  0
   -3.1720   20.1900    0.1440 C   0  0  0  0  0  0  0  0  0  0  0  0
    0.5940   16.2100   -2.4740 C   0  0  1  0  0  0  0  0  0  0  0  0
    0.9170   16.0280   -3.9810 C   0  0  0  0  0  0  0  0  0  0  0  0
    1.4990   14.6000   -4.1440 C   0  0  0  0  0  0  0  0  0  0  0  0
    1.1860   13.8960   -2.8030 C   0  0  1  0  0  0  0  0  0  0  0  0
   -0.3020   13.4400   -2.9260 C   0  0  0  0  0  0  0  0  0  0  0  0
    2.1230   12.7070   -2.4110 C   0  0  2  0  0  0  0  0  0  0  0  0
    2.0970   11.5100   -3.3770 C   0  0  0  0  0  0  0  0  0  0  0  0
    1.0910   10.4540   -3.0580 C   0  0  0  0  0  0  0  0  0  0  0  0
    0.4400   10.3230   -1.8880 C   0  0  0  0  0  0  0  0  0  0  0  0
    0.7650   11.2360   -0.6990 C   0  0  1  0  0  0  0  0  0  0  0  0
    0.9120   10.3800    0.5870 C   0  0  0  0  0  0  0  0  0  0  0  0
   -0.3060    9.4980    0.8440 C   0  0  0  0  0  0  0  0  0  0  0  0
   -0.5620    8.5630   -0.3350 C   0  0  2  0  0  0  0  0  0  0  0  0
    0.5160    7.6270   -0.4250 O   0  0  0  0  0  0  0  0  0  0  0  0
   -0.7170    9.3130   -1.6880 C   0  0  0  0  0  0  0  0  0  0  0  0
   -2.0530   10.0970   -1.6990 C   0  0  0  0  0  0  0  0  0  0  0  0
   -0.8290    8.2490   -2.8130 C   0  0  0  0  0  0  0  0  0  0  0  0
    1.9810   12.2380   -0.9060 C   0  0  1  0  0  0  0  0  0  0  0  0
    3.3210   11.5340   -0.5310 C   0  0  0  0  0  0  0  0  0  0  0  0
    1.8230   13.4500    0.0860 C   0  0  0  0  0  0  0  0  0  0  0  0
    0.9840   14.6460   -0.4060 C   0  0  0  0  0  0  0  0  0  0  0  0
    1.4250   15.0870   -1.8050 C   0  0  2  0  0  0  0  0  0  0  0  0
    2.9120   15.5720   -1.7070 C   0  0  0  0  0  0  0  0  0  0  0  0
    2.7889   18.5514   -1.9025 H   0  0  0  0  0  0  0  0  0  0  0  0
    2.5449   17.4462   -3.2973 H   0  0  0  0  0  0  0  0  0  0  0  0
    1.7848   19.0737   -3.2973 H   0  0  0  0  0  0  0  0  0  0  0  0
   -0.0237   18.2705   -2.2715 H   0  0  0  0  0  0  0  0  0  0  0  0
    0.2443   16.9172   -0.0434 H   0  0  0  0  0  0  0  0  0  0  0  0
    1.9897   17.4388   -0.2039 H   0  0  0  0  0  0  0  0  0  0  0  0
    1.2185   19.1549    1.0751 H   0  0  0  0  0  0  0  0  0  0  0  0
    0.8455   19.8014   -0.5773 H   0  0  0  0  0  0  0  0  0  0  0  0
   -0.5835   19.3963    1.5623 H   0  0  0  0  0  0  0  0  0  0  0  0
   -0.8720   20.9720   -1.7610 H   0  0  0  0  0  0  0  0  0  0  0  0
   -1.0480   19.2840   -2.3496 H   0  0  0  0  0  0  0  0  0  0  0  0
   -2.4653   20.3874   -2.3496 H   0  0  0  0  0  0  0  0  0  0  0  0
   -3.1190   20.1679    1.2425 H   0  0  0  0  0  0  0  0  0  0  0  0
   -3.3223   21.2256   -0.1951 H   0  0  0  0  0  0  0  0  0  0  0  0
   -4.0131   19.5674   -0.1951 H   0  0  0  0  0  0  0  0  0  0  0  0
   -0.4683   16.0995   -2.2108 H   0  0  0  0  0  0  0  0  0  0  0  0
    0.0008   16.1344   -4.5804 H   0  0  0  0  0  0  0  0  0  0  0  0
    1.6330   16.7883   -4.3263 H   0  0  0  0  0  0  0  0  0  0  0  0
    1.0135   14.0759   -4.9804 H   0  0  0  0  0  0  0  0  0  0  0  0
    2.5759   14.6114   -4.3679 H   0  0  0  0  0  0  0  0  0  0  0  0
   -0.7296   13.3090   -1.9210 H   0  0  0  0  0  0  0  0  0  0  0  0
   -0.8756   14.2036   -3.4718 H   0  0  0  0  0  0  0  0  0  0  0  0
   -0.3493   12.4861   -3.4718 H   0  0  0  0  0  0  0  0  0  0  0  0
    3.1236   13.1522   -2.5134 H   0  0  0  0  0  0  0  0  0  0  0  0
    1.8805   11.8920   -4.3856 H   0  0  0  0  0  0  0  0  0  0  0  0
    3.0819   11.0278   -3.2902 H   0  0  0  0  0  0  0  0  0  0  0  0
    0.8628    9.7213   -3.8461 H   0  0  0  0  0  0  0  0  0  0  0  0
   -0.0917   11.9185   -0.5976 H   0  0  0  0  0  0  0  0  0  0  0  0
    1.7980    9.7364    0.4830 H   0  0  0  0  0  0  0  0  0  0  0  0
    1.0108   11.0697    1.4382 H   0  0  0  0  0  0  0  0  0  0  0  0
   -0.1307    8.8970    1.7484 H   0  0  0  0  0  0  0  0  0  0  0  0
   -1.1858   10.1448    0.9761 H   0  0  0  0  0  0  0  0  0  0  0  0
   -1.5173    8.0507   -0.1481 H   0  0  0  0  0  0  0  0  0  0  0  0
    0.7220    7.3280    0.4770 H   0  0  0  0  0  0  0  0  0  0  0  0
   -2.3756   10.2863   -0.6645 H   0  0  0  0  0  0  0  0  0  0  0  0
   -1.9115   11.0553   -2.2201 H   0  0  0  0  0  0  0  0  0  0  0  0
   -2.8206    9.5061   -2.2201 H   0  0  0  0  0  0  0  0  0  0  0  0
   -0.9341    7.2503   -2.3640 H   0  0  0  0  0  0  0  0  0  0  0  0
   -1.7093    8.4654   -3.4360 H   0  0  0  0  0  0  0  0  0  0  0  0
    0.0771    8.2774   -3.4360 H   0  0  0  0  0  0  0  0  0  0  0  0
    3.4153   11.4845    0.5638 H   0  0  0  0  0  0  0  0  0  0  0  0
    3.3287   10.5154   -0.9462 H   0  0  0  0  0  0  0  0  0  0  0  0
    4.1642   12.1056   -0.9462 H   0  0  0  0  0  0  0  0  0  0  0  0
    1.3528   13.0691    1.0046 H   0  0  0  0  0  0  0  0  0  0  0  0
    2.8400   13.8473    0.2194 H   0  0  0  0  0  0  0  0  0  0  0  0
   -0.0757   14.3529   -0.4385 H   0  0  0  0  0  0  0  0  0  0  0  0
    1.1302   15.4862    0.2888 H   0  0  0  0  0  0  0  0  0  0  0  0
    3.1983   15.6654   -0.6490 H   0  0  0  0  0  0  0  0  0  0  0  0
    3.5692   14.8417   -2.2016 H   0  0  0  0  0  0  0  0  0  0  0  0
    3.0122   16.5494   -2.2016 H   0  0  0  0  0  0  0  0  0  0  0  0
  1  2  1  0
  2  3  1  0
  3  4  1  0
  4  5  1  0
  5  6  1  0
  6  7  1  0
  7  8  1  0
  7  9  1  0
  2 10  1  0
 10 11  1  0
 11 12  1  0
 12 13  1  0
 13 14  1  6
 13 15  1  0
 15 16  1  0
 16 17  1  0
 17 18  2  0
 18 19  1  0
 19 20  1  0
 20 21  1  0
 21 22  1  0
 22 23  1  0
 22 24  1  0
 24 25  1  0
 24 26  1  0
 19 27  1  0
 27 28  1  1
 27 29  1  0
 29 30  1  0
 30 31  1  0
 31 32  1  1
  7  5  1  0
 31 10  1  0
 31 13  1  0
 27 15  1  0
 24 18  1  0
  1 33  1  0
  1 34  1  0
  1 35  1  0
  2 36  1  1
  3 37  1  0
  3 38  1  0
  4 39  1  0
  4 40  1  0
  5 41  1  1
  8 42  1  0
  8 43  1  0
  8 44  1  0
  9 45  1  0
  9 46  1  0
  9 47  1  0
 10 48  1  6
 11 49  1  0
 11 50  1  0
 12 51  1  0
 12 52  1  0
 14 53  1  0
 14 54  1  0
 14 55  1  0
 15 56  1  1
 16 57  1  0
 16 58  1  0
 17 59  1  0
 19 60  1  1
 20 61  1  0
 20 62  1  0
 21 63  1  0
 21 64  1  0
 22 65  1  1
 23 66  1  0
 25 67  1  0
 25 68  1  0
 25 69  1  0
 26 70  1  0
 26 71  1  0
 26 72  1  0
 28 73  1  0
 28 74  1  0
 28 75  1  0
 29 76  1  0
 29 77  1  0
 30 78  1  0
 30 79  1  0
 32 80  1  0
 32 81  1  0
 32 82  1  0
M  END
>  <meeko>  (7) 
{"is_sidechain": [false], "intermolecular_energy": 2.731, "internal_energy": -0.839}

$$$$
EPH_relaxed_0001_pdb2pqr_Repair_361_r2_0001_out
     RDKit          3D

 82 86  0  0  0  0  0  0  0  0999 V2000
   -1.3150   16.4810   -6.0370 C   0  0  0  0  0  0  0  0  0  0  0  0
   -0.0730   15.8210   -6.6420 C   0  0  2  0  0  0  0  0  0  0  0  0
   -0.2830   15.4320   -8.1190 C   0  0  0  0  0  0  0  0  0  0  0  0
    0.3400   16.4190   -9.1100 C   0  0  0  0  0  0  0  0  0  0  0  0
    1.7620   16.0670   -9.4240 C   0  0  2  0  0  0  0  0  0  0  0  0
    2.2840   16.6830  -10.6080 O   0  0  0  0  0  0  0  0  0  0  0  0
    2.1750   15.2500  -10.6340 C   0  0  0  0  0  0  0  0  0  0  0  0
    1.1630   14.7350  -11.6090 C   0  0  0  0  0  0  0  0  0  0  0  0
    3.4940   14.5440  -10.6050 C   0  0  0  0  0  0  0  0  0  0  0  0
    0.3100   14.5900   -5.8290 C   0  0  1  0  0  0  0  0  0  0  0  0
    1.4010   13.7310   -6.5220 C   0  0  0  0  0  0  0  0  0  0  0  0
    2.2920   13.1450   -5.3970 C   0  0  0  0  0  0  0  0  0  0  0  0
    1.4990   13.4070   -4.0950 C   0  0  1  0  0  0  0  0  0  0  0  0
    0.4430   12.2600   -4.0310 C   0  0  0  0  0  0  0  0  0  0  0  0
    2.3390   13.4940   -2.7800 C   0  0  2  0  0  0  0  0  0  0  0  0
    3.0940   12.2080   -2.4020 C   0  0  0  0  0  0  0  0  0  0  0  0
    2.3420   11.2600   -1.5270 C   0  0  0  0  0  0  0  0  0  0  0  0
    1.2280   11.5540   -0.8320 C   0  0  0  0  0  0  0  0  0  0  0  0
    0.6690   12.9820   -0.8080 C   0  0  1  0  0  0  0  0  0  0  0  0
    0.3170   13.3760    0.6510 C   0  0  0  0  0  0  0  0  0  0  0  0
   -0.6170   12.3720    1.3200 C   0  0  0  0  0  0  0  0  0  0  0  0
   -0.0000   10.9760    1.3280 C   0  0  2  0  0  0  0  0  0  0  0  0
    1.1490   10.9840    2.1810 O   0  0  0  0  0  0  0  0  0  0  0  0
    0.4030   10.4760   -0.0870 C   0  0  0  0  0  0  0  0  0  0  0  0
   -0.8700   10.1790   -0.9170 C   0  0  0  0  0  0  0  0  0  0  0  0
    1.1400    9.1190    0.0780 C   0  0  0  0  0  0  0  0  0  0  0  0
    1.5470   14.0840   -1.5430 C   0  0  1  0  0  0  0  0  0  0  0  0
    2.6160   14.6540   -0.5610 C   0  0  0  0  0  0  0  0  0  0  0  0
    0.6240   15.2940   -1.9450 C   0  0  0  0  0  0  0  0  0  0  0  0
   -0.0850   15.2030   -3.3100 C   0  0  0  0  0  0  0  0  0  0  0  0
    0.9040   14.8270   -4.4170 C   0  0  2  0  0  0  0  0  0  0  0  0
    1.9650   15.9740   -4.5210 C   0  0  0  0  0  0  0  0  0  0  0  0
   -1.2506   16.4468   -4.9394 H   0  0  0  0  0  0  0  0  0  0  0  0
   -1.3719   17.5283   -6.3685 H   0  0  0  0  0  0  0  0  0  0  0  0
   -2.2148   15.9421   -6.3685 H   0  0  0  0  0  0  0  0  0  0  0  0
    0.7428   16.5581   -6.6075 H   0  0  0  0  0  0  0  0  0  0  0  0
    0.1675   14.4423   -8.2849 H   0  0  0  0  0  0  0  0  0  0  0  0
   -1.3678   15.4352   -8.3011 H   0  0  0  0  0  0  0  0  0  0  0  0
   -0.2446   16.4053  -10.0417 H   0  0  0  0  0  0  0  0  0  0  0  0
    0.3279   17.4187   -8.6512 H   0  0  0  0  0  0  0  0  0  0  0  0
    1.9986   15.9714   -8.3540 H   0  0  0  0  0  0  0  0  0  0  0  0
    0.3129   14.3024  -11.0610 H   0  0  0  0  0  0  0  0  0  0  0  0
    0.8088   15.5625  -12.2413 H   0  0  0  0  0  0  0  0  0  0  0  0
    1.6235   13.9616  -12.2413 H   0  0  0  0  0  0  0  0  0  0  0  0
    3.7995   14.3805   -9.5610 H   0  0  0  0  0  0  0  0  0  0  0  0
    3.4022   13.5744  -11.1163 H   0  0  0  0  0  0  0  0  0  0  0  0
    4.2499   15.1581  -11.1163 H   0  0  0  0  0  0  0  0  0  0  0  0
   -0.6760   14.1093   -5.7475 H   0  0  0  0  0  0  0  0  0  0  0  0
    0.9340   12.9180   -7.0973 H   0  0  0  0  0  0  0  0  0  0  0  0
    1.9959   14.3375   -7.2208 H   0  0  0  0  0  0  0  0  0  0  0  0
    2.4473   12.0664   -5.5467 H   0  0  0  0  0  0  0  0  0  0  0  0
    3.2920   13.6028   -5.3757 H   0  0  0  0  0  0  0  0  0  0  0  0
    0.2237   12.0218   -2.9797 H   0  0  0  0  0  0  0  0  0  0  0  0
   -0.4803   12.5832   -4.5341 H   0  0  0  0  0  0  0  0  0  0  0  0
    0.8412   11.3665   -4.5341 H   0  0  0  0  0  0  0  0  0  0  0  0
    3.1140   14.2290   -3.0431 H   0  0  0  0  0  0  0  0  0  0  0  0
    3.3525   11.6800   -3.3317 H   0  0  0  0  0  0  0  0  0  0  0  0
    3.9699   12.5297   -1.8195 H   0  0  0  0  0  0  0  0  0  0  0  0
    2.7317   10.2347   -1.4436 H   0  0  0  0  0  0  0  0  0  0  0  0
   -0.2448   12.9605   -1.4199 H   0  0  0  0  0  0  0  0  0  0  0  0
    1.2476   13.4347    1.2345 H   0  0  0  0  0  0  0  0  0  0  0  0
   -0.2029   14.3449    0.6186 H   0  0  0  0  0  0  0  0  0  0  0  0
   -0.8038   12.6892    2.3566 H   0  0  0  0  0  0  0  0  0  0  0  0
   -1.5592   12.3367    0.7534 H   0  0  0  0  0  0  0  0  0  0  0  0
   -0.7658   10.2795    1.7002 H   0  0  0  0  0  0  0  0  0  0  0  0
    0.8610   10.6990    3.0650 H   0  0  0  0  0  0  0  0  0  0  0  0
   -1.7128    9.9824   -0.2380 H   0  0  0  0  0  0  0  0  0  0  0  0
   -1.1048   11.0465   -1.5513 H   0  0  0  0  0  0  0  0  0  0  0  0
   -0.6967    9.2972   -1.5513 H   0  0  0  0  0  0  0  0  0  0  0  0
    1.2614    8.8954    1.1482 H   0  0  0  0  0  0  0  0  0  0  0  0
    0.5510    8.3215   -0.3987 H   0  0  0  0  0  0  0  0  0  0  0  0
    2.1296    9.1788   -0.3987 H   0  0  0  0  0  0  0  0  0  0  0  0
    2.2911   14.4808    0.4755 H   0  0  0  0  0  0  0  0  0  0  0  0
    3.5781   14.1491   -0.7329 H   0  0  0  0  0  0  0  0  0  0  0  0
    2.7329   15.7342   -0.7329 H   0  0  0  0  0  0  0  0  0  0  0  0
   -0.1528   15.3911   -1.1723 H   0  0  0  0  0  0  0  0  0  0  0  0
    1.3009   16.1570   -2.0290 H   0  0  0  0  0  0  0  0  0  0  0  0
   -0.8729   14.4373   -3.2560 H   0  0  0  0  0  0  0  0  0  0  0  0
   -0.5190   16.1858   -3.5462 H   0  0  0  0  0  0  0  0  0  0  0  0
    2.2602   16.2931   -3.5105 H   0  0  0  0  0  0  0  0  0  0  0  0
    2.8494   15.6074   -5.0628 H   0  0  0  0  0  0  0  0  0  0  0  0
    1.5307   16.8272   -5.0628 H   0  0  0  0  0  0  0  0  0  0  0  0
  1  2  1  0
  2  3  1  0
  3  4  1  0
  4  5  1  0
  5  6  1  0
  6  7  1  0
  7  8  1  0
  7  9  1  0
  2 10  1  0
 10 11  1  0
 11 12  1  0
 12 13  1  0
 13 14  1  1
 13 15  1  0
 15 16  1  0
 16 17  1  0
 17 18  2  0
 18 19  1  0
 19 20  1  0
 20 21  1  0
 21 22  1  0
 22 23  1  0
 22 24  1  0
 24 25  1  0
 24 26  1  0
 19 27  1  0
 27 28  1  1
 27 29  1  0
 29 30  1  0
 30 31  1  0
 31 32  1  6
  7  5  1  0
 31 10  1  0
 31 13  1  0
 27 15  1  0
 24 18  1  0
  1 33  1  0
  1 34  1  0
  1 35  1  0
  2 36  1  6
  3 37  1  0
  3 38  1  0
  4 39  1  0
  4 40  1  0
  5 41  1  1
  8 42  1  0
  8 43  1  0
  8 44  1  0
  9 45  1  0
  9 46  1  0
  9 47  1  0
 10 48  1  1
 11 49  1  0
 11 50  1  0
 12 51  1  0
 12 52  1  0
 14 53  1  0
 14 54  1  0
 14 55  1  0
 15 56  1  6
 16 57  1  0
 16 58  1  0
 17 59  1  0
 19 60  1  6
 20 61  1  0
 20 62  1  0
 21 63  1  0
 21 64  1  0
 22 65  1  1
 23 66  1  0
 25 67  1  0
 25 68  1  0
 25 69  1  0
 26 70  1  0
 26 71  1  0
 26 72  1  0
 28 73  1  0
 28 74  1  0
 28 75  1  0
 29 76  1  0
 29 77  1  0
 30 78  1  0
 30 79  1  0
 32 80  1  0
 32 81  1  0
 32 82  1  0
M  END
>  <meeko>  (8) 
{"is_sidechain": [false], "intermolecular_energy": 2.731, "internal_energy": -0.839}

$$$$
EPH_relaxed_0001_pdb2pqr_Repair_361_r2_0001_out
     RDKit          3D

 82 86  0  0  0  0  0  0  0  0999 V2000
   -2.0900   14.1470    0.4890 C   0  0  0  0  0  0  0  0  0  0  0  0
   -0.7630   14.8890    0.6690 C   0  0  2  0  0  0  0  0  0  0  0  0
   -0.6940   16.1710   -0.1850 C   0  0  0  0  0  0  0  0  0  0  0  0
    0.7320   16.5900   -0.5520 C   0  0  0  0  0  0  0  0  0  0  0  0
    0.9730   18.0430   -0.2720 C   0  0  2  0  0  0  0  0  0  0  0  0
    1.7430   18.7250   -1.2710 O   0  0  0  0  0  0  0  0  0  0  0  0
    2.3430   18.6200    0.0310 C   0  0  0  0  0  0  0  0  0  0  0  0
    3.5630   17.7550    0.0710 C   0  0  0  0  0  0  0  0  0  0  0  0
    2.4230   19.9230    0.7640 C   0  0  0  0  0  0  0  0  0  0  0  0
    0.4000   13.9670    0.3200 C   0  0  1  0  0  0  0  0  0  0  0  0
    0.6630   12.8970    1.4120 C   0  0  0  0  0  0  0  0  0  0  0  0
    1.1250   11.6120    0.6780 C   0  0  0  0  0  0  0  0  0  0  0  0
    1.4310   12.0770   -0.7650 C   0  0  1  0  0  0  0  0  0  0  0  0
    2.8600   12.7000   -0.6920 C   0  0  0  0  0  0  0  0  0  0  0  0
    1.3350   10.9830   -1.8780 C   0  0  2  0  0  0  0  0  0  0  0  0
    2.3290    9.8170   -1.7340 C   0  0  0  0  0  0  0  0  0  0  0  0
    3.6380   10.0050   -2.4260 C   0  0  0  0  0  0  0  0  0  0  0  0
    3.9000   10.9330   -3.3650 C   0  0  0  0  0  0  0  0  0  0  0  0
    2.7930   11.8550   -3.8920 C   0  0  1  0  0  0  0  0  0  0  0  0
    2.8580   11.9090   -5.4410 C   0  0  0  0  0  0  0  0  0  0  0  0
    4.2390   12.3030   -5.9550 C   0  0  0  0  0  0  0  0  0  0  0  0
    5.3050   11.3300   -5.4570 C   0  0  2  0  0  0  0  0  0  0  0  0
    5.0770   10.0510   -6.0570 O   0  0  0  0  0  0  0  0  0  0  0  0
    5.3280   11.1860   -3.9100 C   0  0  0  0  0  0  0  0  0  0  0  0
    5.8670   12.4900   -3.2730 C   0  0  0  0  0  0  0  0  0  0  0  0
    6.3480   10.0720   -3.5490 C   0  0  0  0  0  0  0  0  0  0  0  0
    1.3280   11.5570   -3.3530 C   0  0  1  0  0  0  0  0  0  0  0  0
    0.6410   10.4800   -4.2460 C   0  0  0  0  0  0  0  0  0  0  0  0
    0.4570   12.8620   -3.4820 C   0  0  0  0  0  0  0  0  0  0  0  0
    0.5010   13.8470   -2.2980 C   0  0  0  0  0  0  0  0  0  0  0  0
    0.2720   13.1190   -0.9700 C   0  0  2  0  0  0  0  0  0  0  0  0
   -1.1670   12.5000   -1.0060 C   0  0  0  0  0  0  0  0  0  0  0  0
   -2.5142   13.9098    1.4758 H   0  0  0  0  0  0  0  0  0  0  0  0
   -2.7929   14.7830   -0.0691 H   0  0  0  0  0  0  0  0  0  0  0  0
   -1.9163   13.2151   -0.0691 H   0  0  0  0  0  0  0  0  0  0  0  0
   -0.6936   15.1914    1.7243 H   0  0  0  0  0  0  0  0  0  0  0  0
   -1.2558   15.9994   -1.1150 H   0  0  0  0  0  0  0  0  0  0  0  0
   -1.1222   16.9837    0.4201 H   0  0  0  0  0  0  0  0  0  0  0  0
    1.4422   15.9910    0.0369 H   0  0  0  0  0  0  0  0  0  0  0  0
    0.8722   16.4209   -1.6298 H   0  0  0  0  0  0  0  0  0  0  0  0
    0.0058   18.1286    0.2449 H   0  0  0  0  0  0  0  0  0  0  0  0
    3.8394   17.5590    1.1175 H   0  0  0  0  0  0  0  0  0  0  0  0
    3.3538   16.8023   -0.4376 H   0  0  0  0  0  0  0  0  0  0  0  0
    4.3928   18.2677   -0.4376 H   0  0  0  0  0  0  0  0  0  0  0  0
    2.4115   19.7353    1.8478 H   0  0  0  0  0  0  0  0  0  0  0  0
    3.3546   20.4405    0.4914 H   0  0  0  0  0  0  0  0  0  0  0  0
    1.5617   20.5506    0.4914 H   0  0  0  0  0  0  0  0  0  0  0  0
    1.1986   14.7142    0.2018 H   0  0  0  0  0  0  0  0  0  0  0  0
    1.4483   13.2432    2.1000 H   0  0  0  0  0  0  0  0  0  0  0  0
   -0.2434   12.7081    2.0058 H   0  0  0  0  0  0  0  0  0  0  0  0
    2.0267   11.1968    1.1518 H   0  0  0  0  0  0  0  0  0  0  0  0
    0.3648   10.8175    0.7084 H   0  0  0  0  0  0  0  0  0  0  0  0
    3.1513   12.8270    0.3611 H   0  0  0  0  0  0  0  0  0  0  0  0
    3.5769   12.0328   -1.1928 H   0  0  0  0  0  0  0  0  0  0  0  0
    2.8590   13.6794   -1.1928 H   0  0  0  0  0  0  0  0  0  0  0  0
    0.3392   10.5514   -1.6988 H   0  0  0  0  0  0  0  0  0  0  0  0
    2.5291    9.6716   -0.6622 H   0  0  0  0  0  0  0  0  0  0  0  0
    1.8525    8.9502   -2.2152 H   0  0  0  0  0  0  0  0  0  0  0  0
    4.4580    9.3278   -2.1448 H   0  0  0  0  0  0  0  0  0  0  0  0
    3.0022   12.8510   -3.4747 H   0  0  0  0  0  0  0  0  0  0  0  0
    2.6036   10.9158   -5.8395 H   0  0  0  0  0  0  0  0  0  0  0  0
    2.1449   12.6754   -5.7786 H   0  0  0  0  0  0  0  0  0  0  0  0
    4.2296   12.2945   -7.0549 H   0  0  0  0  0  0  0  0  0  0  0  0
    4.4792   13.3088   -5.5800 H   0  0  0  0  0  0  0  0  0  0  0  0
    6.2851   11.7361   -5.7479 H   0  0  0  0  0  0  0  0  0  0  0  0
    4.6270    9.4940   -5.3990 H   0  0  0  0  0  0  0  0  0  0  0  0
    5.8317   12.4045   -2.1769 H   0  0  0  0  0  0  0  0  0  0  0  0
    6.9062   12.6529   -3.5947 H   0  0  0  0  0  0  0  0  0  0  0  0
    5.2461   13.3391   -3.5947 H   0  0  0  0  0  0  0  0  0  0  0  0
    6.4260    9.9868   -2.4551 H   0  0  0  0  0  0  0  0  0  0  0  0
    6.0078    9.1136   -3.9681 H   0  0  0  0  0  0  0  0  0  0  0  0
    7.3326   10.3266   -3.9681 H   0  0  0  0  0  0  0  0  0  0  0  0
    0.1598    9.7257   -3.6061 H   0  0  0  0  0  0  0  0  0  0  0  0
   -0.1181   10.9601   -4.8811 H   0  0  0  0  0  0  0  0  0  0  0  0
    1.3964    9.9941   -4.8811 H   0  0  0  0  0  0  0  0  0  0  0  0
    0.7981   13.4025   -4.3773 H   0  0  0  0  0  0  0  0  0  0  0  0
   -0.5842   12.5098   -3.5246 H   0  0  0  0  0  0  0  0  0  0  0  0
    1.4853   14.3374   -2.2744 H   0  0  0  0  0  0  0  0  0  0  0  0
   -0.2973   14.5918   -2.4317 H   0  0  0  0  0  0  0  0  0  0  0  0
   -1.5256   12.3457    0.0224 H   0  0  0  0  0  0  0  0  0  0  0  0
   -1.8477   13.1849   -1.5328 H   0  0  0  0  0  0  0  0  0  0  0  0
   -1.1379   11.5348   -1.5328 H   0  0  0  0  0  0  0  0  0  0  0  0
  1  2  1  0
  2  3  1  0
  3  4  1  0
  4  5  1  0
  5  6  1  0
  6  7  1  0
  7  8  1  0
  7  9  1  0
  2 10  1  0
 10 11  1  0
 11 12  1  0
 12 13  1  0
 13 14  1  1
 13 15  1  0
 15 16  1  0
 16 17  1  0
 17 18  2  0
 18 19  1  0
 19 20  1  0
 20 21  1  0
 21 22  1  0
 22 23  1  0
 22 24  1  0
 24 25  1  0
 24 26  1  0
 19 27  1  0
 27 28  1  6
 27 29  1  0
 29 30  1  0
 30 31  1  0
 31 32  1  6
  7  5  1  0
 31 10  1  0
 31 13  1  0
 27 15  1  0
 24 18  1  0
  1 33  1  0
  1 34  1  0
  1 35  1  0
  2 36  1  1
  3 37  1  0
  3 38  1  0
  4 39  1  0
  4 40  1  0
  5 41  1  1
  8 42  1  0
  8 43  1  0
  8 44  1  0
  9 45  1  0
  9 46  1  0
  9 47  1  0
 10 48  1  6
 11 49  1  0
 11 50  1  0
 12 51  1  0
 12 52  1  0
 14 53  1  0
 14 54  1  0
 14 55  1  0
 15 56  1  1
 16 57  1  0
 16 58  1  0
 17 59  1  0
 19 60  1  1
 20 61  1  0
 20 62  1  0
 21 63  1  0
 21 64  1  0
 22 65  1  6
 23 66  1  0
 25 67  1  0
 25 68  1  0
 25 69  1  0
 26 70  1  0
 26 71  1  0
 26 72  1  0
 28 73  1  0
 28 74  1  0
 28 75  1  0
 29 76  1  0
 29 77  1  0
 30 78  1  0
 30 79  1  0
 32 80  1  0
 32 81  1  0
 32 82  1  0
M  END
>  <meeko>  (9) 
{"is_sidechain": [false], "intermolecular_energy": 2.731, "internal_energy": -0.839}

$$$$
EPH_relaxed_0001_pdb2pqr_Repair_361_r2_0001_out
     RDKit          3D

 82 86  0  0  0  0  0  0  0  0999 V2000
    0.0340    9.3970   -2.5610 C   0  0  0  0  0  0  0  0  0  0  0  0
    1.1280   10.3940   -2.9520 C   0  0  2  0  0  0  0  0  0  0  0  0
    2.5220    9.7370   -3.0020 C   0  0  0  0  0  0  0  0  0  0  0  0
    3.4940   10.4280   -3.9610 C   0  0  0  0  0  0  0  0  0  0  0  0
    4.8610   10.5640   -3.3620 C   0  0  2  0  0  0  0  0  0  0  0  0
    5.4550   11.8600   -3.5130 O   0  0  0  0  0  0  0  0  0  0  0  0
    6.1180   10.7760   -4.1850 C   0  0  0  0  0  0  0  0  0  0  0  0
    6.0680   10.8640   -5.6780 C   0  0  0  0  0  0  0  0  0  0  0  0
    7.4390   10.4110   -3.5820 C   0  0  0  0  0  0  0  0  0  0  0  0
    1.1380   11.5640   -1.9740 C   0  0  1  0  0  0  0  0  0  0  0  0
    2.1940   11.3930   -0.8500 C   0  0  0  0  0  0  0  0  0  0  0  0
    2.7360   12.8090   -0.5260 C   0  0  0  0  0  0  0  0  0  0  0  0
    1.7510   13.7730   -1.2270 C   0  0  1  0  0  0  0  0  0  0  0  0
    0.5340   13.8790   -0.2550 C   0  0  0  0  0  0  0  0  0  0  0  0
    2.3130   15.1830   -1.6040 C   0  0  2  0  0  0  0  0  0  0  0  0
    2.7620   16.0460   -0.4120 C   0  0  0  0  0  0  0  0  0  0  0  0
    1.7080   16.9310    0.1670 C   0  0  0  0  0  0  0  0  0  0  0  0
    0.5390   17.2440   -0.4230 C   0  0  0  0  0  0  0  0  0  0  0  0
    0.2220   16.7660   -1.8460 C   0  0  1  0  0  0  0  0  0  0  0  0
   -0.3460   17.9490   -2.6740 C   0  0  0  0  0  0  0  0  0  0  0  0
   -1.5440   18.6120   -2.0000 C   0  0  0  0  0  0  0  0  0  0  0  0
   -1.1730   19.1250   -0.6110 C   0  0  2  0  0  0  0  0  0  0  0  0
   -0.2320   20.1950   -0.7510 O   0  0  0  0  0  0  0  0  0  0  0  0
   -0.5800   18.0240    0.3110 C   0  0  0  0  0  0  0  0  0  0  0  0
   -1.6920   17.0210    0.7060 C   0  0  0  0  0  0  0  0  0  0  0  0
   -0.1180   18.7020    1.6290 C   0  0  0  0  0  0  0  0  0  0  0  0
    1.3950   16.0020   -2.5980 C   0  0  1  0  0  0  0  0  0  0  0  0
    2.3230   17.0290   -3.3170 C   0  0  0  0  0  0  0  0  0  0  0  0
    0.7760   15.0950   -3.7270 C   0  0  0  0  0  0  0  0  0  0  0  0
    0.3500   13.6720   -3.3190 C   0  0  0  0  0  0  0  0  0  0  0  0
    1.4670   12.9660   -2.5460 C   0  0  2  0  0  0  0  0  0  0  0  0
    2.6980   12.8240   -3.5050 C   0  0  0  0  0  0  0  0  0  0  0  0
   -0.0322    9.3366   -1.4647 H   0  0  0  0  0  0  0  0  0  0  0  0
   -0.9309    9.7328   -2.9687 H   0  0  0  0  0  0  0  0  0  0  0  0
    0.2791    8.4052   -2.9687 H   0  0  0  0  0  0  0  0  0  0  0  0
    0.8983   10.7573   -3.9646 H   0  0  0  0  0  0  0  0  0  0  0  0
    2.9545    9.7628   -1.9909 H   0  0  0  0  0  0  0  0  0  0  0  0
    2.3805    8.7108   -3.3720 H   0  0  0  0  0  0  0  0  0  0  0  0
    3.5667    9.8341   -4.8841 H   0  0  0  0  0  0  0  0  0  0  0  0
    3.1096   11.4371   -4.1707 H   0  0  0  0  0  0  0  0  0  0  0  0
    4.6109    9.8431   -2.5697 H   0  0  0  0  0  0  0  0  0  0  0  0
    5.5446   11.7852   -5.9737 H   0  0  0  0  0  0  0  0  0  0  0  0
    7.0922   10.8794   -6.0789 H   0  0  0  0  0  0  0  0  0  0  0  0
    5.5304    9.9921   -6.0789 H   0  0  0  0  0  0  0  0  0  0  0  0
    7.3599   10.4329   -2.4851 H   0  0  0  0  0  0  0  0  0  0  0  0
    7.7246    9.4003   -3.9090 H   0  0  0  0  0  0  0  0  0  0  0  0
    8.2030   11.1317   -3.9090 H   0  0  0  0  0  0  0  0  0  0  0  0
    0.0916   11.5317   -1.6362 H   0  0  0  0  0  0  0  0  0  0  0  0
    1.7280   10.9522    0.0436 H   0  0  0  0  0  0  0  0  0  0  0  0
    3.0058   10.7230   -1.1695 H   0  0  0  0  0  0  0  0  0  0  0  0
    2.7431   12.9830    0.5601 H   0  0  0  0  0  0  0  0  0  0  0  0
    3.7717   12.9481   -0.8695 H   0  0  0  0  0  0  0  0  0  0  0  0
    0.8914   13.8479    0.7848 H   0  0  0  0  0  0  0  0  0  0  0  0
    0.0044   14.8267   -0.4325 H   0  0  0  0  0  0  0  0  0  0  0  0
   -0.1514   13.0372   -0.4325 H   0  0  0  0  0  0  0  0  0  0  0  0
    3.2322   14.9316   -2.1535 H   0  0  0  0  0  0  0  0  0  0  0  0
    3.1138   15.3716    0.3826 H   0  0  0  0  0  0  0  0  0  0  0  0
    3.5437   16.7163   -0.7988 H   0  0  0  0  0  0  0  0  0  0  0  0
    1.9031   17.3638    1.1593 H   0  0  0  0  0  0  0  0  0  0  0  0
   -0.5427   15.9822   -1.7411 H   0  0  0  0  0  0  0  0  0  0  0  0
    0.4462   18.7009   -2.8043 H   0  0  0  0  0  0  0  0  0  0  0  0
   -0.6858   17.5480   -3.6403 H   0  0  0  0  0  0  0  0  0  0  0  0
   -1.8824   19.4571   -2.6175 H   0  0  0  0  0  0  0  0  0  0  0  0
   -2.3460   17.8663   -1.8964 H   0  0  0  0  0  0  0  0  0  0  0  0
   -2.0992   19.4711   -0.1289 H   0  0  0  0  0  0  0  0  0  0  0  0
   -0.1540   20.3960   -1.6990 H   0  0  0  0  0  0  0  0  0  0  0  0
   -1.7589   16.9607    1.8023 H   0  0  0  0  0  0  0  0  0  0  0  0
   -2.6550   17.3619    0.2981 H   0  0  0  0  0  0  0  0  0  0  0  0
   -1.4519   16.0280    0.2981 H   0  0  0  0  0  0  0  0  0  0  0  0
   -0.5047   18.1345    2.4883 H   0  0  0  0  0  0  0  0  0  0  0  0
    0.9812   18.7202    1.6663 H   0  0  0  0  0  0  0  0  0  0  0  0
   -0.5032   19.7317    1.6663 H   0  0  0  0  0  0  0  0  0  0  0  0
    2.8617   17.6251   -2.5657 H   0  0  0  0  0  0  0  0  0  0  0  0
    3.0473   16.4909   -3.9462 H   0  0  0  0  0  0  0  0  0  0  0  0
    1.7145   17.6952   -3.9462 H   0  0  0  0  0  0  0  0  0  0  0  0
   -0.1144   15.6100   -4.1168 H   0  0  0  0  0  0  0  0  0  0  0  0
    1.5848   14.9546   -4.4592 H   0  0  0  0  0  0  0  0  0  0  0  0
   -0.5451   13.7329   -2.6825 H   0  0  0  0  0  0  0  0  0  0  0  0
    0.1357   13.0951   -4.2307 H   0  0  0  0  0  0  0  0  0  0  0  0
    3.6166   12.7180   -2.9092 H   0  0  0  0  0  0  0  0  0  0  0  0
    2.5679   11.9349   -4.1395 H   0  0  0  0  0  0  0  0  0  0  0  0
    2.7737   13.7194   -4.1395 H   0  0  0  0  0  0  0  0  0  0  0  0
  1  2  1  0
  2  3  1  0
  3  4  1  0
  4  5  1  0
  5  6  1  0
  6  7  1  0
  7  8  1  0
  7  9  1  0
  2 10  1  0
 10 11  1  0
 11 12  1  0
 12 13  1  0
 13 14  1  1
 13 15  1  0
 15 16  1  0
 16 17  1  0
 17 18  2  0
 18 19  1  0
 19 20  1  0
 20 21  1  0
 21 22  1  0
 22 23  1  0
 22 24  1  0
 24 25  1  0
 24 26  1  0
 19 27  1  0
 27 28  1  6
 27 29  1  0
 29 30  1  0
 30 31  1  0
 31 32  1  6
  7  5  1  0
 31 10  1  0
 31 13  1  0
 27 15  1  0
 24 18  1  0
  1 33  1  0
  1 34  1  0
  1 35  1  0
  2 36  1  6
  3 37  1  0
  3 38  1  0
  4 39  1  0
  4 40  1  0
  5 41  1  1
  8 42  1  0
  8 43  1  0
  8 44  1  0
  9 45  1  0
  9 46  1  0
  9 47  1  0
 10 48  1  1
 11 49  1  0
 11 50  1  0
 12 51  1  0
 12 52  1  0
 14 53  1  0
 14 54  1  0
 14 55  1  0
 15 56  1  6
 16 57  1  0
 16 58  1  0
 17 59  1  0
 19 60  1  1
 20 61  1  0
 20 62  1  0
 21 63  1  0
 21 64  1  0
 22 65  1  1
 23 66  1  0
 25 67  1  0
 25 68  1  0
 25 69  1  0
 26 70  1  0
 26 71  1  0
 26 72  1  0
 28 73  1  0
 28 74  1  0
 28 75  1  0
 29 76  1  0
 29 77  1  0
 30 78  1  0
 30 79  1  0
 32 80  1  0
 32 81  1  0
 32 82  1  0
M  END
>  <meeko>  (10) 
{"is_sidechain": [false], "intermolecular_energy": 2.731, "internal_energy": -0.839}

$$$$
EPH_relaxed_0001_pdb2pqr_Repair_361_r2_0001_out
     RDKit          3D

 82 86  0  0  0  0  0  0  0  0999 V2000
    0.4450   18.0390   -2.7110 C   0  0  0  0  0  0  0  0  0  0  0  0
    0.0920   17.1120   -1.5450 C   0  0  2  0  0  0  0  0  0  0  0  0
   -0.0220   17.8750   -0.2100 C   0  0  0  0  0  0  0  0  0  0  0  0
    0.6770   19.2370   -0.2180 C   0  0  0  0  0  0  0  0  0  0  0  0
    2.1580   19.1010   -0.0340 C   0  0  2  0  0  0  0  0  0  0  0  0
    2.5520   18.1800    0.9910 O   0  0  0  0  0  0  0  0  0  0  0  0
    2.8920   19.5590    1.2120 C   0  0  0  0  0  0  0  0  0  0  0  0
    2.1650   20.1880    2.3590 C   0  0  0  0  0  0  0  0  0  0  0  0
    4.3590   19.8410    1.1160 C   0  0  0  0  0  0  0  0  0  0  0  0
    1.1340   16.0070   -1.4260 C   0  0  1  0  0  0  0  0  0  0  0  0
    1.3080   15.5040    0.0330 C   0  0  0  0  0  0  0  0  0  0  0  0
    1.6040   13.9850   -0.0500 C   0  0  0  0  0  0  0  0  0  0  0  0
    1.9180   13.7290   -1.5430 C   0  0  1  0  0  0  0  0  0  0  0  0
    3.4090   14.1570   -1.7180 C   0  0  0  0  0  0  0  0  0  0  0  0
    1.6700   12.2760   -2.0620 C   0  0  2  0  0  0  0  0  0  0  0  0
    2.5310   11.1890   -1.3960 C   0  0  0  0  0  0  0  0  0  0  0  0
    3.8330   10.9060   -2.0700 C   0  0  0  0  0  0  0  0  0  0  0  0
    4.1700   11.2900   -3.3150 C   0  0  0  0  0  0  0  0  0  0  0  0
    3.1570   12.0030   -4.2200 C   0  0  1  0  0  0  0  0  0  0  0  0
    3.1830   11.3630   -5.6320 C   0  0  0  0  0  0  0  0  0  0  0  0
    4.5840   11.3330   -6.2350 C   0  0  0  0  0  0  0  0  0  0  0  0
    5.5490   10.5650   -5.3350 C   0  0  2  0  0  0  0  0  0  0  0  0
    5.1630    9.1870   -5.3150 O   0  0  0  0  0  0  0  0  0  0  0  0
    5.6000   11.1150   -3.8820 C   0  0  0  0  0  0  0  0  0  0  0  0
    6.2990   12.4970   -3.8720 C   0  0  0  0  0  0  0  0  0  0  0  0
    6.5000   10.1670   -3.0450 C   0  0  0  0  0  0  0  0  0  0  0  0
    1.6840   12.1390   -3.6390 C   0  0  1  0  0  0  0  0  0  0  0  0
    0.8560   10.8630   -3.9830 C   0  0  0  0  0  0  0  0  0  0  0  0
    0.9600   13.3430   -4.3500 C   0  0  0  0  0  0  0  0  0  0  0  0
    1.1470   14.7370   -3.7200 C   0  0  0  0  0  0  0  0  0  0  0  0
    0.8760   14.6980   -2.2130 C   0  0  2  0  0  0  0  0  0  0  0  0
   -0.6230   14.2920   -2.0060 C   0  0  0  0  0  0  0  0  0  0  0  0
    0.8107   18.9992   -2.3183 H   0  0  0  0  0  0  0  0  0  0  0  0
    1.2283   17.5723   -3.3263 H   0  0  0  0  0  0  0  0  0  0  0  0
   -0.4504   18.2116   -3.3263 H   0  0  0  0  0  0  0  0  0  0  0  0
   -0.8934   16.6723   -1.7587 H   0  0  0  0  0  0  0  0  0  0  0  0
   -1.0882   18.0331    0.0097 H   0  0  0  0  0  0  0  0  0  0  0  0
    0.4776   17.2618    0.5544 H   0  0  0  0  0  0  0  0  0  0  0  0
    0.4814   19.7324   -1.1804 H   0  0  0  0  0  0  0  0  0  0  0  0
    0.2806   19.8308    0.6188 H   0  0  0  0  0  0  0  0  0  0  0  0
    2.3316   19.2901   -1.1036 H   0  0  0  0  0  0  0  0  0  0  0  0
    2.5880   19.8220    3.3062 H   0  0  0  0  0  0  0  0  0  0  0  0
    2.2740   21.2813    2.3069 H   0  0  0  0  0  0  0  0  0  0  0  0
    1.0987   19.9229    2.3069 H   0  0  0  0  0  0  0  0  0  0  0  0
    4.7836   19.9226    2.1274 H   0  0  0  0  0  0  0  0  0  0  0  0
    4.8552   19.0218    0.5750 H   0  0  0  0  0  0  0  0  0  0  0  0
    4.5161   20.7858    0.5750 H   0  0  0  0  0  0  0  0  0  0  0  0
    2.0064   16.5311   -1.8433 H   0  0  0  0  0  0  0  0  0  0  0  0
    2.1460   16.0273    0.5167 H   0  0  0  0  0  0  0  0  0  0  0  0
    0.4036   15.6982    0.6282 H   0  0  0  0  0  0  0  0  0  0  0  0
    2.4676   13.7228    0.5788 H   0  0  0  0  0  0  0  0  0  0  0  0
    0.7615   13.3758    0.3092 H   0  0  0  0  0  0  0  0  0  0  0  0
    3.8710   14.2896   -0.7286 H   0  0  0  0  0  0  0  0  0  0  0  0
    3.9511   13.3782   -2.2744 H   0  0  0  0  0  0  0  0  0  0  0  0
    3.4555   15.1048   -2.2744 H   0  0  0  0  0  0  0  0  0  0  0  0
    0.6381   12.0821   -1.7340 H   0  0  0  0  0  0  0  0  0  0  0  0
    2.7440   11.5081   -0.3651 H   0  0  0  0  0  0  0  0  0  0  0  0
    1.9477   10.2584   -1.4570 H   0  0  0  0  0  0  0  0  0  0  0  0
    4.5806   10.3348   -1.5001 H   0  0  0  0  0  0  0  0  0  0  0  0
    3.4874   13.0505   -4.2793 H   0  0  0  0  0  0  0  0  0  0  0  0
    2.8086   10.3313   -5.5585 H   0  0  0  0  0  0  0  0  0  0  0  0
    2.5499   11.9776   -6.2888 H   0  0  0  0  0  0  0  0  0  0  0  0
    4.5420   10.8429   -7.2189 H   0  0  0  0  0  0  0  0  0  0  0  0
    4.9452   12.3671   -6.3355 H   0  0  0  0  0  0  0  0  0  0  0  0
    6.5592   10.6882   -5.7526 H   0  0  0  0  0  0  0  0  0  0  0  0
    5.4860    8.7800   -6.1370 H   0  0  0  0  0  0  0  0  0  0  0  0
    6.4615   12.8182   -2.8326 H   0  0  0  0  0  0  0  0  0  0  0  0
    7.2675   12.4218   -4.3882 H   0  0  0  0  0  0  0  0  0  0  0  0
    5.6645   13.2325   -4.3882 H   0  0  0  0  0  0  0  0  0  0  0  0
    6.3276   10.3486   -1.9739 H   0  0  0  0  0  0  0  0  0  0  0  0
    6.2538    9.1219   -3.2840 H   0  0  0  0  0  0  0  0  0  0  0  0
    7.5565   10.3586   -3.2840 H   0  0  0  0  0  0  0  0  0  0  0  0
    0.5368   10.3711   -3.0523 H   0  0  0  0  0  0  0  0  0  0  0  0
   -0.0298   11.1478   -4.5697 H   0  0  0  0  0  0  0  0  0  0  0  0
    1.4770   10.1700   -4.5697 H   0  0  0  0  0  0  0  0  0  0  0  0
    1.3334   13.3922   -5.3835 H   0  0  0  0  0  0  0  0  0  0  0  0
   -0.1147   13.1274   -4.2575 H   0  0  0  0  0  0  0  0  0  0  0  0
    2.1801   15.0737   -3.8913 H   0  0  0  0  0  0  0  0  0  0  0  0
    0.4333   15.4317   -4.1870 H   0  0  0  0  0  0  0  0  0  0  0  0
   -0.8416   14.2328   -0.9296 H   0  0  0  0  0  0  0  0  0  0  0  0
   -1.2747   15.0460   -2.4716 H   0  0  0  0  0  0  0  0  0  0  0  0
   -0.8051   13.3122   -2.4716 H   0  0  0  0  0  0  0  0  0  0  0  0
  1  2  1  0
  2  3  1  0
  3  4  1  0
  4  5  1  0
  5  6  1  0
  6  7  1  0
  7  8  1  0
  7  9  1  0
  2 10  1  0
 10 11  1  0
 11 12  1  0
 12 13  1  0
 13 14  1  1
 13 15  1  0
 15 16  1  0
 16 17  1  0
 17 18  2  0
 18 19  1  0
 19 20  1  0
 20 21  1  0
 21 22  1  0
 22 23  1  0
 22 24  1  0
 24 25  1  0
 24 26  1  0
 19 27  1  0
 27 28  1  1
 27 29  1  0
 29 30  1  0
 30 31  1  0
 31 32  1  6
  7  5  1  0
 31 10  1  0
 31 13  1  0
 27 15  1  0
 24 18  1  0
  1 33  1  0
  1 34  1  0
  1 35  1  0
  2 36  1  6
  3 37  1  0
  3 38  1  0
  4 39  1  0
  4 40  1  0
  5 41  1  6
  8 42  1  0
  8 43  1  0
  8 44  1  0
  9 45  1  0
  9 46  1  0
  9 47  1  0
 10 48  1  6
 11 49  1  0
 11 50  1  0
 12 51  1  0
 12 52  1  0
 14 53  1  0
 14 54  1  0
 14 55  1  0
 15 56  1  1
 16 57  1  0
 16 58  1  0
 17 59  1  0
 19 60  1  6
 20 61  1  0
 20 62  1  0
 21 63  1  0
 21 64  1  0
 22 65  1  6
 23 66  1  0
 25 67  1  0
 25 68  1  0
 25 69  1  0
 26 70  1  0
 26 71  1  0
 26 72  1  0
 28 73  1  0
 28 74  1  0
 28 75  1  0
 29 76  1  0
 29 77  1  0
 30 78  1  0
 30 79  1  0
 32 80  1  0
 32 81  1  0
 32 82  1  0
M  END
>  <meeko>  (11) 
{"is_sidechain": [false], "intermolecular_energy": 2.731, "internal_energy": -0.839}

$$$$
EPH_relaxed_0001_pdb2pqr_Repair_361_r2_0001_out
     RDKit          3D

 82 86  0  0  0  0  0  0  0  0999 V2000
    1.0440    9.3420   -0.3860 C   0  0  0  0  0  0  0  0  0  0  0  0
   -0.2110   10.2190   -0.4310 C   0  0  2  0  0  0  0  0  0  0  0  0
   -0.8130   10.2980   -1.8490 C   0  0  0  0  0  0  0  0  0  0  0  0
    0.1550    9.8660   -2.9530 C   0  0  0  0  0  0  0  0  0  0  0  0
    0.2280   10.8800   -4.0540 C   0  0  2  0  0  0  0  0  0  0  0  0
    0.7600   10.3860   -5.2900 O   0  0  0  0  0  0  0  0  0  0  0  0
    1.5330   11.4000   -4.6280 C   0  0  0  0  0  0  0  0  0  0  0  0
    2.8560   10.9200   -4.1170 C   0  0  0  0  0  0  0  0  0  0  0  0
    1.5290   12.7190   -5.3350 C   0  0  0  0  0  0  0  0  0  0  0  0
    0.1150   11.6190    0.0740 C   0  0  1  0  0  0  0  0  0  0  0  0
    1.1450   11.6110    1.2350 C   0  0  0  0  0  0  0  0  0  0  0  0
    2.0190   12.8800    1.0670 C   0  0  0  0  0  0  0  0  0  0  0  0
    1.2620   13.7400    0.0280 C   0  0  1  0  0  0  0  0  0  0  0  0
    0.1450   14.4640    0.8440 C   0  0  0  0  0  0  0  0  0  0  0  0
    2.1260   14.7530   -0.7910 C   0  0  2  0  0  0  0  0  0  0  0  0
    2.8140   15.8490    0.0420 C   0  0  0  0  0  0  0  0  0  0  0  0
    2.0230   17.1020    0.2250 C   0  0  0  0  0  0  0  0  0  0  0  0
    0.9380   17.4530   -0.4900 C   0  0  0  0  0  0  0  0  0  0  0  0
    0.4600   16.5960   -1.6690 C   0  0  1  0  0  0  0  0  0  0  0  0
    0.1540   17.5110   -2.8830 C   0  0  0  0  0  0  0  0  0  0  0  0
   -0.8250   18.6310   -2.5410 C   0  0  0  0  0  0  0  0  0  0  0  0
   -0.2870   19.4960   -1.4040 C   0  0  2  0  0  0  0  0  0  0  0  0
    0.8730   20.1940   -1.8650 O   0  0  0  0  0  0  0  0  0  0  0  0
    0.0660   18.6810   -0.1280 C   0  0  0  0  0  0  0  0  0  0  0  0
   -1.2350   18.1720    0.5410 C   0  0  0  0  0  0  0  0  0  0  0  0
    0.7280   19.6490    0.8890 C   0  0  0  0  0  0  0  0  0  0  0  0
    1.3880   15.3640   -2.0510 C   0  0  1  0  0  0  0  0  0  0  0  0
    2.5020   15.8230   -3.0400 C   0  0  0  0  0  0  0  0  0  0  0  0
    0.5270   14.2910   -2.8180 C   0  0  0  0  0  0  0  0  0  0  0  0
   -0.2070   13.2450   -1.9580 C   0  0  0  0  0  0  0  0  0  0  0  0
    0.7430   12.6120   -0.9360 C   0  0  2  0  0  0  0  0  0  0  0  0
    1.8650   11.8590   -1.7270 C   0  0  0  0  0  0  0  0  0  0  0  0
    1.3194    9.1495    0.6614 H   0  0  0  0  0  0  0  0  0  0  0  0
    0.8425    8.3871   -0.8935 H   0  0  0  0  0  0  0  0  0  0  0  0
    1.8714    9.8595   -0.8935 H   0  0  0  0  0  0  0  0  0  0  0  0
   -0.9636    9.7537    0.2226 H   0  0  0  0  0  0  0  0  0  0  0  0
   -1.6976    9.6453   -1.8877 H   0  0  0  0  0  0  0  0  0  0  0  0
   -1.0619   11.3533   -2.0344 H   0  0  0  0  0  0  0  0  0  0  0  0
    1.1575    9.7388   -2.5185 H   0  0  0  0  0  0  0  0  0  0  0  0
   -0.2120    8.9213   -3.3806 H   0  0  0  0  0  0  0  0  0  0  0  0
   -0.6665   11.3934   -3.6714 H   0  0  0  0  0  0  0  0  0  0  0  0
    2.8473   10.9232   -3.0170 H   0  0  0  0  0  0  0  0  0  0  0  0
    3.0400    9.8978   -4.4793 H   0  0  0  0  0  0  0  0  0  0  0  0
    3.6527   11.5864   -4.4793 H   0  0  0  0  0  0  0  0  0  0  0  0
    1.5265   13.5321   -4.5942 H   0  0  0  0  0  0  0  0  0  0  0  0
    2.4269   12.7999   -5.9653 H   0  0  0  0  0  0  0  0  0  0  0  0
    0.6306   12.7945   -5.9653 H   0  0  0  0  0  0  0  0  0  0  0  0
   -0.8953   11.9536    0.3520 H   0  0  0  0  0  0  0  0  0  0  0  0
    0.6241   11.6354    2.2035 H   0  0  0  0  0  0  0  0  0  0  0  0
    1.7619   10.7006    1.2091 H   0  0  0  0  0  0  0  0  0  0  0  0
    2.1114   13.4172    2.0224 H   0  0  0  0  0  0  0  0  0  0  0  0
    3.0433   12.6415    0.7445 H   0  0  0  0  0  0  0  0  0  0  0  0
    0.3375   14.3392    1.9198 H   0  0  0  0  0  0  0  0  0  0  0  0
    0.1438   15.5351    0.5935 H   0  0  0  0  0  0  0  0  0  0  0  0
   -0.8332   14.0278    0.5935 H   0  0  0  0  0  0  0  0  0  0  0  0
    2.9367   14.1149   -1.1726 H   0  0  0  0  0  0  0  0  0  0  0  0
    3.0291   15.4343    1.0379 H   0  0  0  0  0  0  0  0  0  0  0  0
    3.7151   16.1372   -0.5192 H   0  0  0  0  0  0  0  0  0  0  0  0
    2.3550   17.7969    1.0104 H   0  0  0  0  0  0  0  0  0  0  0  0
   -0.4634   16.1022   -1.3322 H   0  0  0  0  0  0  0  0  0  0  0  0
    1.0955   17.9602   -3.2319 H   0  0  0  0  0  0  0  0  0  0  0  0
   -0.3108   16.8880   -3.6614 H   0  0  0  0  0  0  0  0  0  0  0  0
   -0.9781   19.2597   -3.4305 H   0  0  0  0  0  0  0  0  0  0  0  0
   -1.7762   18.1809   -2.2206 H   0  0  0  0  0  0  0  0  0  0  0  0
   -1.0846   20.1972   -1.1174 H   0  0  0  0  0  0  0  0  0  0  0  0
    0.9070   20.1020   -2.8320 H   0  0  0  0  0  0  0  0  0  0  0  0
   -1.1258   18.2147    1.6347 H   0  0  0  0  0  0  0  0  0  0  0  0
   -2.0788   18.8063    0.2317 H   0  0  0  0  0  0  0  0  0  0  0  0
   -1.4243   17.1335    0.2317 H   0  0  0  0  0  0  0  0  0  0  0  0
    0.5008   19.3168    1.9127 H   0  0  0  0  0  0  0  0  0  0  0  0
    1.8175   19.6511    0.7375 H   0  0  0  0  0  0  0  0  0  0  0  0
    0.3348   20.6651    0.7375 H   0  0  0  0  0  0  0  0  0  0  0  0
    3.3724   16.1816   -2.4710 H   0  0  0  0  0  0  0  0  0  0  0  0
    2.8020   14.9752   -3.6734 H   0  0  0  0  0  0  0  0  0  0  0  0
    2.1177   16.6361   -3.6734 H   0  0  0  0  0  0  0  0  0  0  0  0
   -0.2311   14.8304   -3.4048 H   0  0  0  0  0  0  0  0  0  0  0  0
    1.2497   13.7160   -3.4156 H   0  0  0  0  0  0  0  0  0  0  0  0
   -1.0351   13.7346   -1.4246 H   0  0  0  0  0  0  0  0  0  0  0  0
   -0.5897   12.4533   -2.6189 H   0  0  0  0  0  0  0  0  0  0  0  0
    2.5628   11.3907   -1.0172 H   0  0  0  0  0  0  0  0  0  0  0  0
    1.4097   11.0829   -2.3597 H   0  0  0  0  0  0  0  0  0  0  0  0
    2.4107   12.5744   -2.3597 H   0  0  0  0  0  0  0  0  0  0  0  0
  1  2  1  0
  2  3  1  0
  3  4  1  0
  4  5  1  0
  5  6  1  0
  6  7  1  0
  7  8  1  0
  7  9  1  0
  2 10  1  0
 10 11  1  0
 11 12  1  0
 12 13  1  0
 13 14  1  1
 13 15  1  0
 15 16  1  0
 16 17  1  0
 17 18  2  0
 18 19  1  0
 19 20  1  0
 20 21  1  0
 21 22  1  0
 22 23  1  0
 22 24  1  0
 24 25  1  0
 24 26  1  0
 19 27  1  0
 27 28  1  6
 27 29  1  0
 29 30  1  0
 30 31  1  0
 31 32  1  6
  7  5  1  0
 31 10  1  0
 31 13  1  0
 27 15  1  0
 24 18  1  0
  1 33  1  0
  1 34  1  0
  1 35  1  0
  2 36  1  1
  3 37  1  0
  3 38  1  0
  4 39  1  0
  4 40  1  0
  5 41  1  6
  8 42  1  0
  8 43  1  0
  8 44  1  0
  9 45  1  0
  9 46  1  0
  9 47  1  0
 10 48  1  1
 11 49  1  0
 11 50  1  0
 12 51  1  0
 12 52  1  0
 14 53  1  0
 14 54  1  0
 14 55  1  0
 15 56  1  6
 16 57  1  0
 16 58  1  0
 17 59  1  0
 19 60  1  1
 20 61  1  0
 20 62  1  0
 21 63  1  0
 21 64  1  0
 22 65  1  1
 23 66  1  0
 25 67  1  0
 25 68  1  0
 25 69  1  0
 26 70  1  0
 26 71  1  0
 26 72  1  0
 28 73  1  0
 28 74  1  0
 28 75  1  0
 29 76  1  0
 29 77  1  0
 30 78  1  0
 30 79  1  0
 32 80  1  0
 32 81  1  0
 32 82  1  0
M  END
>  <meeko>  (12) 
{"is_sidechain": [false], "intermolecular_energy": 2.731, "internal_energy": -0.839}

$$$$
EPH_relaxed_0001_pdb2pqr_Repair_361_r2_0001_out
     RDKit          3D

 82 86  0  0  0  0  0  0  0  0999 V2000
    0.9580   20.0280   -1.8460 C   0  0  0  0  0  0  0  0  0  0  0  0
    1.5950   19.3010   -0.6580 C   0  0  2  0  0  0  0  0  0  0  0  0
    2.7880   20.0820   -0.0710 C   0  0  0  0  0  0  0  0  0  0  0  0
    2.8670   20.0280    1.4570 C   0  0  0  0  0  0  0  0  0  0  0  0
    4.2740   20.1900    1.9450 C   0  0  2  0  0  0  0  0  0  0  0  0
    5.0660   18.9960    1.8980 O   0  0  0  0  0  0  0  0  0  0  0  0
    4.8040   19.5310    3.2050 C   0  0  0  0  0  0  0  0  0  0  0  0
    3.9330   18.6600    4.0550 C   0  0  0  0  0  0  0  0  0  0  0  0
    6.0090   20.1210    3.8690 C   0  0  0  0  0  0  0  0  0  0  0  0
    2.0420   17.9070   -1.0820 C   0  0  1  0  0  0  0  0  0  0  0  0
    3.5630   17.6790   -0.8760 C   0  0  0  0  0  0  0  0  0  0  0  0
    3.7420   16.1940   -0.4690 C   0  0  0  0  0  0  0  0  0  0  0  0
    2.3750   15.5390   -0.7750 C   0  0  1  0  0  0  0  0  0  0  0  0
    2.4020   15.2520   -2.3090 C   0  0  0  0  0  0  0  0  0  0  0  0
    2.0250   14.2550    0.0460 C   0  0  2  0  0  0  0  0  0  0  0  0
    2.9720   13.0620   -0.1740 C   0  0  0  0  0  0  0  0  0  0  0  0
    2.5780   12.1280   -1.2700 C   0  0  0  0  0  0  0  0  0  0  0  0
    1.3680   12.0780   -1.8570 C   0  0  0  0  0  0  0  0  0  0  0  0
    0.2140   12.9570   -1.3590 C   0  0  1  0  0  0  0  0  0  0  0  0
   -1.0720   12.0980   -1.2300 C   0  0  0  0  0  0  0  0  0  0  0  0
   -1.4150   11.3600   -2.5200 C   0  0  0  0  0  0  0  0  0  0  0  0
   -0.2660   10.4530   -2.9520 C   0  0  2  0  0  0  0  0  0  0  0  0
   -0.1230    9.4010   -1.9920 O   0  0  0  0  0  0  0  0  0  0  0  0
    1.0850   11.2070   -3.1060 C   0  0  0  0  0  0  0  0  0  0  0  0
    1.0250   12.1350   -4.3440 C   0  0  0  0  0  0  0  0  0  0  0  0
    2.1870   10.1550   -3.4060 C   0  0  0  0  0  0  0  0  0  0  0  0
    0.5090   13.8150   -0.0540 C   0  0  1  0  0  0  0  0  0  0  0  0
    0.2060   12.9670    1.2190 C   0  0  0  0  0  0  0  0  0  0  0  0
   -0.4750   15.0440   -0.0140 C   0  0  0  0  0  0  0  0  0  0  0  0
   -0.0190   16.3220   -0.7420 C   0  0  0  0  0  0  0  0  0  0  0  0
    1.4100   16.7020   -0.3420 C   0  0  2  0  0  0  0  0  0  0  0  0
    1.4090   17.0170    1.1920 C   0  0  0  0  0  0  0  0  0  0  0  0
    0.2753   20.8071   -1.4759 H   0  0  0  0  0  0  0  0  0  0  0  0
    1.7461   20.4914   -2.4577 H   0  0  0  0  0  0  0  0  0  0  0  0
    0.3951   19.3076   -2.4577 H   0  0  0  0  0  0  0  0  0  0  0  0
    0.8322   19.2231    0.1307 H   0  0  0  0  0  0  0  0  0  0  0  0
    3.7163   19.6585   -0.4819 H   0  0  0  0  0  0  0  0  0  0  0  0
    2.6492   21.1373   -0.3486 H   0  0  0  0  0  0  0  0  0  0  0  0
    2.2494   20.8368    1.8747 H   0  0  0  0  0  0  0  0  0  0  0  0
    2.5015   19.0436    1.7847 H   0  0  0  0  0  0  0  0  0  0  0  0
    4.3024   21.2301    1.5882 H   0  0  0  0  0  0  0  0  0  0  0  0
    4.1361   18.8631    5.1168 H   0  0  0  0  0  0  0  0  0  0  0  0
    2.8763   18.8734    3.8365 H   0  0  0  0  0  0  0  0  0  0  0  0
    4.1464   17.6033    3.8365 H   0  0  0  0  0  0  0  0  0  0  0  0
    5.8910   20.0632    4.9611 H   0  0  0  0  0  0  0  0  0  0  0  0
    6.9057   19.5600    3.5669 H   0  0  0  0  0  0  0  0  0  0  0  0
    6.1158   21.1733    3.5669 H   0  0  0  0  0  0  0  0  0  0  0  0
    1.7127   17.9191   -2.1315 H   0  0  0  0  0  0  0  0  0  0  0  0
    4.1066   17.8838   -1.8101 H   0  0  0  0  0  0  0  0  0  0  0  0
    3.9617   18.3513   -0.1020 H   0  0  0  0  0  0  0  0  0  0  0  0
    4.5400   15.7224   -1.0613 H   0  0  0  0  0  0  0  0  0  0  0  0
    4.0315   16.0824    0.5863 H   0  0  0  0  0  0  0  0  0  0  0  0
    2.5038   14.1698   -2.4778 H   0  0  0  0  0  0  0  0  0  0  0  0
    1.4664   15.6078   -2.7651 H   0  0  0  0  0  0  0  0  0  0  0  0
    3.2548   15.7761   -2.7651 H   0  0  0  0  0  0  0  0  0  0  0  0
    2.1940   14.5840    1.0819 H   0  0  0  0  0  0  0  0  0  0  0  0
    3.9704   13.4595   -0.4089 H   0  0  0  0  0  0  0  0  0  0  0  0
    2.9393   12.4726    0.7542 H   0  0  0  0  0  0  0  0  0  0  0  0
    3.3410   11.4211   -1.6279 H   0  0  0  0  0  0  0  0  0  0  0  0
    0.0694   13.7329   -2.1252 H   0  0  0  0  0  0  0  0  0  0  0  0
   -0.9230   11.3583   -0.4296 H   0  0  0  0  0  0  0  0  0  0  0  0
   -1.9061   12.7782   -1.0029 H   0  0  0  0  0  0  0  0  0  0  0  0
   -2.3145   10.7483   -2.3564 H   0  0  0  0  0  0  0  0  0  0  0  0
   -1.5931   12.1021   -3.3121 H   0  0  0  0  0  0  0  0  0  0  0  0
   -0.5171   10.0529   -3.9454 H   0  0  0  0  0  0  0  0  0  0  0  0
    0.1460    9.8060   -1.1500 H   0  0  0  0  0  0  0  0  0  0  0  0
    0.9573   13.1822   -4.0143 H   0  0  0  0  0  0  0  0  0  0  0  0
    1.9338   11.9990   -4.9486 H   0  0  0  0  0  0  0  0  0  0  0  0
    0.1413   11.8831   -4.9486 H   0  0  0  0  0  0  0  0  0  0  0  0
    2.5922    9.7682   -2.4593 H   0  0  0  0  0  0  0  0  0  0  0  0
    1.7546    9.3261   -3.9856 H   0  0  0  0  0  0  0  0  0  0  0  0
    2.9949   10.6254   -3.9856 H   0  0  0  0  0  0  0  0  0  0  0  0
    0.4196   13.5649    2.1173 H   0  0  0  0  0  0  0  0  0  0  0  0
   -0.8535   12.6711    1.2189 H   0  0  0  0  0  0  0  0  0  0  0  0
    0.8381   12.0667    1.2189 H   0  0  0  0  0  0  0  0  0  0  0  0
   -1.4254   14.7243   -0.4664 H   0  0  0  0  0  0  0  0  0  0  0  0
   -0.5415   15.3253    1.0473 H   0  0  0  0  0  0  0  0  0  0  0  0
   -0.0547   16.1495   -1.8278 H   0  0  0  0  0  0  0  0  0  0  0  0
   -0.6922   17.1449   -0.4599 H   0  0  0  0  0  0  0  0  0  0  0  0
    1.4120   16.0749    1.7598 H   0  0  0  0  0  0  0  0  0  0  0  0
    2.3053   17.6016    1.4469 H   0  0  0  0  0  0  0  0  0  0  0  0
    0.5090   17.5958    1.4469 H   0  0  0  0  0  0  0  0  0  0  0  0
  1  2  1  0
  2  3  1  0
  3  4  1  0
  4  5  1  0
  5  6  1  0
  6  7  1  0
  7  8  1  0
  7  9  1  0
  2 10  1  0
 10 11  1  0
 11 12  1  0
 12 13  1  0
 13 14  1  6
 13 15  1  0
 15 16  1  0
 16 17  1  0
 17 18  2  0
 18 19  1  0
 19 20  1  0
 20 21  1  0
 21 22  1  0
 22 23  1  0
 22 24  1  0
 24 25  1  0
 24 26  1  0
 19 27  1  0
 27 28  1  1
 27 29  1  0
 29 30  1  0
 30 31  1  0
 31 32  1  1
  7  5  1  0
 31 10  1  0
 31 13  1  0
 27 15  1  0
 24 18  1  0
  1 33  1  0
  1 34  1  0
  1 35  1  0
  2 36  1  1
  3 37  1  0
  3 38  1  0
  4 39  1  0
  4 40  1  0
  5 41  1  6
  8 42  1  0
  8 43  1  0
  8 44  1  0
  9 45  1  0
  9 46  1  0
  9 47  1  0
 10 48  1  6
 11 49  1  0
 11 50  1  0
 12 51  1  0
 12 52  1  0
 14 53  1  0
 14 54  1  0
 14 55  1  0
 15 56  1  1
 16 57  1  0
 16 58  1  0
 17 59  1  0
 19 60  1  6
 20 61  1  0
 20 62  1  0
 21 63  1  0
 21 64  1  0
 22 65  1  6
 23 66  1  0
 25 67  1  0
 25 68  1  0
 25 69  1  0
 26 70  1  0
 26 71  1  0
 26 72  1  0
 28 73  1  0
 28 74  1  0
 28 75  1  0
 29 76  1  0
 29 77  1  0
 30 78  1  0
 30 79  1  0
 32 80  1  0
 32 81  1  0
 32 82  1  0
M  END
>  <meeko>  (13) 
{"is_sidechain": [false], "intermolecular_energy": 2.731, "internal_energy": -0.839}

$$$$
EPH_relaxed_0001_pdb2pqr_Repair_361_r2_0001_out
     RDKit          3D

 82 86  0  0  0  0  0  0  0  0999 V2000
    2.5490   16.2950   -7.2840 C   0  0  0  0  0  0  0  0  0  0  0  0
    1.4210   15.2660   -7.1630 C   0  0  2  0  0  0  0  0  0  0  0  0
    0.1910   15.6530   -8.0090 C   0  0  0  0  0  0  0  0  0  0  0  0
    0.5450   16.3150   -9.3430 C   0  0  0  0  0  0  0  0  0  0  0  0
    1.9420   15.9850   -9.7730 C   0  0  2  0  0  0  0  0  0  0  0  0
    2.3350   16.5600  -11.0260 O   0  0  0  0  0  0  0  0  0  0  0  0
    2.2650   15.1260  -10.9810 C   0  0  0  0  0  0  0  0  0  0  0  0
    1.1830   14.5420  -11.8340 C   0  0  0  0  0  0  0  0  0  0  0  0
    3.6020   14.4550  -11.0450 C   0  0  0  0  0  0  0  0  0  0  0  0
    1.0190   15.1050   -5.7020 C   0  0  1  0  0  0  0  0  0  0  0  0
   -0.3050   15.8400   -5.3620 C   0  0  0  0  0  0  0  0  0  0  0  0
   -1.0390   14.9750   -4.3060 C   0  0  0  0  0  0  0  0  0  0  0  0
    0.0230   13.9560   -3.8310 C   0  0  1  0  0  0  0  0  0  0  0  0
    0.8810   14.7310   -2.7820 C   0  0  0  0  0  0  0  0  0  0  0  0
   -0.5220   12.6110   -3.2490 C   0  0  2  0  0  0  0  0  0  0  0  0
   -1.3780   12.7480   -1.9780 C   0  0  0  0  0  0  0  0  0  0  0  0
   -0.6260   12.6750   -0.6910 C   0  0  0  0  0  0  0  0  0  0  0  0
    0.6340   12.2240   -0.5460 C   0  0  0  0  0  0  0  0  0  0  0  0
    1.4010   11.6330   -1.7370 C   0  0  1  0  0  0  0  0  0  0  0  0
    2.0860   10.3100   -1.3060 C   0  0  0  0  0  0  0  0  0  0  0  0
    2.9660   10.4810   -0.0720 C   0  0  0  0  0  0  0  0  0  0  0  0
    2.1550   11.0140    1.1060 C   0  0  2  0  0  0  0  0  0  0  0  0
    1.2100   10.0170    1.5050 O   0  0  0  0  0  0  0  0  0  0  0  0
    1.4120   12.3420    0.7880 C   0  0  0  0  0  0  0  0  0  0  0  0
    2.4380   13.4930    0.6520 C   0  0  0  0  0  0  0  0  0  0  0  0
    0.5220   12.6960    2.0090 C   0  0  0  0  0  0  0  0  0  0  0  0
    0.5760   11.4830   -3.0870 C   0  0  1  0  0  0  0  0  0  0  0  0
   -0.1800   10.1200   -3.0990 C   0  0  0  0  0  0  0  0  0  0  0  0
    1.5790   11.4450   -4.3000 C   0  0  0  0  0  0  0  0  0  0  0  0
    1.9860   12.8010   -4.9080 C   0  0  0  0  0  0  0  0  0  0  0  0
    0.7550   13.6670   -5.1910 C   0  0  2  0  0  0  0  0  0  0  0  0
   -0.1170   12.9220   -6.2600 C   0  0  0  0  0  0  0  0  0  0  0  0
    2.8796   16.5966   -6.2791 H   0  0  0  0  0  0  0  0  0  0  0  0
    3.3941   15.8502   -7.8299 H   0  0  0  0  0  0  0  0  0  0  0  0
    2.1835   17.1773   -7.8299 H   0  0  0  0  0  0  0  0  0  0  0  0
    1.8013   14.3094   -7.5507 H   0  0  0  0  0  0  0  0  0  0  0  0
   -0.3883   14.7413   -8.2167 H   0  0  0  0  0  0  0  0  0  0  0  0
   -0.3808   16.3901   -7.4262 H   0  0  0  0  0  0  0  0  0  0  0  0
   -0.1573   15.9630  -10.1129 H   0  0  0  0  0  0  0  0  0  0  0  0
    0.4749   17.4051   -9.2137 H   0  0  0  0  0  0  0  0  0  0  0  0
    2.2788   15.9433   -8.7266 H   0  0  0  0  0  0  0  0  0  0  0  0
    0.3977   14.1181  -11.1909 H   0  0  0  0  0  0  0  0  0  0  0  0
    0.7514   15.3297  -12.4691 H   0  0  0  0  0  0  0  0  0  0  0  0
    1.6046   13.7489  -12.4691 H   0  0  0  0  0  0  0  0  0  0  0  0
    3.9690   14.2708  -10.0245 H   0  0  0  0  0  0  0  0  0  0  0  0
    3.5067   13.4979  -11.5787 H   0  0  0  0  0  0  0  0  0  0  0  0
    4.3125   15.1033  -11.5787 H   0  0  0  0  0  0  0  0  0  0  0  0
    1.9165   15.5176   -5.2179 H   0  0  0  0  0  0  0  0  0  0  0  0
   -0.0897   16.8374   -4.9511 H   0  0  0  0  0  0  0  0  0  0  0  0
   -0.9240   15.9745   -6.2613 H   0  0  0  0  0  0  0  0  0  0  0  0
   -1.3838   15.5965   -3.4665 H   0  0  0  0  0  0  0  0  0  0  0  0
   -1.9337   14.4845   -4.7170 H   0  0  0  0  0  0  0  0  0  0  0  0
    0.5654   14.4459   -1.7675 H   0  0  0  0  0  0  0  0  0  0  0  0
    1.9431   14.4801   -2.9197 H   0  0  0  0  0  0  0  0  0  0  0  0
    0.7391   15.8131   -2.9197 H   0  0  0  0  0  0  0  0  0  0  0  0
   -1.2113   12.2757   -4.0379 H   0  0  0  0  0  0  0  0  0  0  0  0
   -1.8910   13.7203   -2.0171 H   0  0  0  0  0  0  0  0  0  0  0  0
   -2.0632   11.8875   -1.9789 H   0  0  0  0  0  0  0  0  0  0  0  0
   -1.1452   13.0188    0.2158 H   0  0  0  0  0  0  0  0  0  0  0  0
    2.1646   12.3771   -2.0074 H   0  0  0  0  0  0  0  0  0  0  0  0
    1.3070    9.5661   -1.0830 H   0  0  0  0  0  0  0  0  0  0  0  0
    2.7325    9.9840   -2.1341 H   0  0  0  0  0  0  0  0  0  0  0  0
    3.3982    9.5067    0.1999 H   0  0  0  0  0  0  0  0  0  0  0  0
    3.7623   11.2030   -0.3057 H   0  0  0  0  0  0  0  0  0  0  0  0
    2.8622   11.2376    1.9183 H   0  0  0  0  0  0  0  0  0  0  0  0
    1.2530    9.2950    0.8560 H   0  0  0  0  0  0  0  0  0  0  0  0
    2.7417   13.8337    1.6529 H   0  0  0  0  0  0  0  0  0  0  0  0
    3.3212   13.1340    0.1032 H   0  0  0  0  0  0  0  0  0  0  0  0
    1.9803   14.3293    0.1032 H   0  0  0  0  0  0  0  0  0  0  0  0
    1.0699   12.4781    2.9376 H   0  0  0  0  0  0  0  0  0  0  0  0
    0.2646   13.7650    1.9774 H   0  0  0  0  0  0  0  0  0  0  0  0
   -0.3993   12.0959    1.9774 H   0  0  0  0  0  0  0  0  0  0  0  0
   -0.3617    9.7924   -2.0648 H   0  0  0  0  0  0  0  0  0  0  0  0
   -1.1413   10.2385   -3.6204 H   0  0  0  0  0  0  0  0  0  0  0  0
    0.4295    9.3672   -3.6204 H   0  0  0  0  0  0  0  0  0  0  0  0
    2.4969   10.9451   -3.9572 H   0  0  0  0  0  0  0  0  0  0  0  0
    1.0402   10.9200   -5.1025 H   0  0  0  0  0  0  0  0  0  0  0  0
    2.6429   13.3294   -4.2014 H   0  0  0  0  0  0  0  0  0  0  0  0
    2.5104   12.6163   -5.8572 H   0  0  0  0  0  0  0  0  0  0  0  0
   -0.8585   12.2885   -5.7513 H   0  0  0  0  0  0  0  0  0  0  0  0
   -0.6355   13.6603   -6.8893 H   0  0  0  0  0  0  0  0  0  0  0  0
    0.5313   12.2946   -6.8893 H   0  0  0  0  0  0  0  0  0  0  0  0
  1  2  1  0
  2  3  1  0
  3  4  1  0
  4  5  1  0
  5  6  1  0
  6  7  1  0
  7  8  1  0
  7  9  1  0
  2 10  1  0
 10 11  1  0
 11 12  1  0
 12 13  1  0
 13 14  1  1
 13 15  1  0
 15 16  1  0
 16 17  1  0
 17 18  2  0
 18 19  1  0
 19 20  1  0
 20 21  1  0
 21 22  1  0
 22 23  1  0
 22 24  1  0
 24 25  1  0
 24 26  1  0
 19 27  1  0
 27 28  1  1
 27 29  1  0
 29 30  1  0
 30 31  1  0
 31 32  1  6
  7  5  1  0
 31 10  1  0
 31 13  1  0
 27 15  1  0
 24 18  1  0
  1 33  1  0
  1 34  1  0
  1 35  1  0
  2 36  1  6
  3 37  1  0
  3 38  1  0
  4 39  1  0
  4 40  1  0
  5 41  1  1
  8 42  1  0
  8 43  1  0
  8 44  1  0
  9 45  1  0
  9 46  1  0
  9 47  1  0
 10 48  1  1
 11 49  1  0
 11 50  1  0
 12 51  1  0
 12 52  1  0
 14 53  1  0
 14 54  1  0
 14 55  1  0
 15 56  1  6
 16 57  1  0
 16 58  1  0
 17 59  1  0
 19 60  1  6
 20 61  1  0
 20 62  1  0
 21 63  1  0
 21 64  1  0
 22 65  1  1
 23 66  1  0
 25 67  1  0
 25 68  1  0
 25 69  1  0
 26 70  1  0
 26 71  1  0
 26 72  1  0
 28 73  1  0
 28 74  1  0
 28 75  1  0
 29 76  1  0
 29 77  1  0
 30 78  1  0
 30 79  1  0
 32 80  1  0
 32 81  1  0
 32 82  1  0
M  END
>  <meeko>  (14) 
{"is_sidechain": [false], "intermolecular_energy": 2.731, "internal_energy": -0.839}

$$$$
EPH_relaxed_0001_pdb2pqr_Repair_361_r2_0001_out
     RDKit          3D

 82 86  0  0  0  0  0  0  0  0999 V2000
   -5.3490    7.4510   -0.2680 C   0  0  0  0  0  0  0  0  0  0  0  0
   -5.5490    6.8760   -1.6730 C   0  0  2  0  0  0  0  0  0  0  0  0
   -4.4820    7.3800   -2.6640 C   0  0  0  0  0  0  0  0  0  0  0  0
   -3.0460    7.0780   -2.2290 C   0  0  0  0  0  0  0  0  0  0  0  0
   -2.0840    8.1110   -2.7350 C   0  0  2  0  0  0  0  0  0  0  0  0
   -0.7140    7.6890   -2.7660 O   0  0  0  0  0  0  0  0  0  0  0  0
   -1.0260    8.7660   -1.8670 C   0  0  0  0  0  0  0  0  0  0  0  0
   -0.8760    8.4130   -0.4210 C   0  0  0  0  0  0  0  0  0  0  0  0
   -0.4680   10.0880   -2.2940 C   0  0  0  0  0  0  0  0  0  0  0  0
   -6.9420    7.2250   -2.1840 C   0  0  1  0  0  0  0  0  0  0  0  0
   -7.2500    6.5850   -3.5640 C   0  0  0  0  0  0  0  0  0  0  0  0
   -8.7590    6.2300   -3.5660 C   0  0  0  0  0  0  0  0  0  0  0  0
   -9.3350    6.9690   -2.3360 C   0  0  1  0  0  0  0  0  0  0  0  0
   -9.5520    8.4380   -2.8160 C   0  0  0  0  0  0  0  0  0  0  0  0
  -10.6370    6.3660   -1.7150 C   0  0  2  0  0  0  0  0  0  0  0  0
  -11.8620    6.3590   -2.6460 C   0  0  0  0  0  0  0  0  0  0  0  0
  -12.7250    7.5750   -2.5730 C   0  0  0  0  0  0  0  0  0  0  0  0
  -12.6920    8.5000   -1.5960 C   0  0  0  0  0  0  0  0  0  0  0  0
  -11.7840    8.3220   -0.3730 C   0  0  1  0  0  0  0  0  0  0  0  0
  -12.5870    8.6330    0.9180 C   0  0  0  0  0  0  0  0  0  0  0  0
  -13.2480   10.0080    0.8780 C   0  0  0  0  0  0  0  0  0  0  0  0
  -14.1870   10.1260   -0.3200 C   0  0  2  0  0  0  0  0  0  0  0  0
  -15.2870    9.2300   -0.1330 O   0  0  0  0  0  0  0  0  0  0  0  0
  -13.4920    9.8240   -1.6770 C   0  0  0  0  0  0  0  0  0  0  0  0
  -12.5060   10.9670   -2.0220 C   0  0  0  0  0  0  0  0  0  0  0  0
  -14.5790    9.8390   -2.7850 C   0  0  0  0  0  0  0  0  0  0  0  0
  -11.0010    6.9410   -0.2860 C   0  0  1  0  0  0  0  0  0  0  0  0
  -11.8900    5.8680    0.4130 C   0  0  0  0  0  0  0  0  0  0  0  0
   -9.7310    7.1270    0.6250 C   0  0  0  0  0  0  0  0  0  0  0  0
   -8.4430    7.6110   -0.0680 C   0  0  0  0  0  0  0  0  0  0  0  0
   -8.1490    6.7800   -1.3210 C   0  0  2  0  0  0  0  0  0  0  0  0
   -7.9040    5.3000   -0.8670 C   0  0  0  0  0  0  0  0  0  0  0  0
   -5.6137    6.6899    0.4808 H   0  0  0  0  0  0  0  0  0  0  0  0
   -4.2965    7.7430   -0.1377 H   0  0  0  0  0  0  0  0  0  0  0  0
   -5.9931    8.3331   -0.1377 H   0  0  0  0  0  0  0  0  0  0  0  0
   -5.4425    5.7835   -1.6017 H   0  0  0  0  0  0  0  0  0  0  0  0
   -4.6581    6.8996   -3.6378 H   0  0  0  0  0  0  0  0  0  0  0  0
   -4.5796    8.4746   -2.7119 H   0  0  0  0  0  0  0  0  0  0  0  0
   -3.0030    7.0589   -1.1300 H   0  0  0  0  0  0  0  0  0  0  0  0
   -2.7573    6.1044   -2.6519 H   0  0  0  0  0  0  0  0  0  0  0  0
   -2.8489    8.5281   -3.4066 H   0  0  0  0  0  0  0  0  0  0  0  0
   -1.2313    9.2491    0.1993 H   0  0  0  0  0  0  0  0  0  0  0  0
   -1.4698    7.5139   -0.1995 H   0  0  0  0  0  0  0  0  0  0  0  0
    0.1834    8.2164   -0.1995 H   0  0  0  0  0  0  0  0  0  0  0  0
   -0.2163   10.6843   -1.4046 H   0  0  0  0  0  0  0  0  0  0  0  0
    0.4386    9.9263   -2.8956 H   0  0  0  0  0  0  0  0  0  0  0  0
   -1.2163   10.6248   -2.8956 H   0  0  0  0  0  0  0  0  0  0  0  0
   -6.8667    8.3224   -2.1878 H   0  0  0  0  0  0  0  0  0  0  0  0
   -7.0279    7.2991   -4.3707 H   0  0  0  0  0  0  0  0  0  0  0  0
   -6.6335    5.6893   -3.7302 H   0  0  0  0  0  0  0  0  0  0  0  0
   -9.2395    6.5820   -4.4907 H   0  0  0  0  0  0  0  0  0  0  0  0
   -8.9324    5.1447   -3.5196 H   0  0  0  0  0  0  0  0  0  0  0  0
   -9.6496    9.0987   -1.9420 H   0  0  0  0  0  0  0  0  0  0  0  0
   -8.6912    8.7566   -3.4222 H   0  0  0  0  0  0  0  0  0  0  0  0
  -10.4682    8.4941   -3.4222 H   0  0  0  0  0  0  0  0  0  0  0  0
  -10.3627    5.3101   -1.5740 H   0  0  0  0  0  0  0  0  0  0  0  0
  -11.5021    6.2592   -3.6806 H   0  0  0  0  0  0  0  0  0  0  0  0
  -12.4908    5.5191   -2.3155 H   0  0  0  0  0  0  0  0  0  0  0  0
  -13.4492    7.7279   -3.3867 H   0  0  0  0  0  0  0  0  0  0  0  0
  -10.9690    9.0513   -0.4908 H   0  0  0  0  0  0  0  0  0  0  0  0
  -13.3690    7.8690    1.0397 H   0  0  0  0  0  0  0  0  0  0  0  0
  -11.8804    8.6262    1.7610 H   0  0  0  0  0  0  0  0  0  0  0  0
  -13.8238   10.1579    1.8032 H   0  0  0  0  0  0  0  0  0  0  0  0
  -12.4629   10.7730    0.7861 H   0  0  0  0  0  0  0  0  0  0  0  0
  -14.5285   11.1705   -0.3692 H   0  0  0  0  0  0  0  0  0  0  0  0
  -16.1030    9.7220   -0.3260 H   0  0  0  0  0  0  0  0  0  0  0  0
  -12.1216   11.4126   -1.0927 H   0  0  0  0  0  0  0  0  0  0  0  0
  -11.6679   10.5635   -2.6092 H   0  0  0  0  0  0  0  0  0  0  0  0
  -13.0281   11.7368   -2.6092 H   0  0  0  0  0  0  0  0  0  0  0  0
  -15.5760    9.8528   -2.3204 H   0  0  0  0  0  0  0  0  0  0  0  0
  -14.4533   10.7355   -3.4099 H   0  0  0  0  0  0  0  0  0  0  0  0
  -14.4781    8.9394   -3.4099 H   0  0  0  0  0  0  0  0  0  0  0  0
  -11.8024    5.9737    1.5044 H   0  0  0  0  0  0  0  0  0  0  0  0
  -12.9390    6.0096    0.1139 H   0  0  0  0  0  0  0  0  0  0  0  0
  -11.5558    4.8636    0.1139 H   0  0  0  0  0  0  0  0  0  0  0  0
   -9.9852    7.8605    1.4043 H   0  0  0  0  0  0  0  0  0  0  0  0
   -9.4953    6.1197    0.9988 H   0  0  0  0  0  0  0  0  0  0  0  0
   -8.5639    8.6658   -0.3559 H   0  0  0  0  0  0  0  0  0  0  0  0
   -7.6033    7.4971    0.6334 H   0  0  0  0  0  0  0  0  0  0  0  0
   -7.8957    5.2501    0.2318 H   0  0  0  0  0  0  0  0  0  0  0  0
   -8.7082    4.6589   -1.2571 H   0  0  0  0  0  0  0  0  0  0  0  0
   -6.9361    4.9523   -1.2571 H   0  0  0  0  0  0  0  0  0  0  0  0
  1  2  1  0
  2  3  1  0
  3  4  1  0
  4  5  1  0
  5  6  1  0
  6  7  1  0
  7  8  1  0
  7  9  1  0
  2 10  1  0
 10 11  1  0
 11 12  1  0
 12 13  1  0
 13 14  1  6
 13 15  1  0
 15 16  1  0
 16 17  1  0
 17 18  2  0
 18 19  1  0
 19 20  1  0
 20 21  1  0
 21 22  1  0
 22 23  1  0
 22 24  1  0
 24 25  1  0
 24 26  1  0
 19 27  1  0
 27 28  1  1
 27 29  1  0
 29 30  1  0
 30 31  1  0
 31 32  1  1
  7  5  1  0
 31 10  1  0
 31 13  1  0
 27 15  1  0
 24 18  1  0
  1 33  1  0
  1 34  1  0
  1 35  1  0
  2 36  1  1
  3 37  1  0
  3 38  1  0
  4 39  1  0
  4 40  1  0
  5 41  1  6
  8 42  1  0
  8 43  1  0
  8 44  1  0
  9 45  1  0
  9 46  1  0
  9 47  1  0
 10 48  1  6
 11 49  1  0
 11 50  1  0
 12 51  1  0
 12 52  1  0
 14 53  1  0
 14 54  1  0
 14 55  1  0
 15 56  1  1
 16 57  1  0
 16 58  1  0
 17 59  1  0
 19 60  1  6
 20 61  1  0
 20 62  1  0
 21 63  1  0
 21 64  1  0
 22 65  1  6
 23 66  1  0
 25 67  1  0
 25 68  1  0
 25 69  1  0
 26 70  1  0
 26 71  1  0
 26 72  1  0
 28 73  1  0
 28 74  1  0
 28 75  1  0
 29 76  1  0
 29 77  1  0
 30 78  1  0
 30 79  1  0
 32 80  1  0
 32 81  1  0
 32 82  1  0
M  END
>  <meeko>  (15) 
{"is_sidechain": [false], "intermolecular_energy": 2.731, "internal_energy": -0.839}

$$$$
EPH_relaxed_0001_pdb2pqr_Repair_361_r2_0001_out
     RDKit          3D

 82 86  0  0  0  0  0  0  0  0999 V2000
  -14.4080    5.4620    0.4870 C   0  0  0  0  0  0  0  0  0  0  0  0
  -13.8550    6.8810    0.3280 C   0  0  2  0  0  0  0  0  0  0  0  0
  -14.9640    7.9040    0.0080 C   0  0  0  0  0  0  0  0  0  0  0  0
  -14.5280    9.3610    0.1900 C   0  0  0  0  0  0  0  0  0  0  0  0
  -15.2590   10.2790   -0.7420 C   0  0  2  0  0  0  0  0  0  0  0  0
  -15.1870    9.9090   -2.1250 O   0  0  0  0  0  0  0  0  0  0  0  0
  -14.5650   11.1540   -1.7690 C   0  0  0  0  0  0  0  0  0  0  0  0
  -13.0760   11.1550   -1.9150 C   0  0  0  0  0  0  0  0  0  0  0  0
  -15.2880   12.3590   -2.2870 C   0  0  0  0  0  0  0  0  0  0  0  0
  -12.7940    6.9050   -0.7660 C   0  0  1  0  0  0  0  0  0  0  0  0
  -13.1730    7.8380   -1.9470 C   0  0  0  0  0  0  0  0  0  0  0  0
  -11.8530    8.4680   -2.4610 C   0  0  0  0  0  0  0  0  0  0  0  0
  -10.7360    7.6360   -1.7890 C   0  0  1  0  0  0  0  0  0  0  0  0
  -10.6110    6.3510   -2.6660 C   0  0  0  0  0  0  0  0  0  0  0  0
   -9.3560    8.3490   -1.6090 C   0  0  2  0  0  0  0  0  0  0  0  0
   -8.6600    8.7620   -2.9180 C   0  0  0  0  0  0  0  0  0  0  0  0
   -7.7400    7.7410   -3.5010 C   0  0  0  0  0  0  0  0  0  0  0  0
   -7.2620    6.6600   -2.8560 C   0  0  0  0  0  0  0  0  0  0  0  0
   -7.5650    6.4310   -1.3700 C   0  0  1  0  0  0  0  0  0  0  0  0
   -6.2590    6.0420   -0.6290 C   0  0  0  0  0  0  0  0  0  0  0  0
   -5.5540    4.8510   -1.2710 C   0  0  0  0  0  0  0  0  0  0  0  0
   -5.2170    5.1390   -2.7310 C   0  0  2  0  0  0  0  0  0  0  0  0
   -4.2330    6.1770   -2.7810 O   0  0  0  0  0  0  0  0  0  0  0  0
   -6.4550    5.5520   -3.5760 C   0  0  0  0  0  0  0  0  0  0  0  0
   -7.3820    4.3260   -3.7740 C   0  0  0  0  0  0  0  0  0  0  0  0
   -5.9560    5.9510   -4.9910 C   0  0  0  0  0  0  0  0  0  0  0  0
   -8.3590    7.5960   -0.6370 C   0  0  1  0  0  0  0  0  0  0  0  0
   -7.3600    8.6690   -0.1070 C   0  0  0  0  0  0  0  0  0  0  0  0
   -9.0890    7.0050    0.6270 C   0  0  0  0  0  0  0  0  0  0  0  0
  -10.4980    6.4240    0.4070 C   0  0  0  0  0  0  0  0  0  0  0  0
  -11.3800    7.4030   -0.3740 C   0  0  2  0  0  0  0  0  0  0  0  0
  -11.5420    8.6970    0.4940 C   0  0  0  0  0  0  0  0  0  0  0  0
  -14.5013    5.2225    1.5566 H   0  0  0  0  0  0  0  0  0  0  0  0
  -15.3968    5.3982    0.0093 H   0  0  0  0  0  0  0  0  0  0  0  0
  -13.7231    4.7459    0.0093 H   0  0  0  0  0  0  0  0  0  0  0  0
  -13.4055    7.1708    1.2892 H   0  0  0  0  0  0  0  0  0  0  0  0
  -15.2758    7.7627   -1.0374 H   0  0  0  0  0  0  0  0  0  0  0  0
  -15.7839    7.7224    0.7184 H   0  0  0  0  0  0  0  0  0  0  0  0
  -14.7333    9.6677    1.2262 H   0  0  0  0  0  0  0  0  0  0  0  0
  -13.4535    9.4280   -0.0355 H   0  0  0  0  0  0  0  0  0  0  0  0
  -16.0115   10.5013    0.0289 H   0  0  0  0  0  0  0  0  0  0  0  0
  -12.6099   11.1553   -0.9186 H   0  0  0  0  0  0  0  0  0  0  0  0
  -12.7611   10.2571   -2.4669 H   0  0  0  0  0  0  0  0  0  0  0  0
  -12.7623   12.0534   -2.4669 H   0  0  0  0  0  0  0  0  0  0  0  0
  -15.6496   12.9616   -1.4407 H   0  0  0  0  0  0  0  0  0  0  0  0
  -14.6026   12.9623   -2.9004 H   0  0  0  0  0  0  0  0  0  0  0  0
  -16.1429   12.0381   -2.9004 H   0  0  0  0  0  0  0  0  0  0  0  0
  -12.7612    5.8338   -1.0139 H   0  0  0  0  0  0  0  0  0  0  0  0
  -13.6533    7.2580   -2.7488 H   0  0  0  0  0  0  0  0  0  0  0  0
  -13.8820    8.6148   -1.6247 H   0  0  0  0  0  0  0  0  0  0  0  0
  -11.7876    8.3928   -3.5565 H   0  0  0  0  0  0  0  0  0  0  0  0
  -11.7794    9.5383   -2.2181 H   0  0  0  0  0  0  0  0  0  0  0  0
  -10.5252    5.4691   -2.0141 H   0  0  0  0  0  0  0  0  0  0  0  0
  -11.5038    6.2522   -3.3010 H   0  0  0  0  0  0  0  0  0  0  0  0
   -9.7159    6.4261   -3.3010 H   0  0  0  0  0  0  0  0  0  0  0  0
   -9.6386    9.2883   -1.1111 H   0  0  0  0  0  0  0  0  0  0  0  0
   -9.4393    8.9818   -3.6625 H   0  0  0  0  0  0  0  0  0  0  0  0
   -8.0320    9.6298   -2.6679 H   0  0  0  0  0  0  0  0  0  0  0  0
   -7.4262    7.8838   -4.5456 H   0  0  0  0  0  0  0  0  0  0  0  0
   -8.2792    5.5953   -1.3305 H   0  0  0  0  0  0  0  0  0  0  0  0
   -5.5763    6.9044   -0.6415 H   0  0  0  0  0  0  0  0  0  0  0  0
   -6.5306    5.7552    0.3976 H   0  0  0  0  0  0  0  0  0  0  0  0
   -4.6242    4.6438   -0.7210 H   0  0  0  0  0  0  0  0  0  0  0  0
   -6.2265    3.9815   -1.2308 H   0  0  0  0  0  0  0  0  0  0  0  0
   -4.8339    4.2064   -3.1709 H   0  0  0  0  0  0  0  0  0  0  0  0
   -3.7600    6.0930   -3.6260 H   0  0  0  0  0  0  0  0  0  0  0  0
   -7.6812    3.9302   -2.7923 H   0  0  0  0  0  0  0  0  0  0  0  0
   -8.2778    4.6305   -4.3351 H   0  0  0  0  0  0  0  0  0  0  0  0
   -6.8450    3.5471   -4.3351 H   0  0  0  0  0  0  0  0  0  0  0  0
   -5.0999    6.6355   -4.8984 H   0  0  0  0  0  0  0  0  0  0  0  0
   -5.6464    5.0486   -5.5386 H   0  0  0  0  0  0  0  0  0  0  0  0
   -6.7682    6.4516   -5.5386 H   0  0  0  0  0  0  0  0  0  0  0  0
   -7.3653    8.6633    0.9930 H   0  0  0  0  0  0  0  0  0  0  0  0
   -6.3476    8.4384   -0.4700 H   0  0  0  0  0  0  0  0  0  0  0  0
   -7.6622    9.6624   -0.4700 H   0  0  0  0  0  0  0  0  0  0  0  0
   -8.4566    6.2005    1.0306 H   0  0  0  0  0  0  0  0  0  0  0  0
   -9.2331    7.8611    1.3025 H   0  0  0  0  0  0  0  0  0  0  0  0
  -10.4153    5.4844   -0.1589 H   0  0  0  0  0  0  0  0  0  0  0  0
  -10.9597    6.2433    1.3889 H   0  0  0  0  0  0  0  0  0  0  0  0
  -11.5085    8.4297    1.5605 H   0  0  0  0  0  0  0  0  0  0  0  0
  -10.7244    9.3965    0.2655 H   0  0  0  0  0  0  0  0  0  0  0  0
  -12.5068    9.1734    0.2655 H   0  0  0  0  0  0  0  0  0  0  0  0
  1  2  1  0
  2  3  1  0
  3  4  1  0
  4  5  1  0
  5  6  1  0
  6  7  1  0
  7  8  1  0
  7  9  1  0
  2 10  1  0
 10 11  1  0
 11 12  1  0
 12 13  1  0
 13 14  1  6
 13 15  1  0
 15 16  1  0
 16 17  1  0
 17 18  2  0
 18 19  1  0
 19 20  1  0
 20 21  1  0
 21 22  1  0
 22 23  1  0
 22 24  1  0
 24 25  1  0
 24 26  1  0
 19 27  1  0
 27 28  1  1
 27 29  1  0
 29 30  1  0
 30 31  1  0
 31 32  1  1
  7  5  1  0
 31 10  1  0
 31 13  1  0
 27 15  1  0
 24 18  1  0
  1 33  1  0
  1 34  1  0
  1 35  1  0
  2 36  1  1
  3 37  1  0
  3 38  1  0
  4 39  1  0
  4 40  1  0
  5 41  1  1
  8 42  1  0
  8 43  1  0
  8 44  1  0
  9 45  1  0
  9 46  1  0
  9 47  1  0
 10 48  1  6
 11 49  1  0
 11 50  1  0
 12 51  1  0
 12 52  1  0
 14 53  1  0
 14 54  1  0
 14 55  1  0
 15 56  1  1
 16 57  1  0
 16 58  1  0
 17 59  1  0
 19 60  1  6
 20 61  1  0
 20 62  1  0
 21 63  1  0
 21 64  1  0
 22 65  1  6
 23 66  1  0
 25 67  1  0
 25 68  1  0
 25 69  1  0
 26 70  1  0
 26 71  1  0
 26 72  1  0
 28 73  1  0
 28 74  1  0
 28 75  1  0
 29 76  1  0
 29 77  1  0
 30 78  1  0
 30 79  1  0
 32 80  1  0
 32 81  1  0
 32 82  1  0
M  END
>  <meeko>  (16) 
{"is_sidechain": [false], "intermolecular_energy": 2.731, "internal_energy": -0.839}

$$$$
EPH_relaxed_0001_pdb2pqr_Repair_361_r2_0001_out
     RDKit          3D

 82 86  0  0  0  0  0  0  0  0999 V2000
    2.0210   18.7710   -1.1470 C   0  0  0  0  0  0  0  0  0  0  0  0
    2.5520   17.8150   -2.2180 C   0  0  2  0  0  0  0  0  0  0  0  0
    1.6350   17.7610   -3.4560 C   0  0  0  0  0  0  0  0  0  0  0  0
    1.2110   16.3430   -3.8470 C   0  0  0  0  0  0  0  0  0  0  0  0
    0.9100   16.2380   -5.3120 C   0  0  2  0  0  0  0  0  0  0  0  0
   -0.3350   15.5990   -5.6230 O   0  0  0  0  0  0  0  0  0  0  0  0
    0.8530   14.9200   -6.0620 C   0  0  0  0  0  0  0  0  0  0  0  0
    1.1000   13.6170   -5.3690 C   0  0  0  0  0  0  0  0  0  0  0  0
    1.0410   14.9330   -7.5470 C   0  0  0  0  0  0  0  0  0  0  0  0
    2.7180   16.4180   -1.6310 C   0  0  1  0  0  0  0  0  0  0  0  0
    3.6170   16.4030   -0.3660 C   0  0  0  0  0  0  0  0  0  0  0  0
    3.0430   15.3160    0.5780 C   0  0  0  0  0  0  0  0  0  0  0  0
    2.0500   14.5200   -0.3010 C   0  0  1  0  0  0  0  0  0  0  0  0
    2.9400   13.5260   -1.1110 C   0  0  0  0  0  0  0  0  0  0  0  0
    0.8980   13.7800    0.4530 C   0  0  2  0  0  0  0  0  0  0  0  0
    1.3570   12.6860    1.4330 C   0  0  0  0  0  0  0  0  0  0  0  0
    1.4740   11.3170    0.8500 C   0  0  0  0  0  0  0  0  0  0  0  0
    0.9540   10.9200   -0.3270 C   0  0  0  0  0  0  0  0  0  0  0  0
    0.0760   11.8650   -1.1580 C   0  0  1  0  0  0  0  0  0  0  0  0
   -1.1910   11.1080   -1.6370 C   0  0  0  0  0  0  0  0  0  0  0  0
   -0.8560    9.8180   -2.3790 C   0  0  0  0  0  0  0  0  0  0  0  0
   -0.0320    8.8810   -1.5000 C   0  0  2  0  0  0  0  0  0  0  0  0
   -0.8470    8.4380   -0.4100 O   0  0  0  0  0  0  0  0  0  0  0  0
    1.2650    9.5380   -0.9510 C   0  0  0  0  0  0  0  0  0  0  0  0
    2.2740    9.7420   -2.1070 C   0  0  0  0  0  0  0  0  0  0  0  0
    1.9280    8.5350    0.0320 C   0  0  0  0  0  0  0  0  0  0  0  0
   -0.2660   13.2640   -0.4860 C   0  0  1  0  0  0  0  0  0  0  0  0
   -1.5350   13.1280    0.4100 C   0  0  0  0  0  0  0  0  0  0  0  0
   -0.6290   14.3010   -1.6140 C   0  0  0  0  0  0  0  0  0  0  0  0
    0.5410   15.0870   -2.2380 C   0  0  0  0  0  0  0  0  0  0  0  0
    1.4360   15.6910   -1.1520 C   0  0  2  0  0  0  0  0  0  0  0  0
    0.5740   16.7130   -0.3350 C   0  0  0  0  0  0  0  0  0  0  0  0
    2.2462   18.3656   -0.1495 H   0  0  0  0  0  0  0  0  0  0  0  0
    2.5028   19.7533   -1.2609 H   0  0  0  0  0  0  0  0  0  0  0  0
    0.9325   18.8811   -1.2609 H   0  0  0  0  0  0  0  0  0  0  0  0
    3.5287   18.1984   -2.5483 H   0  0  0  0  0  0  0  0  0  0  0  0
    0.7293   18.3479   -3.2431 H   0  0  0  0  0  0  0  0  0  0  0  0
    2.2107   18.1684   -4.3002 H   0  0  0  0  0  0  0  0  0  0  0  0
    2.0256   15.6464   -3.5997 H   0  0  0  0  0  0  0  0  0  0  0  0
    0.2958   16.0931   -3.2903 H   0  0  0  0  0  0  0  0  0  0  0  0
    1.4433   17.1788   -5.5131 H   0  0  0  0  0  0  0  0  0  0  0  0
    1.0711   13.7696   -4.2800 H   0  0  0  0  0  0  0  0  0  0  0  0
    0.3228   12.8945   -5.6588 H   0  0  0  0  0  0  0  0  0  0  0  0
    2.0877   13.2290   -5.6588 H   0  0  0  0  0  0  0  0  0  0  0  0
    2.1134   15.0072   -7.7802 H   0  0  0  0  0  0  0  0  0  0  0  0
    0.6358   14.0047   -7.9760 H   0  0  0  0  0  0  0  0  0  0  0  0
    0.5119   15.7967   -7.9760 H   0  0  0  0  0  0  0  0  0  0  0  0
    3.1401   15.9004   -2.5051 H   0  0  0  0  0  0  0  0  0  0  0  0
    4.6534   16.1571   -0.6408 H   0  0  0  0  0  0  0  0  0  0  0  0
    3.6250   17.3876    0.1244 H   0  0  0  0  0  0  0  0  0  0  0  0
    3.8450   14.6607    0.9485 H   0  0  0  0  0  0  0  0  0  0  0  0
    2.5595   15.7483    1.4664 H   0  0  0  0  0  0  0  0  0  0  0  0
    3.5081   12.8915   -0.4148 H   0  0  0  0  0  0  0  0  0  0  0  0
    2.3004   12.8939   -1.7445 H   0  0  0  0  0  0  0  0  0  0  0  0
    3.6387   14.0921   -1.7445 H   0  0  0  0  0  0  0  0  0  0  0  0
    0.4727   14.5803    1.0764 H   0  0  0  0  0  0  0  0  0  0  0  0
    2.3433   12.9736    1.8260 H   0  0  0  0  0  0  0  0  0  0  0  0
    0.5767   12.6223    2.2057 H   0  0  0  0  0  0  0  0  0  0  0  0
    2.0326   10.5686    1.4313 H   0  0  0  0  0  0  0  0  0  0  0  0
    0.6841   12.1607   -2.0257 H   0  0  0  0  0  0  0  0  0  0  0  0
   -1.8067   10.8605   -0.7597 H   0  0  0  0  0  0  0  0  0  0  0  0
   -1.7285   11.7655   -2.3362 H   0  0  0  0  0  0  0  0  0  0  0  0
   -1.7910    9.3139   -2.6648 H   0  0  0  0  0  0  0  0  0  0  0  0
   -0.2661   10.0702   -3.2726 H   0  0  0  0  0  0  0  0  0  0  0  0
    0.2875    8.0354   -2.1267 H   0  0  0  0  0  0  0  0  0  0  0  0
   -1.3390    7.6550   -0.7090 H   0  0  0  0  0  0  0  0  0  0  0  0
    3.2722    9.9438   -1.6911 H   0  0  0  0  0  0  0  0  0  0  0  0
    2.3114    8.8332   -2.7257 H   0  0  0  0  0  0  0  0  0  0  0  0
    1.9554   10.5939   -2.7257 H   0  0  0  0  0  0  0  0  0  0  0  0
    1.7226    8.8458    1.0670 H   0  0  0  0  0  0  0  0  0  0  0  0
    1.5163    7.5291   -0.1374 H   0  0  0  0  0  0  0  0  0  0  0  0
    3.0148    8.5197   -0.1374 H   0  0  0  0  0  0  0  0  0  0  0  0
   -1.2409   13.1595    1.4695 H   0  0  0  0  0  0  0  0  0  0  0  0
   -2.2253   13.9573    0.1963 H   0  0  0  0  0  0  0  0  0  0  0  0
   -2.0339   12.1712    0.1963 H   0  0  0  0  0  0  0  0  0  0  0  0
   -1.1294   13.7501   -2.4240 H   0  0  0  0  0  0  0  0  0  0  0  0
   -1.2531   15.0591   -1.1181 H   0  0  0  0  0  0  0  0  0  0  0  0
    1.1402   14.4065   -2.8609 H   0  0  0  0  0  0  0  0  0  0  0  0
    0.1289   15.9044   -2.8479 H   0  0  0  0  0  0  0  0  0  0  0  0
    0.7209   16.5388    0.7411 H   0  0  0  0  0  0  0  0  0  0  0  0
    0.8845   17.7379   -0.5863 H   0  0  0  0  0  0  0  0  0  0  0  0
   -0.4886   16.5798   -0.5863 H   0  0  0  0  0  0  0  0  0  0  0  0
  1  2  1  0
  2  3  1  0
  3  4  1  0
  4  5  1  0
  5  6  1  0
  6  7  1  0
  7  8  1  0
  7  9  1  0
  2 10  1  0
 10 11  1  0
 11 12  1  0
 12 13  1  0
 13 14  1  6
 13 15  1  0
 15 16  1  0
 16 17  1  0
 17 18  2  0
 18 19  1  0
 19 20  1  0
 20 21  1  0
 21 22  1  0
 22 23  1  0
 22 24  1  0
 24 25  1  0
 24 26  1  0
 19 27  1  0
 27 28  1  1
 27 29  1  0
 29 30  1  0
 30 31  1  0
 31 32  1  1
  7  5  1  0
 31 10  1  0
 31 13  1  0
 27 15  1  0
 24 18  1  0
  1 33  1  0
  1 34  1  0
  1 35  1  0
  2 36  1  6
  3 37  1  0
  3 38  1  0
  4 39  1  0
  4 40  1  0
  5 41  1  6
  8 42  1  0
  8 43  1  0
  8 44  1  0
  9 45  1  0
  9 46  1  0
  9 47  1  0
 10 48  1  6
 11 49  1  0
 11 50  1  0
 12 51  1  0
 12 52  1  0
 14 53  1  0
 14 54  1  0
 14 55  1  0
 15 56  1  1
 16 57  1  0
 16 58  1  0
 17 59  1  0
 19 60  1  6
 20 61  1  0
 20 62  1  0
 21 63  1  0
 21 64  1  0
 22 65  1  6
 23 66  1  0
 25 67  1  0
 25 68  1  0
 25 69  1  0
 26 70  1  0
 26 71  1  0
 26 72  1  0
 28 73  1  0
 28 74  1  0
 28 75  1  0
 29 76  1  0
 29 77  1  0
 30 78  1  0
 30 79  1  0
 32 80  1  0
 32 81  1  0
 32 82  1  0
M  END
>  <meeko>  (17) 
{"is_sidechain": [false], "intermolecular_energy": 2.731, "internal_energy": -0.839}

$$$$
EPH_relaxed_0001_pdb2pqr_Repair_361_r2_0001_out
     RDKit          3D

 82 86  0  0  0  0  0  0  0  0999 V2000
   -0.0070   10.4790   -3.7900 C   0  0  0  0  0  0  0  0  0  0  0  0
    0.0720   10.1160   -2.3040 C   0  0  2  0  0  0  0  0  0  0  0  0
   -1.1980    9.3900   -1.8160 C   0  0  0  0  0  0  0  0  0  0  0  0
   -1.8130    8.4560   -2.8610 C   0  0  0  0  0  0  0  0  0  0  0  0
   -2.6750    7.4060   -2.2280 C   0  0  2  0  0  0  0  0  0  0  0  0
   -2.8390    6.2150   -3.0090 O   0  0  0  0  0  0  0  0  0  0  0  0
   -4.0260    6.9900   -2.7770 C   0  0  0  0  0  0  0  0  0  0  0  0
   -4.5940    7.6170   -4.0110 C   0  0  0  0  0  0  0  0  0  0  0  0
   -5.0030    6.3330   -1.8520 C   0  0  0  0  0  0  0  0  0  0  0  0
    0.3040   11.3740   -1.4740 C   0  0  1  0  0  0  0  0  0  0  0  0
    1.3240   11.1510   -0.3260 C   0  0  0  0  0  0  0  0  0  0  0  0
    2.1170   12.4740   -0.1690 C   0  0  0  0  0  0  0  0  0  0  0  0
    1.3140   13.5090   -0.9920 C   0  0  1  0  0  0  0  0  0  0  0  0
    0.1470   13.9500   -0.0530 C   0  0  0  0  0  0  0  0  0  0  0  0
    2.1180   14.7380   -1.5290 C   0  0  2  0  0  0  0  0  0  0  0  0
    2.7290   15.6430   -0.4450 C   0  0  0  0  0  0  0  0  0  0  0  0
    1.8600   16.7670    0.0120 C   0  0  0  0  0  0  0  0  0  0  0  0
    0.7600   17.2130   -0.6240 C   0  0  0  0  0  0  0  0  0  0  0  0
    0.3460   16.6330   -1.9820 C   0  0  1  0  0  0  0  0  0  0  0  0
   -0.0080   17.7910   -2.9530 C   0  0  0  0  0  0  0  0  0  0  0  0
   -1.0580   18.7360   -2.3780 C   0  0  0  0  0  0  0  0  0  0  0  0
   -0.5860   19.3370   -1.0560 C   0  0  2  0  0  0  0  0  0  0  0  0
    0.5320   20.1930   -1.3130 O   0  0  0  0  0  0  0  0  0  0  0  0
   -0.1910   18.2650   -0.0020 C   0  0  0  0  0  0  0  0  0  0  0  0
   -1.4620   17.5360    0.4990 C   0  0  0  0  0  0  0  0  0  0  0  0
    0.4000   19.0020    1.2300 C   0  0  0  0  0  0  0  0  0  0  0  0
    1.3530   15.5850   -2.6250 C   0  0  1  0  0  0  0  0  0  0  0  0
    2.4430   16.3320   -3.4520 C   0  0  0  0  0  0  0  0  0  0  0  0
    0.5680   14.6760   -3.6430 C   0  0  0  0  0  0  0  0  0  0  0  0
   -0.1040   13.4130   -3.0720 C   0  0  0  0  0  0  0  0  0  0  0  0
    0.8750   12.6140   -2.2070 C   0  0  2  0  0  0  0  0  0  0  0  0
    2.0490   12.1380   -3.1290 C   0  0  0  0  0  0  0  0  0  0  0  0
   -0.2399   11.5490   -3.8942 H   0  0  0  0  0  0  0  0  0  0  0  0
    0.9587   10.2653   -4.2715 H   0  0  0  0  0  0  0  0  0  0  0  0
   -0.7965    9.8833   -4.2715 H   0  0  0  0  0  0  0  0  0  0  0  0
    0.9178    9.4244   -2.1760 H   0  0  0  0  0  0  0  0  0  0  0  0
   -0.9382    8.7947   -0.9282 H   0  0  0  0  0  0  0  0  0  0  0  0
   -1.9472   10.1651   -1.5972 H   0  0  0  0  0  0  0  0  0  0  0  0
   -2.4266    9.0509   -3.5535 H   0  0  0  0  0  0  0  0  0  0  0  0
   -0.9937    7.9512   -3.3939 H   0  0  0  0  0  0  0  0  0  0  0  0
   -2.3497    7.7119   -1.2227 H   0  0  0  0  0  0  0  0  0  0  0  0
   -5.3075    8.4046   -3.7270 H   0  0  0  0  0  0  0  0  0  0  0  0
   -3.7804    8.0567   -4.6066 H   0  0  0  0  0  0  0  0  0  0  0  0
   -5.1117    6.8507   -4.6066 H   0  0  0  0  0  0  0  0  0  0  0  0
   -4.7106    6.5296   -0.8100 H   0  0  0  0  0  0  0  0  0  0  0  0
   -6.0093    6.7386   -2.0332 H   0  0  0  0  0  0  0  0  0  0  0  0
   -5.0069    5.2480   -2.0332 H   0  0  0  0  0  0  0  0  0  0  0  0
   -0.7271   11.5728   -1.1464 H   0  0  0  0  0  0  0  0  0  0  0  0
    0.7958   10.9127    0.6090 H   0  0  0  0  0  0  0  0  0  0  0  0
    1.9974   10.3115   -0.5535 H   0  0  0  0  0  0  0  0  0  0  0  0
    2.1678   12.7734    0.8883 H   0  0  0  0  0  0  0  0  0  0  0  0
    3.1569   12.3812   -0.5154 H   0  0  0  0  0  0  0  0  0  0  0  0
    0.4564   13.8331    0.9961 H   0  0  0  0  0  0  0  0  0  0  0  0
   -0.1013   15.0039   -0.2468 H   0  0  0  0  0  0  0  0  0  0  0  0
   -0.7362   13.3236   -0.2468 H   0  0  0  0  0  0  0  0  0  0  0  0
    2.9702   14.2590   -2.0332 H   0  0  0  0  0  0  0  0  0  0  0  0
    2.9621   15.0167    0.4288 H   0  0  0  0  0  0  0  0  0  0  0  0
    3.6143   16.1094   -0.9018 H   0  0  0  0  0  0  0  0  0  0  0  0
    2.1417   17.2737    0.9468 H   0  0  0  0  0  0  0  0  0  0  0  0
   -0.5464   16.0189   -1.7909 H   0  0  0  0  0  0  0  0  0  0  0  0
    0.9058   18.3658   -3.1643 H   0  0  0  0  0  0  0  0  0  0  0  0
   -0.4257   17.3442   -3.8673 H   0  0  0  0  0  0  0  0  0  0  0  0
   -1.2437   19.5479   -3.0966 H   0  0  0  0  0  0  0  0  0  0  0  0
   -1.9807   18.1659   -2.1948 H   0  0  0  0  0  0  0  0  0  0  0  0
   -1.4291   19.9004   -0.6296 H   0  0  0  0  0  0  0  0  0  0  0  0
    0.2820   21.0920   -1.0390 H   0  0  0  0  0  0  0  0  0  0  0  0
   -1.4719   17.5303    1.5989 H   0  0  0  0  0  0  0  0  0  0  0  0
   -2.3553   18.0590    0.1270 H   0  0  0  0  0  0  0  0  0  0  0  0
   -1.4616   16.5008    0.1270 H   0  0  0  0  0  0  0  0  0  0  0  0
    0.0247   18.5340    2.1520 H   0  0  0  0  0  0  0  0  0  0  0  0
    1.4977   18.9352    1.2054 H   0  0  0  0  0  0  0  0  0  0  0  0
    0.0963   20.0590    1.2054 H   0  0  0  0  0  0  0  0  0  0  0  0
    3.1532   16.8187   -2.7674 H   0  0  0  0  0  0  0  0  0  0  0  0
    2.9802   15.6113   -4.0861 H   0  0  0  0  0  0  0  0  0  0  0  0
    1.9647   17.0931   -4.0861 H   0  0  0  0  0  0  0  0  0  0  0  0
   -0.2187   15.2929   -4.1017 H   0  0  0  0  0  0  0  0  0  0  0  0
    1.3302   14.3044   -4.3437 H   0  0  0  0  0  0  0  0  0  0  0  0
   -0.9664   13.7109   -2.4576 H   0  0  0  0  0  0  0  0  0  0  0  0
   -0.4287   12.7792   -3.9104 H   0  0  0  0  0  0  0  0  0  0  0  0
    2.8893   11.7973   -2.5062 H   0  0  0  0  0  0  0  0  0  0  0  0
    1.7035   11.3089   -3.7640 H   0  0  0  0  0  0  0  0  0  0  0  0
    2.3784   12.9736   -3.7640 H   0  0  0  0  0  0  0  0  0  0  0  0
  1  2  1  0
  2  3  1  0
  3  4  1  0
  4  5  1  0
  5  6  1  0
  6  7  1  0
  7  8  1  0
  7  9  1  0
  2 10  1  0
 10 11  1  0
 11 12  1  0
 12 13  1  0
 13 14  1  1
 13 15  1  0
 15 16  1  0
 16 17  1  0
 17 18  2  0
 18 19  1  0
 19 20  1  0
 20 21  1  0
 21 22  1  0
 22 23  1  0
 22 24  1  0
 24 25  1  0
 24 26  1  0
 19 27  1  0
 27 28  1  6
 27 29  1  0
 29 30  1  0
 30 31  1  0
 31 32  1  6
  7  5  1  0
 31 10  1  0
 31 13  1  0
 27 15  1  0
 24 18  1  0
  1 33  1  0
  1 34  1  0
  1 35  1  0
  2 36  1  6
  3 37  1  0
  3 38  1  0
  4 39  1  0
  4 40  1  0
  5 41  1  1
  8 42  1  0
  8 43  1  0
  8 44  1  0
  9 45  1  0
  9 46  1  0
  9 47  1  0
 10 48  1  1
 11 49  1  0
 11 50  1  0
 12 51  1  0
 12 52  1  0
 14 53  1  0
 14 54  1  0
 14 55  1  0
 15 56  1  6
 16 57  1  0
 16 58  1  0
 17 59  1  0
 19 60  1  1
 20 61  1  0
 20 62  1  0
 21 63  1  0
 21 64  1  0
 22 65  1  1
 23 66  1  0
 25 67  1  0
 25 68  1  0
 25 69  1  0
 26 70  1  0
 26 71  1  0
 26 72  1  0
 28 73  1  0
 28 74  1  0
 28 75  1  0
 29 76  1  0
 29 77  1  0
 30 78  1  0
 30 79  1  0
 32 80  1  0
 32 81  1  0
 32 82  1  0
M  END
>  <meeko>  (18) 
{"is_sidechain": [false], "intermolecular_energy": 2.731, "internal_energy": -0.839}

$$$$
EPH_relaxed_0001_pdb2pqr_Repair_361_r2_0001_out
     RDKit          3D

 82 86  0  0  0  0  0  0  0  0999 V2000
    0.0520   10.5440   -3.8740 C   0  0  0  0  0  0  0  0  0  0  0  0
    0.9680   10.2120   -2.6940 C   0  0  2  0  0  0  0  0  0  0  0  0
    0.4080    9.0650   -1.8290 C   0  0  0  0  0  0  0  0  0  0  0  0
   -0.5340    9.5360   -0.7170 C   0  0  0  0  0  0  0  0  0  0  0  0
    0.2110    9.8510    0.5440 C   0  0  2  0  0  0  0  0  0  0  0  0
   -0.6120    9.9720    1.7120 O   0  0  0  0  0  0  0  0  0  0  0  0
    0.0720   11.1640    1.2920 C   0  0  0  0  0  0  0  0  0  0  0  0
   -0.8370   12.2470    0.8040 C   0  0  0  0  0  0  0  0  0  0  0  0
    1.1740   11.5820    2.2150 C   0  0  0  0  0  0  0  0  0  0  0  0
    1.1830   11.4540   -1.8370 C   0  0  1  0  0  0  0  0  0  0  0  0
    2.4290   11.3380   -0.9180 C   0  0  0  0  0  0  0  0  0  0  0  0
    3.0460   12.7560   -0.8210 C   0  0  0  0  0  0  0  0  0  0  0  0
    1.9640   13.6940   -1.4040 C   0  0  1  0  0  0  0  0  0  0  0  0
    0.9530   13.9160   -0.2350 C   0  0  0  0  0  0  0  0  0  0  0  0
    2.4690   15.0500   -1.9960 C   0  0  2  0  0  0  0  0  0  0  0  0
    3.1500   15.9900   -0.9850 C   0  0  0  0  0  0  0  0  0  0  0  0
    2.2390   16.9520   -0.2960 C   0  0  0  0  0  0  0  0  0  0  0  0
    0.9860   17.2550   -0.6820 C   0  0  0  0  0  0  0  0  0  0  0  0
    0.3980   16.6780   -1.9760 C   0  0  1  0  0  0  0  0  0  0  0  0
   -0.2960   17.8090   -2.7790 C   0  0  0  0  0  0  0  0  0  0  0  0
   -1.3330   18.5620   -1.9530 C   0  0  0  0  0  0  0  0  0  0  0  0
   -0.6980   19.1710   -0.7050 C   0  0  2  0  0  0  0  0  0  0  0  0
    0.2180   20.1940   -1.1060 O   0  0  0  0  0  0  0  0  0  0  0  0
    0.0390   18.1270    0.1790 C   0  0  0  0  0  0  0  0  0  0  0  0
   -0.9960   17.1960    0.8580 C   0  0  0  0  0  0  0  0  0  0  0  0
    0.7520   18.8920    1.3270 C   0  0  0  0  0  0  0  0  0  0  0  0
    1.3950   15.8180   -2.8670 C   0  0  1  0  0  0  0  0  0  0  0  0
    2.1880   16.7530   -3.8300 C   0  0  0  0  0  0  0  0  0  0  0  0
    0.5590   14.8460   -3.7810 C   0  0  0  0  0  0  0  0  0  0  0  0
    0.1920   13.4740   -3.1830 C   0  0  0  0  0  0  0  0  0  0  0  0
    1.4230   12.7940   -2.5750 C   0  0  2  0  0  0  0  0  0  0  0  0
    2.4480   12.5380   -3.7310 C   0  0  0  0  0  0  0  0  0  0  0  0
   -0.9193   10.8961   -3.4964 H   0  0  0  0  0  0  0  0  0  0  0  0
    0.5145   11.3317   -4.4869 H   0  0  0  0  0  0  0  0  0  0  0  0
   -0.0976    9.6429   -4.4869 H   0  0  0  0  0  0  0  0  0  0  0  0
    1.9301    9.8745   -3.1068 H   0  0  0  0  0  0  0  0  0  0  0  0
   -0.1447    8.3747   -2.4832 H   0  0  0  0  0  0  0  0  0  0  0  0
    1.2669    8.5824   -1.3398 H   0  0  0  0  0  0  0  0  0  0  0  0
   -1.0606   10.4405   -1.0553 H   0  0  0  0  0  0  0  0  0  0  0  0
   -1.2438    8.7237   -0.5020 H   0  0  0  0  0  0  0  0  0  0  0  0
    1.0904    9.2919    0.1918 H   0  0  0  0  0  0  0  0  0  0  0  0
   -1.2774   12.7716    1.6647 H   0  0  0  0  0  0  0  0  0  0  0  0
   -0.2631   12.9603    0.1942 H   0  0  0  0  0  0  0  0  0  0  0  0
   -1.6390   11.8055    0.1942 H   0  0  0  0  0  0  0  0  0  0  0  0
    0.8460   11.4576    3.2576 H   0  0  0  0  0  0  0  0  0  0  0  0
    2.0614   10.9580    2.0328 H   0  0  0  0  0  0  0  0  0  0  0  0
    1.4243   12.6375    2.0328 H   0  0  0  0  0  0  0  0  0  0  0  0
    0.2184   11.4826   -1.3090 H   0  0  0  0  0  0  0  0  0  0  0  0
    2.1317   10.9850    0.0805 H   0  0  0  0  0  0  0  0  0  0  0  0
    3.1546   10.6184   -1.3251 H   0  0  0  0  0  0  0  0  0  0  0  0
    3.2609   13.0150    0.2263 H   0  0  0  0  0  0  0  0  0  0  0  0
    4.0003   12.8332   -1.3627 H   0  0  0  0  0  0  0  0  0  0  0  0
    1.4740   13.8016    0.7270 H   0  0  0  0  0  0  0  0  0  0  0  0
    0.5290   14.9286   -0.3042 H   0  0  0  0  0  0  0  0  0  0  0  0
    0.1438   13.1742   -0.3042 H   0  0  0  0  0  0  0  0  0  0  0  0
    3.2633   14.7251   -2.6841 H   0  0  0  0  0  0  0  0  0  0  0  0
    3.6337   15.3696   -0.2162 H   0  0  0  0  0  0  0  0  0  0  0  0
    3.8564   16.6016   -1.5655 H   0  0  0  0  0  0  0  0  0  0  0  0
    2.6247   17.4554    0.6028 H   0  0  0  0  0  0  0  0  0  0  0  0
   -0.3472   15.9309   -1.6654 H   0  0  0  0  0  0  0  0  0  0  0  0
    0.4701   18.5220   -3.1177 H   0  0  0  0  0  0  0  0  0  0  0  0
   -0.8193   17.3432   -3.6270 H   0  0  0  0  0  0  0  0  0  0  0  0
   -1.7664   19.3663   -2.5656 H   0  0  0  0  0  0  0  0  0  0  0  0
   -2.1144   17.8539   -1.6398 H   0  0  0  0  0  0  0  0  0  0  0  0
   -1.5108   19.5846   -0.0900 H   0  0  0  0  0  0  0  0  0  0  0  0
    0.3390   20.1200   -2.0680 H   0  0  0  0  0  0  0  0  0  0  0  0
   -0.9030   17.2797    1.9509 H   0  0  0  0  0  0  0  0  0  0  0  0
   -2.0107   17.4913    0.5527 H   0  0  0  0  0  0  0  0  0  0  0  0
   -0.8094   16.1558    0.5527 H   0  0  0  0  0  0  0  0  0  0  0  0
    0.3976   18.5118    2.2965 H   0  0  0  0  0  0  0  0  0  0  0  0
    1.8387   18.7407    1.2489 H   0  0  0  0  0  0  0  0  0  0  0  0
    0.5247   19.9654    1.2489 H   0  0  0  0  0  0  0  0  0  0  0  0
    2.7889   17.4615   -3.2409 H   0  0  0  0  0  0  0  0  0  0  0  0
    2.8523   16.1477   -4.4643 H   0  0  0  0  0  0  0  0  0  0  0  0
    1.4824   17.3096   -4.4643 H   0  0  0  0  0  0  0  0  0  0  0  0
   -0.3795   15.3579   -4.0402 H   0  0  0  0  0  0  0  0  0  0  0  0
    1.2131   14.6215   -4.6364 H   0  0  0  0  0  0  0  0  0  0  0  0
   -0.5659   13.6146   -2.3982 H   0  0  0  0  0  0  0  0  0  0  0  0
   -0.2007   12.8345   -3.9872 H   0  0  0  0  0  0  0  0  0  0  0  0
    3.4307   12.2926   -3.3020 H   0  0  0  0  0  0  0  0  0  0  0  0
    2.0990   11.6994   -4.3515 H   0  0  0  0  0  0  0  0  0  0  0  0
    2.5343   13.4422   -4.3515 H   0  0  0  0  0  0  0  0  0  0  0  0
  1  2  1  0
  2  3  1  0
  3  4  1  0
  4  5  1  0
  5  6  1  0
  6  7  1  0
  7  8  1  0
  7  9  1  0
  2 10  1  0
 10 11  1  0
 11 12  1  0
 12 13  1  0
 13 14  1  1
 13 15  1  0
 15 16  1  0
 16 17  1  0
 17 18  2  0
 18 19  1  0
 19 20  1  0
 20 21  1  0
 21 22  1  0
 22 23  1  0
 22 24  1  0
 24 25  1  0
 24 26  1  0
 19 27  1  0
 27 28  1  6
 27 29  1  0
 29 30  1  0
 30 31  1  0
 31 32  1  6
  7  5  1  0
 31 10  1  0
 31 13  1  0
 27 15  1  0
 24 18  1  0
  1 33  1  0
  1 34  1  0
  1 35  1  0
  2 36  1  6
  3 37  1  0
  3 38  1  0
  4 39  1  0
  4 40  1  0
  5 41  1  1
  8 42  1  0
  8 43  1  0
  8 44  1  0
  9 45  1  0
  9 46  1  0
  9 47  1  0
 10 48  1  1
 11 49  1  0
 11 50  1  0
 12 51  1  0
 12 52  1  0
 14 53  1  0
 14 54  1  0
 14 55  1  0
 15 56  1  6
 16 57  1  0
 16 58  1  0
 17 59  1  0
 19 60  1  1
 20 61  1  0
 20 62  1  0
 21 63  1  0
 21 64  1  0
 22 65  1  1
 23 66  1  0
 25 67  1  0
 25 68  1  0
 25 69  1  0
 26 70  1  0
 26 71  1  0
 26 72  1  0
 28 73  1  0
 28 74  1  0
 28 75  1  0
 29 76  1  0
 29 77  1  0
 30 78  1  0
 30 79  1  0
 32 80  1  0
 32 81  1  0
 32 82  1  0
M  END
>  <meeko>  (19) 
{"is_sidechain": [false], "intermolecular_energy": 2.731, "internal_energy": -0.839}

$$$$
