EPH_relaxed_0001_pdb2pqr_Repair_78_r2_0001_out
     RDKit          3D

 82 86  0  0  0  0  0  0  0  0999 V2000
   -1.4530    8.5560   -1.7360 C   0  0  0  0  0  0  0  0  0  0  0  0
   -1.8570    9.1550   -0.3860 C   0  0  2  0  0  0  0  0  0  0  0  0
   -3.3480    9.5470   -0.3480 C   0  0  0  0  0  0  0  0  0  0  0  0
   -4.2960    8.3510   -0.2170 C   0  0  0  0  0  0  0  0  0  0  0  0
   -5.0340    8.0870   -1.4940 C   0  0  2  0  0  0  0  0  0  0  0  0
   -6.4510    8.2940   -1.4200 O   0  0  0  0  0  0  0  0  0  0  0  0
   -6.0200    6.9460   -1.6690 C   0  0  0  0  0  0  0  0  0  0  0  0
   -6.3200    5.9960   -0.5530 C   0  0  0  0  0  0  0  0  0  0  0  0
   -6.3170    6.4650   -3.0550 C   0  0  0  0  0  0  0  0  0  0  0  0
   -0.9910   10.3710   -0.0770 C   0  0  1  0  0  0  0  0  0  0  0  0
    0.1200   10.0640    0.9620 C   0  0  0  0  0  0  0  0  0  0  0  0
    1.3530   10.9140    0.5620 C   0  0  0  0  0  0  0  0  0  0  0  0
    0.8120   11.9200   -0.4800 C   0  0  1  0  0  0  0  0  0  0  0  0
    0.1470   13.0530    0.3630 C   0  0  0  0  0  0  0  0  0  0  0  0
    1.8550   12.4920   -1.4940 C   0  0  2  0  0  0  0  0  0  0  0  0
    2.9940   13.3140   -0.8660 C   0  0  0  0  0  0  0  0  0  0  0  0
    2.7310   14.7780   -0.7410 C   0  0  0  0  0  0  0  0  0  0  0  0
    1.7510   15.4530   -1.3720 C   0  0  0  0  0  0  0  0  0  0  0  0
    0.8420   14.7530   -2.3910 C   0  0  1  0  0  0  0  0  0  0  0  0
    0.7130   15.6350   -3.6610 C   0  0  0  0  0  0  0  0  0  0  0  0
    0.2510   17.0540   -3.3440 C   0  0  0  0  0  0  0  0  0  0  0  0
    1.2110   17.7360   -2.3730 C   0  0  2  0  0  0  0  0  0  0  0  0
    2.4680   17.9330   -3.0300 O   0  0  0  0  0  0  0  0  0  0  0  0
    1.4280   16.9350   -1.0590 C   0  0  0  0  0  0  0  0  0  0  0  0
    0.1380   16.9810   -0.2030 C   0  0  0  0  0  0  0  0  0  0  0  0
    2.5230   17.6600   -0.2320 C   0  0  0  0  0  0  0  0  0  0  0  0
    1.2130   13.2450   -2.7290 C   0  0  1  0  0  0  0  0  0  0  0  0
    2.2680   13.2010   -3.8760 C   0  0  0  0  0  0  0  0  0  0  0  0
   -0.0690   12.5120   -3.2770 C   0  0  0  0  0  0  0  0  0  0  0  0
   -0.9980   11.8640   -2.2330 C   0  0  0  0  0  0  0  0  0  0  0  0
   -0.2000   10.9980   -1.2520 C   0  0  2  0  0  0  0  0  0  0  0  0
    0.4620    9.8370   -2.0690 C   0  0  0  0  0  0  0  0  0  0  0  0
   -0.8450    7.6545   -1.5699 H   0  0  0  0  0  0  0  0  0  0  0  0
   -2.3565    8.2894   -2.3040 H   0  0  0  0  0  0  0  0  0  0  0  0
   -0.8673    9.2938   -2.3040 H   0  0  0  0  0  0  0  0  0  0  0  0
   -1.6990    8.3816    0.3801 H   0  0  0  0  0  0  0  0  0  0  0  0
   -3.5099   10.2142    0.5114 H   0  0  0  0  0  0  0  0  0  0  0  0
   -3.5766   10.0349   -1.3070 H   0  0  0  0  0  0  0  0  0  0  0  0
   -3.7097    7.4585    0.0471 H   0  0  0  0  0  0  0  0  0  0  0  0
   -5.0346    8.5826    0.5646 H   0  0  0  0  0  0  0  0  0  0  0  0
   -4.1687    8.4127   -2.0899 H   0  0  0  0  0  0  0  0  0  0  0  0
   -6.1606    6.5009    0.4112 H   0  0  0  0  0  0  0  0  0  0  0  0
   -7.3665    5.6647   -0.6248 H   0  0  0  0  0  0  0  0  0  0  0  0
   -5.6536    5.1238   -0.6248 H   0  0  0  0  0  0  0  0  0  0  0  0
   -6.8943    5.5301   -3.0028 H   0  0  0  0  0  0  0  0  0  0  0  0
   -6.9017    7.2276   -3.5903 H   0  0  0  0  0  0  0  0  0  0  0  0
   -5.3733    6.2838   -3.5903 H   0  0  0  0  0  0  0  0  0  0  0  0
   -1.7687   11.0686    0.2675 H   0  0  0  0  0  0  0  0  0  0  0  0
   -0.2188   10.3396    1.9716 H   0  0  0  0  0  0  0  0  0  0  0  0
    0.3658    8.9919    0.9725 H   0  0  0  0  0  0  0  0  0  0  0  0
    1.7607   11.4423    1.4365 H   0  0  0  0  0  0  0  0  0  0  0  0
    2.1718   10.2983    0.1613 H   0  0  0  0  0  0  0  0  0  0  0  0
    0.2743   12.8361    1.4339 H   0  0  0  0  0  0  0  0  0  0  0  0
    0.6236   14.0153    0.1246 H   0  0  0  0  0  0  0  0  0  0  0  0
   -0.9255   13.1060    0.1246 H   0  0  0  0  0  0  0  0  0  0  0  0
    2.3267   11.5788   -1.8860 H   0  0  0  0  0  0  0  0  0  0  0  0
    3.1847   12.9159    0.1415 H   0  0  0  0  0  0  0  0  0  0  0  0
    3.8512   13.2164   -1.5484 H   0  0  0  0  0  0  0  0  0  0  0  0
    3.3932   15.3540   -0.0778 H   0  0  0  0  0  0  0  0  0  0  0  0
   -0.1400   14.6528   -1.9056 H   0  0  0  0  0  0  0  0  0  0  0  0
    1.6940   15.6860   -4.1559 H   0  0  0  0  0  0  0  0  0  0  0  0
   -0.0454   15.1746   -4.3113 H   0  0  0  0  0  0  0  0  0  0  0  0
    0.2088   17.6357   -4.2767 H   0  0  0  0  0  0  0  0  0  0  0  0
   -0.7436   17.0033   -2.8770 H   0  0  0  0  0  0  0  0  0  0  0  0
    0.7589   18.6958   -2.0826 H   0  0  0  0  0  0  0  0  0  0  0  0
    2.3040   18.4670   -3.8250 H   0  0  0  0  0  0  0  0  0  0  0  0
    0.4054   16.9715    0.8640 H   0  0  0  0  0  0  0  0  0  0  0  0
   -0.4218   17.8997   -0.4325 H   0  0  0  0  0  0  0  0  0  0  0  0
   -0.4858   16.1045   -0.4325 H   0  0  0  0  0  0  0  0  0  0  0  0
    2.3209   17.5262    0.8410 H   0  0  0  0  0  0  0  0  0  0  0  0
    3.5079   17.2350   -0.4754 H   0  0  0  0  0  0  0  0  0  0  0  0
    2.5163   18.7327   -0.4754 H   0  0  0  0  0  0  0  0  0  0  0  0
    3.2785   13.1589   -3.4433 H   0  0  0  0  0  0  0  0  0  0  0  0
    2.0975   12.3092   -4.4970 H   0  0  0  0  0  0  0  0  0  0  0  0
    2.1724   14.1039   -4.4970 H   0  0  0  0  0  0  0  0  0  0  0  0
   -0.6613   13.2511   -3.8364 H   0  0  0  0  0  0  0  0  0  0  0  0
    0.3135   11.6757   -3.8805 H   0  0  0  0  0  0  0  0  0  0  0  0
   -1.5182   12.6554   -1.6736 H   0  0  0  0  0  0  0  0  0  0  0  0
   -1.7226   11.2236   -2.7573 H   0  0  0  0  0  0  0  0  0  0  0  0
    0.8849    9.0953   -1.3754 H   0  0  0  0  0  0  0  0  0  0  0  0
   -0.2972    9.3553   -2.7027 H   0  0  0  0  0  0  0  0  0  0  0  0
    1.2632   10.2451   -2.7027 H   0  0  0  0  0  0  0  0  0  0  0  0
  1  2  1  0
  2  3  1  0
  3  4  1  0
  4  5  1  0
  5  6  1  0
  6  7  1  0
  7  8  1  0
  7  9  1  0
  2 10  1  0
 10 11  1  0
 11 12  1  0
 12 13  1  0
 13 14  1  1
 13 15  1  0
 15 16  1  0
 16 17  1  0
 17 18  2  0
 18 19  1  0
 19 20  1  0
 20 21  1  0
 21 22  1  0
 22 23  1  0
 22 24  1  0
 24 25  1  0
 24 26  1  0
 19 27  1  0
 27 28  1  6
 27 29  1  0
 29 30  1  0
 30 31  1  0
 31 32  1  6
  7  5  1  0
 31 10  1  0
 31 13  1  0
 27 15  1  0
 24 18  1  0
  1 33  1  0
  1 34  1  0
  1 35  1  0
  2 36  1  1
  3 37  1  0
  3 38  1  0
  4 39  1  0
  4 40  1  0
  5 41  1  6
  8 42  1  0
  8 43  1  0
  8 44  1  0
  9 45  1  0
  9 46  1  0
  9 47  1  0
 10 48  1  1
 11 49  1  0
 11 50  1  0
 12 51  1  0
 12 52  1  0
 14 53  1  0
 14 54  1  0
 14 55  1  0
 15 56  1  6
 16 57  1  0
 16 58  1  0
 17 59  1  0
 19 60  1  1
 20 61  1  0
 20 62  1  0
 21 63  1  0
 21 64  1  0
 22 65  1  1
 23 66  1  0
 25 67  1  0
 25 68  1  0
 25 69  1  0
 26 70  1  0
 26 71  1  0
 26 72  1  0
 28 73  1  0
 28 74  1  0
 28 75  1  0
 29 76  1  0
 29 77  1  0
 30 78  1  0
 30 79  1  0
 32 80  1  0
 32 81  1  0
 32 82  1  0
M  END
>  <meeko>  (1) 
{"is_sidechain": [false], "intermolecular_energy": 2.731, "internal_energy": -0.839}

$$$$
EPH_relaxed_0001_pdb2pqr_Repair_78_r2_0001_out
     RDKit          3D

 82 86  0  0  0  0  0  0  0  0999 V2000
    1.9170   19.6480   -0.5020 C   0  0  0  0  0  0  0  0  0  0  0  0
    2.3560   18.3990    0.2670 C   0  0  2  0  0  0  0  0  0  0  0  0
    3.8020   17.9860   -0.0740 C   0  0  0  0  0  0  0  0  0  0  0  0
    4.8110   18.3080    1.0310 C   0  0  0  0  0  0  0  0  0  0  0  0
    4.1730   19.0520    2.1650 C   0  0  2  0  0  0  0  0  0  0  0  0
    4.9080   20.1940    2.6210 O   0  0  0  0  0  0  0  0  0  0  0  0
    4.7640   19.1170    3.5610 C   0  0  0  0  0  0  0  0  0  0  0  0
    6.0480   18.4270    3.8970 C   0  0  0  0  0  0  0  0  0  0  0  0
    3.8560   19.4350    4.7080 C   0  0  0  0  0  0  0  0  0  0  0  0
    1.4030   17.2460   -0.0260 C   0  0  1  0  0  0  0  0  0  0  0  0
    0.1330   17.7020   -0.7940 C   0  0  0  0  0  0  0  0  0  0  0  0
   -0.2490   16.5450   -1.7530 C   0  0  0  0  0  0  0  0  0  0  0  0
    0.6010   15.3450   -1.2740 C   0  0  1  0  0  0  0  0  0  0  0  0
   -0.1790   14.7600   -0.0560 C   0  0  0  0  0  0  0  0  0  0  0  0
    0.9090   14.2460   -2.3430 C   0  0  2  0  0  0  0  0  0  0  0  0
   -0.3250   13.5190   -2.9050 C   0  0  0  0  0  0  0  0  0  0  0  0
   -0.7310   12.2880   -2.1660 C   0  0  0  0  0  0  0  0  0  0  0  0
    0.0270   11.6260   -1.2720 C   0  0  0  0  0  0  0  0  0  0  0  0
    1.4750   12.0530   -0.9990 C   0  0  1  0  0  0  0  0  0  0  0  0
    2.3930   10.8020   -1.0010 C   0  0  0  0  0  0  0  0  0  0  0  0
    1.9110    9.7220   -0.0370 C   0  0  0  0  0  0  0  0  0  0  0  0
    0.4890    9.2820   -0.3760 C   0  0  2  0  0  0  0  0  0  0  0  0
    0.5020    8.6180   -1.6440 O   0  0  0  0  0  0  0  0  0  0  0  0
   -0.5240   10.4610   -0.4140 C   0  0  0  0  0  0  0  0  0  0  0  0
   -0.7640   10.9860    1.0230 C   0  0  0  0  0  0  0  0  0  0  0  0
   -1.8870    9.9030   -0.9050 C   0  0  0  0  0  0  0  0  0  0  0  0
    2.0380   13.2230   -1.9150 C   0  0  1  0  0  0  0  0  0  0  0  0
    2.6260   12.6320   -3.2330 C   0  0  0  0  0  0  0  0  0  0  0  0
    3.2340   13.9280   -1.1720 C   0  0  0  0  0  0  0  0  0  0  0  0
    2.8750   15.0850   -0.2200 C   0  0  0  0  0  0  0  0  0  0  0  0
    1.9370   16.0860   -0.9020 C   0  0  2  0  0  0  0  0  0  0  0  0
    2.7030   16.7070   -2.1200 C   0  0  0  0  0  0  0  0  0  0  0  0
    1.6391   20.4385    0.2106 H   0  0  0  0  0  0  0  0  0  0  0  0
    2.7456   19.9992   -1.1346 H   0  0  0  0  0  0  0  0  0  0  0  0
    1.0509   19.4036   -1.1346 H   0  0  0  0  0  0  0  0  0  0  0  0
    2.3258   18.6431    1.3391 H   0  0  0  0  0  0  0  0  0  0  0  0
    3.8197   16.9011   -0.2550 H   0  0  0  0  0  0  0  0  0  0  0  0
    4.1008   18.5645   -0.9606 H   0  0  0  0  0  0  0  0  0  0  0  0
    5.2322   17.3669    1.4143 H   0  0  0  0  0  0  0  0  0  0  0  0
    5.5975   18.9461    0.6017 H   0  0  0  0  0  0  0  0  0  0  0  0
    3.1682   18.7921    1.8006 H   0  0  0  0  0  0  0  0  0  0  0  0
    6.1575   18.3681    4.9899 H   0  0  0  0  0  0  0  0  0  0  0  0
    6.0402   17.4116    3.4741 H   0  0  0  0  0  0  0  0  0  0  0  0
    6.8905   18.9939    3.4741 H   0  0  0  0  0  0  0  0  0  0  0  0
    4.3835   19.2502    5.6554 H   0  0  0  0  0  0  0  0  0  0  0  0
    3.5555   20.4919    4.6557 H   0  0  0  0  0  0  0  0  0  0  0  0
    2.9618   18.7965    4.6557 H   0  0  0  0  0  0  0  0  0  0  0  0
    1.2234   16.8904    0.9993 H   0  0  0  0  0  0  0  0  0  0  0  0
   -0.6879   17.8953   -0.0877 H   0  0  0  0  0  0  0  0  0  0  0  0
    0.3208   18.6315   -1.3514 H   0  0  0  0  0  0  0  0  0  0  0  0
   -1.3222   16.3158   -1.6769 H   0  0  0  0  0  0  0  0  0  0  0  0
   -0.0592   16.7966   -2.8069 H   0  0  0  0  0  0  0  0  0  0  0  0
    0.2854   15.1083    0.8784 H   0  0  0  0  0  0  0  0  0  0  0  0
   -1.2251   15.0981   -0.0938 H   0  0  0  0  0  0  0  0  0  0  0  0
   -0.1473   13.6611   -0.0938 H   0  0  0  0  0  0  0  0  0  0  0  0
    1.3141   14.8363   -3.1781 H   0  0  0  0  0  0  0  0  0  0  0  0
   -1.1713   14.2215   -2.8860 H   0  0  0  0  0  0  0  0  0  0  0  0
   -0.0489   13.1890   -3.9174 H   0  0  0  0  0  0  0  0  0  0  0  0
   -1.7351   11.8874   -2.3690 H   0  0  0  0  0  0  0  0  0  0  0  0
    1.4723   12.5134    0.0000 H   0  0  0  0  0  0  0  0  0  0  0  0
    2.4157   10.3827   -2.0177 H   0  0  0  0  0  0  0  0  0  0  0  0
    3.3932   11.1209   -0.6726 H   0  0  0  0  0  0  0  0  0  0  0  0
    2.5823    8.8533   -0.1051 H   0  0  0  0  0  0  0  0  0  0  0  0
    1.9169   10.1342    0.9828 H   0  0  0  0  0  0  0  0  0  0  0  0
    0.1532    8.6052    0.4235 H   0  0  0  0  0  0  0  0  0  0  0  0
    0.8900    9.2300   -2.2930 H   0  0  0  0  0  0  0  0  0  0  0  0
   -0.4207   10.2351    1.7498 H   0  0  0  0  0  0  0  0  0  0  0  0
   -0.2040   11.9213    1.1700 H   0  0  0  0  0  0  0  0  0  0  0  0
   -1.8377   11.1745    1.1700 H   0  0  0  0  0  0  0  0  0  0  0  0
   -2.5125    9.6469   -0.0371 H   0  0  0  0  0  0  0  0  0  0  0  0
   -2.3974   10.6645   -1.5129 H   0  0  0  0  0  0  0  0  0  0  0  0
   -1.7169    9.0022   -1.5129 H   0  0  0  0  0  0  0  0  0  0  0  0
    3.3824   11.8717   -2.9885 H   0  0  0  0  0  0  0  0  0  0  0  0
    1.8185   12.1702   -3.8201 H   0  0  0  0  0  0  0  0  0  0  0  0
    3.0919   13.4372   -3.8201 H   0  0  0  0  0  0  0  0  0  0  0  0
    3.7573   13.1614   -0.5816 H   0  0  0  0  0  0  0  0  0  0  0  0
    3.8372   14.3875   -1.9689 H   0  0  0  0  0  0  0  0  0  0  0  0
    2.3776   14.6759    0.6718 H   0  0  0  0  0  0  0  0  0  0  0  0
    3.8011   15.6078    0.0611 H   0  0  0  0  0  0  0  0  0  0  0  0
    3.5083   17.3599   -1.7524 H   0  0  0  0  0  0  0  0  0  0  0  0
    3.1348   15.9008   -2.7313 H   0  0  0  0  0  0  0  0  0  0  0  0
    2.0036   17.2962   -2.7313 H   0  0  0  0  0  0  0  0  0  0  0  0
  1  2  1  0
  2  3  1  0
  3  4  1  0
  4  5  1  0
  5  6  1  0
  6  7  1  0
  7  8  1  0
  7  9  1  0
  2 10  1  0
 10 11  1  0
 11 12  1  0
 12 13  1  0
 13 14  1  1
 13 15  1  0
 15 16  1  0
 16 17  1  0
 17 18  2  0
 18 19  1  0
 19 20  1  0
 20 21  1  0
 21 22  1  0
 22 23  1  0
 22 24  1  0
 24 25  1  0
 24 26  1  0
 19 27  1  0
 27 28  1  6
 27 29  1  0
 29 30  1  0
 30 31  1  0
 31 32  1  6
  7  5  1  0
 31 10  1  0
 31 13  1  0
 27 15  1  0
 24 18  1  0
  1 33  1  0
  1 34  1  0
  1 35  1  0
  2 36  1  1
  3 37  1  0
  3 38  1  0
  4 39  1  0
  4 40  1  0
  5 41  1  1
  8 42  1  0
  8 43  1  0
  8 44  1  0
  9 45  1  0
  9 46  1  0
  9 47  1  0
 10 48  1  1
 11 49  1  0
 11 50  1  0
 12 51  1  0
 12 52  1  0
 14 53  1  0
 14 54  1  0
 14 55  1  0
 15 56  1  6
 16 57  1  0
 16 58  1  0
 17 59  1  0
 19 60  1  1
 20 61  1  0
 20 62  1  0
 21 63  1  0
 21 64  1  0
 22 65  1  1
 23 66  1  0
 25 67  1  0
 25 68  1  0
 25 69  1  0
 26 70  1  0
 26 71  1  0
 26 72  1  0
 28 73  1  0
 28 74  1  0
 28 75  1  0
 29 76  1  0
 29 77  1  0
 30 78  1  0
 30 79  1  0
 32 80  1  0
 32 81  1  0
 32 82  1  0
M  END
>  <meeko>  (2) 
{"is_sidechain": [false], "intermolecular_energy": 2.731, "internal_energy": -0.839}

$$$$
EPH_relaxed_0001_pdb2pqr_Repair_78_r2_0001_out
     RDKit          3D

 82 86  0  0  0  0  0  0  0  0999 V2000
    2.2930   18.0020   -2.8370 C   0  0  0  0  0  0  0  0  0  0  0  0
    1.0010   17.6260   -2.1070 C   0  0  2  0  0  0  0  0  0  0  0  0
    1.1560   17.7060   -0.5750 C   0  0  0  0  0  0  0  0  0  0  0  0
    0.8600   19.0920    0.0030 C   0  0  0  0  0  0  0  0  0  0  0  0
   -0.5540   19.2010    0.4880 C   0  0  2  0  0  0  0  0  0  0  0  0
   -1.4640   18.2630   -0.1040 O   0  0  0  0  0  0  0  0  0  0  0  0
   -1.7080   19.6500   -0.3900 C   0  0  0  0  0  0  0  0  0  0  0  0
   -1.4980   20.0220   -1.8240 C   0  0  0  0  0  0  0  0  0  0  0  0
   -2.9370   20.1940    0.2680 C   0  0  0  0  0  0  0  0  0  0  0  0
    0.5620   16.2250   -2.5140 C   0  0  1  0  0  0  0  0  0  0  0  0
    0.6490   15.9930   -4.0460 C   0  0  0  0  0  0  0  0  0  0  0  0
    1.0610   14.5130   -4.2520 C   0  0  0  0  0  0  0  0  0  0  0  0
    0.8740   13.8590   -2.8630 C   0  0  1  0  0  0  0  0  0  0  0  0
   -0.6530   13.5520   -2.7660 C   0  0  0  0  0  0  0  0  0  0  0  0
    1.7380   12.5880   -2.5750 C   0  0  2  0  0  0  0  0  0  0  0  0
    1.4600   11.3880   -3.4970 C   0  0  0  0  0  0  0  0  0  0  0  0
    0.4120   10.4410   -3.0140 C   0  0  0  0  0  0  0  0  0  0  0  0
   -0.0770   10.3890   -1.7610 C   0  0  0  0  0  0  0  0  0  0  0  0
    0.5000   11.2790   -0.6530 C   0  0  1  0  0  0  0  0  0  0  0  0
    0.7430   10.4280    0.6210 C   0  0  0  0  0  0  0  0  0  0  0  0
   -0.5050    9.6750    1.0690 C   0  0  0  0  0  0  0  0  0  0  0  0
   -1.0150    8.7570   -0.0390 C   0  0  2  0  0  0  0  0  0  0  0  0
   -0.0550    7.7170   -0.2540 O   0  0  0  0  0  0  0  0  0  0  0  0
   -1.2860    9.5020   -1.3760 C   0  0  0  0  0  0  0  0  0  0  0  0
   -2.5280   10.4140   -1.2200 C   0  0  0  0  0  0  0  0  0  0  0  0
   -1.6580    8.4410   -2.4470 C   0  0  0  0  0  0  0  0  0  0  0  0
    1.7650   12.1530   -1.0540 C   0  0  1  0  0  0  0  0  0  0  0  0
    3.0710   11.3250   -0.8510 C   0  0  0  0  0  0  0  0  0  0  0  0
    1.8670   13.3870   -0.0810 C   0  0  0  0  0  0  0  0  0  0  0  0
    1.0870   14.6540   -0.4810 C   0  0  0  0  0  0  0  0  0  0  0  0
    1.3660   15.0320   -1.9390 C   0  0  2  0  0  0  0  0  0  0  0  0
    2.8920   15.3680   -2.0620 C   0  0  0  0  0  0  0  0  0  0  0  0
    3.0773   18.2302   -2.1003 H   0  0  0  0  0  0  0  0  0  0  0  0
    2.6160   17.1606   -3.4676 H   0  0  0  0  0  0  0  0  0  0  0  0
    2.1141   18.8853   -3.4676 H   0  0  0  0  0  0  0  0  0  0  0  0
    0.2314   18.3554   -2.3997 H   0  0  0  0  0  0  0  0  0  0  0  0
    0.4632   16.9842   -0.1179 H   0  0  0  0  0  0  0  0  0  0  0  0
    2.2083   17.4811   -0.3467 H   0  0  0  0  0  0  0  0  0  0  0  0
    1.5413   19.2794    0.8460 H   0  0  0  0  0  0  0  0  0  0  0  0
    1.0064   19.8344   -0.7954 H   0  0  0  0  0  0  0  0  0  0  0  0
   -0.2130   19.5266    1.4818 H   0  0  0  0  0  0  0  0  0  0  0  0
   -0.9579   20.9787   -1.8793 H   0  0  0  0  0  0  0  0  0  0  0  0
   -0.9087   19.2389   -2.3235 H   0  0  0  0  0  0  0  0  0  0  0  0
   -2.4730   20.1219   -2.3235 H   0  0  0  0  0  0  0  0  0  0  0  0
   -2.8211   20.1427    1.3607 H   0  0  0  0  0  0  0  0  0  0  0  0
   -3.0831   21.2409   -0.0365 H   0  0  0  0  0  0  0  0  0  0  0  0
   -3.8102   19.5983   -0.0365 H   0  0  0  0  0  0  0  0  0  0  0  0
   -0.4578   16.2249   -2.1018 H   0  0  0  0  0  0  0  0  0  0  0  0
   -0.3283   16.1827   -4.5139 H   0  0  0  0  0  0  0  0  0  0  0  0
    1.3793   16.6740   -4.5075 H   0  0  0  0  0  0  0  0  0  0  0  0
    0.4138   14.0301   -4.9989 H   0  0  0  0  0  0  0  0  0  0  0  0
    2.0915   14.4148   -4.6240 H   0  0  0  0  0  0  0  0  0  0  0  0
   -0.9486   13.4926   -1.7081 H   0  0  0  0  0  0  0  0  0  0  0  0
   -1.2204   14.3540   -3.2608 H   0  0  0  0  0  0  0  0  0  0  0  0
   -0.8664   12.5930   -3.2608 H   0  0  0  0  0  0  0  0  0  0  0  0
    2.7524   12.9308   -2.8270 H   0  0  0  0  0  0  0  0  0  0  0  0
    1.1410   11.7777   -4.4750 H   0  0  0  0  0  0  0  0  0  0  0  0
    2.3960   10.8114   -3.5359 H   0  0  0  0  0  0  0  0  0  0  0  0
    0.0051    9.7253   -3.7435 H   0  0  0  0  0  0  0  0  0  0  0  0
   -0.2630   12.0449   -0.4499 H   0  0  0  0  0  0  0  0  0  0  0  0
    1.5386    9.6981    0.4108 H   0  0  0  0  0  0  0  0  0  0  0  0
    1.0271   11.1149    1.4318 H   0  0  0  0  0  0  0  0  0  0  0  0
   -0.2618    9.0697    1.9547 H   0  0  0  0  0  0  0  0  0  0  0  0
   -1.2903   10.4073    1.3077 H   0  0  0  0  0  0  0  0  0  0  0  0
   -1.9800    8.3454    0.2917 H   0  0  0  0  0  0  0  0  0  0  0  0
   -0.1720    7.3920   -1.1630 H   0  0  0  0  0  0  0  0  0  0  0  0
   -2.7378   10.5681   -0.1513 H   0  0  0  0  0  0  0  0  0  0  0  0
   -2.3326   11.3848   -1.6990 H   0  0  0  0  0  0  0  0  0  0  0  0
   -3.3957    9.9369   -1.6990 H   0  0  0  0  0  0  0  0  0  0  0  0
   -1.9825    7.5154   -1.9490 H   0  0  0  0  0  0  0  0  0  0  0  0
   -2.4751    8.8251   -3.0754 H   0  0  0  0  0  0  0  0  0  0  0  0
   -0.7799    8.2308   -3.0754 H   0  0  0  0  0  0  0  0  0  0  0  0
    3.2640   11.2026    0.2250 H   0  0  0  0  0  0  0  0  0  0  0  0
    2.9541   10.3357   -1.3174 H   0  0  0  0  0  0  0  0  0  0  0  0
    3.9160   11.8527   -1.3174 H   0  0  0  0  0  0  0  0  0  0  0  0
    1.4970   13.0656    0.9038 H   0  0  0  0  0  0  0  0  0  0  0  0
    2.9263   13.6828   -0.1018 H   0  0  0  0  0  0  0  0  0  0  0  0
    0.0100   14.4676   -0.3573 H   0  0  0  0  0  0  0  0  0  0  0  0
    1.4107   15.4837    0.1646 H   0  0  0  0  0  0  0  0  0  0  0  0
    3.3285   15.4641   -1.0569 H   0  0  0  0  0  0  0  0  0  0  0  0
    3.4024   14.5607   -2.6077 H   0  0  0  0  0  0  0  0  0  0  0  0
    3.0161   16.3150   -2.6077 H   0  0  0  0  0  0  0  0  0  0  0  0
  1  2  1  0
  2  3  1  0
  3  4  1  0
  4  5  1  0
  5  6  1  0
  6  7  1  0
  7  8  1  0
  7  9  1  0
  2 10  1  0
 10 11  1  0
 11 12  1  0
 12 13  1  0
 13 14  1  1
 13 15  1  0
 15 16  1  0
 16 17  1  0
 17 18  2  0
 18 19  1  0
 19 20  1  0
 20 21  1  0
 21 22  1  0
 22 23  1  0
 22 24  1  0
 24 25  1  0
 24 26  1  0
 19 27  1  0
 27 28  1  6
 27 29  1  0
 29 30  1  0
 30 31  1  0
 31 32  1  1
  7  5  1  0
 31 10  1  0
 31 13  1  0
 27 15  1  0
 24 18  1  0
  1 33  1  0
  1 34  1  0
  1 35  1  0
  2 36  1  6
  3 37  1  0
  3 38  1  0
  4 39  1  0
  4 40  1  0
  5 41  1  1
  8 42  1  0
  8 43  1  0
  8 44  1  0
  9 45  1  0
  9 46  1  0
  9 47  1  0
 10 48  1  1
 11 49  1  0
 11 50  1  0
 12 51  1  0
 12 52  1  0
 14 53  1  0
 14 54  1  0
 14 55  1  0
 15 56  1  6
 16 57  1  0
 16 58  1  0
 17 59  1  0
 19 60  1  1
 20 61  1  0
 20 62  1  0
 21 63  1  0
 21 64  1  0
 22 65  1  1
 23 66  1  0
 25 67  1  0
 25 68  1  0
 25 69  1  0
 26 70  1  0
 26 71  1  0
 26 72  1  0
 28 73  1  0
 28 74  1  0
 28 75  1  0
 29 76  1  0
 29 77  1  0
 30 78  1  0
 30 79  1  0
 32 80  1  0
 32 81  1  0
 32 82  1  0
M  END
>  <meeko>  (3) 
{"is_sidechain": [false], "intermolecular_energy": 2.731, "internal_energy": -0.839}

$$$$
EPH_relaxed_0001_pdb2pqr_Repair_78_r2_0001_out
     RDKit          3D

 82 86  0  0  0  0  0  0  0  0999 V2000
    2.2190   17.9970   -2.5420 C   0  0  0  0  0  0  0  0  0  0  0  0
    0.6970   17.8510   -2.6260 C   0  0  2  0  0  0  0  0  0  0  0  0
   -0.0040   18.3240   -1.3360 C   0  0  0  0  0  0  0  0  0  0  0  0
    0.7280   17.9190   -0.0540 C   0  0  0  0  0  0  0  0  0  0  0  0
    1.2780   19.1100    0.6700 C   0  0  2  0  0  0  0  0  0  0  0  0
    2.1720   19.9210   -0.1030 O   0  0  0  0  0  0  0  0  0  0  0  0
    2.7420   19.2620    1.0400 C   0  0  0  0  0  0  0  0  0  0  0  0
    3.7470   18.2080    0.6970 C   0  0  0  0  0  0  0  0  0  0  0  0
    3.1050   20.1940    2.1530 C   0  0  0  0  0  0  0  0  0  0  0  0
    0.3280   16.4010   -2.9180 C   0  0  1  0  0  0  0  0  0  0  0  0
    0.4080   16.0570   -4.4290 C   0  0  0  0  0  0  0  0  0  0  0  0
    0.8960   14.5890   -4.5280 C   0  0  0  0  0  0  0  0  0  0  0  0
    0.7630   14.0360   -3.0900 C   0  0  1  0  0  0  0  0  0  0  0  0
   -0.7440   13.6570   -2.9440 C   0  0  0  0  0  0  0  0  0  0  0  0
    1.6980   12.8370   -2.7210 C   0  0  2  0  0  0  0  0  0  0  0  0
    1.4730   11.5570   -3.5450 C   0  0  0  0  0  0  0  0  0  0  0  0
    0.4830   10.5970   -2.9720 C   0  0  0  0  0  0  0  0  0  0  0  0
    0.0150   10.6150   -1.7100 C   0  0  0  0  0  0  0  0  0  0  0  0
    0.5580   11.6180   -0.6840 C   0  0  1  0  0  0  0  0  0  0  0  0
    0.8630   10.8810    0.6470 C   0  0  0  0  0  0  0  0  0  0  0  0
   -0.3370   10.1000    1.1730 C   0  0  0  0  0  0  0  0  0  0  0  0
   -0.8110    9.0740    0.1470 C   0  0  2  0  0  0  0  0  0  0  0  0
    0.2000    8.0720   -0.0050 O   0  0  0  0  0  0  0  0  0  0  0  0
   -1.1400    9.6980   -1.2380 C   0  0  0  0  0  0  0  0  0  0  0  0
   -2.4270   10.5530   -1.1310 C   0  0  0  0  0  0  0  0  0  0  0  0
   -1.4690    8.5400   -2.2180 C   0  0  0  0  0  0  0  0  0  0  0  0
    1.7690   12.5240   -1.1720 C   0  0  1  0  0  0  0  0  0  0  0  0
    3.1190   11.7830   -0.9290 C   0  0  0  0  0  0  0  0  0  0  0  0
    1.8170   13.8320   -0.2980 C   0  0  0  0  0  0  0  0  0  0  0  0
    0.9640   15.0220   -0.7800 C   0  0  0  0  0  0  0  0  0  0  0  0
    1.2030   15.3010   -2.2670 C   0  0  2  0  0  0  0  0  0  0  0  0
    2.7070   15.7060   -2.4420 C   0  0  0  0  0  0  0  0  0  0  0  0
    2.5268   18.0265   -1.4864 H   0  0  0  0  0  0  0  0  0  0  0  0
    2.6975   17.1406   -3.0397 H   0  0  0  0  0  0  0  0  0  0  0  0
    2.5260   18.9287   -3.0397 H   0  0  0  0  0  0  0  0  0  0  0  0
    0.3482   18.4951   -3.4466 H   0  0  0  0  0  0  0  0  0  0  0  0
   -0.0767   19.4213   -1.3626 H   0  0  0  0  0  0  0  0  0  0  0  0
   -0.9908   17.8386   -1.3098 H   0  0  0  0  0  0  0  0  0  0  0  0
    0.0238   17.3935    0.6077 H   0  0  0  0  0  0  0  0  0  0  0  0
    1.5698   17.2673   -0.3311 H   0  0  0  0  0  0  0  0  0  0  0  0
    0.3541   19.2075    1.2590 H   0  0  0  0  0  0  0  0  0  0  0  0
    4.1574   17.7776    1.6224 H   0  0  0  0  0  0  0  0  0  0  0  0
    3.2612   17.4159    0.1082 H   0  0  0  0  0  0  0  0  0  0  0  0
    4.5613   18.6555    0.1082 H   0  0  0  0  0  0  0  0  0  0  0  0
    2.9140   19.7036    3.1189 H   0  0  0  0  0  0  0  0  0  0  0  0
    4.1708   20.4558    2.0791 H   0  0  0  0  0  0  0  0  0  0  0  0
    2.4970   21.1077    2.0791 H   0  0  0  0  0  0  0  0  0  0  0  0
   -0.6854   16.3782   -2.4908 H   0  0  0  0  0  0  0  0  0  0  0  0
   -0.5838   16.1587   -4.8937 H   0  0  0  0  0  0  0  0  0  0  0  0
    1.0947   16.7378   -4.9533 H   0  0  0  0  0  0  0  0  0  0  0  0
    0.2656   14.0163   -5.2242 H   0  0  0  0  0  0  0  0  0  0  0  0
    1.9252   14.5163   -4.9094 H   0  0  0  0  0  0  0  0  0  0  0  0
   -1.0039   13.5916   -1.8772 H   0  0  0  0  0  0  0  0  0  0  0  0
   -1.3641   14.4272   -3.4260 H   0  0  0  0  0  0  0  0  0  0  0  0
   -0.9260   12.6851   -3.4260 H   0  0  0  0  0  0  0  0  0  0  0  0
    2.6897   13.2106   -3.0160 H   0  0  0  0  0  0  0  0  0  0  0  0
    1.1207   11.8531   -4.5441 H   0  0  0  0  0  0  0  0  0  0  0  0
    2.4378   11.0289   -3.5576 H   0  0  0  0  0  0  0  0  0  0  0  0
    0.1039    9.8079   -3.6380 H   0  0  0  0  0  0  0  0  0  0  0  0
   -0.2417   12.3569   -0.5278 H   0  0  0  0  0  0  0  0  0  0  0  0
    1.6937   10.1797    0.4791 H   0  0  0  0  0  0  0  0  0  0  0  0
    1.1204   11.6423    1.3981 H   0  0  0  0  0  0  0  0  0  0  0  0
   -0.0499    9.5783    2.0979 H   0  0  0  0  0  0  0  0  0  0  0  0
   -1.1574   10.8060    1.3691 H   0  0  0  0  0  0  0  0  0  0  0  0
   -1.7479    8.6392    0.5253 H   0  0  0  0  0  0  0  0  0  0  0  0
    0.8780    8.2340    0.6730 H   0  0  0  0  0  0  0  0  0  0  0  0
   -2.6720   10.7158   -0.0711 H   0  0  0  0  0  0  0  0  0  0  0  0
   -2.2645   11.5233   -1.6230 H   0  0  0  0  0  0  0  0  0  0  0  0
   -3.2585   10.0271   -1.6230 H   0  0  0  0  0  0  0  0  0  0  0  0
   -1.7256    7.6367   -1.6452 H   0  0  0  0  0  0  0  0  0  0  0  0
   -2.3212    8.8268   -2.8516 H   0  0  0  0  0  0  0  0  0  0  0  0
   -0.5933    8.3359   -2.8516 H   0  0  0  0  0  0  0  0  0  0  0  0
    3.2948   11.6865    0.1526 H   0  0  0  0  0  0  0  0  0  0  0  0
    3.0752   10.7825   -1.3841 H   0  0  0  0  0  0  0  0  0  0  0  0
    3.9395   12.3572   -1.3841 H   0  0  0  0  0  0  0  0  0  0  0  0
    1.4780   13.5681    0.7146 H   0  0  0  0  0  0  0  0  0  0  0  0
    2.8584   14.1810   -0.3594 H   0  0  0  0  0  0  0  0  0  0  0  0
   -0.0996   14.7889   -0.6240 H   0  0  0  0  0  0  0  0  0  0  0  0
    1.2508   15.9148   -0.2050 H   0  0  0  0  0  0  0  0  0  0  0  0
    3.1706   15.8309   -1.4523 H   0  0  0  0  0  0  0  0  0  0  0  0
    3.2365   14.9184   -2.9982 H   0  0  0  0  0  0  0  0  0  0  0  0
    2.7694   16.6529   -2.9982 H   0  0  0  0  0  0  0  0  0  0  0  0
  1  2  1  0
  2  3  1  0
  3  4  1  0
  4  5  1  0
  5  6  1  0
  6  7  1  0
  7  8  1  0
  7  9  1  0
  2 10  1  0
 10 11  1  0
 11 12  1  0
 12 13  1  0
 13 14  1  1
 13 15  1  0
 15 16  1  0
 16 17  1  0
 17 18  2  0
 18 19  1  0
 19 20  1  0
 20 21  1  0
 21 22  1  0
 22 23  1  0
 22 24  1  0
 24 25  1  0
 24 26  1  0
 19 27  1  0
 27 28  1  6
 27 29  1  0
 29 30  1  0
 30 31  1  0
 31 32  1  1
  7  5  1  0
 31 10  1  0
 31 13  1  0
 27 15  1  0
 24 18  1  0
  1 33  1  0
  1 34  1  0
  1 35  1  0
  2 36  1  6
  3 37  1  0
  3 38  1  0
  4 39  1  0
  4 40  1  0
  5 41  1  1
  8 42  1  0
  8 43  1  0
  8 44  1  0
  9 45  1  0
  9 46  1  0
  9 47  1  0
 10 48  1  1
 11 49  1  0
 11 50  1  0
 12 51  1  0
 12 52  1  0
 14 53  1  0
 14 54  1  0
 14 55  1  0
 15 56  1  6
 16 57  1  0
 16 58  1  0
 17 59  1  0
 19 60  1  1
 20 61  1  0
 20 62  1  0
 21 63  1  0
 21 64  1  0
 22 65  1  1
 23 66  1  0
 25 67  1  0
 25 68  1  0
 25 69  1  0
 26 70  1  0
 26 71  1  0
 26 72  1  0
 28 73  1  0
 28 74  1  0
 28 75  1  0
 29 76  1  0
 29 77  1  0
 30 78  1  0
 30 79  1  0
 32 80  1  0
 32 81  1  0
 32 82  1  0
M  END
>  <meeko>  (4) 
{"is_sidechain": [false], "intermolecular_energy": 2.731, "internal_energy": -0.839}

$$$$
EPH_relaxed_0001_pdb2pqr_Repair_78_r2_0001_out
     RDKit          3D

 82 86  0  0  0  0  0  0  0  0999 V2000
    3.6570   17.6010    0.5750 C   0  0  0  0  0  0  0  0  0  0  0  0
    2.7340   17.8450   -0.6220 C   0  0  2  0  0  0  0  0  0  0  0  0
    2.0690   19.2350   -0.5680 C   0  0  0  0  0  0  0  0  0  0  0  0
    1.2290   19.4680    0.6910 C   0  0  0  0  0  0  0  0  0  0  0  0
   -0.0900   20.1020    0.3690 C   0  0  2  0  0  0  0  0  0  0  0  0
   -0.9970   20.1910    1.4750 O   0  0  0  0  0  0  0  0  0  0  0  0
   -1.4070   19.3480    0.3860 C   0  0  0  0  0  0  0  0  0  0  0  0
   -1.4690   17.8940    0.7330 C   0  0  0  0  0  0  0  0  0  0  0  0
   -2.5550   19.8960   -0.4020 C   0  0  0  0  0  0  0  0  0  0  0  0
    1.6660   16.7590   -0.6850 C   0  0  1  0  0  0  0  0  0  0  0  0
    0.3560   17.2480   -1.3590 C   0  0  0  0  0  0  0  0  0  0  0  0
   -0.2220   16.0400   -2.1400 C   0  0  0  0  0  0  0  0  0  0  0  0
    0.5820   14.8220   -1.6270 C   0  0  1  0  0  0  0  0  0  0  0  0
   -0.0960   14.4340   -0.2770 C   0  0  0  0  0  0  0  0  0  0  0  0
    0.6790   13.6000   -2.5970 C   0  0  2  0  0  0  0  0  0  0  0  0
   -0.6640   12.9330   -2.9430 C   0  0  0  0  0  0  0  0  0  0  0  0
   -1.0770   11.8220   -2.0350 C   0  0  0  0  0  0  0  0  0  0  0  0
   -0.2740   11.1880   -1.1600 C   0  0  0  0  0  0  0  0  0  0  0  0
    1.2240   11.5090   -1.0900 C   0  0  1  0  0  0  0  0  0  0  0  0
    2.0350   10.1870   -1.0530 C   0  0  0  0  0  0  0  0  0  0  0  0
    1.5850    9.2560    0.0680 C   0  0  0  0  0  0  0  0  0  0  0  0
    0.1040    8.9130   -0.0690 C   0  0  2  0  0  0  0  0  0  0  0  0
   -0.0800    8.1280   -1.2510 O   0  0  0  0  0  0  0  0  0  0  0  0
   -0.8120   10.1670   -0.1270 C   0  0  0  0  0  0  0  0  0  0  0  0
   -0.8440   10.8530    1.2620 C   0  0  0  0  0  0  0  0  0  0  0  0
   -2.2620    9.6870   -0.4080 C   0  0  0  0  0  0  0  0  0  0  0  0
    1.7670   12.5280   -2.1830 C   0  0  1  0  0  0  0  0  0  0  0  0
    2.1520   11.7580   -3.4830 C   0  0  0  0  0  0  0  0  0  0  0  0
    3.0910   13.1940   -1.6520 C   0  0  0  0  0  0  0  0  0  0  0  0
    2.9350   14.4670   -0.7980 C   0  0  0  0  0  0  0  0  0  0  0  0
    2.0050   15.4740   -1.4820 C   0  0  2  0  0  0  0  0  0  0  0  0
    2.6730   15.9010   -2.8340 C   0  0  0  0  0  0  0  0  0  0  0  0
    3.0942   17.7498    1.5083 H   0  0  0  0  0  0  0  0  0  0  0  0
    4.0404   16.5706    0.5383 H   0  0  0  0  0  0  0  0  0  0  0  0
    4.4995   18.3073    0.5383 H   0  0  0  0  0  0  0  0  0  0  0  0
    3.3536   17.8101   -1.5302 H   0  0  0  0  0  0  0  0  0  0  0  0
    2.8591   19.9994   -0.6045 H   0  0  0  0  0  0  0  0  0  0  0  0
    1.3844   19.2970   -1.4268 H   0  0  0  0  0  0  0  0  0  0  0  0
    1.0488   18.5009    1.1831 H   0  0  0  0  0  0  0  0  0  0  0  0
    1.7844   20.1497    1.3519 H   0  0  0  0  0  0  0  0  0  0  0  0
    0.3791   20.7506   -0.3855 H   0  0  0  0  0  0  0  0  0  0  0  0
   -1.4739   17.7780    1.8269 H   0  0  0  0  0  0  0  0  0  0  0  0
   -2.3866   17.4558    0.3136 H   0  0  0  0  0  0  0  0  0  0  0  0
   -0.5920   17.3792    0.3136 H   0  0  0  0  0  0  0  0  0  0  0  0
   -3.3292   20.2655    0.2866 H   0  0  0  0  0  0  0  0  0  0  0  0
   -2.2030   20.7232   -1.0359 H   0  0  0  0  0  0  0  0  0  0  0  0
   -2.9768   19.1021   -1.0359 H   0  0  0  0  0  0  0  0  0  0  0  0
    1.5770   16.5250    0.3861 H   0  0  0  0  0  0  0  0  0  0  0  0
   -0.3609   17.5834   -0.5951 H   0  0  0  0  0  0  0  0  0  0  0  0
    0.5502   18.0969   -2.0311 H   0  0  0  0  0  0  0  0  0  0  0  0
   -1.2937   15.9159   -1.9255 H   0  0  0  0  0  0  0  0  0  0  0  0
   -0.1356   16.1678   -3.2291 H   0  0  0  0  0  0  0  0  0  0  0  0
    0.5237   14.7886    0.5598 H   0  0  0  0  0  0  0  0  0  0  0  0
   -1.0910   14.8994   -0.2193 H   0  0  0  0  0  0  0  0  0  0  0  0
   -0.1988   13.3403   -0.2193 H   0  0  0  0  0  0  0  0  0  0  0  0
    1.0297   14.0668   -3.5293 H   0  0  0  0  0  0  0  0  0  0  0  0
   -1.4457   13.7063   -2.9113 H   0  0  0  0  0  0  0  0  0  0  0  0
   -0.5319   12.4805   -3.9369 H   0  0  0  0  0  0  0  0  0  0  0  0
   -2.1257   11.4939   -2.0852 H   0  0  0  0  0  0  0  0  0  0  0  0
    1.3727   12.0649   -0.1525 H   0  0  0  0  0  0  0  0  0  0  0  0
    1.9078    9.6682   -2.0146 H   0  0  0  0  0  0  0  0  0  0  0  0
    3.0881   10.4464   -0.8691 H   0  0  0  0  0  0  0  0  0  0  0  0
    2.1748    8.3285    0.0242 H   0  0  0  0  0  0  0  0  0  0  0  0
    1.7398    9.7653    1.0306 H   0  0  0  0  0  0  0  0  0  0  0  0
   -0.1892    8.3515    0.8303 H   0  0  0  0  0  0  0  0  0  0  0  0
    0.2180    7.2240   -1.0540 H   0  0  0  0  0  0  0  0  0  0  0  0
   -0.8083   10.0867    2.0503 H   0  0  0  0  0  0  0  0  0  0  0  0
    0.0239   11.5215    1.3609 H   0  0  0  0  0  0  0  0  0  0  0  0
   -1.7704   11.4378    1.3609 H   0  0  0  0  0  0  0  0  0  0  0  0
   -2.7825    9.5147    0.5456 H   0  0  0  0  0  0  0  0  0  0  0  0
   -2.7975   10.4558   -0.9843 H   0  0  0  0  0  0  0  0  0  0  0  0
   -2.2330    8.7505   -0.9843 H   0  0  0  0  0  0  0  0  0  0  0  0
    2.6292   10.8035   -3.2161 H   0  0  0  0  0  0  0  0  0  0  0  0
    1.2459   11.5620   -4.0750 H   0  0  0  0  0  0  0  0  0  0  0  0
    2.8525   12.3653   -4.0750 H   0  0  0  0  0  0  0  0  0  0  0  0
    3.6178   12.4461   -1.0411 H   0  0  0  0  0  0  0  0  0  0  0  0
    3.6320   13.5171   -2.5536 H   0  0  0  0  0  0  0  0  0  0  0  0
    2.5133   14.1946    0.1807 H   0  0  0  0  0  0  0  0  0  0  0  0
    3.9248   14.9306   -0.6745 H   0  0  0  0  0  0  0  0  0  0  0  0
    3.5831   16.4827   -2.6257 H   0  0  0  0  0  0  0  0  0  0  0  0
    2.9361   15.0032   -3.4126 H   0  0  0  0  0  0  0  0  0  0  0  0
    1.9687   16.5167   -3.4126 H   0  0  0  0  0  0  0  0  0  0  0  0
  1  2  1  0
  2  3  1  0
  3  4  1  0
  4  5  1  0
  5  6  1  0
  6  7  1  0
  7  8  1  0
  7  9  1  0
  2 10  1  0
 10 11  1  0
 11 12  1  0
 12 13  1  0
 13 14  1  1
 13 15  1  0
 15 16  1  0
 16 17  1  0
 17 18  2  0
 18 19  1  0
 19 20  1  0
 20 21  1  0
 21 22  1  0
 22 23  1  0
 22 24  1  0
 24 25  1  0
 24 26  1  0
 19 27  1  0
 27 28  1  6
 27 29  1  0
 29 30  1  0
 30 31  1  0
 31 32  1  6
  7  5  1  0
 31 10  1  0
 31 13  1  0
 27 15  1  0
 24 18  1  0
  1 33  1  0
  1 34  1  0
  1 35  1  0
  2 36  1  6
  3 37  1  0
  3 38  1  0
  4 39  1  0
  4 40  1  0
  5 41  1  6
  8 42  1  0
  8 43  1  0
  8 44  1  0
  9 45  1  0
  9 46  1  0
  9 47  1  0
 10 48  1  1
 11 49  1  0
 11 50  1  0
 12 51  1  0
 12 52  1  0
 14 53  1  0
 14 54  1  0
 14 55  1  0
 15 56  1  6
 16 57  1  0
 16 58  1  0
 17 59  1  0
 19 60  1  1
 20 61  1  0
 20 62  1  0
 21 63  1  0
 21 64  1  0
 22 65  1  1
 23 66  1  0
 25 67  1  0
 25 68  1  0
 25 69  1  0
 26 70  1  0
 26 71  1  0
 26 72  1  0
 28 73  1  0
 28 74  1  0
 28 75  1  0
 29 76  1  0
 29 77  1  0
 30 78  1  0
 30 79  1  0
 32 80  1  0
 32 81  1  0
 32 82  1  0
M  END
>  <meeko>  (5) 
{"is_sidechain": [false], "intermolecular_energy": 2.731, "internal_energy": -0.839}

$$$$
EPH_relaxed_0001_pdb2pqr_Repair_78_r2_0001_out
     RDKit          3D

 82 86  0  0  0  0  0  0  0  0999 V2000
   -5.1520    5.9310   -1.4900 C   0  0  0  0  0  0  0  0  0  0  0  0
   -5.4200    7.4210   -1.7220 C   0  0  2  0  0  0  0  0  0  0  0  0
   -5.1670    8.2600   -0.4530 C   0  0  0  0  0  0  0  0  0  0  0  0
   -4.1540    9.3910   -0.6550 C   0  0  0  0  0  0  0  0  0  0  0  0
   -2.7570    8.9460   -0.3430 C   0  0  2  0  0  0  0  0  0  0  0  0
   -2.1090    9.6920    0.6950 O   0  0  0  0  0  0  0  0  0  0  0  0
   -1.5290    9.7930   -0.6150 C   0  0  0  0  0  0  0  0  0  0  0  0
   -1.6400   11.1550   -1.2270 C   0  0  0  0  0  0  0  0  0  0  0  0
   -0.2030    9.1110   -0.7420 C   0  0  0  0  0  0  0  0  0  0  0  0
   -6.8520    7.6230   -2.2030 C   0  0  1  0  0  0  0  0  0  0  0  0
   -7.1370    6.9040   -3.5490 C   0  0  0  0  0  0  0  0  0  0  0  0
   -8.6060    6.4140   -3.4920 C   0  0  0  0  0  0  0  0  0  0  0  0
   -9.2150    7.1470   -2.2730 C   0  0  1  0  0  0  0  0  0  0  0  0
   -9.5770    8.5710   -2.8010 C   0  0  0  0  0  0  0  0  0  0  0  0
  -10.4400    6.4550   -1.5910 C   0  0  2  0  0  0  0  0  0  0  0  0
  -11.6830    6.3020   -2.4850 C   0  0  0  0  0  0  0  0  0  0  0  0
  -12.6510    7.4370   -2.4310 C   0  0  0  0  0  0  0  0  0  0  0  0
  -12.6760    8.4000   -1.4910 C   0  0  0  0  0  0  0  0  0  0  0  0
  -11.7230    8.3520   -0.2890 C   0  0  1  0  0  0  0  0  0  0  0  0
  -12.5160    8.6420    1.0120 C   0  0  0  0  0  0  0  0  0  0  0  0
  -13.3000    9.9480    0.9410 C   0  0  0  0  0  0  0  0  0  0  0  0
  -14.2780    9.9340   -0.2310 C   0  0  2  0  0  0  0  0  0  0  0  0
  -15.2870    8.9510    0.0220 O   0  0  0  0  0  0  0  0  0  0  0  0
  -13.5940    9.6420   -1.5960 C   0  0  0  0  0  0  0  0  0  0  0  0
  -12.7260   10.8550   -2.0130 C   0  0  0  0  0  0  0  0  0  0  0  0
  -14.7080    9.5160   -2.6710 C   0  0  0  0  0  0  0  0  0  0  0  0
  -10.8160    7.0520   -0.1750 C   0  0  1  0  0  0  0  0  0  0  0  0
  -11.5850    5.9320    0.5900 C   0  0  0  0  0  0  0  0  0  0  0  0
   -9.5440    7.3870    0.6900 C   0  0  0  0  0  0  0  0  0  0  0  0
   -8.3240    7.9570   -0.0590 C   0  0  0  0  0  0  0  0  0  0  0  0
   -7.9900    7.1060   -1.2880 C   0  0  2  0  0  0  0  0  0  0  0  0
   -7.5990    5.6740   -0.7870 C   0  0  0  0  0  0  0  0  0  0  0  0
   -5.1157    5.7289   -0.4093 H   0  0  0  0  0  0  0  0  0  0  0  0
   -5.9579    5.3380   -1.9470 H   0  0  0  0  0  0  0  0  0  0  0  0
   -4.1900    5.6560   -1.9470 H   0  0  0  0  0  0  0  0  0  0  0  0
   -4.7167    7.7679   -2.4934 H   0  0  0  0  0  0  0  0  0  0  0  0
   -6.1220    8.7021   -0.1328 H   0  0  0  0  0  0  0  0  0  0  0  0
   -4.7448    7.5811    0.3026 H   0  0  0  0  0  0  0  0  0  0  0  0
   -4.1964    9.7247   -1.7023 H   0  0  0  0  0  0  0  0  0  0  0  0
   -4.4140   10.2109    0.0307 H   0  0  0  0  0  0  0  0  0  0  0  0
   -3.0066    7.9054   -0.5977 H   0  0  0  0  0  0  0  0  0  0  0  0
   -1.7016   11.9110   -0.4304 H   0  0  0  0  0  0  0  0  0  0  0  0
   -0.7548   11.3502   -1.8501 H   0  0  0  0  0  0  0  0  0  0  0  0
   -2.5451   11.2043   -1.8501 H   0  0  0  0  0  0  0  0  0  0  0  0
    0.2002    8.9036    0.2602 H   0  0  0  0  0  0  0  0  0  0  0  0
   -0.3280    8.1653   -1.2898 H   0  0  0  0  0  0  0  0  0  0  0  0
    0.4936    9.7627   -1.2898 H   0  0  0  0  0  0  0  0  0  0  0  0
   -6.8772    8.7217   -2.2494 H   0  0  0  0  0  0  0  0  0  0  0  0
   -7.0032    7.6031   -4.3876 H   0  0  0  0  0  0  0  0  0  0  0  0
   -6.4455    6.0621   -3.7012 H   0  0  0  0  0  0  0  0  0  0  0  0
   -9.1413    6.6835   -4.4144 H   0  0  0  0  0  0  0  0  0  0  0  0
   -8.6776    5.3202   -3.3995 H   0  0  0  0  0  0  0  0  0  0  0  0
   -9.7484    9.2453   -1.9490 H   0  0  0  0  0  0  0  0  0  0  0  0
   -8.7484    8.9568   -3.4130 H   0  0  0  0  0  0  0  0  0  0  0  0
  -10.4893    8.5142   -3.4130 H   0  0  0  0  0  0  0  0  0  0  0  0
  -10.0688    5.4341   -1.4179 H   0  0  0  0  0  0  0  0  0  0  0  0
  -11.3423    6.1951   -3.5254 H   0  0  0  0  0  0  0  0  0  0  0  0
  -12.2240    5.4224   -2.1059 H   0  0  0  0  0  0  0  0  0  0  0  0
  -13.4082    7.4910   -3.2271 H   0  0  0  0  0  0  0  0  0  0  0  0
  -10.9801    9.1455   -0.4575 H   0  0  0  0  0  0  0  0  0  0  0  0
  -13.2216    7.8163    1.1861 H   0  0  0  0  0  0  0  0  0  0  0  0
  -11.7890    8.7336    1.8324 H   0  0  0  0  0  0  0  0  0  0  0  0
  -13.8618   10.0820    1.8772 H   0  0  0  0  0  0  0  0  0  0  0  0
  -12.5905   10.7761    0.7964 H   0  0  0  0  0  0  0  0  0  0  0  0
  -14.7149   10.9405   -0.3082 H   0  0  0  0  0  0  0  0  0  0  0  0
  -14.8370    8.1240    0.2630 H   0  0  0  0  0  0  0  0  0  0  0  0
  -12.3580   11.3693   -1.1129 H   0  0  0  0  0  0  0  0  0  0  0  0
  -11.8713   10.5060   -2.6111 H   0  0  0  0  0  0  0  0  0  0  0  0
  -13.3322   11.5513   -2.6111 H   0  0  0  0  0  0  0  0  0  0  0  0
  -15.6842    9.4056   -2.1762 H   0  0  0  0  0  0  0  0  0  0  0  0
  -14.7153   10.4190   -3.2991 H   0  0  0  0  0  0  0  0  0  0  0  0
  -14.5134    8.6341   -3.2991 H   0  0  0  0  0  0  0  0  0  0  0  0
  -11.4778    6.0881    1.6736 H   0  0  0  0  0  0  0  0  0  0  0  0
  -12.6503    5.9672    0.3181 H   0  0  0  0  0  0  0  0  0  0  0  0
  -11.1694    4.9505    0.3181 H   0  0  0  0  0  0  0  0  0  0  0  0
   -9.8428    8.1249    1.4491 H   0  0  0  0  0  0  0  0  0  0  0  0
   -9.2079    6.4204    1.0933 H   0  0  0  0  0  0  0  0  0  0  0  0
   -8.5478    8.9843   -0.3824 H   0  0  0  0  0  0  0  0  0  0  0  0
   -7.4589    7.9476    0.6204 H   0  0  0  0  0  0  0  0  0  0  0  0
   -7.5948    5.6588    0.3129 H   0  0  0  0  0  0  0  0  0  0  0  0
   -8.3302    4.9423   -1.1611 H   0  0  0  0  0  0  0  0  0  0  0  0
   -6.5974    5.4155   -1.1611 H   0  0  0  0  0  0  0  0  0  0  0  0
  1  2  1  0
  2  3  1  0
  3  4  1  0
  4  5  1  0
  5  6  1  0
  6  7  1  0
  7  8  1  0
  7  9  1  0
  2 10  1  0
 10 11  1  0
 11 12  1  0
 12 13  1  0
 13 14  1  6
 13 15  1  0
 15 16  1  0
 16 17  1  0
 17 18  2  0
 18 19  1  0
 19 20  1  0
 20 21  1  0
 21 22  1  0
 22 23  1  0
 22 24  1  0
 24 25  1  0
 24 26  1  0
 19 27  1  0
 27 28  1  1
 27 29  1  0
 29 30  1  0
 30 31  1  0
 31 32  1  1
  7  5  1  0
 31 10  1  0
 31 13  1  0
 27 15  1  0
 24 18  1  0
  1 33  1  0
  1 34  1  0
  1 35  1  0
  2 36  1  6
  3 37  1  0
  3 38  1  0
  4 39  1  0
  4 40  1  0
  5 41  1  1
  8 42  1  0
  8 43  1  0
  8 44  1  0
  9 45  1  0
  9 46  1  0
  9 47  1  0
 10 48  1  6
 11 49  1  0
 11 50  1  0
 12 51  1  0
 12 52  1  0
 14 53  1  0
 14 54  1  0
 14 55  1  0
 15 56  1  1
 16 57  1  0
 16 58  1  0
 17 59  1  0
 19 60  1  6
 20 61  1  0
 20 62  1  0
 21 63  1  0
 21 64  1  0
 22 65  1  6
 23 66  1  0
 25 67  1  0
 25 68  1  0
 25 69  1  0
 26 70  1  0
 26 71  1  0
 26 72  1  0
 28 73  1  0
 28 74  1  0
 28 75  1  0
 29 76  1  0
 29 77  1  0
 30 78  1  0
 30 79  1  0
 32 80  1  0
 32 81  1  0
 32 82  1  0
M  END
>  <meeko>  (6) 
{"is_sidechain": [false], "intermolecular_energy": 2.731, "internal_energy": -0.839}

$$$$
EPH_relaxed_0001_pdb2pqr_Repair_78_r2_0001_out
     RDKit          3D

 82 86  0  0  0  0  0  0  0  0999 V2000
    0.4530    8.8010   -2.3670 C   0  0  0  0  0  0  0  0  0  0  0  0
    1.1940    9.9450   -3.0650 C   0  0  2  0  0  0  0  0  0  0  0  0
    2.6940    9.9680   -2.7100 C   0  0  0  0  0  0  0  0  0  0  0  0
    3.5760   10.5770   -3.8030 C   0  0  0  0  0  0  0  0  0  0  0  0
    4.9730   10.8200   -3.3170 C   0  0  2  0  0  0  0  0  0  0  0  0
    5.5670   12.0370   -3.7870 O   0  0  0  0  0  0  0  0  0  0  0  0
    6.1880   10.8180   -4.2270 C   0  0  0  0  0  0  0  0  0  0  0  0
    6.0610   10.5670   -5.6970 C   0  0  0  0  0  0  0  0  0  0  0  0
    7.5350   10.5750   -3.6210 C   0  0  0  0  0  0  0  0  0  0  0  0
    0.5520   11.2790   -2.7000 C   0  0  1  0  0  0  0  0  0  0  0  0
   -0.8250   11.1090   -2.0060 C   0  0  0  0  0  0  0  0  0  0  0  0
   -0.9440   12.2500   -0.9630 C   0  0  0  0  0  0  0  0  0  0  0  0
    0.2050   13.2230   -1.3170 C   0  0  1  0  0  0  0  0  0  0  0  0
   -0.3450   14.0780   -2.5010 C   0  0  0  0  0  0  0  0  0  0  0  0
    0.7320   14.1220   -0.1510 C   0  0  2  0  0  0  0  0  0  0  0  0
   -0.3010   15.0980    0.4390 C   0  0  0  0  0  0  0  0  0  0  0  0
   -0.3460   16.4440   -0.2050 C   0  0  0  0  0  0  0  0  0  0  0  0
    0.5960   16.9540   -1.0200 C   0  0  0  0  0  0  0  0  0  0  0  0
    1.8990   16.1910   -1.2910 C   0  0  1  0  0  0  0  0  0  0  0  0
    3.1030   17.1600   -1.1600 C   0  0  0  0  0  0  0  0  0  0  0  0
    2.9570   18.3960   -2.0420 C   0  0  0  0  0  0  0  0  0  0  0  0
    1.6800   19.1600   -1.7020 C   0  0  2  0  0  0  0  0  0  0  0  0
    1.8030   19.7010   -0.3830 O   0  0  0  0  0  0  0  0  0  0  0  0
    0.4000   18.2830   -1.7900 C   0  0  0  0  0  0  0  0  0  0  0  0
    0.1000   17.9460   -3.2720 C   0  0  0  0  0  0  0  0  0  0  0  0
   -0.7970   19.1340   -1.2880 C   0  0  0  0  0  0  0  0  0  0  0  0
    2.1020   14.8490   -0.4630 C   0  0  1  0  0  0  0  0  0  0  0  0
    2.7600   15.1690    0.9140 C   0  0  0  0  0  0  0  0  0  0  0  0
    3.1120   13.9180   -1.2320 C   0  0  0  0  0  0  0  0  0  0  0  0
    2.5160   12.9680   -2.2870 C   0  0  0  0  0  0  0  0  0  0  0  0
    1.3240   12.1940   -1.7160 C   0  0  2  0  0  0  0  0  0  0  0  0
    1.8500   11.3070   -0.5360 C   0  0  0  0  0  0  0  0  0  0  0  0
    0.5326    8.9238   -1.2768 H   0  0  0  0  0  0  0  0  0  0  0  0
   -0.6067    8.8170   -2.6614 H   0  0  0  0  0  0  0  0  0  0  0  0
    0.9009    7.8404   -2.6614 H   0  0  0  0  0  0  0  0  0  0  0  0
    1.1142    9.7778   -4.1493 H   0  0  0  0  0  0  0  0  0  0  0  0
    2.8242   10.5573   -1.7903 H   0  0  0  0  0  0  0  0  0  0  0  0
    3.0112    8.9219   -2.5868 H   0  0  0  0  0  0  0  0  0  0  0  0
    3.6113    9.8865   -4.6585 H   0  0  0  0  0  0  0  0  0  0  0  0
    3.1414   11.5444   -4.0948 H   0  0  0  0  0  0  0  0  0  0  0  0
    4.7592   10.3016   -2.3707 H   0  0  0  0  0  0  0  0  0  0  0  0
    5.5700    9.5966   -5.8622 H   0  0  0  0  0  0  0  0  0  0  0  0
    5.4584   11.3654   -6.1546 H   0  0  0  0  0  0  0  0  0  0  0  0
    7.0612   10.5545   -6.1546 H   0  0  0  0  0  0  0  0  0  0  0  0
    7.4518   10.5900   -2.5243 H   0  0  0  0  0  0  0  0  0  0  0  0
    7.9121    9.5943   -3.9467 H   0  0  0  0  0  0  0  0  0  0  0  0
    8.2310   11.3621   -3.9467 H   0  0  0  0  0  0  0  0  0  0  0  0
    0.5147   11.7445   -3.6959 H   0  0  0  0  0  0  0  0  0  0  0  0
   -1.6346   11.1868   -2.7466 H   0  0  0  0  0  0  0  0  0  0  0  0
   -0.9055   10.1234   -1.5242 H   0  0  0  0  0  0  0  0  0  0  0  0
   -1.9187   12.7530   -1.0471 H   0  0  0  0  0  0  0  0  0  0  0  0
   -0.8738   11.8797    0.0704 H   0  0  0  0  0  0  0  0  0  0  0  0
   -0.8999   14.9406   -2.1036 H   0  0  0  0  0  0  0  0  0  0  0  0
    0.4940   14.4339   -3.1170 H   0  0  0  0  0  0  0  0  0  0  0  0
   -1.0167   13.4621   -3.1170 H   0  0  0  0  0  0  0  0  0  0  0  0
    0.9337   13.3866    0.6418 H   0  0  0  0  0  0  0  0  0  0  0  0
   -1.2964   14.6403    0.3401 H   0  0  0  0  0  0  0  0  0  0  0  0
    0.0031   15.2694    1.4821 H   0  0  0  0  0  0  0  0  0  0  0  0
   -1.2240   17.0727    0.0044 H   0  0  0  0  0  0  0  0  0  0  0  0
    1.8268   15.8233   -2.3252 H   0  0  0  0  0  0  0  0  0  0  0  0
    3.1838   17.4825   -0.1114 H   0  0  0  0  0  0  0  0  0  0  0  0
    4.0036   16.6201   -1.4877 H   0  0  0  0  0  0  0  0  0  0  0  0
    3.8236   19.0550   -1.8848 H   0  0  0  0  0  0  0  0  0  0  0  0
    2.9047   18.0740   -3.0925 H   0  0  0  0  0  0  0  0  0  0  0  0
    1.5649   19.9589   -2.4493 H   0  0  0  0  0  0  0  0  0  0  0  0
    0.9130   19.7320    0.0060 H   0  0  0  0  0  0  0  0  0  0  0  0
   -0.6307   17.1252   -3.3207 H   0  0  0  0  0  0  0  0  0  0  0  0
   -0.3120   18.8339   -3.7738 H   0  0  0  0  0  0  0  0  0  0  0  0
    1.0297   17.6396   -3.7738 H   0  0  0  0  0  0  0  0  0  0  0  0
   -0.8064   19.1407   -0.1881 H   0  0  0  0  0  0  0  0  0  0  0  0
   -0.6961   20.1642   -1.6601 H   0  0  0  0  0  0  0  0  0  0  0  0
   -1.7369   18.7002   -1.6601 H   0  0  0  0  0  0  0  0  0  0  0  0
    2.0911   14.8437    1.7244 H   0  0  0  0  0  0  0  0  0  0  0  0
    3.7193   14.6368    0.9945 H   0  0  0  0  0  0  0  0  0  0  0  0
    2.9337   16.2522    0.9945 H   0  0  0  0  0  0  0  0  0  0  0  0
    3.8401   14.5663   -1.7416 H   0  0  0  0  0  0  0  0  0  0  0  0
    3.5402   13.2599   -0.4616 H   0  0  0  0  0  0  0  0  0  0  0  0
    2.1809   13.5571   -3.1535 H   0  0  0  0  0  0  0  0  0  0  0  0
    3.2907   12.2474   -2.5880 H   0  0  0  0  0  0  0  0  0  0  0  0
    1.5748   11.7711    0.4225 H   0  0  0  0  0  0  0  0  0  0  0  0
    1.3997   10.3055   -0.6011 H   0  0  0  0  0  0  0  0  0  0  0  0
    2.9448   11.2217   -0.6011 H   0  0  0  0  0  0  0  0  0  0  0  0
  1  2  1  0
  2  3  1  0
  3  4  1  0
  4  5  1  0
  5  6  1  0
  6  7  1  0
  7  8  1  0
  7  9  1  0
  2 10  1  0
 10 11  1  0
 11 12  1  0
 12 13  1  0
 13 14  1  6
 13 15  1  0
 15 16  1  0
 16 17  1  0
 17 18  2  0
 18 19  1  0
 19 20  1  0
 20 21  1  0
 21 22  1  0
 22 23  1  0
 22 24  1  0
 24 25  1  0
 24 26  1  0
 19 27  1  0
 27 28  1  1
 27 29  1  0
 29 30  1  0
 30 31  1  0
 31 32  1  1
  7  5  1  0
 31 10  1  0
 31 13  1  0
 27 15  1  0
 24 18  1  0
  1 33  1  0
  1 34  1  0
  1 35  1  0
  2 36  1  6
  3 37  1  0
  3 38  1  0
  4 39  1  0
  4 40  1  0
  5 41  1  1
  8 42  1  0
  8 43  1  0
  8 44  1  0
  9 45  1  0
  9 46  1  0
  9 47  1  0
 10 48  1  6
 11 49  1  0
 11 50  1  0
 12 51  1  0
 12 52  1  0
 14 53  1  0
 14 54  1  0
 14 55  1  0
 15 56  1  1
 16 57  1  0
 16 58  1  0
 17 59  1  0
 19 60  1  6
 20 61  1  0
 20 62  1  0
 21 63  1  0
 21 64  1  0
 22 65  1  6
 23 66  1  0
 25 67  1  0
 25 68  1  0
 25 69  1  0
 26 70  1  0
 26 71  1  0
 26 72  1  0
 28 73  1  0
 28 74  1  0
 28 75  1  0
 29 76  1  0
 29 77  1  0
 30 78  1  0
 30 79  1  0
 32 80  1  0
 32 81  1  0
 32 82  1  0
M  END
>  <meeko>  (7) 
{"is_sidechain": [false], "intermolecular_energy": 2.731, "internal_energy": -0.839}

$$$$
EPH_relaxed_0001_pdb2pqr_Repair_78_r2_0001_out
     RDKit          3D

 82 86  0  0  0  0  0  0  0  0999 V2000
   -0.8850   16.3660   -5.8390 C   0  0  0  0  0  0  0  0  0  0  0  0
    0.2010   15.6660   -6.6600 C   0  0  2  0  0  0  0  0  0  0  0  0
   -0.2100   15.4890   -8.1360 C   0  0  0  0  0  0  0  0  0  0  0  0
    0.4390   16.5030   -9.0810 C   0  0  0  0  0  0  0  0  0  0  0  0
    1.8450   16.1160   -9.4280 C   0  0  2  0  0  0  0  0  0  0  0  0
    2.3360   16.6770  -10.6520 O   0  0  0  0  0  0  0  0  0  0  0  0
    2.2050   15.2460  -10.6180 C   0  0  0  0  0  0  0  0  0  0  0  0
    1.1530   14.7090  -11.5380 C   0  0  0  0  0  0  0  0  0  0  0  0
    3.5140   14.5210  -10.6040 C   0  0  0  0  0  0  0  0  0  0  0  0
    0.5250   14.3100   -6.0440 C   0  0  1  0  0  0  0  0  0  0  0  0
    1.7740   13.6460   -6.6830 C   0  0  0  0  0  0  0  0  0  0  0  0
    2.5000   12.8760   -5.5500 C   0  0  0  0  0  0  0  0  0  0  0  0
    1.4810   12.8430   -4.3860 C   0  0  1  0  0  0  0  0  0  0  0  0
    0.5120   11.6700   -4.7340 C   0  0  0  0  0  0  0  0  0  0  0  0
    2.0790   12.6910   -2.9490 C   0  0  2  0  0  0  0  0  0  0  0  0
    2.8470   11.3820   -2.6970 C   0  0  0  0  0  0  0  0  0  0  0  0
    2.0250   10.2520   -2.1710 C   0  0  0  0  0  0  0  0  0  0  0  0
    0.7920   10.3610   -1.6430 C   0  0  0  0  0  0  0  0  0  0  0  0
    0.1390   11.7350   -1.4450 C   0  0  1  0  0  0  0  0  0  0  0  0
   -0.4810   11.8150   -0.0250 C   0  0  0  0  0  0  0  0  0  0  0  0
   -1.4430   10.6650    0.2590 C   0  0  0  0  0  0  0  0  0  0  0  0
   -0.7420    9.3180    0.1090 C   0  0  2  0  0  0  0  0  0  0  0  0
    0.2430    9.1930    1.1400 O   0  0  0  0  0  0  0  0  0  0  0  0
   -0.0710    9.1270   -1.2800 C   0  0  0  0  0  0  0  0  0  0  0  0
   -1.1620    8.9610   -2.3670 C   0  0  0  0  0  0  0  0  0  0  0  0
    0.7190    7.7910   -1.2500 C   0  0  0  0  0  0  0  0  0  0  0  0
    1.0510   12.9920   -1.7840 C   0  0  1  0  0  0  0  0  0  0  0  0
    1.8960   13.3880   -0.5360 C   0  0  0  0  0  0  0  0  0  0  0  0
    0.1270   14.2260   -2.1050 C   0  0  0  0  0  0  0  0  0  0  0  0
   -0.3330   14.3880   -3.5670 C   0  0  0  0  0  0  0  0  0  0  0  0
    0.8530   14.2770   -4.5300 C   0  0  2  0  0  0  0  0  0  0  0  0
    1.8350   15.4580   -4.2180 C   0  0  0  0  0  0  0  0  0  0  0  0
   -0.6776   16.2323   -4.7670 H   0  0  0  0  0  0  0  0  0  0  0  0
   -0.8923   17.4392   -6.0800 H   0  0  0  0  0  0  0  0  0  0  0  0
   -1.8655   15.9294   -6.0800 H   0  0  0  0  0  0  0  0  0  0  0  0
    1.0949   16.3067   -6.6406 H   0  0  0  0  0  0  0  0  0  0  0  0
    0.0804   14.4783   -8.4586 H   0  0  0  0  0  0  0  0  0  0  0  0
   -1.2968   15.6502   -8.1887 H   0  0  0  0  0  0  0  0  0  0  0  0
   -0.1540   16.5588  -10.0058 H   0  0  0  0  0  0  0  0  0  0  0  0
    0.4672   17.4775   -8.5716 H   0  0  0  0  0  0  0  0  0  0  0  0
    2.1160   16.0583   -8.3635 H   0  0  0  0  0  0  0  0  0  0  0  0
    0.3277   14.2877  -10.9451 H   0  0  0  0  0  0  0  0  0  0  0  0
    0.7708   15.5223  -12.1724 H   0  0  0  0  0  0  0  0  0  0  0  0
    1.5875   13.9224  -12.1724 H   0  0  0  0  0  0  0  0  0  0  0  0
    3.8262   14.3481   -9.5635 H   0  0  0  0  0  0  0  0  0  0  0  0
    3.4038   13.5553  -11.1191 H   0  0  0  0  0  0  0  0  0  0  0  0
    4.2741   15.1267  -11.1191 H   0  0  0  0  0  0  0  0  0  0  0  0
   -0.4250   13.7893   -6.2346 H   0  0  0  0  0  0  0  0  0  0  0  0
    1.4681   12.9502   -7.4782 H   0  0  0  0  0  0  0  0  0  0  0  0
    2.4351   14.4005   -7.1344 H   0  0  0  0  0  0  0  0  0  0  0  0
    2.7528   11.8556   -5.8740 H   0  0  0  0  0  0  0  0  0  0  0  0
    3.4478   13.3539   -5.2615 H   0  0  0  0  0  0  0  0  0  0  0  0
    0.1371   11.2162   -3.8048 H   0  0  0  0  0  0  0  0  0  0  0  0
   -0.3344   12.0556   -5.3212 H   0  0  0  0  0  0  0  0  0  0  0  0
    1.0504   10.9116   -5.3212 H   0  0  0  0  0  0  0  0  0  0  0  0
    2.8345   13.4901   -2.9221 H   0  0  0  0  0  0  0  0  0  0  0  0
    3.2951   11.0620   -3.6493 H   0  0  0  0  0  0  0  0  0  0  0  0
    3.5877   11.6090   -1.9161 H   0  0  0  0  0  0  0  0  0  0  0  0
    2.4646    9.2448   -2.2192 H   0  0  0  0  0  0  0  0  0  0  0  0
   -0.6548   11.8055   -2.2032 H   0  0  0  0  0  0  0  0  0  0  0  0
    0.3311   11.7867    0.7164 H   0  0  0  0  0  0  0  0  0  0  0  0
   -1.0534   12.7523    0.0371 H   0  0  0  0  0  0  0  0  0  0  0  0
   -1.8243   10.7600    1.2864 H   0  0  0  0  0  0  0  0  0  0  0  0
   -2.2704   10.7127   -0.4642 H   0  0  0  0  0  0  0  0  0  0  0  0
   -1.5103    8.5356    0.1963 H   0  0  0  0  0  0  0  0  0  0  0  0
   -0.1620    8.7050    1.8760 H   0  0  0  0  0  0  0  0  0  0  0  0
   -2.1397    8.8122   -1.8854 H   0  0  0  0  0  0  0  0  0  0  0  0
   -1.1956    9.8644   -2.9937 H   0  0  0  0  0  0  0  0  0  0  0  0
   -0.9254    8.0885   -2.9937 H   0  0  0  0  0  0  0  0  0  0  0  0
    0.8954    7.4927   -0.2060 H   0  0  0  0  0  0  0  0  0  0  0  0
    0.1376    7.0097   -1.7614 H   0  0  0  0  0  0  0  0  0  0  0  0
    1.6838    7.9240   -1.7614 H   0  0  0  0  0  0  0  0  0  0  0  0
    1.3427   13.1287    0.3787 H   0  0  0  0  0  0  0  0  0  0  0  0
    2.8520   12.8441   -0.5529 H   0  0  0  0  0  0  0  0  0  0  0  0
    2.0897   14.4707   -0.5529 H   0  0  0  0  0  0  0  0  0  0  0  0
   -0.7742   14.1383   -1.4804 H   0  0  0  0  0  0  0  0  0  0  0  0
    0.7467   15.1110   -1.8985 H   0  0  0  0  0  0  0  0  0  0  0  0
   -1.0638   13.6006   -3.8037 H   0  0  0  0  0  0  0  0  0  0  0  0
   -0.7878   15.3828   -3.6836 H   0  0  0  0  0  0  0  0  0  0  0  0
    1.9327   15.5755   -3.1287 H   0  0  0  0  0  0  0  0  0  0  0  0
    2.8213   15.2394   -4.6532 H   0  0  0  0  0  0  0  0  0  0  0  0
    1.4401   16.3879   -4.6532 H   0  0  0  0  0  0  0  0  0  0  0  0
  1  2  1  0
  2  3  1  0
  3  4  1  0
  4  5  1  0
  5  6  1  0
  6  7  1  0
  7  8  1  0
  7  9  1  0
  2 10  1  0
 10 11  1  0
 11 12  1  0
 12 13  1  0
 13 14  1  6
 13 15  1  0
 15 16  1  0
 16 17  1  0
 17 18  2  0
 18 19  1  0
 19 20  1  0
 20 21  1  0
 21 22  1  0
 22 23  1  0
 22 24  1  0
 24 25  1  0
 24 26  1  0
 19 27  1  0
 27 28  1  1
 27 29  1  0
 29 30  1  0
 30 31  1  0
 31 32  1  1
  7  5  1  0
 31 10  1  0
 31 13  1  0
 27 15  1  0
 24 18  1  0
  1 33  1  0
  1 34  1  0
  1 35  1  0
  2 36  1  6
  3 37  1  0
  3 38  1  0
  4 39  1  0
  4 40  1  0
  5 41  1  1
  8 42  1  0
  8 43  1  0
  8 44  1  0
  9 45  1  0
  9 46  1  0
  9 47  1  0
 10 48  1  1
 11 49  1  0
 11 50  1  0
 12 51  1  0
 12 52  1  0
 14 53  1  0
 14 54  1  0
 14 55  1  0
 15 56  1  6
 16 57  1  0
 16 58  1  0
 17 59  1  0
 19 60  1  6
 20 61  1  0
 20 62  1  0
 21 63  1  0
 21 64  1  0
 22 65  1  1
 23 66  1  0
 25 67  1  0
 25 68  1  0
 25 69  1  0
 26 70  1  0
 26 71  1  0
 26 72  1  0
 28 73  1  0
 28 74  1  0
 28 75  1  0
 29 76  1  0
 29 77  1  0
 30 78  1  0
 30 79  1  0
 32 80  1  0
 32 81  1  0
 32 82  1  0
M  END
>  <meeko>  (8) 
{"is_sidechain": [false], "intermolecular_energy": 2.731, "internal_energy": -0.839}

$$$$
EPH_relaxed_0001_pdb2pqr_Repair_78_r2_0001_out
     RDKit          3D

 82 86  0  0  0  0  0  0  0  0999 V2000
   -3.7010    7.2100   -3.4280 C   0  0  0  0  0  0  0  0  0  0  0  0
   -3.7010    7.2750   -1.8980 C   0  0  2  0  0  0  0  0  0  0  0  0
   -5.1060    7.0460   -1.3070 C   0  0  0  0  0  0  0  0  0  0  0  0
   -6.2240    7.0670   -2.3520 C   0  0  0  0  0  0  0  0  0  0  0  0
   -7.5480    7.4140   -1.7410 C   0  0  2  0  0  0  0  0  0  0  0  0
   -8.2190    6.3190   -1.1040 O   0  0  0  0  0  0  0  0  0  0  0  0
   -8.8720    6.8810   -2.2540 C   0  0  0  0  0  0  0  0  0  0  0  0
   -8.9380    5.9560   -3.4290 C   0  0  0  0  0  0  0  0  0  0  0  0
  -10.1230    7.6360   -1.9280 C   0  0  0  0  0  0  0  0  0  0  0  0
   -3.1540    8.6210   -1.4350 C   0  0  1  0  0  0  0  0  0  0  0  0
   -3.7910    9.0980   -0.1030 C   0  0  0  0  0  0  0  0  0  0  0  0
   -2.6820    9.8490    0.6790 C   0  0  0  0  0  0  0  0  0  0  0  0
   -1.5550   10.0680   -0.3570 C   0  0  1  0  0  0  0  0  0  0  0  0
   -2.0010   11.3200   -1.1760 C   0  0  0  0  0  0  0  0  0  0  0  0
   -0.1110   10.2390    0.2190 C   0  0  2  0  0  0  0  0  0  0  0  0
    0.0880   11.4660    1.1260 C   0  0  0  0  0  0  0  0  0  0  0  0
    0.5220   12.7120    0.4270 C   0  0  0  0  0  0  0  0  0  0  0  0
    1.0170   12.7760   -0.8230 C   0  0  0  0  0  0  0  0  0  0  0  0
    1.2730   11.4990   -1.6350 C   0  0  1  0  0  0  0  0  0  0  0  0
    2.6760   11.5780   -2.2940 C   0  0  0  0  0  0  0  0  0  0  0  0
    2.8620   12.8440   -3.1240 C   0  0  0  0  0  0  0  0  0  0  0  0
    2.6560   14.0920   -2.2680 C   0  0  2  0  0  0  0  0  0  0  0  0
    3.7080   14.1670   -1.3020 O   0  0  0  0  0  0  0  0  0  0  0  0
    1.2800   14.1190   -1.5460 C   0  0  0  0  0  0  0  0  0  0  0  0
    0.1520   14.3420   -2.5840 C   0  0  0  0  0  0  0  0  0  0  0  0
    1.2580   15.3570   -0.6090 C   0  0  0  0  0  0  0  0  0  0  0  0
    1.0360   10.1290   -0.8650 C   0  0  1  0  0  0  0  0  0  0  0  0
    2.3320    9.7160   -0.1020 C   0  0  0  0  0  0  0  0  0  0  0  0
    0.7590    8.9900   -1.9170 C   0  0  0  0  0  0  0  0  0  0  0  0
   -0.7050    8.7920   -2.3560 C   0  0  0  0  0  0  0  0  0  0  0  0
   -1.6350    8.7090   -1.1420 C   0  0  2  0  0  0  0  0  0  0  0  0
   -1.2250    7.4460   -0.3110 C   0  0  0  0  0  0  0  0  0  0  0  0
   -2.6639    7.1944   -3.7943 H   0  0  0  0  0  0  0  0  0  0  0  0
   -4.2195    6.2971   -3.7562 H   0  0  0  0  0  0  0  0  0  0  0  0
   -4.2195    8.0918   -3.8325 H   0  0  0  0  0  0  0  0  0  0  0  0
   -3.0533    6.4646   -1.5324 H   0  0  0  0  0  0  0  0  0  0  0  0
   -5.1168    6.0665   -0.8065 H   0  0  0  0  0  0  0  0  0  0  0  0
   -5.3010    7.8752   -0.6110 H   0  0  0  0  0  0  0  0  0  0  0  0
   -5.9793    7.8147   -3.1208 H   0  0  0  0  0  0  0  0  0  0  0  0
   -6.3020    6.0613   -2.7907 H   0  0  0  0  0  0  0  0  0  0  0  0
   -7.2017    8.4329   -1.5129 H   0  0  0  0  0  0  0  0  0  0  0  0
   -9.0121    4.9174   -3.0743 H   0  0  0  0  0  0  0  0  0  0  0  0
   -9.8211    6.1993   -4.0381 H   0  0  0  0  0  0  0  0  0  0  0  0
   -8.0293    6.0715   -4.0381 H   0  0  0  0  0  0  0  0  0  0  0  0
  -10.2360    7.7042   -0.8360 H   0  0  0  0  0  0  0  0  0  0  0  0
  -10.0620    8.6482   -2.3543 H   0  0  0  0  0  0  0  0  0  0  0  0
  -10.9901    7.1103   -2.3543 H   0  0  0  0  0  0  0  0  0  0  0  0
   -3.4034    9.2336   -2.3140 H   0  0  0  0  0  0  0  0  0  0  0  0
   -4.6346    9.7738   -0.3071 H   0  0  0  0  0  0  0  0  0  0  0  0
   -4.1768    8.2471    0.4776 H   0  0  0  0  0  0  0  0  0  0  0  0
   -3.0565   10.8125    1.0551 H   0  0  0  0  0  0  0  0  0  0  0  0
   -2.3368    9.2855    1.5584 H   0  0  0  0  0  0  0  0  0  0  0  0
   -2.2883   12.1266   -0.4854 H   0  0  0  0  0  0  0  0  0  0  0  0
   -1.1684   11.6592   -1.8098 H   0  0  0  0  0  0  0  0  0  0  0  0
   -2.8605   11.0564   -1.8098 H   0  0  0  0  0  0  0  0  0  0  0  0
   -0.0134    9.3626    0.8765 H   0  0  0  0  0  0  0  0  0  0  0  0
   -0.8671   11.6743    1.6304 H   0  0  0  0  0  0  0  0  0  0  0  0
    0.9032   11.2048    1.8168 H   0  0  0  0  0  0  0  0  0  0  0  0
    0.4293   13.6580    0.9806 H   0  0  0  0  0  0  0  0  0  0  0  0
    0.4960   11.4713   -2.4132 H   0  0  0  0  0  0  0  0  0  0  0  0
    3.4391   11.5604   -1.5019 H   0  0  0  0  0  0  0  0  0  0  0  0
    2.7756   10.7171   -2.9714 H   0  0  0  0  0  0  0  0  0  0  0  0
    3.8806   12.8561   -3.5391 H   0  0  0  0  0  0  0  0  0  0  0  0
    2.1172   12.8462   -3.9335 H   0  0  0  0  0  0  0  0  0  0  0  0
    2.6734   14.9611   -2.9420 H   0  0  0  0  0  0  0  0  0  0  0  0
    4.3920   14.7610   -1.6560 H   0  0  0  0  0  0  0  0  0  0  0  0
   -0.7967   14.5296   -2.0599 H   0  0  0  0  0  0  0  0  0  0  0  0
    0.4001   15.2085   -3.2146 H   0  0  0  0  0  0  0  0  0  0  0  0
    0.0517   13.4463   -3.2146 H   0  0  0  0  0  0  0  0  0  0  0  0
    1.2639   15.0236    0.4392 H   0  0  0  0  0  0  0  0  0  0  0  0
    2.1452   15.9782   -0.8012 H   0  0  0  0  0  0  0  0  0  0  0  0
    0.3492   15.9462   -0.8012 H   0  0  0  0  0  0  0  0  0  0  0  0
    2.1533    9.7730    0.9819 H   0  0  0  0  0  0  0  0  0  0  0  0
    2.6057    8.6861   -0.3749 H   0  0  0  0  0  0  0  0  0  0  0  0
    3.1511   10.3976   -0.3749 H   0  0  0  0  0  0  0  0  0  0  0  0
    1.3487    9.2176   -2.8172 H   0  0  0  0  0  0  0  0  0  0  0  0
    1.0367    8.0547   -1.4090 H   0  0  0  0  0  0  0  0  0  0  0  0
   -1.0099    9.6410   -2.9854 H   0  0  0  0  0  0  0  0  0  0  0  0
   -0.7780    7.8497   -2.9188 H   0  0  0  0  0  0  0  0  0  0  0  0
   -1.2989    7.6737    0.7626 H   0  0  0  0  0  0  0  0  0  0  0  0
   -1.8984    6.6114   -0.5561 H   0  0  0  0  0  0  0  0  0  0  0  0
   -0.1898    7.1660   -0.5561 H   0  0  0  0  0  0  0  0  0  0  0  0
  1  2  1  0
  2  3  1  0
  3  4  1  0
  4  5  1  0
  5  6  1  0
  6  7  1  0
  7  8  1  0
  7  9  1  0
  2 10  1  0
 10 11  1  0
 11 12  1  0
 12 13  1  0
 13 14  1  6
 13 15  1  0
 15 16  1  0
 16 17  1  0
 17 18  2  0
 18 19  1  0
 19 20  1  0
 20 21  1  0
 21 22  1  0
 22 23  1  0
 22 24  1  0
 24 25  1  0
 24 26  1  0
 19 27  1  0
 27 28  1  1
 27 29  1  0
 29 30  1  0
 30 31  1  0
 31 32  1  1
  7  5  1  0
 31 10  1  0
 31 13  1  0
 27 15  1  0
 24 18  1  0
  1 33  1  0
  1 34  1  0
  1 35  1  0
  2 36  1  1
  3 37  1  0
  3 38  1  0
  4 39  1  0
  4 40  1  0
  5 41  1  1
  8 42  1  0
  8 43  1  0
  8 44  1  0
  9 45  1  0
  9 46  1  0
  9 47  1  0
 10 48  1  6
 11 49  1  0
 11 50  1  0
 12 51  1  0
 12 52  1  0
 14 53  1  0
 14 54  1  0
 14 55  1  0
 15 56  1  1
 16 57  1  0
 16 58  1  0
 17 59  1  0
 19 60  1  6
 20 61  1  0
 20 62  1  0
 21 63  1  0
 21 64  1  0
 22 65  1  6
 23 66  1  0
 25 67  1  0
 25 68  1  0
 25 69  1  0
 26 70  1  0
 26 71  1  0
 26 72  1  0
 28 73  1  0
 28 74  1  0
 28 75  1  0
 29 76  1  0
 29 77  1  0
 30 78  1  0
 30 79  1  0
 32 80  1  0
 32 81  1  0
 32 82  1  0
M  END
>  <meeko>  (9) 
{"is_sidechain": [false], "intermolecular_energy": 2.731, "internal_energy": -0.839}

$$$$
EPH_relaxed_0001_pdb2pqr_Repair_78_r2_0001_out
     RDKit          3D

 82 86  0  0  0  0  0  0  0  0999 V2000
   -2.1360    7.7750   -2.1540 C   0  0  0  0  0  0  0  0  0  0  0  0
   -2.3100    8.4560   -0.7940 C   0  0  2  0  0  0  0  0  0  0  0  0
   -3.7820    8.4660   -0.3340 C   0  0  0  0  0  0  0  0  0  0  0  0
   -4.7390    7.7880   -1.3180 C   0  0  0  0  0  0  0  0  0  0  0  0
   -5.9230    7.1920   -0.6190 C   0  0  2  0  0  0  0  0  0  0  0  0
   -6.4930    6.0510   -1.2740 O   0  0  0  0  0  0  0  0  0  0  0  0
   -7.3290    7.2160   -1.1870 C   0  0  0  0  0  0  0  0  0  0  0  0
   -7.6270    7.8510   -2.5090 C   0  0  0  0  0  0  0  0  0  0  0  0
   -8.4830    7.0600   -0.2460 C   0  0  0  0  0  0  0  0  0  0  0  0
   -1.7740    9.8820   -0.8540 C   0  0  1  0  0  0  0  0  0  0  0  0
   -1.3510   10.4200    0.5390 C   0  0  0  0  0  0  0  0  0  0  0  0
   -0.1200   11.3350    0.3100 C   0  0  0  0  0  0  0  0  0  0  0  0
   -0.0790   11.5580   -1.2200 C   0  0  1  0  0  0  0  0  0  0  0  0
   -1.1260   12.6850   -1.4890 C   0  0  0  0  0  0  0  0  0  0  0  0
    1.3170   11.9090   -1.8310 C   0  0  2  0  0  0  0  0  0  0  0  0
    1.9350   13.2260   -1.3310 C   0  0  0  0  0  0  0  0  0  0  0  0
    1.5920   14.4370   -2.1350 C   0  0  0  0  0  0  0  0  0  0  0  0
    1.0580   14.4300   -3.3700 C   0  0  0  0  0  0  0  0  0  0  0  0
    0.8340   13.1120   -4.1240 C   0  0  1  0  0  0  0  0  0  0  0  0
    1.3490   13.2550   -5.5800 C   0  0  0  0  0  0  0  0  0  0  0  0
    0.7380   14.4510   -6.3030 C   0  0  0  0  0  0  0  0  0  0  0  0
    1.0320   15.7490   -5.5540 C   0  0  2  0  0  0  0  0  0  0  0  0
    2.4390   16.0050   -5.6110 O   0  0  0  0  0  0  0  0  0  0  0  0
    0.5660   15.7200   -4.0710 C   0  0  0  0  0  0  0  0  0  0  0  0
   -0.9820   15.7450   -4.0120 C   0  0  0  0  0  0  0  0  0  0  0  0
    1.0480   17.0310   -3.3940 C   0  0  0  0  0  0  0  0  0  0  0  0
    1.3800   11.8030   -3.4080 C   0  0  1  0  0  0  0  0  0  0  0  0
    2.8770   11.5780   -3.7800 C   0  0  0  0  0  0  0  0  0  0  0  0
    0.5950   10.5520   -3.9560 C   0  0  0  0  0  0  0  0  0  0  0  0
   -0.7170   10.1850   -3.2350 C   0  0  0  0  0  0  0  0  0  0  0  0
   -0.5120   10.1310   -1.7180 C   0  0  2  0  0  0  0  0  0  0  0  0
    0.5190    8.9910   -1.4150 C   0  0  0  0  0  0  0  0  0  0  0  0
   -1.8662    6.7193   -2.0036 H   0  0  0  0  0  0  0  0  0  0  0  0
   -3.0786    7.8359   -2.7178 H   0  0  0  0  0  0  0  0  0  0  0  0
   -1.3382    8.2806   -2.7178 H   0  0  0  0  0  0  0  0  0  0  0  0
   -1.7372    7.8741   -0.0570 H   0  0  0  0  0  0  0  0  0  0  0  0
   -3.8478    7.9423    0.6311 H   0  0  0  0  0  0  0  0  0  0  0  0
   -4.0889    9.5198   -0.2615 H   0  0  0  0  0  0  0  0  0  0  0  0
   -5.0925    8.5354   -2.0436 H   0  0  0  0  0  0  0  0  0  0  0  0
   -4.1940    6.9761   -1.8218 H   0  0  0  0  0  0  0  0  0  0  0  0
   -5.5188    7.4810    0.3624 H   0  0  0  0  0  0  0  0  0  0  0  0
   -8.0892    8.8359   -2.3468 H   0  0  0  0  0  0  0  0  0  0  0  0
   -6.6923    7.9735   -3.0759 H   0  0  0  0  0  0  0  0  0  0  0  0
   -8.3185    7.2103   -3.0759 H   0  0  0  0  0  0  0  0  0  0  0  0
   -8.1197    7.1091    0.7911 H   0  0  0  0  0  0  0  0  0  0  0  0
   -9.2089    7.8682   -0.4189 H   0  0  0  0  0  0  0  0  0  0  0  0
   -8.9683    6.0881   -0.4189 H   0  0  0  0  0  0  0  0  0  0  0  0
   -2.6423   10.3874   -1.3019 H   0  0  0  0  0  0  0  0  0  0  0  0
   -2.1732   10.9964    0.9881 H   0  0  0  0  0  0  0  0  0  0  0  0
   -1.1077    9.5945    1.2241 H   0  0  0  0  0  0  0  0  0  0  0  0
   -0.2435   12.2917    0.8387 H   0  0  0  0  0  0  0  0  0  0  0  0
    0.8095   10.8871    0.6914 H   0  0  0  0  0  0  0  0  0  0  0  0
   -1.4934   13.0805   -0.5306 H   0  0  0  0  0  0  0  0  0  0  0  0
   -0.6530   13.4955   -2.0630 H   0  0  0  0  0  0  0  0  0  0  0  0
   -1.9690   12.2729   -2.0630 H   0  0  0  0  0  0  0  0  0  0  0  0
    1.9569   11.1081   -1.4322 H   0  0  0  0  0  0  0  0  0  0  0  0
    1.5900   13.3935   -0.3000 H   0  0  0  0  0  0  0  0  0  0  0  0
    3.0247   13.1026   -1.4162 H   0  0  0  0  0  0  0  0  0  0  0  0
    1.7929   15.4176   -1.6789 H   0  0  0  0  0  0  0  0  0  0  0  0
   -0.2531   12.9440   -4.1282 H   0  0  0  0  0  0  0  0  0  0  0  0
    2.4419   13.3780   -5.5567 H   0  0  0  0  0  0  0  0  0  0  0  0
    1.0546   12.3480   -6.1283 H   0  0  0  0  0  0  0  0  0  0  0  0
    1.1630   14.5153   -7.3155 H   0  0  0  0  0  0  0  0  0  0  0  0
   -0.3522   14.3127   -6.3519 H   0  0  0  0  0  0  0  0  0  0  0  0
    0.4616   16.5505   -6.0462 H   0  0  0  0  0  0  0  0  0  0  0  0
    2.5840   16.9180   -5.3100 H   0  0  0  0  0  0  0  0  0  0  0  0
   -1.3089   15.7503   -2.9617 H   0  0  0  0  0  0  0  0  0  0  0  0
   -1.3536   16.6493   -4.5162 H   0  0  0  0  0  0  0  0  0  0  0  0
   -1.3826   14.8532   -4.5162 H   0  0  0  0  0  0  0  0  0  0  0  0
    1.0058   16.9161   -2.3008 H   0  0  0  0  0  0  0  0  0  0  0  0
    2.0829   17.2430   -3.7007 H   0  0  0  0  0  0  0  0  0  0  0  0
    0.3969   17.8629   -3.7007 H   0  0  0  0  0  0  0  0  0  0  0  0
    3.4739   11.4883   -2.8604 H   0  0  0  0  0  0  0  0  0  0  0  0
    2.9733   10.6553   -4.3711 H   0  0  0  0  0  0  0  0  0  0  0  0
    3.2402   12.4316   -4.3711 H   0  0  0  0  0  0  0  0  0  0  0  0
    0.3517   10.7475   -5.0108 H   0  0  0  0  0  0  0  0  0  0  0  0
    1.2649    9.6957   -3.7888 H   0  0  0  0  0  0  0  0  0  0  0  0
   -1.4799   10.9423   -3.4683 H   0  0  0  0  0  0  0  0  0  0  0  0
   -1.0416    9.1925   -3.5807 H   0  0  0  0  0  0  0  0  0  0  0  0
    0.6258    8.8730   -0.3266 H   0  0  0  0  0  0  0  0  0  0  0  0
    0.1614    8.0474   -1.8528 H   0  0  0  0  0  0  0  0  0  0  0  0
    1.4937    9.2522   -1.8528 H   0  0  0  0  0  0  0  0  0  0  0  0
  1  2  1  0
  2  3  1  0
  3  4  1  0
  4  5  1  0
  5  6  1  0
  6  7  1  0
  7  8  1  0
  7  9  1  0
  2 10  1  0
 10 11  1  0
 11 12  1  0
 12 13  1  0
 13 14  1  1
 13 15  1  0
 15 16  1  0
 16 17  1  0
 17 18  2  0
 18 19  1  0
 19 20  1  0
 20 21  1  0
 21 22  1  0
 22 23  1  0
 22 24  1  0
 24 25  1  0
 24 26  1  0
 19 27  1  0
 27 28  1  1
 27 29  1  0
 29 30  1  0
 30 31  1  0
 31 32  1  6
  7  5  1  0
 31 10  1  0
 31 13  1  0
 27 15  1  0
 24 18  1  0
  1 33  1  0
  1 34  1  0
  1 35  1  0
  2 36  1  1
  3 37  1  0
  3 38  1  0
  4 39  1  0
  4 40  1  0
  5 41  1  1
  8 42  1  0
  8 43  1  0
  8 44  1  0
  9 45  1  0
  9 46  1  0
  9 47  1  0
 10 48  1  6
 11 49  1  0
 11 50  1  0
 12 51  1  0
 12 52  1  0
 14 53  1  0
 14 54  1  0
 14 55  1  0
 15 56  1  1
 16 57  1  0
 16 58  1  0
 17 59  1  0
 19 60  1  6
 20 61  1  0
 20 62  1  0
 21 63  1  0
 21 64  1  0
 22 65  1  6
 23 66  1  0
 25 67  1  0
 25 68  1  0
 25 69  1  0
 26 70  1  0
 26 71  1  0
 26 72  1  0
 28 73  1  0
 28 74  1  0
 28 75  1  0
 29 76  1  0
 29 77  1  0
 30 78  1  0
 30 79  1  0
 32 80  1  0
 32 81  1  0
 32 82  1  0
M  END
>  <meeko>  (10) 
{"is_sidechain": [false], "intermolecular_energy": 2.731, "internal_energy": -0.839}

$$$$
EPH_relaxed_0001_pdb2pqr_Repair_78_r2_0001_out
     RDKit          3D

 82 86  0  0  0  0  0  0  0  0999 V2000
   -0.6510    9.2470   -1.8120 C   0  0  0  0  0  0  0  0  0  0  0  0
    0.4080   10.1630   -2.4340 C   0  0  2  0  0  0  0  0  0  0  0  0
    1.7560    9.4410   -2.6330 C   0  0  0  0  0  0  0  0  0  0  0  0
    2.6540   10.0940   -3.6870 C   0  0  0  0  0  0  0  0  0  0  0  0
    4.0870   10.1260   -3.2510 C   0  0  2  0  0  0  0  0  0  0  0  0
    4.5640   11.4180   -2.8530 O   0  0  0  0  0  0  0  0  0  0  0  0
    5.1790   10.8470   -4.0190 C   0  0  0  0  0  0  0  0  0  0  0  0
    4.8850   11.5860   -5.2870 C   0  0  0  0  0  0  0  0  0  0  0  0
    6.6000   10.4270   -3.8060 C   0  0  0  0  0  0  0  0  0  0  0  0
    0.6020   11.3990   -1.5630 C   0  0  1  0  0  0  0  0  0  0  0  0
    1.7140   11.2090   -0.4970 C   0  0  0  0  0  0  0  0  0  0  0  0
    2.4130   12.5830   -0.3310 C   0  0  0  0  0  0  0  0  0  0  0  0
    1.4790   13.5850   -1.0490 C   0  0  1  0  0  0  0  0  0  0  0  0
    0.3500   13.8930   -0.0150 C   0  0  0  0  0  0  0  0  0  0  0  0
    2.1480   14.8950   -1.5800 C   0  0  2  0  0  0  0  0  0  0  0  0
    2.7630   15.7990   -0.4980 C   0  0  0  0  0  0  0  0  0  0  0  0
    1.8450   16.8310    0.0680 C   0  0  0  0  0  0  0  0  0  0  0  0
    0.6730   17.2150   -0.4710 C   0  0  0  0  0  0  0  0  0  0  0  0
    0.2090   16.6620   -1.8250 C   0  0  1  0  0  0  0  0  0  0  0  0
   -0.2990   17.8270   -2.7140 C   0  0  0  0  0  0  0  0  0  0  0  0
   -1.3740   18.6620   -2.0260 C   0  0  0  0  0  0  0  0  0  0  0  0
   -0.8570   19.2430   -0.7130 C   0  0  2  0  0  0  0  0  0  0  0  0
    0.1710   20.1940   -1.0030 O   0  0  0  0  0  0  0  0  0  0  0  0
   -0.3100   18.1620    0.2610 C   0  0  0  0  0  0  0  0  0  0  0  0
   -1.4840   17.3140    0.8110 C   0  0  0  0  0  0  0  0  0  0  0  0
    0.3090   18.8910    1.4850 C   0  0  0  0  0  0  0  0  0  0  0  0
    1.2450   15.7240   -2.5820 C   0  0  1  0  0  0  0  0  0  0  0  0
    2.2150   16.5880   -3.4440 C   0  0  0  0  0  0  0  0  0  0  0  0
    0.4620   14.7990   -3.5870 C   0  0  0  0  0  0  0  0  0  0  0  0
   -0.0710   13.4640   -3.0320 C   0  0  0  0  0  0  0  0  0  0  0  0
    1.0250   12.7090   -2.2730 C   0  0  2  0  0  0  0  0  0  0  0  0
    2.1640   12.3660   -3.2930 C   0  0  0  0  0  0  0  0  0  0  0  0
   -0.5860    9.3032   -0.7154 H   0  0  0  0  0  0  0  0  0  0  0  0
   -1.6512    9.5694   -2.1370 H   0  0  0  0  0  0  0  0  0  0  0  0
   -0.4761    8.2108   -2.1370 H   0  0  0  0  0  0  0  0  0  0  0  0
    0.0444   10.4622   -3.4281 H   0  0  0  0  0  0  0  0  0  0  0  0
    2.2931    9.4375   -1.6731 H   0  0  0  0  0  0  0  0  0  0  0  0
    1.5274    8.4258   -2.9897 H   0  0  0  0  0  0  0  0  0  0  0  0
    2.5790    9.5216   -4.6234 H   0  0  0  0  0  0  0  0  0  0  0  0
    2.3160   11.1309   -3.8307 H   0  0  0  0  0  0  0  0  0  0  0  0
    4.0144    9.1011   -2.8580 H   0  0  0  0  0  0  0  0  0  0  0  0
    4.4882   12.5834   -5.0465 H   0  0  0  0  0  0  0  0  0  0  0  0
    5.8099   11.6909   -5.8732 H   0  0  0  0  0  0  0  0  0  0  0  0
    4.1408   11.0269   -5.8732 H   0  0  0  0  0  0  0  0  0  0  0  0
    6.8065   10.3660   -2.7273 H   0  0  0  0  0  0  0  0  0  0  0  0
    6.7642    9.4419   -4.2671 H   0  0  0  0  0  0  0  0  0  0  0  0
    7.2734   11.1645   -4.2671 H   0  0  0  0  0  0  0  0  0  0  0  0
   -0.4156   11.5022   -1.1583 H   0  0  0  0  0  0  0  0  0  0  0  0
    1.2722   10.8907    0.4588 H   0  0  0  0  0  0  0  0  0  0  0  0
    2.4316   10.4355   -0.8080 H   0  0  0  0  0  0  0  0  0  0  0  0
    2.5145   12.8410    0.7335 H   0  0  0  0  0  0  0  0  0  0  0  0
    3.4301   12.5870   -0.7499 H   0  0  0  0  0  0  0  0  0  0  0  0
    0.7474   13.7846    1.0050 H   0  0  0  0  0  0  0  0  0  0  0  0
   -0.0099   14.9222   -0.1608 H   0  0  0  0  0  0  0  0  0  0  0  0
   -0.4827   13.1892   -0.1608 H   0  0  0  0  0  0  0  0  0  0  0  0
    2.9970   14.5068   -2.1618 H   0  0  0  0  0  0  0  0  0  0  0  0
    3.1034   15.1572    0.3280 H   0  0  0  0  0  0  0  0  0  0  0  0
    3.5765   16.3523   -0.9900 H   0  0  0  0  0  0  0  0  0  0  0  0
    2.1523   17.3189    1.0048 H   0  0  0  0  0  0  0  0  0  0  0  0
   -0.6194   15.9728   -1.6042 H   0  0  0  0  0  0  0  0  0  0  0  0
    0.5515   18.4801   -2.9594 H   0  0  0  0  0  0  0  0  0  0  0  0
   -0.7456   17.3870   -3.6179 H   0  0  0  0  0  0  0  0  0  0  0  0
   -1.6709   19.4857   -2.6918 H   0  0  0  0  0  0  0  0  0  0  0  0
   -2.2355   18.0138   -1.8077 H   0  0  0  0  0  0  0  0  0  0  0  0
   -1.7078   19.7210   -0.2055 H   0  0  0  0  0  0  0  0  0  0  0  0
    0.1160   20.9000   -0.3360 H   0  0  0  0  0  0  0  0  0  0  0  0
   -1.4634   17.3289    1.9107 H   0  0  0  0  0  0  0  0  0  0  0  0
   -2.4370   17.7336    0.4564 H   0  0  0  0  0  0  0  0  0  0  0  0
   -1.3852   16.2774    0.4564 H   0  0  0  0  0  0  0  0  0  0  0  0
   -0.0738   18.4401    2.4124 H   0  0  0  0  0  0  0  0  0  0  0  0
    1.4042   18.7932    1.4547 H   0  0  0  0  0  0  0  0  0  0  0  0
    0.0350   19.9559    1.4547 H   0  0  0  0  0  0  0  0  0  0  0  0
    2.8713   17.1726   -2.7826 H   0  0  0  0  0  0  0  0  0  0  0  0
    2.8264   15.9298   -4.0788 H   0  0  0  0  0  0  0  0  0  0  0  0
    1.6317   17.2712   -4.0788 H   0  0  0  0  0  0  0  0  0  0  0  0
   -0.3993   15.3705   -3.9632 H   0  0  0  0  0  0  0  0  0  0  0  0
    1.1993   14.5180   -4.3534 H   0  0  0  0  0  0  0  0  0  0  0  0
   -0.9079   13.6673   -2.3477 H   0  0  0  0  0  0  0  0  0  0  0  0
   -0.4056   12.8421   -3.8754 H   0  0  0  0  0  0  0  0  0  0  0  0
    3.0769   12.0911   -2.7444 H   0  0  0  0  0  0  0  0  0  0  0  0
    1.8483   11.5231   -3.9253 H   0  0  0  0  0  0  0  0  0  0  0  0
    2.3663   13.2431   -3.9253 H   0  0  0  0  0  0  0  0  0  0  0  0
  1  2  1  0
  2  3  1  0
  3  4  1  0
  4  5  1  0
  5  6  1  0
  6  7  1  0
  7  8  1  0
  7  9  1  0
  2 10  1  0
 10 11  1  0
 11 12  1  0
 12 13  1  0
 13 14  1  1
 13 15  1  0
 15 16  1  0
 16 17  1  0
 17 18  2  0
 18 19  1  0
 19 20  1  0
 20 21  1  0
 21 22  1  0
 22 23  1  0
 22 24  1  0
 24 25  1  0
 24 26  1  0
 19 27  1  0
 27 28  1  6
 27 29  1  0
 29 30  1  0
 30 31  1  0
 31 32  1  6
  7  5  1  0
 31 10  1  0
 31 13  1  0
 27 15  1  0
 24 18  1  0
  1 33  1  0
  1 34  1  0
  1 35  1  0
  2 36  1  6
  3 37  1  0
  3 38  1  0
  4 39  1  0
  4 40  1  0
  5 41  1  1
  8 42  1  0
  8 43  1  0
  8 44  1  0
  9 45  1  0
  9 46  1  0
  9 47  1  0
 10 48  1  1
 11 49  1  0
 11 50  1  0
 12 51  1  0
 12 52  1  0
 14 53  1  0
 14 54  1  0
 14 55  1  0
 15 56  1  6
 16 57  1  0
 16 58  1  0
 17 59  1  0
 19 60  1  1
 20 61  1  0
 20 62  1  0
 21 63  1  0
 21 64  1  0
 22 65  1  1
 23 66  1  0
 25 67  1  0
 25 68  1  0
 25 69  1  0
 26 70  1  0
 26 71  1  0
 26 72  1  0
 28 73  1  0
 28 74  1  0
 28 75  1  0
 29 76  1  0
 29 77  1  0
 30 78  1  0
 30 79  1  0
 32 80  1  0
 32 81  1  0
 32 82  1  0
M  END
>  <meeko>  (11) 
{"is_sidechain": [false], "intermolecular_energy": 2.731, "internal_energy": -0.839}

$$$$
EPH_relaxed_0001_pdb2pqr_Repair_78_r2_0001_out
     RDKit          3D

 82 86  0  0  0  0  0  0  0  0999 V2000
    0.3700   20.0090   -0.8260 C   0  0  0  0  0  0  0  0  0  0  0  0
    1.2020   19.2700    0.2260 C   0  0  2  0  0  0  0  0  0  0  0  0
    2.7130   19.3510   -0.0670 C   0  0  0  0  0  0  0  0  0  0  0  0
    3.4920   20.1940    0.9470 C   0  0  0  0  0  0  0  0  0  0  0  0
    4.5710   19.3980    1.6180 C   0  0  2  0  0  0  0  0  0  0  0  0
    4.0980   18.3210    2.4370 O   0  0  0  0  0  0  0  0  0  0  0  0
    4.7870   19.3820    3.1190 C   0  0  0  0  0  0  0  0  0  0  0  0
    3.9170   20.1770    4.0420 C   0  0  0  0  0  0  0  0  0  0  0  0
    6.1320   18.9870    3.6440 C   0  0  0  0  0  0  0  0  0  0  0  0
    0.7640   17.8130    0.3040 C   0  0  1  0  0  0  0  0  0  0  0  0
   -0.7250   17.6570    0.7130 C   0  0  0  0  0  0  0  0  0  0  0  0
   -1.2720   16.4240   -0.0500 C   0  0  0  0  0  0  0  0  0  0  0  0
   -0.0130   15.7190   -0.6060 C   0  0  1  0  0  0  0  0  0  0  0  0
    0.5440   14.8880    0.5920 C   0  0  0  0  0  0  0  0  0  0  0  0
   -0.2220   14.8310   -1.8760 C   0  0  2  0  0  0  0  0  0  0  0  0
   -1.1630   13.6290   -1.6850 C   0  0  0  0  0  0  0  0  0  0  0  0
   -0.5010   12.3630   -1.2530 C   0  0  0  0  0  0  0  0  0  0  0  0
    0.8220   12.1160   -1.3020 C   0  0  0  0  0  0  0  0  0  0  0  0
    1.7900   13.1310   -1.9220 C   0  0  1  0  0  0  0  0  0  0  0  0
    2.7690   12.3970   -2.8760 C   0  0  0  0  0  0  0  0  0  0  0  0
    3.4940   11.2410   -2.1930 C   0  0  0  0  0  0  0  0  0  0  0  0
    2.4990   10.2240   -1.6400 C   0  0  2  0  0  0  0  0  0  0  0  0
    1.8240    9.5970   -2.7360 O   0  0  0  0  0  0  0  0  0  0  0  0
    1.4550   10.8500   -0.6740 C   0  0  0  0  0  0  0  0  0  0  0  0
    2.1510   11.2600    0.6480 C   0  0  0  0  0  0  0  0  0  0  0  0
    0.4280    9.7480   -0.3000 C   0  0  0  0  0  0  0  0  0  0  0  0
    1.1210   14.4050   -2.5970 C   0  0  1  0  0  0  0  0  0  0  0  0
    0.7500   14.0890   -4.0780 C   0  0  0  0  0  0  0  0  0  0  0  0
    2.1740   15.5750   -2.6420 C   0  0  0  0  0  0  0  0  0  0  0  0
    2.2490   16.4900   -1.4050 C   0  0  0  0  0  0  0  0  0  0  0  0
    0.8540   16.9720   -0.9940 C   0  0  2  0  0  0  0  0  0  0  0  0
    0.2780   17.8290   -2.1710 C   0  0  0  0  0  0  0  0  0  0  0  0
   -0.3619   20.6591   -0.3243 H   0  0  0  0  0  0  0  0  0  0  0  0
    1.0336   20.6209   -1.4547 H   0  0  0  0  0  0  0  0  0  0  0  0
   -0.1593   19.2779   -1.4547 H   0  0  0  0  0  0  0  0  0  0  0  0
    1.0268   19.7635    1.1934 H   0  0  0  0  0  0  0  0  0  0  0  0
    3.1236   18.3305   -0.0587 H   0  0  0  0  0  0  0  0  0  0  0  0
    2.8251   19.8404   -1.0458 H   0  0  0  0  0  0  0  0  0  0  0  0
    3.9506   21.0464    0.4244 H   0  0  0  0  0  0  0  0  0  0  0  0
    2.7885   20.5373    1.7198 H   0  0  0  0  0  0  0  0  0  0  0  0
    5.2569   19.5727    0.7760 H   0  0  0  0  0  0  0  0  0  0  0  0
    4.1760   19.9404    5.0846 H   0  0  0  0  0  0  0  0  0  0  0  0
    4.0737   21.2504    3.8598 H   0  0  0  0  0  0  0  0  0  0  0  0
    2.8620   19.9244    3.8598 H   0  0  0  0  0  0  0  0  0  0  0  0
    6.1125   18.9927    4.7438 H   0  0  0  0  0  0  0  0  0  0  0  0
    6.3829   17.9772    3.2870 H   0  0  0  0  0  0  0  0  0  0  0  0
    6.8890   19.7007    3.2870 H   0  0  0  0  0  0  0  0  0  0  0  0
    1.4895   17.4430    1.0434 H   0  0  0  0  0  0  0  0  0  0  0  0
   -0.8048   17.4968    1.7983 H   0  0  0  0  0  0  0  0  0  0  0  0
   -1.2994   18.5616    0.4647 H   0  0  0  0  0  0  0  0  0  0  0  0
   -1.8210   15.7577    0.6317 H   0  0  0  0  0  0  0  0  0  0  0  0
   -1.9780   16.7051   -0.8453 H   0  0  0  0  0  0  0  0  0  0  0  0
    0.2316   15.3540    1.5382 H   0  0  0  0  0  0  0  0  0  0  0  0
    0.1504   13.8621    0.5411 H   0  0  0  0  0  0  0  0  0  0  0  0
    1.6425   14.8622    0.5411 H   0  0  0  0  0  0  0  0  0  0  0  0
   -0.7476   15.5156   -2.5580 H   0  0  0  0  0  0  0  0  0  0  0  0
   -1.9093   13.8993   -0.9234 H   0  0  0  0  0  0  0  0  0  0  0  0
   -1.5976   13.4228   -2.6742 H   0  0  0  0  0  0  0  0  0  0  0  0
   -1.1483   11.5644   -0.8616 H   0  0  0  0  0  0  0  0  0  0  0  0
    2.3469   13.5718   -1.0820 H   0  0  0  0  0  0  0  0  0  0  0  0
    2.1993   12.0010   -3.7296 H   0  0  0  0  0  0  0  0  0  0  0  0
    3.5288   13.1238   -3.1990 H   0  0  0  0  0  0  0  0  0  0  0  0
    4.1481   10.7438   -2.9244 H   0  0  0  0  0  0  0  0  0  0  0  0
    4.0866   11.6425   -1.3578 H   0  0  0  0  0  0  0  0  0  0  0  0
    3.0701    9.4906   -1.0518 H   0  0  0  0  0  0  0  0  0  0  0  0
    1.0640   10.1550   -2.9720 H   0  0  0  0  0  0  0  0  0  0  0  0
    1.5532   10.9079    1.5016 H   0  0  0  0  0  0  0  0  0  0  0  0
    3.1528   10.8078    0.6905 H   0  0  0  0  0  0  0  0  0  0  0  0
    2.2411   12.3555    0.6905 H   0  0  0  0  0  0  0  0  0  0  0  0
    0.3558    9.6705    0.7949 H   0  0  0  0  0  0  0  0  0  0  0  0
   -0.5569   10.0086   -0.7149 H   0  0  0  0  0  0  0  0  0  0  0  0
    0.7572    8.7839   -0.7149 H   0  0  0  0  0  0  0  0  0  0  0  0
   -0.0872   13.3759   -4.1021 H   0  0  0  0  0  0  0  0  0  0  0  0
    0.4554   15.0178   -4.5884 H   0  0  0  0  0  0  0  0  0  0  0  0
    1.6201   13.6503   -4.5884 H   0  0  0  0  0  0  0  0  0  0  0  0
    3.1672   15.1236   -2.7827 H   0  0  0  0  0  0  0  0  0  0  0  0
    1.8438   16.2279   -3.4634 H   0  0  0  0  0  0  0  0  0  0  0  0
    2.6969   15.9307   -0.5704 H   0  0  0  0  0  0  0  0  0  0  0  0
    2.8638   17.3674   -1.6545 H   0  0  0  0  0  0  0  0  0  0  0  0
   -0.2918   18.6767   -1.7627 H   0  0  0  0  0  0  0  0  0  0  0  0
    1.1060   18.2072   -2.7886 H   0  0  0  0  0  0  0  0  0  0  0  0
   -0.3849   17.2052   -2.7886 H   0  0  0  0  0  0  0  0  0  0  0  0
  1  2  1  0
  2  3  1  0
  3  4  1  0
  4  5  1  0
  5  6  1  0
  6  7  1  0
  7  8  1  0
  7  9  1  0
  2 10  1  0
 10 11  1  0
 11 12  1  0
 12 13  1  0
 13 14  1  1
 13 15  1  0
 15 16  1  0
 16 17  1  0
 17 18  2  0
 18 19  1  0
 19 20  1  0
 20 21  1  0
 21 22  1  0
 22 23  1  0
 22 24  1  0
 24 25  1  0
 24 26  1  0
 19 27  1  0
 27 28  1  6
 27 29  1  0
 29 30  1  0
 30 31  1  0
 31 32  1  6
  7  5  1  0
 31 10  1  0
 31 13  1  0
 27 15  1  0
 24 18  1  0
  1 33  1  0
  1 34  1  0
  1 35  1  0
  2 36  1  1
  3 37  1  0
  3 38  1  0
  4 39  1  0
  4 40  1  0
  5 41  1  6
  8 42  1  0
  8 43  1  0
  8 44  1  0
  9 45  1  0
  9 46  1  0
  9 47  1  0
 10 48  1  1
 11 49  1  0
 11 50  1  0
 12 51  1  0
 12 52  1  0
 14 53  1  0
 14 54  1  0
 14 55  1  0
 15 56  1  6
 16 57  1  0
 16 58  1  0
 17 59  1  0
 19 60  1  1
 20 61  1  0
 20 62  1  0
 21 63  1  0
 21 64  1  0
 22 65  1  1
 23 66  1  0
 25 67  1  0
 25 68  1  0
 25 69  1  0
 26 70  1  0
 26 71  1  0
 26 72  1  0
 28 73  1  0
 28 74  1  0
 28 75  1  0
 29 76  1  0
 29 77  1  0
 30 78  1  0
 30 79  1  0
 32 80  1  0
 32 81  1  0
 32 82  1  0
M  END
>  <meeko>  (12) 
{"is_sidechain": [false], "intermolecular_energy": 2.731, "internal_energy": -0.839}

$$$$
EPH_relaxed_0001_pdb2pqr_Repair_78_r2_0001_out
     RDKit          3D

 82 86  0  0  0  0  0  0  0  0999 V2000
    2.8440   11.3290   -5.2580 C   0  0  0  0  0  0  0  0  0  0  0  0
    1.7950   11.0380   -4.1820 C   0  0  2  0  0  0  0  0  0  0  0  0
    0.6760   10.1110   -4.6970 C   0  0  0  0  0  0  0  0  0  0  0  0
   -0.3960    9.7990   -3.6490 C   0  0  0  0  0  0  0  0  0  0  0  0
    0.1640    9.0170   -2.5000 C   0  0  2  0  0  0  0  0  0  0  0  0
   -0.6580    7.9280   -2.0600 O   0  0  0  0  0  0  0  0  0  0  0  0
   -0.4630    8.9960   -1.1180 C   0  0  0  0  0  0  0  0  0  0  0  0
   -1.7060    9.7720   -0.8130 C   0  0  0  0  0  0  0  0  0  0  0  0
    0.3940    8.6200    0.0510 C   0  0  0  0  0  0  0  0  0  0  0  0
    1.1960   12.3440   -3.6730 C   0  0  1  0  0  0  0  0  0  0  0  0
   -0.3410   12.2600   -3.4750 C   0  0  0  0  0  0  0  0  0  0  0  0
   -0.6820   13.1380   -2.2440 C   0  0  0  0  0  0  0  0  0  0  0  0
    0.6040   13.9550   -1.9790 C   0  0  1  0  0  0  0  0  0  0  0  0
    0.5450   15.1370   -2.9970 C   0  0  0  0  0  0  0  0  0  0  0  0
    0.8110   14.4640   -0.5150 C   0  0  2  0  0  0  0  0  0  0  0  0
   -0.2620   15.4430   -0.0070 C   0  0  0  0  0  0  0  0  0  0  0  0
    0.0260   16.8870   -0.2510 C   0  0  0  0  0  0  0  0  0  0  0  0
    1.2230   17.3990   -0.5940 C   0  0  0  0  0  0  0  0  0  0  0  0
    2.4680   16.5060   -0.6740 C   0  0  1  0  0  0  0  0  0  0  0  0
    3.6510   17.1990    0.0500 C   0  0  0  0  0  0  0  0  0  0  0  0
    3.9100   18.6100   -0.4700 C   0  0  0  0  0  0  0  0  0  0  0  0
    2.6680   19.4840   -0.3200 C   0  0  2  0  0  0  0  0  0  0  0  0
    2.4110   19.6830    1.0740 O   0  0  0  0  0  0  0  0  0  0  0  0
    1.4080   18.8810   -1.0030 C   0  0  0  0  0  0  0  0  0  0  0  0
    1.5700   18.9440   -2.5410 C   0  0  0  0  0  0  0  0  0  0  0  0
    0.1970   19.7880   -0.6560 C   0  0  0  0  0  0  0  0  0  0  0  0
    2.2700   14.9980   -0.2140 C   0  0  1  0  0  0  0  0  0  0  0  0
    2.4780   14.8800    1.3270 C   0  0  0  0  0  0  0  0  0  0  0  0
    3.3830   14.1060   -0.8810 C   0  0  0  0  0  0  0  0  0  0  0  0
    3.0710   13.5350   -2.2780 C   0  0  0  0  0  0  0  0  0  0  0  0
    1.6920   12.8670   -2.3010 C   0  0  2  0  0  0  0  0  0  0  0  0
    1.7280   11.6600   -1.3030 C   0  0  0  0  0  0  0  0  0  0  0  0
    3.7978   11.5936   -4.7782 H   0  0  0  0  0  0  0  0  0  0  0  0
    2.9841   10.4358   -5.8846 H   0  0  0  0  0  0  0  0  0  0  0  0
    2.5039   12.1667   -5.8846 H   0  0  0  0  0  0  0  0  0  0  0  0
    2.3031   10.5157   -3.3579 H   0  0  0  0  0  0  0  0  0  0  0  0
    0.1906   10.5968   -5.5563 H   0  0  0  0  0  0  0  0  0  0  0  0
    1.1491    9.1554   -4.9672 H   0  0  0  0  0  0  0  0  0  0  0  0
   -0.8091   10.7450   -3.2689 H   0  0  0  0  0  0  0  0  0  0  0  0
   -1.1782    9.1920   -4.1284 H   0  0  0  0  0  0  0  0  0  0  0  0
    1.1924    9.2072   -2.8408 H   0  0  0  0  0  0  0  0  0  0  0  0
   -1.8312    9.8502    0.2770 H   0  0  0  0  0  0  0  0  0  0  0  0
   -1.6245   10.7799   -1.2459 H   0  0  0  0  0  0  0  0  0  0  0  0
   -2.5758    9.2562   -1.2459 H   0  0  0  0  0  0  0  0  0  0  0  0
   -0.1376    8.8532    0.9854 H   0  0  0  0  0  0  0  0  0  0  0  0
    0.6137    7.5428    0.0132 H   0  0  0  0  0  0  0  0  0  0  0  0
    1.3354    9.1878    0.0132 H   0  0  0  0  0  0  0  0  0  0  0  0
    1.5237   13.0216   -4.4752 H   0  0  0  0  0  0  0  0  0  0  0  0
   -0.8593   12.6411   -4.3673 H   0  0  0  0  0  0  0  0  0  0  0  0
   -0.6629   11.2197   -3.3195 H   0  0  0  0  0  0  0  0  0  0  0  0
   -1.5275   13.8058   -2.4656 H   0  0  0  0  0  0  0  0  0  0  0  0
   -0.9810   12.5367   -1.3728 H   0  0  0  0  0  0  0  0  0  0  0  0
    0.4974   16.0901   -2.4499 H   0  0  0  0  0  0  0  0  0  0  0  0
    1.4450   15.1217   -3.6292 H   0  0  0  0  0  0  0  0  0  0  0  0
   -0.3490   15.0321   -3.6292 H   0  0  0  0  0  0  0  0  0  0  0  0
    0.6802   13.5448    0.0748 H   0  0  0  0  0  0  0  0  0  0  0  0
   -1.2107   15.1965   -0.5062 H   0  0  0  0  0  0  0  0  0  0  0  0
   -0.2941   15.3194    1.0856 H   0  0  0  0  0  0  0  0  0  0  0  0
   -0.8106   17.5927   -0.1413 H   0  0  0  0  0  0  0  0  0  0  0  0
    2.6972   16.4001   -1.7446 H   0  0  0  0  0  0  0  0  0  0  0  0
    3.4223   17.2557    1.1245 H   0  0  0  0  0  0  0  0  0  0  0  0
    4.5549   16.6019   -0.1407 H   0  0  0  0  0  0  0  0  0  0  0  0
    4.7364   19.0580    0.1013 H   0  0  0  0  0  0  0  0  0  0  0  0
    4.1687   18.5484   -1.5374 H   0  0  0  0  0  0  0  0  0  0  0  0
    2.8726   20.4385   -0.8270 H   0  0  0  0  0  0  0  0  0  0  0  0
    2.3160   18.8070    1.4840 H   0  0  0  0  0  0  0  0  0  0  0  0
    2.5688   19.3324   -2.7889 H   0  0  0  0  0  0  0  0  0  0  0  0
    1.4537   17.9351   -2.9636 H   0  0  0  0  0  0  0  0  0  0  0  0
    0.8026   19.6092   -2.9636 H   0  0  0  0  0  0  0  0  0  0  0  0
    0.0965   19.8633    0.4368 H   0  0  0  0  0  0  0  0  0  0  0  0
    0.3566   20.7906   -1.0795 H   0  0  0  0  0  0  0  0  0  0  0  0
   -0.7202   19.3529   -1.0795 H   0  0  0  0  0  0  0  0  0  0  0  0
    1.6355   15.3579    1.8484 H   0  0  0  0  0  0  0  0  0  0  0  0
    2.5294   13.8182    1.6098 H   0  0  0  0  0  0  0  0  0  0  0  0
    3.4158   15.3806    1.6098 H   0  0  0  0  0  0  0  0  0  0  0  0
    4.2928   14.7182   -0.9673 H   0  0  0  0  0  0  0  0  0  0  0  0
    3.4790   13.2276   -0.2258 H   0  0  0  0  0  0  0  0  0  0  0  0
    3.0870   14.3531   -3.0131 H   0  0  0  0  0  0  0  0  0  0  0  0
    3.8312   12.7798   -2.5265 H   0  0  0  0  0  0  0  0  0  0  0  0
    1.7167   12.0379   -0.2700 H   0  0  0  0  0  0  0  0  0  0  0  0
    0.8485   11.0205   -1.4691 H   0  0  0  0  0  0  0  0  0  0  0  0
    2.6440   11.0741   -1.4691 H   0  0  0  0  0  0  0  0  0  0  0  0
  1  2  1  0
  2  3  1  0
  3  4  1  0
  4  5  1  0
  5  6  1  0
  6  7  1  0
  7  8  1  0
  7  9  1  0
  2 10  1  0
 10 11  1  0
 11 12  1  0
 12 13  1  0
 13 14  1  6
 13 15  1  0
 15 16  1  0
 16 17  1  0
 17 18  2  0
 18 19  1  0
 19 20  1  0
 20 21  1  0
 21 22  1  0
 22 23  1  0
 22 24  1  0
 24 25  1  0
 24 26  1  0
 19 27  1  0
 27 28  1  1
 27 29  1  0
 29 30  1  0
 30 31  1  0
 31 32  1  1
  7  5  1  0
 31 10  1  0
 31 13  1  0
 27 15  1  0
 24 18  1  0
  1 33  1  0
  1 34  1  0
  1 35  1  0
  2 36  1  1
  3 37  1  0
  3 38  1  0
  4 39  1  0
  4 40  1  0
  5 41  1  1
  8 42  1  0
  8 43  1  0
  8 44  1  0
  9 45  1  0
  9 46  1  0
  9 47  1  0
 10 48  1  6
 11 49  1  0
 11 50  1  0
 12 51  1  0
 12 52  1  0
 14 53  1  0
 14 54  1  0
 14 55  1  0
 15 56  1  1
 16 57  1  0
 16 58  1  0
 17 59  1  0
 19 60  1  6
 20 61  1  0
 20 62  1  0
 21 63  1  0
 21 64  1  0
 22 65  1  6
 23 66  1  0
 25 67  1  0
 25 68  1  0
 25 69  1  0
 26 70  1  0
 26 71  1  0
 26 72  1  0
 28 73  1  0
 28 74  1  0
 28 75  1  0
 29 76  1  0
 29 77  1  0
 30 78  1  0
 30 79  1  0
 32 80  1  0
 32 81  1  0
 32 82  1  0
M  END
>  <meeko>  (13) 
{"is_sidechain": [false], "intermolecular_energy": 2.731, "internal_energy": -0.839}

$$$$
EPH_relaxed_0001_pdb2pqr_Repair_78_r2_0001_out
     RDKit          3D

 82 86  0  0  0  0  0  0  0  0999 V2000
   -0.2400   18.0350   -1.8640 C   0  0  0  0  0  0  0  0  0  0  0  0
    1.1340   17.6210   -1.3320 C   0  0  2  0  0  0  0  0  0  0  0  0
    2.2640   18.5160   -1.8810 C   0  0  0  0  0  0  0  0  0  0  0  0
    2.3500   19.8850   -1.2010 C   0  0  0  0  0  0  0  0  0  0  0  0
    2.9380   19.7850    0.1740 C   0  0  2  0  0  0  0  0  0  0  0  0
    2.6090   18.5810    0.8800 O   0  0  0  0  0  0  0  0  0  0  0  0
    2.1060   19.8030    1.4430 C   0  0  0  0  0  0  0  0  0  0  0  0
    0.6150   19.9260    1.3970 C   0  0  0  0  0  0  0  0  0  0  0  0
    2.7690   20.1930    2.7270 C   0  0  0  0  0  0  0  0  0  0  0  0
    1.4090   16.1630   -1.6800 C   0  0  1  0  0  0  0  0  0  0  0  0
    2.8810   15.9170   -2.1070 C   0  0  0  0  0  0  0  0  0  0  0  0
    3.2690   14.5100   -1.5860 C   0  0  0  0  0  0  0  0  0  0  0  0
    1.9260   13.8620   -1.1740 C   0  0  1  0  0  0  0  0  0  0  0  0
    1.3080   13.3370   -2.5080 C   0  0  0  0  0  0  0  0  0  0  0  0
    2.0050   12.7370   -0.0920 C   0  0  2  0  0  0  0  0  0  0  0  0
    2.8110   11.4920   -0.5020 C   0  0  0  0  0  0  0  0  0  0  0  0
    2.0220   10.4110   -1.1640 C   0  0  0  0  0  0  0  0  0  0  0  0
    0.6800   10.3120   -1.1650 C   0  0  0  0  0  0  0  0  0  0  0  0
   -0.1840   11.2980   -0.3690 C   0  0  1  0  0  0  0  0  0  0  0  0
   -1.2610   10.5160    0.4290 C   0  0  0  0  0  0  0  0  0  0  0  0
   -2.0940    9.5960   -0.4590 C   0  0  0  0  0  0  0  0  0  0  0  0
   -1.2050    8.5920   -1.1900 C   0  0  2  0  0  0  0  0  0  0  0  0
   -0.6310    7.7010   -0.2290 O   0  0  0  0  0  0  0  0  0  0  0  0
   -0.0760    9.2640   -2.0200 C   0  0  0  0  0  0  0  0  0  0  0  0
   -0.6900    9.9880   -3.2440 C   0  0  0  0  0  0  0  0  0  0  0  0
    0.8310    8.1410   -2.5900 C   0  0  0  0  0  0  0  0  0  0  0  0
    0.6060   12.3400    0.5340 C   0  0  1  0  0  0  0  0  0  0  0  0
    0.9050   11.7150    1.9310 C   0  0  0  0  0  0  0  0  0  0  0  0
   -0.3100   13.5940    0.7940 C   0  0  0  0  0  0  0  0  0  0  0  0
   -0.2540   14.7240   -0.2500 C   0  0  0  0  0  0  0  0  0  0  0  0
    1.1950   15.1120   -0.5620 C   0  0  2  0  0  0  0  0  0  0  0  0
    1.8360   15.6650    0.7570 C   0  0  0  0  0  0  0  0  0  0  0  0
   -0.9144   18.2382   -1.0190 H   0  0  0  0  0  0  0  0  0  0  0  0
   -0.1375   18.9421   -2.4777 H   0  0  0  0  0  0  0  0  0  0  0  0
   -0.6557   17.2222   -2.4777 H   0  0  0  0  0  0  0  0  0  0  0  0
    1.1161   17.7453   -0.2392 H   0  0  0  0  0  0  0  0  0  0  0  0
    3.2217   17.9949   -1.7350 H   0  0  0  0  0  0  0  0  0  0  0  0
    2.0428   18.6979   -2.9431 H   0  0  0  0  0  0  0  0  0  0  0  0
    2.9815   20.5472   -1.8115 H   0  0  0  0  0  0  0  0  0  0  0  0
    1.3302   20.2871   -1.1094 H   0  0  0  0  0  0  0  0  0  0  0  0
    3.8225   20.3603   -0.1368 H   0  0  0  0  0  0  0  0  0  0  0  0
    0.2180   19.9588    2.4223 H   0  0  0  0  0  0  0  0  0  0  0  0
    0.3395   20.8499    0.8674 H   0  0  0  0  0  0  0  0  0  0  0  0
    0.1918   19.0597    0.8674 H   0  0  0  0  0  0  0  0  0  0  0  0
    2.1646   19.8375    3.5745 H   0  0  0  0  0  0  0  0  0  0  0  0
    3.7702   19.7399    2.7751 H   0  0  0  0  0  0  0  0  0  0  0  0
    2.8595   21.2882    2.7751 H   0  0  0  0  0  0  0  0  0  0  0  0
    0.6648   16.0213   -2.4776 H   0  0  0  0  0  0  0  0  0  0  0  0
    2.9684   15.9524   -3.2030 H   0  0  0  0  0  0  0  0  0  0  0  0
    3.5464   16.6887   -1.6927 H   0  0  0  0  0  0  0  0  0  0  0  0
    3.7562   13.9232   -2.3786 H   0  0  0  0  0  0  0  0  0  0  0  0
    3.9830   14.5569   -0.7505 H   0  0  0  0  0  0  0  0  0  0  0  0
    0.4875   12.6399   -2.2826 H   0  0  0  0  0  0  0  0  0  0  0  0
    0.9191   14.1851   -3.0907 H   0  0  0  0  0  0  0  0  0  0  0  0
    2.0820   12.8161   -3.0907 H   0  0  0  0  0  0  0  0  0  0  0  0
    2.5871   13.2193    0.7071 H   0  0  0  0  0  0  0  0  0  0  0  0
    3.6000   11.8121   -1.1984 H   0  0  0  0  0  0  0  0  0  0  0  0
    3.1973   11.0583    0.4322 H   0  0  0  0  0  0  0  0  0  0  0  0
    2.5851    9.6298   -1.6956 H   0  0  0  0  0  0  0  0  0  0  0  0
   -0.6683   11.9469   -1.1136 H   0  0  0  0  0  0  0  0  0  0  0  0
   -0.7591    9.9069    1.1952 H   0  0  0  0  0  0  0  0  0  0  0  0
   -1.9428   11.2522    0.8797 H   0  0  0  0  0  0  0  0  0  0  0  0
   -2.8161    9.0496    0.1656 H   0  0  0  0  0  0  0  0  0  0  0  0
   -2.6189   10.2096   -1.2060 H   0  0  0  0  0  0  0  0  0  0  0  0
   -1.8392    8.0492   -1.9063 H   0  0  0  0  0  0  0  0  0  0  0  0
   -1.2150    6.9270   -0.1590 H   0  0  0  0  0  0  0  0  0  0  0  0
   -1.3654   10.7844   -2.8981 H   0  0  0  0  0  0  0  0  0  0  0  0
    0.1147   10.4278   -3.8515 H   0  0  0  0  0  0  0  0  0  0  0  0
   -1.2553    9.2660   -3.8515 H   0  0  0  0  0  0  0  0  0  0  0  0
    1.2846    7.5794   -1.7601 H   0  0  0  0  0  0  0  0  0  0  0  0
    0.2269    7.4595   -3.2070 H   0  0  0  0  0  0  0  0  0  0  0  0
    1.6243    8.5882   -3.2070 H   0  0  0  0  0  0  0  0  0  0  0  0
    0.5743   12.4062    2.7203 H   0  0  0  0  0  0  0  0  0  0  0  0
    0.3656   10.7614    2.0291 H   0  0  0  0  0  0  0  0  0  0  0  0
    1.9860   11.5366    2.0291 H   0  0  0  0  0  0  0  0  0  0  0  0
   -1.3504   13.2408    0.8463 H   0  0  0  0  0  0  0  0  0  0  0  0
    0.0726   14.0418    1.7230 H   0  0  0  0  0  0  0  0  0  0  0  0
   -0.7424   14.3837   -1.1750 H   0  0  0  0  0  0  0  0  0  0  0  0
   -0.7724   15.6042    0.1581 H   0  0  0  0  0  0  0  0  0  0  0  0
    1.3251   15.2243    1.6258 H   0  0  0  0  0  0  0  0  0  0  0  0
    2.9031   15.3994    0.7855 H   0  0  0  0  0  0  0  0  0  0  0  0
    1.7297   16.7595    0.7855 H   0  0  0  0  0  0  0  0  0  0  0  0
  1  2  1  0
  2  3  1  0
  3  4  1  0
  4  5  1  0
  5  6  1  0
  6  7  1  0
  7  8  1  0
  7  9  1  0
  2 10  1  0
 10 11  1  0
 11 12  1  0
 12 13  1  0
 13 14  1  6
 13 15  1  0
 15 16  1  0
 16 17  1  0
 17 18  2  0
 18 19  1  0
 19 20  1  0
 20 21  1  0
 21 22  1  0
 22 23  1  0
 22 24  1  0
 24 25  1  0
 24 26  1  0
 19 27  1  0
 27 28  1  1
 27 29  1  0
 29 30  1  0
 30 31  1  0
 31 32  1  1
  7  5  1  0
 31 10  1  0
 31 13  1  0
 27 15  1  0
 24 18  1  0
  1 33  1  0
  1 34  1  0
  1 35  1  0
  2 36  1  1
  3 37  1  0
  3 38  1  0
  4 39  1  0
  4 40  1  0
  5 41  1  1
  8 42  1  0
  8 43  1  0
  8 44  1  0
  9 45  1  0
  9 46  1  0
  9 47  1  0
 10 48  1  6
 11 49  1  0
 11 50  1  0
 12 51  1  0
 12 52  1  0
 14 53  1  0
 14 54  1  0
 14 55  1  0
 15 56  1  1
 16 57  1  0
 16 58  1  0
 17 59  1  0
 19 60  1  6
 20 61  1  0
 20 62  1  0
 21 63  1  0
 21 64  1  0
 22 65  1  6
 23 66  1  0
 25 67  1  0
 25 68  1  0
 25 69  1  0
 26 70  1  0
 26 71  1  0
 26 72  1  0
 28 73  1  0
 28 74  1  0
 28 75  1  0
 29 76  1  0
 29 77  1  0
 30 78  1  0
 30 79  1  0
 32 80  1  0
 32 81  1  0
 32 82  1  0
M  END
>  <meeko>  (14) 
{"is_sidechain": [false], "intermolecular_energy": 2.731, "internal_energy": -0.839}

$$$$
EPH_relaxed_0001_pdb2pqr_Repair_78_r2_0001_out
     RDKit          3D

 82 86  0  0  0  0  0  0  0  0999 V2000
    0.8870   14.8190   -2.6800 C   0  0  0  0  0  0  0  0  0  0  0  0
    1.1530   14.1280   -4.0210 C   0  0  2  0  0  0  0  0  0  0  0  0
    0.4570   14.8480   -5.1930 C   0  0  0  0  0  0  0  0  0  0  0  0
    1.1190   14.5960   -6.5500 C   0  0  0  0  0  0  0  0  0  0  0  0
    0.8990   15.7390   -7.4950 C   0  0  2  0  0  0  0  0  0  0  0  0
    0.3600   15.3660   -8.7700 O   0  0  0  0  0  0  0  0  0  0  0  0
    1.6840   15.9250   -8.7800 C   0  0  0  0  0  0  0  0  0  0  0  0
    2.7490   14.9570   -9.1910 C   0  0  0  0  0  0  0  0  0  0  0  0
    1.7560   17.2930   -9.3830 C   0  0  0  0  0  0  0  0  0  0  0  0
    0.6950   12.6750   -3.9570 C   0  0  1  0  0  0  0  0  0  0  0  0
    1.8250   11.6760   -4.3230 C   0  0  0  0  0  0  0  0  0  0  0  0
    1.6150   10.4200   -3.4400 C   0  0  0  0  0  0  0  0  0  0  0  0
    0.1990   10.5950   -2.8430 C   0  0  1  0  0  0  0  0  0  0  0  0
   -0.7720   10.1200   -3.9690 C   0  0  0  0  0  0  0  0  0  0  0  0
   -0.0790    9.8570   -1.4930 C   0  0  2  0  0  0  0  0  0  0  0  0
    0.0200    8.3220   -1.5560 C   0  0  0  0  0  0  0  0  0  0  0  0
   -1.2540    7.6150   -1.8810 C   0  0  0  0  0  0  0  0  0  0  0  0
   -2.4850    8.1580   -1.8330 C   0  0  0  0  0  0  0  0  0  0  0  0
   -2.6940    9.5900   -1.3260 C   0  0  1  0  0  0  0  0  0  0  0  0
   -3.8800    9.6180   -0.3260 C   0  0  0  0  0  0  0  0  0  0  0  0
   -5.1530    9.0140   -0.9120 C   0  0  0  0  0  0  0  0  0  0  0  0
   -4.9200    7.5700   -1.3510 C   0  0  2  0  0  0  0  0  0  0  0  0
   -4.6720    6.7700   -0.1900 O   0  0  0  0  0  0  0  0  0  0  0  0
   -3.7410    7.4170   -2.3520 C   0  0  0  0  0  0  0  0  0  0  0  0
   -4.1370    8.0300   -3.7190 C   0  0  0  0  0  0  0  0  0  0  0  0
   -3.5230    5.9010   -2.6040 C   0  0  0  0  0  0  0  0  0  0  0  0
   -1.4020   10.3210   -0.7600 C   0  0  1  0  0  0  0  0  0  0  0  0
   -1.2170    9.9810    0.7510 C   0  0  0  0  0  0  0  0  0  0  0  0
   -1.6150   11.8790   -0.8410 C   0  0  0  0  0  0  0  0  0  0  0  0
   -1.2110   12.5680   -2.1590 C   0  0  0  0  0  0  0  0  0  0  0  0
    0.1980   12.1460   -2.5880 C   0  0  2  0  0  0  0  0  0  0  0  0
    1.1990   12.6300   -1.4850 C   0  0  0  0  0  0  0  0  0  0  0  0
    1.1495   14.1371   -1.8577 H   0  0  0  0  0  0  0  0  0  0  0  0
    1.4984   15.7307   -2.6097 H   0  0  0  0  0  0  0  0  0  0  0  0
   -0.1779   15.0854   -2.6097 H   0  0  0  0  0  0  0  0  0  0  0  0
    2.2367   14.1687   -4.2050 H   0  0  0  0  0  0  0  0  0  0  0  0
   -0.5851   14.4997   -5.2449 H   0  0  0  0  0  0  0  0  0  0  0  0
    0.5292   15.9277   -4.9955 H   0  0  0  0  0  0  0  0  0  0  0  0
    2.2003   14.4609   -6.3996 H   0  0  0  0  0  0  0  0  0  0  0  0
    0.6667   13.6951   -6.9902 H   0  0  0  0  0  0  0  0  0  0  0  0
    0.6811   16.4195   -6.6587 H   0  0  0  0  0  0  0  0  0  0  0  0
    3.2206   14.5283   -8.2945 H   0  0  0  0  0  0  0  0  0  0  0  0
    2.3004   14.1510   -9.7903 H   0  0  0  0  0  0  0  0  0  0  0  0
    3.5086   15.4803   -9.7903 H   0  0  0  0  0  0  0  0  0  0  0  0
    1.7956   18.0454   -8.5815 H   0  0  0  0  0  0  0  0  0  0  0  0
    2.6596   17.3723  -10.0053 H   0  0  0  0  0  0  0  0  0  0  0  0
    0.8658   17.4667  -10.0053 H   0  0  0  0  0  0  0  0  0  0  0  0
   -0.1402   12.7130   -4.6718 H   0  0  0  0  0  0  0  0  0  0  0  0
    1.7615   11.4056   -5.3874 H   0  0  0  0  0  0  0  0  0  0  0  0
    2.8162   12.1199   -4.1487 H   0  0  0  0  0  0  0  0  0  0  0  0
    1.6699    9.5046   -4.0475 H   0  0  0  0  0  0  0  0  0  0  0  0
    2.3866   10.3233   -2.6620 H   0  0  0  0  0  0  0  0  0  0  0  0
   -1.6721    9.6797   -3.5153 H   0  0  0  0  0  0  0  0  0  0  0  0
   -1.0587   10.9796   -4.5926 H   0  0  0  0  0  0  0  0  0  0  0  0
   -0.2694    9.3660   -4.5926 H   0  0  0  0  0  0  0  0  0  0  0  0
    0.7638   10.1858   -0.8673 H   0  0  0  0  0  0  0  0  0  0  0  0
    0.7604    8.0602   -2.3263 H   0  0  0  0  0  0  0  0  0  0  0  0
    0.3020    7.9929   -0.5450 H   0  0  0  0  0  0  0  0  0  0  0  0
   -1.1807    6.5606   -2.1856 H   0  0  0  0  0  0  0  0  0  0  0  0
   -2.9390   10.1930   -2.2128 H   0  0  0  0  0  0  0  0  0  0  0  0
   -3.5988    9.0465    0.5708 H   0  0  0  0  0  0  0  0  0  0  0  0
   -4.0896   10.6707   -0.0855 H   0  0  0  0  0  0  0  0  0  0  0  0
   -5.9455    9.0350   -0.1495 H   0  0  0  0  0  0  0  0  0  0  0  0
   -5.4495    9.6048   -1.7912 H   0  0  0  0  0  0  0  0  0  0  0  0
   -5.8252    7.2351   -1.8788 H   0  0  0  0  0  0  0  0  0  0  0  0
   -4.4110    7.3690    0.5300 H   0  0  0  0  0  0  0  0  0  0  0  0
   -4.7271    8.9435   -3.5540 H   0  0  0  0  0  0  0  0  0  0  0  0
   -3.2281    8.2782   -4.2867 H   0  0  0  0  0  0  0  0  0  0  0  0
   -4.7369    7.3035   -4.2867 H   0  0  0  0  0  0  0  0  0  0  0  0
   -3.4475    5.3762   -1.6402 H   0  0  0  0  0  0  0  0  0  0  0  0
   -4.3725    5.4984   -3.1752 H   0  0  0  0  0  0  0  0  0  0  0  0
   -2.5945    5.7540   -3.1752 H   0  0  0  0  0  0  0  0  0  0  0  0
   -1.6537   10.7835    1.3636 H   0  0  0  0  0  0  0  0  0  0  0  0
   -1.7223    9.0306    0.9775 H   0  0  0  0  0  0  0  0  0  0  0  0
   -0.1445    9.8891    0.9775 H   0  0  0  0  0  0  0  0  0  0  0  0
   -2.6842   12.0777   -0.6757 H   0  0  0  0  0  0  0  0  0  0  0  0
   -0.9443   12.3012   -0.0782 H   0  0  0  0  0  0  0  0  0  0  0  0
   -1.9262   12.2870   -2.9461 H   0  0  0  0  0  0  0  0  0  0  0  0
   -1.2191   13.6568   -2.0028 H   0  0  0  0  0  0  0  0  0  0  0  0
    0.7758   12.4254   -0.4905 H   0  0  0  0  0  0  0  0  0  0  0  0
    2.1531   12.0937   -1.5949 H   0  0  0  0  0  0  0  0  0  0  0  0
    1.3712   13.7109   -1.5949 H   0  0  0  0  0  0  0  0  0  0  0  0
  1  2  1  0
  2  3  1  0
  3  4  1  0
  4  5  1  0
  5  6  1  0
  6  7  1  0
  7  8  1  0
  7  9  1  0
  2 10  1  0
 10 11  1  0
 11 12  1  0
 12 13  1  0
 13 14  1  6
 13 15  1  0
 15 16  1  0
 16 17  1  0
 17 18  2  0
 18 19  1  0
 19 20  1  0
 20 21  1  0
 21 22  1  0
 22 23  1  0
 22 24  1  0
 24 25  1  0
 24 26  1  0
 19 27  1  0
 27 28  1  1
 27 29  1  0
 29 30  1  0
 30 31  1  0
 31 32  1  1
  7  5  1  0
 31 10  1  0
 31 13  1  0
 27 15  1  0
 24 18  1  0
  1 33  1  0
  1 34  1  0
  1 35  1  0
  2 36  1  6
  3 37  1  0
  3 38  1  0
  4 39  1  0
  4 40  1  0
  5 41  1  1
  8 42  1  0
  8 43  1  0
  8 44  1  0
  9 45  1  0
  9 46  1  0
  9 47  1  0
 10 48  1  6
 11 49  1  0
 11 50  1  0
 12 51  1  0
 12 52  1  0
 14 53  1  0
 14 54  1  0
 14 55  1  0
 15 56  1  1
 16 57  1  0
 16 58  1  0
 17 59  1  0
 19 60  1  6
 20 61  1  0
 20 62  1  0
 21 63  1  0
 21 64  1  0
 22 65  1  6
 23 66  1  0
 25 67  1  0
 25 68  1  0
 25 69  1  0
 26 70  1  0
 26 71  1  0
 26 72  1  0
 28 73  1  0
 28 74  1  0
 28 75  1  0
 29 76  1  0
 29 77  1  0
 30 78  1  0
 30 79  1  0
 32 80  1  0
 32 81  1  0
 32 82  1  0
M  END
>  <meeko>  (15) 
{"is_sidechain": [false], "intermolecular_energy": 2.731, "internal_energy": -0.839}

$$$$
EPH_relaxed_0001_pdb2pqr_Repair_78_r2_0001_out
     RDKit          3D

 82 86  0  0  0  0  0  0  0  0999 V2000
   -0.0590    9.3170   -4.1830 C   0  0  0  0  0  0  0  0  0  0  0  0
    0.0900    9.5210   -2.6720 C   0  0  2  0  0  0  0  0  0  0  0  0
   -0.7190    8.4870   -1.8640 C   0  0  0  0  0  0  0  0  0  0  0  0
   -2.2310    8.5750   -2.0910 C   0  0  0  0  0  0  0  0  0  0  0  0
   -2.7760    7.3140   -2.6900 C   0  0  2  0  0  0  0  0  0  0  0  0
   -3.8060    7.5120   -3.6670 O   0  0  0  0  0  0  0  0  0  0  0  0
   -4.1950    6.8260   -2.4660 C   0  0  0  0  0  0  0  0  0  0  0  0
   -5.1580    7.5920   -1.6130 C   0  0  0  0  0  0  0  0  0  0  0  0
   -4.4940    5.3740   -2.6700 C   0  0  0  0  0  0  0  0  0  0  0  0
   -0.3440   10.9330   -2.2940 C   0  0  1  0  0  0  0  0  0  0  0  0
   -1.5580   10.9450   -1.3260 C   0  0  0  0  0  0  0  0  0  0  0  0
   -1.3580   12.1530   -0.3740 C   0  0  0  0  0  0  0  0  0  0  0  0
   -0.2270   12.9820   -1.0270 C   0  0  1  0  0  0  0  0  0  0  0  0
   -0.9340   13.8160   -2.1420 C   0  0  0  0  0  0  0  0  0  0  0  0
    0.6060   13.8910   -0.0670 C   0  0  2  0  0  0  0  0  0  0  0  0
   -0.1930   15.0000    0.6390 C   0  0  0  0  0  0  0  0  0  0  0  0
   -0.2530   16.3030   -0.0870 C   0  0  0  0  0  0  0  0  0  0  0  0
    0.5400   16.6650   -1.1130 C   0  0  0  0  0  0  0  0  0  0  0  0
    1.6870   15.7580   -1.5780 C   0  0  1  0  0  0  0  0  0  0  0  0
    2.9720   16.6060   -1.7700 C   0  0  0  0  0  0  0  0  0  0  0  0
    2.7550   17.7960   -2.6990 C   0  0  0  0  0  0  0  0  0  0  0  0
    1.6470   18.7050   -2.1720 C   0  0  2  0  0  0  0  0  0  0  0  0
    2.0870   19.3090   -0.9520 O   0  0  0  0  0  0  0  0  0  0  0  0
    0.3050   17.9580   -1.9310 C   0  0  0  0  0  0  0  0  0  0  0  0
   -0.3230   17.5650   -3.2910 C   0  0  0  0  0  0  0  0  0  0  0  0
   -0.6840   18.9540   -1.2680 C   0  0  0  0  0  0  0  0  0  0  0  0
    1.9400   14.4560   -0.7040 C   0  0  1  0  0  0  0  0  0  0  0  0
    2.8940   14.7890    0.4840 C   0  0  0  0  0  0  0  0  0  0  0  0
    2.6840   13.3820   -1.5830 C   0  0  0  0  0  0  0  0  0  0  0  0
    1.8010   12.4350   -2.4180 C   0  0  0  0  0  0  0  0  0  0  0  0
    0.6910   11.8220   -1.5600 C   0  0  2  0  0  0  0  0  0  0  0  0
    1.3710   10.9590   -0.4430 C   0  0  0  0  0  0  0  0  0  0  0  0
   -0.6980    8.4422   -4.3736 H   0  0  0  0  0  0  0  0  0  0  0  0
   -0.5183   10.2109   -4.6302 H   0  0  0  0  0  0  0  0  0  0  0  0
    0.9323    9.1514   -4.6302 H   0  0  0  0  0  0  0  0  0  0  0  0
    1.1514    9.3780   -2.4212 H   0  0  0  0  0  0  0  0  0  0  0  0
   -0.3825    7.4803   -2.1527 H   0  0  0  0  0  0  0  0  0  0  0  0
   -0.5407    8.6999   -0.7996 H   0  0  0  0  0  0  0  0  0  0  0  0
   -2.7266    8.7542   -1.1254 H   0  0  0  0  0  0  0  0  0  0  0  0
   -2.4249    9.3996   -2.7927 H   0  0  0  0  0  0  0  0  0  0  0  0
   -1.8002    6.8164   -2.5885 H   0  0  0  0  0  0  0  0  0  0  0  0
   -4.9314    7.4118   -0.5518 H   0  0  0  0  0  0  0  0  0  0  0  0
   -5.0659    8.6664   -1.8303 H   0  0  0  0  0  0  0  0  0  0  0  0
   -6.1841    7.2606   -1.8303 H   0  0  0  0  0  0  0  0  0  0  0  0
   -4.5958    4.8798   -1.6926 H   0  0  0  0  0  0  0  0  0  0  0  0
   -5.4327    5.2686   -3.2337 H   0  0  0  0  0  0  0  0  0  0  0  0
   -3.6733    4.9063   -3.2337 H   0  0  0  0  0  0  0  0  0  0  0  0
   -0.5456   11.3395   -3.2961 H   0  0  0  0  0  0  0  0  0  0  0  0
   -2.4936   11.0601   -1.8929 H   0  0  0  0  0  0  0  0  0  0  0  0
   -1.6228   10.0032   -0.7614 H   0  0  0  0  0  0  0  0  0  0  0  0
   -2.2813   12.7463   -0.3003 H   0  0  0  0  0  0  0  0  0  0  0  0
   -1.1073   11.8397    0.6502 H   0  0  0  0  0  0  0  0  0  0  0  0
   -1.5788   14.5767   -1.6777 H   0  0  0  0  0  0  0  0  0  0  0  0
   -0.1755   14.3102   -2.7669 H   0  0  0  0  0  0  0  0  0  0  0  0
   -1.5457   13.1486   -2.7669 H   0  0  0  0  0  0  0  0  0  0  0  0
    0.9032   13.1872    0.7244 H   0  0  0  0  0  0  0  0  0  0  0  0
   -1.2233   14.6407    0.7783 H   0  0  0  0  0  0  0  0  0  0  0  0
    0.3345   15.2014    1.5830 H   0  0  0  0  0  0  0  0  0  0  0  0
   -1.0097   17.0293    0.2446 H   0  0  0  0  0  0  0  0  0  0  0  0
    1.3694   15.3372   -2.5434 H   0  0  0  0  0  0  0  0  0  0  0  0
    3.2974   16.9801   -0.7881 H   0  0  0  0  0  0  0  0  0  0  0  0
    3.7333   15.9586   -2.2296 H   0  0  0  0  0  0  0  0  0  0  0  0
    3.6895   18.3719   -2.7706 H   0  0  0  0  0  0  0  0  0  0  0  0
    2.4586   17.4190   -3.6890 H   0  0  0  0  0  0  0  0  0  0  0  0
    1.4494   19.4649   -2.9424 H   0  0  0  0  0  0  0  0  0  0  0  0
    2.0370   18.6330   -0.2540 H   0  0  0  0  0  0  0  0  0  0  0  0
   -1.2437   16.9888   -3.1169 H   0  0  0  0  0  0  0  0  0  0  0  0
   -0.5621   18.4749   -3.8610 H   0  0  0  0  0  0  0  0  0  0  0  0
    0.3908   16.9522   -3.8610 H   0  0  0  0  0  0  0  0  0  0  0  0
   -0.6055   18.8749   -0.1737 H   0  0  0  0  0  0  0  0  0  0  0  0
   -0.4363   19.9793   -1.5803 H   0  0  0  0  0  0  0  0  0  0  0  0
   -1.7110   18.7136   -1.5803 H   0  0  0  0  0  0  0  0  0  0  0  0
    2.3724   14.6069    1.4352 H   0  0  0  0  0  0  0  0  0  0  0  0
    3.7872   14.1495    0.4273 H   0  0  0  0  0  0  0  0  0  0  0  0
    3.1952   15.8454    0.4273 H   0  0  0  0  0  0  0  0  0  0  0  0
    3.3444   13.9208   -2.2784 H   0  0  0  0  0  0  0  0  0  0  0  0
    3.2037   12.7316   -0.8640 H   0  0  0  0  0  0  0  0  0  0  0  0
    1.3461   13.0018   -3.2437 H   0  0  0  0  0  0  0  0  0  0  0  0
    2.4307   11.6226   -2.8097 H   0  0  0  0  0  0  0  0  0  0  0  0
    1.0725   11.3378    0.5457 H   0  0  0  0  0  0  0  0  0  0  0  0
    1.0535    9.9108   -0.5452 H   0  0  0  0  0  0  0  0  0  0  0  0
    2.4644   11.0225   -0.5452 H   0  0  0  0  0  0  0  0  0  0  0  0
  1  2  1  0
  2  3  1  0
  3  4  1  0
  4  5  1  0
  5  6  1  0
  6  7  1  0
  7  8  1  0
  7  9  1  0
  2 10  1  0
 10 11  1  0
 11 12  1  0
 12 13  1  0
 13 14  1  6
 13 15  1  0
 15 16  1  0
 16 17  1  0
 17 18  2  0
 18 19  1  0
 19 20  1  0
 20 21  1  0
 21 22  1  0
 22 23  1  0
 22 24  1  0
 24 25  1  0
 24 26  1  0
 19 27  1  0
 27 28  1  1
 27 29  1  0
 29 30  1  0
 30 31  1  0
 31 32  1  1
  7  5  1  0
 31 10  1  0
 31 13  1  0
 27 15  1  0
 24 18  1  0
  1 33  1  0
  1 34  1  0
  1 35  1  0
  2 36  1  1
  3 37  1  0
  3 38  1  0
  4 39  1  0
  4 40  1  0
  5 41  1  6
  8 42  1  0
  8 43  1  0
  8 44  1  0
  9 45  1  0
  9 46  1  0
  9 47  1  0
 10 48  1  6
 11 49  1  0
 11 50  1  0
 12 51  1  0
 12 52  1  0
 14 53  1  0
 14 54  1  0
 14 55  1  0
 15 56  1  1
 16 57  1  0
 16 58  1  0
 17 59  1  0
 19 60  1  6
 20 61  1  0
 20 62  1  0
 21 63  1  0
 21 64  1  0
 22 65  1  6
 23 66  1  0
 25 67  1  0
 25 68  1  0
 25 69  1  0
 26 70  1  0
 26 71  1  0
 26 72  1  0
 28 73  1  0
 28 74  1  0
 28 75  1  0
 29 76  1  0
 29 77  1  0
 30 78  1  0
 30 79  1  0
 32 80  1  0
 32 81  1  0
 32 82  1  0
M  END
>  <meeko>  (16) 
{"is_sidechain": [false], "intermolecular_energy": 2.731, "internal_energy": -0.839}

$$$$
EPH_relaxed_0001_pdb2pqr_Repair_78_r2_0001_out
     RDKit          3D

 82 86  0  0  0  0  0  0  0  0999 V2000
   -0.1780   17.3280   -3.4260 C   0  0  0  0  0  0  0  0  0  0  0  0
    0.1110   17.1620   -1.9310 C   0  0  2  0  0  0  0  0  0  0  0  0
    0.6000   18.4730   -1.2850 C   0  0  0  0  0  0  0  0  0  0  0  0
    0.5440   18.4640    0.2450 C   0  0  0  0  0  0  0  0  0  0  0  0
    1.4340   19.5130    0.8390 C   0  0  2  0  0  0  0  0  0  0  0  0
    2.4040   20.0570   -0.0650 O   0  0  0  0  0  0  0  0  0  0  0  0
    2.9240   19.3220    1.0540 C   0  0  0  0  0  0  0  0  0  0  0  0
    3.6090   18.0450    0.6780 C   0  0  0  0  0  0  0  0  0  0  0  0
    3.6160   20.1770    2.0690 C   0  0  0  0  0  0  0  0  0  0  0  0
    1.1430   16.0600   -1.7200 C   0  0  1  0  0  0  0  0  0  0  0  0
    1.2530   15.6210   -0.2360 C   0  0  0  0  0  0  0  0  0  0  0  0
    1.5450   14.0980   -0.2410 C   0  0  0  0  0  0  0  0  0  0  0  0
    1.9210   13.7780   -1.7060 C   0  0  1  0  0  0  0  0  0  0  0  0
    3.4200   14.1930   -1.8360 C   0  0  0  0  0  0  0  0  0  0  0  0
    1.6880   12.3040   -2.1730 C   0  0  2  0  0  0  0  0  0  0  0  0
    2.5170   11.2440   -1.4250 C   0  0  0  0  0  0  0  0  0  0  0  0
    3.8450   10.9290   -2.0300 C   0  0  0  0  0  0  0  0  0  0  0  0
    4.2350   11.2590   -3.2750 C   0  0  0  0  0  0  0  0  0  0  0  0
    3.2640   11.9350   -4.2520 C   0  0  1  0  0  0  0  0  0  0  0  0
    3.3470   11.2340   -5.6330 C   0  0  0  0  0  0  0  0  0  0  0  0
    4.7720   11.1750   -6.1740 C   0  0  0  0  0  0  0  0  0  0  0  0
    5.6950   10.4440   -5.2020 C   0  0  2  0  0  0  0  0  0  0  0  0
    5.3030    9.0700   -5.1400 O   0  0  0  0  0  0  0  0  0  0  0  0
    5.6870   11.0560   -3.7730 C   0  0  0  0  0  0  0  0  0  0  0  0
    6.3910   12.4350   -3.7930 C   0  0  0  0  0  0  0  0  0  0  0  0
    6.5470   10.1430   -2.8590 C   0  0  0  0  0  0  0  0  0  0  0  0
    1.7680   12.0990   -3.7400 C   0  0  1  0  0  0  0  0  0  0  0  0
    0.9500   10.8120   -4.0640 C   0  0  0  0  0  0  0  0  0  0  0  0
    1.0800   13.2730   -4.5320 C   0  0  0  0  0  0  0  0  0  0  0  0
    1.2460   14.6920   -3.9550 C   0  0  0  0  0  0  0  0  0  0  0  0
    0.9120   14.7190   -2.4610 C   0  0  2  0  0  0  0  0  0  0  0  0
   -0.5960   14.3260   -2.3000 C   0  0  0  0  0  0  0  0  0  0  0  0
   -1.1249   17.8719   -3.5582 H   0  0  0  0  0  0  0  0  0  0  0  0
    0.6390   17.8945   -3.8967 H   0  0  0  0  0  0  0  0  0  0  0  0
   -0.2556   16.3368   -3.8967 H   0  0  0  0  0  0  0  0  0  0  0  0
   -0.8337   16.8851   -1.4403 H   0  0  0  0  0  0  0  0  0  0  0  0
    1.6419   18.6444   -1.5933 H   0  0  0  0  0  0  0  0  0  0  0  0
   -0.0757   19.2710   -1.6265 H   0  0  0  0  0  0  0  0  0  0  0  0
   -0.4915   18.6524    0.5648 H   0  0  0  0  0  0  0  0  0  0  0  0
    0.8923   17.4810    0.5948 H   0  0  0  0  0  0  0  0  0  0  0  0
    0.6290   19.8505    1.5084 H   0  0  0  0  0  0  0  0  0  0  0  0
    3.8999   17.5027    1.5898 H   0  0  0  0  0  0  0  0  0  0  0  0
    2.9237   17.4225    0.0840 H   0  0  0  0  0  0  0  0  0  0  0  0
    4.5067   18.2716    0.0840 H   0  0  0  0  0  0  0  0  0  0  0  0
    3.3431   19.8398    3.0798 H   0  0  0  0  0  0  0  0  0  0  0  0
    4.7049   20.0948    1.9366 H   0  0  0  0  0  0  0  0  0  0  0  0
    3.3086   21.2248    1.9366 H   0  0  0  0  0  0  0  0  0  0  0  0
    2.0352   16.5628   -2.1215 H   0  0  0  0  0  0  0  0  0  0  0  0
    2.0725   16.1623    0.2595 H   0  0  0  0  0  0  0  0  0  0  0  0
    0.3255   15.8437    0.3118 H   0  0  0  0  0  0  0  0  0  0  0  0
    2.3797   13.8604    0.4349 H   0  0  0  0  0  0  0  0  0  0  0  0
    0.6851   13.5072    0.1076 H   0  0  0  0  0  0  0  0  0  0  0  0
    3.8554   14.3135   -0.8331 H   0  0  0  0  0  0  0  0  0  0  0  0
    3.9702   13.4134   -2.3833 H   0  0  0  0  0  0  0  0  0  0  0  0
    3.4909   15.1446   -2.3833 H   0  0  0  0  0  0  0  0  0  0  0  0
    0.6422   12.1274   -1.8814 H   0  0  0  0  0  0  0  0  0  0  0  0
    2.6877   11.6067   -0.4007 H   0  0  0  0  0  0  0  0  0  0  0  0
    1.9331   10.3129   -1.4713 H   0  0  0  0  0  0  0  0  0  0  0  0
    4.5656   10.3808   -1.4053 H   0  0  0  0  0  0  0  0  0  0  0  0
    3.6007   12.9783   -4.3424 H   0  0  0  0  0  0  0  0  0  0  0  0
    2.9658   10.2072   -5.5308 H   0  0  0  0  0  0  0  0  0  0  0  0
    2.7445   11.8207   -6.3421 H   0  0  0  0  0  0  0  0  0  0  0  0
    4.7697   10.6434   -7.1370 H   0  0  0  0  0  0  0  0  0  0  0  0
    5.1414   12.2031   -6.3030 H   0  0  0  0  0  0  0  0  0  0  0  0
    6.7225   10.5466   -5.5810 H   0  0  0  0  0  0  0  0  0  0  0  0
    5.8280    8.6460   -4.4390 H   0  0  0  0  0  0  0  0  0  0  0  0
    6.5638   12.7735   -2.7607 H   0  0  0  0  0  0  0  0  0  0  0  0
    7.3546   12.3472   -4.3162 H   0  0  0  0  0  0  0  0  0  0  0  0
    5.7547   13.1640   -4.3162 H   0  0  0  0  0  0  0  0  0  0  0  0
    6.3314   10.3719   -1.8049 H   0  0  0  0  0  0  0  0  0  0  0  0
    6.3058    9.0892   -3.0621 H   0  0  0  0  0  0  0  0  0  0  0  0
    7.6134   10.3208   -3.0621 H   0  0  0  0  0  0  0  0  0  0  0  0
    0.6420   10.3274   -3.1258 H   0  0  0  0  0  0  0  0  0  0  0  0
    0.0574   11.0820   -4.6474 H   0  0  0  0  0  0  0  0  0  0  0  0
    1.5734   10.1185   -4.6474 H   0  0  0  0  0  0  0  0  0  0  0  0
    1.4971   13.2769   -5.5499 H   0  0  0  0  0  0  0  0  0  0  0  0
    0.0014   13.0642   -4.4762 H   0  0  0  0  0  0  0  0  0  0  0  0
    2.2868   15.0186   -4.0970 H   0  0  0  0  0  0  0  0  0  0  0  0
    0.5552   15.3674   -4.4810 H   0  0  0  0  0  0  0  0  0  0  0  0
   -0.8458   14.2609   -1.2307 H   0  0  0  0  0  0  0  0  0  0  0  0
   -1.2270   15.0897   -2.7781 H   0  0  0  0  0  0  0  0  0  0  0  0
   -0.7740   13.3515   -2.7781 H   0  0  0  0  0  0  0  0  0  0  0  0
  1  2  1  0
  2  3  1  0
  3  4  1  0
  4  5  1  0
  5  6  1  0
  6  7  1  0
  7  8  1  0
  7  9  1  0
  2 10  1  0
 10 11  1  0
 11 12  1  0
 12 13  1  0
 13 14  1  1
 13 15  1  0
 15 16  1  0
 16 17  1  0
 17 18  2  0
 18 19  1  0
 19 20  1  0
 20 21  1  0
 21 22  1  0
 22 23  1  0
 22 24  1  0
 24 25  1  0
 24 26  1  0
 19 27  1  0
 27 28  1  1
 27 29  1  0
 29 30  1  0
 30 31  1  0
 31 32  1  6
  7  5  1  0
 31 10  1  0
 31 13  1  0
 27 15  1  0
 24 18  1  0
  1 33  1  0
  1 34  1  0
  1 35  1  0
  2 36  1  1
  3 37  1  0
  3 38  1  0
  4 39  1  0
  4 40  1  0
  5 41  1  1
  8 42  1  0
  8 43  1  0
  8 44  1  0
  9 45  1  0
  9 46  1  0
  9 47  1  0
 10 48  1  6
 11 49  1  0
 11 50  1  0
 12 51  1  0
 12 52  1  0
 14 53  1  0
 14 54  1  0
 14 55  1  0
 15 56  1  1
 16 57  1  0
 16 58  1  0
 17 59  1  0
 19 60  1  6
 20 61  1  0
 20 62  1  0
 21 63  1  0
 21 64  1  0
 22 65  1  6
 23 66  1  0
 25 67  1  0
 25 68  1  0
 25 69  1  0
 26 70  1  0
 26 71  1  0
 26 72  1  0
 28 73  1  0
 28 74  1  0
 28 75  1  0
 29 76  1  0
 29 77  1  0
 30 78  1  0
 30 79  1  0
 32 80  1  0
 32 81  1  0
 32 82  1  0
M  END
>  <meeko>  (17) 
{"is_sidechain": [false], "intermolecular_energy": 2.731, "internal_energy": -0.839}

$$$$
EPH_relaxed_0001_pdb2pqr_Repair_78_r2_0001_out
     RDKit          3D

 82 86  0  0  0  0  0  0  0  0999 V2000
    3.1500   14.8580   -7.5380 C   0  0  0  0  0  0  0  0  0  0  0  0
    1.6250   14.8890   -7.3970 C   0  0  2  0  0  0  0  0  0  0  0  0
    1.0050   16.1300   -8.0700 C   0  0  0  0  0  0  0  0  0  0  0  0
    1.9270   16.8020   -9.0910 C   0  0  0  0  0  0  0  0  0  0  0  0
    1.5870   16.4000  -10.4940 C   0  0  2  0  0  0  0  0  0  0  0  0
    0.9860   15.1040  -10.6160 O   0  0  0  0  0  0  0  0  0  0  0  0
    2.2760   15.2660  -11.2300 C   0  0  0  0  0  0  0  0  0  0  0  0
    3.3620   14.4630  -10.5840 C   0  0  0  0  0  0  0  0  0  0  0  0
    2.2370   15.2560  -12.7260 C   0  0  0  0  0  0  0  0  0  0  0  0
    1.2380   14.8470   -5.9240 C   0  0  1  0  0  0  0  0  0  0  0  0
   -0.0140   15.7080   -5.6100 C   0  0  0  0  0  0  0  0  0  0  0  0
   -0.7970   14.9690   -4.4940 C   0  0  0  0  0  0  0  0  0  0  0  0
    0.1860   13.8950   -3.9740 C   0  0  1  0  0  0  0  0  0  0  0  0
    1.1250   14.6560   -2.9850 C   0  0  0  0  0  0  0  0  0  0  0  0
   -0.4560   12.6360   -3.3060 C   0  0  2  0  0  0  0  0  0  0  0  0
   -1.2740   12.9180   -2.0340 C   0  0  0  0  0  0  0  0  0  0  0  0
   -0.5060   12.8570   -0.7550 C   0  0  0  0  0  0  0  0  0  0  0  0
    0.7150   12.3120   -0.6010 C   0  0  0  0  0  0  0  0  0  0  0  0
    1.4080   11.5920   -1.7640 C   0  0  1  0  0  0  0  0  0  0  0  0
    1.9900   10.2430   -1.2650 C   0  0  0  0  0  0  0  0  0  0  0  0
    2.9040   10.4120   -0.0550 C   0  0  0  0  0  0  0  0  0  0  0  0
    2.1620   11.0790    1.1000 C   0  0  2  0  0  0  0  0  0  0  0  0
    1.1450   10.1880    1.5700 O   0  0  0  0  0  0  0  0  0  0  0  0
    1.5240   12.4420    0.7130 C   0  0  0  0  0  0  0  0  0  0  0  0
    2.6390   13.4950    0.4950 C   0  0  0  0  0  0  0  0  0  0  0  0
    0.6890   12.9400    1.9240 C   0  0  0  0  0  0  0  0  0  0  0  0
    0.5490   11.4320   -3.0920 C   0  0  1  0  0  0  0  0  0  0  0  0
   -0.3180   10.1380   -3.0120 C   0  0  0  0  0  0  0  0  0  0  0  0
    1.5220   11.2410   -4.3140 C   0  0  0  0  0  0  0  0  0  0  0  0
    2.0280   12.5200   -5.0070 C   0  0  0  0  0  0  0  0  0  0  0  0
    0.8670   13.4670   -5.3250 C   0  0  2  0  0  0  0  0  0  0  0  0
   -0.0830   12.7370   -6.3350 C   0  0  0  0  0  0  0  0  0  0  0  0
    3.6105   14.8486   -6.5391 H   0  0  0  0  0  0  0  0  0  0  0  0
    3.4491   13.9536   -8.0881 H   0  0  0  0  0  0  0  0  0  0  0  0
    3.4856   15.7495   -8.0881 H   0  0  0  0  0  0  0  0  0  0  0  0
    1.2271   14.0015   -7.9108 H   0  0  0  0  0  0  0  0  0  0  0  0
    0.0831   15.8216   -8.5848 H   0  0  0  0  0  0  0  0  0  0  0  0
    0.8157   16.8660   -7.2747 H   0  0  0  0  0  0  0  0  0  0  0  0
    1.8259   17.8934   -8.9985 H   0  0  0  0  0  0  0  0  0  0  0  0
    2.9589   16.4826   -8.8834 H   0  0  0  0  0  0  0  0  0  0  0  0
    1.3890   17.4460  -10.7709 H   0  0  0  0  0  0  0  0  0  0  0  0
    3.2682   14.5324   -9.4902 H   0  0  0  0  0  0  0  0  0  0  0  0
    3.2739   13.4111  -10.8936 H   0  0  0  0  0  0  0  0  0  0  0  0
    4.3419   14.8555  -10.8936 H   0  0  0  0  0  0  0  0  0  0  0  0
    1.2232   14.9960  -13.0646 H   0  0  0  0  0  0  0  0  0  0  0  0
    2.5065   16.2523  -13.1065 H   0  0  0  0  0  0  0  0  0  0  0  0
    2.9526   14.5123  -13.1065 H   0  0  0  0  0  0  0  0  0  0  0  0
    2.1748   15.2113   -5.4772 H   0  0  0  0  0  0  0  0  0  0  0  0
    0.2903   16.7061   -5.2619 H   0  0  0  0  0  0  0  0  0  0  0  0
   -0.6365   15.8415   -6.5070 H   0  0  0  0  0  0  0  0  0  0  0  0
   -1.0741   15.6646   -3.6882 H   0  0  0  0  0  0  0  0  0  0  0  0
   -1.7363   14.5313   -4.8631 H   0  0  0  0  0  0  0  0  0  0  0  0
    0.8352   14.4212   -1.9502 H   0  0  0  0  0  0  0  0  0  0  0  0
    2.1661   14.3437   -3.1541 H   0  0  0  0  0  0  0  0  0  0  0  0
    1.0351   15.7392   -3.1541 H   0  0  0  0  0  0  0  0  0  0  0  0
   -1.1846   12.3127   -4.0640 H   0  0  0  0  0  0  0  0  0  0  0  0
   -1.7052   13.9260   -2.1237 H   0  0  0  0  0  0  0  0  0  0  0  0
   -2.0284   12.1197   -1.9742 H   0  0  0  0  0  0  0  0  0  0  0  0
   -0.9781   13.2946    0.1370 H   0  0  0  0  0  0  0  0  0  0  0  0
    2.2246   12.2542   -2.0877 H   0  0  0  0  0  0  0  0  0  0  0  0
    1.1568    9.5805   -0.9877 H   0  0  0  0  0  0  0  0  0  0  0  0
    2.5918    9.8167   -2.0811 H   0  0  0  0  0  0  0  0  0  0  0  0
    3.2592    9.4226    0.2688 H   0  0  0  0  0  0  0  0  0  0  0  0
    3.7526   11.0502   -0.3424 H   0  0  0  0  0  0  0  0  0  0  0  0
    2.9001   11.2909    1.8876 H   0  0  0  0  0  0  0  0  0  0  0  0
    1.5820    9.3710    1.8630 H   0  0  0  0  0  0  0  0  0  0  0  0
    3.0090   13.8445    1.4702 H   0  0  0  0  0  0  0  0  0  0  0  0
    3.4665   13.0412   -0.0700 H   0  0  0  0  0  0  0  0  0  0  0  0
    2.2332   14.3471   -0.0700 H   0  0  0  0  0  0  0  0  0  0  0  0
    1.1864   12.6433    2.8592 H   0  0  0  0  0  0  0  0  0  0  0  0
    0.6046   14.0361    1.8853 H   0  0  0  0  0  0  0  0  0  0  0  0
   -0.3155   12.4933    1.8853 H   0  0  0  0  0  0  0  0  0  0  0  0
   -0.4922    9.8780   -1.9575 H   0  0  0  0  0  0  0  0  0  0  0  0
   -1.2828   10.3116   -3.5111 H   0  0  0  0  0  0  0  0  0  0  0  0
    0.2095    9.3118   -3.5111 H   0  0  0  0  0  0  0  0  0  0  0  0
    2.4019   10.6870   -3.9550 H   0  0  0  0  0  0  0  0  0  0  0  0
    0.9263   10.7177   -5.0764 H   0  0  0  0  0  0  0  0  0  0  0  0
    2.7387   13.0325   -4.3420 H   0  0  0  0  0  0  0  0  0  0  0  0
    2.5186   12.2374   -5.9501 H   0  0  0  0  0  0  0  0  0  0  0  0
   -0.8353   12.1589   -5.7784 H   0  0  0  0  0  0  0  0  0  0  0  0
   -0.5875   13.4820   -6.9678 H   0  0  0  0  0  0  0  0  0  0  0  0
    0.5070   12.0577   -6.9678 H   0  0  0  0  0  0  0  0  0  0  0  0
  1  2  1  0
  2  3  1  0
  3  4  1  0
  4  5  1  0
  5  6  1  0
  6  7  1  0
  7  8  1  0
  7  9  1  0
  2 10  1  0
 10 11  1  0
 11 12  1  0
 12 13  1  0
 13 14  1  1
 13 15  1  0
 15 16  1  0
 16 17  1  0
 17 18  2  0
 18 19  1  0
 19 20  1  0
 20 21  1  0
 21 22  1  0
 22 23  1  0
 22 24  1  0
 24 25  1  0
 24 26  1  0
 19 27  1  0
 27 28  1  1
 27 29  1  0
 29 30  1  0
 30 31  1  0
 31 32  1  6
  7  5  1  0
 31 10  1  0
 31 13  1  0
 27 15  1  0
 24 18  1  0
  1 33  1  0
  1 34  1  0
  1 35  1  0
  2 36  1  6
  3 37  1  0
  3 38  1  0
  4 39  1  0
  4 40  1  0
  5 41  1  6
  8 42  1  0
  8 43  1  0
  8 44  1  0
  9 45  1  0
  9 46  1  0
  9 47  1  0
 10 48  1  1
 11 49  1  0
 11 50  1  0
 12 51  1  0
 12 52  1  0
 14 53  1  0
 14 54  1  0
 14 55  1  0
 15 56  1  6
 16 57  1  0
 16 58  1  0
 17 59  1  0
 19 60  1  6
 20 61  1  0
 20 62  1  0
 21 63  1  0
 21 64  1  0
 22 65  1  1
 23 66  1  0
 25 67  1  0
 25 68  1  0
 25 69  1  0
 26 70  1  0
 26 71  1  0
 26 72  1  0
 28 73  1  0
 28 74  1  0
 28 75  1  0
 29 76  1  0
 29 77  1  0
 30 78  1  0
 30 79  1  0
 32 80  1  0
 32 81  1  0
 32 82  1  0
M  END
>  <meeko>  (18) 
{"is_sidechain": [false], "intermolecular_energy": 2.731, "internal_energy": -0.839}

$$$$
EPH_relaxed_0001_pdb2pqr_Repair_78_r2_0001_out
     RDKit          3D

 82 86  0  0  0  0  0  0  0  0999 V2000
   -2.4170    7.7570    0.0310 C   0  0  0  0  0  0  0  0  0  0  0  0
   -3.1140    9.1180   -0.0500 C   0  0  2  0  0  0  0  0  0  0  0  0
   -4.5790    8.9940   -0.5150 C   0  0  0  0  0  0  0  0  0  0  0  0
   -5.0540    7.5470   -0.6740 C   0  0  0  0  0  0  0  0  0  0  0  0
   -5.8850    7.3690   -1.9080 C   0  0  2  0  0  0  0  0  0  0  0  0
   -6.7970    8.4420   -2.1760 O   0  0  0  0  0  0  0  0  0  0  0  0
   -7.3880    7.1660   -1.8820 C   0  0  0  0  0  0  0  0  0  0  0  0
   -8.1490    7.1300   -0.5930 C   0  0  0  0  0  0  0  0  0  0  0  0
   -8.0440    6.5200   -3.0620 C   0  0  0  0  0  0  0  0  0  0  0  0
   -2.3460   10.0410   -0.9890 C   0  0  1  0  0  0  0  0  0  0  0  0
   -2.9930   11.4460   -1.1070 C   0  0  0  0  0  0  0  0  0  0  0  0
   -1.8320   12.4620   -1.2670 C   0  0  0  0  0  0  0  0  0  0  0  0
   -0.5900   11.5900   -1.5670 C   0  0  1  0  0  0  0  0  0  0  0  0
   -0.6860   11.2680   -3.0920 C   0  0  0  0  0  0  0  0  0  0  0  0
    0.7960   12.2090   -1.1940 C   0  0  2  0  0  0  0  0  0  0  0  0
    1.1590   13.4990   -1.9500 C   0  0  0  0  0  0  0  0  0  0  0  0
    1.9080   13.3000   -3.2270 C   0  0  0  0  0  0  0  0  0  0  0  0
    2.5210   12.1630   -3.6050 C   0  0  0  0  0  0  0  0  0  0  0  0
    2.5820   10.9510   -2.6660 C   0  0  1  0  0  0  0  0  0  0  0  0
    4.0260   10.3850   -2.6440 C   0  0  0  0  0  0  0  0  0  0  0  0
    4.5500   10.0670   -4.0420 C   0  0  0  0  0  0  0  0  0  0  0  0
    4.5280   11.3100   -4.9280 C   0  0  2  0  0  0  0  0  0  0  0  0
    5.4760   12.2540   -4.4210 O   0  0  0  0  0  0  0  0  0  0  0  0
    3.1260   11.9740   -5.0180 C   0  0  0  0  0  0  0  0  0  0  0  0
    2.1730   11.0690   -5.8370 C   0  0  0  0  0  0  0  0  0  0  0  0
    3.2730   13.2920   -5.8240 C   0  0  0  0  0  0  0  0  0  0  0  0
    1.9930   11.1750   -1.2070 C   0  0  1  0  0  0  0  0  0  0  0  0
    3.0960   11.7580   -0.2710 C   0  0  0  0  0  0  0  0  0  0  0  0
    1.5860    9.7810   -0.5980 C   0  0  0  0  0  0  0  0  0  0  0  0
    0.1620    9.2780   -0.9040 C   0  0  0  0  0  0  0  0  0  0  0  0
   -0.8770   10.3680   -0.6200 C   0  0  2  0  0  0  0  0  0  0  0  0
   -0.8200   10.6970    0.9100 C   0  0  0  0  0  0  0  0  0  0  0  0
   -2.2751    7.4799    1.0860 H   0  0  0  0  0  0  0  0  0  0  0  0
   -3.0370    6.9973   -0.4674 H   0  0  0  0  0  0  0  0  0  0  0  0
   -1.4382    7.8161   -0.4674 H   0  0  0  0  0  0  0  0  0  0  0  0
   -3.1245    9.5445    0.9639 H   0  0  0  0  0  0  0  0  0  0  0  0
   -5.2219    9.4911    0.2263 H   0  0  0  0  0  0  0  0  0  0  0  0
   -4.6421    9.4639   -1.5076 H   0  0  0  0  0  0  0  0  0  0  0  0
   -4.1753    6.8883   -0.7379 H   0  0  0  0  0  0  0  0  0  0  0  0
   -5.6751    7.2922    0.1974 H   0  0  0  0  0  0  0  0  0  0  0  0
   -5.0739    6.8143   -2.4024 H   0  0  0  0  0  0  0  0  0  0  0  0
   -7.4435    7.1634    0.2503 H   0  0  0  0  0  0  0  0  0  0  0  0
   -8.8237    7.9972   -0.5412 H   0  0  0  0  0  0  0  0  0  0  0  0
   -8.7388    6.2029   -0.5412 H   0  0  0  0  0  0  0  0  0  0  0  0
   -8.7873    5.7880   -2.7131 H   0  0  0  0  0  0  0  0  0  0  0  0
   -8.5436    7.2885   -3.6701 H   0  0  0  0  0  0  0  0  0  0  0  0
   -7.2832    6.0087   -3.6701 H   0  0  0  0  0  0  0  0  0  0  0  0
   -2.3780    9.4373   -1.9080 H   0  0  0  0  0  0  0  0  0  0  0  0
   -3.6546   11.4857   -1.9849 H   0  0  0  0  0  0  0  0  0  0  0  0
   -3.6000   11.6769   -0.2191 H   0  0  0  0  0  0  0  0  0  0  0  0
   -2.0321   13.1526   -2.0995 H   0  0  0  0  0  0  0  0  0  0  0  0
   -1.6973   13.0864   -0.3715 H   0  0  0  0  0  0  0  0  0  0  0  0
   -0.9979   10.2218   -3.2269 H   0  0  0  0  0  0  0  0  0  0  0  0
   -1.4246   11.9343   -3.5617 H   0  0  0  0  0  0  0  0  0  0  0  0
    0.2968   11.4211   -3.5617 H   0  0  0  0  0  0  0  0  0  0  0  0
    0.6456   12.5088   -0.1464 H   0  0  0  0  0  0  0  0  0  0  0  0
    0.2248   14.0309   -2.1831 H   0  0  0  0  0  0  0  0  0  0  0  0
    1.8321   14.0618   -1.2865 H   0  0  0  0  0  0  0  0  0  0  0  0
    1.9632   14.1551   -3.9168 H   0  0  0  0  0  0  0  0  0  0  0  0
    1.8945   10.2036   -3.0889 H   0  0  0  0  0  0  0  0  0  0  0  0
    4.6896   11.1291   -2.1792 H   0  0  0  0  0  0  0  0  0  0  0  0
    4.0084    9.4457   -2.0717 H   0  0  0  0  0  0  0  0  0  0  0  0
    5.5835    9.6986   -3.9640 H   0  0  0  0  0  0  0  0  0  0  0  0
    3.9023    9.3016   -4.4943 H   0  0  0  0  0  0  0  0  0  0  0  0
    4.7900   10.9925   -5.9481 H   0  0  0  0  0  0  0  0  0  0  0  0
    5.0420   13.1240   -4.3990 H   0  0  0  0  0  0  0  0  0  0  0  0
    1.5496   10.4770   -5.1507 H   0  0  0  0  0  0  0  0  0  0  0  0
    1.5277   11.6948   -6.4710 H   0  0  0  0  0  0  0  0  0  0  0  0
    2.7647   10.3923   -6.4710 H   0  0  0  0  0  0  0  0  0  0  0  0
    3.3674   14.1387   -5.1282 H   0  0  0  0  0  0  0  0  0  0  0  0
    4.1705   13.2362   -6.4576 H   0  0  0  0  0  0  0  0  0  0  0  0
    2.3853   13.4353   -6.4576 H   0  0  0  0  0  0  0  0  0  0  0  0
    2.8051   11.6042    0.7786 H   0  0  0  0  0  0  0  0  0  0  0  0
    4.0501   11.2464   -0.4657 H   0  0  0  0  0  0  0  0  0  0  0  0
    3.2107   12.8345   -0.4657 H   0  0  0  0  0  0  0  0  0  0  0  0
    2.2934    9.0310   -0.9816 H   0  0  0  0  0  0  0  0  0  0  0  0
    1.6124    9.9246    0.4923 H   0  0  0  0  0  0  0  0  0  0  0  0
    0.1018    8.9908   -1.9641 H   0  0  0  0  0  0  0  0  0  0  0  0
   -0.0511    8.4133   -0.2584 H   0  0  0  0  0  0  0  0  0  0  0  0
   -0.9796    9.7757    1.4894 H   0  0  0  0  0  0  0  0  0  0  0  0
    0.1648   11.1199    1.1577 H   0  0  0  0  0  0  0  0  0  0  0  0
   -1.6051   11.4265    1.1577 H   0  0  0  0  0  0  0  0  0  0  0  0
  1  2  1  0
  2  3  1  0
  3  4  1  0
  4  5  1  0
  5  6  1  0
  6  7  1  0
  7  8  1  0
  7  9  1  0
  2 10  1  0
 10 11  1  0
 11 12  1  0
 12 13  1  0
 13 14  1  6
 13 15  1  0
 15 16  1  0
 16 17  1  0
 17 18  2  0
 18 19  1  0
 19 20  1  0
 20 21  1  0
 21 22  1  0
 22 23  1  0
 22 24  1  0
 24 25  1  0
 24 26  1  0
 19 27  1  0
 27 28  1  1
 27 29  1  0
 29 30  1  0
 30 31  1  0
 31 32  1  1
  7  5  1  0
 31 10  1  0
 31 13  1  0
 27 15  1  0
 24 18  1  0
  1 33  1  0
  1 34  1  0
  1 35  1  0
  2 36  1  1
  3 37  1  0
  3 38  1  0
  4 39  1  0
  4 40  1  0
  5 41  1  6
  8 42  1  0
  8 43  1  0
  8 44  1  0
  9 45  1  0
  9 46  1  0
  9 47  1  0
 10 48  1  6
 11 49  1  0
 11 50  1  0
 12 51  1  0
 12 52  1  0
 14 53  1  0
 14 54  1  0
 14 55  1  0
 15 56  1  1
 16 57  1  0
 16 58  1  0
 17 59  1  0
 19 60  1  6
 20 61  1  0
 20 62  1  0
 21 63  1  0
 21 64  1  0
 22 65  1  6
 23 66  1  0
 25 67  1  0
 25 68  1  0
 25 69  1  0
 26 70  1  0
 26 71  1  0
 26 72  1  0
 28 73  1  0
 28 74  1  0
 28 75  1  0
 29 76  1  0
 29 77  1  0
 30 78  1  0
 30 79  1  0
 32 80  1  0
 32 81  1  0
 32 82  1  0
M  END
>  <meeko>  (19) 
{"is_sidechain": [false], "intermolecular_energy": 2.731, "internal_energy": -0.839}

$$$$
