EPH_relaxed_0001_pdb2pqr_Repair_312_r2_0001_out
     RDKit          3D

 82 86  0  0  0  0  0  0  0  0999 V2000
   -5.1450    5.8410   -1.7680 C   0  0  0  0  0  0  0  0  0  0  0  0
   -5.4510    7.3410   -1.8010 C   0  0  2  0  0  0  0  0  0  0  0  0
   -5.2350    8.0080   -0.4280 C   0  0  0  0  0  0  0  0  0  0  0  0
   -4.1850    9.1210   -0.4430 C   0  0  0  0  0  0  0  0  0  0  0  0
   -2.8260    8.5970   -0.7960 C   0  0  2  0  0  0  0  0  0  0  0  0
   -1.7980    8.9110    0.1530 O   0  0  0  0  0  0  0  0  0  0  0  0
   -1.6520    9.4890   -1.1550 C   0  0  0  0  0  0  0  0  0  0  0  0
   -1.7830   10.9790   -1.1790 C   0  0  0  0  0  0  0  0  0  0  0  0
   -0.5260    8.9040   -1.9500 C   0  0  0  0  0  0  0  0  0  0  0  0
   -6.8830    7.5690   -2.2720 C   0  0  1  0  0  0  0  0  0  0  0  0
   -7.1850    6.8720   -3.6250 C   0  0  0  0  0  0  0  0  0  0  0  0
   -8.6610    6.4010   -3.5660 C   0  0  0  0  0  0  0  0  0  0  0  0
   -9.2520    7.1250   -2.3340 C   0  0  1  0  0  0  0  0  0  0  0  0
   -9.5990    8.5600   -2.8390 C   0  0  0  0  0  0  0  0  0  0  0  0
  -10.4830    6.4390   -1.6550 C   0  0  2  0  0  0  0  0  0  0  0  0
  -11.7330    6.3150   -2.5430 C   0  0  0  0  0  0  0  0  0  0  0  0
  -12.6860    7.4620   -2.4670 C   0  0  0  0  0  0  0  0  0  0  0  0
  -12.6920    8.4110   -1.5140 C   0  0  0  0  0  0  0  0  0  0  0  0
  -11.7330    8.3340   -0.3190 C   0  0  1  0  0  0  0  0  0  0  0  0
  -12.5150    8.6150    0.9920 C   0  0  0  0  0  0  0  0  0  0  0  0
  -13.2820    9.9330    0.9430 C   0  0  0  0  0  0  0  0  0  0  0  0
  -14.2670    9.9490   -0.2230 C   0  0  2  0  0  0  0  0  0  0  0  0
  -15.2870    8.9760    0.0220 O   0  0  0  0  0  0  0  0  0  0  0  0
  -13.5950    9.6670   -1.5960 C   0  0  0  0  0  0  0  0  0  0  0  0
  -12.7130   10.8740   -2.0010 C   0  0  0  0  0  0  0  0  0  0  0  0
  -14.7160    9.5700   -2.6660 C   0  0  0  0  0  0  0  0  0  0  0  0
  -10.8430    7.0210   -0.2280 C   0  0  1  0  0  0  0  0  0  0  0  0
  -11.6220    5.9000    0.5260 C   0  0  0  0  0  0  0  0  0  0  0  0
   -9.5610    7.3270    0.6340 C   0  0  0  0  0  0  0  0  0  0  0  0
   -8.3390    7.8910   -0.1140 C   0  0  0  0  0  0  0  0  0  0  0  0
   -8.0230    7.0530   -1.3570 C   0  0  2  0  0  0  0  0  0  0  0  0
   -7.6480    5.6090   -0.8780 C   0  0  0  0  0  0  0  0  0  0  0  0
   -5.0762    5.5037   -0.7232 H   0  0  0  0  0  0  0  0  0  0  0  0
   -5.9495    5.2913   -2.2785 H   0  0  0  0  0  0  0  0  0  0  0  0
   -4.1895    5.6504   -2.2785 H   0  0  0  0  0  0  0  0  0  0  0  0
   -4.7486    7.8067   -2.5080 H   0  0  0  0  0  0  0  0  0  0  0  0
   -6.1918    8.4377   -0.0963 H   0  0  0  0  0  0  0  0  0  0  0  0
   -4.8664    7.2276    0.2540 H   0  0  0  0  0  0  0  0  0  0  0  0
   -4.4788    9.8781   -1.1849 H   0  0  0  0  0  0  0  0  0  0  0  0
   -4.1329    9.5566    0.5657 H   0  0  0  0  0  0  0  0  0  0  0  0
   -3.2676    7.7223   -1.2958 H   0  0  0  0  0  0  0  0  0  0  0  0
   -1.8166   11.3608   -0.1479 H   0  0  0  0  0  0  0  0  0  0  0  0
   -0.9197   11.4146   -1.7034 H   0  0  0  0  0  0  0  0  0  0  0  0
   -2.7091   11.2573   -1.7034 H   0  0  0  0  0  0  0  0  0  0  0  0
    0.2383    8.5069   -1.2658 H   0  0  0  0  0  0  0  0  0  0  0  0
   -0.9087    8.0907   -2.5841 H   0  0  0  0  0  0  0  0  0  0  0  0
   -0.0805    9.6847   -2.5841 H   0  0  0  0  0  0  0  0  0  0  0  0
   -6.8939    8.6685   -2.3041 H   0  0  0  0  0  0  0  0  0  0  0  0
   -7.0463    7.5802   -4.4552 H   0  0  0  0  0  0  0  0  0  0  0  0
   -6.5059    6.0229   -3.7921 H   0  0  0  0  0  0  0  0  0  0  0  0
   -9.1980    6.6906   -4.4813 H   0  0  0  0  0  0  0  0  0  0  0  0
   -8.7472    5.3071   -3.4884 H   0  0  0  0  0  0  0  0  0  0  0  0
   -9.7594    9.2235   -1.9764 H   0  0  0  0  0  0  0  0  0  0  0  0
   -8.7681    8.9452   -3.4483 H   0  0  0  0  0  0  0  0  0  0  0  0
  -10.5141    8.5230   -3.4483 H   0  0  0  0  0  0  0  0  0  0  0  0
  -10.1244    5.4108   -1.4996 H   0  0  0  0  0  0  0  0  0  0  0  0
  -11.4000    6.2184   -3.5869 H   0  0  0  0  0  0  0  0  0  0  0  0
  -12.2832    5.4373   -2.1729 H   0  0  0  0  0  0  0  0  0  0  0  0
  -13.4475    7.5372   -3.2572 H   0  0  0  0  0  0  0  0  0  0  0  0
  -10.9814    9.1205   -0.4815 H   0  0  0  0  0  0  0  0  0  0  0  0
  -13.2305    7.7963    1.1585 H   0  0  0  0  0  0  0  0  0  0  0  0
  -11.7828    8.6843    1.8099 H   0  0  0  0  0  0  0  0  0  0  0  0
  -13.8365   10.0618    1.8842 H   0  0  0  0  0  0  0  0  0  0  0  0
  -12.5618   10.7529    0.8050 H   0  0  0  0  0  0  0  0  0  0  0  0
  -14.6908   10.9623   -0.2832 H   0  0  0  0  0  0  0  0  0  0  0  0
  -15.0430    8.1660   -0.4580 H   0  0  0  0  0  0  0  0  0  0  0  0
  -12.3442   11.3787   -1.0959 H   0  0  0  0  0  0  0  0  0  0  0  0
  -11.8590   10.5204   -2.5974 H   0  0  0  0  0  0  0  0  0  0  0  0
  -13.3094   11.5802   -2.5974 H   0  0  0  0  0  0  0  0  0  0  0  0
  -15.6927    9.4855   -2.1671 H   0  0  0  0  0  0  0  0  0  0  0  0
  -14.7021   10.4727   -3.2944 H   0  0  0  0  0  0  0  0  0  0  0  0
  -14.5473    8.6831   -3.2944 H   0  0  0  0  0  0  0  0  0  0  0  0
  -11.5190    6.0482    1.6111 H   0  0  0  0  0  0  0  0  0  0  0  0
  -12.6858    5.9431    0.2494 H   0  0  0  0  0  0  0  0  0  0  0  0
  -11.2107    4.9180    0.2494 H   0  0  0  0  0  0  0  0  0  0  0  0
   -9.8454    8.0579    1.4052 H   0  0  0  0  0  0  0  0  0  0  0  0
   -9.2353    6.3504    1.0216 H   0  0  0  0  0  0  0  0  0  0  0  0
   -8.5513    8.9255   -0.4217 H   0  0  0  0  0  0  0  0  0  0  0  0
   -7.4702    7.8607    0.5600 H   0  0  0  0  0  0  0  0  0  0  0  0
   -7.6399    5.5780    0.2215 H   0  0  0  0  0  0  0  0  0  0  0  0
   -8.3897    4.8919   -1.2596 H   0  0  0  0  0  0  0  0  0  0  0  0
   -6.6511    5.3434   -1.2596 H   0  0  0  0  0  0  0  0  0  0  0  0
  1  2  1  0
  2  3  1  0
  3  4  1  0
  4  5  1  0
  5  6  1  0
  6  7  1  0
  7  8  1  0
  7  9  1  0
  2 10  1  0
 10 11  1  0
 11 12  1  0
 12 13  1  0
 13 14  1  6
 13 15  1  0
 15 16  1  0
 16 17  1  0
 17 18  2  0
 18 19  1  0
 19 20  1  0
 20 21  1  0
 21 22  1  0
 22 23  1  0
 22 24  1  0
 24 25  1  0
 24 26  1  0
 19 27  1  0
 27 28  1  1
 27 29  1  0
 29 30  1  0
 30 31  1  0
 31 32  1  1
  7  5  1  0
 31 10  1  0
 31 13  1  0
 27 15  1  0
 24 18  1  0
  1 33  1  0
  1 34  1  0
  1 35  1  0
  2 36  1  6
  3 37  1  0
  3 38  1  0
  4 39  1  0
  4 40  1  0
  5 41  1  6
  8 42  1  0
  8 43  1  0
  8 44  1  0
  9 45  1  0
  9 46  1  0
  9 47  1  0
 10 48  1  6
 11 49  1  0
 11 50  1  0
 12 51  1  0
 12 52  1  0
 14 53  1  0
 14 54  1  0
 14 55  1  0
 15 56  1  1
 16 57  1  0
 16 58  1  0
 17 59  1  0
 19 60  1  6
 20 61  1  0
 20 62  1  0
 21 63  1  0
 21 64  1  0
 22 65  1  6
 23 66  1  0
 25 67  1  0
 25 68  1  0
 25 69  1  0
 26 70  1  0
 26 71  1  0
 26 72  1  0
 28 73  1  0
 28 74  1  0
 28 75  1  0
 29 76  1  0
 29 77  1  0
 30 78  1  0
 30 79  1  0
 32 80  1  0
 32 81  1  0
 32 82  1  0
M  END
>  <meeko>  (1) 
{"is_sidechain": [false], "intermolecular_energy": 2.731, "internal_energy": -0.839}

$$$$
EPH_relaxed_0001_pdb2pqr_Repair_312_r2_0001_out
     RDKit          3D

 82 86  0  0  0  0  0  0  0  0999 V2000
   -1.5320    8.6440   -1.7340 C   0  0  0  0  0  0  0  0  0  0  0  0
   -2.0110    9.1890   -0.3860 C   0  0  2  0  0  0  0  0  0  0  0  0
   -3.5200    9.5040   -0.3900 C   0  0  0  0  0  0  0  0  0  0  0  0
   -4.4090    8.2610   -0.2940 C   0  0  0  0  0  0  0  0  0  0  0  0
   -5.1000    7.9710   -1.5920 C   0  0  2  0  0  0  0  0  0  0  0  0
   -6.3200    8.6960   -1.7950 O   0  0  0  0  0  0  0  0  0  0  0  0
   -6.4410    7.2680   -1.6870 C   0  0  0  0  0  0  0  0  0  0  0  0
   -7.1710    6.8100   -0.4640 C   0  0  0  0  0  0  0  0  0  0  0  0
   -6.8060    6.5950   -2.9740 C   0  0  0  0  0  0  0  0  0  0  0  0
   -1.2190   10.4390   -0.0190 C   0  0  1  0  0  0  0  0  0  0  0  0
   -0.1320   10.1650    1.0530 C   0  0  0  0  0  0  0  0  0  0  0  0
    1.0700   11.0850    0.7170 C   0  0  0  0  0  0  0  0  0  0  0  0
    0.5160   12.0860   -0.3230 C   0  0  1  0  0  0  0  0  0  0  0  0
   -0.2360   13.1640    0.5190 C   0  0  0  0  0  0  0  0  0  0  0  0
    1.5640   12.7330   -1.2860 C   0  0  2  0  0  0  0  0  0  0  0  0
    2.6370   13.5960   -0.5980 C   0  0  0  0  0  0  0  0  0  0  0  0
    2.2950   15.0420   -0.4530 C   0  0  0  0  0  0  0  0  0  0  0  0
    1.3060   15.6810   -1.1050 C   0  0  0  0  0  0  0  0  0  0  0  0
    0.4710   14.9600   -2.1720 C   0  0  1  0  0  0  0  0  0  0  0  0
    0.3430   15.8620   -3.4270 C   0  0  0  0  0  0  0  0  0  0  0  0
   -0.2020   17.2490   -3.0980 C   0  0  0  0  0  0  0  0  0  0  0  0
    0.6870   17.9560   -2.0780 C   0  0  2  0  0  0  0  0  0  0  0  0
    1.9550   18.2300   -2.6840 O   0  0  0  0  0  0  0  0  0  0  0  0
    0.8970   17.1370   -0.7740 C   0  0  0  0  0  0  0  0  0  0  0  0
   -0.4240   17.0990    0.0340 C   0  0  0  0  0  0  0  0  0  0  0  0
    1.9230   17.8980    0.1080 C   0  0  0  0  0  0  0  0  0  0  0  0
    0.9300   13.4800   -2.5280 C   0  0  1  0  0  0  0  0  0  0  0  0
    2.0270   13.5150   -3.6350 C   0  0  0  0  0  0  0  0  0  0  0  0
   -0.2920   12.6960   -3.1370 C   0  0  0  0  0  0  0  0  0  0  0  0
   -1.2240   11.9790   -2.1420 C   0  0  0  0  0  0  0  0  0  0  0  0
   -0.4200   11.1320   -1.1510 C   0  0  2  0  0  0  0  0  0  0  0  0
    0.3300   10.0240   -1.9670 C   0  0  0  0  0  0  0  0  0  0  0  0
   -0.8144    7.8275   -1.5653 H   0  0  0  0  0  0  0  0  0  0  0  0
   -2.3933    8.2635   -2.3026 H   0  0  0  0  0  0  0  0  0  0  0  0
   -1.0441    9.4493   -2.3026 H   0  0  0  0  0  0  0  0  0  0  0  0
   -1.8392    8.4058    0.3670 H   0  0  0  0  0  0  0  0  0  0  0  0
   -3.7409   10.1559    0.4680 H   0  0  0  0  0  0  0  0  0  0  0  0
   -3.7450    9.9863   -1.3527 H   0  0  0  0  0  0  0  0  0  0  0  0
   -3.7852    7.3969   -0.0216 H   0  0  0  0  0  0  0  0  0  0  0  0
   -5.1786    8.4484    0.4693 H   0  0  0  0  0  0  0  0  0  0  0  0
   -4.1368    7.7927   -2.0924 H   0  0  0  0  0  0  0  0  0  0  0  0
   -6.6318    7.1483    0.4331 H   0  0  0  0  0  0  0  0  0  0  0  0
   -8.1863    7.2333   -0.4630 H   0  0  0  0  0  0  0  0  0  0  0  0
   -7.2316    5.7117   -0.4630 H   0  0  0  0  0  0  0  0  0  0  0  0
   -7.3203    5.6467   -2.7589 H   0  0  0  0  0  0  0  0  0  0  0  0
   -7.4724    7.2501   -3.5542 H   0  0  0  0  0  0  0  0  0  0  0  0
   -5.8934    6.3938   -3.5542 H   0  0  0  0  0  0  0  0  0  0  0  0
   -2.0429   11.0882    0.3123 H   0  0  0  0  0  0  0  0  0  0  0  0
   -0.5204   10.4001    2.0549 H   0  0  0  0  0  0  0  0  0  0  0  0
    0.1678    9.1067    1.0498 H   0  0  0  0  0  0  0  0  0  0  0  0
    1.4184   11.6130    1.6169 H   0  0  0  0  0  0  0  0  0  0  0  0
    1.9332   10.5207    0.3343 H   0  0  0  0  0  0  0  0  0  0  0  0
   -0.0926   12.9584    1.5901 H   0  0  0  0  0  0  0  0  0  0  0  0
    0.1639   14.1605    0.2802 H   0  0  0  0  0  0  0  0  0  0  0  0
   -1.3093   13.1328    0.2802 H   0  0  0  0  0  0  0  0  0  0  0  0
    2.0950   11.8541   -1.6804 H   0  0  0  0  0  0  0  0  0  0  0  0
    2.8105   13.1851    0.4075 H   0  0  0  0  0  0  0  0  0  0  0  0
    3.5230   13.5563   -1.2487 H   0  0  0  0  0  0  0  0  0  0  0  0
    2.9028   15.6354    0.2459 H   0  0  0  0  0  0  0  0  0  0  0  0
   -0.5213   14.8006   -1.7250 H   0  0  0  0  0  0  0  0  0  0  0  0
    1.3373   15.9732   -3.8842 H   0  0  0  0  0  0  0  0  0  0  0  0
   -0.3670   15.3788   -4.1143 H   0  0  0  0  0  0  0  0  0  0  0  0
   -0.2403   17.8487   -4.0193 H   0  0  0  0  0  0  0  0  0  0  0  0
   -1.2090   17.1383   -2.6694 H   0  0  0  0  0  0  0  0  0  0  0  0
    0.1770   18.8853   -1.7844 H   0  0  0  0  0  0  0  0  0  0  0  0
    2.4220   17.3830   -2.7820 H   0  0  0  0  0  0  0  0  0  0  0  0
   -0.1959   17.1056    1.1101 H   0  0  0  0  0  0  0  0  0  0  0  0
   -1.0329   17.9800   -0.2171 H   0  0  0  0  0  0  0  0  0  0  0  0
   -0.9813   16.1845   -0.2171 H   0  0  0  0  0  0  0  0  0  0  0  0
    1.6921   17.7267    1.1698 H   0  0  0  0  0  0  0  0  0  0  0  0
    2.9370   17.5319   -0.1104 H   0  0  0  0  0  0  0  0  0  0  0  0
    1.8669   18.9746   -0.1104 H   0  0  0  0  0  0  0  0  0  0  0  0
    3.0211   13.5467   -3.1652 H   0  0  0  0  0  0  0  0  0  0  0  0
    1.9456   12.6138   -4.2605 H   0  0  0  0  0  0  0  0  0  0  0  0
    1.8883   14.4092   -4.2605 H   0  0  0  0  0  0  0  0  0  0  0  0
   -0.9008   13.4166   -3.7029 H   0  0  0  0  0  0  0  0  0  0  0  0
    0.1544   11.8932   -3.7422 H   0  0  0  0  0  0  0  0  0  0  0  0
   -1.8033   12.7307   -1.5858 H   0  0  0  0  0  0  0  0  0  0  0  0
   -1.8959   11.3155   -2.7063 H   0  0  0  0  0  0  0  0  0  0  0  0
    0.8082    9.3176   -1.2725 H   0  0  0  0  0  0  0  0  0  0  0  0
   -0.3896    9.4849   -2.6006 H   0  0  0  0  0  0  0  0  0  0  0  0
    1.0979   10.4918   -2.6006 H   0  0  0  0  0  0  0  0  0  0  0  0
  1  2  1  0
  2  3  1  0
  3  4  1  0
  4  5  1  0
  5  6  1  0
  6  7  1  0
  7  8  1  0
  7  9  1  0
  2 10  1  0
 10 11  1  0
 11 12  1  0
 12 13  1  0
 13 14  1  1
 13 15  1  0
 15 16  1  0
 16 17  1  0
 17 18  2  0
 18 19  1  0
 19 20  1  0
 20 21  1  0
 21 22  1  0
 22 23  1  0
 22 24  1  0
 24 25  1  0
 24 26  1  0
 19 27  1  0
 27 28  1  6
 27 29  1  0
 29 30  1  0
 30 31  1  0
 31 32  1  6
  7  5  1  0
 31 10  1  0
 31 13  1  0
 27 15  1  0
 24 18  1  0
  1 33  1  0
  1 34  1  0
  1 35  1  0
  2 36  1  1
  3 37  1  0
  3 38  1  0
  4 39  1  0
  4 40  1  0
  5 41  1  6
  8 42  1  0
  8 43  1  0
  8 44  1  0
  9 45  1  0
  9 46  1  0
  9 47  1  0
 10 48  1  1
 11 49  1  0
 11 50  1  0
 12 51  1  0
 12 52  1  0
 14 53  1  0
 14 54  1  0
 14 55  1  0
 15 56  1  6
 16 57  1  0
 16 58  1  0
 17 59  1  0
 19 60  1  1
 20 61  1  0
 20 62  1  0
 21 63  1  0
 21 64  1  0
 22 65  1  1
 23 66  1  0
 25 67  1  0
 25 68  1  0
 25 69  1  0
 26 70  1  0
 26 71  1  0
 26 72  1  0
 28 73  1  0
 28 74  1  0
 28 75  1  0
 29 76  1  0
 29 77  1  0
 30 78  1  0
 30 79  1  0
 32 80  1  0
 32 81  1  0
 32 82  1  0
M  END
>  <meeko>  (2) 
{"is_sidechain": [false], "intermolecular_energy": 2.731, "internal_energy": -0.839}

$$$$
EPH_relaxed_0001_pdb2pqr_Repair_312_r2_0001_out
     RDKit          3D

 82 86  0  0  0  0  0  0  0  0999 V2000
    2.1840   19.5860   -0.4120 C   0  0  0  0  0  0  0  0  0  0  0  0
    2.3560   18.4300    0.5760 C   0  0  2  0  0  0  0  0  0  0  0  0
    3.8100   17.9200    0.6270 C   0  0  0  0  0  0  0  0  0  0  0  0
    4.7340   18.7830    1.4910 C   0  0  0  0  0  0  0  0  0  0  0  0
    4.2530   18.8630    2.9080 C   0  0  2  0  0  0  0  0  0  0  0  0
    3.9730   20.1900    3.3710 O   0  0  0  0  0  0  0  0  0  0  0  0
    5.0510   19.5040    4.0280 C   0  0  0  0  0  0  0  0  0  0  0  0
    6.3980   20.1080    3.7790 C   0  0  0  0  0  0  0  0  0  0  0  0
    4.7450   19.1120    5.4400 C   0  0  0  0  0  0  0  0  0  0  0  0
    1.4160   17.2870    0.2070 C   0  0  1  0  0  0  0  0  0  0  0  0
    0.2110   17.7580   -0.6490 C   0  0  0  0  0  0  0  0  0  0  0  0
   -0.1100   16.6100   -1.6400 C   0  0  0  0  0  0  0  0  0  0  0  0
    0.6930   15.4000   -1.1070 C   0  0  1  0  0  0  0  0  0  0  0  0
   -0.1800   14.8160    0.0470 C   0  0  0  0  0  0  0  0  0  0  0  0
    1.0690   14.3040   -2.1570 C   0  0  2  0  0  0  0  0  0  0  0  0
   -0.1260   13.5900   -2.8130 C   0  0  0  0  0  0  0  0  0  0  0  0
   -0.5960   12.3590   -2.1120 C   0  0  0  0  0  0  0  0  0  0  0  0
    0.0890   11.6860   -1.1690 C   0  0  0  0  0  0  0  0  0  0  0  0
    1.5170   12.0980   -0.7880 C   0  0  1  0  0  0  0  0  0  0  0  0
    2.4210   10.8390   -0.7290 C   0  0  0  0  0  0  0  0  0  0  0  0
    1.8610    9.7590    0.1910 C   0  0  0  0  0  0  0  0  0  0  0  0
    0.4640    9.3340   -0.2550 C   0  0  2  0  0  0  0  0  0  0  0  0
    0.5650    8.6760   -1.5220 O   0  0  0  0  0  0  0  0  0  0  0  0
   -0.5330   10.5210   -0.3600 C   0  0  0  0  0  0  0  0  0  0  0  0
   -0.8740   11.0410    1.0580 C   0  0  0  0  0  0  0  0  0  0  0  0
   -1.8610    9.9780   -0.9540 C   0  0  0  0  0  0  0  0  0  0  0  0
    2.1550   13.2680   -1.6530 C   0  0  1  0  0  0  0  0  0  0  0  0
    2.8330   12.6790   -2.9270 C   0  0  0  0  0  0  0  0  0  0  0  0
    3.2990   13.9590   -0.8200 C   0  0  0  0  0  0  0  0  0  0  0  0
    2.8810   15.1140    0.1100 C   0  0  0  0  0  0  0  0  0  0  0  0
    2.0040   16.1260   -0.6340 C   0  0  2  0  0  0  0  0  0  0  0  0
    2.8630   16.7470   -1.7880 C   0  0  0  0  0  0  0  0  0  0  0  0
    2.0443   20.5252    0.1433 H   0  0  0  0  0  0  0  0  0  0  0  0
    3.0804   19.6640   -1.0447 H   0  0  0  0  0  0  0  0  0  0  0  0
    1.3037   19.3997   -1.0447 H   0  0  0  0  0  0  0  0  0  0  0  0
    2.1048   18.8106    1.5770 H   0  0  0  0  0  0  0  0  0  0  0  0
    3.8059   16.8987    1.0356 H   0  0  0  0  0  0  0  0  0  0  0  0
    4.2010   17.9588   -0.4004 H   0  0  0  0  0  0  0  0  0  0  0  0
    5.7430   18.3450    1.4812 H   0  0  0  0  0  0  0  0  0  0  0  0
    4.7420   19.8007    1.0736 H   0  0  0  0  0  0  0  0  0  0  0  0
    3.7602   17.8835    2.8205 H   0  0  0  0  0  0  0  0  0  0  0  0
    6.8853   20.3265    4.7407 H   0  0  0  0  0  0  0  0  0  0  0  0
    7.0167   19.4011    3.2067 H   0  0  0  0  0  0  0  0  0  0  0  0
    6.2817   21.0402    3.2067 H   0  0  0  0  0  0  0  0  0  0  0  0
    5.2720   19.7871    6.1304 H   0  0  0  0  0  0  0  0  0  0  0  0
    3.6611   19.1831    5.6136 H   0  0  0  0  0  0  0  0  0  0  0  0
    5.0771   18.0778    5.6136 H   0  0  0  0  0  0  0  0  0  0  0  0
    1.1573   16.9282    1.2141 H   0  0  0  0  0  0  0  0  0  0  0  0
   -0.6578   17.9554   -0.0038 H   0  0  0  0  0  0  0  0  0  0  0  0
    0.4478   18.6884   -1.1859 H   0  0  0  0  0  0  0  0  0  0  0  0
   -1.1877   16.3899   -1.6436 H   0  0  0  0  0  0  0  0  0  0  0  0
    0.1579   16.8654   -2.6759 H   0  0  0  0  0  0  0  0  0  0  0  0
    0.2524   15.1052    1.0162 H   0  0  0  0  0  0  0  0  0  0  0  0
   -1.2033   15.2121   -0.0309 H   0  0  0  0  0  0  0  0  0  0  0  0
   -0.2045   13.7190   -0.0309 H   0  0  0  0  0  0  0  0  0  0  0  0
    1.5386   14.8961   -2.9563 H   0  0  0  0  0  0  0  0  0  0  0  0
   -0.9655   14.2996   -2.8535 H   0  0  0  0  0  0  0  0  0  0  0  0
    0.2218   13.2621   -3.8037 H   0  0  0  0  0  0  0  0  0  0  0  0
   -1.5862   11.9687   -2.3896 H   0  0  0  0  0  0  0  0  0  0  0  0
    1.4459   12.5531    0.2109 H   0  0  0  0  0  0  0  0  0  0  0  0
    2.5144   10.4242   -1.7435 H   0  0  0  0  0  0  0  0  0  0  0  0
    3.3969   11.1475   -0.3261 H   0  0  0  0  0  0  0  0  0  0  0  0
    2.5281    8.8846    0.1677 H   0  0  0  0  0  0  0  0  0  0  0  0
    1.7958   10.1654    1.2111 H   0  0  0  0  0  0  0  0  0  0  0  0
    0.0640    8.6563    0.5136 H   0  0  0  0  0  0  0  0  0  0  0  0
    1.0870    9.2480   -2.1100 H   0  0  0  0  0  0  0  0  0  0  0  0
   -0.4339   10.3699    1.8103 H   0  0  0  0  0  0  0  0  0  0  0  0
   -0.4641   12.0538    1.1855 H   0  0  0  0  0  0  0  0  0  0  0  0
   -1.9662   11.0687    1.1855 H   0  0  0  0  0  0  0  0  0  0  0  0
   -2.5418    9.6996   -0.1360 H   0  0  0  0  0  0  0  0  0  0  0  0
   -2.3309   10.7562   -1.5734 H   0  0  0  0  0  0  0  0  0  0  0  0
   -1.6511    9.0935   -1.5734 H   0  0  0  0  0  0  0  0  0  0  0  0
    3.6324   11.9845   -2.6291 H   0  0  0  0  0  0  0  0  0  0  0  0
    2.0835   12.1404   -3.5255 H   0  0  0  0  0  0  0  0  0  0  0  0
    3.2616   13.4964   -3.5255 H   0  0  0  0  0  0  0  0  0  0  0  0
    3.7713   13.1848   -0.1974 H   0  0  0  0  0  0  0  0  0  0  0  0
    3.9625   14.4177   -1.5679 H   0  0  0  0  0  0  0  0  0  0  0  0
    2.3161   14.7049    0.9606 H   0  0  0  0  0  0  0  0  0  0  0  0
    3.7881   15.6273    0.4619 H   0  0  0  0  0  0  0  0  0  0  0  0
    3.6830   17.3398   -1.3565 H   0  0  0  0  0  0  0  0  0  0  0  0
    3.2807   15.9407   -2.4088 H   0  0  0  0  0  0  0  0  0  0  0  0
    2.2283   17.3964   -2.4088 H   0  0  0  0  0  0  0  0  0  0  0  0
  1  2  1  0
  2  3  1  0
  3  4  1  0
  4  5  1  0
  5  6  1  0
  6  7  1  0
  7  8  1  0
  7  9  1  0
  2 10  1  0
 10 11  1  0
 11 12  1  0
 12 13  1  0
 13 14  1  1
 13 15  1  0
 15 16  1  0
 16 17  1  0
 17 18  2  0
 18 19  1  0
 19 20  1  0
 20 21  1  0
 21 22  1  0
 22 23  1  0
 22 24  1  0
 24 25  1  0
 24 26  1  0
 19 27  1  0
 27 28  1  6
 27 29  1  0
 29 30  1  0
 30 31  1  0
 31 32  1  6
  7  5  1  0
 31 10  1  0
 31 13  1  0
 27 15  1  0
 24 18  1  0
  1 33  1  0
  1 34  1  0
  1 35  1  0
  2 36  1  1
  3 37  1  0
  3 38  1  0
  4 39  1  0
  4 40  1  0
  5 41  1  1
  8 42  1  0
  8 43  1  0
  8 44  1  0
  9 45  1  0
  9 46  1  0
  9 47  1  0
 10 48  1  1
 11 49  1  0
 11 50  1  0
 12 51  1  0
 12 52  1  0
 14 53  1  0
 14 54  1  0
 14 55  1  0
 15 56  1  6
 16 57  1  0
 16 58  1  0
 17 59  1  0
 19 60  1  1
 20 61  1  0
 20 62  1  0
 21 63  1  0
 21 64  1  0
 22 65  1  1
 23 66  1  0
 25 67  1  0
 25 68  1  0
 25 69  1  0
 26 70  1  0
 26 71  1  0
 26 72  1  0
 28 73  1  0
 28 74  1  0
 28 75  1  0
 29 76  1  0
 29 77  1  0
 30 78  1  0
 30 79  1  0
 32 80  1  0
 32 81  1  0
 32 82  1  0
M  END
>  <meeko>  (3) 
{"is_sidechain": [false], "intermolecular_energy": 2.731, "internal_energy": -0.839}

$$$$
EPH_relaxed_0001_pdb2pqr_Repair_312_r2_0001_out
     RDKit          3D

 82 86  0  0  0  0  0  0  0  0999 V2000
    0.1970   18.2230    0.2600 C   0  0  0  0  0  0  0  0  0  0  0  0
    1.2620   17.1540   -0.0020 C   0  0  2  0  0  0  0  0  0  0  0  0
    2.4460   17.7020   -0.8230 C   0  0  0  0  0  0  0  0  0  0  0  0
    3.6900   18.0040    0.0180 C   0  0  0  0  0  0  0  0  0  0  0  0
    3.3360   18.6720    1.3120 C   0  0  2  0  0  0  0  0  0  0  0  0
    3.6980   20.0570    1.3890 O   0  0  0  0  0  0  0  0  0  0  0  0
    4.3680   19.1740    2.3040 C   0  0  0  0  0  0  0  0  0  0  0  0
    5.8350   19.0280    2.0450 C   0  0  0  0  0  0  0  0  0  0  0  0
    3.9570   19.3610    3.7310 C   0  0  0  0  0  0  0  0  0  0  0  0
    0.6370   15.9630   -0.7210 C   0  0  1  0  0  0  0  0  0  0  0  0
    0.3150   16.2660   -2.2080 C   0  0  0  0  0  0  0  0  0  0  0  0
    0.5560   14.9510   -2.9940 C   0  0  0  0  0  0  0  0  0  0  0  0
    0.6840   13.8630   -1.9040 C   0  0  1  0  0  0  0  0  0  0  0  0
   -0.7860   13.5080   -1.5160 C   0  0  0  0  0  0  0  0  0  0  0  0
    1.5020   12.5880   -2.2920 C   0  0  2  0  0  0  0  0  0  0  0  0
    0.9150   11.7650   -3.4530 C   0  0  0  0  0  0  0  0  0  0  0  0
   -0.0380   10.6880   -3.0530 C   0  0  0  0  0  0  0  0  0  0  0  0
   -0.1940   10.2050   -1.8060 C   0  0  0  0  0  0  0  0  0  0  0  0
    0.7070   10.6800   -0.6590 C   0  0  1  0  0  0  0  0  0  0  0  0
    1.2070    9.4530    0.1490 C   0  0  0  0  0  0  0  0  0  0  0  0
    0.0640    8.5660    0.6330 C   0  0  0  0  0  0  0  0  0  0  0  0
   -0.7740    8.0670   -0.5410 C   0  0  2  0  0  0  0  0  0  0  0  0
    0.0240    7.1820   -1.3340 O   0  0  0  0  0  0  0  0  0  0  0  0
   -1.3250    9.2140   -1.4330 C   0  0  0  0  0  0  0  0  0  0  0  0
   -2.4190    9.9930   -0.6630 C   0  0  0  0  0  0  0  0  0  0  0  0
   -2.0300    8.5710   -2.6570 C   0  0  0  0  0  0  0  0  0  0  0  0
    1.8860   11.6650   -1.0650 C   0  0  1  0  0  0  0  0  0  0  0  0
    3.1380   10.8440   -1.5000 C   0  0  0  0  0  0  0  0  0  0  0  0
    2.3180   12.4980    0.1980 C   0  0  0  0  0  0  0  0  0  0  0  0
    1.5520   13.8090    0.4620 C   0  0  0  0  0  0  0  0  0  0  0  0
    1.4760   14.6640   -0.8070 C   0  0  2  0  0  0  0  0  0  0  0  0
    2.9390   15.0540   -1.2090 C   0  0  0  0  0  0  0  0  0  0  0  0
    0.0672   18.3532    1.3445 H   0  0  0  0  0  0  0  0  0  0  0  0
    0.5157   19.1757   -0.1882 H   0  0  0  0  0  0  0  0  0  0  0  0
   -0.7569   17.9079   -0.1882 H   0  0  0  0  0  0  0  0  0  0  0  0
    1.6569   16.8347    0.9738 H   0  0  0  0  0  0  0  0  0  0  0  0
    2.7148   16.9561   -1.5855 H   0  0  0  0  0  0  0  0  0  0  0  0
    2.1176   18.6541   -1.2652 H   0  0  0  0  0  0  0  0  0  0  0  0
    4.2112   17.0600    0.2351 H   0  0  0  0  0  0  0  0  0  0  0  0
    4.3338   18.6871   -0.5554 H   0  0  0  0  0  0  0  0  0  0  0  0
    2.4519   18.0282    1.4298 H   0  0  0  0  0  0  0  0  0  0  0  0
    6.3729   18.9745    3.0030 H   0  0  0  0  0  0  0  0  0  0  0  0
    6.0161   18.1074    1.4708 H   0  0  0  0  0  0  0  0  0  0  0  0
    6.1940   19.8949    1.4708 H   0  0  0  0  0  0  0  0  0  0  0  0
    4.7563   18.9973    4.3935 H   0  0  0  0  0  0  0  0  0  0  0  0
    3.7783   20.4291    3.9241 H   0  0  0  0  0  0  0  0  0  0  0  0
    3.0344   18.7940    3.9241 H   0  0  0  0  0  0  0  0  0  0  0  0
   -0.2420   15.8005   -0.0799 H   0  0  0  0  0  0  0  0  0  0  0  0
   -0.7333   16.5828   -2.3118 H   0  0  0  0  0  0  0  0  0  0  0  0
    0.9495   17.0782   -2.5923 H   0  0  0  0  0  0  0  0  0  0  0  0
   -0.2926   14.7356   -3.6599 H   0  0  0  0  0  0  0  0  0  0  0  0
    1.4480   15.0059   -3.6353 H   0  0  0  0  0  0  0  0  0  0  0  0
   -0.8807   13.4851   -0.4203 H   0  0  0  0  0  0  0  0  0  0  0  0
   -1.4673   14.2674   -1.9272 H   0  0  0  0  0  0  0  0  0  0  0  0
   -1.0457   12.5213   -1.9272 H   0  0  0  0  0  0  0  0  0  0  0  0
    2.4403   13.0168   -2.6737 H   0  0  0  0  0  0  0  0  0  0  0  0
    0.3848   12.4556   -4.1252 H   0  0  0  0  0  0  0  0  0  0  0  0
    1.7674   11.2565   -3.9271 H   0  0  0  0  0  0  0  0  0  0  0  0
   -0.6660   10.2521   -3.8440 H   0  0  0  0  0  0  0  0  0  0  0  0
    0.0761   11.3157   -0.0204 H   0  0  0  0  0  0  0  0  0  0  0  0
    1.8702    8.8546   -0.4929 H   0  0  0  0  0  0  0  0  0  0  0  0
    1.7355    9.8307    1.0367 H   0  0  0  0  0  0  0  0  0  0  0  0
    0.4817    7.7017    1.1702 H   0  0  0  0  0  0  0  0  0  0  0  0
   -0.5816    9.1574    1.2989 H   0  0  0  0  0  0  0  0  0  0  0  0
   -1.6489    7.5472   -0.1235 H   0  0  0  0  0  0  0  0  0  0  0  0
   -0.5710    6.7170   -1.9450 H   0  0  0  0  0  0  0  0  0  0  0  0
   -2.2579    9.8783    0.4191 H   0  0  0  0  0  0  0  0  0  0  0  0
   -2.3673   11.0587   -0.9305 H   0  0  0  0  0  0  0  0  0  0  0  0
   -3.4092    9.5955   -0.9305 H   0  0  0  0  0  0  0  0  0  0  0  0
   -2.8009    7.8679   -2.3086 H   0  0  0  0  0  0  0  0  0  0  0  0
   -2.4996    9.3583   -3.2650 H   0  0  0  0  0  0  0  0  0  0  0  0
   -1.2892    8.0311   -3.2650 H   0  0  0  0  0  0  0  0  0  0  0  0
    3.6744   10.4922   -0.6064 H   0  0  0  0  0  0  0  0  0  0  0  0
    2.8189    9.9792   -2.1003 H   0  0  0  0  0  0  0  0  0  0  0  0
    3.8040   11.4813   -2.1003 H   0  0  0  0  0  0  0  0  0  0  0  0
    2.1898   11.8543    1.0808 H   0  0  0  0  0  0  0  0  0  0  0  0
    3.3549   12.8061   -0.0018 H   0  0  0  0  0  0  0  0  0  0  0  0
    0.5318   13.5688    0.7959 H   0  0  0  0  0  0  0  0  0  0  0  0
    2.0865   14.3779    1.2370 H   0  0  0  0  0  0  0  0  0  0  0  0
    3.5386   15.2138   -0.3007 H   0  0  0  0  0  0  0  0  0  0  0  0
    3.3842   14.2432   -1.8043 H   0  0  0  0  0  0  0  0  0  0  0  0
    2.9215   15.9788   -1.8043 H   0  0  0  0  0  0  0  0  0  0  0  0
  1  2  1  0
  2  3  1  0
  3  4  1  0
  4  5  1  0
  5  6  1  0
  6  7  1  0
  7  8  1  0
  7  9  1  0
  2 10  1  0
 10 11  1  0
 11 12  1  0
 12 13  1  0
 13 14  1  1
 13 15  1  0
 15 16  1  0
 16 17  1  0
 17 18  2  0
 18 19  1  0
 19 20  1  0
 20 21  1  0
 21 22  1  0
 22 23  1  0
 22 24  1  0
 24 25  1  0
 24 26  1  0
 19 27  1  0
 27 28  1  6
 27 29  1  0
 29 30  1  0
 30 31  1  0
 31 32  1  6
  7  5  1  0
 31 10  1  0
 31 13  1  0
 27 15  1  0
 24 18  1  0
  1 33  1  0
  1 34  1  0
  1 35  1  0
  2 36  1  1
  3 37  1  0
  3 38  1  0
  4 39  1  0
  4 40  1  0
  5 41  1  1
  8 42  1  0
  8 43  1  0
  8 44  1  0
  9 45  1  0
  9 46  1  0
  9 47  1  0
 10 48  1  1
 11 49  1  0
 11 50  1  0
 12 51  1  0
 12 52  1  0
 14 53  1  0
 14 54  1  0
 14 55  1  0
 15 56  1  6
 16 57  1  0
 16 58  1  0
 17 59  1  0
 19 60  1  1
 20 61  1  0
 20 62  1  0
 21 63  1  0
 21 64  1  0
 22 65  1  1
 23 66  1  0
 25 67  1  0
 25 68  1  0
 25 69  1  0
 26 70  1  0
 26 71  1  0
 26 72  1  0
 28 73  1  0
 28 74  1  0
 28 75  1  0
 29 76  1  0
 29 77  1  0
 30 78  1  0
 30 79  1  0
 32 80  1  0
 32 81  1  0
 32 82  1  0
M  END
>  <meeko>  (4) 
{"is_sidechain": [false], "intermolecular_energy": 2.731, "internal_energy": -0.839}

$$$$
EPH_relaxed_0001_pdb2pqr_Repair_312_r2_0001_out
     RDKit          3D

 82 86  0  0  0  0  0  0  0  0999 V2000
    0.4160    8.9630   -2.6360 C   0  0  0  0  0  0  0  0  0  0  0  0
    1.2030   10.1100   -3.2750 C   0  0  2  0  0  0  0  0  0  0  0  0
    2.6950   10.0780   -2.8850 C   0  0  0  0  0  0  0  0  0  0  0  0
    3.6210   10.6840   -3.9430 C   0  0  0  0  0  0  0  0  0  0  0  0
    5.0000   10.9180   -3.4050 C   0  0  2  0  0  0  0  0  0  0  0  0
    5.6250   12.1230   -3.8640 O   0  0  0  0  0  0  0  0  0  0  0  0
    6.2490   10.8930   -4.2650 C   0  0  0  0  0  0  0  0  0  0  0  0
    6.1790   10.6260   -5.7360 C   0  0  0  0  0  0  0  0  0  0  0  0
    7.5690   10.6420   -3.6030 C   0  0  0  0  0  0  0  0  0  0  0  0
    0.5890   11.4470   -2.8780 C   0  0  1  0  0  0  0  0  0  0  0  0
   -0.8570   11.3020   -2.3340 C   0  0  0  0  0  0  0  0  0  0  0  0
   -1.0280   12.3740   -1.2260 C   0  0  0  0  0  0  0  0  0  0  0  0
    0.1930   13.3080   -1.3960 C   0  0  1  0  0  0  0  0  0  0  0  0
   -0.1960   14.2690   -2.5620 C   0  0  0  0  0  0  0  0  0  0  0  0
    0.6420   14.0970   -0.1230 C   0  0  2  0  0  0  0  0  0  0  0  0
   -0.4000   15.0830    0.4340 C   0  0  0  0  0  0  0  0  0  0  0  0
   -0.3200   16.4700   -0.1100 C   0  0  0  0  0  0  0  0  0  0  0  0
    0.7210   16.9840   -0.7920 C   0  0  0  0  0  0  0  0  0  0  0  0
    2.0090   16.1750   -0.9910 C   0  0  1  0  0  0  0  0  0  0  0  0
    3.2360   17.0690   -0.6750 C   0  0  0  0  0  0  0  0  0  0  0  0
    3.2350   18.3690   -1.4740 C   0  0  0  0  0  0  0  0  0  0  0  0
    1.9650   19.1730   -1.2040 C   0  0  2  0  0  0  0  0  0  0  0  0
    1.9810   19.6160    0.1560 O   0  0  0  0  0  0  0  0  0  0  0  0
    0.6620   18.3710   -1.4790 C   0  0  0  0  0  0  0  0  0  0  0  0
    0.4970   18.1520   -3.0030 C   0  0  0  0  0  0  0  0  0  0  0  0
   -0.5400   19.2470   -1.0330 C   0  0  0  0  0  0  0  0  0  0  0  0
    2.0680   14.7720   -0.2480 C   0  0  1  0  0  0  0  0  0  0  0  0
    2.5990   14.9620    1.2060 C   0  0  0  0  0  0  0  0  0  0  0  0
    3.1070   13.8440   -0.9820 C   0  0  0  0  0  0  0  0  0  0  0  0
    2.5760   12.9990   -2.1560 C   0  0  0  0  0  0  0  0  0  0  0  0
    1.2990   12.2510   -1.7600 C   0  0  2  0  0  0  0  0  0  0  0  0
    1.6650   11.2600   -0.6030 C   0  0  0  0  0  0  0  0  0  0  0  0
    0.4724    9.0452   -1.5405 H   0  0  0  0  0  0  0  0  0  0  0  0
   -0.6356    9.0179   -2.9541 H   0  0  0  0  0  0  0  0  0  0  0  0
    0.8456    8.0016   -2.9541 H   0  0  0  0  0  0  0  0  0  0  0  0
    1.1441    9.9842   -4.3662 H   0  0  0  0  0  0  0  0  0  0  0  0
    2.8214   10.6418   -1.9490 H   0  0  0  0  0  0  0  0  0  0  0  0
    2.9769    9.0200   -2.7792 H   0  0  0  0  0  0  0  0  0  0  0  0
    3.6842    9.9949   -4.7981 H   0  0  0  0  0  0  0  0  0  0  0  0
    3.2032   11.6546   -4.2486 H   0  0  0  0  0  0  0  0  0  0  0  0
    4.7432   10.4126   -2.4624 H   0  0  0  0  0  0  0  0  0  0  0  0
    5.9034    9.5746   -5.9051 H   0  0  0  0  0  0  0  0  0  0  0  0
    5.4223   11.2814   -6.1920 H   0  0  0  0  0  0  0  0  0  0  0  0
    7.1599   10.8258   -6.1920 H   0  0  0  0  0  0  0  0  0  0  0  0
    7.4418   10.6662   -2.5106 H   0  0  0  0  0  0  0  0  0  0  0  0
    7.9495    9.6554   -3.9061 H   0  0  0  0  0  0  0  0  0  0  0  0
    8.2850   11.4201   -3.9061 H   0  0  0  0  0  0  0  0  0  0  0  0
    0.6724   11.9805   -3.8363 H   0  0  0  0  0  0  0  0  0  0  0  0
   -1.5843   11.4724   -3.1414 H   0  0  0  0  0  0  0  0  0  0  0  0
   -1.0296   10.2913   -1.9356 H   0  0  0  0  0  0  0  0  0  0  0  0
   -1.9659   12.9314   -1.3662 H   0  0  0  0  0  0  0  0  0  0  0  0
   -1.0777   11.9308   -0.2205 H   0  0  0  0  0  0  0  0  0  0  0  0
   -0.5782   15.2132   -2.1469 H   0  0  0  0  0  0  0  0  0  0  0  0
    0.6905   14.4726   -3.1806 H   0  0  0  0  0  0  0  0  0  0  0  0
   -0.9745   13.7986   -3.1806 H   0  0  0  0  0  0  0  0  0  0  0  0
    0.7316   13.2999    0.6297 H   0  0  0  0  0  0  0  0  0  0  0  0
   -1.4000   14.6856    0.2057 H   0  0  0  0  0  0  0  0  0  0  0  0
   -0.1943   15.1665    1.5114 H   0  0  0  0  0  0  0  0  0  0  0  0
   -1.1846   17.1283    0.0605 H   0  0  0  0  0  0  0  0  0  0  0  0
    2.0239   15.8828   -2.0514 H   0  0  0  0  0  0  0  0  0  0  0  0
    3.2266   17.3143    0.3973 H   0  0  0  0  0  0  0  0  0  0  0  0
    4.1392   16.5066   -0.9541 H   0  0  0  0  0  0  0  0  0  0  0  0
    4.1100   18.9699   -1.1854 H   0  0  0  0  0  0  0  0  0  0  0  0
    3.2745   18.1233   -2.5455 H   0  0  0  0  0  0  0  0  0  0  0  0
    1.9596   20.0257   -1.8989 H   0  0  0  0  0  0  0  0  0  0  0  0
    1.9110   18.8280    0.7230 H   0  0  0  0  0  0  0  0  0  0  0  0
   -0.1563   17.2849   -3.1802 H   0  0  0  0  0  0  0  0  0  0  0  0
    0.0477   19.0482   -3.4557 H   0  0  0  0  0  0  0  0  0  0  0  0
    1.4824   17.9673   -3.4557 H   0  0  0  0  0  0  0  0  0  0  0  0
   -0.5831   19.2784    0.0657 H   0  0  0  0  0  0  0  0  0  0  0  0
   -0.4152   20.2674   -1.4244 H   0  0  0  0  0  0  0  0  0  0  0  0
   -1.4732   18.8157   -1.4244 H   0  0  0  0  0  0  0  0  0  0  0  0
    1.8135   14.6809    1.9229 H   0  0  0  0  0  0  0  0  0  0  0  0
    3.4816   14.3239    1.3603 H   0  0  0  0  0  0  0  0  0  0  0  0
    2.8765   16.0152    1.3603 H   0  0  0  0  0  0  0  0  0  0  0  0
    3.9104   14.4867   -1.3712 H   0  0  0  0  0  0  0  0  0  0  0  0
    3.4270   13.1142   -0.2237 H   0  0  0  0  0  0  0  0  0  0  0  0
    2.3559   13.6619   -3.0058 H   0  0  0  0  0  0  0  0  0  0  0  0
    3.3434   12.2609   -2.4321 H   0  0  0  0  0  0  0  0  0  0  0  0
    1.4853   11.7465    0.3671 H   0  0  0  0  0  0  0  0  0  0  0  0
    1.0408   10.3577   -0.6819 H   0  0  0  0  0  0  0  0  0  0  0  0
    2.7258   10.9800   -0.6819 H   0  0  0  0  0  0  0  0  0  0  0  0
  1  2  1  0
  2  3  1  0
  3  4  1  0
  4  5  1  0
  5  6  1  0
  6  7  1  0
  7  8  1  0
  7  9  1  0
  2 10  1  0
 10 11  1  0
 11 12  1  0
 12 13  1  0
 13 14  1  6
 13 15  1  0
 15 16  1  0
 16 17  1  0
 17 18  2  0
 18 19  1  0
 19 20  1  0
 20 21  1  0
 21 22  1  0
 22 23  1  0
 22 24  1  0
 24 25  1  0
 24 26  1  0
 19 27  1  0
 27 28  1  1
 27 29  1  0
 29 30  1  0
 30 31  1  0
 31 32  1  1
  7  5  1  0
 31 10  1  0
 31 13  1  0
 27 15  1  0
 24 18  1  0
  1 33  1  0
  1 34  1  0
  1 35  1  0
  2 36  1  6
  3 37  1  0
  3 38  1  0
  4 39  1  0
  4 40  1  0
  5 41  1  1
  8 42  1  0
  8 43  1  0
  8 44  1  0
  9 45  1  0
  9 46  1  0
  9 47  1  0
 10 48  1  6
 11 49  1  0
 11 50  1  0
 12 51  1  0
 12 52  1  0
 14 53  1  0
 14 54  1  0
 14 55  1  0
 15 56  1  1
 16 57  1  0
 16 58  1  0
 17 59  1  0
 19 60  1  6
 20 61  1  0
 20 62  1  0
 21 63  1  0
 21 64  1  0
 22 65  1  6
 23 66  1  0
 25 67  1  0
 25 68  1  0
 25 69  1  0
 26 70  1  0
 26 71  1  0
 26 72  1  0
 28 73  1  0
 28 74  1  0
 28 75  1  0
 29 76  1  0
 29 77  1  0
 30 78  1  0
 30 79  1  0
 32 80  1  0
 32 81  1  0
 32 82  1  0
M  END
>  <meeko>  (5) 
{"is_sidechain": [false], "intermolecular_energy": 2.731, "internal_energy": -0.839}

$$$$
EPH_relaxed_0001_pdb2pqr_Repair_312_r2_0001_out
     RDKit          3D

 82 86  0  0  0  0  0  0  0  0999 V2000
   -2.6100    7.8170   -0.7360 C   0  0  0  0  0  0  0  0  0  0  0  0
   -3.0300    9.2570   -0.4240 C   0  0  2  0  0  0  0  0  0  0  0  0
   -4.5060    9.5220   -0.7820 C   0  0  0  0  0  0  0  0  0  0  0  0
   -5.4210    8.3160   -0.5520 C   0  0  0  0  0  0  0  0  0  0  0  0
   -6.0440    7.8410   -1.8300 C   0  0  2  0  0  0  0  0  0  0  0  0
   -7.1410    8.6400   -2.2940 O   0  0  0  0  0  0  0  0  0  0  0  0
   -7.4550    7.2890   -1.9190 C   0  0  0  0  0  0  0  0  0  0  0  0
   -8.3280    7.1810   -0.7080 C   0  0  0  0  0  0  0  0  0  0  0  0
   -7.8070    6.4080   -3.0770 C   0  0  0  0  0  0  0  0  0  0  0  0
   -2.1300   10.2340   -1.1700 C   0  0  1  0  0  0  0  0  0  0  0  0
   -2.5700   11.7110   -0.9870 C   0  0  0  0  0  0  0  0  0  0  0  0
   -1.2750   12.5630   -0.9590 C   0  0  0  0  0  0  0  0  0  0  0  0
   -0.1670   11.6050   -1.4550 C   0  0  1  0  0  0  0  0  0  0  0  0
   -0.2920   11.6190   -3.0110 C   0  0  0  0  0  0  0  0  0  0  0  0
    1.2900   11.9340   -0.9900 C   0  0  2  0  0  0  0  0  0  0  0  0
    1.8400   13.2870   -1.4750 C   0  0  0  0  0  0  0  0  0  0  0  0
    2.5650   13.2490   -2.7790 C   0  0  0  0  0  0  0  0  0  0  0  0
    3.0150   12.1390   -3.3930 C   0  0  0  0  0  0  0  0  0  0  0  0
    2.8940   10.7650   -2.7220 C   0  0  1  0  0  0  0  0  0  0  0  0
    4.2430   10.0080   -2.8450 C   0  0  0  0  0  0  0  0  0  0  0  0
    4.7310    9.9120   -4.2870 C   0  0  0  0  0  0  0  0  0  0  0  0
    4.8940   11.3000   -4.9010 C   0  0  2  0  0  0  0  0  0  0  0  0
    5.9610   11.9780   -4.2310 O   0  0  0  0  0  0  0  0  0  0  0  0
    3.6010   12.1590   -4.8260 C   0  0  0  0  0  0  0  0  0  0  0  0
    2.5370   11.5850   -5.7940 C   0  0  0  0  0  0  0  0  0  0  0  0
    3.9410   13.5810   -5.3500 C   0  0  0  0  0  0  0  0  0  0  0  0
    2.3280   10.7660   -1.2370 C   0  0  1  0  0  0  0  0  0  0  0  0
    3.4930   10.9840   -0.2230 C   0  0  0  0  0  0  0  0  0  0  0  0
    1.7210    9.3480   -0.9170 C   0  0  0  0  0  0  0  0  0  0  0  0
    0.2440    9.1250   -1.2910 C   0  0  0  0  0  0  0  0  0  0  0  0
   -0.6330   10.2680   -0.7720 C   0  0  2  0  0  0  0  0  0  0  0  0
   -0.5450   10.2660    0.7930 C   0  0  0  0  0  0  0  0  0  0  0  0
   -2.4504    7.2696    0.2047 H   0  0  0  0  0  0  0  0  0  0  0  0
   -3.4013    7.3223   -1.3183 H   0  0  0  0  0  0  0  0  0  0  0  0
   -1.6768    7.8252   -1.3183 H   0  0  0  0  0  0  0  0  0  0  0  0
   -2.9216    9.4055    0.6605 H   0  0  0  0  0  0  0  0  0  0  0  0
   -4.8690   10.3563   -0.1637 H   0  0  0  0  0  0  0  0  0  0  0  0
   -4.5400    9.7509   -1.8574 H   0  0  0  0  0  0  0  0  0  0  0  0
   -4.8288    7.4968   -0.1181 H   0  0  0  0  0  0  0  0  0  0  0  0
   -6.2280    8.6229    0.1295 H   0  0  0  0  0  0  0  0  0  0  0  0
   -5.0772    7.4553   -2.1856 H   0  0  0  0  0  0  0  0  0  0  0  0
   -7.7091    7.2576    0.1982 H   0  0  0  0  0  0  0  0  0  0  0  0
   -9.0685    7.9944   -0.7161 H   0  0  0  0  0  0  0  0  0  0  0  0
   -8.8480    6.2117   -0.7161 H   0  0  0  0  0  0  0  0  0  0  0  0
   -8.1909    5.4472   -2.7034 H   0  0  0  0  0  0  0  0  0  0  0  0
   -8.5784    6.8979   -3.6893 H   0  0  0  0  0  0  0  0  0  0  0  0
   -6.9104    6.2315   -3.6893 H   0  0  0  0  0  0  0  0  0  0  0  0
   -2.2387    9.8412   -2.1917 H   0  0  0  0  0  0  0  0  0  0  0  0
   -3.2102   12.0223   -1.8256 H   0  0  0  0  0  0  0  0  0  0  0  0
   -3.1474   11.8392   -0.0595 H   0  0  0  0  0  0  0  0  0  0  0  0
   -1.3665   13.4308   -1.6288 H   0  0  0  0  0  0  0  0  0  0  0  0
   -1.0615   12.9647    0.0425 H   0  0  0  0  0  0  0  0  0  0  0  0
   -1.3487   11.7374   -3.2929 H   0  0  0  0  0  0  0  0  0  0  0  0
    0.2923   12.4573   -3.4183 H   0  0  0  0  0  0  0  0  0  0  0  0
    0.0923   10.6722   -3.4183 H   0  0  0  0  0  0  0  0  0  0  0  0
    1.1735   12.0324    0.0994 H   0  0  0  0  0  0  0  0  0  0  0  0
    0.9931   13.9815   -1.5769 H   0  0  0  0  0  0  0  0  0  0  0  0
    2.5796   13.6020   -0.7242 H   0  0  0  0  0  0  0  0  0  0  0  0
    2.7472   14.2105   -3.2813 H   0  0  0  0  0  0  0  0  0  0  0  0
    2.1111   10.2247   -3.2744 H   0  0  0  0  0  0  0  0  0  0  0  0
    5.0010   10.5396   -2.2510 H   0  0  0  0  0  0  0  0  0  0  0  0
    4.0854    8.9834   -2.4771 H   0  0  0  0  0  0  0  0  0  0  0  0
    5.7013    9.3941   -4.3050 H   0  0  0  0  0  0  0  0  0  0  0  0
    3.9863    9.3538   -4.8734 H   0  0  0  0  0  0  0  0  0  0  0  0
    5.1184   11.1636   -5.9692 H   0  0  0  0  0  0  0  0  0  0  0  0
    5.9440   11.7040   -3.2980 H   0  0  0  0  0  0  0  0  0  0  0  0
    1.7146   11.1413   -5.2136 H   0  0  0  0  0  0  0  0  0  0  0  0
    2.1439   12.3934   -6.4280 H   0  0  0  0  0  0  0  0  0  0  0  0
    2.9968   10.8125   -6.4280 H   0  0  0  0  0  0  0  0  0  0  0  0
    4.1026   14.2570   -4.4974 H   0  0  0  0  0  0  0  0  0  0  0  0
    4.8541   13.5377   -5.9618 H   0  0  0  0  0  0  0  0  0  0  0  0
    3.1071   13.9554   -5.9618 H   0  0  0  0  0  0  0  0  0  0  0  0
    3.1042   10.9112    0.8034 H   0  0  0  0  0  0  0  0  0  0  0  0
    4.2634   10.2144   -0.3787 H   0  0  0  0  0  0  0  0  0  0  0  0
    3.9330   11.9801   -0.3787 H   0  0  0  0  0  0  0  0  0  0  0  0
    2.3182    8.6002   -1.4593 H   0  0  0  0  0  0  0  0  0  0  0  0
    1.7571    9.2599    0.1789 H   0  0  0  0  0  0  0  0  0  0  0  0
    0.1545    9.0718   -2.3861 H   0  0  0  0  0  0  0  0  0  0  0  0
   -0.0959    8.1859   -0.8300 H   0  0  0  0  0  0  0  0  0  0  0  0
   -1.5596   10.2891    1.2173 H   0  0  0  0  0  0  0  0  0  0  0  0
   -0.0272    9.3559    1.1300 H   0  0  0  0  0  0  0  0  0  0  0  0
    0.0136   11.1517    1.1300 H   0  0  0  0  0  0  0  0  0  0  0  0
  1  2  1  0
  2  3  1  0
  3  4  1  0
  4  5  1  0
  5  6  1  0
  6  7  1  0
  7  8  1  0
  7  9  1  0
  2 10  1  0
 10 11  1  0
 11 12  1  0
 12 13  1  0
 13 14  1  6
 13 15  1  0
 15 16  1  0
 16 17  1  0
 17 18  2  0
 18 19  1  0
 19 20  1  0
 20 21  1  0
 21 22  1  0
 22 23  1  0
 22 24  1  0
 24 25  1  0
 24 26  1  0
 19 27  1  0
 27 28  1  1
 27 29  1  0
 29 30  1  0
 30 31  1  0
 31 32  1  1
  7  5  1  0
 31 10  1  0
 31 13  1  0
 27 15  1  0
 24 18  1  0
  1 33  1  0
  1 34  1  0
  1 35  1  0
  2 36  1  1
  3 37  1  0
  3 38  1  0
  4 39  1  0
  4 40  1  0
  5 41  1  6
  8 42  1  0
  8 43  1  0
  8 44  1  0
  9 45  1  0
  9 46  1  0
  9 47  1  0
 10 48  1  6
 11 49  1  0
 11 50  1  0
 12 51  1  0
 12 52  1  0
 14 53  1  0
 14 54  1  0
 14 55  1  0
 15 56  1  1
 16 57  1  0
 16 58  1  0
 17 59  1  0
 19 60  1  6
 20 61  1  0
 20 62  1  0
 21 63  1  0
 21 64  1  0
 22 65  1  6
 23 66  1  0
 25 67  1  0
 25 68  1  0
 25 69  1  0
 26 70  1  0
 26 71  1  0
 26 72  1  0
 28 73  1  0
 28 74  1  0
 28 75  1  0
 29 76  1  0
 29 77  1  0
 30 78  1  0
 30 79  1  0
 32 80  1  0
 32 81  1  0
 32 82  1  0
M  END
>  <meeko>  (6) 
{"is_sidechain": [false], "intermolecular_energy": 2.731, "internal_energy": -0.839}

$$$$
EPH_relaxed_0001_pdb2pqr_Repair_312_r2_0001_out
     RDKit          3D

 82 86  0  0  0  0  0  0  0  0999 V2000
   -4.0220    7.1270   -3.3210 C   0  0  0  0  0  0  0  0  0  0  0  0
   -4.0650    7.2560   -1.7960 C   0  0  2  0  0  0  0  0  0  0  0  0
   -5.5020    7.1600   -1.2450 C   0  0  0  0  0  0  0  0  0  0  0  0
   -6.5700    7.6550   -2.2240 C   0  0  0  0  0  0  0  0  0  0  0  0
   -7.9240    7.7130   -1.5840 C   0  0  2  0  0  0  0  0  0  0  0  0
   -8.3930    6.4630   -1.0610 O   0  0  0  0  0  0  0  0  0  0  0  0
   -9.1480    7.0170   -2.1500 C   0  0  0  0  0  0  0  0  0  0  0  0
   -9.0750    6.2150   -3.4110 C   0  0  0  0  0  0  0  0  0  0  0  0
  -10.5020    7.5160   -1.7530 C   0  0  0  0  0  0  0  0  0  0  0  0
   -3.4290    8.5730   -1.3670 C   0  0  1  0  0  0  0  0  0  0  0  0
   -3.9950    9.0990   -0.0220 C   0  0  0  0  0  0  0  0  0  0  0  0
   -2.8220    9.7950    0.7150 C   0  0  0  0  0  0  0  0  0  0  0  0
   -1.7180    9.9390   -0.3580 C   0  0  1  0  0  0  0  0  0  0  0  0
   -2.1190   11.2050   -1.1780 C   0  0  0  0  0  0  0  0  0  0  0  0
   -0.2490   10.0350    0.1700 C   0  0  2  0  0  0  0  0  0  0  0  0
    0.0480   11.2580    1.0540 C   0  0  0  0  0  0  0  0  0  0  0  0
    0.5290   12.4700    0.3270 C   0  0  0  0  0  0  0  0  0  0  0  0
    0.9850   12.4920   -0.9390 C   0  0  0  0  0  0  0  0  0  0  0  0
    1.1440   11.1950   -1.7420 C   0  0  1  0  0  0  0  0  0  0  0  0
    2.5260   11.1870   -2.4460 C   0  0  0  0  0  0  0  0  0  0  0  0
    2.7570   12.4320   -3.2970 C   0  0  0  0  0  0  0  0  0  0  0  0
    2.6490   13.6980   -2.4520 C   0  0  2  0  0  0  0  0  0  0  0  0
    3.7340   13.7240   -1.5190 O   0  0  0  0  0  0  0  0  0  0  0  0
    1.3000   13.8110   -1.6870 C   0  0  0  0  0  0  0  0  0  0  0  0
    0.1540   14.0860   -2.6910 C   0  0  0  0  0  0  0  0  0  0  0  0
    1.3770   15.0580   -0.7640 C   0  0  0  0  0  0  0  0  0  0  0  0
    0.8550    9.8480   -0.9490 C   0  0  1  0  0  0  0  0  0  0  0  0
    2.1490    9.3710   -0.2220 C   0  0  0  0  0  0  0  0  0  0  0  0
    0.4800    8.7160   -1.9770 C   0  0  0  0  0  0  0  0  0  0  0  0
   -1.0050    8.5960   -2.3670 C   0  0  0  0  0  0  0  0  0  0  0  0
   -1.8990    8.5780   -1.1240 C   0  0  2  0  0  0  0  0  0  0  0  0
   -1.5340    7.3030   -0.2900 C   0  0  0  0  0  0  0  0  0  0  0  0
   -3.6850    6.1161   -3.5941 H   0  0  0  0  0  0  0  0  0  0  0  0
   -5.0271    7.3021   -3.7323 H   0  0  0  0  0  0  0  0  0  0  0  0
   -3.3230    7.8701   -3.7323 H   0  0  0  0  0  0  0  0  0  0  0  0
   -3.4942    6.4142   -1.3769 H   0  0  0  0  0  0  0  0  0  0  0  0
   -5.7123    6.1074   -1.0045 H   0  0  0  0  0  0  0  0  0  0  0  0
   -5.5512    7.8104   -0.3592 H   0  0  0  0  0  0  0  0  0  0  0  0
   -6.2962    8.6623   -2.5710 H   0  0  0  0  0  0  0  0  0  0  0  0
   -6.6182    6.9480   -3.0653 H   0  0  0  0  0  0  0  0  0  0  0  0
   -7.7499    8.7481   -1.2549 H   0  0  0  0  0  0  0  0  0  0  0  0
   -8.9779    5.1480   -3.1618 H   0  0  0  0  0  0  0  0  0  0  0  0
   -9.9912    6.3723   -3.9991 H   0  0  0  0  0  0  0  0  0  0  0  0
   -8.2023    6.5351   -3.9991 H   0  0  0  0  0  0  0  0  0  0  0  0
  -10.5756    7.5431   -0.6558 H   0  0  0  0  0  0  0  0  0  0  0  0
  -10.6522    8.5286   -2.1557 H   0  0  0  0  0  0  0  0  0  0  0  0
  -11.2734    6.8431   -2.1557 H   0  0  0  0  0  0  0  0  0  0  0  0
   -3.6719    9.1898   -2.2448 H   0  0  0  0  0  0  0  0  0  0  0  0
   -4.8059    9.8186   -0.2078 H   0  0  0  0  0  0  0  0  0  0  0  0
   -4.4084    8.2771    0.5811 H   0  0  0  0  0  0  0  0  0  0  0  0
   -3.1301   10.7821    1.0901 H   0  0  0  0  0  0  0  0  0  0  0  0
   -2.4810    9.2227    1.5903 H   0  0  0  0  0  0  0  0  0  0  0  0
   -2.3777   12.0219   -0.4882 H   0  0  0  0  0  0  0  0  0  0  0  0
   -1.2747   11.5139   -1.8119 H   0  0  0  0  0  0  0  0  0  0  0  0
   -2.9872   10.9715   -1.8119 H   0  0  0  0  0  0  0  0  0  0  0  0
   -0.1799    9.1622    0.8359 H   0  0  0  0  0  0  0  0  0  0  0  0
   -0.8771   11.5256    1.5856 H   0  0  0  0  0  0  0  0  0  0  0  0
    0.8694   10.9582    1.7214 H   0  0  0  0  0  0  0  0  0  0  0  0
    0.5090   13.4253    0.8719 H   0  0  0  0  0  0  0  0  0  0  0  0
    0.3421   11.2041   -2.4949 H   0  0  0  0  0  0  0  0  0  0  0  0
    3.3122   11.1338   -1.6785 H   0  0  0  0  0  0  0  0  0  0  0  0
    2.5541   10.3150   -3.1160 H   0  0  0  0  0  0  0  0  0  0  0  0
    3.7611   12.3817   -3.7434 H   0  0  0  0  0  0  0  0  0  0  0  0
    1.9881   12.4677   -4.0828 H   0  0  0  0  0  0  0  0  0  0  0  0
    2.6940   14.5568   -3.1379 H   0  0  0  0  0  0  0  0  0  0  0  0
    4.4280   14.2930   -1.8920 H   0  0  0  0  0  0  0  0  0  0  0  0
   -0.7714   14.3081   -2.1393 H   0  0  0  0  0  0  0  0  0  0  0  0
    0.4192   14.9460   -3.3235 H   0  0  0  0  0  0  0  0  0  0  0  0
    0.0000   13.1993   -3.3235 H   0  0  0  0  0  0  0  0  0  0  0  0
    1.3572   14.7373    0.2880 H   0  0  0  0  0  0  0  0  0  0  0  0
    2.3106   15.6045   -0.9632 H   0  0  0  0  0  0  0  0  0  0  0  0
    0.5177   15.7152   -0.9632 H   0  0  0  0  0  0  0  0  0  0  0  0
    1.9996    9.4261    0.8664 H   0  0  0  0  0  0  0  0  0  0  0  0
    2.3696    8.3325   -0.5097 H   0  0  0  0  0  0  0  0  0  0  0  0
    2.9909   10.0179   -0.5097 H   0  0  0  0  0  0  0  0  0  0  0  0
    1.0521    8.9003   -2.8983 H   0  0  0  0  0  0  0  0  0  0  0  0
    0.7204    7.7721   -1.4659 H   0  0  0  0  0  0  0  0  0  0  0  0
   -1.2820    9.4542   -2.9969 H   0  0  0  0  0  0  0  0  0  0  0  0
   -1.1483    7.6533   -2.9154 H   0  0  0  0  0  0  0  0  0  0  0  0
   -1.6005    7.5354    0.7831 H   0  0  0  0  0  0  0  0  0  0  0  0
   -2.2361    6.4920   -0.5338 H   0  0  0  0  0  0  0  0  0  0  0  0
   -0.5091    6.9864   -0.5338 H   0  0  0  0  0  0  0  0  0  0  0  0
  1  2  1  0
  2  3  1  0
  3  4  1  0
  4  5  1  0
  5  6  1  0
  6  7  1  0
  7  8  1  0
  7  9  1  0
  2 10  1  0
 10 11  1  0
 11 12  1  0
 12 13  1  0
 13 14  1  6
 13 15  1  0
 15 16  1  0
 16 17  1  0
 17 18  2  0
 18 19  1  0
 19 20  1  0
 20 21  1  0
 21 22  1  0
 22 23  1  0
 22 24  1  0
 24 25  1  0
 24 26  1  0
 19 27  1  0
 27 28  1  1
 27 29  1  0
 29 30  1  0
 30 31  1  0
 31 32  1  1
  7  5  1  0
 31 10  1  0
 31 13  1  0
 27 15  1  0
 24 18  1  0
  1 33  1  0
  1 34  1  0
  1 35  1  0
  2 36  1  1
  3 37  1  0
  3 38  1  0
  4 39  1  0
  4 40  1  0
  5 41  1  1
  8 42  1  0
  8 43  1  0
  8 44  1  0
  9 45  1  0
  9 46  1  0
  9 47  1  0
 10 48  1  6
 11 49  1  0
 11 50  1  0
 12 51  1  0
 12 52  1  0
 14 53  1  0
 14 54  1  0
 14 55  1  0
 15 56  1  1
 16 57  1  0
 16 58  1  0
 17 59  1  0
 19 60  1  6
 20 61  1  0
 20 62  1  0
 21 63  1  0
 21 64  1  0
 22 65  1  6
 23 66  1  0
 25 67  1  0
 25 68  1  0
 25 69  1  0
 26 70  1  0
 26 71  1  0
 26 72  1  0
 28 73  1  0
 28 74  1  0
 28 75  1  0
 29 76  1  0
 29 77  1  0
 30 78  1  0
 30 79  1  0
 32 80  1  0
 32 81  1  0
 32 82  1  0
M  END
>  <meeko>  (7) 
{"is_sidechain": [false], "intermolecular_energy": 2.731, "internal_energy": -0.839}

$$$$
EPH_relaxed_0001_pdb2pqr_Repair_312_r2_0001_out
     RDKit          3D

 82 86  0  0  0  0  0  0  0  0999 V2000
   -0.2070   15.0160   -7.6800 C   0  0  0  0  0  0  0  0  0  0  0  0
    1.1400   15.0730   -6.9550 C   0  0  2  0  0  0  0  0  0  0  0  0
    2.3230   15.1900   -7.9360 C   0  0  0  0  0  0  0  0  0  0  0  0
    2.3470   16.5070   -8.7170 C   0  0  0  0  0  0  0  0  0  0  0  0
    1.9110   16.3170  -10.1380 C   0  0  2  0  0  0  0  0  0  0  0  0
    1.2110   15.0920  -10.3910 O   0  0  0  0  0  0  0  0  0  0  0  0
    2.4780   15.2450  -11.0510 C   0  0  0  0  0  0  0  0  0  0  0  0
    3.5310   14.2940  -10.5760 C   0  0  0  0  0  0  0  0  0  0  0  0
    2.3670   15.4350  -12.5320 C   0  0  0  0  0  0  0  0  0  0  0  0
    1.3110   13.8380   -6.0780 C   0  0  1  0  0  0  0  0  0  0  0  0
    2.7810   13.3440   -6.0210 C   0  0  0  0  0  0  0  0  0  0  0  0
    3.0110   12.7890   -4.5920 C   0  0  0  0  0  0  0  0  0  0  0  0
    1.5930   12.6740   -3.9850 C   0  0  1  0  0  0  0  0  0  0  0  0
    1.0230   11.3350   -4.5500 C   0  0  0  0  0  0  0  0  0  0  0  0
    1.5030   12.7280   -2.4250 C   0  0  2  0  0  0  0  0  0  0  0  0
    2.2250   11.5850   -1.6900 C   0  0  0  0  0  0  0  0  0  0  0  0
    1.3920   10.3770   -1.4160 C   0  0  0  0  0  0  0  0  0  0  0  0
    0.0490   10.3200   -1.4890 C   0  0  0  0  0  0  0  0  0  0  0  0
   -0.7780   11.5780   -1.7820 C   0  0  1  0  0  0  0  0  0  0  0  0
   -1.9690   11.6580   -0.7910 C   0  0  0  0  0  0  0  0  0  0  0  0
   -2.8160   10.3900   -0.7910 C   0  0  0  0  0  0  0  0  0  0  0  0
   -1.9710    9.1690   -0.4380 C   0  0  2  0  0  0  0  0  0  0  0  0
   -1.5400    9.2840    0.9220 O   0  0  0  0  0  0  0  0  0  0  0  0
   -0.7360    8.9900   -1.3640 C   0  0  0  0  0  0  0  0  0  0  0  0
   -1.2030    8.5670   -2.7790 C   0  0  0  0  0  0  0  0  0  0  0  0
    0.1070    7.8080   -0.8140 C   0  0  0  0  0  0  0  0  0  0  0  0
    0.0380   12.9390   -1.8680 C   0  0  1  0  0  0  0  0  0  0  0  0
    0.1880   13.5600   -0.4450 C   0  0  0  0  0  0  0  0  0  0  0  0
   -0.7830   13.9780   -2.7210 C   0  0  0  0  0  0  0  0  0  0  0  0
   -0.5610   13.9550   -4.2450 C   0  0  0  0  0  0  0  0  0  0  0  0
    0.9330   13.9700   -4.5810 C   0  0  2  0  0  0  0  0  0  0  0  0
    1.5310   15.3160   -4.0450 C   0  0  0  0  0  0  0  0  0  0  0  0
   -1.0204   14.9816   -6.9403 H   0  0  0  0  0  0  0  0  0  0  0  0
   -0.3222   15.9101   -8.3104 H   0  0  0  0  0  0  0  0  0  0  0  0
   -0.2463   14.1154   -8.3104 H   0  0  0  0  0  0  0  0  0  0  0  0
    1.1403   15.9771   -6.3284 H   0  0  0  0  0  0  0  0  0  0  0  0
    3.2585   15.1089   -7.3631 H   0  0  0  0  0  0  0  0  0  0  0  0
    2.2107   14.3812   -8.6730 H   0  0  0  0  0  0  0  0  0  0  0  0
    1.6695   17.2232   -8.2290 H   0  0  0  0  0  0  0  0  0  0  0  0
    3.3807   16.8832   -8.7230 H   0  0  0  0  0  0  0  0  0  0  0  0
    1.7778   17.4013  -10.2668 H   0  0  0  0  0  0  0  0  0  0  0  0
    3.5447   14.2816   -9.4762 H   0  0  0  0  0  0  0  0  0  0  0  0
    3.3092   13.2841  -10.9513 H   0  0  0  0  0  0  0  0  0  0  0  0
    4.5132   14.6172  -10.9513 H   0  0  0  0  0  0  0  0  0  0  0  0
    1.8224   16.3673  -12.7423 H   0  0  0  0  0  0  0  0  0  0  0  0
    3.3741   15.4917  -12.9709 H   0  0  0  0  0  0  0  0  0  0  0  0
    1.8230   14.5856  -12.9709 H   0  0  0  0  0  0  0  0  0  0  0  0
    0.6119   13.1556   -6.5835 H   0  0  0  0  0  0  0  0  0  0  0  0
    2.9434   12.5512   -6.7660 H   0  0  0  0  0  0  0  0  0  0  0  0
    3.4816   14.1620   -6.2446 H   0  0  0  0  0  0  0  0  0  0  0  0
    3.4974   11.8032   -4.6319 H   0  0  0  0  0  0  0  0  0  0  0  0
    3.6694   13.4363   -3.9941 H   0  0  0  0  0  0  0  0  0  0  0  0
    0.7421   10.6751   -3.7159 H   0  0  0  0  0  0  0  0  0  0  0  0
    0.1362   11.5450   -5.1661 H   0  0  0  0  0  0  0  0  0  0  0  0
    1.7890   10.8414   -5.1661 H   0  0  0  0  0  0  0  0  0  0  0  0
    2.0693   13.6405   -2.1871 H   0  0  0  0  0  0  0  0  0  0  0  0
    3.0829   11.2742   -2.3044 H   0  0  0  0  0  0  0  0  0  0  0  0
    2.5102   11.9875   -0.7068 H   0  0  0  0  0  0  0  0  0  0  0  0
    1.9202    9.4554   -1.1303 H   0  0  0  0  0  0  0  0  0  0  0  0
   -1.1552   11.4619   -2.8087 H   0  0  0  0  0  0  0  0  0  0  0  0
   -1.5738   11.8180    0.2230 H   0  0  0  0  0  0  0  0  0  0  0  0
   -2.6137   12.4901   -1.1103 H   0  0  0  0  0  0  0  0  0  0  0  0
   -3.6224   10.4959   -0.0504 H   0  0  0  0  0  0  0  0  0  0  0  0
   -3.2346   10.2477   -1.7982 H   0  0  0  0  0  0  0  0  0  0  0  0
   -2.6016    8.2791   -0.5811 H   0  0  0  0  0  0  0  0  0  0  0  0
   -1.9100   10.1090    1.2790 H   0  0  0  0  0  0  0  0  0  0  0  0
   -2.0157    7.8308   -2.6921 H   0  0  0  0  0  0  0  0  0  0  0  0
   -1.5654    9.4505   -3.3249 H   0  0  0  0  0  0  0  0  0  0  0  0
   -0.3595    8.1192   -3.3249 H   0  0  0  0  0  0  0  0  0  0  0  0
    0.0928    7.8280    0.2857 H   0  0  0  0  0  0  0  0  0  0  0  0
   -0.3185    6.8578   -1.1690 H   0  0  0  0  0  0  0  0  0  0  0  0
    1.1440    7.9008   -1.1690 H   0  0  0  0  0  0  0  0  0  0  0  0
    0.0011   12.7863    0.3143 H   0  0  0  0  0  0  0  0  0  0  0  0
    1.2074   13.9549   -0.3229 H   0  0  0  0  0  0  0  0  0  0  0  0
   -0.5387   14.3767   -0.3229 H   0  0  0  0  0  0  0  0  0  0  0  0
   -1.8510   13.7893   -2.5374 H   0  0  0  0  0  0  0  0  0  0  0  0
   -0.4263   14.9655   -2.3930 H   0  0  0  0  0  0  0  0  0  0  0  0
   -1.0144   13.0432   -4.6611 H   0  0  0  0  0  0  0  0  0  0  0  0
   -1.0279   14.8504   -4.6812 H   0  0  0  0  0  0  0  0  0  0  0  0
    1.5269   15.3068   -2.9450 H   0  0  0  0  0  0  0  0  0  0  0  0
    2.5637   15.4283   -4.4069 H   0  0  0  0  0  0  0  0  0  0  0  0
    0.9221   16.1576   -4.4069 H   0  0  0  0  0  0  0  0  0  0  0  0
  1  2  1  0
  2  3  1  0
  3  4  1  0
  4  5  1  0
  5  6  1  0
  6  7  1  0
  7  8  1  0
  7  9  1  0
  2 10  1  0
 10 11  1  0
 11 12  1  0
 12 13  1  0
 13 14  1  6
 13 15  1  0
 15 16  1  0
 16 17  1  0
 17 18  2  0
 18 19  1  0
 19 20  1  0
 20 21  1  0
 21 22  1  0
 22 23  1  0
 22 24  1  0
 24 25  1  0
 24 26  1  0
 19 27  1  0
 27 28  1  1
 27 29  1  0
 29 30  1  0
 30 31  1  0
 31 32  1  1
  7  5  1  0
 31 10  1  0
 31 13  1  0
 27 15  1  0
 24 18  1  0
  1 33  1  0
  1 34  1  0
  1 35  1  0
  2 36  1  1
  3 37  1  0
  3 38  1  0
  4 39  1  0
  4 40  1  0
  5 41  1  6
  8 42  1  0
  8 43  1  0
  8 44  1  0
  9 45  1  0
  9 46  1  0
  9 47  1  0
 10 48  1  6
 11 49  1  0
 11 50  1  0
 12 51  1  0
 12 52  1  0
 14 53  1  0
 14 54  1  0
 14 55  1  0
 15 56  1  1
 16 57  1  0
 16 58  1  0
 17 59  1  0
 19 60  1  6
 20 61  1  0
 20 62  1  0
 21 63  1  0
 21 64  1  0
 22 65  1  1
 23 66  1  0
 25 67  1  0
 25 68  1  0
 25 69  1  0
 26 70  1  0
 26 71  1  0
 26 72  1  0
 28 73  1  0
 28 74  1  0
 28 75  1  0
 29 76  1  0
 29 77  1  0
 30 78  1  0
 30 79  1  0
 32 80  1  0
 32 81  1  0
 32 82  1  0
M  END
>  <meeko>  (8) 
{"is_sidechain": [false], "intermolecular_energy": 2.731, "internal_energy": -0.839}

$$$$
EPH_relaxed_0001_pdb2pqr_Repair_312_r2_0001_out
     RDKit          3D

 82 86  0  0  0  0  0  0  0  0999 V2000
    3.1560   14.8200   -7.3650 C   0  0  0  0  0  0  0  0  0  0  0  0
    1.6510   15.0780   -7.2490 C   0  0  2  0  0  0  0  0  0  0  0  0
    1.2540   16.4580   -7.8110 C   0  0  0  0  0  0  0  0  0  0  0  0
    2.0180   16.8490   -9.0790 C   0  0  0  0  0  0  0  0  0  0  0  0
    1.3820   16.2750  -10.3090 C   0  0  2  0  0  0  0  0  0  0  0  0
    0.8940   14.9350  -10.1610 O   0  0  0  0  0  0  0  0  0  0  0  0
    1.9710   15.1180  -11.0930 C   0  0  0  0  0  0  0  0  0  0  0  0
    3.2530   14.4660  -10.6780 C   0  0  0  0  0  0  0  0  0  0  0  0
    1.5670   14.9440  -12.5240 C   0  0  0  0  0  0  0  0  0  0  0  0
    1.2150   14.9640   -5.7930 C   0  0  1  0  0  0  0  0  0  0  0  0
   -0.0850   15.7570   -5.4950 C   0  0  0  0  0  0  0  0  0  0  0  0
   -0.8730   14.9430   -4.4360 C   0  0  0  0  0  0  0  0  0  0  0  0
    0.1390   13.8930   -3.9190 C   0  0  1  0  0  0  0  0  0  0  0  0
    1.0070   14.6560   -2.8700 C   0  0  0  0  0  0  0  0  0  0  0  0
   -0.4700   12.5830   -3.3220 C   0  0  2  0  0  0  0  0  0  0  0  0
   -1.3450   12.7810   -2.0710 C   0  0  0  0  0  0  0  0  0  0  0  0
   -0.6200   12.7050   -0.7680 C   0  0  0  0  0  0  0  0  0  0  0  0
    0.6180   12.2080   -0.5890 C   0  0  0  0  0  0  0  0  0  0  0  0
    1.3830   11.5630   -1.7520 C   0  0  1  0  0  0  0  0  0  0  0  0
    2.0070   10.2230   -1.2810 C   0  0  0  0  0  0  0  0  0  0  0  0
    2.8690   10.3850   -0.0330 C   0  0  0  0  0  0  0  0  0  0  0  0
    2.0580   10.9740    1.1180 C   0  0  2  0  0  0  0  0  0  0  0  0
    1.0660   10.0240    1.5170 O   0  0  0  0  0  0  0  0  0  0  0  0
    1.3740   12.3230    0.7570 C   0  0  0  0  0  0  0  0  0  0  0  0
    2.4480   13.4300    0.6190 C   0  0  0  0  0  0  0  0  0  0  0  0
    0.4750   12.7370    1.9540 C   0  0  0  0  0  0  0  0  0  0  0  0
    0.5790   11.4170   -3.1150 C   0  0  1  0  0  0  0  0  0  0  0  0
   -0.2300   10.0840   -3.1150 C   0  0  0  0  0  0  0  0  0  0  0  0
    1.6030   11.3140   -4.3070 C   0  0  0  0  0  0  0  0  0  0  0  0
    2.0750   12.6400   -4.9330 C   0  0  0  0  0  0  0  0  0  0  0  0
    0.8840   13.5470   -5.2590 C   0  0  2  0  0  0  0  0  0  0  0  0
    0.0050   12.8160   -6.3290 C   0  0  0  0  0  0  0  0  0  0  0  0
    3.5938   14.7450   -6.3587 H   0  0  0  0  0  0  0  0  0  0  0  0
    3.3259   13.8796   -7.9098 H   0  0  0  0  0  0  0  0  0  0  0  0
    3.6294   15.6501   -7.9098 H   0  0  0  0  0  0  0  0  0  0  0  0
    1.1368   14.3151   -7.8520 H   0  0  0  0  0  0  0  0  0  0  0  0
    0.1791   16.4419   -8.0442 H   0  0  0  0  0  0  0  0  0  0  0  0
    1.5053   17.2029   -7.0416 H   0  0  0  0  0  0  0  0  0  0  0  0
    2.0312   17.9457   -9.1633 H   0  0  0  0  0  0  0  0  0  0  0  0
    3.0390   16.4471   -9.0017 H   0  0  0  0  0  0  0  0  0  0  0  0
    1.0249   17.2689  -10.6166 H   0  0  0  0  0  0  0  0  0  0  0  0
    3.3107   14.4366   -9.5799 H   0  0  0  0  0  0  0  0  0  0  0  0
    3.2880   13.4406  -11.0746 H   0  0  0  0  0  0  0  0  0  0  0  0
    4.1023   15.0417  -11.0746 H   0  0  0  0  0  0  0  0  0  0  0  0
    0.5576   14.5093  -12.5698 H   0  0  0  0  0  0  0  0  0  0  0  0
    1.5680   15.9223  -13.0268 H   0  0  0  0  0  0  0  0  0  0  0  0
    2.2786   14.2726  -13.0268 H   0  0  0  0  0  0  0  0  0  0  0  0
    2.1182   15.3515   -5.2988 H   0  0  0  0  0  0  0  0  0  0  0  0
    0.1614   16.7537   -5.1002 H   0  0  0  0  0  0  0  0  0  0  0  0
   -0.6807   15.8967   -6.4091 H   0  0  0  0  0  0  0  0  0  0  0  0
   -1.2091   15.5949   -3.6163 H   0  0  0  0  0  0  0  0  0  0  0  0
   -1.7782   14.4792   -4.8550 H   0  0  0  0  0  0  0  0  0  0  0  0
    0.6874   14.3751   -1.8556 H   0  0  0  0  0  0  0  0  0  0  0  0
    2.0657   14.3908   -3.0075 H   0  0  0  0  0  0  0  0  0  0  0  0
    0.8797   15.7399   -3.0075 H   0  0  0  0  0  0  0  0  0  0  0  0
   -1.1562   12.2576   -4.1177 H   0  0  0  0  0  0  0  0  0  0  0  0
   -1.8175   13.7719   -2.1399 H   0  0  0  0  0  0  0  0  0  0  0  0
   -2.0649   11.9493   -2.0680 H   0  0  0  0  0  0  0  0  0  0  0  0
   -1.1420   13.0877    0.1214 H   0  0  0  0  0  0  0  0  0  0  0  0
    2.1801   12.2713   -2.0219 H   0  0  0  0  0  0  0  0  0  0  0  0
    1.1951    9.5148   -1.0591 H   0  0  0  0  0  0  0  0  0  0  0  0
    2.6561    9.8550   -2.0892 H   0  0  0  0  0  0  0  0  0  0  0  0
    3.2568    9.4003    0.2669 H   0  0  0  0  0  0  0  0  0  0  0  0
    3.6974   11.0704   -0.2653 H   0  0  0  0  0  0  0  0  0  0  0  0
    2.7576   11.1862    1.9399 H   0  0  0  0  0  0  0  0  0  0  0  0
    0.3660   10.0280    0.8430 H   0  0  0  0  0  0  0  0  0  0  0  0
    2.7667   13.7584    1.6193 H   0  0  0  0  0  0  0  0  0  0  0  0
    3.3147   13.0335    0.0698 H   0  0  0  0  0  0  0  0  0  0  0  0
    2.0255   14.2844    0.0698 H   0  0  0  0  0  0  0  0  0  0  0  0
    0.9887   12.5004    2.8974 H   0  0  0  0  0  0  0  0  0  0  0  0
    0.2755   13.8177    1.9061 H   0  0  0  0  0  0  0  0  0  0  0  0
   -0.4759   12.1861    1.9061 H   0  0  0  0  0  0  0  0  0  0  0  0
   -0.4202    9.7705   -2.0779 H   0  0  0  0  0  0  0  0  0  0  0  0
   -1.1880   10.2365   -3.6335 H   0  0  0  0  0  0  0  0  0  0  0  0
    0.3476    9.3046   -3.6335 H   0  0  0  0  0  0  0  0  0  0  0  0
    2.4935   10.7854   -3.9361 H   0  0  0  0  0  0  0  0  0  0  0  0
    1.0595   10.7939   -5.1096 H   0  0  0  0  0  0  0  0  0  0  0  0
    2.7376   13.1572   -4.2234 H   0  0  0  0  0  0  0  0  0  0  0  0
    2.6111   12.4158   -5.8670 H   0  0  0  0  0  0  0  0  0  0  0  0
   -0.7457   12.1917   -5.8224 H   0  0  0  0  0  0  0  0  0  0  0  0
   -0.5027   13.5619   -6.9582 H   0  0  0  0  0  0  0  0  0  0  0  0
    0.6459   12.1808   -6.9582 H   0  0  0  0  0  0  0  0  0  0  0  0
  1  2  1  0
  2  3  1  0
  3  4  1  0
  4  5  1  0
  5  6  1  0
  6  7  1  0
  7  8  1  0
  7  9  1  0
  2 10  1  0
 10 11  1  0
 11 12  1  0
 12 13  1  0
 13 14  1  1
 13 15  1  0
 15 16  1  0
 16 17  1  0
 17 18  2  0
 18 19  1  0
 19 20  1  0
 20 21  1  0
 21 22  1  0
 22 23  1  0
 22 24  1  0
 24 25  1  0
 24 26  1  0
 19 27  1  0
 27 28  1  1
 27 29  1  0
 29 30  1  0
 30 31  1  0
 31 32  1  6
  7  5  1  0
 31 10  1  0
 31 13  1  0
 27 15  1  0
 24 18  1  0
  1 33  1  0
  1 34  1  0
  1 35  1  0
  2 36  1  6
  3 37  1  0
  3 38  1  0
  4 39  1  0
  4 40  1  0
  5 41  1  6
  8 42  1  0
  8 43  1  0
  8 44  1  0
  9 45  1  0
  9 46  1  0
  9 47  1  0
 10 48  1  1
 11 49  1  0
 11 50  1  0
 12 51  1  0
 12 52  1  0
 14 53  1  0
 14 54  1  0
 14 55  1  0
 15 56  1  6
 16 57  1  0
 16 58  1  0
 17 59  1  0
 19 60  1  6
 20 61  1  0
 20 62  1  0
 21 63  1  0
 21 64  1  0
 22 65  1  1
 23 66  1  0
 25 67  1  0
 25 68  1  0
 25 69  1  0
 26 70  1  0
 26 71  1  0
 26 72  1  0
 28 73  1  0
 28 74  1  0
 28 75  1  0
 29 76  1  0
 29 77  1  0
 30 78  1  0
 30 79  1  0
 32 80  1  0
 32 81  1  0
 32 82  1  0
M  END
>  <meeko>  (9) 
{"is_sidechain": [false], "intermolecular_energy": 2.731, "internal_energy": -0.839}

$$$$
EPH_relaxed_0001_pdb2pqr_Repair_312_r2_0001_out
     RDKit          3D

 82 86  0  0  0  0  0  0  0  0999 V2000
    5.2460   13.3870   -5.3620 C   0  0  0  0  0  0  0  0  0  0  0  0
    3.9400   12.7900   -5.8930 C   0  0  2  0  0  0  0  0  0  0  0  0
    2.8710   13.8700   -6.1570 C   0  0  0  0  0  0  0  0  0  0  0  0
    2.7070   14.2250   -7.6370 C   0  0  0  0  0  0  0  0  0  0  0  0
    2.1010   15.5830   -7.8180 C   0  0  2  0  0  0  0  0  0  0  0  0
    0.7370   15.5770   -8.2570 O   0  0  0  0  0  0  0  0  0  0  0  0
    1.6930   16.1450   -9.1670 C   0  0  0  0  0  0  0  0  0  0  0  0
    1.8760   15.3590  -10.4270 C   0  0  0  0  0  0  0  0  0  0  0  0
    1.5730   17.6300   -9.3170 C   0  0  0  0  0  0  0  0  0  0  0  0
    3.4040   11.7560   -4.9090 C   0  0  1  0  0  0  0  0  0  0  0  0
    4.5190   10.8420   -4.3360 C   0  0  0  0  0  0  0  0  0  0  0  0
    4.1290   10.5260   -2.8690 C   0  0  0  0  0  0  0  0  0  0  0  0
    2.6580   10.9860   -2.7490 C   0  0  1  0  0  0  0  0  0  0  0  0
    1.8210    9.8160   -3.3550 C   0  0  0  0  0  0  0  0  0  0  0  0
    2.1670   11.3640   -1.3140 C   0  0  2  0  0  0  0  0  0  0  0  0
    2.1930   10.2140   -0.2910 C   0  0  0  0  0  0  0  0  0  0  0  0
    0.9390    9.4090   -0.2040 C   0  0  0  0  0  0  0  0  0  0  0  0
   -0.2580    9.7680   -0.7050 C   0  0  0  0  0  0  0  0  0  0  0  0
   -0.4580   11.1440   -1.3550 C   0  0  1  0  0  0  0  0  0  0  0  0
   -1.7630   11.7860   -0.8150 C   0  0  0  0  0  0  0  0  0  0  0  0
   -2.9770   10.8770   -0.9850 C   0  0  0  0  0  0  0  0  0  0  0  0
   -2.7620    9.5420   -0.2760 C   0  0  2  0  0  0  0  0  0  0  0  0
   -2.7120    9.7720    1.1350 O   0  0  0  0  0  0  0  0  0  0  0  0
   -1.4710    8.8070   -0.7320 C   0  0  0  0  0  0  0  0  0  0  0  0
   -1.6500    8.2910   -2.1820 C   0  0  0  0  0  0  0  0  0  0  0  0
   -1.2990    7.5470    0.1580 C   0  0  0  0  0  0  0  0  0  0  0  0
    0.7840   12.1320   -1.2830 C   0  0  1  0  0  0  0  0  0  0  0  0
    0.7490   12.9330    0.0550 C   0  0  0  0  0  0  0  0  0  0  0  0
    0.6630   13.1940   -2.4390 C   0  0  0  0  0  0  0  0  0  0  0  0
    1.2730   12.8100   -3.8010 C   0  0  0  0  0  0  0  0  0  0  0  0
    2.7030   12.2860   -3.6330 C   0  0  2  0  0  0  0  0  0  0  0  0
    3.5730   13.4480   -3.0450 C   0  0  0  0  0  0  0  0  0  0  0  0
    5.2316   13.3804   -4.2621 H   0  0  0  0  0  0  0  0  0  0  0  0
    6.0957   12.7879   -5.7212 H   0  0  0  0  0  0  0  0  0  0  0  0
    5.3489   14.4216   -5.7212 H   0  0  0  0  0  0  0  0  0  0  0  0
    4.1646   12.3070   -6.8554 H   0  0  0  0  0  0  0  0  0  0  0  0
    1.9055   13.5026   -5.7790 H   0  0  0  0  0  0  0  0  0  0  0  0
    3.2032   14.7836   -5.6423 H   0  0  0  0  0  0  0  0  0  0  0  0
    3.6956   14.2089   -8.1190 H   0  0  0  0  0  0  0  0  0  0  0  0
    2.0331   13.4855   -8.0940 H   0  0  0  0  0  0  0  0  0  0  0  0
    2.7187   15.9919   -7.0048 H   0  0  0  0  0  0  0  0  0  0  0  0
    2.1189   14.3158  -10.1764 H   0  0  0  0  0  0  0  0  0  0  0  0
    0.9471   15.3880  -11.0154 H   0  0  0  0  0  0  0  0  0  0  0  0
    2.6966   15.7953  -11.0154 H   0  0  0  0  0  0  0  0  0  0  0  0
    1.5352   18.0972   -8.3219 H   0  0  0  0  0  0  0  0  0  0  0  0
    2.4430   18.0142   -9.8697 H   0  0  0  0  0  0  0  0  0  0  0  0
    0.6526   17.8695   -9.8697 H   0  0  0  0  0  0  0  0  0  0  0  0
    2.6743   11.2468   -5.5557 H   0  0  0  0  0  0  0  0  0  0  0  0
    4.5833    9.9118   -4.9196 H   0  0  0  0  0  0  0  0  0  0  0  0
    5.4999   11.3373   -4.3858 H   0  0  0  0  0  0  0  0  0  0  0  0
    4.2165    9.4482   -2.6674 H   0  0  0  0  0  0  0  0  0  0  0  0
    4.7847   11.0316   -2.1448 H   0  0  0  0  0  0  0  0  0  0  0  0
    1.3901    9.2137   -2.5416 H   0  0  0  0  0  0  0  0  0  0  0  0
    1.0110   10.2275   -3.9752 H   0  0  0  0  0  0  0  0  0  0  0  0
    2.4720    9.1823   -3.9752 H   0  0  0  0  0  0  0  0  0  0  0  0
    2.9362   12.0771   -0.9827 H   0  0  0  0  0  0  0  0  0  0  0  0
    3.0144    9.5351   -0.5637 H   0  0  0  0  0  0  0  0  0  0  0  0
    2.3202   10.6863    0.6943 H   0  0  0  0  0  0  0  0  0  0  0  0
    0.9979    8.4401    0.3134 H   0  0  0  0  0  0  0  0  0  0  0  0
   -0.5518   10.9598   -2.4354 H   0  0  0  0  0  0  0  0  0  0  0  0
   -1.6323   12.0031    0.2554 H   0  0  0  0  0  0  0  0  0  0  0  0
   -1.9486   12.7023   -1.3945 H   0  0  0  0  0  0  0  0  0  0  0  0
   -3.8610   11.3732   -0.5580 H   0  0  0  0  0  0  0  0  0  0  0  0
   -3.1247   10.6851   -2.0580 H   0  0  0  0  0  0  0  0  0  0  0  0
   -3.6055    8.8879   -0.5419 H   0  0  0  0  0  0  0  0  0  0  0  0
   -2.6840   10.7340    1.2750 H   0  0  0  0  0  0  0  0  0  0  0  0
   -2.0104    7.2520   -2.1596 H   0  0  0  0  0  0  0  0  0  0  0  0
   -2.3819    8.9217   -2.7079 H   0  0  0  0  0  0  0  0  0  0  0  0
   -0.6848    8.3330   -2.7079 H   0  0  0  0  0  0  0  0  0  0  0  0
   -1.3388    7.8385    1.2179 H   0  0  0  0  0  0  0  0  0  0  0  0
   -2.1080    6.8333   -0.0566 H   0  0  0  0  0  0  0  0  0  0  0  0
   -0.3283    7.0762   -0.0566 H   0  0  0  0  0  0  0  0  0  0  0  0
    0.7796   12.2325    0.9026 H   0  0  0  0  0  0  0  0  0  0  0  0
    1.6186   13.6049    0.1030 H   0  0  0  0  0  0  0  0  0  0  0  0
   -0.1759   13.5265    0.1030 H   0  0  0  0  0  0  0  0  0  0  0  0
   -0.4072   13.3928   -2.5977 H   0  0  0  0  0  0  0  0  0  0  0  0
    1.2467   14.0610   -2.0960 H   0  0  0  0  0  0  0  0  0  0  0  0
    0.6548   12.0269   -4.2642 H   0  0  0  0  0  0  0  0  0  0  0  0
    1.3003   13.7061   -4.4384 H   0  0  0  0  0  0  0  0  0  0  0  0
    3.5433   13.4084   -1.9461 H   0  0  0  0  0  0  0  0  0  0  0  0
    4.6123   13.3376   -3.3880 H   0  0  0  0  0  0  0  0  0  0  0  0
    3.1744   14.4142   -3.3880 H   0  0  0  0  0  0  0  0  0  0  0  0
  1  2  1  0
  2  3  1  0
  3  4  1  0
  4  5  1  0
  5  6  1  0
  6  7  1  0
  7  8  1  0
  7  9  1  0
  2 10  1  0
 10 11  1  0
 11 12  1  0
 12 13  1  0
 13 14  1  6
 13 15  1  0
 15 16  1  0
 16 17  1  0
 17 18  2  0
 18 19  1  0
 19 20  1  0
 20 21  1  0
 21 22  1  0
 22 23  1  0
 22 24  1  0
 24 25  1  0
 24 26  1  0
 19 27  1  0
 27 28  1  1
 27 29  1  0
 29 30  1  0
 30 31  1  0
 31 32  1  1
  7  5  1  0
 31 10  1  0
 31 13  1  0
 27 15  1  0
 24 18  1  0
  1 33  1  0
  1 34  1  0
  1 35  1  0
  2 36  1  6
  3 37  1  0
  3 38  1  0
  4 39  1  0
  4 40  1  0
  5 41  1  1
  8 42  1  0
  8 43  1  0
  8 44  1  0
  9 45  1  0
  9 46  1  0
  9 47  1  0
 10 48  1  6
 11 49  1  0
 11 50  1  0
 12 51  1  0
 12 52  1  0
 14 53  1  0
 14 54  1  0
 14 55  1  0
 15 56  1  1
 16 57  1  0
 16 58  1  0
 17 59  1  0
 19 60  1  6
 20 61  1  0
 20 62  1  0
 21 63  1  0
 21 64  1  0
 22 65  1  1
 23 66  1  0
 25 67  1  0
 25 68  1  0
 25 69  1  0
 26 70  1  0
 26 71  1  0
 26 72  1  0
 28 73  1  0
 28 74  1  0
 28 75  1  0
 29 76  1  0
 29 77  1  0
 30 78  1  0
 30 79  1  0
 32 80  1  0
 32 81  1  0
 32 82  1  0
M  END
>  <meeko>  (10) 
{"is_sidechain": [false], "intermolecular_energy": 2.731, "internal_energy": -0.839}

$$$$
EPH_relaxed_0001_pdb2pqr_Repair_312_r2_0001_out
     RDKit          3D

 82 86  0  0  0  0  0  0  0  0999 V2000
    3.6990   17.8780    1.3580 C   0  0  0  0  0  0  0  0  0  0  0  0
    2.7890   18.3320    0.2130 C   0  0  2  0  0  0  0  0  0  0  0  0
    2.0480   19.6430    0.5450 C   0  0  0  0  0  0  0  0  0  0  0  0
    0.7440   19.4340    1.3180 C   0  0  0  0  0  0  0  0  0  0  0  0
   -0.4230   20.0620    0.6180 C   0  0  2  0  0  0  0  0  0  0  0  0
   -1.6040   20.1930    1.4200 O   0  0  0  0  0  0  0  0  0  0  0  0
   -1.7010   19.3150    0.2870 C   0  0  0  0  0  0  0  0  0  0  0  0
   -1.8780   17.8730    0.6470 C   0  0  0  0  0  0  0  0  0  0  0  0
   -2.5740   19.8410   -0.8100 C   0  0  0  0  0  0  0  0  0  0  0  0
    1.7840   17.2350   -0.1180 C   0  0  1  0  0  0  0  0  0  0  0  0
    0.6530   17.7260   -1.0610 C   0  0  0  0  0  0  0  0  0  0  0  0
    0.2900   16.5340   -1.9820 C   0  0  0  0  0  0  0  0  0  0  0  0
    0.9780   15.3120   -1.3290 C   0  0  1  0  0  0  0  0  0  0  0  0
    0.0170   14.8780   -0.1780 C   0  0  0  0  0  0  0  0  0  0  0  0
    1.3150   14.1180   -2.2800 C   0  0  2  0  0  0  0  0  0  0  0  0
    0.0980   13.4450   -2.9390 C   0  0  0  0  0  0  0  0  0  0  0  0
   -0.4900   12.3050   -2.1760 C   0  0  0  0  0  0  0  0  0  0  0  0
    0.1030   11.6560   -1.1570 C   0  0  0  0  0  0  0  0  0  0  0  0
    1.5410   11.9930   -0.7390 C   0  0  1  0  0  0  0  0  0  0  0  0
    2.3460   10.6810   -0.5500 C   0  0  0  0  0  0  0  0  0  0  0  0
    1.6700    9.7130    0.4160 C   0  0  0  0  0  0  0  0  0  0  0  0
    0.2650    9.3570   -0.0640 C   0  0  2  0  0  0  0  0  0  0  0  0
    0.3690    8.6030   -1.2750 O   0  0  0  0  0  0  0  0  0  0  0  0
   -0.6370   10.6010   -0.2980 C   0  0  0  0  0  0  0  0  0  0  0  0
   -0.9970   11.2470    1.0620 C   0  0  0  0  0  0  0  0  0  0  0  0
   -1.9750   10.1110   -0.9140 C   0  0  0  0  0  0  0  0  0  0  0  0
    2.2990   13.0480   -1.6540 C   0  0  1  0  0  0  0  0  0  0  0  0
    2.9840   12.3200   -2.8510 C   0  0  0  0  0  0  0  0  0  0  0  0
    3.4550   13.7150   -0.8200 C   0  0  0  0  0  0  0  0  0  0  0  0
    3.0860   14.9630    0.0060 C   0  0  0  0  0  0  0  0  0  0  0  0
    2.3180   15.9770   -0.8470 C   0  0  2  0  0  0  0  0  0  0  0  0
    3.2680   16.4490   -2.0000 C   0  0  0  0  0  0  0  0  0  0  0  0
    3.2230   18.1155    2.3208 H   0  0  0  0  0  0  0  0  0  0  0  0
    3.8628   16.7925    1.2878 H   0  0  0  0  0  0  0  0  0  0  0  0
    4.6648   18.3999    1.2878 H   0  0  0  0  0  0  0  0  0  0  0  0
    3.4283   18.5266   -0.6607 H   0  0  0  0  0  0  0  0  0  0  0  0
    2.7140   20.2742    1.1517 H   0  0  0  0  0  0  0  0  0  0  0  0
    1.7818   20.1132   -0.4131 H   0  0  0  0  0  0  0  0  0  0  0  0
    0.5594   18.3544    1.4201 H   0  0  0  0  0  0  0  0  0  0  0  0
    0.8497   19.9112    2.3034 H   0  0  0  0  0  0  0  0  0  0  0  0
    0.2486   20.6825    0.0065 H   0  0  0  0  0  0  0  0  0  0  0  0
   -1.8910   17.7673    1.7418 H   0  0  0  0  0  0  0  0  0  0  0  0
   -2.8280   17.5054    0.2319 H   0  0  0  0  0  0  0  0  0  0  0  0
   -1.0451   17.2865    0.2319 H   0  0  0  0  0  0  0  0  0  0  0  0
   -3.4385   20.3619   -0.3727 H   0  0  0  0  0  0  0  0  0  0  0  0
   -1.9989   20.5430   -1.4316 H   0  0  0  0  0  0  0  0  0  0  0  0
   -2.9259   19.0045   -1.4316 H   0  0  0  0  0  0  0  0  0  0  0  0
    1.4586   16.9706    0.8989 H   0  0  0  0  0  0  0  0  0  0  0  0
   -0.2249   18.0312   -0.4727 H   0  0  0  0  0  0  0  0  0  0  0  0
    0.9798   18.5954   -1.6504 H   0  0  0  0  0  0  0  0  0  0  0  0
   -0.8000   16.3911   -2.0207 H   0  0  0  0  0  0  0  0  0  0  0  0
    0.6197   16.6931   -3.0193 H   0  0  0  0  0  0  0  0  0  0  0  0
    0.4882   15.0908    0.7929 H   0  0  0  0  0  0  0  0  0  0  0  0
   -0.9269   15.4372   -0.2579 H   0  0  0  0  0  0  0  0  0  0  0  0
   -0.1875   13.8001   -0.2579 H   0  0  0  0  0  0  0  0  0  0  0  0
    1.8606   14.6138   -3.0964 H   0  0  0  0  0  0  0  0  0  0  0  0
   -0.6842   14.2077   -3.0674 H   0  0  0  0  0  0  0  0  0  0  0  0
    0.4603   13.0220   -3.8876 H   0  0  0  0  0  0  0  0  0  0  0  0
   -1.4939   11.9663   -2.4718 H   0  0  0  0  0  0  0  0  0  0  0  0
    1.4626   12.5239    0.2212 H   0  0  0  0  0  0  0  0  0  0  0  0
    2.4507   10.1878   -1.5276 H   0  0  0  0  0  0  0  0  0  0  0  0
    3.3244   10.9484   -0.1242 H   0  0  0  0  0  0  0  0  0  0  0  0
    2.2708    8.7941    0.4845 H   0  0  0  0  0  0  0  0  0  0  0  0
    1.5931   10.1960    1.4013 H   0  0  0  0  0  0  0  0  0  0  0  0
   -0.2153    8.7675    0.7309 H   0  0  0  0  0  0  0  0  0  0  0  0
    0.4470    9.2350   -2.0090 H   0  0  0  0  0  0  0  0  0  0  0  0
   -0.6388   10.6041    1.8796 H   0  0  0  0  0  0  0  0  0  0  0  0
   -0.5195   12.2351    1.1364 H   0  0  0  0  0  0  0  0  0  0  0  0
   -2.0886   11.3607    1.1364 H   0  0  0  0  0  0  0  0  0  0  0  0
   -2.6775    9.8537   -0.1076 H   0  0  0  0  0  0  0  0  0  0  0  0
   -2.4067   10.9094   -1.5355 H   0  0  0  0  0  0  0  0  0  0  0  0
   -1.7890    9.2227   -1.5355 H   0  0  0  0  0  0  0  0  0  0  0  0
    3.6905   11.5691   -2.4677 H   0  0  0  0  0  0  0  0  0  0  0  0
    2.2182   11.8232   -3.4648 H   0  0  0  0  0  0  0  0  0  0  0  0
    3.5264   13.0542   -3.4648 H   0  0  0  0  0  0  0  0  0  0  0  0
    3.8422   12.9573   -0.1229 H   0  0  0  0  0  0  0  0  0  0  0  0
    4.1811   14.0688   -1.5667 H   0  0  0  0  0  0  0  0  0  0  0  0
    2.4579   14.6590    0.8564 H   0  0  0  0  0  0  0  0  0  0  0  0
    4.0136   15.4350    0.3621 H   0  0  0  0  0  0  0  0  0  0  0  0
    4.1738   16.8991   -1.5677 H   0  0  0  0  0  0  0  0  0  0  0  0
    3.5482   15.5853   -2.6209 H   0  0  0  0  0  0  0  0  0  0  0  0
    2.7489   17.1940   -2.6209 H   0  0  0  0  0  0  0  0  0  0  0  0
  1  2  1  0
  2  3  1  0
  3  4  1  0
  4  5  1  0
  5  6  1  0
  6  7  1  0
  7  8  1  0
  7  9  1  0
  2 10  1  0
 10 11  1  0
 11 12  1  0
 12 13  1  0
 13 14  1  1
 13 15  1  0
 15 16  1  0
 16 17  1  0
 17 18  2  0
 18 19  1  0
 19 20  1  0
 20 21  1  0
 21 22  1  0
 22 23  1  0
 22 24  1  0
 24 25  1  0
 24 26  1  0
 19 27  1  0
 27 28  1  6
 27 29  1  0
 29 30  1  0
 30 31  1  0
 31 32  1  6
  7  5  1  0
 31 10  1  0
 31 13  1  0
 27 15  1  0
 24 18  1  0
  1 33  1  0
  1 34  1  0
  1 35  1  0
  2 36  1  6
  3 37  1  0
  3 38  1  0
  4 39  1  0
  4 40  1  0
  5 41  1  6
  8 42  1  0
  8 43  1  0
  8 44  1  0
  9 45  1  0
  9 46  1  0
  9 47  1  0
 10 48  1  1
 11 49  1  0
 11 50  1  0
 12 51  1  0
 12 52  1  0
 14 53  1  0
 14 54  1  0
 14 55  1  0
 15 56  1  6
 16 57  1  0
 16 58  1  0
 17 59  1  0
 19 60  1  1
 20 61  1  0
 20 62  1  0
 21 63  1  0
 21 64  1  0
 22 65  1  1
 23 66  1  0
 25 67  1  0
 25 68  1  0
 25 69  1  0
 26 70  1  0
 26 71  1  0
 26 72  1  0
 28 73  1  0
 28 74  1  0
 28 75  1  0
 29 76  1  0
 29 77  1  0
 30 78  1  0
 30 79  1  0
 32 80  1  0
 32 81  1  0
 32 82  1  0
M  END
>  <meeko>  (11) 
{"is_sidechain": [false], "intermolecular_energy": 2.731, "internal_energy": -0.839}

$$$$
EPH_relaxed_0001_pdb2pqr_Repair_312_r2_0001_out
     RDKit          3D

 82 86  0  0  0  0  0  0  0  0999 V2000
   -2.1200   14.3940    0.2620 C   0  0  0  0  0  0  0  0  0  0  0  0
   -0.8090   15.1050    0.6060 C   0  0  2  0  0  0  0  0  0  0  0  0
   -0.6690   16.4530   -0.1280 C   0  0  0  0  0  0  0  0  0  0  0  0
    0.7780   16.8230   -0.4650 C   0  0  0  0  0  0  0  0  0  0  0  0
    1.0470   18.2790   -0.2310 C   0  0  2  0  0  0  0  0  0  0  0  0
    1.9160   18.8900   -1.1940 O   0  0  0  0  0  0  0  0  0  0  0  0
    2.4070   18.8280    0.1550 C   0  0  0  0  0  0  0  0  0  0  0  0
    3.5900   17.9280    0.3320 C   0  0  0  0  0  0  0  0  0  0  0  0
    2.4750   20.1600    0.8340 C   0  0  0  0  0  0  0  0  0  0  0  0
    0.3740   14.2040    0.2710 C   0  0  1  0  0  0  0  0  0  0  0  0
    0.6450   13.1410    1.3690 C   0  0  0  0  0  0  0  0  0  0  0  0
    1.1390   11.8630    0.6420 C   0  0  0  0  0  0  0  0  0  0  0  0
    1.4510   12.3300   -0.7990 C   0  0  1  0  0  0  0  0  0  0  0  0
    2.8680   12.9800   -0.7110 C   0  0  0  0  0  0  0  0  0  0  0  0
    1.3870   11.2320   -1.9100 C   0  0  2  0  0  0  0  0  0  0  0  0
    2.4000   10.0850   -1.7530 C   0  0  0  0  0  0  0  0  0  0  0  0
    3.7140   10.2960   -2.4310 C   0  0  0  0  0  0  0  0  0  0  0  0
    3.9680   11.2270   -3.3690 C   0  0  0  0  0  0  0  0  0  0  0  0
    2.8500   12.1270   -3.9100 C   0  0  1  0  0  0  0  0  0  0  0  0
    2.9300   12.1790   -5.4590 C   0  0  0  0  0  0  0  0  0  0  0  0
    4.3100   12.5980   -5.9590 C   0  0  0  0  0  0  0  0  0  0  0  0
    5.3870   11.6450   -5.4480 C   0  0  2  0  0  0  0  0  0  0  0  0
    5.1890   10.3610   -6.0470 O   0  0  0  0  0  0  0  0  0  0  0  0
    5.3970   11.5040   -3.9000 C   0  0  0  0  0  0  0  0  0  0  0  0
    5.9060   12.8200   -3.2600 C   0  0  0  0  0  0  0  0  0  0  0  0
    6.4330   10.4110   -3.5260 C   0  0  0  0  0  0  0  0  0  0  0  0
    1.3850   11.8030   -3.3860 C   0  0  1  0  0  0  0  0  0  0  0  0
    0.7270   10.7120   -4.2850 C   0  0  0  0  0  0  0  0  0  0  0  0
    0.4920   13.0920   -3.5270 C   0  0  0  0  0  0  0  0  0  0  0  0
    0.5050   14.0800   -2.3450 C   0  0  0  0  0  0  0  0  0  0  0  0
    0.2760   13.3500   -1.0180 C   0  0  2  0  0  0  0  0  0  0  0  0
   -1.1510   12.7050   -1.0680 C   0  0  0  0  0  0  0  0  0  0  0  0
   -2.6390   14.1125    1.1901 H   0  0  0  0  0  0  0  0  0  0  0  0
   -2.7598   15.0687   -0.3257 H   0  0  0  0  0  0  0  0  0  0  0  0
   -1.9034   13.4897   -0.3257 H   0  0  0  0  0  0  0  0  0  0  0  0
   -0.8212   15.3172    1.6853 H   0  0  0  0  0  0  0  0  0  0  0  0
   -1.2410   16.3987   -1.0660 H   0  0  0  0  0  0  0  0  0  0  0  0
   -1.0496   17.2300    0.5513 H   0  0  0  0  0  0  0  0  0  0  0  0
    1.4543   16.2294    0.1676 H   0  0  0  0  0  0  0  0  0  0  0  0
    0.9470   16.6101   -1.5309 H   0  0  0  0  0  0  0  0  0  0  0  0
    0.0457   18.4176    0.2027 H   0  0  0  0  0  0  0  0  0  0  0  0
    3.7822   17.7818    1.4052 H   0  0  0  0  0  0  0  0  0  0  0  0
    3.3848   16.9556   -0.1396 H   0  0  0  0  0  0  0  0  0  0  0  0
    4.4724   18.3852   -0.1396 H   0  0  0  0  0  0  0  0  0  0  0  0
    2.4677   20.0164    1.9246 H   0  0  0  0  0  0  0  0  0  0  0  0
    3.4006   20.6755    0.5382 H   0  0  0  0  0  0  0  0  0  0  0  0
    1.6067   20.7671    0.5382 H   0  0  0  0  0  0  0  0  0  0  0  0
    1.1593   14.9660    0.1585 H   0  0  0  0  0  0  0  0  0  0  0  0
    1.4162   13.5031    2.0647 H   0  0  0  0  0  0  0  0  0  0  0  0
   -0.2640   12.9365    1.9538 H   0  0  0  0  0  0  0  0  0  0  0  0
    2.0435   11.4660    1.1260 H   0  0  0  0  0  0  0  0  0  0  0  0
    0.3934   11.0546    0.6664 H   0  0  0  0  0  0  0  0  0  0  0  0
    3.1476   13.1083    0.3451 H   0  0  0  0  0  0  0  0  0  0  0  0
    3.6018   12.3285   -1.2081 H   0  0  0  0  0  0  0  0  0  0  0  0
    2.8528   13.9612   -1.2081 H   0  0  0  0  0  0  0  0  0  0  0  0
    0.3977   10.7821   -1.7401 H   0  0  0  0  0  0  0  0  0  0  0  0
    2.5906    9.9448   -0.6788 H   0  0  0  0  0  0  0  0  0  0  0  0
    1.9448    9.2090   -2.2382 H   0  0  0  0  0  0  0  0  0  0  0  0
    4.5435    9.6351   -2.1392 H   0  0  0  0  0  0  0  0  0  0  0  0
    3.0368   13.1275   -3.4928 H   0  0  0  0  0  0  0  0  0  0  0  0
    2.6984   11.1804   -5.8580 H   0  0  0  0  0  0  0  0  0  0  0  0
    2.2061   12.9309   -5.8061 H   0  0  0  0  0  0  0  0  0  0  0  0
    4.3128   12.5881   -7.0590 H   0  0  0  0  0  0  0  0  0  0  0  0
    4.5280   13.6086   -5.5833 H   0  0  0  0  0  0  0  0  0  0  0  0
    6.3622   12.0685   -5.7301 H   0  0  0  0  0  0  0  0  0  0  0  0
    5.1430    9.7060   -5.3300 H   0  0  0  0  0  0  0  0  0  0  0  0
    5.8719   12.7319   -2.1641 H   0  0  0  0  0  0  0  0  0  0  0  0
    6.9414   13.0072   -3.5808 H   0  0  0  0  0  0  0  0  0  0  0  0
    5.2661   13.6552   -3.5808 H   0  0  0  0  0  0  0  0  0  0  0  0
    6.5058   10.3341   -2.4311 H   0  0  0  0  0  0  0  0  0  0  0  0
    6.1119    9.4442   -3.9409 H   0  0  0  0  0  0  0  0  0  0  0  0
    7.4156   10.6799   -3.9409 H   0  0  0  0  0  0  0  0  0  0  0  0
    0.2635    9.9434   -3.6490 H   0  0  0  0  0  0  0  0  0  0  0  0
   -0.0424   11.1753   -4.9201 H   0  0  0  0  0  0  0  0  0  0  0  0
    1.4958   10.2476   -4.9201 H   0  0  0  0  0  0  0  0  0  0  0  0
    0.8331   13.6369   -4.4196 H   0  0  0  0  0  0  0  0  0  0  0  0
   -0.5421   12.7208   -3.5799 H   0  0  0  0  0  0  0  0  0  0  0  0
    1.4796   14.5891   -2.3122 H   0  0  0  0  0  0  0  0  0  0  0  0
   -0.3057   14.8095   -2.4886 H   0  0  0  0  0  0  0  0  0  0  0  0
   -1.5151   12.5404   -0.0431 H   0  0  0  0  0  0  0  0  0  0  0  0
   -1.8398   13.3793   -1.5980 H   0  0  0  0  0  0  0  0  0  0  0  0
   -1.0999   11.7424   -1.5980 H   0  0  0  0  0  0  0  0  0  0  0  0
  1  2  1  0
  2  3  1  0
  3  4  1  0
  4  5  1  0
  5  6  1  0
  6  7  1  0
  7  8  1  0
  7  9  1  0
  2 10  1  0
 10 11  1  0
 11 12  1  0
 12 13  1  0
 13 14  1  1
 13 15  1  0
 15 16  1  0
 16 17  1  0
 17 18  2  0
 18 19  1  0
 19 20  1  0
 20 21  1  0
 21 22  1  0
 22 23  1  0
 22 24  1  0
 24 25  1  0
 24 26  1  0
 19 27  1  0
 27 28  1  6
 27 29  1  0
 29 30  1  0
 30 31  1  0
 31 32  1  6
  7  5  1  0
 31 10  1  0
 31 13  1  0
 27 15  1  0
 24 18  1  0
  1 33  1  0
  1 34  1  0
  1 35  1  0
  2 36  1  1
  3 37  1  0
  3 38  1  0
  4 39  1  0
  4 40  1  0
  5 41  1  1
  8 42  1  0
  8 43  1  0
  8 44  1  0
  9 45  1  0
  9 46  1  0
  9 47  1  0
 10 48  1  6
 11 49  1  0
 11 50  1  0
 12 51  1  0
 12 52  1  0
 14 53  1  0
 14 54  1  0
 14 55  1  0
 15 56  1  1
 16 57  1  0
 16 58  1  0
 17 59  1  0
 19 60  1  1
 20 61  1  0
 20 62  1  0
 21 63  1  0
 21 64  1  0
 22 65  1  6
 23 66  1  0
 25 67  1  0
 25 68  1  0
 25 69  1  0
 26 70  1  0
 26 71  1  0
 26 72  1  0
 28 73  1  0
 28 74  1  0
 28 75  1  0
 29 76  1  0
 29 77  1  0
 30 78  1  0
 30 79  1  0
 32 80  1  0
 32 81  1  0
 32 82  1  0
M  END
>  <meeko>  (12) 
{"is_sidechain": [false], "intermolecular_energy": 2.731, "internal_energy": -0.839}

$$$$
EPH_relaxed_0001_pdb2pqr_Repair_312_r2_0001_out
     RDKit          3D

 82 86  0  0  0  0  0  0  0  0999 V2000
    0.0850   14.7360   -4.1850 C   0  0  0  0  0  0  0  0  0  0  0  0
    1.2390   13.7480   -4.3730 C   0  0  2  0  0  0  0  0  0  0  0  0
    1.9220   13.9080   -5.7460 C   0  0  0  0  0  0  0  0  0  0  0  0
    1.2880   14.9880   -6.6270 C   0  0  0  0  0  0  0  0  0  0  0  0
    1.9620   15.0800   -7.9620 C   0  0  2  0  0  0  0  0  0  0  0  0
    2.4200   16.3930   -8.3120 O   0  0  0  0  0  0  0  0  0  0  0  0
    1.3830   15.8420   -9.1400 C   0  0  0  0  0  0  0  0  0  0  0  0
    0.0750   16.5610   -9.0380 C   0  0  0  0  0  0  0  0  0  0  0  0
    1.8410   15.4820  -10.5190 C   0  0  0  0  0  0  0  0  0  0  0  0
    0.7340   12.3200   -4.2060 C   0  0  1  0  0  0  0  0  0  0  0  0
    1.8300   11.2600   -4.4970 C   0  0  0  0  0  0  0  0  0  0  0  0
    1.5790   10.0780   -3.5260 C   0  0  0  0  0  0  0  0  0  0  0  0
    0.1690   10.3420   -2.9470 C   0  0  1  0  0  0  0  0  0  0  0  0
   -0.8170    9.8200   -4.0380 C   0  0  0  0  0  0  0  0  0  0  0  0
   -0.1320    9.7120   -1.5480 C   0  0  2  0  0  0  0  0  0  0  0  0
   -0.0850    8.1750   -1.5000 C   0  0  0  0  0  0  0  0  0  0  0  0
   -1.3810    7.4880   -1.7760 C   0  0  0  0  0  0  0  0  0  0  0  0
   -2.5930    8.0740   -1.7700 C   0  0  0  0  0  0  0  0  0  0  0  0
   -2.7550    9.5450   -1.3680 C   0  0  1  0  0  0  0  0  0  0  0  0
   -3.9390    9.6840   -0.3750 C   0  0  0  0  0  0  0  0  0  0  0  0
   -5.2320    9.0820   -0.9190 C   0  0  0  0  0  0  0  0  0  0  0  0
   -5.0470    7.6040   -1.2520 C   0  0  2  0  0  0  0  0  0  0  0  0
   -4.8250    6.8810   -0.0370 O   0  0  0  0  0  0  0  0  0  0  0  0
   -3.8740    7.3400   -2.2380 C   0  0  0  0  0  0  0  0  0  0  0  0
   -4.2490    7.8660   -3.6450 C   0  0  0  0  0  0  0  0  0  0  0  0
   -3.7060    5.8030   -2.3790 C   0  0  0  0  0  0  0  0  0  0  0  0
   -1.4390   10.2720   -0.8530 C   0  0  1  0  0  0  0  0  0  0  0  0
   -1.2650   10.0360    0.6790 C   0  0  0  0  0  0  0  0  0  0  0  0
   -1.6010   11.8260   -1.0460 C   0  0  0  0  0  0  0  0  0  0  0  0
   -1.1740   12.4050   -2.4090 C   0  0  0  0  0  0  0  0  0  0  0  0
    0.2200   11.9070   -2.8040 C   0  0  2  0  0  0  0  0  0  0  0  0
    1.2370   12.4350   -1.7360 C   0  0  0  0  0  0  0  0  0  0  0  0
   -0.0947   14.8898   -3.1107 H   0  0  0  0  0  0  0  0  0  0  0  0
    0.3443   15.6963   -4.6546 H   0  0  0  0  0  0  0  0  0  0  0  0
   -0.8239   14.3318   -4.6546 H   0  0  0  0  0  0  0  0  0  0  0  0
    1.9918   13.9682   -3.6017 H   0  0  0  0  0  0  0  0  0  0  0  0
    2.9773   14.1703   -5.5804 H   0  0  0  0  0  0  0  0  0  0  0  0
    1.8054   12.9514   -6.2763 H   0  0  0  0  0  0  0  0  0  0  0  0
    0.2260   14.7454   -6.7797 H   0  0  0  0  0  0  0  0  0  0  0  0
    1.4018   15.9564   -6.1179 H   0  0  0  0  0  0  0  0  0  0  0  0
    2.3489   14.0549   -7.8643 H   0  0  0  0  0  0  0  0  0  0  0  0
   -0.1836   16.7032   -7.9783 H   0  0  0  0  0  0  0  0  0  0  0  0
    0.1561   17.5413   -9.5303 H   0  0  0  0  0  0  0  0  0  0  0  0
   -0.7092   15.9672   -9.5303 H   0  0  0  0  0  0  0  0  0  0  0  0
    2.7043   14.8034  -10.4532 H   0  0  0  0  0  0  0  0  0  0  0  0
    1.0226   14.9829  -11.0586 H   0  0  0  0  0  0  0  0  0  0  0  0
    2.1327   16.3951  -11.0586 H   0  0  0  0  0  0  0  0  0  0  0  0
   -0.0994   12.3346   -4.9238 H   0  0  0  0  0  0  0  0  0  0  0  0
    1.7569   10.9160   -5.5393 H   0  0  0  0  0  0  0  0  0  0  0  0
    2.8355   11.6822   -4.3532 H   0  0  0  0  0  0  0  0  0  0  0  0
    1.6041    9.1199   -4.0658 H   0  0  0  0  0  0  0  0  0  0  0  0
    2.3469   10.0123   -2.7411 H   0  0  0  0  0  0  0  0  0  0  0  0
   -1.6895    9.3581   -3.5529 H   0  0  0  0  0  0  0  0  0  0  0  0
   -1.1485   10.6607   -4.6651 H   0  0  0  0  0  0  0  0  0  0  0  0
   -0.3080    9.0732   -4.6651 H   0  0  0  0  0  0  0  0  0  0  0  0
    0.7224   10.0555   -0.9464 H   0  0  0  0  0  0  0  0  0  0  0  0
    0.6463    7.8339   -2.2476 H   0  0  0  0  0  0  0  0  0  0  0  0
    0.1849    7.9112   -0.4668 H   0  0  0  0  0  0  0  0  0  0  0  0
   -1.3426    6.4125   -2.0034 H   0  0  0  0  0  0  0  0  0  0  0  0
   -2.9806   10.0902   -2.2964 H   0  0  0  0  0  0  0  0  0  0  0  0
   -3.6767    9.1692    0.5610 H   0  0  0  0  0  0  0  0  0  0  0  0
   -4.1133   10.7576   -0.2110 H   0  0  0  0  0  0  0  0  0  0  0  0
   -6.0233    9.1842   -0.1618 H   0  0  0  0  0  0  0  0  0  0  0  0
   -5.5090    9.6175   -1.8391 H   0  0  0  0  0  0  0  0  0  0  0  0
   -5.9636    7.2629   -1.7555 H   0  0  0  0  0  0  0  0  0  0  0  0
   -4.4510    7.5020    0.6110 H   0  0  0  0  0  0  0  0  0  0  0  0
   -4.8849    8.7580   -3.5455 H   0  0  0  0  0  0  0  0  0  0  0  0
   -3.3329    8.1282   -4.1946 H   0  0  0  0  0  0  0  0  0  0  0  0
   -4.7956    7.0855   -4.1946 H   0  0  0  0  0  0  0  0  0  0  0  0
   -3.6561    5.3464   -1.3795 H   0  0  0  0  0  0  0  0  0  0  0  0
   -4.5643    5.3892   -2.9287 H   0  0  0  0  0  0  0  0  0  0  0  0
   -2.7786    5.5844   -2.9287 H   0  0  0  0  0  0  0  0  0  0  0  0
   -1.8286   10.8004    1.2341 H   0  0  0  0  0  0  0  0  0  0  0  0
   -1.6448    9.0376    0.9417 H   0  0  0  0  0  0  0  0  0  0  0  0
   -0.1990   10.1036    0.9417 H   0  0  0  0  0  0  0  0  0  0  0  0
   -2.6632   12.0708   -0.8985 H   0  0  0  0  0  0  0  0  0  0  0  0
   -0.9174   12.2799   -0.3134 H   0  0  0  0  0  0  0  0  0  0  0  0
   -1.8983   12.0924   -3.1756 H   0  0  0  0  0  0  0  0  0  0  0  0
   -1.1454   13.5018   -2.3307 H   0  0  0  0  0  0  0  0  0  0  0  0
    0.8475   12.2328   -0.7273 H   0  0  0  0  0  0  0  0  0  0  0  0
    2.2027   11.9244   -1.8653 H   0  0  0  0  0  0  0  0  0  0  0  0
    1.3750   13.5186   -1.8653 H   0  0  0  0  0  0  0  0  0  0  0  0
  1  2  1  0
  2  3  1  0
  3  4  1  0
  4  5  1  0
  5  6  1  0
  6  7  1  0
  7  8  1  0
  7  9  1  0
  2 10  1  0
 10 11  1  0
 11 12  1  0
 12 13  1  0
 13 14  1  6
 13 15  1  0
 15 16  1  0
 16 17  1  0
 17 18  2  0
 18 19  1  0
 19 20  1  0
 20 21  1  0
 21 22  1  0
 22 23  1  0
 22 24  1  0
 24 25  1  0
 24 26  1  0
 19 27  1  0
 27 28  1  1
 27 29  1  0
 29 30  1  0
 30 31  1  0
 31 32  1  1
  7  5  1  0
 31 10  1  0
 31 13  1  0
 27 15  1  0
 24 18  1  0
  1 33  1  0
  1 34  1  0
  1 35  1  0
  2 36  1  1
  3 37  1  0
  3 38  1  0
  4 39  1  0
  4 40  1  0
  5 41  1  6
  8 42  1  0
  8 43  1  0
  8 44  1  0
  9 45  1  0
  9 46  1  0
  9 47  1  0
 10 48  1  6
 11 49  1  0
 11 50  1  0
 12 51  1  0
 12 52  1  0
 14 53  1  0
 14 54  1  0
 14 55  1  0
 15 56  1  1
 16 57  1  0
 16 58  1  0
 17 59  1  0
 19 60  1  6
 20 61  1  0
 20 62  1  0
 21 63  1  0
 21 64  1  0
 22 65  1  6
 23 66  1  0
 25 67  1  0
 25 68  1  0
 25 69  1  0
 26 70  1  0
 26 71  1  0
 26 72  1  0
 28 73  1  0
 28 74  1  0
 28 75  1  0
 29 76  1  0
 29 77  1  0
 30 78  1  0
 30 79  1  0
 32 80  1  0
 32 81  1  0
 32 82  1  0
M  END
>  <meeko>  (13) 
{"is_sidechain": [false], "intermolecular_energy": 2.731, "internal_energy": -0.839}

$$$$
EPH_relaxed_0001_pdb2pqr_Repair_312_r2_0001_out
     RDKit          3D

 82 86  0  0  0  0  0  0  0  0999 V2000
    3.4770   10.4600   -3.7320 C   0  0  0  0  0  0  0  0  0  0  0  0
    2.4520   11.0360   -4.7130 C   0  0  2  0  0  0  0  0  0  0  0  0
    3.1240   11.7200   -5.9210 C   0  0  0  0  0  0  0  0  0  0  0  0
    3.0450   13.2480   -5.8850 C   0  0  0  0  0  0  0  0  0  0  0  0
    2.4460   13.8020   -7.1420 C   0  0  2  0  0  0  0  0  0  0  0  0
    2.7710   15.1730   -7.4070 O   0  0  0  0  0  0  0  0  0  0  0  0
    1.3850   14.8870   -7.1560 C   0  0  0  0  0  0  0  0  0  0  0  0
    0.8610   15.4820   -5.8870 C   0  0  0  0  0  0  0  0  0  0  0  0
    0.5140   15.0200   -8.3650 C   0  0  0  0  0  0  0  0  0  0  0  0
    1.5430   12.0260   -3.9930 C   0  0  1  0  0  0  0  0  0  0  0  0
    0.1470   11.4300   -3.6710 C   0  0  0  0  0  0  0  0  0  0  0  0
   -0.2960   12.0350   -2.3140 C   0  0  0  0  0  0  0  0  0  0  0  0
    0.6930   13.1980   -2.0650 C   0  0  1  0  0  0  0  0  0  0  0  0
    0.1410   14.3840   -2.9170 C   0  0  0  0  0  0  0  0  0  0  0  0
    0.9110   13.6120   -0.5730 C   0  0  2  0  0  0  0  0  0  0  0  0
   -0.3420   14.1410    0.1470 C   0  0  0  0  0  0  0  0  0  0  0  0
   -0.5520   15.6160    0.0610 C   0  0  0  0  0  0  0  0  0  0  0  0
    0.3720   16.5170   -0.3210 C   0  0  0  0  0  0  0  0  0  0  0  0
    1.8130   16.0870   -0.6230 C   0  0  1  0  0  0  0  0  0  0  0  0
    2.8010   17.0590    0.0740 C   0  0  0  0  0  0  0  0  0  0  0  0
    2.5390   18.5180   -0.2870 C   0  0  0  0  0  0  0  0  0  0  0  0
    1.1150   18.9240    0.0820 C   0  0  2  0  0  0  0  0  0  0  0  0
    0.9840   18.9030    1.5070 O   0  0  0  0  0  0  0  0  0  0  0  0
    0.0320   18.0090   -0.5550 C   0  0  0  0  0  0  0  0  0  0  0  0
   -0.0280   18.2600   -2.0830 C   0  0  0  0  0  0  0  0  0  0  0  0
   -1.3490   18.4390    0.0090 C   0  0  0  0  0  0  0  0  0  0  0  0
    2.1560   14.5610   -0.3390 C   0  0  1  0  0  0  0  0  0  0  0  0
    2.5800   14.3800    1.1500 C   0  0  0  0  0  0  0  0  0  0  0  0
    3.3990   14.1430   -1.2090 C   0  0  0  0  0  0  0  0  0  0  0  0
    3.1100   13.6290   -2.6330 C   0  0  0  0  0  0  0  0  0  0  0  0
    2.0180   12.5560   -2.6170 C   0  0  2  0  0  0  0  0  0  0  0  0
    2.5530   11.3410   -1.7850 C   0  0  0  0  0  0  0  0  0  0  0  0
    3.1432   10.6476   -2.7008 H   0  0  0  0  0  0  0  0  0  0  0  0
    3.5721    9.3763   -3.8953 H   0  0  0  0  0  0  0  0  0  0  0  0
    4.4521   10.9423   -3.8953 H   0  0  0  0  0  0  0  0  0  0  0  0
    1.8556   10.1963   -5.0993 H   0  0  0  0  0  0  0  0  0  0  0  0
    4.1842   11.4274   -5.9403 H   0  0  0  0  0  0  0  0  0  0  0  0
    2.5815   11.3911   -6.8196 H   0  0  0  0  0  0  0  0  0  0  0  0
    2.4239   13.5528   -5.0298 H   0  0  0  0  0  0  0  0  0  0  0  0
    4.0676   13.6420   -5.7899 H   0  0  0  0  0  0  0  0  0  0  0  0
    2.5010   12.8175   -7.6297 H   0  0  0  0  0  0  0  0  0  0  0  0
    1.3139   14.9677   -5.0265 H   0  0  0  0  0  0  0  0  0  0  0  0
    1.1160   16.5514   -5.8508 H   0  0  0  0  0  0  0  0  0  0  0  0
   -0.2321   15.3642   -5.8508 H   0  0  0  0  0  0  0  0  0  0  0  0
   -0.5280   15.1791   -8.0505 H   0  0  0  0  0  0  0  0  0  0  0  0
    0.8504   15.8772   -8.9667 H   0  0  0  0  0  0  0  0  0  0  0  0
    0.5792   14.1015   -8.9667 H   0  0  0  0  0  0  0  0  0  0  0  0
    1.5393   12.8428   -4.7298 H   0  0  0  0  0  0  0  0  0  0  0  0
   -0.5713   11.7008   -4.4589 H   0  0  0  0  0  0  0  0  0  0  0  0
    0.1890   10.3320   -3.6188 H   0  0  0  0  0  0  0  0  0  0  0  0
   -1.3286   12.4093   -2.3741 H   0  0  0  0  0  0  0  0  0  0  0  0
   -0.2816   11.2935   -1.5016 H   0  0  0  0  0  0  0  0  0  0  0  0
   -0.2275   15.1757   -2.2481 H   0  0  0  0  0  0  0  0  0  0  0  0
    0.9450   14.7850   -3.5516 H   0  0  0  0  0  0  0  0  0  0  0  0
   -0.6835   14.0270   -3.5516 H   0  0  0  0  0  0  0  0  0  0  0  0
    1.1477   12.6507   -0.0935 H   0  0  0  0  0  0  0  0  0  0  0  0
   -1.2207   13.6464   -0.2926 H   0  0  0  0  0  0  0  0  0  0  0  0
   -0.1974   13.9161    1.2140 H   0  0  0  0  0  0  0  0  0  0  0  0
   -1.5465   15.9994    0.3329 H   0  0  0  0  0  0  0  0  0  0  0  0
    1.9280   16.1572   -1.7147 H   0  0  0  0  0  0  0  0  0  0  0  0
    2.7015   16.9419    1.1632 H   0  0  0  0  0  0  0  0  0  0  0  0
    3.8152   16.8071   -0.2693 H   0  0  0  0  0  0  0  0  0  0  0  0
    3.2485   19.1570    0.2592 H   0  0  0  0  0  0  0  0  0  0  0  0
    2.6686   18.6398   -1.3725 H   0  0  0  0  0  0  0  0  0  0  0  0
    0.9466   19.9348   -0.3180 H   0  0  0  0  0  0  0  0  0  0  0  0
    0.8980   19.8240    1.8080 H   0  0  0  0  0  0  0  0  0  0  0  0
   -0.2799   19.3140   -2.2718 H   0  0  0  0  0  0  0  0  0  0  0  0
    0.9502   18.0309   -2.5309 H   0  0  0  0  0  0  0  0  0  0  0  0
   -0.7969   17.6133   -2.5309 H   0  0  0  0  0  0  0  0  0  0  0  0
   -1.3154   18.4285    1.1084 H   0  0  0  0  0  0  0  0  0  0  0  0
   -1.5880   19.4541   -0.3409 H   0  0  0  0  0  0  0  0  0  0  0  0
   -2.1220   17.7390   -0.3409 H   0  0  0  0  0  0  0  0  0  0  0  0
    1.7686   14.7264    1.8070 H   0  0  0  0  0  0  0  0  0  0  0  0
    2.7827   13.3169    1.3469 H   0  0  0  0  0  0  0  0  0  0  0  0
    3.4879   14.9690    1.3469 H   0  0  0  0  0  0  0  0  0  0  0  0
    4.0529   15.0229   -1.2993 H   0  0  0  0  0  0  0  0  0  0  0  0
    3.8460   13.2884   -0.6800 H   0  0  0  0  0  0  0  0  0  0  0  0
    2.7785   14.4706   -3.2590 H   0  0  0  0  0  0  0  0  0  0  0  0
    4.0311   13.1861   -3.0398 H   0  0  0  0  0  0  0  0  0  0  0  0
    2.4563   11.5607   -0.7115 H   0  0  0  0  0  0  0  0  0  0  0  0
    1.9672   10.4427   -2.0297 H   0  0  0  0  0  0  0  0  0  0  0  0
    3.6112   11.1666   -2.0297 H   0  0  0  0  0  0  0  0  0  0  0  0
  1  2  1  0
  2  3  1  0
  3  4  1  0
  4  5  1  0
  5  6  1  0
  6  7  1  0
  7  8  1  0
  7  9  1  0
  2 10  1  0
 10 11  1  0
 11 12  1  0
 12 13  1  0
 13 14  1  6
 13 15  1  0
 15 16  1  0
 16 17  1  0
 17 18  2  0
 18 19  1  0
 19 20  1  0
 20 21  1  0
 21 22  1  0
 22 23  1  0
 22 24  1  0
 24 25  1  0
 24 26  1  0
 19 27  1  0
 27 28  1  1
 27 29  1  0
 29 30  1  0
 30 31  1  0
 31 32  1  1
  7  5  1  0
 31 10  1  0
 31 13  1  0
 27 15  1  0
 24 18  1  0
  1 33  1  0
  1 34  1  0
  1 35  1  0
  2 36  1  6
  3 37  1  0
  3 38  1  0
  4 39  1  0
  4 40  1  0
  5 41  1  6
  8 42  1  0
  8 43  1  0
  8 44  1  0
  9 45  1  0
  9 46  1  0
  9 47  1  0
 10 48  1  6
 11 49  1  0
 11 50  1  0
 12 51  1  0
 12 52  1  0
 14 53  1  0
 14 54  1  0
 14 55  1  0
 15 56  1  1
 16 57  1  0
 16 58  1  0
 17 59  1  0
 19 60  1  6
 20 61  1  0
 20 62  1  0
 21 63  1  0
 21 64  1  0
 22 65  1  6
 23 66  1  0
 25 67  1  0
 25 68  1  0
 25 69  1  0
 26 70  1  0
 26 71  1  0
 26 72  1  0
 28 73  1  0
 28 74  1  0
 28 75  1  0
 29 76  1  0
 29 77  1  0
 30 78  1  0
 30 79  1  0
 32 80  1  0
 32 81  1  0
 32 82  1  0
M  END
>  <meeko>  (14) 
{"is_sidechain": [false], "intermolecular_energy": 2.731, "internal_energy": -0.839}

$$$$
EPH_relaxed_0001_pdb2pqr_Repair_312_r2_0001_out
     RDKit          3D

 82 86  0  0  0  0  0  0  0  0999 V2000
   -1.3400   10.4350    1.6080 C   0  0  0  0  0  0  0  0  0  0  0  0
   -2.0170   10.0930    0.2780 C   0  0  2  0  0  0  0  0  0  0  0  0
   -2.9150    8.8440    0.3880 C   0  0  0  0  0  0  0  0  0  0  0  0
   -4.2180    8.9510   -0.4090 C   0  0  0  0  0  0  0  0  0  0  0  0
   -4.7490    7.6010   -0.7860 C   0  0  2  0  0  0  0  0  0  0  0  0
   -4.8300    7.3630   -2.1980 O   0  0  0  0  0  0  0  0  0  0  0  0
   -6.0780    7.3910   -1.4870 C   0  0  0  0  0  0  0  0  0  0  0  0
   -6.9590    8.5440   -1.8510 C   0  0  0  0  0  0  0  0  0  0  0  0
   -6.7400    6.0530   -1.3790 C   0  0  0  0  0  0  0  0  0  0  0  0
   -0.9640    9.8840   -0.8030 C   0  0  1  0  0  0  0  0  0  0  0  0
   -1.4500    8.9440   -1.9380 C   0  0  0  0  0  0  0  0  0  0  0  0
   -0.8190    9.4680   -3.2540 C   0  0  0  0  0  0  0  0  0  0  0  0
    0.2620   10.4740   -2.7940 C   0  0  1  0  0  0  0  0  0  0  0  0
    1.4910    9.5940   -2.4070 C   0  0  0  0  0  0  0  0  0  0  0  0
    0.6500   11.5880   -3.8200 C   0  0  2  0  0  0  0  0  0  0  0  0
    1.2700   11.0780   -5.1330 C   0  0  0  0  0  0  0  0  0  0  0  0
    2.7580   10.9560   -5.1300 C   0  0  0  0  0  0  0  0  0  0  0  0
    3.5860   11.5070   -4.2230 C   0  0  0  0  0  0  0  0  0  0  0  0
    3.0470   12.4280   -3.1210 C   0  0  1  0  0  0  0  0  0  0  0  0
    3.9350   13.6960   -3.0240 C   0  0  0  0  0  0  0  0  0  0  0  0
    5.4120   13.3630   -2.8360 C   0  0  0  0  0  0  0  0  0  0  0  0
    5.9260   12.4950   -3.9810 C   0  0  2  0  0  0  0  0  0  0  0  0
    5.9080   13.2650   -5.1870 O   0  0  0  0  0  0  0  0  0  0  0  0
    5.1020   11.1920   -4.1800 C   0  0  0  0  0  0  0  0  0  0  0  0
    5.3640   10.2250   -3.0000 C   0  0  0  0  0  0  0  0  0  0  0  0
    5.6350   10.4800   -5.4520 C   0  0  0  0  0  0  0  0  0  0  0  0
    1.4970   12.7730   -3.2020 C   0  0  1  0  0  0  0  0  0  0  0  0
    1.2750   14.0090   -4.1260 C   0  0  0  0  0  0  0  0  0  0  0  0
    0.9880   13.1900   -1.7720 C   0  0  0  0  0  0  0  0  0  0  0  0
    0.5060   12.0560   -0.8480 C   0  0  0  0  0  0  0  0  0  0  0  0
   -0.4790   11.1360   -1.5760 C   0  0  2  0  0  0  0  0  0  0  0  0
   -1.7370   11.9890   -1.9580 C   0  0  0  0  0  0  0  0  0  0  0  0
   -1.9820   10.1107    2.4403 H   0  0  0  0  0  0  0  0  0  0  0  0
   -0.3708    9.9183    1.6696 H   0  0  0  0  0  0  0  0  0  0  0  0
   -1.1808   11.5217    1.6696 H   0  0  0  0  0  0  0  0  0  0  0  0
   -2.6630   10.9413    0.0079 H   0  0  0  0  0  0  0  0  0  0  0  0
   -2.3504    7.9764    0.0158 H   0  0  0  0  0  0  0  0  0  0  0  0
   -3.1934    8.7404    1.4471 H   0  0  0  0  0  0  0  0  0  0  0  0
   -4.9690    9.4712    0.2036 H   0  0  0  0  0  0  0  0  0  0  0  0
   -4.0096    9.5084   -1.3341 H   0  0  0  0  0  0  0  0  0  0  0  0
   -4.3120    7.1503    0.1173 H   0  0  0  0  0  0  0  0  0  0  0  0
   -7.3281    9.0271   -0.9343 H   0  0  0  0  0  0  0  0  0  0  0  0
   -6.3847    9.2716   -2.4432 H   0  0  0  0  0  0  0  0  0  0  0  0
   -7.8120    8.1810   -2.4432 H   0  0  0  0  0  0  0  0  0  0  0  0
   -6.8690    5.7923   -0.3182 H   0  0  0  0  0  0  0  0  0  0  0  0
   -7.7238    6.0900   -1.8697 H   0  0  0  0  0  0  0  0  0  0  0  0
   -6.1138    5.2934   -1.8697 H   0  0  0  0  0  0  0  0  0  0  0  0
   -0.1461    9.4823   -0.1868 H   0  0  0  0  0  0  0  0  0  0  0  0
   -1.1193    7.9130   -1.7436 H   0  0  0  0  0  0  0  0  0  0  0  0
   -2.5481    8.9371   -2.0020 H   0  0  0  0  0  0  0  0  0  0  0  0
   -0.3651    8.6430   -3.8226 H   0  0  0  0  0  0  0  0  0  0  0  0
   -1.5635    9.9303   -3.9188 H   0  0  0  0  0  0  0  0  0  0  0  0
    1.5707    9.5370   -1.3114 H   0  0  0  0  0  0  0  0  0  0  0  0
    1.3615    8.5821   -2.8184 H   0  0  0  0  0  0  0  0  0  0  0  0
    2.4073   10.0426   -2.8184 H   0  0  0  0  0  0  0  0  0  0  0  0
   -0.3293   12.0067   -4.0949 H   0  0  0  0  0  0  0  0  0  0  0  0
    0.8479   10.0846   -5.3449 H   0  0  0  0  0  0  0  0  0  0  0  0
    1.0278   11.8315   -5.8969 H   0  0  0  0  0  0  0  0  0  0  0  0
    3.2164   10.3659   -5.9373 H   0  0  0  0  0  0  0  0  0  0  0  0
    3.1145   11.8534   -2.1854 H   0  0  0  0  0  0  0  0  0  0  0  0
    3.8200   14.2787   -3.9499 H   0  0  0  0  0  0  0  0  0  0  0  0
    3.6067   14.2669   -2.1429 H   0  0  0  0  0  0  0  0  0  0  0  0
    5.9907   14.2980   -2.8054 H   0  0  0  0  0  0  0  0  0  0  0  0
    5.5291   12.8068   -1.8942 H   0  0  0  0  0  0  0  0  0  0  0  0
    6.9490   12.1825   -3.7245 H   0  0  0  0  0  0  0  0  0  0  0  0
    5.0420   13.1300   -5.6090 H   0  0  0  0  0  0  0  0  0  0  0  0
    5.2193   10.7590   -2.0493 H   0  0  0  0  0  0  0  0  0  0  0  0
    4.6625    9.3795   -3.0561 H   0  0  0  0  0  0  0  0  0  0  0  0
    6.3963    9.8493   -3.0561 H   0  0  0  0  0  0  0  0  0  0  0  0
    6.2703    9.6314   -5.1582 H   0  0  0  0  0  0  0  0  0  0  0  0
    4.7872   10.1138   -6.0496 H   0  0  0  0  0  0  0  0  0  0  0  0
    6.2252   11.1902   -6.0496 H   0  0  0  0  0  0  0  0  0  0  0  0
    1.1141   14.9046   -3.5080 H   0  0  0  0  0  0  0  0  0  0  0  0
    2.1611   14.1560   -4.7610 H   0  0  0  0  0  0  0  0  0  0  0  0
    0.3931   13.8384   -4.7610 H   0  0  0  0  0  0  0  0  0  0  0  0
    1.8148   13.7060   -1.2620 H   0  0  0  0  0  0  0  0  0  0  0  0
    0.0984   13.8112   -1.9531 H   0  0  0  0  0  0  0  0  0  0  0  0
    1.3743   11.4657   -0.5199 H   0  0  0  0  0  0  0  0  0  0  0  0
   -0.0056   12.5026    0.0174 H   0  0  0  0  0  0  0  0  0  0  0  0
   -2.2405   12.3304   -1.0416 H   0  0  0  0  0  0  0  0  0  0  0  0
   -1.4227   12.8610   -2.5503 H   0  0  0  0  0  0  0  0  0  0  0  0
   -2.4308   11.3743   -2.5503 H   0  0  0  0  0  0  0  0  0  0  0  0
  1  2  1  0
  2  3  1  0
  3  4  1  0
  4  5  1  0
  5  6  1  0
  6  7  1  0
  7  8  1  0
  7  9  1  0
  2 10  1  0
 10 11  1  0
 11 12  1  0
 12 13  1  0
 13 14  1  1
 13 15  1  0
 15 16  1  0
 16 17  1  0
 17 18  2  0
 18 19  1  0
 19 20  1  0
 20 21  1  0
 21 22  1  0
 22 23  1  0
 22 24  1  0
 24 25  1  0
 24 26  1  0
 19 27  1  0
 27 28  1  6
 27 29  1  0
 29 30  1  0
 30 31  1  0
 31 32  1  6
  7  5  1  0
 31 10  1  0
 31 13  1  0
 27 15  1  0
 24 18  1  0
  1 33  1  0
  1 34  1  0
  1 35  1  0
  2 36  1  6
  3 37  1  0
  3 38  1  0
  4 39  1  0
  4 40  1  0
  5 41  1  1
  8 42  1  0
  8 43  1  0
  8 44  1  0
  9 45  1  0
  9 46  1  0
  9 47  1  0
 10 48  1  1
 11 49  1  0
 11 50  1  0
 12 51  1  0
 12 52  1  0
 14 53  1  0
 14 54  1  0
 14 55  1  0
 15 56  1  6
 16 57  1  0
 16 58  1  0
 17 59  1  0
 19 60  1  1
 20 61  1  0
 20 62  1  0
 21 63  1  0
 21 64  1  0
 22 65  1  1
 23 66  1  0
 25 67  1  0
 25 68  1  0
 25 69  1  0
 26 70  1  0
 26 71  1  0
 26 72  1  0
 28 73  1  0
 28 74  1  0
 28 75  1  0
 29 76  1  0
 29 77  1  0
 30 78  1  0
 30 79  1  0
 32 80  1  0
 32 81  1  0
 32 82  1  0
M  END
>  <meeko>  (15) 
{"is_sidechain": [false], "intermolecular_energy": 2.731, "internal_energy": -0.839}

$$$$
EPH_relaxed_0001_pdb2pqr_Repair_312_r2_0001_out
     RDKit          3D

 82 86  0  0  0  0  0  0  0  0999 V2000
    2.7220   11.2740   -5.2700 C   0  0  0  0  0  0  0  0  0  0  0  0
    1.7250   10.9340   -4.1590 C   0  0  2  0  0  0  0  0  0  0  0  0
    0.6230    9.9700   -4.6420 C   0  0  0  0  0  0  0  0  0  0  0  0
   -0.4470    9.6780   -3.5860 C   0  0  0  0  0  0  0  0  0  0  0  0
    0.1120    8.9070   -2.4290 C   0  0  2  0  0  0  0  0  0  0  0  0
   -0.7000    7.8100   -1.9920 O   0  0  0  0  0  0  0  0  0  0  0  0
   -0.5270    8.8830   -1.0530 C   0  0  0  0  0  0  0  0  0  0  0  0
   -1.7810    9.6460   -0.7620 C   0  0  0  0  0  0  0  0  0  0  0  0
    0.3240    8.5230    0.1250 C   0  0  0  0  0  0  0  0  0  0  0  0
    1.0970   12.2110   -3.6140 C   0  0  1  0  0  0  0  0  0  0  0  0
   -0.4250   12.0640   -3.3510 C   0  0  0  0  0  0  0  0  0  0  0  0
   -0.7480   12.9200   -2.1000 C   0  0  0  0  0  0  0  0  0  0  0  0
    0.5150   13.7870   -1.8840 C   0  0  1  0  0  0  0  0  0  0  0  0
    0.3640   14.9720   -2.8890 C   0  0  0  0  0  0  0  0  0  0  0  0
    0.7640   14.2950   -0.4270 C   0  0  2  0  0  0  0  0  0  0  0  0
   -0.3240   15.2270    0.1350 C   0  0  0  0  0  0  0  0  0  0  0  0
   -0.1050   16.6830   -0.1100 C   0  0  0  0  0  0  0  0  0  0  0  0
    1.0540   17.2450   -0.5010 C   0  0  0  0  0  0  0  0  0  0  0  0
    2.3290   16.4030   -0.6420 C   0  0  1  0  0  0  0  0  0  0  0  0
    3.5140   17.1400    0.0360 C   0  0  0  0  0  0  0  0  0  0  0  0
    3.6930   18.5630   -0.4840 C   0  0  0  0  0  0  0  0  0  0  0  0
    2.4240   19.3850   -0.2740 C   0  0  2  0  0  0  0  0  0  0  0  0
    2.2200   19.5660    1.1310 O   0  0  0  0  0  0  0  0  0  0  0  0
    1.1620   18.7360   -0.9060 C   0  0  0  0  0  0  0  0  0  0  0  0
    1.2540   18.8150   -2.4500 C   0  0  0  0  0  0  0  0  0  0  0  0
   -0.0690   19.5910   -0.5000 C   0  0  0  0  0  0  0  0  0  0  0  0
    2.2120   14.8860   -0.1850 C   0  0  1  0  0  0  0  0  0  0  0  0
    2.4910   14.7680    1.3450 C   0  0  0  0  0  0  0  0  0  0  0  0
    3.3300   14.0440   -0.9070 C   0  0  0  0  0  0  0  0  0  0  0  0
    2.9810   13.4680   -2.2920 C   0  0  0  0  0  0  0  0  0  0  0  0
    1.6310   12.7460   -2.2620 C   0  0  2  0  0  0  0  0  0  0  0  0
    1.7580   11.5350   -1.2750 C   0  0  0  0  0  0  0  0  0  0  0  0
    3.6731   11.5983   -4.8225 H   0  0  0  0  0  0  0  0  0  0  0  0
    2.8945   10.3839   -5.8929 H   0  0  0  0  0  0  0  0  0  0  0  0
    2.3147   12.0840   -5.8929 H   0  0  0  0  0  0  0  0  0  0  0  0
    2.2829   10.4240   -3.3599 H   0  0  0  0  0  0  0  0  0  0  0  0
    0.1320   10.4159   -5.5196 H   0  0  0  0  0  0  0  0  0  0  0  0
    1.1131    9.0133   -4.8755 H   0  0  0  0  0  0  0  0  0  0  0  0
   -0.8526   10.6313   -3.2164 H   0  0  0  0  0  0  0  0  0  0  0  0
   -1.2346    9.0698   -4.0549 H   0  0  0  0  0  0  0  0  0  0  0  0
    1.1410    9.1087   -2.7615 H   0  0  0  0  0  0  0  0  0  0  0  0
   -1.9160    9.7281    0.3266 H   0  0  0  0  0  0  0  0  0  0  0  0
   -1.7076   10.6526   -1.1993 H   0  0  0  0  0  0  0  0  0  0  0  0
   -2.6413    9.1181   -1.1993 H   0  0  0  0  0  0  0  0  0  0  0  0
   -0.2191    8.7528    1.0536 H   0  0  0  0  0  0  0  0  0  0  0  0
    0.5583    7.4487    0.0935 H   0  0  0  0  0  0  0  0  0  0  0  0
    1.2581    9.1030    0.0935 H   0  0  0  0  0  0  0  0  0  0  0  0
    1.3622   12.9061   -4.4243 H   0  0  0  0  0  0  0  0  0  0  0  0
   -0.9960   12.4291   -4.2174 H   0  0  0  0  0  0  0  0  0  0  0  0
   -0.6977   11.0106   -3.1896 H   0  0  0  0  0  0  0  0  0  0  0  0
   -1.6284   13.5544   -2.2802 H   0  0  0  0  0  0  0  0  0  0  0  0
   -0.9852   12.3020   -1.2214 H   0  0  0  0  0  0  0  0  0  0  0  0
    0.2441   15.9126   -2.3314 H   0  0  0  0  0  0  0  0  0  0  0  0
    1.2617   15.0327   -3.5219 H   0  0  0  0  0  0  0  0  0  0  0  0
   -0.5202   14.8057   -3.5219 H   0  0  0  0  0  0  0  0  0  0  0  0
    0.6950   13.3674    0.1602 H   0  0  0  0  0  0  0  0  0  0  0  0
   -1.2831   14.9455   -0.3242 H   0  0  0  0  0  0  0  0  0  0  0  0
   -0.3030   15.0956    1.2269 H   0  0  0  0  0  0  0  0  0  0  0  0
   -0.9636   17.3537    0.0418 H   0  0  0  0  0  0  0  0  0  0  0  0
    2.5153   16.3119   -1.7223 H   0  0  0  0  0  0  0  0  0  0  0  0
    3.3299   17.1812    1.1197 H   0  0  0  0  0  0  0  0  0  0  0  0
    4.4322   16.5813   -0.1979 H   0  0  0  0  0  0  0  0  0  0  0  0
    4.5246   19.0410    0.0545 H   0  0  0  0  0  0  0  0  0  0  0  0
    3.9075   18.5182   -1.5619 H   0  0  0  0  0  0  0  0  0  0  0  0
    2.5677   20.3498   -0.7824 H   0  0  0  0  0  0  0  0  0  0  0  0
    1.5590   18.9140    1.4190 H   0  0  0  0  0  0  0  0  0  0  0  0
    2.0602   19.5073   -2.7343 H   0  0  0  0  0  0  0  0  0  0  0  0
    1.4687   17.8155   -2.8561 H   0  0  0  0  0  0  0  0  0  0  0  0
    0.2985   19.1783   -2.8561 H   0  0  0  0  0  0  0  0  0  0  0  0
   -0.1370   19.6382    0.5969 H   0  0  0  0  0  0  0  0  0  0  0  0
    0.0413   20.6079   -0.9046 H   0  0  0  0  0  0  0  0  0  0  0  0
   -0.9834   19.1326   -0.9046 H   0  0  0  0  0  0  0  0  0  0  0  0
    1.6196   15.1365    1.9061 H   0  0  0  0  0  0  0  0  0  0  0  0
    2.6752   13.7149    1.6040 H   0  0  0  0  0  0  0  0  0  0  0  0
    3.3749   15.3693    1.6040 H   0  0  0  0  0  0  0  0  0  0  0  0
    4.2092   14.6938   -1.0289 H   0  0  0  0  0  0  0  0  0  0  0  0
    3.4903   13.1668   -0.2629 H   0  0  0  0  0  0  0  0  0  0  0  0
    2.9333   14.2898   -3.0217 H   0  0  0  0  0  0  0  0  0  0  0  0
    3.7590   12.7444   -2.5767 H   0  0  0  0  0  0  0  0  0  0  0  0
    1.7196   11.9012   -0.2385 H   0  0  0  0  0  0  0  0  0  0  0  0
    0.9285   10.8333   -1.4469 H   0  0  0  0  0  0  0  0  0  0  0  0
    2.7150   11.0206   -1.4469 H   0  0  0  0  0  0  0  0  0  0  0  0
  1  2  1  0
  2  3  1  0
  3  4  1  0
  4  5  1  0
  5  6  1  0
  6  7  1  0
  7  8  1  0
  7  9  1  0
  2 10  1  0
 10 11  1  0
 11 12  1  0
 12 13  1  0
 13 14  1  6
 13 15  1  0
 15 16  1  0
 16 17  1  0
 17 18  2  0
 18 19  1  0
 19 20  1  0
 20 21  1  0
 21 22  1  0
 22 23  1  0
 22 24  1  0
 24 25  1  0
 24 26  1  0
 19 27  1  0
 27 28  1  1
 27 29  1  0
 29 30  1  0
 30 31  1  0
 31 32  1  1
  7  5  1  0
 31 10  1  0
 31 13  1  0
 27 15  1  0
 24 18  1  0
  1 33  1  0
  1 34  1  0
  1 35  1  0
  2 36  1  1
  3 37  1  0
  3 38  1  0
  4 39  1  0
  4 40  1  0
  5 41  1  1
  8 42  1  0
  8 43  1  0
  8 44  1  0
  9 45  1  0
  9 46  1  0
  9 47  1  0
 10 48  1  6
 11 49  1  0
 11 50  1  0
 12 51  1  0
 12 52  1  0
 14 53  1  0
 14 54  1  0
 14 55  1  0
 15 56  1  1
 16 57  1  0
 16 58  1  0
 17 59  1  0
 19 60  1  6
 20 61  1  0
 20 62  1  0
 21 63  1  0
 21 64  1  0
 22 65  1  6
 23 66  1  0
 25 67  1  0
 25 68  1  0
 25 69  1  0
 26 70  1  0
 26 71  1  0
 26 72  1  0
 28 73  1  0
 28 74  1  0
 28 75  1  0
 29 76  1  0
 29 77  1  0
 30 78  1  0
 30 79  1  0
 32 80  1  0
 32 81  1  0
 32 82  1  0
M  END
>  <meeko>  (16) 
{"is_sidechain": [false], "intermolecular_energy": 2.731, "internal_energy": -0.839}

$$$$
EPH_relaxed_0001_pdb2pqr_Repair_312_r2_0001_out
     RDKit          3D

 82 86  0  0  0  0  0  0  0  0999 V2000
   -2.0680    7.8000   -2.3050 C   0  0  0  0  0  0  0  0  0  0  0  0
   -1.9890    8.4850   -0.9370 C   0  0  2  0  0  0  0  0  0  0  0  0
   -3.2840    8.3020   -0.1210 C   0  0  0  0  0  0  0  0  0  0  0  0
   -4.5610    8.5410   -0.9310 C   0  0  0  0  0  0  0  0  0  0  0  0
   -5.3270    7.2710   -1.1460 C   0  0  2  0  0  0  0  0  0  0  0  0
   -5.5190    6.9120   -2.5210 O   0  0  0  0  0  0  0  0  0  0  0  0
   -6.7070    7.2220   -1.7750 C   0  0  0  0  0  0  0  0  0  0  0  0
   -7.4030    8.4670   -2.2280 C   0  0  0  0  0  0  0  0  0  0  0  0
   -7.5760    6.0330   -1.5040 C   0  0  0  0  0  0  0  0  0  0  0  0
   -1.6910    9.9690   -1.1160 C   0  0  1  0  0  0  0  0  0  0  0  0
   -1.5590   10.7180    0.2370 C   0  0  0  0  0  0  0  0  0  0  0  0
   -0.4760   11.8100    0.0390 C   0  0  0  0  0  0  0  0  0  0  0  0
   -0.2610   11.8740   -1.4910 C   0  0  1  0  0  0  0  0  0  0  0  0
   -1.4310   12.7600   -2.0240 C   0  0  0  0  0  0  0  0  0  0  0  0
    1.1290   12.4030   -1.9730 C   0  0  2  0  0  0  0  0  0  0  0  0
    1.4470   13.8550   -1.5760 C   0  0  0  0  0  0  0  0  0  0  0  0
    1.0250   14.8930   -2.5630 C   0  0  0  0  0  0  0  0  0  0  0  0
    0.6750   14.6600   -3.8420 C   0  0  0  0  0  0  0  0  0  0  0  0
    0.7760   13.2510   -4.4420 C   0  0  1  0  0  0  0  0  0  0  0  0
    1.4570   13.3290   -5.8330 C   0  0  0  0  0  0  0  0  0  0  0  0
    0.7640   14.3140   -6.7700 C   0  0  0  0  0  0  0  0  0  0  0  0
    0.7350   15.7150   -6.1640 C   0  0  2  0  0  0  0  0  0  0  0  0
    2.0740   16.2120   -6.0870 O   0  0  0  0  0  0  0  0  0  0  0  0
    0.0790   15.7590   -4.7550 C   0  0  0  0  0  0  0  0  0  0  0  0
   -1.4450   15.5120   -4.8830 C   0  0  0  0  0  0  0  0  0  0  0  0
    0.2410   17.1990   -4.1990 C   0  0  0  0  0  0  0  0  0  0  0  0
    1.4260   12.1440   -3.5050 C   0  0  1  0  0  0  0  0  0  0  0  0
    2.9770   12.1540   -3.6660 C   0  0  0  0  0  0  0  0  0  0  0  0
    0.9400   10.7220   -3.9770 C   0  0  0  0  0  0  0  0  0  0  0  0
   -0.3800   10.2040   -3.3740 C   0  0  0  0  0  0  0  0  0  0  0  0
   -0.3800   10.3480   -1.8500 C   0  0  2  0  0  0  0  0  0  0  0  0
    0.7720    9.4500   -1.2840 C   0  0  0  0  0  0  0  0  0  0  0  0
   -2.1930    6.7161   -2.1656 H   0  0  0  0  0  0  0  0  0  0  0  0
   -2.9261    8.1989   -2.8658 H   0  0  0  0  0  0  0  0  0  0  0  0
   -1.1416    7.9931   -2.8658 H   0  0  0  0  0  0  0  0  0  0  0  0
   -1.1738    8.0074   -0.3736 H   0  0  0  0  0  0  0  0  0  0  0  0
   -3.3069    7.2733    0.2679 H   0  0  0  0  0  0  0  0  0  0  0  0
   -3.2671    9.0540    0.6816 H   0  0  0  0  0  0  0  0  0  0  0  0
   -5.1988    9.2545   -0.3887 H   0  0  0  0  0  0  0  0  0  0  0  0
   -4.2732    8.9386   -1.9154 H   0  0  0  0  0  0  0  0  0  0  0  0
   -4.9244    6.8438   -0.2157 H   0  0  0  0  0  0  0  0  0  0  0  0
   -7.7267    9.0460   -1.3505 H   0  0  0  0  0  0  0  0  0  0  0  0
   -6.7130    9.0733   -2.8332 H   0  0  0  0  0  0  0  0  0  0  0  0
   -8.2809    8.1968   -2.8332 H   0  0  0  0  0  0  0  0  0  0  0  0
   -7.6780    5.8934   -0.4177 H   0  0  0  0  0  0  0  0  0  0  0  0
   -8.5693    6.1961   -1.9476 H   0  0  0  0  0  0  0  0  0  0  0  0
   -7.1190    5.1361   -1.9476 H   0  0  0  0  0  0  0  0  0  0  0  0
   -2.5597   10.2601   -1.7248 H   0  0  0  0  0  0  0  0  0  0  0  0
   -2.5189   11.1812    0.5089 H   0  0  0  0  0  0  0  0  0  0  0  0
   -1.2801   10.0267    1.0459 H   0  0  0  0  0  0  0  0  0  0  0  0
   -0.8273   12.7793    0.4226 H   0  0  0  0  0  0  0  0  0  0  0  0
    0.4528   11.5792    0.5813 H   0  0  0  0  0  0  0  0  0  0  0  0
   -1.9880   13.1818   -1.1744 H   0  0  0  0  0  0  0  0  0  0  0  0
   -1.0224   13.5772   -2.6366 H   0  0  0  0  0  0  0  0  0  0  0  0
   -2.1069   12.1452   -2.6366 H   0  0  0  0  0  0  0  0  0  0  0  0
    1.8306   11.7765   -1.4026 H   0  0  0  0  0  0  0  0  0  0  0  0
    0.9395   14.0658   -0.6231 H   0  0  0  0  0  0  0  0  0  0  0  0
    2.5433   13.9207   -1.5152 H   0  0  0  0  0  0  0  0  0  0  0  0
    0.9978   15.9364   -2.2157 H   0  0  0  0  0  0  0  0  0  0  0  0
   -0.2578   12.8918   -4.5523 H   0  0  0  0  0  0  0  0  0  0  0  0
    2.5012   13.6470   -5.6969 H   0  0  0  0  0  0  0  0  0  0  0  0
    1.3938   12.3313   -6.2918 H   0  0  0  0  0  0  0  0  0  0  0  0
    1.3085   14.3461   -7.7253 H   0  0  0  0  0  0  0  0  0  0  0  0
   -0.2715   13.9785   -6.9287 H   0  0  0  0  0  0  0  0  0  0  0  0
    0.1150   16.3450   -6.8187 H   0  0  0  0  0  0  0  0  0  0  0  0
    2.2750   16.3720   -5.1500 H   0  0  0  0  0  0  0  0  0  0  0  0
   -1.8903   15.4398   -3.8797 H   0  0  0  0  0  0  0  0  0  0  0  0
   -1.9071   16.3470   -5.4301 H   0  0  0  0  0  0  0  0  0  0  0  0
   -1.6197   14.5738   -5.4301 H   0  0  0  0  0  0  0  0  0  0  0  0
    0.2377   17.1700   -3.0994 H   0  0  0  0  0  0  0  0  0  0  0  0
    1.1926   17.6234   -4.5518 H   0  0  0  0  0  0  0  0  0  0  0  0
   -0.5925   17.8242   -4.5518 H   0  0  0  0  0  0  0  0  0  0  0  0
    3.4488   12.1570   -2.6723 H   0  0  0  0  0  0  0  0  0  0  0  0
    3.2940   11.2579   -4.2196 H   0  0  0  0  0  0  0  0  0  0  0  0
    3.2824   13.0541   -4.2196 H   0  0  0  0  0  0  0  0  0  0  0  0
    0.8153   10.7585   -5.0693 H   0  0  0  0  0  0  0  0  0  0  0  0
    1.7119   10.0221   -3.6245 H   0  0  0  0  0  0  0  0  0  0  0  0
   -1.2174   10.7832   -3.7902 H   0  0  0  0  0  0  0  0  0  0  0  0
   -0.4862    9.1384   -3.6256 H   0  0  0  0  0  0  0  0  0  0  0  0
    0.7461    9.4702   -0.1845 H   0  0  0  0  0  0  0  0  0  0  0  0
    0.6372    8.4163   -1.6350 H   0  0  0  0  0  0  0  0  0  0  0  0
    1.7416    9.8330   -1.6350 H   0  0  0  0  0  0  0  0  0  0  0  0
  1  2  1  0
  2  3  1  0
  3  4  1  0
  4  5  1  0
  5  6  1  0
  6  7  1  0
  7  8  1  0
  7  9  1  0
  2 10  1  0
 10 11  1  0
 11 12  1  0
 12 13  1  0
 13 14  1  6
 13 15  1  0
 15 16  1  0
 16 17  1  0
 17 18  2  0
 18 19  1  0
 19 20  1  0
 20 21  1  0
 21 22  1  0
 22 23  1  0
 22 24  1  0
 24 25  1  0
 24 26  1  0
 19 27  1  0
 27 28  1  1
 27 29  1  0
 29 30  1  0
 30 31  1  0
 31 32  1  1
  7  5  1  0
 31 10  1  0
 31 13  1  0
 27 15  1  0
 24 18  1  0
  1 33  1  0
  1 34  1  0
  1 35  1  0
  2 36  1  1
  3 37  1  0
  3 38  1  0
  4 39  1  0
  4 40  1  0
  5 41  1  1
  8 42  1  0
  8 43  1  0
  8 44  1  0
  9 45  1  0
  9 46  1  0
  9 47  1  0
 10 48  1  6
 11 49  1  0
 11 50  1  0
 12 51  1  0
 12 52  1  0
 14 53  1  0
 14 54  1  0
 14 55  1  0
 15 56  1  1
 16 57  1  0
 16 58  1  0
 17 59  1  0
 19 60  1  6
 20 61  1  0
 20 62  1  0
 21 63  1  0
 21 64  1  0
 22 65  1  6
 23 66  1  0
 25 67  1  0
 25 68  1  0
 25 69  1  0
 26 70  1  0
 26 71  1  0
 26 72  1  0
 28 73  1  0
 28 74  1  0
 28 75  1  0
 29 76  1  0
 29 77  1  0
 30 78  1  0
 30 79  1  0
 32 80  1  0
 32 81  1  0
 32 82  1  0
M  END
>  <meeko>  (17) 
{"is_sidechain": [false], "intermolecular_energy": 2.731, "internal_energy": -0.839}

$$$$
EPH_relaxed_0001_pdb2pqr_Repair_312_r2_0001_out
     RDKit          3D

 82 86  0  0  0  0  0  0  0  0999 V2000
    2.1090   18.0850   -1.6600 C   0  0  0  0  0  0  0  0  0  0  0  0
    2.3110   17.1050   -0.5020 C   0  0  2  0  0  0  0  0  0  0  0  0
    3.6220   17.3730    0.2640 C   0  0  0  0  0  0  0  0  0  0  0  0
    3.7780   18.8240    0.7270 C   0  0  0  0  0  0  0  0  0  0  0  0
    3.9060   18.9200    2.2180 C   0  0  2  0  0  0  0  0  0  0  0  0
    4.3580   20.1920    2.6990 O   0  0  0  0  0  0  0  0  0  0  0  0
    5.2330   19.0770    2.9350 C   0  0  0  0  0  0  0  0  0  0  0  0
    6.5240   19.1460    2.1810 C   0  0  0  0  0  0  0  0  0  0  0  0
    5.3210   18.6730    4.3740 C   0  0  0  0  0  0  0  0  0  0  0  0
    2.2980   15.6730   -1.0250 C   0  0  1  0  0  0  0  0  0  0  0  0
    3.6890   15.2090   -1.5310 C   0  0  0  0  0  0  0  0  0  0  0  0
    3.8090   13.7010   -1.1900 C   0  0  0  0  0  0  0  0  0  0  0  0
    2.3740   13.2730   -0.8050 C   0  0  1  0  0  0  0  0  0  0  0  0
    1.6480   13.0350   -2.1660 C   0  0  0  0  0  0  0  0  0  0  0  0
    2.2530   12.0320    0.1380 C   0  0  2  0  0  0  0  0  0  0  0  0
    2.8010   10.7160   -0.4420 C   0  0  0  0  0  0  0  0  0  0  0  0
    1.8110    9.8890   -1.1930 C   0  0  0  0  0  0  0  0  0  0  0  0
    0.4740   10.0440   -1.1560 C   0  0  0  0  0  0  0  0  0  0  0  0
   -0.1740   11.0720   -0.2210 C   0  0  1  0  0  0  0  0  0  0  0  0
   -1.3680   10.4160    0.5220 C   0  0  0  0  0  0  0  0  0  0  0  0
   -2.3740    9.7820   -0.4340 C   0  0  0  0  0  0  0  0  0  0  0  0
   -1.7040    8.7240   -1.3070 C   0  0  2  0  0  0  0  0  0  0  0  0
   -1.2960    7.6320   -0.4770 O   0  0  0  0  0  0  0  0  0  0  0  0
   -0.4800    9.2670   -2.0970 C   0  0  0  0  0  0  0  0  0  0  0  0
   -0.9630   10.2330   -3.2060 C   0  0  0  0  0  0  0  0  0  0  0  0
    0.1870    8.0690   -2.8250 C   0  0  0  0  0  0  0  0  0  0  0  0
    0.8140   11.8320    0.7650 C   0  0  1  0  0  0  0  0  0  0  0  0
    1.0080   11.0000    2.0700 C   0  0  0  0  0  0  0  0  0  0  0  0
    0.1570   13.1950    1.2010 C   0  0  0  0  0  0  0  0  0  0  0  0
    0.4120   14.4120    0.2920 C   0  0  0  0  0  0  0  0  0  0  0  0
    1.9040   14.5550   -0.0270 C   0  0  2  0  0  0  0  0  0  0  0  0
    2.6580   14.8170    1.3210 C   0  0  0  0  0  0  0  0  0  0  0  0
    1.9022   19.0884   -1.2594 H   0  0  0  0  0  0  0  0  0  0  0  0
    3.0195   18.1168   -2.2765 H   0  0  0  0  0  0  0  0  0  0  0  0
    1.2602   17.7542   -2.2765 H   0  0  0  0  0  0  0  0  0  0  0  0
    1.4801   17.2515    0.2038 H   0  0  0  0  0  0  0  0  0  0  0  0
    3.6463   16.7212    1.1498 H   0  0  0  0  0  0  0  0  0  0  0  0
    4.4489   17.1665   -0.4314 H   0  0  0  0  0  0  0  0  0  0  0  0
    4.6796   19.2510    0.2636 H   0  0  0  0  0  0  0  0  0  0  0  0
    2.8781   19.3792    0.4238 H   0  0  0  0  0  0  0  0  0  0  0  0
    3.0702   18.2188    2.3585 H   0  0  0  0  0  0  0  0  0  0  0  0
    7.3620   19.1908    2.8921 H   0  0  0  0  0  0  0  0  0  0  0  0
    6.6274   18.2521    1.5483 H   0  0  0  0  0  0  0  0  0  0  0  0
    6.5315   20.0458    1.5483 H   0  0  0  0  0  0  0  0  0  0  0  0
    5.1304   19.5480    5.0128 H   0  0  0  0  0  0  0  0  0  0  0  0
    4.5711   17.8959    4.5832 H   0  0  0  0  0  0  0  0  0  0  0  0
    6.3262   18.2783    4.5832 H   0  0  0  0  0  0  0  0  0  0  0  0
    1.5290   15.7691   -1.8057 H   0  0  0  0  0  0  0  0  0  0  0  0
    3.7660   15.3588   -2.6180 H   0  0  0  0  0  0  0  0  0  0  0  0
    4.4952   15.7868   -1.0554 H   0  0  0  0  0  0  0  0  0  0  0  0
    4.1629   13.1325   -2.0627 H   0  0  0  0  0  0  0  0  0  0  0  0
    4.5316   13.5121   -0.3824 H   0  0  0  0  0  0  0  0  0  0  0  0
    0.6181   12.6974   -1.9781 H   0  0  0  0  0  0  0  0  0  0  0  0
    1.6273   13.9734   -2.7396 H   0  0  0  0  0  0  0  0  0  0  0  0
    2.1869   12.2665   -2.7396 H   0  0  0  0  0  0  0  0  0  0  0  0
    2.9274   12.2979    0.9653 H   0  0  0  0  0  0  0  0  0  0  0  0
    3.6258   10.9636   -1.1264 H   0  0  0  0  0  0  0  0  0  0  0  0
    3.1118   10.1092    0.4212 H   0  0  0  0  0  0  0  0  0  0  0  0
    2.2072    9.0849   -1.8306 H   0  0  0  0  0  0  0  0  0  0  0  0
   -0.5371   11.8845   -0.8675 H   0  0  0  0  0  0  0  0  0  0  0  0
   -0.9800    9.6362    1.1938 H   0  0  0  0  0  0  0  0  0  0  0  0
   -1.8900   11.2074    1.0799 H   0  0  0  0  0  0  0  0  0  0  0  0
   -3.1781    9.3105    0.1501 H   0  0  0  0  0  0  0  0  0  0  0  0
   -2.7828   10.5681   -1.0859 H   0  0  0  0  0  0  0  0  0  0  0  0
   -2.4411    8.3991   -2.0560 H   0  0  0  0  0  0  0  0  0  0  0  0
   -1.4010    6.8150   -0.9930 H   0  0  0  0  0  0  0  0  0  0  0  0
   -1.4097   11.1263   -2.7451 H   0  0  0  0  0  0  0  0  0  0  0  0
   -0.1079   10.5312   -3.8305 H   0  0  0  0  0  0  0  0  0  0  0  0
   -1.7146    9.7279   -3.8305 H   0  0  0  0  0  0  0  0  0  0  0  0
    0.5811    7.3611   -2.0810 H   0  0  0  0  0  0  0  0  0  0  0  0
   -0.5585    7.5616   -3.4549 H   0  0  0  0  0  0  0  0  0  0  0  0
    1.0110    8.4354   -3.4549 H   0  0  0  0  0  0  0  0  0  0  0  0
    0.8566   11.6494    2.9448 H   0  0  0  0  0  0  0  0  0  0  0  0
    0.2774   10.1779    2.0928 H   0  0  0  0  0  0  0  0  0  0  0  0
    2.0268   10.5859    2.0928 H   0  0  0  0  0  0  0  0  0  0  0  0
   -0.9308   13.0390    1.2506 H   0  0  0  0  0  0  0  0  0  0  0  0
    0.6311   13.4486    2.1606 H   0  0  0  0  0  0  0  0  0  0  0  0
   -0.1461   14.2830   -0.6471 H   0  0  0  0  0  0  0  0  0  0  0  0
    0.0771   15.3186    0.8173 H   0  0  0  0  0  0  0  0  0  0  0  0
    1.9915   14.5854    2.1649 H   0  0  0  0  0  0  0  0  0  0  0  0
    3.5507   14.1764    1.3723 H   0  0  0  0  0  0  0  0  0  0  0  0
    2.9611   15.8732    1.3723 H   0  0  0  0  0  0  0  0  0  0  0  0
  1  2  1  0
  2  3  1  0
  3  4  1  0
  4  5  1  0
  5  6  1  0
  6  7  1  0
  7  8  1  0
  7  9  1  0
  2 10  1  0
 10 11  1  0
 11 12  1  0
 12 13  1  0
 13 14  1  6
 13 15  1  0
 15 16  1  0
 16 17  1  0
 17 18  2  0
 18 19  1  0
 19 20  1  0
 20 21  1  0
 21 22  1  0
 22 23  1  0
 22 24  1  0
 24 25  1  0
 24 26  1  0
 19 27  1  0
 27 28  1  1
 27 29  1  0
 29 30  1  0
 30 31  1  0
 31 32  1  1
  7  5  1  0
 31 10  1  0
 31 13  1  0
 27 15  1  0
 24 18  1  0
  1 33  1  0
  1 34  1  0
  1 35  1  0
  2 36  1  1
  3 37  1  0
  3 38  1  0
  4 39  1  0
  4 40  1  0
  5 41  1  1
  8 42  1  0
  8 43  1  0
  8 44  1  0
  9 45  1  0
  9 46  1  0
  9 47  1  0
 10 48  1  6
 11 49  1  0
 11 50  1  0
 12 51  1  0
 12 52  1  0
 14 53  1  0
 14 54  1  0
 14 55  1  0
 15 56  1  1
 16 57  1  0
 16 58  1  0
 17 59  1  0
 19 60  1  6
 20 61  1  0
 20 62  1  0
 21 63  1  0
 21 64  1  0
 22 65  1  6
 23 66  1  0
 25 67  1  0
 25 68  1  0
 25 69  1  0
 26 70  1  0
 26 71  1  0
 26 72  1  0
 28 73  1  0
 28 74  1  0
 28 75  1  0
 29 76  1  0
 29 77  1  0
 30 78  1  0
 30 79  1  0
 32 80  1  0
 32 81  1  0
 32 82  1  0
M  END
>  <meeko>  (18) 
{"is_sidechain": [false], "intermolecular_energy": 2.731, "internal_energy": -0.839}

$$$$
