EPH_relaxed_0001_pdb2pqr_Repair_150_r2_0001_out
     RDKit          3D

 82 86  0  0  0  0  0  0  0  0999 V2000
    4.5120   17.7600   -0.7270 C   0  0  0  0  0  0  0  0  0  0  0  0
    3.1320   18.3260   -0.3800 C   0  0  2  0  0  0  0  0  0  0  0  0
    3.0910   18.9280    1.0380 C   0  0  0  0  0  0  0  0  0  0  0  0
    4.3430   18.6340    1.8690 C   0  0  0  0  0  0  0  0  0  0  0  0
    4.2290   19.1860    3.2580 C   0  0  2  0  0  0  0  0  0  0  0  0
    5.1950   20.1940    3.5820 O   0  0  0  0  0  0  0  0  0  0  0  0
    5.2800   18.9710    4.3310 C   0  0  0  0  0  0  0  0  0  0  0  0
    6.5200   18.1780    4.0630 C   0  0  0  0  0  0  0  0  0  0  0  0
    4.8760   19.1140    5.7660 C   0  0  0  0  0  0  0  0  0  0  0  0
    2.0750   17.2360   -0.5140 C   0  0  1  0  0  0  0  0  0  0  0  0
    0.7380   17.7680   -1.0940 C   0  0  0  0  0  0  0  0  0  0  0  0
    0.1470   16.6340   -1.9700 C   0  0  0  0  0  0  0  0  0  0  0  0
    0.9820   15.3840   -1.6050 C   0  0  1  0  0  0  0  0  0  0  0  0
    0.3540   14.8560   -0.2770 C   0  0  0  0  0  0  0  0  0  0  0  0
    1.0590   14.2630   -2.6930 C   0  0  2  0  0  0  0  0  0  0  0  0
   -0.2880   13.6140   -3.0580 C   0  0  0  0  0  0  0  0  0  0  0  0
   -0.6570   12.4140   -2.2500 C   0  0  0  0  0  0  0  0  0  0  0  0
    0.1820   11.7090   -1.4680 C   0  0  0  0  0  0  0  0  0  0  0  0
    1.6780   12.0440   -1.4160 C   0  0  1  0  0  0  0  0  0  0  0  0
    2.5050   10.7370   -1.5350 C   0  0  0  0  0  0  0  0  0  0  0  0
    2.1040    9.6940   -0.4960 C   0  0  0  0  0  0  0  0  0  0  0  0
    0.6230    9.3450   -0.6180 C   0  0  2  0  0  0  0  0  0  0  0  0
    0.4080    8.6760   -1.8640 O   0  0  0  0  0  0  0  0  0  0  0  0
   -0.3080   10.5850   -0.5220 C   0  0  0  0  0  0  0  0  0  0  0  0
   -0.3010   11.1320    0.9270 C   0  0  0  0  0  0  0  0  0  0  0  0
   -1.7610   10.1140   -0.8010 C   0  0  0  0  0  0  0  0  0  0  0  0
    2.1720   13.1720   -2.4210 C   0  0  1  0  0  0  0  0  0  0  0  0
    2.5210   12.5380   -3.8020 C   0  0  0  0  0  0  0  0  0  0  0  0
    3.5060   13.8020   -1.8710 C   0  0  0  0  0  0  0  0  0  0  0  0
    3.3650   14.9840   -0.8930 C   0  0  0  0  0  0  0  0  0  0  0  0
    2.4010   16.0390   -1.4430 C   0  0  2  0  0  0  0  0  0  0  0  0
    3.0180   16.6050   -2.7680 C   0  0  0  0  0  0  0  0  0  0  0  0
    5.0598   17.5353    0.2000 H   0  0  0  0  0  0  0  0  0  0  0  0
    4.3929   16.8381   -1.3151 H   0  0  0  0  0  0  0  0  0  0  0  0
    5.0745   18.5000   -1.3151 H   0  0  0  0  0  0  0  0  0  0  0  0
    2.9198   19.1392   -1.0897 H   0  0  0  0  0  0  0  0  0  0  0  0
    2.9818   20.0189    0.9489 H   0  0  0  0  0  0  0  0  0  0  0  0
    2.2424   18.4620    1.5602 H   0  0  0  0  0  0  0  0  0  0  0  0
    4.4834   17.5446    1.9288 H   0  0  0  0  0  0  0  0  0  0  0  0
    5.2013   19.1159    1.3780 H   0  0  0  0  0  0  0  0  0  0  0  0
    3.1388   19.0399    3.2530 H   0  0  0  0  0  0  0  0  0  0  0  0
    6.9804   17.8836    5.0176 H   0  0  0  0  0  0  0  0  0  0  0  0
    6.2618   17.2770    3.4872 H   0  0  0  0  0  0  0  0  0  0  0  0
    7.2295   18.7903    3.4872 H   0  0  0  0  0  0  0  0  0  0  0  0
    5.7139   18.8174    6.4141 H   0  0  0  0  0  0  0  0  0  0  0  0
    4.6084   20.1615    5.9689 H   0  0  0  0  0  0  0  0  0  0  0  0
    4.0090   18.4681    5.9689 H   0  0  0  0  0  0  0  0  0  0  0  0
    2.0254   16.8985    0.5318 H   0  0  0  0  0  0  0  0  0  0  0  0
    0.0437   18.0171   -0.2780 H   0  0  0  0  0  0  0  0  0  0  0  0
    0.9001   18.6806   -1.6864 H   0  0  0  0  0  0  0  0  0  0  0  0
   -0.9153   16.4741   -1.7335 H   0  0  0  0  0  0  0  0  0  0  0  0
    0.1942   16.8684   -3.0437 H   0  0  0  0  0  0  0  0  0  0  0  0
    0.8818   15.2998    0.5800 H   0  0  0  0  0  0  0  0  0  0  0  0
   -0.7092   15.1355   -0.2376 H   0  0  0  0  0  0  0  0  0  0  0  0
    0.4468   13.7606   -0.2376 H   0  0  0  0  0  0  0  0  0  0  0  0
    1.3722   14.8224   -3.5868 H   0  0  0  0  0  0  0  0  0  0  0  0
   -1.0765   14.3693   -2.9246 H   0  0  0  0  0  0  0  0  0  0  0  0
   -0.1856   13.2628   -4.0954 H   0  0  0  0  0  0  0  0  0  0  0  0
   -1.7031   12.0773   -2.2977 H   0  0  0  0  0  0  0  0  0  0  0  0
    1.8516   12.5083   -0.4340 H   0  0  0  0  0  0  0  0  0  0  0  0
    2.3513   10.3126   -2.5381 H   0  0  0  0  0  0  0  0  0  0  0  0
    3.5606   10.9929   -1.3609 H   0  0  0  0  0  0  0  0  0  0  0  0
    2.7023    8.7839   -0.6498 H   0  0  0  0  0  0  0  0  0  0  0  0
    2.2860   10.1086    0.5065 H   0  0  0  0  0  0  0  0  0  0  0  0
    0.3662    8.6942    0.2308 H   0  0  0  0  0  0  0  0  0  0  0  0
    0.6080    9.3080   -2.5750 H   0  0  0  0  0  0  0  0  0  0  0  0
   -0.3118   10.2913    1.6363 H   0  0  0  0  0  0  0  0  0  0  0  0
    0.6049   11.7351    1.0869 H   0  0  0  0  0  0  0  0  0  0  0  0
   -1.1912   11.7581    1.0869 H   0  0  0  0  0  0  0  0  0  0  0  0
   -2.2814    9.9453    0.1533 H   0  0  0  0  0  0  0  0  0  0  0  0
   -2.2924   10.8859   -1.3770 H   0  0  0  0  0  0  0  0  0  0  0  0
   -1.7385    9.1771   -1.3770 H   0  0  0  0  0  0  0  0  0  0  0  0
    3.0461   11.5842   -3.6454 H   0  0  0  0  0  0  0  0  0  0  0  0
    1.5948   12.3581   -4.3675 H   0  0  0  0  0  0  0  0  0  0  0  0
    3.1684   13.2244   -4.3675 H   0  0  0  0  0  0  0  0  0  0  0  0
    4.0610   13.0060   -1.3530 H   0  0  0  0  0  0  0  0  0  0  0  0
    4.0129   14.2182   -2.7540 H   0  0  0  0  0  0  0  0  0  0  0  0
    2.9808   14.6118    0.0682 H   0  0  0  0  0  0  0  0  0  0  0  0
    4.3533   15.4480   -0.7591 H   0  0  0  0  0  0  0  0  0  0  0  0
    3.8084   17.3301   -2.5240 H   0  0  0  0  0  0  0  0  0  0  0  0
    3.4465   15.7792   -3.3550 H   0  0  0  0  0  0  0  0  0  0  0  0
    2.2322   17.1029   -3.3550 H   0  0  0  0  0  0  0  0  0  0  0  0
  1  2  1  0
  2  3  1  0
  3  4  1  0
  4  5  1  0
  5  6  1  0
  6  7  1  0
  7  8  1  0
  7  9  1  0
  2 10  1  0
 10 11  1  0
 11 12  1  0
 12 13  1  0
 13 14  1  1
 13 15  1  0
 15 16  1  0
 16 17  1  0
 17 18  2  0
 18 19  1  0
 19 20  1  0
 20 21  1  0
 21 22  1  0
 22 23  1  0
 22 24  1  0
 24 25  1  0
 24 26  1  0
 19 27  1  0
 27 28  1  6
 27 29  1  0
 29 30  1  0
 30 31  1  0
 31 32  1  6
  7  5  1  0
 31 10  1  0
 31 13  1  0
 27 15  1  0
 24 18  1  0
  1 33  1  0
  1 34  1  0
  1 35  1  0
  2 36  1  6
  3 37  1  0
  3 38  1  0
  4 39  1  0
  4 40  1  0
  5 41  1  1
  8 42  1  0
  8 43  1  0
  8 44  1  0
  9 45  1  0
  9 46  1  0
  9 47  1  0
 10 48  1  1
 11 49  1  0
 11 50  1  0
 12 51  1  0
 12 52  1  0
 14 53  1  0
 14 54  1  0
 14 55  1  0
 15 56  1  6
 16 57  1  0
 16 58  1  0
 17 59  1  0
 19 60  1  1
 20 61  1  0
 20 62  1  0
 21 63  1  0
 21 64  1  0
 22 65  1  1
 23 66  1  0
 25 67  1  0
 25 68  1  0
 25 69  1  0
 26 70  1  0
 26 71  1  0
 26 72  1  0
 28 73  1  0
 28 74  1  0
 28 75  1  0
 29 76  1  0
 29 77  1  0
 30 78  1  0
 30 79  1  0
 32 80  1  0
 32 81  1  0
 32 82  1  0
M  END
>  <meeko>  (1) 
{"is_sidechain": [false], "intermolecular_energy": 2.731, "internal_energy": -0.839}

$$$$
EPH_relaxed_0001_pdb2pqr_Repair_150_r2_0001_out
     RDKit          3D

 82 86  0  0  0  0  0  0  0  0999 V2000
    3.8310   17.9670    0.6560 C   0  0  0  0  0  0  0  0  0  0  0  0
    2.9680   18.3520   -0.5480 C   0  0  2  0  0  0  0  0  0  0  0  0
    2.2310   19.6890   -0.3310 C   0  0  0  0  0  0  0  0  0  0  0  0
    1.2230   19.6550    0.8210 C   0  0  0  0  0  0  0  0  0  0  0  0
   -0.1130   20.1930    0.4050 C   0  0  2  0  0  0  0  0  0  0  0  0
   -1.1070   20.1930    1.4380 O   0  0  0  0  0  0  0  0  0  0  0  0
   -1.3650   19.3420    0.3090 C   0  0  0  0  0  0  0  0  0  0  0  0
   -1.3420   17.8810    0.6320 C   0  0  0  0  0  0  0  0  0  0  0  0
   -2.4880   19.8170   -0.5590 C   0  0  0  0  0  0  0  0  0  0  0  0
    1.9630   17.2450   -0.8430 C   0  0  1  0  0  0  0  0  0  0  0  0
    0.8260   17.7080   -1.7920 C   0  0  0  0  0  0  0  0  0  0  0  0
    0.4600   16.4890   -2.6790 C   0  0  0  0  0  0  0  0  0  0  0  0
    1.1540   15.2880   -1.9960 C   0  0  1  0  0  0  0  0  0  0  0  0
    0.2000   14.8840   -0.8280 C   0  0  0  0  0  0  0  0  0  0  0  0
    1.4880   14.0690   -2.9160 C   0  0  2  0  0  0  0  0  0  0  0  0
    0.2690   13.3750   -3.5490 C   0  0  0  0  0  0  0  0  0  0  0  0
   -0.3130   12.2560   -2.7520 C   0  0  0  0  0  0  0  0  0  0  0  0
    0.2870   11.6360   -1.7190 C   0  0  0  0  0  0  0  0  0  0  0  0
    1.7260   11.9870   -1.3190 C   0  0  1  0  0  0  0  0  0  0  0  0
    2.5350   10.6820   -1.0980 C   0  0  0  0  0  0  0  0  0  0  0  0
    1.8660    9.7400   -0.1020 C   0  0  0  0  0  0  0  0  0  0  0  0
    0.4590    9.3680   -0.5630 C   0  0  2  0  0  0  0  0  0  0  0  0
    0.5580    8.5810   -1.7540 O   0  0  0  0  0  0  0  0  0  0  0  0
   -0.4460   10.6040   -0.8270 C   0  0  0  0  0  0  0  0  0  0  0  0
   -0.7990   11.2870    0.5170 C   0  0  0  0  0  0  0  0  0  0  0  0
   -1.7870   10.0950   -1.4210 C   0  0  0  0  0  0  0  0  0  0  0  0
    2.4770   13.0180   -2.2670 C   0  0  1  0  0  0  0  0  0  0  0  0
    3.1570   12.2580   -3.4470 C   0  0  0  0  0  0  0  0  0  0  0  0
    3.6370   13.7100   -1.4580 C   0  0  0  0  0  0  0  0  0  0  0  0
    3.2700   14.9790   -0.6640 C   0  0  0  0  0  0  0  0  0  0  0  0
    2.4960   15.9680   -1.5400 C   0  0  2  0  0  0  0  0  0  0  0  0
    3.4380   16.4090   -2.7120 C   0  0  0  0  0  0  0  0  0  0  0  0
    3.2927   18.2071    1.5847 H   0  0  0  0  0  0  0  0  0  0  0  0
    4.0443   16.8884    0.6243 H   0  0  0  0  0  0  0  0  0  0  0  0
    4.7762   18.5288    0.6243 H   0  0  0  0  0  0  0  0  0  0  0  0
    3.6407   18.4820   -1.4086 H   0  0  0  0  0  0  0  0  0  0  0  0
    2.9784   20.4669   -0.1159 H   0  0  0  0  0  0  0  0  0  0  0  0
    1.6629   19.8963   -1.2499 H   0  0  0  0  0  0  0  0  0  0  0  0
    1.0997   18.6146    1.1561 H   0  0  0  0  0  0  0  0  0  0  0  0
    1.6095   20.2878    1.6335 H   0  0  0  0  0  0  0  0  0  0  0  0
    0.3618   20.8890   -0.3022 H   0  0  0  0  0  0  0  0  0  0  0  0
   -1.3399   17.7468    1.7238 H   0  0  0  0  0  0  0  0  0  0  0  0
   -2.2326   17.3970    0.2048 H   0  0  0  0  0  0  0  0  0  0  0  0
   -0.4366   17.4252    0.2048 H   0  0  0  0  0  0  0  0  0  0  0  0
   -3.3170   20.1677    0.0732 H   0  0  0  0  0  0  0  0  0  0  0  0
   -2.1363   20.6434   -1.1941 H   0  0  0  0  0  0  0  0  0  0  0  0
   -2.8360   18.9890   -1.1941 H   0  0  0  0  0  0  0  0  0  0  0  0
    1.6431   17.0080    0.1824 H   0  0  0  0  0  0  0  0  0  0  0  0
   -0.0492   18.0274   -1.2072 H   0  0  0  0  0  0  0  0  0  0  0  0
    1.1474   18.5617   -2.4067 H   0  0  0  0  0  0  0  0  0  0  0  0
   -0.6299   16.3429   -2.7078 H   0  0  0  0  0  0  0  0  0  0  0  0
    0.7833   16.6199   -3.7222 H   0  0  0  0  0  0  0  0  0  0  0  0
    0.6904   15.0917    0.1345 H   0  0  0  0  0  0  0  0  0  0  0  0
   -0.7315   15.4649   -0.8978 H   0  0  0  0  0  0  0  0  0  0  0  0
   -0.0310   13.8108   -0.8978 H   0  0  0  0  0  0  0  0  0  0  0  0
    2.0276   14.5443   -3.7484 H   0  0  0  0  0  0  0  0  0  0  0  0
   -0.5154   14.1323   -3.6947 H   0  0  0  0  0  0  0  0  0  0  0  0
    0.6278   12.9258   -4.4868 H   0  0  0  0  0  0  0  0  0  0  0  0
   -1.3181   11.9081   -3.0326 H   0  0  0  0  0  0  0  0  0  0  0  0
    1.6517   12.5443   -0.3735 H   0  0  0  0  0  0  0  0  0  0  0  0
    2.6356   10.1620   -2.0621 H   0  0  0  0  0  0  0  0  0  0  0  0
    3.5151   10.9629   -0.6850 H   0  0  0  0  0  0  0  0  0  0  0  0
    2.4690    8.8245   -0.0116 H   0  0  0  0  0  0  0  0  0  0  0  0
    1.7935   10.2505    0.8697 H   0  0  0  0  0  0  0  0  0  0  0  0
   -0.0158    8.8000    0.2506 H   0  0  0  0  0  0  0  0  0  0  0  0
    0.1060    9.0660   -2.4660 H   0  0  0  0  0  0  0  0  0  0  0  0
   -0.4693   10.6490    1.3502 H   0  0  0  0  0  0  0  0  0  0  0  0
   -0.2914   12.2610    0.5778 H   0  0  0  0  0  0  0  0  0  0  0  0
   -1.8871   11.4362    0.5778 H   0  0  0  0  0  0  0  0  0  0  0  0
   -2.4747    9.8340   -0.6031 H   0  0  0  0  0  0  0  0  0  0  0  0
   -2.2370   10.8849   -2.0404 H   0  0  0  0  0  0  0  0  0  0  0  0
   -1.5995    9.2055   -2.0404 H   0  0  0  0  0  0  0  0  0  0  0  0
    3.8401   11.4946   -3.0463 H   0  0  0  0  0  0  0  0  0  0  0  0
    2.3859   11.7728   -4.0635 H   0  0  0  0  0  0  0  0  0  0  0  0
    3.7246   12.9706   -4.0635 H   0  0  0  0  0  0  0  0  0  0  0  0
    4.0300   12.9722   -0.7430 H   0  0  0  0  0  0  0  0  0  0  0  0
    4.3579   14.0449   -2.2183 H   0  0  0  0  0  0  0  0  0  0  0  0
    2.6468   14.6970    0.1974 H   0  0  0  0  0  0  0  0  0  0  0  0
    4.1985   15.4620   -0.3254 H   0  0  0  0  0  0  0  0  0  0  0  0
    4.3609   16.8411   -2.2978 H   0  0  0  0  0  0  0  0  0  0  0  0
    3.6880   15.5343   -3.3304 H   0  0  0  0  0  0  0  0  0  0  0  0
    2.9264   17.1612   -3.3304 H   0  0  0  0  0  0  0  0  0  0  0  0
  1  2  1  0
  2  3  1  0
  3  4  1  0
  4  5  1  0
  5  6  1  0
  6  7  1  0
  7  8  1  0
  7  9  1  0
  2 10  1  0
 10 11  1  0
 11 12  1  0
 12 13  1  0
 13 14  1  1
 13 15  1  0
 15 16  1  0
 16 17  1  0
 17 18  2  0
 18 19  1  0
 19 20  1  0
 20 21  1  0
 21 22  1  0
 22 23  1  0
 22 24  1  0
 24 25  1  0
 24 26  1  0
 19 27  1  0
 27 28  1  6
 27 29  1  0
 29 30  1  0
 30 31  1  0
 31 32  1  6
  7  5  1  0
 31 10  1  0
 31 13  1  0
 27 15  1  0
 24 18  1  0
  1 33  1  0
  1 34  1  0
  1 35  1  0
  2 36  1  6
  3 37  1  0
  3 38  1  0
  4 39  1  0
  4 40  1  0
  5 41  1  6
  8 42  1  0
  8 43  1  0
  8 44  1  0
  9 45  1  0
  9 46  1  0
  9 47  1  0
 10 48  1  1
 11 49  1  0
 11 50  1  0
 12 51  1  0
 12 52  1  0
 14 53  1  0
 14 54  1  0
 14 55  1  0
 15 56  1  6
 16 57  1  0
 16 58  1  0
 17 59  1  0
 19 60  1  1
 20 61  1  0
 20 62  1  0
 21 63  1  0
 21 64  1  0
 22 65  1  1
 23 66  1  0
 25 67  1  0
 25 68  1  0
 25 69  1  0
 26 70  1  0
 26 71  1  0
 26 72  1  0
 28 73  1  0
 28 74  1  0
 28 75  1  0
 29 76  1  0
 29 77  1  0
 30 78  1  0
 30 79  1  0
 32 80  1  0
 32 81  1  0
 32 82  1  0
M  END
>  <meeko>  (2) 
{"is_sidechain": [false], "intermolecular_energy": 2.731, "internal_energy": -0.839}

$$$$
EPH_relaxed_0001_pdb2pqr_Repair_150_r2_0001_out
     RDKit          3D

 82 86  0  0  0  0  0  0  0  0999 V2000
    2.3680   18.1720   -2.2610 C   0  0  0  0  0  0  0  0  0  0  0  0
    1.7920   17.3890   -1.0780 C   0  0  2  0  0  0  0  0  0  0  0  0
    2.8850   16.9610   -0.0780 C   0  0  0  0  0  0  0  0  0  0  0  0
    3.8860   18.0720    0.2520 C   0  0  0  0  0  0  0  0  0  0  0  0
    3.6060   18.6900    1.5890 C   0  0  2  0  0  0  0  0  0  0  0  0
    3.9790   20.0700    1.6990 O   0  0  0  0  0  0  0  0  0  0  0  0
    4.6940   19.1510    2.5410 C   0  0  0  0  0  0  0  0  0  0  0  0
    6.1430   19.0110    2.1970 C   0  0  0  0  0  0  0  0  0  0  0  0
    4.3620   19.2830    3.9950 C   0  0  0  0  0  0  0  0  0  0  0  0
    1.0400   16.1630   -1.5830 C   0  0  1  0  0  0  0  0  0  0  0  0
    0.5170   16.3390   -3.0340 C   0  0  0  0  0  0  0  0  0  0  0  0
    0.6090   14.9480   -3.7130 C   0  0  0  0  0  0  0  0  0  0  0  0
    0.8620   13.9610   -2.5490 C   0  0  1  0  0  0  0  0  0  0  0  0
   -0.5470   13.7040   -1.9280 C   0  0  0  0  0  0  0  0  0  0  0  0
    1.5810   12.6240   -2.9210 C   0  0  2  0  0  0  0  0  0  0  0  0
    0.8130   11.7210   -3.9030 C   0  0  0  0  0  0  0  0  0  0  0  0
   -0.1030   10.7260   -3.2710 C   0  0  0  0  0  0  0  0  0  0  0  0
   -0.0920   10.3670   -1.9730 C   0  0  0  0  0  0  0  0  0  0  0  0
    0.9750   10.9100   -1.0150 C   0  0  1  0  0  0  0  0  0  0  0  0
    1.5520    9.7450   -0.1680 C   0  0  0  0  0  0  0  0  0  0  0  0
    0.4660    8.9540    0.5550 C   0  0  0  0  0  0  0  0  0  0  0  0
   -0.5440    8.3810   -0.4370 C   0  0  2  0  0  0  0  0  0  0  0  0
    0.1090    7.3950   -1.2420 O   0  0  0  0  0  0  0  0  0  0  0  0
   -1.1850    9.4620   -1.3520 C   0  0  0  0  0  0  0  0  0  0  0  0
   -2.1370   10.3530   -0.5160 C   0  0  0  0  0  0  0  0  0  0  0  0
   -2.0750    8.7370   -2.3970 C   0  0  0  0  0  0  0  0  0  0  0  0
    2.1100   11.8040   -1.6760 C   0  0  1  0  0  0  0  0  0  0  0  0
    3.2660   10.8970   -2.1980 C   0  0  0  0  0  0  0  0  0  0  0  0
    2.7400   12.7340   -0.5720 C   0  0  0  0  0  0  0  0  0  0  0  0
    2.0550   14.0930   -0.3340 C   0  0  0  0  0  0  0  0  0  0  0  0
    1.8230   14.8280   -1.6570 C   0  0  2  0  0  0  0  0  0  0  0  0
    3.2240   15.1200   -2.2950 C   0  0  0  0  0  0  0  0  0  0  0  0
    2.9808   19.0050   -1.8859 H   0  0  0  0  0  0  0  0  0  0  0  0
    2.9920   17.5046   -2.8735 H   0  0  0  0  0  0  0  0  0  0  0  0
    1.5451   18.5690   -2.8735 H   0  0  0  0  0  0  0  0  0  0  0  0
    1.0993   18.0568   -0.5448 H   0  0  0  0  0  0  0  0  0  0  0  0
    2.3970   16.6446    0.8556 H   0  0  0  0  0  0  0  0  0  0  0  0
    3.4529   16.1465   -0.5514 H   0  0  0  0  0  0  0  0  0  0  0  0
    4.9005   17.6469    0.2610 H   0  0  0  0  0  0  0  0  0  0  0  0
    3.7943   18.8556   -0.5145 H   0  0  0  0  0  0  0  0  0  0  0  0
    2.7266   18.0446    1.7308 H   0  0  0  0  0  0  0  0  0  0  0  0
    6.7356   18.9537    3.1220 H   0  0  0  0  0  0  0  0  0  0  0  0
    6.2931   18.0942    1.6080 H   0  0  0  0  0  0  0  0  0  0  0  0
    6.4659   19.8821    1.6080 H   0  0  0  0  0  0  0  0  0  0  0  0
    5.2166   18.9432    4.5985 H   0  0  0  0  0  0  0  0  0  0  0  0
    4.1446   20.3360    4.2273 H   0  0  0  0  0  0  0  0  0  0  0  0
    3.4809   18.6668    4.2273 H   0  0  0  0  0  0  0  0  0  0  0  0
    0.2573   16.0967   -0.8129 H   0  0  0  0  0  0  0  0  0  0  0  0
   -0.5267   16.6863   -3.0212 H   0  0  0  0  0  0  0  0  0  0  0  0
    1.1112   17.0861   -3.5807 H   0  0  0  0  0  0  0  0  0  0  0  0
   -0.3310   14.7055   -4.2303 H   0  0  0  0  0  0  0  0  0  0  0  0
    1.4021   14.9072   -4.4741 H   0  0  0  0  0  0  0  0  0  0  0  0
   -0.4721   13.7177   -0.8306 H   0  0  0  0  0  0  0  0  0  0  0  0
   -1.2420   14.4902   -2.2579 H   0  0  0  0  0  0  0  0  0  0  0  0
   -0.9197   12.7231   -2.2579 H   0  0  0  0  0  0  0  0  0  0  0  0
    2.4663   12.9778   -3.4698 H   0  0  0  0  0  0  0  0  0  0  0  0
    0.2120   12.3670   -4.5599 H   0  0  0  0  0  0  0  0  0  0  0  0
    1.5753   11.1359   -4.4383 H   0  0  0  0  0  0  0  0  0  0  0  0
   -0.8499   10.2456   -3.9201 H   0  0  0  0  0  0  0  0  0  0  0  0
    0.4586   11.6274   -0.3602 H   0  0  0  0  0  0  0  0  0  0  0  0
    2.1009    9.0629   -0.8340 H   0  0  0  0  0  0  0  0  0  0  0  0
    2.2115   10.1823    0.5961 H   0  0  0  0  0  0  0  0  0  0  0  0
    0.9325    8.1278    1.1115 H   0  0  0  0  0  0  0  0  0  0  0  0
   -0.0624    9.6308    1.2425 H   0  0  0  0  0  0  0  0  0  0  0  0
   -1.3643    7.9376    0.1465 H   0  0  0  0  0  0  0  0  0  0  0  0
   -0.5640    6.9890   -1.8140 H   0  0  0  0  0  0  0  0  0  0  0  0
   -1.9537   10.1814    0.5550 H   0  0  0  0  0  0  0  0  0  0  0  0
   -1.9530   11.4109   -0.7546 H   0  0  0  0  0  0  0  0  0  0  0  0
   -3.1804   10.0994   -0.7546 H   0  0  0  0  0  0  0  0  0  0  0  0
   -2.8265    8.1248   -1.8769 H   0  0  0  0  0  0  0  0  0  0  0  0
   -2.5818    9.4826   -3.0273 H   0  0  0  0  0  0  0  0  0  0  0  0
   -1.4473    8.0899   -3.0273 H   0  0  0  0  0  0  0  0  0  0  0  0
    3.8110   10.4694   -1.3435 H   0  0  0  0  0  0  0  0  0  0  0  0
    2.8469   10.0843   -2.8094 H   0  0  0  0  0  0  0  0  0  0  0  0
    3.9557   11.4975   -2.8094 H   0  0  0  0  0  0  0  0  0  0  0  0
    2.7215   12.1812    0.3788 H   0  0  0  0  0  0  0  0  0  0  0  0
    3.7458   12.9801   -0.9432 H   0  0  0  0  0  0  0  0  0  0  0  0
    1.0863   13.9263    0.1599 H   0  0  0  0  0  0  0  0  0  0  0  0
    2.7090   14.7095    0.3002 H   0  0  0  0  0  0  0  0  0  0  0  0
    3.9652   15.2745   -1.4971 H   0  0  0  0  0  0  0  0  0  0  0  0
    3.5284   14.2660   -2.9179 H   0  0  0  0  0  0  0  0  0  0  0  0
    3.1619   16.0245   -2.9179 H   0  0  0  0  0  0  0  0  0  0  0  0
  1  2  1  0
  2  3  1  0
  3  4  1  0
  4  5  1  0
  5  6  1  0
  6  7  1  0
  7  8  1  0
  7  9  1  0
  2 10  1  0
 10 11  1  0
 11 12  1  0
 12 13  1  0
 13 14  1  1
 13 15  1  0
 15 16  1  0
 16 17  1  0
 17 18  2  0
 18 19  1  0
 19 20  1  0
 20 21  1  0
 21 22  1  0
 22 23  1  0
 22 24  1  0
 24 25  1  0
 24 26  1  0
 19 27  1  0
 27 28  1  6
 27 29  1  0
 29 30  1  0
 30 31  1  0
 31 32  1  6
  7  5  1  0
 31 10  1  0
 31 13  1  0
 27 15  1  0
 24 18  1  0
  1 33  1  0
  1 34  1  0
  1 35  1  0
  2 36  1  1
  3 37  1  0
  3 38  1  0
  4 39  1  0
  4 40  1  0
  5 41  1  1
  8 42  1  0
  8 43  1  0
  8 44  1  0
  9 45  1  0
  9 46  1  0
  9 47  1  0
 10 48  1  1
 11 49  1  0
 11 50  1  0
 12 51  1  0
 12 52  1  0
 14 53  1  0
 14 54  1  0
 14 55  1  0
 15 56  1  6
 16 57  1  0
 16 58  1  0
 17 59  1  0
 19 60  1  1
 20 61  1  0
 20 62  1  0
 21 63  1  0
 21 64  1  0
 22 65  1  1
 23 66  1  0
 25 67  1  0
 25 68  1  0
 25 69  1  0
 26 70  1  0
 26 71  1  0
 26 72  1  0
 28 73  1  0
 28 74  1  0
 28 75  1  0
 29 76  1  0
 29 77  1  0
 30 78  1  0
 30 79  1  0
 32 80  1  0
 32 81  1  0
 32 82  1  0
M  END
>  <meeko>  (3) 
{"is_sidechain": [false], "intermolecular_energy": 2.731, "internal_energy": -0.839}

$$$$
EPH_relaxed_0001_pdb2pqr_Repair_150_r2_0001_out
     RDKit          3D

 82 86  0  0  0  0  0  0  0  0999 V2000
   -1.1260    8.7960   -1.9180 C   0  0  0  0  0  0  0  0  0  0  0  0
   -1.5490    9.1820   -0.4980 C   0  0  2  0  0  0  0  0  0  0  0  0
   -3.0780    9.3310   -0.3670 C   0  0  0  0  0  0  0  0  0  0  0  0
   -3.8680    8.4060   -1.2960 C   0  0  0  0  0  0  0  0  0  0  0  0
   -5.2140    8.0700   -0.7290 C   0  0  2  0  0  0  0  0  0  0  0  0
   -5.4410    6.6710   -0.5140 O   0  0  0  0  0  0  0  0  0  0  0  0
   -6.2770    7.3040   -1.4950 C   0  0  0  0  0  0  0  0  0  0  0  0
   -6.0410    6.8290   -2.8940 C   0  0  0  0  0  0  0  0  0  0  0  0
   -7.7060    7.4440   -1.0700 C   0  0  0  0  0  0  0  0  0  0  0  0
   -0.8610   10.4780   -0.0850 C   0  0  1  0  0  0  0  0  0  0  0  0
    0.0900   10.2900    1.1270 C   0  0  0  0  0  0  0  0  0  0  0  0
    1.2870   11.2510    0.9090 C   0  0  0  0  0  0  0  0  0  0  0  0
    0.8310   12.1890   -0.2330 C   0  0  1  0  0  0  0  0  0  0  0  0
   -0.0650   13.2610    0.4630 C   0  0  0  0  0  0  0  0  0  0  0  0
    1.9680   12.8480   -1.0800 C   0  0  2  0  0  0  0  0  0  0  0  0
    2.9070   13.7820   -0.2970 C   0  0  0  0  0  0  0  0  0  0  0  0
    2.4920   15.2160   -0.2550 C   0  0  0  0  0  0  0  0  0  0  0  0
    1.5700   15.7870   -1.0530 C   0  0  0  0  0  0  0  0  0  0  0  0
    0.9080   14.9920   -2.1860 C   0  0  1  0  0  0  0  0  0  0  0  0
    0.9070   15.8440   -3.4830 C   0  0  0  0  0  0  0  0  0  0  0  0
    0.2680   17.2150   -3.2810 C   0  0  0  0  0  0  0  0  0  0  0  0
    0.9900   17.9970   -2.1870 C   0  0  2  0  0  0  0  0  0  0  0  0
    2.3130   18.3060   -2.6370 O   0  0  0  0  0  0  0  0  0  0  0  0
    1.0630   17.2340   -0.8350 C   0  0  0  0  0  0  0  0  0  0  0  0
   -0.3470   17.1640   -0.2000 C   0  0  0  0  0  0  0  0  0  0  0  0
    1.9370   18.0700    0.1390 C   0  0  0  0  0  0  0  0  0  0  0  0
    1.4680   13.5230   -2.4210 C   0  0  1  0  0  0  0  0  0  0  0  0
    2.6960   13.5690   -3.3810 C   0  0  0  0  0  0  0  0  0  0  0  0
    0.3670   12.6640   -3.1490 C   0  0  0  0  0  0  0  0  0  0  0  0
   -0.6550   11.9410   -2.2520 C   0  0  0  0  0  0  0  0  0  0  0  0
    0.0480   11.1660   -1.1330 C   0  0  2  0  0  0  0  0  0  0  0  0
    0.9400   10.0650   -1.8020 C   0  0  0  0  0  0  0  0  0  0  0  0
   -0.3142    8.0552   -1.8702 H   0  0  0  0  0  0  0  0  0  0  0  0
   -1.9853    8.3643   -2.4520 H   0  0  0  0  0  0  0  0  0  0  0  0
   -0.7745    9.6912   -2.4520 H   0  0  0  0  0  0  0  0  0  0  0  0
   -1.2392    8.3669    0.1725 H   0  0  0  0  0  0  0  0  0  0  0  0
   -3.3613    9.1046    0.6715 H   0  0  0  0  0  0  0  0  0  0  0  0
   -3.3262   10.3634   -0.6541 H   0  0  0  0  0  0  0  0  0  0  0  0
   -4.0045    8.9066   -2.2659 H   0  0  0  0  0  0  0  0  0  0  0  0
   -3.3012    7.4704   -1.4120 H   0  0  0  0  0  0  0  0  0  0  0  0
   -5.2438    9.0198   -0.1749 H   0  0  0  0  0  0  0  0  0  0  0  0
   -5.5517    5.8441   -2.8692 H   0  0  0  0  0  0  0  0  0  0  0  0
   -7.0032    6.7472   -3.4207 H   0  0  0  0  0  0  0  0  0  0  0  0
   -5.3946    7.5464   -3.4207 H   0  0  0  0  0  0  0  0  0  0  0  0
   -7.7630    7.4496    0.0285 H   0  0  0  0  0  0  0  0  0  0  0  0
   -8.1148    8.3865   -1.4632 H   0  0  0  0  0  0  0  0  0  0  0  0
   -8.2900    6.5988   -1.4632 H   0  0  0  0  0  0  0  0  0  0  0  0
   -1.7458   11.1011    0.1122 H   0  0  0  0  0  0  0  0  0  0  0  0
   -0.4328   10.5419    2.0615 H   0  0  0  0  0  0  0  0  0  0  0  0
    0.4299    9.2467    1.2045 H   0  0  0  0  0  0  0  0  0  0  0  0
    1.4954   11.8255    1.8236 H   0  0  0  0  0  0  0  0  0  0  0  0
    2.2142   10.7132    0.6621 H   0  0  0  0  0  0  0  0  0  0  0  0
    0.0211   13.1580    1.5548 H   0  0  0  0  0  0  0  0  0  0  0  0
    0.2654   14.2662    0.1624 H   0  0  0  0  0  0  0  0  0  0  0  0
   -1.1129   13.1142    0.1624 H   0  0  0  0  0  0  0  0  0  0  0  0
    2.5810   11.9812   -1.3677 H   0  0  0  0  0  0  0  0  0  0  0  0
    2.9657   13.4148    0.7382 H   0  0  0  0  0  0  0  0  0  0  0  0
    3.8701   13.7597   -0.8280 H   0  0  0  0  0  0  0  0  0  0  0  0
    2.9808   15.8601    0.4908 H   0  0  0  0  0  0  0  0  0  0  0  0
   -0.1262   14.8031   -1.8622 H   0  0  0  0  0  0  0  0  0  0  0  0
    1.9467   15.9846   -3.8135 H   0  0  0  0  0  0  0  0  0  0  0  0
    0.3126   15.3058   -4.2360 H   0  0  0  0  0  0  0  0  0  0  0  0
    0.3225   17.7800   -4.2232 H   0  0  0  0  0  0  0  0  0  0  0  0
   -0.7799   17.0730   -2.9780 H   0  0  0  0  0  0  0  0  0  0  0  0
    0.4103   18.9129   -1.9994 H   0  0  0  0  0  0  0  0  0  0  0  0
    2.9010   18.2760   -1.8640 H   0  0  0  0  0  0  0  0  0  0  0  0
   -0.2561   17.1685    0.8962 H   0  0  0  0  0  0  0  0  0  0  0  0
   -0.9380   18.0339   -0.5225 H   0  0  0  0  0  0  0  0  0  0  0  0
   -0.8489   16.2398   -0.5225 H   0  0  0  0  0  0  0  0  0  0  0  0
    1.6733   17.8178    1.1767 H   0  0  0  0  0  0  0  0  0  0  0  0
    2.9992   17.8432   -0.0349 H   0  0  0  0  0  0  0  0  0  0  0  0
    1.7576   19.1412   -0.0349 H   0  0  0  0  0  0  0  0  0  0  0  0
    3.6228   13.6037   -2.7895 H   0  0  0  0  0  0  0  0  0  0  0  0
    2.6994   12.6704   -4.0154 H   0  0  0  0  0  0  0  0  0  0  0  0
    2.6321   14.4654   -4.0154 H   0  0  0  0  0  0  0  0  0  0  0  0
   -0.1925   13.3363   -3.8160 H   0  0  0  0  0  0  0  0  0  0  0  0
    0.9192   11.8619   -3.6606 H   0  0  0  0  0  0  0  0  0  0  0  0
   -1.3307   12.6849   -1.8047 H   0  0  0  0  0  0  0  0  0  0  0  0
   -1.2211   11.2283   -2.8697 H   0  0  0  0  0  0  0  0  0  0  0  0
    1.4274    9.4633   -1.0207 H   0  0  0  0  0  0  0  0  0  0  0  0
    0.3115    9.4140   -2.4275 H   0  0  0  0  0  0  0  0  0  0  0  0
    1.7072   10.5448   -2.4275 H   0  0  0  0  0  0  0  0  0  0  0  0
  1  2  1  0
  2  3  1  0
  3  4  1  0
  4  5  1  0
  5  6  1  0
  6  7  1  0
  7  8  1  0
  7  9  1  0
  2 10  1  0
 10 11  1  0
 11 12  1  0
 12 13  1  0
 13 14  1  1
 13 15  1  0
 15 16  1  0
 16 17  1  0
 17 18  2  0
 18 19  1  0
 19 20  1  0
 20 21  1  0
 21 22  1  0
 22 23  1  0
 22 24  1  0
 24 25  1  0
 24 26  1  0
 19 27  1  0
 27 28  1  6
 27 29  1  0
 29 30  1  0
 30 31  1  0
 31 32  1  6
  7  5  1  0
 31 10  1  0
 31 13  1  0
 27 15  1  0
 24 18  1  0
  1 33  1  0
  1 34  1  0
  1 35  1  0
  2 36  1  1
  3 37  1  0
  3 38  1  0
  4 39  1  0
  4 40  1  0
  5 41  1  1
  8 42  1  0
  8 43  1  0
  8 44  1  0
  9 45  1  0
  9 46  1  0
  9 47  1  0
 10 48  1  1
 11 49  1  0
 11 50  1  0
 12 51  1  0
 12 52  1  0
 14 53  1  0
 14 54  1  0
 14 55  1  0
 15 56  1  6
 16 57  1  0
 16 58  1  0
 17 59  1  0
 19 60  1  1
 20 61  1  0
 20 62  1  0
 21 63  1  0
 21 64  1  0
 22 65  1  1
 23 66  1  0
 25 67  1  0
 25 68  1  0
 25 69  1  0
 26 70  1  0
 26 71  1  0
 26 72  1  0
 28 73  1  0
 28 74  1  0
 28 75  1  0
 29 76  1  0
 29 77  1  0
 30 78  1  0
 30 79  1  0
 32 80  1  0
 32 81  1  0
 32 82  1  0
M  END
>  <meeko>  (4) 
{"is_sidechain": [false], "intermolecular_energy": 2.731, "internal_energy": -0.839}

$$$$
EPH_relaxed_0001_pdb2pqr_Repair_150_r2_0001_out
     RDKit          3D

 82 86  0  0  0  0  0  0  0  0999 V2000
    3.5720   18.3230    0.1220 C   0  0  0  0  0  0  0  0  0  0  0  0
    3.7800   17.0210   -0.6570 C   0  0  2  0  0  0  0  0  0  0  0  0
    4.0600   17.2770   -2.1520 C   0  0  0  0  0  0  0  0  0  0  0  0
    5.4320   16.7800   -2.6150 C   0  0  0  0  0  0  0  0  0  0  0  0
    5.3970   15.3310   -2.9970 C   0  0  2  0  0  0  0  0  0  0  0  0
    6.5470   14.5770   -2.5910 O   0  0  0  0  0  0  0  0  0  0  0  0
    6.3420   14.7090   -4.0070 C   0  0  0  0  0  0  0  0  0  0  0  0
    7.3900   15.5230   -4.7000 C   0  0  0  0  0  0  0  0  0  0  0  0
    5.9350   13.4350   -4.6780 C   0  0  0  0  0  0  0  0  0  0  0  0
    2.5600   16.1210   -0.5020 C   0  0  1  0  0  0  0  0  0  0  0  0
    1.2340   16.9230   -0.4110 C   0  0  0  0  0  0  0  0  0  0  0  0
    0.1480   16.0750   -1.1220 C   0  0  0  0  0  0  0  0  0  0  0  0
    0.7980   14.6830   -1.3030 C   0  0  1  0  0  0  0  0  0  0  0  0
    0.6240   13.9770    0.0780 C   0  0  0  0  0  0  0  0  0  0  0  0
    0.2410   13.8070   -2.4730 C   0  0  2  0  0  0  0  0  0  0  0  0
   -1.2420   13.4190   -2.3480 C   0  0  0  0  0  0  0  0  0  0  0  0
   -1.5080   12.1350   -1.6350 C   0  0  0  0  0  0  0  0  0  0  0  0
   -0.5920   11.1860   -1.3650 C   0  0  0  0  0  0  0  0  0  0  0  0
    0.8490   11.3140   -1.8770 C   0  0  1  0  0  0  0  0  0  0  0  0
    1.2980    9.9670   -2.5000 C   0  0  0  0  0  0  0  0  0  0  0  0
    1.1210    8.7920   -1.5430 C   0  0  0  0  0  0  0  0  0  0  0  0
   -0.3350    8.6620   -1.1020 C   0  0  2  0  0  0  0  0  0  0  0  0
   -1.1280    8.2940   -2.2350 O   0  0  0  0  0  0  0  0  0  0  0  0
   -0.9010    9.9630   -0.4680 C   0  0  0  0  0  0  0  0  0  0  0  0
   -0.2440   10.1960    0.9150 C   0  0  0  0  0  0  0  0  0  0  0  0
   -2.4140    9.7430   -0.1980 C   0  0  0  0  0  0  0  0  0  0  0  0
    1.1390   12.5540   -2.8280 C   0  0  1  0  0  0  0  0  0  0  0  0
    0.8140   12.1770   -4.3060 C   0  0  0  0  0  0  0  0  0  0  0  0
    2.6770   12.8870   -2.7830 C   0  0  0  0  0  0  0  0  0  0  0  0
    3.1470   13.8520   -1.6780 C   0  0  0  0  0  0  0  0  0  0  0  0
    2.2730   15.1090   -1.6400 C   0  0  2  0  0  0  0  0  0  0  0  0
    2.4450   15.8530   -3.0080 C   0  0  0  0  0  0  0  0  0  0  0  0
    3.6054   18.1138    1.2014 H   0  0  0  0  0  0  0  0  0  0  0  0
    4.3675   19.0369   -0.1379 H   0  0  0  0  0  0  0  0  0  0  0  0
    2.5937   18.7535   -0.1379 H   0  0  0  0  0  0  0  0  0  0  0  0
    4.6653   16.5219   -0.2361 H   0  0  0  0  0  0  0  0  0  0  0  0
    3.2871   16.7637   -2.7429 H   0  0  0  0  0  0  0  0  0  0  0  0
    4.0463   18.3670   -2.2996 H   0  0  0  0  0  0  0  0  0  0  0  0
    5.7496   17.3709   -3.4868 H   0  0  0  0  0  0  0  0  0  0  0  0
    6.1388   16.8975   -1.7803 H   0  0  0  0  0  0  0  0  0  0  0  0
    4.3015   15.3078   -2.9002 H   0  0  0  0  0  0  0  0  0  0  0  0
    8.0258   16.0169   -3.9504 H   0  0  0  0  0  0  0  0  0  0  0  0
    8.0080   14.8658   -5.3294 H   0  0  0  0  0  0  0  0  0  0  0  0
    6.9062   16.2844   -5.3294 H   0  0  0  0  0  0  0  0  0  0  0  0
    5.6937   12.6798   -3.9155 H   0  0  0  0  0  0  0  0  0  0  0  0
    5.0505   13.6176   -5.3059 H   0  0  0  0  0  0  0  0  0  0  0  0
    6.7616   13.0710   -5.3059 H   0  0  0  0  0  0  0  0  0  0  0  0
    2.8420   15.5847    0.4160 H   0  0  0  0  0  0  0  0  0  0  0  0
    0.9599   17.0834    0.6422 H   0  0  0  0  0  0  0  0  0  0  0  0
    1.3366   17.9105   -0.8847 H   0  0  0  0  0  0  0  0  0  0  0  0
   -0.7572   16.0033   -0.5011 H   0  0  0  0  0  0  0  0  0  0  0  0
   -0.1665   16.5167   -2.0791 H   0  0  0  0  0  0  0  0  0  0  0  0
    0.8027   14.7021    0.8856 H   0  0  0  0  0  0  0  0  0  0  0  0
   -0.3987   13.5806    0.1609 H   0  0  0  0  0  0  0  0  0  0  0  0
    1.3454   13.1507    0.1609 H   0  0  0  0  0  0  0  0  0  0  0  0
    0.2984   14.4936   -3.3305 H   0  0  0  0  0  0  0  0  0  0  0  0
   -1.7589   14.2232   -1.8038 H   0  0  0  0  0  0  0  0  0  0  0  0
   -1.6067   13.2770   -3.3760 H   0  0  0  0  0  0  0  0  0  0  0  0
   -2.5396   11.9483   -1.3020 H   0  0  0  0  0  0  0  0  0  0  0  0
    1.4665   11.5414   -0.9956 H   0  0  0  0  0  0  0  0  0  0  0  0
    0.6991    9.7793   -3.4034 H   0  0  0  0  0  0  0  0  0  0  0  0
    2.3697   10.0483   -2.7344 H   0  0  0  0  0  0  0  0  0  0  0  0
    1.4277    7.8653   -2.0501 H   0  0  0  0  0  0  0  0  0  0  0  0
    1.7431    8.9673   -0.6529 H   0  0  0  0  0  0  0  0  0  0  0  0
   -0.3759    7.8890   -0.3204 H   0  0  0  0  0  0  0  0  0  0  0  0
   -1.9890    8.7370   -2.1470 H   0  0  0  0  0  0  0  0  0  0  0  0
   -0.9613    9.9416    1.7092 H   0  0  0  0  0  0  0  0  0  0  0  0
    0.6482    9.5594    1.0090 H   0  0  0  0  0  0  0  0  0  0  0  0
    0.0478   11.2524    1.0090 H   0  0  0  0  0  0  0  0  0  0  0  0
   -2.5928    9.7170    0.8871 H   0  0  0  0  0  0  0  0  0  0  0  0
   -2.9898   10.5669   -0.6449 H   0  0  0  0  0  0  0  0  0  0  0  0
   -2.7313    8.7893   -0.6449 H   0  0  0  0  0  0  0  0  0  0  0  0
    0.0958   11.3439   -4.3225 H   0  0  0  0  0  0  0  0  0  0  0  0
    0.3782   13.0470   -4.8190 H   0  0  0  0  0  0  0  0  0  0  0  0
    1.7387   11.8741   -4.8190 H   0  0  0  0  0  0  0  0  0  0  0  0
    3.2189   11.9391   -2.6495 H   0  0  0  0  0  0  0  0  0  0  0  0
    2.8862   13.4086   -3.7286 H   0  0  0  0  0  0  0  0  0  0  0  0
    3.0865   13.3421   -0.7052 H   0  0  0  0  0  0  0  0  0  0  0  0
    4.1836   14.1518   -1.8917 H   0  0  0  0  0  0  0  0  0  0  0  0
    2.6892   16.9094   -2.8227 H   0  0  0  0  0  0  0  0  0  0  0  0
    3.2583   15.3837   -3.5809 H   0  0  0  0  0  0  0  0  0  0  0  0
    1.5082   15.7883   -3.5809 H   0  0  0  0  0  0  0  0  0  0  0  0
  1  2  1  0
  2  3  1  0
  3  4  1  0
  4  5  1  0
  5  6  1  0
  6  7  1  0
  7  8  1  0
  7  9  1  0
  2 10  1  0
 10 11  1  0
 11 12  1  0
 12 13  1  0
 13 14  1  1
 13 15  1  0
 15 16  1  0
 16 17  1  0
 17 18  2  0
 18 19  1  0
 19 20  1  0
 20 21  1  0
 21 22  1  0
 22 23  1  0
 22 24  1  0
 24 25  1  0
 24 26  1  0
 19 27  1  0
 27 28  1  6
 27 29  1  0
 29 30  1  0
 30 31  1  0
 31 32  1  6
  7  5  1  0
 31 10  1  0
 31 13  1  0
 27 15  1  0
 24 18  1  0
  1 33  1  0
  1 34  1  0
  1 35  1  0
  2 36  1  1
  3 37  1  0
  3 38  1  0
  4 39  1  0
  4 40  1  0
  5 41  1  1
  8 42  1  0
  8 43  1  0
  8 44  1  0
  9 45  1  0
  9 46  1  0
  9 47  1  0
 10 48  1  1
 11 49  1  0
 11 50  1  0
 12 51  1  0
 12 52  1  0
 14 53  1  0
 14 54  1  0
 14 55  1  0
 15 56  1  6
 16 57  1  0
 16 58  1  0
 17 59  1  0
 19 60  1  1
 20 61  1  0
 20 62  1  0
 21 63  1  0
 21 64  1  0
 22 65  1  1
 23 66  1  0
 25 67  1  0
 25 68  1  0
 25 69  1  0
 26 70  1  0
 26 71  1  0
 26 72  1  0
 28 73  1  0
 28 74  1  0
 28 75  1  0
 29 76  1  0
 29 77  1  0
 30 78  1  0
 30 79  1  0
 32 80  1  0
 32 81  1  0
 32 82  1  0
M  END
>  <meeko>  (5) 
{"is_sidechain": [false], "intermolecular_energy": 2.731, "internal_energy": -0.839}

$$$$
EPH_relaxed_0001_pdb2pqr_Repair_150_r2_0001_out
     RDKit          3D

 82 86  0  0  0  0  0  0  0  0999 V2000
    3.8990   16.8730   -0.7160 C   0  0  0  0  0  0  0  0  0  0  0  0
    2.4810   17.4070   -0.9360 C   0  0  2  0  0  0  0  0  0  0  0  0
    1.9210   18.1030    0.3210 C   0  0  0  0  0  0  0  0  0  0  0  0
    1.2340   19.4400    0.0300 C   0  0  0  0  0  0  0  0  0  0  0  0
   -0.2110   19.4190    0.4280 C   0  0  2  0  0  0  0  0  0  0  0  0
   -0.9480   18.2870   -0.0530 O   0  0  0  0  0  0  0  0  0  0  0  0
   -1.3530   19.5690   -0.5600 C   0  0  0  0  0  0  0  0  0  0  0  0
   -1.0990   19.7520   -2.0240 C   0  0  0  0  0  0  0  0  0  0  0  0
   -2.6840   20.0260   -0.0510 C   0  0  0  0  0  0  0  0  0  0  0  0
    1.5560   16.2710   -1.3570 C   0  0  1  0  0  0  0  0  0  0  0  0
    0.7950   16.5770   -2.6740 C   0  0  0  0  0  0  0  0  0  0  0  0
    0.6540   15.2320   -3.4330 C   0  0  0  0  0  0  0  0  0  0  0  0
    1.0360   14.1550   -2.3910 C   0  0  1  0  0  0  0  0  0  0  0  0
   -0.2520   13.9510   -1.5330 C   0  0  0  0  0  0  0  0  0  0  0  0
    1.5700   12.8010   -2.9610 C   0  0  2  0  0  0  0  0  0  0  0  0
    0.5700   12.0190   -3.8300 C   0  0  0  0  0  0  0  0  0  0  0  0
   -0.2900   11.0460   -3.0940 C   0  0  0  0  0  0  0  0  0  0  0  0
   -0.0730   10.6010   -1.8420 C   0  0  0  0  0  0  0  0  0  0  0  0
    1.1890   11.0070   -1.0700 C   0  0  1  0  0  0  0  0  0  0  0  0
    1.8180    9.7520   -0.4100 C   0  0  0  0  0  0  0  0  0  0  0  0
    0.8230    8.9880    0.4590 C   0  0  0  0  0  0  0  0  0  0  0  0
   -0.3900    8.5510   -0.3570 C   0  0  2  0  0  0  0  0  0  0  0  0
    0.0280    7.5800   -1.3220 O   0  0  0  0  0  0  0  0  0  0  0  0
   -1.1010    9.7310   -1.0780 C   0  0  0  0  0  0  0  0  0  0  0  0
   -1.8140   10.6250   -0.0340 C   0  0  0  0  0  0  0  0  0  0  0  0
   -2.2190    9.1380   -1.9770 C   0  0  0  0  0  0  0  0  0  0  0  0
    2.2520   11.8660   -1.8810 C   0  0  1  0  0  0  0  0  0  0  0  0
    3.2200   10.9220   -2.6580 C   0  0  0  0  0  0  0  0  0  0  0  0
    3.1420   12.6760   -0.8660 C   0  0  0  0  0  0  0  0  0  0  0  0
    2.6180   14.0590   -0.4320 C   0  0  0  0  0  0  0  0  0  0  0  0
    2.2070   14.8950   -1.6480 C   0  0  2  0  0  0  0  0  0  0  0  0
    3.4880   15.1360   -2.5180 C   0  0  0  0  0  0  0  0  0  0  0  0
    4.0991   16.7976    0.3630 H   0  0  0  0  0  0  0  0  0  0  0  0
    3.9918   15.8783   -1.1765 H   0  0  0  0  0  0  0  0  0  0  0  0
    4.6248   17.5594   -1.1765 H   0  0  0  0  0  0  0  0  0  0  0  0
    2.5324   18.1602   -1.7360 H   0  0  0  0  0  0  0  0  0  0  0  0
    1.1883   17.4315    0.7924 H   0  0  0  0  0  0  0  0  0  0  0  0
    2.7770   18.3177    0.9777 H   0  0  0  0  0  0  0  0  0  0  0  0
    1.7471   20.2342    0.5921 H   0  0  0  0  0  0  0  0  0  0  0  0
    1.2888   19.6251   -1.0529 H   0  0  0  0  0  0  0  0  0  0  0  0
    0.0177   19.9305    1.3746 H   0  0  0  0  0  0  0  0  0  0  0  0
   -0.2139   20.3897   -2.1657 H   0  0  0  0  0  0  0  0  0  0  0  0
   -0.9232   18.7717   -2.4910 H   0  0  0  0  0  0  0  0  0  0  0  0
   -1.9732   20.2291   -2.4910 H   0  0  0  0  0  0  0  0  0  0  0  0
   -2.6765   20.0234    1.0490 H   0  0  0  0  0  0  0  0  0  0  0  0
   -2.8853   21.0447   -0.4139 H   0  0  0  0  0  0  0  0  0  0  0  0
   -3.4686   19.3458   -0.4139 H   0  0  0  0  0  0  0  0  0  0  0  0
    0.9230   16.2065   -0.4597 H   0  0  0  0  0  0  0  0  0  0  0  0
   -0.1990   16.9911   -2.4495 H   0  0  0  0  0  0  0  0  0  0  0  0
    1.3374   17.3173   -3.2803 H   0  0  0  0  0  0  0  0  0  0  0  0
   -0.3801   15.0879   -3.7793 H   0  0  0  0  0  0  0  0  0  0  0  0
    1.2902   15.1898   -4.3294 H   0  0  0  0  0  0  0  0  0  0  0  0
    0.0085   13.9923   -0.4651 H   0  0  0  0  0  0  0  0  0  0  0  0
   -0.9766   14.7456   -1.7647 H   0  0  0  0  0  0  0  0  0  0  0  0
   -0.6955   12.9714   -1.7647 H   0  0  0  0  0  0  0  0  0  0  0  0
    2.3657   13.1313   -3.6450 H   0  0  0  0  0  0  0  0  0  0  0  0
   -0.0886   12.7459   -4.3278 H   0  0  0  0  0  0  0  0  0  0  0  0
    1.1754   11.4224   -4.5282 H   0  0  0  0  0  0  0  0  0  0  0  0
   -1.1761   10.6598   -3.6190 H   0  0  0  0  0  0  0  0  0  0  0  0
    0.8565   11.7113   -0.2932 H   0  0  0  0  0  0  0  0  0  0  0  0
    2.1817    9.0815   -1.2025 H   0  0  0  0  0  0  0  0  0  0  0  0
    2.6377   10.0916    0.2402 H   0  0  0  0  0  0  0  0  0  0  0  0
    1.3173    8.0974    0.8743 H   0  0  0  0  0  0  0  0  0  0  0  0
    0.4819    9.6508    1.2679 H   0  0  0  0  0  0  0  0  0  0  0  0
   -1.1223    8.1244    0.3443 H   0  0  0  0  0  0  0  0  0  0  0  0
    0.7950    7.9460   -1.7940 H   0  0  0  0  0  0  0  0  0  0  0  0
   -1.5468   10.2900    0.9791 H   0  0  0  0  0  0  0  0  0  0  0  0
   -1.4987   11.6701   -0.1697 H   0  0  0  0  0  0  0  0  0  0  0  0
   -2.9030   10.5500   -0.1697 H   0  0  0  0  0  0  0  0  0  0  0  0
   -3.0137    8.7165   -1.3439 H   0  0  0  0  0  0  0  0  0  0  0  0
   -2.6386    9.9321   -2.6121 H   0  0  0  0  0  0  0  0  0  0  0  0
   -1.7969    8.3452   -2.6121 H   0  0  0  0  0  0  0  0  0  0  0  0
    3.8175   10.3393   -1.9415 H   0  0  0  0  0  0  0  0  0  0  0  0
    2.6356   10.2374   -3.2903 H   0  0  0  0  0  0  0  0  0  0  0  0
    3.8897   11.5234   -3.2903 H   0  0  0  0  0  0  0  0  0  0  0  0
    3.2543   12.0632    0.0406 H   0  0  0  0  0  0  0  0  0  0  0  0
    4.0796   12.8794   -1.4041 H   0  0  0  0  0  0  0  0  0  0  0  0
    1.7451   13.9237    0.2235 H   0  0  0  0  0  0  0  0  0  0  0  0
    3.4217   14.5873    0.1018 H   0  0  0  0  0  0  0  0  0  0  0  0
    4.3535   15.2988   -1.8590 H   0  0  0  0  0  0  0  0  0  0  0  0
    3.6709   14.2565   -3.1529 H   0  0  0  0  0  0  0  0  0  0  0  0
    3.3388   16.0218   -3.1529 H   0  0  0  0  0  0  0  0  0  0  0  0
  1  2  1  0
  2  3  1  0
  3  4  1  0
  4  5  1  0
  5  6  1  0
  6  7  1  0
  7  8  1  0
  7  9  1  0
  2 10  1  0
 10 11  1  0
 11 12  1  0
 12 13  1  0
 13 14  1  1
 13 15  1  0
 15 16  1  0
 16 17  1  0
 17 18  2  0
 18 19  1  0
 19 20  1  0
 20 21  1  0
 21 22  1  0
 22 23  1  0
 22 24  1  0
 24 25  1  0
 24 26  1  0
 19 27  1  0
 27 28  1  6
 27 29  1  0
 29 30  1  0
 30 31  1  0
 31 32  1  6
  7  5  1  0
 31 10  1  0
 31 13  1  0
 27 15  1  0
 24 18  1  0
  1 33  1  0
  1 34  1  0
  1 35  1  0
  2 36  1  6
  3 37  1  0
  3 38  1  0
  4 39  1  0
  4 40  1  0
  5 41  1  1
  8 42  1  0
  8 43  1  0
  8 44  1  0
  9 45  1  0
  9 46  1  0
  9 47  1  0
 10 48  1  1
 11 49  1  0
 11 50  1  0
 12 51  1  0
 12 52  1  0
 14 53  1  0
 14 54  1  0
 14 55  1  0
 15 56  1  6
 16 57  1  0
 16 58  1  0
 17 59  1  0
 19 60  1  1
 20 61  1  0
 20 62  1  0
 21 63  1  0
 21 64  1  0
 22 65  1  1
 23 66  1  0
 25 67  1  0
 25 68  1  0
 25 69  1  0
 26 70  1  0
 26 71  1  0
 26 72  1  0
 28 73  1  0
 28 74  1  0
 28 75  1  0
 29 76  1  0
 29 77  1  0
 30 78  1  0
 30 79  1  0
 32 80  1  0
 32 81  1  0
 32 82  1  0
M  END
>  <meeko>  (6) 
{"is_sidechain": [false], "intermolecular_energy": 2.731, "internal_energy": -0.839}

$$$$
EPH_relaxed_0001_pdb2pqr_Repair_150_r2_0001_out
     RDKit          3D

 82 86  0  0  0  0  0  0  0  0999 V2000
   -0.6320    7.8550   -0.6040 C   0  0  0  0  0  0  0  0  0  0  0  0
   -1.0530    9.2180   -0.0470 C   0  0  2  0  0  0  0  0  0  0  0  0
   -2.3140    9.7660   -0.7450 C   0  0  0  0  0  0  0  0  0  0  0  0
   -3.6240    9.2920   -0.1090 C   0  0  0  0  0  0  0  0  0  0  0  0
   -4.0110    7.9260   -0.5900 C   0  0  2  0  0  0  0  0  0  0  0  0
   -4.0940    7.7950   -2.0150 O   0  0  0  0  0  0  0  0  0  0  0  0
   -5.3230    7.6260   -1.2900 C   0  0  0  0  0  0  0  0  0  0  0  0
   -6.3330    8.7000   -1.5480 C   0  0  0  0  0  0  0  0  0  0  0  0
   -5.8320    6.2190   -1.2850 C   0  0  0  0  0  0  0  0  0  0  0  0
    0.0940   10.2120   -0.1870 C   0  0  1  0  0  0  0  0  0  0  0  0
    1.4830    9.5220   -0.2150 C   0  0  0  0  0  0  0  0  0  0  0  0
    2.3740   10.3480   -1.1770 C   0  0  0  0  0  0  0  0  0  0  0  0
    1.5860   11.6590   -1.4100 C   0  0  1  0  0  0  0  0  0  0  0  0
    1.8980   12.5420   -0.1610 C   0  0  0  0  0  0  0  0  0  0  0  0
    1.8860   12.4180   -2.7430 C   0  0  2  0  0  0  0  0  0  0  0  0
    3.3320   12.9210   -2.8970 C   0  0  0  0  0  0  0  0  0  0  0  0
    3.5860   14.2990   -2.3820 C   0  0  0  0  0  0  0  0  0  0  0  0
    2.6400   15.2080   -2.0810 C   0  0  0  0  0  0  0  0  0  0  0  0
    1.1570   14.9180   -2.3440 C   0  0  1  0  0  0  0  0  0  0  0  0
    0.5040   16.1430   -3.0370 C   0  0  0  0  0  0  0  0  0  0  0  0
    0.7170   17.4370   -2.2580 C   0  0  0  0  0  0  0  0  0  0  0  0
    2.2040   17.7220   -2.0670 C   0  0  2  0  0  0  0  0  0  0  0  0
    2.7870   18.0000   -3.3440 O   0  0  0  0  0  0  0  0  0  0  0  0
    2.9690   16.5530   -1.3870 C   0  0  0  0  0  0  0  0  0  0  0  0
    2.5450   16.4480    0.0990 C   0  0  0  0  0  0  0  0  0  0  0  0
    4.4800   16.9090   -1.3830 C   0  0  0  0  0  0  0  0  0  0  0  0
    0.8400   13.5530   -3.0930 C   0  0  1  0  0  0  0  0  0  0  0  0
    0.9100   13.7630   -4.6360 C   0  0  0  0  0  0  0  0  0  0  0  0
   -0.6400   13.1210   -2.7710 C   0  0  0  0  0  0  0  0  0  0  0  0
   -0.8560   12.2710   -1.5040 C   0  0  0  0  0  0  0  0  0  0  0  0
    0.1210   11.0920   -1.4620 C   0  0  2  0  0  0  0  0  0  0  0  0
   -0.1840   10.1740   -2.6940 C   0  0  0  0  0  0  0  0  0  0  0  0
   -0.4199    7.1683    0.2287 H   0  0  0  0  0  0  0  0  0  0  0  0
   -1.4450    7.4438   -1.2204 H   0  0  0  0  0  0  0  0  0  0  0  0
    0.2713    7.9739   -1.2204 H   0  0  0  0  0  0  0  0  0  0  0  0
   -1.2984    9.0804    1.0164 H   0  0  0  0  0  0  0  0  0  0  0  0
   -2.2848   10.8648   -0.7025 H   0  0  0  0  0  0  0  0  0  0  0  0
   -2.3014    9.3858   -1.7771 H   0  0  0  0  0  0  0  0  0  0  0  0
   -3.5000    9.2634    0.9836 H   0  0  0  0  0  0  0  0  0  0  0  0
   -4.4193    9.9952   -0.3970 H   0  0  0  0  0  0  0  0  0  0  0  0
   -3.5085    7.4556    0.2680 H   0  0  0  0  0  0  0  0  0  0  0  0
   -6.7029    9.0933   -0.5896 H   0  0  0  0  0  0  0  0  0  0  0  0
   -5.8649    9.5133   -2.1220 H   0  0  0  0  0  0  0  0  0  0  0  0
   -7.1735    8.2827   -2.1220 H   0  0  0  0  0  0  0  0  0  0  0  0
   -5.9556    5.8775   -0.2467 H   0  0  0  0  0  0  0  0  0  0  0  0
   -6.8019    6.1781   -1.8023 H   0  0  0  0  0  0  0  0  0  0  0  0
   -5.1127    5.5670   -1.8023 H   0  0  0  0  0  0  0  0  0  0  0  0
   -0.0955   10.8371    0.6981 H   0  0  0  0  0  0  0  0  0  0  0  0
    1.9218    9.5130    0.7937 H   0  0  0  0  0  0  0  0  0  0  0  0
    1.3987    8.4787   -0.5531 H   0  0  0  0  0  0  0  0  0  0  0  0
    3.3508   10.5586   -0.7171 H   0  0  0  0  0  0  0  0  0  0  0  0
    2.5814    9.8135   -2.1158 H   0  0  0  0  0  0  0  0  0  0  0  0
    1.6948   11.9670    0.7545 H   0  0  0  0  0  0  0  0  0  0  0  0
    2.9563   12.8414   -0.1787 H   0  0  0  0  0  0  0  0  0  0  0  0
    1.2627   13.4398   -0.1787 H   0  0  0  0  0  0  0  0  0  0  0  0
    1.7628   11.6263   -3.4967 H   0  0  0  0  0  0  0  0  0  0  0  0
    3.9924   12.2284   -2.3547 H   0  0  0  0  0  0  0  0  0  0  0  0
    3.5272   12.9596   -3.9789 H   0  0  0  0  0  0  0  0  0  0  0  0
    4.6349   14.5967   -2.2362 H   0  0  0  0  0  0  0  0  0  0  0  0
    0.6987   14.7599   -1.3566 H   0  0  0  0  0  0  0  0  0  0  0  0
    0.9440   16.2577   -4.0386 H   0  0  0  0  0  0  0  0  0  0  0  0
   -0.5792   15.9591   -3.0898 H   0  0  0  0  0  0  0  0  0  0  0  0
    0.2594   18.2699   -2.8120 H   0  0  0  0  0  0  0  0  0  0  0  0
    0.2506   17.3306   -1.2675 H   0  0  0  0  0  0  0  0  0  0  0  0
    2.2907   18.5873   -1.3934 H   0  0  0  0  0  0  0  0  0  0  0  0
    2.0760   17.9700   -4.0050 H   0  0  0  0  0  0  0  0  0  0  0  0
    3.4104   16.6623    0.7433 H   0  0  0  0  0  0  0  0  0  0  0  0
    1.7458   17.1754    0.3045 H   0  0  0  0  0  0  0  0  0  0  0  0
    2.1776   15.4317    0.3045 H   0  0  0  0  0  0  0  0  0  0  0  0
    4.8343   16.9925   -0.3450 H   0  0  0  0  0  0  0  0  0  0  0  0
    5.0442   16.1192   -1.9006 H   0  0  0  0  0  0  0  0  0  0  0  0
    4.6322   17.8676   -1.9006 H   0  0  0  0  0  0  0  0  0  0  0  0
    1.2511   14.7863   -4.8517 H   0  0  0  0  0  0  0  0  0  0  0  0
    1.6162   13.0414   -5.0726 H   0  0  0  0  0  0  0  0  0  0  0  0
   -0.0879   13.6095   -5.0726 H   0  0  0  0  0  0  0  0  0  0  0  0
   -1.2381   14.0378   -2.6625 H   0  0  0  0  0  0  0  0  0  0  0  0
   -0.9386   12.4718   -3.6073 H   0  0  0  0  0  0  0  0  0  0  0  0
   -0.6978   12.9013   -0.6165 H   0  0  0  0  0  0  0  0  0  0  0  0
   -1.8825   11.8758   -1.5174 H   0  0  0  0  0  0  0  0  0  0  0  0
   -0.5126    9.1850   -2.3419 H   0  0  0  0  0  0  0  0  0  0  0  0
   -0.9791   10.6293   -3.3026 H   0  0  0  0  0  0  0  0  0  0  0  0
    0.7255   10.0630   -3.3026 H   0  0  0  0  0  0  0  0  0  0  0  0
  1  2  1  0
  2  3  1  0
  3  4  1  0
  4  5  1  0
  5  6  1  0
  6  7  1  0
  7  8  1  0
  7  9  1  0
  2 10  1  0
 10 11  1  0
 11 12  1  0
 12 13  1  0
 13 14  1  1
 13 15  1  0
 15 16  1  0
 16 17  1  0
 17 18  2  0
 18 19  1  0
 19 20  1  0
 20 21  1  0
 21 22  1  0
 22 23  1  0
 22 24  1  0
 24 25  1  0
 24 26  1  0
 19 27  1  0
 27 28  1  6
 27 29  1  0
 29 30  1  0
 30 31  1  0
 31 32  1  6
  7  5  1  0
 31 10  1  0
 31 13  1  0
 27 15  1  0
 24 18  1  0
  1 33  1  0
  1 34  1  0
  1 35  1  0
  2 36  1  1
  3 37  1  0
  3 38  1  0
  4 39  1  0
  4 40  1  0
  5 41  1  1
  8 42  1  0
  8 43  1  0
  8 44  1  0
  9 45  1  0
  9 46  1  0
  9 47  1  0
 10 48  1  1
 11 49  1  0
 11 50  1  0
 12 51  1  0
 12 52  1  0
 14 53  1  0
 14 54  1  0
 14 55  1  0
 15 56  1  6
 16 57  1  0
 16 58  1  0
 17 59  1  0
 19 60  1  1
 20 61  1  0
 20 62  1  0
 21 63  1  0
 21 64  1  0
 22 65  1  1
 23 66  1  0
 25 67  1  0
 25 68  1  0
 25 69  1  0
 26 70  1  0
 26 71  1  0
 26 72  1  0
 28 73  1  0
 28 74  1  0
 28 75  1  0
 29 76  1  0
 29 77  1  0
 30 78  1  0
 30 79  1  0
 32 80  1  0
 32 81  1  0
 32 82  1  0
M  END
>  <meeko>  (7) 
{"is_sidechain": [false], "intermolecular_energy": 2.731, "internal_energy": -0.839}

$$$$
EPH_relaxed_0001_pdb2pqr_Repair_150_r2_0001_out
     RDKit          3D

 82 86  0  0  0  0  0  0  0  0999 V2000
    3.6680   17.9510   -1.3930 C   0  0  0  0  0  0  0  0  0  0  0  0
    2.6060   17.4820   -2.3910 C   0  0  2  0  0  0  0  0  0  0  0  0
    1.1940   17.9680   -2.0080 C   0  0  0  0  0  0  0  0  0  0  0  0
    1.1720   18.8980   -0.7910 C   0  0  0  0  0  0  0  0  0  0  0  0
   -0.0790   19.7210   -0.7460 C   0  0  2  0  0  0  0  0  0  0  0  0
   -0.4380   20.1940    0.5590 O   0  0  0  0  0  0  0  0  0  0  0  0
   -1.3520   19.2710   -0.0530 C   0  0  0  0  0  0  0  0  0  0  0  0
   -1.4380   17.9480    0.6400 C   0  0  0  0  0  0  0  0  0  0  0  0
   -2.6500   19.8930   -0.4670 C   0  0  0  0  0  0  0  0  0  0  0  0
    2.6240   15.9610   -2.4920 C   0  0  1  0  0  0  0  0  0  0  0  0
    4.0550   15.3920   -2.6810 C   0  0  0  0  0  0  0  0  0  0  0  0
    4.1030   14.0410   -1.9220 C   0  0  0  0  0  0  0  0  0  0  0  0
    2.6240   13.7190   -1.6050 C   0  0  1  0  0  0  0  0  0  0  0  0
    2.0570   13.1020   -2.9220 C   0  0  0  0  0  0  0  0  0  0  0  0
    2.3680   12.7890   -0.3750 C   0  0  2  0  0  0  0  0  0  0  0  0
    2.9520   11.3700   -0.4960 C   0  0  0  0  0  0  0  0  0  0  0  0
    2.0400   10.3540   -1.0990 C   0  0  0  0  0  0  0  0  0  0  0  0
    0.7110   10.4960   -1.2640 C   0  0  0  0  0  0  0  0  0  0  0  0
   -0.0200   11.7370   -0.7350 C   0  0  1  0  0  0  0  0  0  0  0  0
   -1.3060   11.2990    0.0140 C   0  0  0  0  0  0  0  0  0  0  0  0
   -2.2060   10.4100   -0.8390 C   0  0  0  0  0  0  0  0  0  0  0  0
   -1.4610    9.1590   -1.2970 C   0  0  2  0  0  0  0  0  0  0  0  0
   -1.1760    8.3480   -0.1540 O   0  0  0  0  0  0  0  0  0  0  0  0
   -0.1420    9.4750   -2.0560 C   0  0  0  0  0  0  0  0  0  0  0  0
   -0.4720   10.0880   -3.4400 C   0  0  0  0  0  0  0  0  0  0  0  0
    0.5810    8.1310   -2.3380 C   0  0  0  0  0  0  0  0  0  0  0  0
    0.8620   12.7540    0.1090 C   0  0  1  0  0  0  0  0  0  0  0  0
    0.8850   12.3220    1.6070 C   0  0  0  0  0  0  0  0  0  0  0  0
    0.1870   14.1760    0.0680 C   0  0  0  0  0  0  0  0  0  0  0  0
    0.5720   15.0940   -1.1080 C   0  0  0  0  0  0  0  0  0  0  0  0
    2.0930   15.1610   -1.2760 C   0  0  2  0  0  0  0  0  0  0  0  0
    2.6900   15.7990    0.0250 C   0  0  0  0  0  0  0  0  0  0  0  0
    3.3039   17.7902   -0.3675 H   0  0  0  0  0  0  0  0  0  0  0  0
    4.5944   17.3783   -1.5472 H   0  0  0  0  0  0  0  0  0  0  0  0
    3.8687   19.0215   -1.5472 H   0  0  0  0  0  0  0  0  0  0  0  0
    2.8525   17.9227   -3.3682 H   0  0  0  0  0  0  0  0  0  0  0  0
    0.7682   18.5088   -2.8661 H   0  0  0  0  0  0  0  0  0  0  0  0
    0.6082   17.0759   -1.7415 H   0  0  0  0  0  0  0  0  0  0  0  0
    1.2319   18.2899    0.1237 H   0  0  0  0  0  0  0  0  0  0  0  0
    2.0303   19.5819   -0.8661 H   0  0  0  0  0  0  0  0  0  0  0  0
    0.1131   20.1110   -1.7564 H   0  0  0  0  0  0  0  0  0  0  0  0
   -1.4279   18.1031    1.7290 H   0  0  0  0  0  0  0  0  0  0  0  0
   -2.3709   17.4423    0.3503 H   0  0  0  0  0  0  0  0  0  0  0  0
   -0.5784   17.3258    0.3503 H   0  0  0  0  0  0  0  0  0  0  0  0
   -3.2263   20.1692    0.4283 H   0  0  0  0  0  0  0  0  0  0  0  0
   -2.4504   20.7933   -1.0667 H   0  0  0  0  0  0  0  0  0  0  0  0
   -3.2266   19.1734   -1.0667 H   0  0  0  0  0  0  0  0  0  0  0  0
    1.9534   15.8256   -3.3533 H   0  0  0  0  0  0  0  0  0  0  0  0
    4.2616   15.2336   -3.7498 H   0  0  0  0  0  0  0  0  0  0  0  0
    4.8119   16.0898   -2.2935 H   0  0  0  0  0  0  0  0  0  0  0  0
    4.5445   13.2561   -2.5537 H   0  0  0  0  0  0  0  0  0  0  0  0
    4.7222   14.0942   -1.0144 H   0  0  0  0  0  0  0  0  0  0  0  0
    1.3318   12.3128   -2.6746 H   0  0  0  0  0  0  0  0  0  0  0  0
    1.5585   13.8869   -3.5097 H   0  0  0  0  0  0  0  0  0  0  0  0
    2.8812   12.6715   -3.5097 H   0  0  0  0  0  0  0  0  0  0  0  0
    2.9473   13.2839    0.4184 H   0  0  0  0  0  0  0  0  0  0  0  0
    3.8567   11.4269   -1.1191 H   0  0  0  0  0  0  0  0  0  0  0  0
    3.1458   11.0322    0.5328 H   0  0  0  0  0  0  0  0  0  0  0  0
    2.4914    9.4096   -1.4371 H   0  0  0  0  0  0  0  0  0  0  0  0
   -0.2878   12.3333   -1.6197 H   0  0  0  0  0  0  0  0  0  0  0  0
   -1.0157   10.7431    0.9177 H   0  0  0  0  0  0  0  0  0  0  0  0
   -1.8735   12.2079    0.2626 H   0  0  0  0  0  0  0  0  0  0  0  0
   -3.0824   10.1101   -0.2457 H   0  0  0  0  0  0  0  0  0  0  0  0
   -2.5191   10.9773   -1.7279 H   0  0  0  0  0  0  0  0  0  0  0  0
   -2.1121    8.6288   -2.0076 H   0  0  0  0  0  0  0  0  0  0  0  0
   -0.3110    7.9280   -0.3000 H   0  0  0  0  0  0  0  0  0  0  0  0
   -0.9893   11.0489   -3.3015 H   0  0  0  0  0  0  0  0  0  0  0  0
    0.4603   10.2509   -4.0006 H   0  0  0  0  0  0  0  0  0  0  0  0
   -1.1214    9.3995   -4.0006 H   0  0  0  0  0  0  0  0  0  0  0  0
    0.8411    7.6475   -1.3848 H   0  0  0  0  0  0  0  0  0  0  0  0
   -0.0838    7.4709   -2.9145 H   0  0  0  0  0  0  0  0  0  0  0  0
    1.4981    8.3219   -2.9145 H   0  0  0  0  0  0  0  0  0  0  0  0
    0.8374   13.2154    2.2470 H   0  0  0  0  0  0  0  0  0  0  0  0
    0.0200   11.6752    1.8154 H   0  0  0  0  0  0  0  0  0  0  0  0
    1.8138   11.7707    1.8154 H   0  0  0  0  0  0  0  0  0  0  0  0
   -0.9021   14.0264    0.0307 H   0  0  0  0  0  0  0  0  0  0  0  0
    0.5507   14.6933    0.9681 H   0  0  0  0  0  0  0  0  0  0  0  0
    0.1248   14.7007   -2.0329 H   0  0  0  0  0  0  0  0  0  0  0  0
    0.1972   16.1069   -0.8995 H   0  0  0  0  0  0  0  0  0  0  0  0
    2.2414   15.3196    0.9076 H   0  0  0  0  0  0  0  0  0  0  0  0
    3.7796   15.6489    0.0403 H   0  0  0  0  0  0  0  0  0  0  0  0
    2.4680   16.8763    0.0403 H   0  0  0  0  0  0  0  0  0  0  0  0
  1  2  1  0
  2  3  1  0
  3  4  1  0
  4  5  1  0
  5  6  1  0
  6  7  1  0
  7  8  1  0
  7  9  1  0
  2 10  1  0
 10 11  1  0
 11 12  1  0
 12 13  1  0
 13 14  1  6
 13 15  1  0
 15 16  1  0
 16 17  1  0
 17 18  2  0
 18 19  1  0
 19 20  1  0
 20 21  1  0
 21 22  1  0
 22 23  1  0
 22 24  1  0
 24 25  1  0
 24 26  1  0
 19 27  1  0
 27 28  1  1
 27 29  1  0
 29 30  1  0
 30 31  1  0
 31 32  1  1
  7  5  1  0
 31 10  1  0
 31 13  1  0
 27 15  1  0
 24 18  1  0
  1 33  1  0
  1 34  1  0
  1 35  1  0
  2 36  1  6
  3 37  1  0
  3 38  1  0
  4 39  1  0
  4 40  1  0
  5 41  1  6
  8 42  1  0
  8 43  1  0
  8 44  1  0
  9 45  1  0
  9 46  1  0
  9 47  1  0
 10 48  1  6
 11 49  1  0
 11 50  1  0
 12 51  1  0
 12 52  1  0
 14 53  1  0
 14 54  1  0
 14 55  1  0
 15 56  1  1
 16 57  1  0
 16 58  1  0
 17 59  1  0
 19 60  1  6
 20 61  1  0
 20 62  1  0
 21 63  1  0
 21 64  1  0
 22 65  1  6
 23 66  1  0
 25 67  1  0
 25 68  1  0
 25 69  1  0
 26 70  1  0
 26 71  1  0
 26 72  1  0
 28 73  1  0
 28 74  1  0
 28 75  1  0
 29 76  1  0
 29 77  1  0
 30 78  1  0
 30 79  1  0
 32 80  1  0
 32 81  1  0
 32 82  1  0
M  END
>  <meeko>  (8) 
{"is_sidechain": [false], "intermolecular_energy": 2.731, "internal_energy": -0.839}

$$$$
EPH_relaxed_0001_pdb2pqr_Repair_150_r2_0001_out
     RDKit          3D

 82 86  0  0  0  0  0  0  0  0999 V2000
   -2.5690    7.6090   -3.0660 C   0  0  0  0  0  0  0  0  0  0  0  0
   -2.8740    7.8930   -1.5930 C   0  0  2  0  0  0  0  0  0  0  0  0
   -4.3870    7.8660   -1.2970 C   0  0  0  0  0  0  0  0  0  0  0  0
   -5.1100    6.6590   -1.9000 C   0  0  0  0  0  0  0  0  0  0  0  0
   -6.3110    7.0730   -2.6960 C   0  0  2  0  0  0  0  0  0  0  0  0
   -6.8770    8.3340   -2.3150 O   0  0  0  0  0  0  0  0  0  0  0  0
   -7.7070    7.1790   -2.1100 C   0  0  0  0  0  0  0  0  0  0  0  0
   -7.9750    6.8690   -0.6710 C   0  0  0  0  0  0  0  0  0  0  0  0
   -8.8800    7.1080   -3.0380 C   0  0  0  0  0  0  0  0  0  0  0  0
   -2.2900    9.2430   -1.1920 C   0  0  1  0  0  0  0  0  0  0  0  0
   -2.8080    9.7330    0.1860 C   0  0  0  0  0  0  0  0  0  0  0  0
   -1.6350   10.4910    0.8610 C   0  0  0  0  0  0  0  0  0  0  0  0
   -0.6030   10.6990   -0.2720 C   0  0  1  0  0  0  0  0  0  0  0  0
   -1.1180   11.9430   -1.0610 C   0  0  0  0  0  0  0  0  0  0  0  0
    0.8860   10.8750    0.1740 C   0  0  2  0  0  0  0  0  0  0  0  0
    1.1640   12.1100    1.0480 C   0  0  0  0  0  0  0  0  0  0  0  0
    1.5350   13.3490    0.3030 C   0  0  0  0  0  0  0  0  0  0  0  0
    1.9180   13.4000   -0.9870 C   0  0  0  0  0  0  0  0  0  0  0  0
    2.1030   12.1160   -1.8050 C   0  0  1  0  0  0  0  0  0  0  0  0
    3.4420   12.1870   -2.5850 C   0  0  0  0  0  0  0  0  0  0  0  0
    3.5550   13.4460   -3.4400 C   0  0  0  0  0  0  0  0  0  0  0  0
    3.4250   14.7020   -2.5820 C   0  0  2  0  0  0  0  0  0  0  0  0
    4.5570   14.7850   -1.7120 O   0  0  0  0  0  0  0  0  0  0  0  0
    2.1170   14.7370   -1.7430 C   0  0  0  0  0  0  0  0  0  0  0  0
    0.9030   14.9510   -2.6800 C   0  0  0  0  0  0  0  0  0  0  0  0
    2.1760   15.9830   -0.8190 C   0  0  0  0  0  0  0  0  0  0  0  0
    1.9340   10.7540   -1.0050 C   0  0  1  0  0  0  0  0  0  0  0  0
    3.2920   10.3470   -0.3540 C   0  0  0  0  0  0  0  0  0  0  0  0
    1.5660    9.6050   -2.0170 C   0  0  0  0  0  0  0  0  0  0  0  0
    0.0700    9.4040   -2.3250 C   0  0  0  0  0  0  0  0  0  0  0  0
   -0.7510    9.3320   -1.0340 C   0  0  2  0  0  0  0  0  0  0  0  0
   -0.2700    8.0770   -0.2300 C   0  0  0  0  0  0  0  0  0  0  0  0
   -1.7656    6.8609   -3.1365 H   0  0  0  0  0  0  0  0  0  0  0  0
   -3.4732    7.2237   -3.5600 H   0  0  0  0  0  0  0  0  0  0  0  0
   -2.2491    8.5383   -3.5600 H   0  0  0  0  0  0  0  0  0  0  0  0
   -2.4068    7.0937   -0.9990 H   0  0  0  0  0  0  0  0  0  0  0  0
   -4.5272    7.8456   -0.2062 H   0  0  0  0  0  0  0  0  0  0  0  0
   -4.8213    8.7649   -1.7590 H   0  0  0  0  0  0  0  0  0  0  0  0
   -4.4141    6.1194   -2.5592 H   0  0  0  0  0  0  0  0  0  0  0  0
   -5.4504    6.0158   -1.0751 H   0  0  0  0  0  0  0  0  0  0  0  0
   -5.9227    6.5639   -3.5905 H   0  0  0  0  0  0  0  0  0  0  0  0
   -7.3884    7.5476   -0.0343 H   0  0  0  0  0  0  0  0  0  0  0  0
   -9.0463    7.0031   -0.4604 H   0  0  0  0  0  0  0  0  0  0  0  0
   -7.6874    5.8284   -0.4604 H   0  0  0  0  0  0  0  0  0  0  0  0
   -9.8088    7.0518   -2.4513 H   0  0  0  0  0  0  0  0  0  0  0  0
   -8.9007    8.0065   -3.6722 H   0  0  0  0  0  0  0  0  0  0  0  0
   -8.7922    6.2135   -3.6722 H   0  0  0  0  0  0  0  0  0  0  0  0
   -2.6162    9.8480   -2.0508 H   0  0  0  0  0  0  0  0  0  0  0  0
   -3.6665   10.4072    0.0501 H   0  0  0  0  0  0  0  0  0  0  0  0
   -3.1411    8.8877    0.8062 H   0  0  0  0  0  0  0  0  0  0  0  0
   -1.9753   11.4584    1.2589 H   0  0  0  0  0  0  0  0  0  0  0  0
   -1.2142    9.9361    1.7125 H   0  0  0  0  0  0  0  0  0  0  0  0
   -1.4396   12.7198   -0.3516 H   0  0  0  0  0  0  0  0  0  0  0  0
   -0.3089   12.3366   -1.6938 H   0  0  0  0  0  0  0  0  0  0  0  0
   -1.9686   11.6495   -1.6938 H   0  0  0  0  0  0  0  0  0  0  0  0
    1.0401   10.0049    0.8291 H   0  0  0  0  0  0  0  0  0  0  0  0
    0.2569   12.3238    1.6324 H   0  0  0  0  0  0  0  0  0  0  0  0
    2.0371   11.8543    1.6664 H   0  0  0  0  0  0  0  0  0  0  0  0
    1.4920   14.3002    0.8539 H   0  0  0  0  0  0  0  0  0  0  0  0
    1.2610   12.0821   -2.5120 H   0  0  0  0  0  0  0  0  0  0  0  0
    4.2718   12.1754   -1.8629 H   0  0  0  0  0  0  0  0  0  0  0  0
    3.4813   11.3199   -3.2607 H   0  0  0  0  0  0  0  0  0  0  0  0
    4.5334   13.4531   -3.9426 H   0  0  0  0  0  0  0  0  0  0  0  0
    2.7419   13.4413   -4.1808 H   0  0  0  0  0  0  0  0  0  0  0  0
    3.3841   15.5647   -3.2633 H   0  0  0  0  0  0  0  0  0  0  0  0
    4.3480   14.2810   -0.9070 H   0  0  0  0  0  0  0  0  0  0  0  0
   -0.0025   15.1106   -2.0762 H   0  0  0  0  0  0  0  0  0  0  0  0
    1.0805   15.8317   -3.3147 H   0  0  0  0  0  0  0  0  0  0  0  0
    0.7686   14.0627   -3.3147 H   0  0  0  0  0  0  0  0  0  0  0  0
    2.1607   15.6607    0.2326 H   0  0  0  0  0  0  0  0  0  0  0  0
    3.1017   16.5431   -1.0174 H   0  0  0  0  0  0  0  0  0  0  0  0
    1.3074   16.6281   -1.0174 H   0  0  0  0  0  0  0  0  0  0  0  0
    3.1966   10.3756    0.7415 H   0  0  0  0  0  0  0  0  0  0  0  0
    3.5606    9.3289   -0.6722 H   0  0  0  0  0  0  0  0  0  0  0  0
    4.0763   11.0496   -0.6722 H   0  0  0  0  0  0  0  0  0  0  0  0
    2.0752    9.8228   -2.9674 H   0  0  0  0  0  0  0  0  0  0  0  0
    1.8864    8.6746   -1.5253 H   0  0  0  0  0  0  0  0  0  0  0  0
   -0.2887   10.2477   -2.9329 H   0  0  0  0  0  0  0  0  0  0  0  0
   -0.0514    8.4568   -2.8710 H   0  0  0  0  0  0  0  0  0  0  0  0
   -0.3479    8.2803    0.8482 H   0  0  0  0  0  0  0  0  0  0  0  0
   -0.9008    7.2132   -0.4868 H   0  0  0  0  0  0  0  0  0  0  0  0
    0.7765    7.8560   -0.4868 H   0  0  0  0  0  0  0  0  0  0  0  0
  1  2  1  0
  2  3  1  0
  3  4  1  0
  4  5  1  0
  5  6  1  0
  6  7  1  0
  7  8  1  0
  7  9  1  0
  2 10  1  0
 10 11  1  0
 11 12  1  0
 12 13  1  0
 13 14  1  6
 13 15  1  0
 15 16  1  0
 16 17  1  0
 17 18  2  0
 18 19  1  0
 19 20  1  0
 20 21  1  0
 21 22  1  0
 22 23  1  0
 22 24  1  0
 24 25  1  0
 24 26  1  0
 19 27  1  0
 27 28  1  1
 27 29  1  0
 29 30  1  0
 30 31  1  0
 31 32  1  1
  7  5  1  0
 31 10  1  0
 31 13  1  0
 27 15  1  0
 24 18  1  0
  1 33  1  0
  1 34  1  0
  1 35  1  0
  2 36  1  1
  3 37  1  0
  3 38  1  0
  4 39  1  0
  4 40  1  0
  5 41  1  6
  8 42  1  0
  8 43  1  0
  8 44  1  0
  9 45  1  0
  9 46  1  0
  9 47  1  0
 10 48  1  6
 11 49  1  0
 11 50  1  0
 12 51  1  0
 12 52  1  0
 14 53  1  0
 14 54  1  0
 14 55  1  0
 15 56  1  1
 16 57  1  0
 16 58  1  0
 17 59  1  0
 19 60  1  6
 20 61  1  0
 20 62  1  0
 21 63  1  0
 21 64  1  0
 22 65  1  6
 23 66  1  0
 25 67  1  0
 25 68  1  0
 25 69  1  0
 26 70  1  0
 26 71  1  0
 26 72  1  0
 28 73  1  0
 28 74  1  0
 28 75  1  0
 29 76  1  0
 29 77  1  0
 30 78  1  0
 30 79  1  0
 32 80  1  0
 32 81  1  0
 32 82  1  0
M  END
>  <meeko>  (9) 
{"is_sidechain": [false], "intermolecular_energy": 2.731, "internal_energy": -0.839}

$$$$
EPH_relaxed_0001_pdb2pqr_Repair_150_r2_0001_out
     RDKit          3D

 82 86  0  0  0  0  0  0  0  0999 V2000
    4.3320   17.6120   -2.6280 C   0  0  0  0  0  0  0  0  0  0  0  0
    2.9590   17.1250   -2.1570 C   0  0  2  0  0  0  0  0  0  0  0  0
    2.6750   17.5170   -0.6920 C   0  0  0  0  0  0  0  0  0  0  0  0
    3.8610   18.1870    0.0060 C   0  0  0  0  0  0  0  0  0  0  0  0
    3.4560   18.8160    1.3050 C   0  0  2  0  0  0  0  0  0  0  0  0
    3.8260   20.1940    1.4430 O   0  0  0  0  0  0  0  0  0  0  0  0
    4.4480   19.2760    2.3560 C   0  0  0  0  0  0  0  0  0  0  0  0
    5.9240   19.1260    2.1560 C   0  0  0  0  0  0  0  0  0  0  0  0
    3.9770   19.4200    3.7700 C   0  0  0  0  0  0  0  0  0  0  0  0
    2.8590   15.6130   -2.3200 C   0  0  1  0  0  0  0  0  0  0  0  0
    4.2370   14.9480   -2.5760 C   0  0  0  0  0  0  0  0  0  0  0  0
    4.2040   13.5660   -1.8750 C   0  0  0  0  0  0  0  0  0  0  0  0
    2.7140   13.3410   -1.5260 C   0  0  1  0  0  0  0  0  0  0  0  0
    2.0670   12.8250   -2.8490 C   0  0  0  0  0  0  0  0  0  0  0  0
    2.4220   12.3800   -0.3280 C   0  0  2  0  0  0  0  0  0  0  0  0
    2.8940   10.9290   -0.5250 C   0  0  0  0  0  0  0  0  0  0  0  0
    1.8920   10.0100   -1.1410 C   0  0  0  0  0  0  0  0  0  0  0  0
    0.5740   10.2570   -1.2600 C   0  0  0  0  0  0  0  0  0  0  0  0
   -0.0470   11.5240   -0.6580 C   0  0  1  0  0  0  0  0  0  0  0  0
   -1.3420   11.1510    0.1110 C   0  0  0  0  0  0  0  0  0  0  0  0
   -2.3290   10.3690   -0.7500 C   0  0  0  0  0  0  0  0  0  0  0  0
   -1.6930    9.0880   -1.2820 C   0  0  2  0  0  0  0  0  0  0  0  0
   -1.4390    8.2090   -0.1810 O   0  0  0  0  0  0  0  0  0  0  0  0
   -0.3750    9.3380   -2.0670 C   0  0  0  0  0  0  0  0  0  0  0  0
   -0.6960   10.0320   -3.4140 C   0  0  0  0  0  0  0  0  0  0  0  0
    0.2360    7.9560   -2.4250 C   0  0  0  0  0  0  0  0  0  0  0  0
    0.9310   12.4360    0.2000 C   0  0  1  0  0  0  0  0  0  0  0  0
    0.9630   11.9390    1.6770 C   0  0  0  0  0  0  0  0  0  0  0  0
    0.3650   13.9050    0.2370 C   0  0  0  0  0  0  0  0  0  0  0  0
    0.7860   14.8410   -0.9120 C   0  0  0  0  0  0  0  0  0  0  0  0
    2.3030   14.8030   -1.1220 C   0  0  2  0  0  0  0  0  0  0  0  0
    2.9810   15.3380    0.1850 C   0  0  0  0  0  0  0  0  0  0  0  0
    4.9615   17.8353   -1.7540 H   0  0  0  0  0  0  0  0  0  0  0  0
    4.8107   16.8288   -3.2342 H   0  0  0  0  0  0  0  0  0  0  0  0
    4.2102   18.5218   -3.2342 H   0  0  0  0  0  0  0  0  0  0  0  0
    2.2008   17.6171   -2.7838 H   0  0  0  0  0  0  0  0  0  0  0  0
    1.8243   18.2142   -0.6776 H   0  0  0  0  0  0  0  0  0  0  0  0
    2.4637   16.5863   -0.1451 H   0  0  0  0  0  0  0  0  0  0  0  0
    4.6337   17.4292    0.2024 H   0  0  0  0  0  0  0  0  0  0  0  0
    4.2447   18.9790   -0.6539 H   0  0  0  0  0  0  0  0  0  0  0  0
    2.5623   18.1773    1.3634 H   0  0  0  0  0  0  0  0  0  0  0  0
    6.4234   19.0753    3.1348 H   0  0  0  0  0  0  0  0  0  0  0  0
    6.1258   18.2027    1.5931 H   0  0  0  0  0  0  0  0  0  0  0  0
    6.3074   19.9898    1.5931 H   0  0  0  0  0  0  0  0  0  0  0  0
    4.7982   19.1689    4.4574 H   0  0  0  0  0  0  0  0  0  0  0  0
    3.6560   20.4573    3.9457 H   0  0  0  0  0  0  0  0  0  0  0  0
    3.1308   18.7395    3.9457 H   0  0  0  0  0  0  0  0  0  0  0  0
    2.1561   15.5650   -3.1648 H   0  0  0  0  0  0  0  0  0  0  0  0
    4.4014   14.8209   -3.6562 H   0  0  0  0  0  0  0  0  0  0  0  0
    5.0548   15.5703   -2.1836 H   0  0  0  0  0  0  0  0  0  0  0  0
    4.5675   12.7786   -2.5516 H   0  0  0  0  0  0  0  0  0  0  0  0
    4.8502   13.5339   -0.9854 H   0  0  0  0  0  0  0  0  0  0  0  0
    1.2276   12.1555   -2.6099 H   0  0  0  0  0  0  0  0  0  0  0  0
    1.6987   13.6800   -3.4349 H   0  0  0  0  0  0  0  0  0  0  0  0
    2.8187   12.2757   -3.4349 H   0  0  0  0  0  0  0  0  0  0  0  0
    3.0581   12.7956    0.4674 H   0  0  0  0  0  0  0  0  0  0  0  0
    3.7829   10.9458   -1.1727 H   0  0  0  0  0  0  0  0  0  0  0  0
    3.0901   10.5336    0.4826 H   0  0  0  0  0  0  0  0  0  0  0  0
    2.2617    9.0500   -1.5306 H   0  0  0  0  0  0  0  0  0  0  0  0
   -0.2929   12.1757   -1.5094 H   0  0  0  0  0  0  0  0  0  0  0  0
   -1.0703   10.5367    0.9821 H   0  0  0  0  0  0  0  0  0  0  0  0
   -1.8323   12.0881    0.4135 H   0  0  0  0  0  0  0  0  0  0  0  0
   -3.2088   10.1089   -0.1431 H   0  0  0  0  0  0  0  0  0  0  0  0
   -2.6230   10.9961   -1.6046 H   0  0  0  0  0  0  0  0  0  0  0  0
   -2.4006    8.6388   -1.9944 H   0  0  0  0  0  0  0  0  0  0  0  0
   -2.2920    7.8410    0.1050 H   0  0  0  0  0  0  0  0  0  0  0  0
   -1.1506   11.0149   -3.2209 H   0  0  0  0  0  0  0  0  0  0  0  0
    0.2325   10.1640   -3.9889 H   0  0  0  0  0  0  0  0  0  0  0  0
   -1.3978    9.4100   -3.9889 H   0  0  0  0  0  0  0  0  0  0  0  0
    0.4769    7.4110   -1.5004 H   0  0  0  0  0  0  0  0  0  0  0  0
   -0.4895    7.3758   -3.0141 H   0  0  0  0  0  0  0  0  0  0  0  0
    1.1534    8.1022   -3.0141 H   0  0  0  0  0  0  0  0  0  0  0  0
    0.9074   12.8028    2.3558 H   0  0  0  0  0  0  0  0  0  0  0  0
    0.1058   11.2740    1.8588 H   0  0  0  0  0  0  0  0  0  0  0  0
    1.8984   11.3894    1.8588 H   0  0  0  0  0  0  0  0  0  0  0  0
   -0.7330   13.8389    0.2270 H   0  0  0  0  0  0  0  0  0  0  0  0
    0.7916   14.3549    1.1456 H   0  0  0  0  0  0  0  0  0  0  0  0
    0.2863   14.5211   -1.8383 H   0  0  0  0  0  0  0  0  0  0  0  0
    0.4934   15.8690   -0.6522 H   0  0  0  0  0  0  0  0  0  0  0  0
    2.4604   14.9272    1.0627 H   0  0  0  0  0  0  0  0  0  0  0  0
    4.0357   15.0261    0.2050 H   0  0  0  0  0  0  0  0  0  0  0  0
    2.9230   16.4363    0.2050 H   0  0  0  0  0  0  0  0  0  0  0  0
  1  2  1  0
  2  3  1  0
  3  4  1  0
  4  5  1  0
  5  6  1  0
  6  7  1  0
  7  8  1  0
  7  9  1  0
  2 10  1  0
 10 11  1  0
 11 12  1  0
 12 13  1  0
 13 14  1  6
 13 15  1  0
 15 16  1  0
 16 17  1  0
 17 18  2  0
 18 19  1  0
 19 20  1  0
 20 21  1  0
 21 22  1  0
 22 23  1  0
 22 24  1  0
 24 25  1  0
 24 26  1  0
 19 27  1  0
 27 28  1  1
 27 29  1  0
 29 30  1  0
 30 31  1  0
 31 32  1  1
  7  5  1  0
 31 10  1  0
 31 13  1  0
 27 15  1  0
 24 18  1  0
  1 33  1  0
  1 34  1  0
  1 35  1  0
  2 36  1  6
  3 37  1  0
  3 38  1  0
  4 39  1  0
  4 40  1  0
  5 41  1  1
  8 42  1  0
  8 43  1  0
  8 44  1  0
  9 45  1  0
  9 46  1  0
  9 47  1  0
 10 48  1  6
 11 49  1  0
 11 50  1  0
 12 51  1  0
 12 52  1  0
 14 53  1  0
 14 54  1  0
 14 55  1  0
 15 56  1  1
 16 57  1  0
 16 58  1  0
 17 59  1  0
 19 60  1  6
 20 61  1  0
 20 62  1  0
 21 63  1  0
 21 64  1  0
 22 65  1  6
 23 66  1  0
 25 67  1  0
 25 68  1  0
 25 69  1  0
 26 70  1  0
 26 71  1  0
 26 72  1  0
 28 73  1  0
 28 74  1  0
 28 75  1  0
 29 76  1  0
 29 77  1  0
 30 78  1  0
 30 79  1  0
 32 80  1  0
 32 81  1  0
 32 82  1  0
M  END
>  <meeko>  (10) 
{"is_sidechain": [false], "intermolecular_energy": 2.731, "internal_energy": -0.839}

$$$$
EPH_relaxed_0001_pdb2pqr_Repair_150_r2_0001_out
     RDKit          3D

 82 86  0  0  0  0  0  0  0  0999 V2000
    0.5660   17.7850   -0.1930 C   0  0  0  0  0  0  0  0  0  0  0  0
    1.4440   17.0690   -1.2230 C   0  0  2  0  0  0  0  0  0  0  0  0
    1.8070   17.9820   -2.4110 C   0  0  0  0  0  0  0  0  0  0  0  0
    3.3100   18.2320   -2.5600 C   0  0  0  0  0  0  0  0  0  0  0  0
    4.1060   16.9850   -2.3170 C   0  0  2  0  0  0  0  0  0  0  0  0
    5.2550   17.1620   -1.4790 O   0  0  0  0  0  0  0  0  0  0  0  0
    5.5150   16.7780   -2.8390 C   0  0  0  0  0  0  0  0  0  0  0  0
    6.2110   17.8280   -3.6460 C   0  0  0  0  0  0  0  0  0  0  0  0
    6.0260   15.3780   -2.9830 C   0  0  0  0  0  0  0  0  0  0  0  0
    0.7390   15.8150   -1.7260 C   0  0  1  0  0  0  0  0  0  0  0  0
    0.2670   15.9450   -3.1990 C   0  0  0  0  0  0  0  0  0  0  0  0
    0.4150   14.5420   -3.8410 C   0  0  0  0  0  0  0  0  0  0  0  0
    0.6460   13.5880   -2.6450 C   0  0  1  0  0  0  0  0  0  0  0  0
   -0.7790   13.3130   -2.0700 C   0  0  0  0  0  0  0  0  0  0  0  0
    1.4090   12.2590   -2.9590 C   0  0  2  0  0  0  0  0  0  0  0  0
    0.6980   11.3170   -3.9460 C   0  0  0  0  0  0  0  0  0  0  0  0
   -0.2180   10.3150   -3.3240 C   0  0  0  0  0  0  0  0  0  0  0  0
   -0.2480    9.9870   -2.0190 C   0  0  0  0  0  0  0  0  0  0  0  0
    0.7700   10.5760   -1.0350 C   0  0  1  0  0  0  0  0  0  0  0  0
    1.3410    9.4440   -0.1400 C   0  0  0  0  0  0  0  0  0  0  0  0
    0.2460    8.6450    0.5610 C   0  0  0  0  0  0  0  0  0  0  0  0
   -0.7120    8.0270   -0.4540 C   0  0  2  0  0  0  0  0  0  0  0  0
   -0.0080    7.0380   -1.2100 O   0  0  0  0  0  0  0  0  0  0  0  0
   -1.3420    9.0710   -1.4170 C   0  0  0  0  0  0  0  0  0  0  0  0
   -2.3450    9.9590   -0.6390 C   0  0  0  0  0  0  0  0  0  0  0  0
   -2.1760    8.3010   -2.4770 C   0  0  0  0  0  0  0  0  0  0  0  0
    1.9090   11.4810   -1.6750 C   0  0  1  0  0  0  0  0  0  0  0  0
    3.1030   10.5890   -2.1320 C   0  0  0  0  0  0  0  0  0  0  0  0
    2.4770   12.4500   -0.5710 C   0  0  0  0  0  0  0  0  0  0  0  0
    1.7530   13.7980   -0.3910 C   0  0  0  0  0  0  0  0  0  0  0  0
    1.5540   14.4980   -1.7390 C   0  0  2  0  0  0  0  0  0  0  0  0
    2.9710   14.8070   -2.3320 C   0  0  0  0  0  0  0  0  0  0  0  0
    0.8964   17.5156    0.8210 H   0  0  0  0  0  0  0  0  0  0  0  0
    0.6530   18.8730   -0.3300 H   0  0  0  0  0  0  0  0  0  0  0  0
   -0.4822   17.4809   -0.3300 H   0  0  0  0  0  0  0  0  0  0  0  0
    2.3826   16.7911   -0.7212 H   0  0  0  0  0  0  0  0  0  0  0  0
    1.4402   17.5113   -3.3351 H   0  0  0  0  0  0  0  0  0  0  0  0
    1.3367   18.9581   -2.2210 H   0  0  0  0  0  0  0  0  0  0  0  0
    3.5123   18.5911   -3.5799 H   0  0  0  0  0  0  0  0  0  0  0  0
    3.6090   18.9810   -1.8120 H   0  0  0  0  0  0  0  0  0  0  0  0
    3.1987   16.3658   -2.3764 H   0  0  0  0  0  0  0  0  0  0  0  0
    6.6907   18.5516   -2.9705 H   0  0  0  0  0  0  0  0  0  0  0  0
    6.9757   17.3560   -4.2804 H   0  0  0  0  0  0  0  0  0  0  0  0
    5.4784   18.3484   -4.2804 H   0  0  0  0  0  0  0  0  0  0  0  0
    6.1853   14.9415   -1.9860 H   0  0  0  0  0  0  0  0  0  0  0  0
    5.2903   14.7741   -3.5344 H   0  0  0  0  0  0  0  0  0  0  0  0
    6.9777   15.3900   -3.5344 H   0  0  0  0  0  0  0  0  0  0  0  0
   -0.0706   15.7485   -0.9843 H   0  0  0  0  0  0  0  0  0  0  0  0
   -0.7839   16.2683   -3.2330 H   0  0  0  0  0  0  0  0  0  0  0  0
    0.8648   16.6926   -3.7410 H   0  0  0  0  0  0  0  0  0  0  0  0
   -0.4994   14.2662   -4.3867 H   0  0  0  0  0  0  0  0  0  0  0  0
    1.2366   14.5020   -4.5713 H   0  0  0  0  0  0  0  0  0  0  0  0
   -0.7386   13.3208   -0.9708 H   0  0  0  0  0  0  0  0  0  0  0  0
   -1.4714   14.0941   -2.4170 H   0  0  0  0  0  0  0  0  0  0  0  0
   -1.1311   12.3303   -2.4170 H   0  0  0  0  0  0  0  0  0  0  0  0
    2.3063   12.6190   -3.4836 H   0  0  0  0  0  0  0  0  0  0  0  0
    0.1069   11.9339   -4.6388 H   0  0  0  0  0  0  0  0  0  0  0  0
    1.4922   10.7379   -4.4399 H   0  0  0  0  0  0  0  0  0  0  0  0
   -0.9284    9.8015   -3.9886 H   0  0  0  0  0  0  0  0  0  0  0  0
    0.2136   11.2956   -0.4165 H   0  0  0  0  0  0  0  0  0  0  0  0
    1.9293    8.7597   -0.7690 H   0  0  0  0  0  0  0  0  0  0  0  0
    1.9620    9.9134    0.6372 H   0  0  0  0  0  0  0  0  0  0  0  0
    0.7092    7.8426    1.1540 H   0  0  0  0  0  0  0  0  0  0  0  0
   -0.3228    9.3248    1.2124 H   0  0  0  0  0  0  0  0  0  0  0  0
   -1.5438    7.5784    0.1089 H   0  0  0  0  0  0  0  0  0  0  0  0
    0.3380    7.4700   -2.0090 H   0  0  0  0  0  0  0  0  0  0  0  0
   -2.1924    9.8239    0.4420 H   0  0  0  0  0  0  0  0  0  0  0  0
   -2.1820   11.0143   -0.9033 H   0  0  0  0  0  0  0  0  0  0  0  0
   -3.3727    9.6693   -0.9033 H   0  0  0  0  0  0  0  0  0  0  0  0
   -2.8930    7.6391   -1.9693 H   0  0  0  0  0  0  0  0  0  0  0  0
   -2.7221    9.0192   -3.1062 H   0  0  0  0  0  0  0  0  0  0  0  0
   -1.5036    7.6994   -3.1062 H   0  0  0  0  0  0  0  0  0  0  0  0
    3.6274   10.1972   -1.2480 H   0  0  0  0  0  0  0  0  0  0  0  0
    2.7245    9.7506   -2.7353 H   0  0  0  0  0  0  0  0  0  0  0  0
    3.7996   11.1897   -2.7353 H   0  0  0  0  0  0  0  0  0  0  0  0
    2.4355   11.9188    0.3914 H   0  0  0  0  0  0  0  0  0  0  0  0
    3.4904   12.7105   -0.9103 H   0  0  0  0  0  0  0  0  0  0  0  0
    0.7705   13.6199    0.0705 H   0  0  0  0  0  0  0  0  0  0  0  0
    2.3691   14.4438    0.2519 H   0  0  0  0  0  0  0  0  0  0  0  0
    3.6861   14.9629   -1.5108 H   0  0  0  0  0  0  0  0  0  0  0  0
    3.3022   13.9600   -2.9507 H   0  0  0  0  0  0  0  0  0  0  0  0
    2.9195   15.7150   -2.9507 H   0  0  0  0  0  0  0  0  0  0  0  0
  1  2  1  0
  2  3  1  0
  3  4  1  0
  4  5  1  0
  5  6  1  0
  6  7  1  0
  7  8  1  0
  7  9  1  0
  2 10  1  0
 10 11  1  0
 11 12  1  0
 12 13  1  0
 13 14  1  1
 13 15  1  0
 15 16  1  0
 16 17  1  0
 17 18  2  0
 18 19  1  0
 19 20  1  0
 20 21  1  0
 21 22  1  0
 22 23  1  0
 22 24  1  0
 24 25  1  0
 24 26  1  0
 19 27  1  0
 27 28  1  6
 27 29  1  0
 29 30  1  0
 30 31  1  0
 31 32  1  6
  7  5  1  0
 31 10  1  0
 31 13  1  0
 27 15  1  0
 24 18  1  0
  1 33  1  0
  1 34  1  0
  1 35  1  0
  2 36  1  1
  3 37  1  0
  3 38  1  0
  4 39  1  0
  4 40  1  0
  5 41  1  1
  8 42  1  0
  8 43  1  0
  8 44  1  0
  9 45  1  0
  9 46  1  0
  9 47  1  0
 10 48  1  1
 11 49  1  0
 11 50  1  0
 12 51  1  0
 12 52  1  0
 14 53  1  0
 14 54  1  0
 14 55  1  0
 15 56  1  6
 16 57  1  0
 16 58  1  0
 17 59  1  0
 19 60  1  1
 20 61  1  0
 20 62  1  0
 21 63  1  0
 21 64  1  0
 22 65  1  1
 23 66  1  0
 25 67  1  0
 25 68  1  0
 25 69  1  0
 26 70  1  0
 26 71  1  0
 26 72  1  0
 28 73  1  0
 28 74  1  0
 28 75  1  0
 29 76  1  0
 29 77  1  0
 30 78  1  0
 30 79  1  0
 32 80  1  0
 32 81  1  0
 32 82  1  0
M  END
>  <meeko>  (11) 
{"is_sidechain": [false], "intermolecular_energy": 2.731, "internal_energy": -0.839}

$$$$
EPH_relaxed_0001_pdb2pqr_Repair_150_r2_0001_out
     RDKit          3D

 82 86  0  0  0  0  0  0  0  0999 V2000
   -0.9950   10.4550    1.4320 C   0  0  0  0  0  0  0  0  0  0  0  0
   -1.6280   10.1470    0.0730 C   0  0  2  0  0  0  0  0  0  0  0  0
   -2.4130    8.8200    0.0850 C   0  0  0  0  0  0  0  0  0  0  0  0
   -3.8420    8.9460   -0.4490 C   0  0  0  0  0  0  0  0  0  0  0  0
   -4.4140    7.6110   -0.8230 C   0  0  2  0  0  0  0  0  0  0  0  0
   -4.6070    7.4160   -2.2300 O   0  0  0  0  0  0  0  0  0  0  0  0
   -5.7960    7.4320   -1.4230 C   0  0  0  0  0  0  0  0  0  0  0  0
   -6.6920    8.6020   -1.6820 C   0  0  0  0  0  0  0  0  0  0  0  0
   -6.4600    6.0950   -1.3020 C   0  0  0  0  0  0  0  0  0  0  0  0
   -0.5500   10.1040   -1.0040 C   0  0  1  0  0  0  0  0  0  0  0  0
   -0.9690    9.2580   -2.2360 C   0  0  0  0  0  0  0  0  0  0  0  0
   -0.3510    9.9440   -3.4810 C   0  0  0  0  0  0  0  0  0  0  0  0
    0.6660   10.9560   -2.9040 C   0  0  1  0  0  0  0  0  0  0  0  0
    1.9370   10.1080   -2.5840 C   0  0  0  0  0  0  0  0  0  0  0  0
    1.0060   12.1870   -3.8070 C   0  0  2  0  0  0  0  0  0  0  0  0
    1.6700   11.8450   -5.1530 C   0  0  0  0  0  0  0  0  0  0  0  0
    3.1620   11.8030   -5.1340 C   0  0  0  0  0  0  0  0  0  0  0  0
    3.9470   12.3040   -4.1620 C   0  0  0  0  0  0  0  0  0  0  0  0
    3.3430   13.0790   -2.9840 C   0  0  1  0  0  0  0  0  0  0  0  0
    4.1590   14.3770   -2.7450 C   0  0  0  0  0  0  0  0  0  0  0  0
    5.6490   14.1060   -2.5630 C   0  0  0  0  0  0  0  0  0  0  0  0
    6.2250   13.3860   -3.7800 C   0  0  2  0  0  0  0  0  0  0  0  0
    6.1800   14.2710   -4.9030 O   0  0  0  0  0  0  0  0  0  0  0  0
    5.4770   12.0680   -4.1230 C   0  0  0  0  0  0  0  0  0  0  0  0
    5.7770   11.0020   -3.0400 C   0  0  0  0  0  0  0  0  0  0  0  0
    6.0650   11.5160   -5.4500 C   0  0  0  0  0  0  0  0  0  0  0  0
    1.7790   13.3470   -3.0590 C   0  0  1  0  0  0  0  0  0  0  0  0
    1.5010   14.6560   -3.8590 C   0  0  0  0  0  0  0  0  0  0  0  0
    1.2280   13.5900   -1.6040 C   0  0  0  0  0  0  0  0  0  0  0  0
    0.7980   12.3450   -0.8060 C   0  0  0  0  0  0  0  0  0  0  0  0
   -0.1260   11.4520   -1.6400 C   0  0  2  0  0  0  0  0  0  0  0  0
   -1.4230   12.2700   -1.9580 C   0  0  0  0  0  0  0  0  0  0  0  0
   -1.6714   10.1259    2.2346 H   0  0  0  0  0  0  0  0  0  0  0  0
   -0.0364    9.9226    1.5191 H   0  0  0  0  0  0  0  0  0  0  0  0
   -0.8223   11.5379    1.5191 H   0  0  0  0  0  0  0  0  0  0  0  0
   -2.3441   10.9521   -0.1486 H   0  0  0  0  0  0  0  0  0  0  0  0
   -1.8727    8.0912   -0.5371 H   0  0  0  0  0  0  0  0  0  0  0  0
   -2.4890    8.5007    1.1349 H   0  0  0  0  0  0  0  0  0  0  0  0
   -4.4744    9.3997    0.3284 H   0  0  0  0  0  0  0  0  0  0  0  0
   -3.8165    9.5734   -1.3522 H   0  0  0  0  0  0  0  0  0  0  0  0
   -3.9119    7.1301    0.0294 H   0  0  0  0  0  0  0  0  0  0  0  0
   -7.0207    9.0312   -0.7240 H   0  0  0  0  0  0  0  0  0  0  0  0
   -6.1439    9.3635   -2.2562 H   0  0  0  0  0  0  0  0  0  0  0  0
   -7.5701    8.2714   -2.2562 H   0  0  0  0  0  0  0  0  0  0  0  0
   -6.5853    5.8427   -0.2387 H   0  0  0  0  0  0  0  0  0  0  0  0
   -7.4456    6.1296   -1.7892 H   0  0  0  0  0  0  0  0  0  0  0  0
   -5.8368    5.3307   -1.7892 H   0  0  0  0  0  0  0  0  0  0  0  0
    0.2810    9.6870   -0.4161 H   0  0  0  0  0  0  0  0  0  0  0  0
   -0.5848    8.2318   -2.1392 H   0  0  0  0  0  0  0  0  0  0  0  0
   -2.0642    9.1991   -2.3205 H   0  0  0  0  0  0  0  0  0  0  0  0
    0.1557    9.2056   -4.1198 H   0  0  0  0  0  0  0  0  0  0  0  0
   -1.1114   10.4295   -4.1104 H   0  0  0  0  0  0  0  0  0  0  0  0
    2.0587   10.0268   -1.4938 H   0  0  0  0  0  0  0  0  0  0  0  0
    1.8255    9.1027   -3.0164 H   0  0  0  0  0  0  0  0  0  0  0  0
    2.8224   10.5969   -3.0164 H   0  0  0  0  0  0  0  0  0  0  0  0
    0.0088   12.5786   -4.0565 H   0  0  0  0  0  0  0  0  0  0  0  0
    1.3059   10.8568   -5.4705 H   0  0  0  0  0  0  0  0  0  0  0  0
    1.3966   12.6570   -5.8429 H   0  0  0  0  0  0  0  0  0  0  0  0
    3.6627   11.3216   -5.9870 H   0  0  0  0  0  0  0  0  0  0  0  0
    3.4289   12.4175   -2.1093 H   0  0  0  0  0  0  0  0  0  0  0  0
    4.0248   15.0423   -3.6106 H   0  0  0  0  0  0  0  0  0  0  0  0
    3.7880   14.8388   -1.8181 H   0  0  0  0  0  0  0  0  0  0  0  0
    6.1751   15.0626   -2.4282 H   0  0  0  0  0  0  0  0  0  0  0  0
    5.7840   13.4651   -1.6793 H   0  0  0  0  0  0  0  0  0  0  0  0
    7.2603   13.1046   -3.5372 H   0  0  0  0  0  0  0  0  0  0  0  0
    5.2450   14.4370   -5.1100 H   0  0  0  0  0  0  0  0  0  0  0  0
    5.6516   11.4477   -2.0422 H   0  0  0  0  0  0  0  0  0  0  0  0
    5.0817   10.1573   -3.1544 H   0  0  0  0  0  0  0  0  0  0  0  0
    6.8108   10.6440   -3.1544 H   0  0  0  0  0  0  0  0  0  0  0  0
    6.8500   10.7791   -5.2247 H   0  0  0  0  0  0  0  0  0  0  0  0
    5.2660   11.0341   -6.0327 H   0  0  0  0  0  0  0  0  0  0  0  0
    6.4955   12.3438   -6.0327 H   0  0  0  0  0  0  0  0  0  0  0  0
    1.3251   15.4844   -3.1570 H   0  0  0  0  0  0  0  0  0  0  0  0
    2.3694   14.8902   -4.4922 H   0  0  0  0  0  0  0  0  0  0  0  0
    0.6123   14.5170   -4.4922 H   0  0  0  0  0  0  0  0  0  0  0  0
    2.0176   14.0967   -1.0297 H   0  0  0  0  0  0  0  0  0  0  0  0
    0.3072   14.1763   -1.7397 H   0  0  0  0  0  0  0  0  0  0  0  0
    1.6933   11.7719   -0.5231 H   0  0  0  0  0  0  0  0  0  0  0  0
    0.2525   12.6740    0.0907 H   0  0  0  0  0  0  0  0  0  0  0  0
   -1.9048   12.5739   -1.0170 H   0  0  0  0  0  0  0  0  0  0  0  0
   -1.1585   13.1650   -2.5402 H   0  0  0  0  0  0  0  0  0  0  0  0
   -2.1167   11.6457   -2.5402 H   0  0  0  0  0  0  0  0  0  0  0  0
  1  2  1  0
  2  3  1  0
  3  4  1  0
  4  5  1  0
  5  6  1  0
  6  7  1  0
  7  8  1  0
  7  9  1  0
  2 10  1  0
 10 11  1  0
 11 12  1  0
 12 13  1  0
 13 14  1  1
 13 15  1  0
 15 16  1  0
 16 17  1  0
 17 18  2  0
 18 19  1  0
 19 20  1  0
 20 21  1  0
 21 22  1  0
 22 23  1  0
 22 24  1  0
 24 25  1  0
 24 26  1  0
 19 27  1  0
 27 28  1  6
 27 29  1  0
 29 30  1  0
 30 31  1  0
 31 32  1  6
  7  5  1  0
 31 10  1  0
 31 13  1  0
 27 15  1  0
 24 18  1  0
  1 33  1  0
  1 34  1  0
  1 35  1  0
  2 36  1  6
  3 37  1  0
  3 38  1  0
  4 39  1  0
  4 40  1  0
  5 41  1  1
  8 42  1  0
  8 43  1  0
  8 44  1  0
  9 45  1  0
  9 46  1  0
  9 47  1  0
 10 48  1  1
 11 49  1  0
 11 50  1  0
 12 51  1  0
 12 52  1  0
 14 53  1  0
 14 54  1  0
 14 55  1  0
 15 56  1  6
 16 57  1  0
 16 58  1  0
 17 59  1  0
 19 60  1  1
 20 61  1  0
 20 62  1  0
 21 63  1  0
 21 64  1  0
 22 65  1  1
 23 66  1  0
 25 67  1  0
 25 68  1  0
 25 69  1  0
 26 70  1  0
 26 71  1  0
 26 72  1  0
 28 73  1  0
 28 74  1  0
 28 75  1  0
 29 76  1  0
 29 77  1  0
 30 78  1  0
 30 79  1  0
 32 80  1  0
 32 81  1  0
 32 82  1  0
M  END
>  <meeko>  (12) 
{"is_sidechain": [false], "intermolecular_energy": 2.731, "internal_energy": -0.839}

$$$$
EPH_relaxed_0001_pdb2pqr_Repair_150_r2_0001_out
     RDKit          3D

 82 86  0  0  0  0  0  0  0  0999 V2000
    0.8900    8.7470   -0.2430 C   0  0  0  0  0  0  0  0  0  0  0  0
   -0.1620    9.4980   -1.0640 C   0  0  2  0  0  0  0  0  0  0  0  0
   -0.8550    8.5840   -2.0950 C   0  0  0  0  0  0  0  0  0  0  0  0
   -2.3500    8.3840   -1.8330 C   0  0  0  0  0  0  0  0  0  0  0  0
   -2.8920    7.2080   -2.5870 C   0  0  2  0  0  0  0  0  0  0  0  0
   -3.8940    7.5310   -3.5600 O   0  0  0  0  0  0  0  0  0  0  0  0
   -4.3220    6.7180   -2.4560 C   0  0  0  0  0  0  0  0  0  0  0  0
   -5.2990    7.3930   -1.5460 C   0  0  0  0  0  0  0  0  0  0  0  0
   -4.6310    5.3020   -2.8340 C   0  0  0  0  0  0  0  0  0  0  0  0
    0.4820   10.6860   -1.7700 C   0  0  1  0  0  0  0  0  0  0  0  0
    0.1370   10.7400   -3.2830 C   0  0  0  0  0  0  0  0  0  0  0  0
    0.0270   12.2390   -3.6630 C   0  0  0  0  0  0  0  0  0  0  0  0
    0.6320   12.9930   -2.4560 C   0  0  1  0  0  0  0  0  0  0  0  0
    2.1760   12.9220   -2.6710 C   0  0  0  0  0  0  0  0  0  0  0  0
    0.1460   14.4640   -2.2450 C   0  0  2  0  0  0  0  0  0  0  0  0
    0.4860   15.4340   -3.3900 C   0  0  0  0  0  0  0  0  0  0  0  0
    1.7930   16.1440   -3.2570 C   0  0  0  0  0  0  0  0  0  0  0  0
    2.5260   16.2290   -2.1310 C   0  0  0  0  0  0  0  0  0  0  0  0
    2.0060   15.6530   -0.8080 C   0  0  1  0  0  0  0  0  0  0  0  0
    2.2200   16.6890    0.3270 C   0  0  0  0  0  0  0  0  0  0  0  0
    3.6680   17.1600    0.4240 C   0  0  0  0  0  0  0  0  0  0  0  0
    4.1300   17.7780   -0.8930 C   0  0  2  0  0  0  0  0  0  0  0  0
    3.3990   18.9880   -1.1160 O   0  0  0  0  0  0  0  0  0  0  0  0
    3.9530   16.8290   -2.1110 C   0  0  0  0  0  0  0  0  0  0  0  0
    4.9690   15.6640   -2.0150 C   0  0  0  0  0  0  0  0  0  0  0  0
    4.3230   17.6230   -3.3930 C   0  0  0  0  0  0  0  0  0  0  0  0
    0.5250   15.0770   -0.8370 C   0  0  1  0  0  0  0  0  0  0  0  0
   -0.4970   16.2220   -0.5600 C   0  0  0  0  0  0  0  0  0  0  0  0
    0.3550   14.0370    0.3340 C   0  0  0  0  0  0  0  0  0  0  0  0
    0.7400   12.5770    0.0270 C   0  0  0  0  0  0  0  0  0  0  0  0
    0.0930   12.1020   -1.2770 C   0  0  2  0  0  0  0  0  0  0  0  0
   -1.4610   12.1420   -1.0840 C   0  0  0  0  0  0  0  0  0  0  0  0
    0.6893    8.8902    0.8290 H   0  0  0  0  0  0  0  0  0  0  0  0
    0.8463    7.6746   -0.4841 H   0  0  0  0  0  0  0  0  0  0  0  0
    1.8900    9.1366   -0.4841 H   0  0  0  0  0  0  0  0  0  0  0  0
   -0.9349    9.8538   -0.3668 H   0  0  0  0  0  0  0  0  0  0  0  0
   -0.7340    9.0315   -3.0926 H   0  0  0  0  0  0  0  0  0  0  0  0
   -0.3800    7.5948   -2.0184 H   0  0  0  0  0  0  0  0  0  0  0  0
   -2.5044    8.2192   -0.7564 H   0  0  0  0  0  0  0  0  0  0  0  0
   -2.8815    9.2847   -2.1740 H   0  0  0  0  0  0  0  0  0  0  0  0
   -1.9247    6.6886   -2.5196 H   0  0  0  0  0  0  0  0  0  0  0  0
   -5.0194    7.1999   -0.4998 H   0  0  0  0  0  0  0  0  0  0  0  0
   -5.2874    8.4767   -1.7346 H   0  0  0  0  0  0  0  0  0  0  0  0
   -6.3085    6.9988   -1.7346 H   0  0  0  0  0  0  0  0  0  0  0  0
   -4.7624    4.6997   -1.9230 H   0  0  0  0  0  0  0  0  0  0  0  0
   -5.5562    5.2747   -3.4283 H   0  0  0  0  0  0  0  0  0  0  0  0
   -3.8012    4.8917   -3.4283 H   0  0  0  0  0  0  0  0  0  0  0  0
    1.5393   10.4857   -1.5421 H   0  0  0  0  0  0  0  0  0  0  0  0
    0.9322   10.2576   -3.8704 H   0  0  0  0  0  0  0  0  0  0  0  0
   -0.8032   10.2091   -3.4931 H   0  0  0  0  0  0  0  0  0  0  0  0
    0.5984   12.4503   -4.5789 H   0  0  0  0  0  0  0  0  0  0  0  0
   -1.0104   12.5425   -3.8670 H   0  0  0  0  0  0  0  0  0  0  0  0
    2.6815   12.8988   -1.6943 H   0  0  0  0  0  0  0  0  0  0  0  0
    2.4262   12.0114   -3.2351 H   0  0  0  0  0  0  0  0  0  0  0  0
    2.5087   13.8058   -3.2351 H   0  0  0  0  0  0  0  0  0  0  0  0
   -0.9484   14.3546   -2.2607 H   0  0  0  0  0  0  0  0  0  0  0  0
    0.5051   14.8595   -4.3279 H   0  0  0  0  0  0  0  0  0  0  0  0
   -0.2884   16.2149   -3.3676 H   0  0  0  0  0  0  0  0  0  0  0  0
    2.1905   16.6395   -4.1551 H   0  0  0  0  0  0  0  0  0  0  0  0
    2.6072   14.7532   -0.6107 H   0  0  0  0  0  0  0  0  0  0  0  0
    1.5778   17.5610    0.1342 H   0  0  0  0  0  0  0  0  0  0  0  0
    1.9636   16.1998    1.2783 H   0  0  0  0  0  0  0  0  0  0  0  0
    3.7492   17.9121    1.2226 H   0  0  0  0  0  0  0  0  0  0  0  0
    4.3054   16.2917    0.6471 H   0  0  0  0  0  0  0  0  0  0  0  0
    5.2084   17.9757   -0.8038 H   0  0  0  0  0  0  0  0  0  0  0  0
    2.7260   19.0580   -0.4170 H   0  0  0  0  0  0  0  0  0  0  0  0
    5.1673   15.4366   -0.9572 H   0  0  0  0  0  0  0  0  0  0  0  0
    4.5538   14.7736   -2.5098 H   0  0  0  0  0  0  0  0  0  0  0  0
    5.9076   15.9543   -2.5098 H   0  0  0  0  0  0  0  0  0  0  0  0
    4.7721   18.5867   -3.1106 H   0  0  0  0  0  0  0  0  0  0  0  0
    5.0436   17.0431   -3.9883 H   0  0  0  0  0  0  0  0  0  0  0  0
    3.4154   17.8018   -3.9883 H   0  0  0  0  0  0  0  0  0  0  0  0
   -0.6146   16.3538    0.5257 H   0  0  0  0  0  0  0  0  0  0  0  0
   -0.1286   17.1580   -1.0052 H   0  0  0  0  0  0  0  0  0  0  0  0
   -1.4687   15.9618   -1.0052 H   0  0  0  0  0  0  0  0  0  0  0  0
    0.9792   14.3763    1.1738 H   0  0  0  0  0  0  0  0  0  0  0  0
   -0.7247   14.0124    0.5430 H   0  0  0  0  0  0  0  0  0  0  0  0
    1.8336   12.5054   -0.0671 H   0  0  0  0  0  0  0  0  0  0  0  0
    0.3816   11.9396    0.8488 H   0  0  0  0  0  0  0  0  0  0  0  0
   -1.6970   12.1481   -0.0096 H   0  0  0  0  0  0  0  0  0  0  0  0
   -1.8655   13.0509   -1.5534 H   0  0  0  0  0  0  0  0  0  0  0  0
   -1.9117   11.2552   -1.5534 H   0  0  0  0  0  0  0  0  0  0  0  0
  1  2  1  0
  2  3  1  0
  3  4  1  0
  4  5  1  0
  5  6  1  0
  6  7  1  0
  7  8  1  0
  7  9  1  0
  2 10  1  0
 10 11  1  0
 11 12  1  0
 12 13  1  0
 13 14  1  6
 13 15  1  0
 15 16  1  0
 16 17  1  0
 17 18  2  0
 18 19  1  0
 19 20  1  0
 20 21  1  0
 21 22  1  0
 22 23  1  0
 22 24  1  0
 24 25  1  0
 24 26  1  0
 19 27  1  0
 27 28  1  1
 27 29  1  0
 29 30  1  0
 30 31  1  0
 31 32  1  1
  7  5  1  0
 31 10  1  0
 31 13  1  0
 27 15  1  0
 24 18  1  0
  1 33  1  0
  1 34  1  0
  1 35  1  0
  2 36  1  1
  3 37  1  0
  3 38  1  0
  4 39  1  0
  4 40  1  0
  5 41  1  6
  8 42  1  0
  8 43  1  0
  8 44  1  0
  9 45  1  0
  9 46  1  0
  9 47  1  0
 10 48  1  6
 11 49  1  0
 11 50  1  0
 12 51  1  0
 12 52  1  0
 14 53  1  0
 14 54  1  0
 14 55  1  0
 15 56  1  1
 16 57  1  0
 16 58  1  0
 17 59  1  0
 19 60  1  1
 20 61  1  0
 20 62  1  0
 21 63  1  0
 21 64  1  0
 22 65  1  1
 23 66  1  0
 25 67  1  0
 25 68  1  0
 25 69  1  0
 26 70  1  0
 26 71  1  0
 26 72  1  0
 28 73  1  0
 28 74  1  0
 28 75  1  0
 29 76  1  0
 29 77  1  0
 30 78  1  0
 30 79  1  0
 32 80  1  0
 32 81  1  0
 32 82  1  0
M  END
>  <meeko>  (13) 
{"is_sidechain": [false], "intermolecular_energy": 2.731, "internal_energy": -0.839}

$$$$
EPH_relaxed_0001_pdb2pqr_Repair_150_r2_0001_out
     RDKit          3D

 82 86  0  0  0  0  0  0  0  0999 V2000
    1.4870   17.7570   -2.6520 C   0  0  0  0  0  0  0  0  0  0  0  0
    2.7860   17.1110   -2.1630 C   0  0  2  0  0  0  0  0  0  0  0  0
    4.0220   17.6580   -2.9040 C   0  0  0  0  0  0  0  0  0  0  0  0
    5.3520   17.1430   -2.3470 C   0  0  0  0  0  0  0  0  0  0  0  0
    6.5170   17.6320   -3.1520 C   0  0  2  0  0  0  0  0  0  0  0  0
    6.2960   17.6620   -4.5680 O   0  0  0  0  0  0  0  0  0  0  0  0
    7.3050   16.7510   -4.1040 C   0  0  0  0  0  0  0  0  0  0  0  0
    6.9590   15.3090   -4.2990 C   0  0  0  0  0  0  0  0  0  0  0  0
    8.6990   17.1590   -4.4680 C   0  0  0  0  0  0  0  0  0  0  0  0
    2.7070   15.5970   -2.3280 C   0  0  1  0  0  0  0  0  0  0  0  0
    4.0920   14.9540   -2.6050 C   0  0  0  0  0  0  0  0  0  0  0  0
    4.0900   13.5700   -1.9050 C   0  0  0  0  0  0  0  0  0  0  0  0
    2.6080   13.3220   -1.5360 C   0  0  1  0  0  0  0  0  0  0  0  0
    1.9500   12.7980   -2.8510 C   0  0  0  0  0  0  0  0  0  0  0  0
    2.3480   12.3550   -0.3360 C   0  0  2  0  0  0  0  0  0  0  0  0
    2.8400   10.9110   -0.5420 C   0  0  0  0  0  0  0  0  0  0  0  0
    1.8430    9.9780   -1.1460 C   0  0  0  0  0  0  0  0  0  0  0  0
    0.5200   10.2050   -1.2460 C   0  0  0  0  0  0  0  0  0  0  0  0
   -0.1120   11.4620   -0.6330 C   0  0  1  0  0  0  0  0  0  0  0  0
   -1.3900   11.0680    0.1530 C   0  0  0  0  0  0  0  0  0  0  0  0
   -2.3770   10.2720   -0.6950 C   0  0  0  0  0  0  0  0  0  0  0  0
   -1.7290    9.0010   -1.2380 C   0  0  2  0  0  0  0  0  0  0  0  0
   -1.4460    8.1240   -0.1430 O   0  0  0  0  0  0  0  0  0  0  0  0
   -0.4270    9.2720   -2.0410 C   0  0  0  0  0  0  0  0  0  0  0  0
   -0.7760    9.9640   -3.3820 C   0  0  0  0  0  0  0  0  0  0  0  0
    0.2010    7.9010   -2.4100 C   0  0  0  0  0  0  0  0  0  0  0  0
    0.8640   12.3870    0.2130 C   0  0  1  0  0  0  0  0  0  0  0  0
    0.9240   11.8880    1.6890 C   0  0  0  0  0  0  0  0  0  0  0  0
    0.2760   13.8470    0.2610 C   0  0  0  0  0  0  0  0  0  0  0  0
    0.6660   14.7920   -0.8920 C   0  0  0  0  0  0  0  0  0  0  0  0
    2.1800   14.7770   -1.1240 C   0  0  2  0  0  0  0  0  0  0  0  0
    2.8680   15.3200    0.1750 C   0  0  0  0  0  0  0  0  0  0  0  0
    0.8793   18.0592   -1.7863 H   0  0  0  0  0  0  0  0  0  0  0  0
    1.7241   18.6422   -3.2605 H   0  0  0  0  0  0  0  0  0  0  0  0
    0.9243   17.0338   -3.2605 H   0  0  0  0  0  0  0  0  0  0  0  0
    2.9013   17.3640   -1.0987 H   0  0  0  0  0  0  0  0  0  0  0  0
    3.9512   17.3637   -3.9615 H   0  0  0  0  0  0  0  0  0  0  0  0
    4.0192   18.7499   -2.7709 H   0  0  0  0  0  0  0  0  0  0  0  0
    5.4634   17.4927   -1.3101 H   0  0  0  0  0  0  0  0  0  0  0  0
    5.3405   16.0440   -2.3936 H   0  0  0  0  0  0  0  0  0  0  0  0
    6.8290   18.3018   -2.3371 H   0  0  0  0  0  0  0  0  0  0  0  0
    6.8426   14.8240   -3.3186 H   0  0  0  0  0  0  0  0  0  0  0  0
    6.0166   15.2308   -4.8609 H   0  0  0  0  0  0  0  0  0  0  0  0
    7.7633   14.8117   -4.8609 H   0  0  0  0  0  0  0  0  0  0  0  0
    9.2823   17.3297   -3.5511 H   0  0  0  0  0  0  0  0  0  0  0  0
    9.1717   16.3615   -5.0601 H   0  0  0  0  0  0  0  0  0  0  0  0
    8.6671   18.0855   -5.0601 H   0  0  0  0  0  0  0  0  0  0  0  0
    1.9934   15.5390   -3.1631 H   0  0  0  0  0  0  0  0  0  0  0  0
    4.2429   14.8308   -3.6876 H   0  0  0  0  0  0  0  0  0  0  0  0
    4.9057   15.5885   -2.2239 H   0  0  0  0  0  0  0  0  0  0  0  0
    4.4563   12.7890   -2.5875 H   0  0  0  0  0  0  0  0  0  0  0  0
    4.7489   13.5467   -1.0245 H   0  0  0  0  0  0  0  0  0  0  0  0
    1.1120   12.1307   -2.6010 H   0  0  0  0  0  0  0  0  0  0  0  0
    1.5776   13.6496   -3.4393 H   0  0  0  0  0  0  0  0  0  0  0  0
    2.6967   12.2445   -3.4393 H   0  0  0  0  0  0  0  0  0  0  0  0
    2.9888   12.7793    0.4510 H   0  0  0  0  0  0  0  0  0  0  0  0
    3.7195   10.9424   -1.2019 H   0  0  0  0  0  0  0  0  0  0  0  0
    3.0565   10.5170    0.4619 H   0  0  0  0  0  0  0  0  0  0  0  0
    2.2217    9.0245   -1.5428 H   0  0  0  0  0  0  0  0  0  0  0  0
   -0.3797   12.1114   -1.4795 H   0  0  0  0  0  0  0  0  0  0  0  0
   -1.0966   10.4569    1.0193 H   0  0  0  0  0  0  0  0  0  0  0  0
   -1.8904   11.9971    0.4634 H   0  0  0  0  0  0  0  0  0  0  0  0
   -3.2440    9.9978   -0.0760 H   0  0  0  0  0  0  0  0  0  0  0  0
   -2.6925   10.8956   -1.5445 H   0  0  0  0  0  0  0  0  0  0  0  0
   -2.4402    8.5423   -1.9406 H   0  0  0  0  0  0  0  0  0  0  0  0
   -0.5370    8.3050    0.1510 H   0  0  0  0  0  0  0  0  0  0  0  0
   -1.2630   10.9295   -3.1805 H   0  0  0  0  0  0  0  0  0  0  0  0
    0.1455   10.1314   -3.9589 H   0  0  0  0  0  0  0  0  0  0  0  0
   -1.4584    9.3225   -3.9589 H   0  0  0  0  0  0  0  0  0  0  0  0
    0.4520    7.3531   -1.4898 H   0  0  0  0  0  0  0  0  0  0  0  0
   -0.5186    7.3152   -3.0008 H   0  0  0  0  0  0  0  0  0  0  0  0
    1.1146    8.0633   -3.0008 H   0  0  0  0  0  0  0  0  0  0  0  0
    0.8209   12.7454    2.3704 H   0  0  0  0  0  0  0  0  0  0  0  0
    0.1050   11.1761    1.8690 H   0  0  0  0  0  0  0  0  0  0  0  0
    1.8884   11.3905    1.8690 H   0  0  0  0  0  0  0  0  0  0  0  0
   -0.8208   13.7639    0.2664 H   0  0  0  0  0  0  0  0  0  0  0  0
    0.7087   14.3017    1.1643 H   0  0  0  0  0  0  0  0  0  0  0  0
    0.1577   14.4667   -1.8117 H   0  0  0  0  0  0  0  0  0  0  0  0
    0.3618   15.8150   -0.6256 H   0  0  0  0  0  0  0  0  0  0  0  0
    2.3541   14.9144    1.0590 H   0  0  0  0  0  0  0  0  0  0  0  0
    3.9228   15.0083    0.1889 H   0  0  0  0  0  0  0  0  0  0  0  0
    2.8100   16.4184    0.1889 H   0  0  0  0  0  0  0  0  0  0  0  0
  1  2  1  0
  2  3  1  0
  3  4  1  0
  4  5  1  0
  5  6  1  0
  6  7  1  0
  7  8  1  0
  7  9  1  0
  2 10  1  0
 10 11  1  0
 11 12  1  0
 12 13  1  0
 13 14  1  6
 13 15  1  0
 15 16  1  0
 16 17  1  0
 17 18  2  0
 18 19  1  0
 19 20  1  0
 20 21  1  0
 21 22  1  0
 22 23  1  0
 22 24  1  0
 24 25  1  0
 24 26  1  0
 19 27  1  0
 27 28  1  1
 27 29  1  0
 29 30  1  0
 30 31  1  0
 31 32  1  1
  7  5  1  0
 31 10  1  0
 31 13  1  0
 27 15  1  0
 24 18  1  0
  1 33  1  0
  1 34  1  0
  1 35  1  0
  2 36  1  1
  3 37  1  0
  3 38  1  0
  4 39  1  0
  4 40  1  0
  5 41  1  1
  8 42  1  0
  8 43  1  0
  8 44  1  0
  9 45  1  0
  9 46  1  0
  9 47  1  0
 10 48  1  6
 11 49  1  0
 11 50  1  0
 12 51  1  0
 12 52  1  0
 14 53  1  0
 14 54  1  0
 14 55  1  0
 15 56  1  1
 16 57  1  0
 16 58  1  0
 17 59  1  0
 19 60  1  6
 20 61  1  0
 20 62  1  0
 21 63  1  0
 21 64  1  0
 22 65  1  6
 23 66  1  0
 25 67  1  0
 25 68  1  0
 25 69  1  0
 26 70  1  0
 26 71  1  0
 26 72  1  0
 28 73  1  0
 28 74  1  0
 28 75  1  0
 29 76  1  0
 29 77  1  0
 30 78  1  0
 30 79  1  0
 32 80  1  0
 32 81  1  0
 32 82  1  0
M  END
>  <meeko>  (14) 
{"is_sidechain": [false], "intermolecular_energy": 2.731, "internal_energy": -0.839}

$$$$
EPH_relaxed_0001_pdb2pqr_Repair_150_r2_0001_out
     RDKit          3D

 82 86  0  0  0  0  0  0  0  0999 V2000
    0.1590    8.9340   -2.3190 C   0  0  0  0  0  0  0  0  0  0  0  0
    1.0050   10.0540   -2.9290 C   0  0  2  0  0  0  0  0  0  0  0  0
    2.4750    9.9900   -2.4650 C   0  0  0  0  0  0  0  0  0  0  0  0
    3.4850   10.0410   -3.6140 C   0  0  0  0  0  0  0  0  0  0  0  0
    3.9240   11.4440   -3.9050 C   0  0  2  0  0  0  0  0  0  0  0  0
    3.9340   11.7920   -5.2960 O   0  0  0  0  0  0  0  0  0  0  0  0
    5.2100   11.7840   -4.6350 C   0  0  0  0  0  0  0  0  0  0  0  0
    6.1390   10.7150   -5.1190 C   0  0  0  0  0  0  0  0  0  0  0  0
    5.8010   13.1470   -4.4470 C   0  0  0  0  0  0  0  0  0  0  0  0
    0.4060   11.4100   -2.5740 C   0  0  1  0  0  0  0  0  0  0  0  0
   -0.8680   11.2890   -1.6960 C   0  0  0  0  0  0  0  0  0  0  0  0
   -0.8590   12.4980   -0.7260 C   0  0  0  0  0  0  0  0  0  0  0  0
    0.2260   13.4440   -1.2920 C   0  0  1  0  0  0  0  0  0  0  0  0
   -0.4800   14.2180   -2.4490 C   0  0  0  0  0  0  0  0  0  0  0  0
    0.8930   14.4200   -0.2680 C   0  0  2  0  0  0  0  0  0  0  0  0
   -0.0620   15.4350    0.3840 C   0  0  0  0  0  0  0  0  0  0  0  0
   -0.2010   16.7340   -0.3370 C   0  0  0  0  0  0  0  0  0  0  0  0
    0.6230   17.1860   -1.3010 C   0  0  0  0  0  0  0  0  0  0  0  0
    1.8850   16.4050   -1.6880 C   0  0  1  0  0  0  0  0  0  0  0  0
    3.0890   17.3800   -1.7820 C   0  0  0  0  0  0  0  0  0  0  0  0
    2.8190   18.5540   -2.7180 C   0  0  0  0  0  0  0  0  0  0  0  0
    1.5910   19.3400   -2.2670 C   0  0  2  0  0  0  0  0  0  0  0  0
    1.8800   19.9690   -1.0150 O   0  0  0  0  0  0  0  0  0  0  0  0
    0.3170   18.4600   -2.1270 C   0  0  0  0  0  0  0  0  0  0  0  0
   -0.1700   18.0230   -3.5310 C   0  0  0  0  0  0  0  0  0  0  0  0
   -0.8110   19.3440   -1.5310 C   0  0  0  0  0  0  0  0  0  0  0  0
    2.2060   15.1230   -0.8050 C   0  0  1  0  0  0  0  0  0  0  0  0
    3.0350   15.5350    0.4500 C   0  0  0  0  0  0  0  0  0  0  0  0
    3.1140   14.1410   -1.6350 C   0  0  0  0  0  0  0  0  0  0  0  0
    2.3930   13.1210   -2.5360 C   0  0  0  0  0  0  0  0  0  0  0  0
    1.2920   12.3890   -1.7630 C   0  0  2  0  0  0  0  0  0  0  0  0
    1.9740   11.5840   -0.6050 C   0  0  0  0  0  0  0  0  0  0  0  0
    0.2055    8.9955   -1.2217 H   0  0  0  0  0  0  0  0  0  0  0  0
   -0.8849    9.0421   -2.6484 H   0  0  0  0  0  0  0  0  0  0  0  0
    0.5484    7.9594   -2.6484 H   0  0  0  0  0  0  0  0  0  0  0  0
    0.9967    9.9179   -4.0205 H   0  0  0  0  0  0  0  0  0  0  0  0
    2.6658   10.8426   -1.7967 H   0  0  0  0  0  0  0  0  0  0  0  0
    2.6111    9.0224   -1.9597 H   0  0  0  0  0  0  0  0  0  0  0  0
    4.3659    9.4413   -3.3411 H   0  0  0  0  0  0  0  0  0  0  0  0
    2.9988    9.6401   -4.5156 H   0  0  0  0  0  0  0  0  0  0  0  0
    3.4993   11.7990   -2.9544 H   0  0  0  0  0  0  0  0  0  0  0  0
    6.5866   10.2000   -4.2562 H   0  0  0  0  0  0  0  0  0  0  0  0
    5.5787    9.9905   -5.7283 H   0  0  0  0  0  0  0  0  0  0  0  0
    6.9345   11.1688   -5.7283 H   0  0  0  0  0  0  0  0  0  0  0  0
    5.8939   13.3613   -3.3721 H   0  0  0  0  0  0  0  0  0  0  0  0
    6.7956   13.1832   -4.9154 H   0  0  0  0  0  0  0  0  0  0  0  0
    5.1476   13.8978   -4.9154 H   0  0  0  0  0  0  0  0  0  0  0  0
    0.2360   11.8068   -3.5858 H   0  0  0  0  0  0  0  0  0  0  0  0
   -1.7678   11.3172   -2.3281 H   0  0  0  0  0  0  0  0  0  0  0  0
   -0.8774   10.3385   -1.1424 H   0  0  0  0  0  0  0  0  0  0  0  0
   -1.8404   12.9948   -0.7155 H   0  0  0  0  0  0  0  0  0  0  0  0
   -0.6514   12.1986    0.3119 H   0  0  0  0  0  0  0  0  0  0  0  0
   -1.1639   14.9678   -2.0247 H   0  0  0  0  0  0  0  0  0  0  0  0
    0.2768   14.7211   -3.0689 H   0  0  0  0  0  0  0  0  0  0  0  0
   -1.0504   13.5106   -3.0689 H   0  0  0  0  0  0  0  0  0  0  0  0
    1.2017   13.7403    0.5399 H   0  0  0  0  0  0  0  0  0  0  0  0
   -1.0582   14.9727    0.4465 H   0  0  0  0  0  0  0  0  0  0  0  0
    0.3741   15.6765    1.3646 H   0  0  0  0  0  0  0  0  0  0  0  0
   -1.0486   17.3768   -0.0571 H   0  0  0  0  0  0  0  0  0  0  0  0
    1.6802   15.9675   -2.6763 H   0  0  0  0  0  0  0  0  0  0  0  0
    3.3043   17.7724   -0.7772 H   0  0  0  0  0  0  0  0  0  0  0  0
    3.9428   16.8182   -2.1886 H   0  0  0  0  0  0  0  0  0  0  0  0
    3.6932   19.2217   -2.7195 H   0  0  0  0  0  0  0  0  0  0  0  0
    2.6330   18.1616   -3.7287 H   0  0  0  0  0  0  0  0  0  0  0  0
    1.3733   20.0858   -3.0457 H   0  0  0  0  0  0  0  0  0  0  0  0
    1.4070   19.4780   -0.3220 H   0  0  0  0  0  0  0  0  0  0  0  0
   -0.9849   17.2918   -3.4253 H   0  0  0  0  0  0  0  0  0  0  0  0
   -0.5353   18.9019   -4.0824 H   0  0  0  0  0  0  0  0  0  0  0  0
    0.6644   17.5650   -4.0824 H   0  0  0  0  0  0  0  0  0  0  0  0
   -0.7640   19.3072   -0.4326 H   0  0  0  0  0  0  0  0  0  0  0  0
   -0.6802   20.3826   -1.8690 H   0  0  0  0  0  0  0  0  0  0  0  0
   -1.7882   18.9687   -1.8690 H   0  0  0  0  0  0  0  0  0  0  0  0
    2.4825   15.2604    1.3607 H   0  0  0  0  0  0  0  0  0  0  0  0
    4.0033   15.0133    0.4373 H   0  0  0  0  0  0  0  0  0  0  0  0
    3.2039   16.6219    0.4373 H   0  0  0  0  0  0  0  0  0  0  0  0
    3.7635   14.7525   -2.2786 H   0  0  0  0  0  0  0  0  0  0  0  0
    3.6447   13.5368   -0.8845 H   0  0  0  0  0  0  0  0  0  0  0  0
    1.9431   13.6495   -3.3894 H   0  0  0  0  0  0  0  0  0  0  0  0
    3.1277   12.3807   -2.8856 H   0  0  0  0  0  0  0  0  0  0  0  0
    1.6381   11.9805    0.3645 H   0  0  0  0  0  0  0  0  0  0  0  0
    1.6961   10.5226   -0.6832 H   0  0  0  0  0  0  0  0  0  0  0  0
    3.0667   11.6837   -0.6832 H   0  0  0  0  0  0  0  0  0  0  0  0
  1  2  1  0
  2  3  1  0
  3  4  1  0
  4  5  1  0
  5  6  1  0
  6  7  1  0
  7  8  1  0
  7  9  1  0
  2 10  1  0
 10 11  1  0
 11 12  1  0
 12 13  1  0
 13 14  1  6
 13 15  1  0
 15 16  1  0
 16 17  1  0
 17 18  2  0
 18 19  1  0
 19 20  1  0
 20 21  1  0
 21 22  1  0
 22 23  1  0
 22 24  1  0
 24 25  1  0
 24 26  1  0
 19 27  1  0
 27 28  1  1
 27 29  1  0
 29 30  1  0
 30 31  1  0
 31 32  1  1
  7  5  1  0
 31 10  1  0
 31 13  1  0
 27 15  1  0
 24 18  1  0
  1 33  1  0
  1 34  1  0
  1 35  1  0
  2 36  1  6
  3 37  1  0
  3 38  1  0
  4 39  1  0
  4 40  1  0
  5 41  1  1
  8 42  1  0
  8 43  1  0
  8 44  1  0
  9 45  1  0
  9 46  1  0
  9 47  1  0
 10 48  1  6
 11 49  1  0
 11 50  1  0
 12 51  1  0
 12 52  1  0
 14 53  1  0
 14 54  1  0
 14 55  1  0
 15 56  1  1
 16 57  1  0
 16 58  1  0
 17 59  1  0
 19 60  1  6
 20 61  1  0
 20 62  1  0
 21 63  1  0
 21 64  1  0
 22 65  1  6
 23 66  1  0
 25 67  1  0
 25 68  1  0
 25 69  1  0
 26 70  1  0
 26 71  1  0
 26 72  1  0
 28 73  1  0
 28 74  1  0
 28 75  1  0
 29 76  1  0
 29 77  1  0
 30 78  1  0
 30 79  1  0
 32 80  1  0
 32 81  1  0
 32 82  1  0
M  END
>  <meeko>  (15) 
{"is_sidechain": [false], "intermolecular_energy": 2.731, "internal_energy": -0.839}

$$$$
EPH_relaxed_0001_pdb2pqr_Repair_150_r2_0001_out
     RDKit          3D

 82 86  0  0  0  0  0  0  0  0999 V2000
   -5.1120    5.9340   -1.7970 C   0  0  0  0  0  0  0  0  0  0  0  0
   -5.4490    7.4280   -1.8080 C   0  0  2  0  0  0  0  0  0  0  0  0
   -5.2330    8.0820   -0.4280 C   0  0  0  0  0  0  0  0  0  0  0  0
   -4.1690    9.1830   -0.4280 C   0  0  0  0  0  0  0  0  0  0  0  0
   -2.8190    8.6490   -0.8000 C   0  0  2  0  0  0  0  0  0  0  0  0
   -1.7770    8.9520    0.1360 O   0  0  0  0  0  0  0  0  0  0  0  0
   -1.6430    9.5330   -1.1710 C   0  0  0  0  0  0  0  0  0  0  0  0
   -1.7630   11.0240   -1.1900 C   0  0  0  0  0  0  0  0  0  0  0  0
   -0.5320    8.9420   -1.9820 C   0  0  0  0  0  0  0  0  0  0  0  0
   -6.8890    7.6320   -2.2620 C   0  0  1  0  0  0  0  0  0  0  0  0
   -7.1960    6.9290   -3.6110 C   0  0  0  0  0  0  0  0  0  0  0  0
   -8.6640    6.4340   -3.5340 C   0  0  0  0  0  0  0  0  0  0  0  0
   -9.2520    7.1500   -2.2950 C   0  0  1  0  0  0  0  0  0  0  0  0
   -9.6280    8.5790   -2.7990 C   0  0  0  0  0  0  0  0  0  0  0  0
  -10.4630    6.4460   -1.6010 C   0  0  2  0  0  0  0  0  0  0  0  0
  -11.7210    6.3000   -2.4740 C   0  0  0  0  0  0  0  0  0  0  0  0
  -12.6920    7.4320   -2.3890 C   0  0  0  0  0  0  0  0  0  0  0  0
  -12.7020    8.3830   -1.4370 C   0  0  0  0  0  0  0  0  0  0  0  0
  -11.7280    8.3230   -0.2530 C   0  0  1  0  0  0  0  0  0  0  0  0
  -12.4990    8.5950    1.0660 C   0  0  0  0  0  0  0  0  0  0  0  0
  -13.2880    9.9000    1.0250 C   0  0  0  0  0  0  0  0  0  0  0  0
  -14.2860    9.8970   -0.1300 C   0  0  2  0  0  0  0  0  0  0  0  0
  -15.2870    8.9080    0.1280 O   0  0  0  0  0  0  0  0  0  0  0  0
  -13.6260    9.6240   -1.5100 C   0  0  0  0  0  0  0  0  0  0  0  0
  -12.7680   10.8440   -1.9280 C   0  0  0  0  0  0  0  0  0  0  0  0
  -14.7580    9.5080   -2.5670 C   0  0  0  0  0  0  0  0  0  0  0  0
  -10.8160    7.0250   -0.1710 C   0  0  1  0  0  0  0  0  0  0  0  0
  -11.5690    5.8930    0.5940 C   0  0  0  0  0  0  0  0  0  0  0  0
   -9.5290    7.3530    0.6760 C   0  0  0  0  0  0  0  0  0  0  0  0
   -8.3250    7.9350   -0.0880 C   0  0  0  0  0  0  0  0  0  0  0  0
   -8.0100    7.1000   -1.3330 C   0  0  2  0  0  0  0  0  0  0  0  0
   -7.6070    5.6630   -0.8560 C   0  0  0  0  0  0  0  0  0  0  0  0
   -5.0330    5.5836   -0.7573 H   0  0  0  0  0  0  0  0  0  0  0  0
   -5.9066    5.3751   -2.3129 H   0  0  0  0  0  0  0  0  0  0  0  0
   -4.1544    5.7703   -2.3129 H   0  0  0  0  0  0  0  0  0  0  0  0
   -4.7635    7.9172   -2.5156 H   0  0  0  0  0  0  0  0  0  0  0  0
   -6.1865    8.5206   -0.0986 H   0  0  0  0  0  0  0  0  0  0  0  0
   -4.8778    7.2919    0.2499 H   0  0  0  0  0  0  0  0  0  0  0  0
   -4.4580    9.9581   -1.1531 H   0  0  0  0  0  0  0  0  0  0  0  0
   -4.1053    9.5984    0.5886 H   0  0  0  0  0  0  0  0  0  0  0  0
   -3.2737    7.7792   -1.2966 H   0  0  0  0  0  0  0  0  0  0  0  0
   -1.7935   11.4026   -0.1576 H   0  0  0  0  0  0  0  0  0  0  0  0
   -0.8966   11.4549   -1.7132 H   0  0  0  0  0  0  0  0  0  0  0  0
   -2.6871   11.3108   -1.7132 H   0  0  0  0  0  0  0  0  0  0  0  0
    0.2361    8.5334   -1.3089 H   0  0  0  0  0  0  0  0  0  0  0  0
   -0.9297    8.1362   -2.6165 H   0  0  0  0  0  0  0  0  0  0  0  0
   -0.0861    9.7221   -2.6165 H   0  0  0  0  0  0  0  0  0  0  0  0
   -6.9175    8.7311   -2.2951 H   0  0  0  0  0  0  0  0  0  0  0  0
   -7.0787    7.6387   -4.4432 H   0  0  0  0  0  0  0  0  0  0  0  0
   -6.5053    6.0909   -3.7857 H   0  0  0  0  0  0  0  0  0  0  0  0
   -9.2165    6.7139   -4.4430 H   0  0  0  0  0  0  0  0  0  0  0  0
   -8.7317    5.3390   -3.4546 H   0  0  0  0  0  0  0  0  0  0  0  0
   -9.8015    9.2384   -1.9358 H   0  0  0  0  0  0  0  0  0  0  0  0
   -8.8051    8.9813   -3.4082 H   0  0  0  0  0  0  0  0  0  0  0  0
  -10.5423    8.5242   -3.4082 H   0  0  0  0  0  0  0  0  0  0  0  0
  -10.0858    5.4241   -1.4481 H   0  0  0  0  0  0  0  0  0  0  0  0
  -11.3987    6.2067   -3.5216 H   0  0  0  0  0  0  0  0  0  0  0  0
  -12.2525    5.4143   -2.0958 H   0  0  0  0  0  0  0  0  0  0  0  0
  -13.4638    7.4933   -3.1704 H   0  0  0  0  0  0  0  0  0  0  0  0
  -10.9903    9.1206   -0.4249 H   0  0  0  0  0  0  0  0  0  0  0  0
  -13.1992    7.7652    1.2425 H   0  0  0  0  0  0  0  0  0  0  0  0
  -11.7577    8.6787    1.8744 H   0  0  0  0  0  0  0  0  0  0  0  0
  -13.8339   10.0207    1.9723 H   0  0  0  0  0  0  0  0  0  0  0  0
  -12.5836   10.7321    0.8787 H   0  0  0  0  0  0  0  0  0  0  0  0
  -14.7267   10.9033   -0.1869 H   0  0  0  0  0  0  0  0  0  0  0  0
  -16.1520    9.3520    0.1020 H   0  0  0  0  0  0  0  0  0  0  0  0
  -12.4039   11.3617   -1.0283 H   0  0  0  0  0  0  0  0  0  0  0  0
  -11.9107   10.5017   -2.5263 H   0  0  0  0  0  0  0  0  0  0  0  0
  -13.3800   11.5350   -2.5263 H   0  0  0  0  0  0  0  0  0  0  0  0
  -15.7274    9.4087   -2.0567 H   0  0  0  0  0  0  0  0  0  0  0  0
  -14.7657   10.4101   -3.1965 H   0  0  0  0  0  0  0  0  0  0  0  0
  -14.5826    8.6231   -3.1965 H   0  0  0  0  0  0  0  0  0  0  0  0
  -11.4643    6.0504    1.6776 H   0  0  0  0  0  0  0  0  0  0  0  0
  -12.6346    5.9127    0.3219 H   0  0  0  0  0  0  0  0  0  0  0  0
  -11.1390    4.9178    0.3219 H   0  0  0  0  0  0  0  0  0  0  0  0
   -9.8160    8.0809    1.4492 H   0  0  0  0  0  0  0  0  0  0  0  0
   -9.1834    6.3827    1.0621 H   0  0  0  0  0  0  0  0  0  0  0  0
   -8.5576    8.9653   -0.3951 H   0  0  0  0  0  0  0  0  0  0  0  0
   -7.4479    7.9198    0.5757 H   0  0  0  0  0  0  0  0  0  0  0  0
   -7.5979    5.6307    0.2435 H   0  0  0  0  0  0  0  0  0  0  0  0
   -8.3348    4.9322   -1.2383 H   0  0  0  0  0  0  0  0  0  0  0  0
   -6.6053    5.4172   -1.2383 H   0  0  0  0  0  0  0  0  0  0  0  0
  1  2  1  0
  2  3  1  0
  3  4  1  0
  4  5  1  0
  5  6  1  0
  6  7  1  0
  7  8  1  0
  7  9  1  0
  2 10  1  0
 10 11  1  0
 11 12  1  0
 12 13  1  0
 13 14  1  6
 13 15  1  0
 15 16  1  0
 16 17  1  0
 17 18  2  0
 18 19  1  0
 19 20  1  0
 20 21  1  0
 21 22  1  0
 22 23  1  0
 22 24  1  0
 24 25  1  0
 24 26  1  0
 19 27  1  0
 27 28  1  1
 27 29  1  0
 29 30  1  0
 30 31  1  0
 31 32  1  1
  7  5  1  0
 31 10  1  0
 31 13  1  0
 27 15  1  0
 24 18  1  0
  1 33  1  0
  1 34  1  0
  1 35  1  0
  2 36  1  6
  3 37  1  0
  3 38  1  0
  4 39  1  0
  4 40  1  0
  5 41  1  6
  8 42  1  0
  8 43  1  0
  8 44  1  0
  9 45  1  0
  9 46  1  0
  9 47  1  0
 10 48  1  6
 11 49  1  0
 11 50  1  0
 12 51  1  0
 12 52  1  0
 14 53  1  0
 14 54  1  0
 14 55  1  0
 15 56  1  1
 16 57  1  0
 16 58  1  0
 17 59  1  0
 19 60  1  6
 20 61  1  0
 20 62  1  0
 21 63  1  0
 21 64  1  0
 22 65  1  6
 23 66  1  0
 25 67  1  0
 25 68  1  0
 25 69  1  0
 26 70  1  0
 26 71  1  0
 26 72  1  0
 28 73  1  0
 28 74  1  0
 28 75  1  0
 29 76  1  0
 29 77  1  0
 30 78  1  0
 30 79  1  0
 32 80  1  0
 32 81  1  0
 32 82  1  0
M  END
>  <meeko>  (16) 
{"is_sidechain": [false], "intermolecular_energy": 2.731, "internal_energy": -0.839}

$$$$
EPH_relaxed_0001_pdb2pqr_Repair_150_r2_0001_out
     RDKit          3D

 82 86  0  0  0  0  0  0  0  0999 V2000
    2.0550   18.1120   -3.0580 C   0  0  0  0  0  0  0  0  0  0  0  0
    3.3810   17.7010   -2.4120 C   0  0  2  0  0  0  0  0  0  0  0  0
    4.5240   17.6060   -3.4420 C   0  0  0  0  0  0  0  0  0  0  0  0
    5.7030   16.7480   -2.9750 C   0  0  0  0  0  0  0  0  0  0  0  0
    5.4090   15.2840   -3.1020 C   0  0  2  0  0  0  0  0  0  0  0  0
    6.4570   14.4210   -2.6430 O   0  0  0  0  0  0  0  0  0  0  0  0
    6.1540   14.3590   -4.0460 C   0  0  0  0  0  0  0  0  0  0  0  0
    7.2530   14.8650   -4.9280 C   0  0  0  0  0  0  0  0  0  0  0  0
    5.4950   13.0820   -4.4650 C   0  0  0  0  0  0  0  0  0  0  0  0
    3.2160   16.3670   -1.6920 C   0  0  1  0  0  0  0  0  0  0  0  0
    3.4850   16.4740   -0.1680 C   0  0  0  0  0  0  0  0  0  0  0  0
    2.5140   15.4860    0.5280 C   0  0  0  0  0  0  0  0  0  0  0  0
    1.9590   14.6110   -0.6200 C   0  0  1  0  0  0  0  0  0  0  0  0
    3.0640   13.5390   -0.8780 C   0  0  0  0  0  0  0  0  0  0  0  0
    0.5620   13.9520   -0.3730 C   0  0  2  0  0  0  0  0  0  0  0  0
    0.5080   12.9570    0.7990 C   0  0  0  0  0  0  0  0  0  0  0  0
    0.8020   11.5370    0.4450 C   0  0  0  0  0  0  0  0  0  0  0  0
    0.8180   11.0300   -0.8020 C   0  0  0  0  0  0  0  0  0  0  0  0
    0.4240   11.8920   -2.0080 C   0  0  1  0  0  0  0  0  0  0  0  0
   -0.5490   11.0960   -2.9180 C   0  0  0  0  0  0  0  0  0  0  0  0
    0.0130    9.7380   -3.3290 C   0  0  0  0  0  0  0  0  0  0  0  0
    0.3380    8.8890   -2.1030 C   0  0  2  0  0  0  0  0  0  0  0  0
   -0.8840    8.5570   -1.4350 O   0  0  0  0  0  0  0  0  0  0  0  0
    1.3030    9.5920   -1.1090 C   0  0  0  0  0  0  0  0  0  0  0  0
    2.7190    9.6790   -1.7310 C   0  0  0  0  0  0  0  0  0  0  0  0
    1.4360    8.6880    0.1470 C   0  0  0  0  0  0  0  0  0  0  0  0
   -0.1090   13.3510   -1.6740 C   0  0  1  0  0  0  0  0  0  0  0  0
   -1.6440   13.3070   -1.4020 C   0  0  0  0  0  0  0  0  0  0  0  0
    0.0930   14.2740   -2.9330 C   0  0  0  0  0  0  0  0  0  0  0  0
    1.4510   14.9910   -3.0580 C   0  0  0  0  0  0  0  0  0  0  0  0
    1.8210   15.6950   -1.7500 C   0  0  2  0  0  0  0  0  0  0  0  0
    0.7390   16.7950   -1.4750 C   0  0  0  0  0  0  0  0  0  0  0  0
    1.3195   18.3400   -2.2724 H   0  0  0  0  0  0  0  0  0  0  0  0
    2.2123   19.0035   -3.6828 H   0  0  0  0  0  0  0  0  0  0  0  0
    1.6805   17.2878   -3.6828 H   0  0  0  0  0  0  0  0  0  0  0  0
    3.6536   18.4834   -1.6884 H   0  0  0  0  0  0  0  0  0  0  0  0
    4.1218   17.1692   -4.3680 H   0  0  0  0  0  0  0  0  0  0  0  0
    4.9078   18.6260   -3.5916 H   0  0  0  0  0  0  0  0  0  0  0  0
    6.5839   16.9890   -3.5881 H   0  0  0  0  0  0  0  0  0  0  0  0
    5.8883   16.9693   -1.9135 H   0  0  0  0  0  0  0  0  0  0  0  0
    4.3360   15.4618   -2.9377 H   0  0  0  0  0  0  0  0  0  0  0  0
    8.0771   15.2444   -4.3059 H   0  0  0  0  0  0  0  0  0  0  0  0
    7.6203   14.0453   -5.5630 H   0  0  0  0  0  0  0  0  0  0  0  0
    6.8690   15.6770   -5.5630 H   0  0  0  0  0  0  0  0  0  0  0  0
    5.2004   12.5112   -3.5720 H   0  0  0  0  0  0  0  0  0  0  0  0
    4.6020   13.3101   -5.0655 H   0  0  0  0  0  0  0  0  0  0  0  0
    6.1983   12.4863   -5.0655 H   0  0  0  0  0  0  0  0  0  0  0  0
    3.9471   15.7642   -2.2507 H   0  0  0  0  0  0  0  0  0  0  0  0
    4.5271   16.1998    0.0529 H   0  0  0  0  0  0  0  0  0  0  0  0
    3.3262   17.5020    0.1899 H   0  0  0  0  0  0  0  0  0  0  0  0
    3.0500   14.8678    1.2632 H   0  0  0  0  0  0  0  0  0  0  0  0
    1.7165   16.0043    1.0806 H   0  0  0  0  0  0  0  0  0  0  0  0
    3.4466   13.1678    0.0842 H   0  0  0  0  0  0  0  0  0  0  0  0
    2.6367   12.7022   -1.4500 H   0  0  0  0  0  0  0  0  0  0  0  0
    3.8874   13.9915   -1.4500 H   0  0  0  0  0  0  0  0  0  0  0  0
   -0.0530   14.8099   -0.0637 H   0  0  0  0  0  0  0  0  0  0  0  0
    1.2428   13.2786    1.5518 H   0  0  0  0  0  0  0  0  0  0  0  0
   -0.5303   12.9710    1.1620 H   0  0  0  0  0  0  0  0  0  0  0  0
    1.0242   10.8470    1.2724 H   0  0  0  0  0  0  0  0  0  0  0  0
    1.3580   12.0993   -2.5509 H   0  0  0  0  0  0  0  0  0  0  0  0
   -1.4913   10.9374   -2.3731 H   0  0  0  0  0  0  0  0  0  0  0  0
   -0.7054   11.6839   -3.8345 H   0  0  0  0  0  0  0  0  0  0  0  0
   -0.7314    9.2116   -3.9445 H   0  0  0  0  0  0  0  0  0  0  0  0
    0.9392    9.8994   -3.9001 H   0  0  0  0  0  0  0  0  0  0  0  0
    0.8561    7.9851   -2.4557 H   0  0  0  0  0  0  0  0  0  0  0  0
   -0.7120    8.5800   -0.4790 H   0  0  0  0  0  0  0  0  0  0  0  0
    3.4698    9.7251   -0.9284 H   0  0  0  0  0  0  0  0  0  0  0  0
    2.9014    8.7904   -2.3531 H   0  0  0  0  0  0  0  0  0  0  0  0
    2.7913   10.5833   -2.3531 H   0  0  0  0  0  0  0  0  0  0  0  0
    1.3453    9.3043    1.0536 H   0  0  0  0  0  0  0  0  0  0  0  0
    0.6399    7.9290    0.1385 H   0  0  0  0  0  0  0  0  0  0  0  0
    2.4170    8.1905    0.1385 H   0  0  0  0  0  0  0  0  0  0  0  0
   -1.8241   13.3018   -0.3169 H   0  0  0  0  0  0  0  0  0  0  0  0
   -2.1210   14.1918   -1.8486 H   0  0  0  0  0  0  0  0  0  0  0  0
   -2.0696   12.3963   -1.8486 H   0  0  0  0  0  0  0  0  0  0  0  0
   -0.0367   13.6485   -3.8285 H   0  0  0  0  0  0  0  0  0  0  0  0
   -0.6483   15.0790   -2.8217 H   0  0  0  0  0  0  0  0  0  0  0  0
    2.2278   14.2509   -3.3006 H   0  0  0  0  0  0  0  0  0  0  0  0
    1.3770   15.7463   -3.8542 H   0  0  0  0  0  0  0  0  0  0  0  0
    0.6135   16.9226   -0.3897 H   0  0  0  0  0  0  0  0  0  0  0  0
    1.0624   17.7470   -1.9212 H   0  0  0  0  0  0  0  0  0  0  0  0
   -0.2182   16.4874   -1.9212 H   0  0  0  0  0  0  0  0  0  0  0  0
  1  2  1  0
  2  3  1  0
  3  4  1  0
  4  5  1  0
  5  6  1  0
  6  7  1  0
  7  8  1  0
  7  9  1  0
  2 10  1  0
 10 11  1  0
 11 12  1  0
 12 13  1  0
 13 14  1  6
 13 15  1  0
 15 16  1  0
 16 17  1  0
 17 18  2  0
 18 19  1  0
 19 20  1  0
 20 21  1  0
 21 22  1  0
 22 23  1  0
 22 24  1  0
 24 25  1  0
 24 26  1  0
 19 27  1  0
 27 28  1  1
 27 29  1  0
 29 30  1  0
 30 31  1  0
 31 32  1  1
  7  5  1  0
 31 10  1  0
 31 13  1  0
 27 15  1  0
 24 18  1  0
  1 33  1  0
  1 34  1  0
  1 35  1  0
  2 36  1  1
  3 37  1  0
  3 38  1  0
  4 39  1  0
  4 40  1  0
  5 41  1  1
  8 42  1  0
  8 43  1  0
  8 44  1  0
  9 45  1  0
  9 46  1  0
  9 47  1  0
 10 48  1  6
 11 49  1  0
 11 50  1  0
 12 51  1  0
 12 52  1  0
 14 53  1  0
 14 54  1  0
 14 55  1  0
 15 56  1  1
 16 57  1  0
 16 58  1  0
 17 59  1  0
 19 60  1  6
 20 61  1  0
 20 62  1  0
 21 63  1  0
 21 64  1  0
 22 65  1  6
 23 66  1  0
 25 67  1  0
 25 68  1  0
 25 69  1  0
 26 70  1  0
 26 71  1  0
 26 72  1  0
 28 73  1  0
 28 74  1  0
 28 75  1  0
 29 76  1  0
 29 77  1  0
 30 78  1  0
 30 79  1  0
 32 80  1  0
 32 81  1  0
 32 82  1  0
M  END
>  <meeko>  (17) 
{"is_sidechain": [false], "intermolecular_energy": 2.731, "internal_energy": -0.839}

$$$$
EPH_relaxed_0001_pdb2pqr_Repair_150_r2_0001_out
     RDKit          3D

 82 86  0  0  0  0  0  0  0  0999 V2000
    4.0130   17.6400   -3.3150 C   0  0  0  0  0  0  0  0  0  0  0  0
    2.8620   17.5290   -2.3120 C   0  0  2  0  0  0  0  0  0  0  0  0
    2.9330   18.6190   -1.2240 C   0  0  0  0  0  0  0  0  0  0  0  0
    1.9640   19.7820   -1.4530 C   0  0  0  0  0  0  0  0  0  0  0  0
    0.8750   19.8080   -0.4240 C   0  0  2  0  0  0  0  0  0  0  0  0
    0.1770   18.5660   -0.2590 O   0  0  0  0  0  0  0  0  0  0  0  0
   -0.5980   19.6670   -0.7600 C   0  0  0  0  0  0  0  0  0  0  0  0
   -1.0630   19.4920   -2.1720 C   0  0  0  0  0  0  0  0  0  0  0  0
   -1.6070   20.1870    0.2160 C   0  0  0  0  0  0  0  0  0  0  0  0
    2.8650   16.1480   -1.6660 C   0  0  1  0  0  0  0  0  0  0  0  0
    3.4110   16.1690   -0.2140 C   0  0  0  0  0  0  0  0  0  0  0  0
    2.6100   15.1050    0.5800 C   0  0  0  0  0  0  0  0  0  0  0  0
    1.8720   14.2840   -0.5030 C   0  0  1  0  0  0  0  0  0  0  0  0
    2.9350   13.2710   -1.0320 C   0  0  0  0  0  0  0  0  0  0  0  0
    0.5620   13.5620   -0.0490 C   0  0  2  0  0  0  0  0  0  0  0  0
    0.7500   12.4940    1.0430 C   0  0  0  0  0  0  0  0  0  0  0  0
    1.0070   11.1100    0.5450 C   0  0  0  0  0  0  0  0  0  0  0  0
    0.8030   10.6820   -0.7150 C   0  0  0  0  0  0  0  0  0  0  0  0
    0.1710   11.6030   -1.7670 C   0  0  1  0  0  0  0  0  0  0  0  0
   -0.9350   10.8310   -2.5340 C   0  0  0  0  0  0  0  0  0  0  0  0
   -0.4270    9.5230   -3.1330 C   0  0  0  0  0  0  0  0  0  0  0  0
    0.1410    8.6110   -2.0480 C   0  0  2  0  0  0  0  0  0  0  0  0
   -0.9270    8.1950   -1.1910 O   0  0  0  0  0  0  0  0  0  0  0  0
    1.2570    9.2850   -1.2030 C   0  0  0  0  0  0  0  0  0  0  0  0
    2.5300    9.4620   -2.0680 C   0  0  0  0  0  0  0  0  0  0  0  0
    1.6430    8.3100   -0.0580 C   0  0  0  0  0  0  0  0  0  0  0  0
   -0.3250   13.0180   -1.2410 C   0  0  1  0  0  0  0  0  0  0  0  0
   -1.7820   12.9020   -0.6960 C   0  0  0  0  0  0  0  0  0  0  0  0
   -0.3830   14.0250   -2.4510 C   0  0  0  0  0  0  0  0  0  0  0  0
    0.9100   14.7970   -2.7750 C   0  0  0  0  0  0  0  0  0  0  0  0
    1.5010   15.4310   -1.5120 C   0  0  2  0  0  0  0  0  0  0  0  0
    0.4630   16.4720   -0.9690 C   0  0  0  0  0  0  0  0  0  0  0  0
    4.9651   17.7318   -2.7718 H   0  0  0  0  0  0  0  0  0  0  0  0
    4.0367   16.7400   -3.9470 H   0  0  0  0  0  0  0  0  0  0  0  0
    3.8643   18.5280   -3.9470 H   0  0  0  0  0  0  0  0  0  0  0  0
    1.9244   17.6770   -2.8678 H   0  0  0  0  0  0  0  0  0  0  0  0
    2.6977   18.1570   -0.2538 H   0  0  0  0  0  0  0  0  0  0  0  0
    3.9499   19.0374   -1.2544 H   0  0  0  0  0  0  0  0  0  0  0  0
    2.5240   20.7275   -1.4031 H   0  0  0  0  0  0  0  0  0  0  0  0
    1.4986   19.6506   -2.4410 H   0  0  0  0  0  0  0  0  0  0  0  0
    1.4275   20.5462    0.1757 H   0  0  0  0  0  0  0  0  0  0  0  0
   -2.0925   19.1046   -2.1736 H   0  0  0  0  0  0  0  0  0  0  0  0
   -1.0355   20.4620   -2.6900 H   0  0  0  0  0  0  0  0  0  0  0  0
   -0.4028   18.7808   -2.6900 H   0  0  0  0  0  0  0  0  0  0  0  0
   -1.2531   20.0046    1.2414 H   0  0  0  0  0  0  0  0  0  0  0  0
   -1.7432   21.2676    0.0619 H   0  0  0  0  0  0  0  0  0  0  0  0
   -2.5661   19.6709    0.0619 H   0  0  0  0  0  0  0  0  0  0  0  0
    3.4931   15.6080   -2.3898 H   0  0  0  0  0  0  0  0  0  0  0  0
    4.4822   15.9189   -0.2084 H   0  0  0  0  0  0  0  0  0  0  0  0
    3.2978   17.1662    0.2364 H   0  0  0  0  0  0  0  0  0  0  0  0
    3.2879   14.4617    1.1602 H   0  0  0  0  0  0  0  0  0  0  0  0
    1.9171   15.5588    1.3038 H   0  0  0  0  0  0  0  0  0  0  0  0
    3.4392   12.7905   -0.1806 H   0  0  0  0  0  0  0  0  0  0  0  0
    2.4379   12.5041   -1.6441 H   0  0  0  0  0  0  0  0  0  0  0  0
    3.6771   13.8045   -1.6441 H   0  0  0  0  0  0  0  0  0  0  0  0
   -0.0040   14.3778    0.4244 H   0  0  0  0  0  0  0  0  0  0  0  0
    1.6038   12.7941    1.6683 H   0  0  0  0  0  0  0  0  0  0  0  0
   -0.2030   12.4480    1.5905 H   0  0  0  0  0  0  0  0  0  0  0  0
    1.3958   10.3785    1.2687 H   0  0  0  0  0  0  0  0  0  0  0  0
    0.9819   11.8772   -2.4579 H   0  0  0  0  0  0  0  0  0  0  0  0
   -1.7552   10.6045   -1.8368 H   0  0  0  0  0  0  0  0  0  0  0  0
   -1.2736   11.4690   -3.3636 H   0  0  0  0  0  0  0  0  0  0  0  0
   -1.2600    9.0095   -3.6354 H   0  0  0  0  0  0  0  0  0  0  0  0
    0.3725    9.7532   -3.8526 H   0  0  0  0  0  0  0  0  0  0  0  0
    0.6060    7.7501   -2.5505 H   0  0  0  0  0  0  0  0  0  0  0  0
   -1.6890    8.7720   -1.3680 H   0  0  0  0  0  0  0  0  0  0  0  0
    3.4048    9.5836   -1.4123 H   0  0  0  0  0  0  0  0  0  0  0  0
    2.6682    8.5744   -2.7029 H   0  0  0  0  0  0  0  0  0  0  0  0
    2.4208   10.3536   -2.7029 H   0  0  0  0  0  0  0  0  0  0  0  0
    1.4526    8.7909    0.9128 H   0  0  0  0  0  0  0  0  0  0  0  0
    1.0398    7.3936   -0.1378 H   0  0  0  0  0  0  0  0  0  0  0  0
    2.7100    8.0548   -0.1378 H   0  0  0  0  0  0  0  0  0  0  0  0
   -1.7633   12.9035    0.4038 H   0  0  0  0  0  0  0  0  0  0  0  0
   -2.3764   13.7557   -1.0538 H   0  0  0  0  0  0  0  0  0  0  0  0
   -2.2338   11.9650   -1.0538 H   0  0  0  0  0  0  0  0  0  0  0  0
   -0.6620   13.4521   -3.3476 H   0  0  0  0  0  0  0  0  0  0  0  0
   -1.1097   14.7942   -2.1506 H   0  0  0  0  0  0  0  0  0  0  0  0
    1.6454   14.1022   -3.2068 H   0  0  0  0  0  0  0  0  0  0  0  0
    0.6706   15.5976   -3.4903 H   0  0  0  0  0  0  0  0  0  0  0  0
    0.4739   16.4611    0.1309 H   0  0  0  0  0  0  0  0  0  0  0  0
    0.7293   17.4770   -1.3284 H   0  0  0  0  0  0  0  0  0  0  0  0
   -0.5427   16.2086   -1.3284 H   0  0  0  0  0  0  0  0  0  0  0  0
  1  2  1  0
  2  3  1  0
  3  4  1  0
  4  5  1  0
  5  6  1  0
  6  7  1  0
  7  8  1  0
  7  9  1  0
  2 10  1  0
 10 11  1  0
 11 12  1  0
 12 13  1  0
 13 14  1  6
 13 15  1  0
 15 16  1  0
 16 17  1  0
 17 18  2  0
 18 19  1  0
 19 20  1  0
 20 21  1  0
 21 22  1  0
 22 23  1  0
 22 24  1  0
 24 25  1  0
 24 26  1  0
 19 27  1  0
 27 28  1  1
 27 29  1  0
 29 30  1  0
 30 31  1  0
 31 32  1  1
  7  5  1  0
 31 10  1  0
 31 13  1  0
 27 15  1  0
 24 18  1  0
  1 33  1  0
  1 34  1  0
  1 35  1  0
  2 36  1  6
  3 37  1  0
  3 38  1  0
  4 39  1  0
  4 40  1  0
  5 41  1  1
  8 42  1  0
  8 43  1  0
  8 44  1  0
  9 45  1  0
  9 46  1  0
  9 47  1  0
 10 48  1  6
 11 49  1  0
 11 50  1  0
 12 51  1  0
 12 52  1  0
 14 53  1  0
 14 54  1  0
 14 55  1  0
 15 56  1  1
 16 57  1  0
 16 58  1  0
 17 59  1  0
 19 60  1  6
 20 61  1  0
 20 62  1  0
 21 63  1  0
 21 64  1  0
 22 65  1  6
 23 66  1  0
 25 67  1  0
 25 68  1  0
 25 69  1  0
 26 70  1  0
 26 71  1  0
 26 72  1  0
 28 73  1  0
 28 74  1  0
 28 75  1  0
 29 76  1  0
 29 77  1  0
 30 78  1  0
 30 79  1  0
 32 80  1  0
 32 81  1  0
 32 82  1  0
M  END
>  <meeko>  (18) 
{"is_sidechain": [false], "intermolecular_energy": 2.731, "internal_energy": -0.839}

$$$$
EPH_relaxed_0001_pdb2pqr_Repair_150_r2_0001_out
     RDKit          3D

 82 86  0  0  0  0  0  0  0  0999 V2000
    4.5350   17.5600   -2.2640 C   0  0  0  0  0  0  0  0  0  0  0  0
    5.0320   16.1530   -1.9180 C   0  0  2  0  0  0  0  0  0  0  0  0
    5.5130   15.3850   -3.1650 C   0  0  0  0  0  0  0  0  0  0  0  0
    5.7820   13.9000   -2.9070 C   0  0  0  0  0  0  0  0  0  0  0  0
    6.1850   13.1830   -4.1610 C   0  0  2  0  0  0  0  0  0  0  0  0
    5.1080   12.9130   -5.0680 O   0  0  0  0  0  0  0  0  0  0  0  0
    5.7530   11.7660   -4.4900 C   0  0  0  0  0  0  0  0  0  0  0  0
    4.8810   10.9810   -3.5610 C   0  0  0  0  0  0  0  0  0  0  0  0
    6.5700   10.9780   -5.4660 C   0  0  0  0  0  0  0  0  0  0  0  0
    3.9270   15.3700   -1.2180 C   0  0  1  0  0  0  0  0  0  0  0  0
    3.1950   16.2080   -0.1370 C   0  0  0  0  0  0  0  0  0  0  0  0
    1.7110   15.7600   -0.1530 C   0  0  0  0  0  0  0  0  0  0  0  0
    1.7040   14.4630   -0.9970 C   0  0  1  0  0  0  0  0  0  0  0  0
    2.1630   13.3420   -0.0120 C   0  0  0  0  0  0  0  0  0  0  0  0
    0.3540   14.1000   -1.6960 C   0  0  2  0  0  0  0  0  0  0  0  0
   -0.8230   13.8290   -0.7420 C   0  0  0  0  0  0  0  0  0  0  0  0
   -0.9850   12.4070   -0.3170 C   0  0  0  0  0  0  0  0  0  0  0  0
   -0.4000   11.3450   -0.9020 C   0  0  0  0  0  0  0  0  0  0  0  0
    0.4460   11.5110   -2.1710 C   0  0  1  0  0  0  0  0  0  0  0  0
    0.0450   10.4270   -3.2060 C   0  0  0  0  0  0  0  0  0  0  0  0
    0.1220    9.0150   -2.6340 C   0  0  0  0  0  0  0  0  0  0  0  0
   -0.7770    8.8730   -1.4080 C   0  0  2  0  0  0  0  0  0  0  0  0
   -2.1420    8.9930   -1.8210 O   0  0  0  0  0  0  0  0  0  0  0  0
   -0.4720    9.9200   -0.3000 C   0  0  0  0  0  0  0  0  0  0  0  0
    0.8930    9.6000    0.3570 C   0  0  0  0  0  0  0  0  0  0  0  0
   -1.5390    9.7580    0.8160 C   0  0  0  0  0  0  0  0  0  0  0  0
    0.4770   12.9710   -2.7970 C   0  0  1  0  0  0  0  0  0  0  0  0
   -0.7300   13.1600   -3.7660 C   0  0  0  0  0  0  0  0  0  0  0  0
    1.7770   13.1270   -3.6720 C   0  0  0  0  0  0  0  0  0  0  0  0
    3.0490   13.6040   -2.9460 C   0  0  0  0  0  0  0  0  0  0  0  0
    2.7630   14.8440   -2.0940 C   0  0  2  0  0  0  0  0  0  0  0  0
    2.3210   15.9960   -3.0600 C   0  0  0  0  0  0  0  0  0  0  0  0
    4.3380   18.1177   -1.3365 H   0  0  0  0  0  0  0  0  0  0  0  0
    5.3019   18.0855   -2.8520 H   0  0  0  0  0  0  0  0  0  0  0  0
    3.6082   17.4872   -2.8520 H   0  0  0  0  0  0  0  0  0  0  0  0
    5.8947   16.2622   -1.2444 H   0  0  0  0  0  0  0  0  0  0  0  0
    4.7403   15.4679   -3.9435 H   0  0  0  0  0  0  0  0  0  0  0  0
    6.4680   15.8362   -3.4721 H   0  0  0  0  0  0  0  0  0  0  0  0
    6.5913   13.8075   -2.1678 H   0  0  0  0  0  0  0  0  0  0  0  0
    4.8534   13.4431   -2.5343 H   0  0  0  0  0  0  0  0  0  0  0  0
    7.1713   13.6699   -4.1510 H   0  0  0  0  0  0  0  0  0  0  0  0
    5.1458   11.2194   -2.5203 H   0  0  0  0  0  0  0  0  0  0  0  0
    3.8272   11.2408   -3.7399 H   0  0  0  0  0  0  0  0  0  0  0  0
    5.0290    9.9058   -3.7399 H   0  0  0  0  0  0  0  0  0  0  0  0
    7.2568   10.3156   -4.9187 H   0  0  0  0  0  0  0  0  0  0  0  0
    5.9033   10.3732   -6.0982 H   0  0  0  0  0  0  0  0  0  0  0  0
    7.1503   11.6661   -6.0982 H   0  0  0  0  0  0  0  0  0  0  0  0
    4.5163   14.5259   -0.8304 H   0  0  0  0  0  0  0  0  0  0  0  0
    3.6371   16.0191    0.8524 H   0  0  0  0  0  0  0  0  0  0  0  0
    3.2849   17.2846   -0.3439 H   0  0  0  0  0  0  0  0  0  0  0  0
    1.3545   15.5606    0.8684 H   0  0  0  0  0  0  0  0  0  0  0  0
    1.0466   16.5319   -0.5687 H   0  0  0  0  0  0  0  0  0  0  0  0
    2.0229   13.6842    1.0240 H   0  0  0  0  0  0  0  0  0  0  0  0
    1.5636   12.4356   -0.1830 H   0  0  0  0  0  0  0  0  0  0  0  0
    3.2259   13.1163   -0.1830 H   0  0  0  0  0  0  0  0  0  0  0  0
    0.1032   15.0328   -2.2223 H   0  0  0  0  0  0  0  0  0  0  0  0
   -0.6757   14.4391    0.1614 H   0  0  0  0  0  0  0  0  0  0  0  0
   -1.7342   14.0848   -1.3026 H   0  0  0  0  0  0  0  0  0  0  0  0
   -1.6372   12.2105    0.5467 H   0  0  0  0  0  0  0  0  0  0  0  0
    1.4912   11.3629   -1.8617 H   0  0  0  0  0  0  0  0  0  0  0  0
   -0.9870   10.6183   -3.5351 H   0  0  0  0  0  0  0  0  0  0  0  0
    0.7549   10.4868   -4.0441 H   0  0  0  0  0  0  0  0  0  0  0  0
   -0.2011    8.2972   -3.4024 H   0  0  0  0  0  0  0  0  0  0  0  0
    1.1608    8.8144   -2.3327 H   0  0  0  0  0  0  0  0  0  0  0  0
   -0.5807    7.8843   -0.9676 H   0  0  0  0  0  0  0  0  0  0  0  0
   -2.1810    9.6760   -2.5120 H   0  0  0  0  0  0  0  0  0  0  0  0
    0.7878    9.6247    1.4517 H   0  0  0  0  0  0  0  0  0  0  0  0
    1.2255    8.5996    0.0430 H   0  0  0  0  0  0  0  0  0  0  0  0
    1.6355   10.3484    0.0430 H   0  0  0  0  0  0  0  0  0  0  0  0
   -1.0539    9.8316    1.8005 H   0  0  0  0  0  0  0  0  0  0  0  0
   -2.2944   10.5518    0.7191 H   0  0  0  0  0  0  0  0  0  0  0  0
   -2.0247    8.7758    0.7191 H   0  0  0  0  0  0  0  0  0  0  0  0
   -1.6505   13.3041   -3.1813 H   0  0  0  0  0  0  0  0  0  0  0  0
   -0.5565   14.0419   -4.4001 H   0  0  0  0  0  0  0  0  0  0  0  0
   -0.8344   12.2673   -4.4001 H   0  0  0  0  0  0  0  0  0  0  0  0
    1.9969   12.1464   -4.1193 H   0  0  0  0  0  0  0  0  0  0  0  0
    1.5434   13.9215   -4.3960 H   0  0  0  0  0  0  0  0  0  0  0  0
    3.4154   12.7968   -2.2947 H   0  0  0  0  0  0  0  0  0  0  0  0
    3.8060   13.8644   -3.7004 H   0  0  0  0  0  0  0  0  0  0  0  0
    1.9886   16.8624   -2.4694 H   0  0  0  0  0  0  0  0  0  0  0  0
    3.1706   16.2888   -3.6943 H   0  0  0  0  0  0  0  0  0  0  0  0
    1.4935   15.6454   -3.6943 H   0  0  0  0  0  0  0  0  0  0  0  0
  1  2  1  0
  2  3  1  0
  3  4  1  0
  4  5  1  0
  5  6  1  0
  6  7  1  0
  7  8  1  0
  7  9  1  0
  2 10  1  0
 10 11  1  0
 11 12  1  0
 12 13  1  0
 13 14  1  1
 13 15  1  0
 15 16  1  0
 16 17  1  0
 17 18  2  0
 18 19  1  0
 19 20  1  0
 20 21  1  0
 21 22  1  0
 22 23  1  0
 22 24  1  0
 24 25  1  0
 24 26  1  0
 19 27  1  0
 27 28  1  6
 27 29  1  0
 29 30  1  0
 30 31  1  0
 31 32  1  6
  7  5  1  0
 31 10  1  0
 31 13  1  0
 27 15  1  0
 24 18  1  0
  1 33  1  0
  1 34  1  0
  1 35  1  0
  2 36  1  1
  3 37  1  0
  3 38  1  0
  4 39  1  0
  4 40  1  0
  5 41  1  6
  8 42  1  0
  8 43  1  0
  8 44  1  0
  9 45  1  0
  9 46  1  0
  9 47  1  0
 10 48  1  1
 11 49  1  0
 11 50  1  0
 12 51  1  0
 12 52  1  0
 14 53  1  0
 14 54  1  0
 14 55  1  0
 15 56  1  6
 16 57  1  0
 16 58  1  0
 17 59  1  0
 19 60  1  1
 20 61  1  0
 20 62  1  0
 21 63  1  0
 21 64  1  0
 22 65  1  1
 23 66  1  0
 25 67  1  0
 25 68  1  0
 25 69  1  0
 26 70  1  0
 26 71  1  0
 26 72  1  0
 28 73  1  0
 28 74  1  0
 28 75  1  0
 29 76  1  0
 29 77  1  0
 30 78  1  0
 30 79  1  0
 32 80  1  0
 32 81  1  0
 32 82  1  0
M  END
>  <meeko>  (19) 
{"is_sidechain": [false], "intermolecular_energy": 2.731, "internal_energy": -0.839}

$$$$
