EPH_relaxed_0001_pdb2pqr_Repair_122_r2_0001_out
     RDKit          3D

 82 86  0  0  0  0  0  0  0  0999 V2000
   -1.7040    8.5880   -1.8950 C   0  0  0  0  0  0  0  0  0  0  0  0
   -2.0740    9.0970   -0.4990 C   0  0  2  0  0  0  0  0  0  0  0  0
   -3.5700    9.4540   -0.3890 C   0  0  0  0  0  0  0  0  0  0  0  0
   -4.4860    8.2340   -0.2620 C   0  0  0  0  0  0  0  0  0  0  0  0
   -5.1830    7.9270   -1.5530 C   0  0  2  0  0  0  0  0  0  0  0  0
   -6.3830    8.6790   -1.7790 O   0  0  0  0  0  0  0  0  0  0  0  0
   -6.5430    7.2590   -1.6310 C   0  0  0  0  0  0  0  0  0  0  0  0
   -7.2870    6.8560   -0.3960 C   0  0  0  0  0  0  0  0  0  0  0  0
   -6.9260    6.5610   -2.8990 C   0  0  0  0  0  0  0  0  0  0  0  0
   -1.2220   10.3110   -0.1460 C   0  0  1  0  0  0  0  0  0  0  0  0
   -0.1930   10.0120    0.9770 C   0  0  0  0  0  0  0  0  0  0  0  0
    1.0740   10.8460    0.6560 C   0  0  0  0  0  0  0  0  0  0  0  0
    0.6200   11.8390   -0.4390 C   0  0  1  0  0  0  0  0  0  0  0  0
   -0.0950   12.9900    0.3350 C   0  0  0  0  0  0  0  0  0  0  0  0
    1.7400   12.3870   -1.3830 C   0  0  2  0  0  0  0  0  0  0  0  0
    2.8370   13.2090   -0.6850 C   0  0  0  0  0  0  0  0  0  0  0  0
    2.5790   14.6770   -0.6030 C   0  0  0  0  0  0  0  0  0  0  0  0
    1.6550   15.3500   -1.3140 C   0  0  0  0  0  0  0  0  0  0  0  0
    0.8170   14.6410   -2.3860 C   0  0  1  0  0  0  0  0  0  0  0  0
    0.7900   15.5020   -3.6760 C   0  0  0  0  0  0  0  0  0  0  0  0
    0.3180   16.9300   -3.4160 C   0  0  0  0  0  0  0  0  0  0  0  0
    1.2110   17.6210   -2.3890 C   0  0  2  0  0  0  0  0  0  0  0  0
    2.5140   17.7960   -2.9540 O   0  0  0  0  0  0  0  0  0  0  0  0
    1.3220   16.8390   -1.0500 C   0  0  0  0  0  0  0  0  0  0  0  0
   -0.0270   16.9090   -0.2920 C   0  0  0  0  0  0  0  0  0  0  0  0
    2.3610   17.5690   -0.1560 C   0  0  0  0  0  0  0  0  0  0  0  0
    1.1970   13.1240   -2.6730 C   0  0  1  0  0  0  0  0  0  0  0  0
    2.3340   13.0530   -3.7380 C   0  0  0  0  0  0  0  0  0  0  0  0
   -0.0470   12.3920   -3.3020 C   0  0  0  0  0  0  0  0  0  0  0  0
   -1.0560   11.7690   -2.3190 C   0  0  0  0  0  0  0  0  0  0  0  0
   -0.3410   10.9120   -1.2690 C   0  0  2  0  0  0  0  0  0  0  0  0
    0.3690    9.7330   -2.0170 C   0  0  0  0  0  0  0  0  0  0  0  0
   -1.0595    7.7014   -1.8031 H   0  0  0  0  0  0  0  0  0  0  0  0
   -2.6198    8.3204   -2.4424 H   0  0  0  0  0  0  0  0  0  0  0  0
   -1.1669    9.3766   -2.4424 H   0  0  0  0  0  0  0  0  0  0  0  0
   -1.8753    8.2830    0.2136 H   0  0  0  0  0  0  0  0  0  0  0  0
   -3.7113   10.0883    0.4985 H   0  0  0  0  0  0  0  0  0  0  0  0
   -3.8471    9.9685   -1.3209 H   0  0  0  0  0  0  0  0  0  0  0  0
   -3.8814    7.3635    0.0325 H   0  0  0  0  0  0  0  0  0  0  0  0
   -5.2512    8.4573    0.4960 H   0  0  0  0  0  0  0  0  0  0  0  0
   -4.2243    7.7086   -2.0461 H   0  0  0  0  0  0  0  0  0  0  0  0
   -6.7169    7.1648    0.4926 H   0  0  0  0  0  0  0  0  0  0  0  0
   -8.2731    7.3433   -0.3866 H   0  0  0  0  0  0  0  0  0  0  0  0
   -7.4176    5.7638   -0.3866 H   0  0  0  0  0  0  0  0  0  0  0  0
   -7.4423    5.6201   -2.6580 H   0  0  0  0  0  0  0  0  0  0  0  0
   -7.5959    7.2071   -3.4853 H   0  0  0  0  0  0  0  0  0  0  0  0
   -6.0211    6.3430   -3.4853 H   0  0  0  0  0  0  0  0  0  0  0  0
   -2.0164   11.0203    0.1293 H   0  0  0  0  0  0  0  0  0  0  0  0
   -0.6027   10.3064    1.9545 H   0  0  0  0  0  0  0  0  0  0  0  0
    0.0417    8.9383    1.0221 H   0  0  0  0  0  0  0  0  0  0  0  0
    1.4207   11.3854    1.5498 H   0  0  0  0  0  0  0  0  0  0  0  0
    1.9148   10.2177    0.3268 H   0  0  0  0  0  0  0  0  0  0  0  0
    0.0084   12.8235    1.4174 H   0  0  0  0  0  0  0  0  0  0  0  0
    0.3642   13.9529    0.0666 H   0  0  0  0  0  0  0  0  0  0  0  0
   -1.1616   13.0050    0.0666 H   0  0  0  0  0  0  0  0  0  0  0  0
    2.2315   11.4647   -1.7262 H   0  0  0  0  0  0  0  0  0  0  0  0
    2.9486   12.8257    0.3400 H   0  0  0  0  0  0  0  0  0  0  0  0
    3.7418   13.0929   -1.2997 H   0  0  0  0  0  0  0  0  0  0  0  0
    3.1963   15.2582    0.0979 H   0  0  0  0  0  0  0  0  0  0  0  0
   -0.1985   14.5576   -1.9714 H   0  0  0  0  0  0  0  0  0  0  0  0
    1.8053   15.5374   -4.0978 H   0  0  0  0  0  0  0  0  0  0  0  0
    0.0782   15.0366   -4.3736 H   0  0  0  0  0  0  0  0  0  0  0  0
    0.3483   17.4964   -4.3585 H   0  0  0  0  0  0  0  0  0  0  0  0
   -0.7082   16.8943   -3.0216 H   0  0  0  0  0  0  0  0  0  0  0  0
    0.7494   18.5902   -2.1490 H   0  0  0  0  0  0  0  0  0  0  0  0
    2.7010   18.7500   -2.9700 H   0  0  0  0  0  0  0  0  0  0  0  0
    0.1605   16.8993    0.7919 H   0  0  0  0  0  0  0  0  0  0  0  0
   -0.5532   17.8357   -0.5648 H   0  0  0  0  0  0  0  0  0  0  0  0
   -0.6463   16.0418   -0.5648 H   0  0  0  0  0  0  0  0  0  0  0  0
    2.1178   17.3981    0.9031 H   0  0  0  0  0  0  0  0  0  0  0  0
    3.3669   17.1781   -0.3689 H   0  0  0  0  0  0  0  0  0  0  0  0
    2.3342   18.6479   -0.3689 H   0  0  0  0  0  0  0  0  0  0  0  0
    3.3082   12.9922   -3.2308 H   0  0  0  0  0  0  0  0  0  0  0  0
    2.1919   12.1620   -4.3672 H   0  0  0  0  0  0  0  0  0  0  0  0
    2.3039   13.9548   -4.3672 H   0  0  0  0  0  0  0  0  0  0  0  0
   -0.5899   13.1260   -3.9156 H   0  0  0  0  0  0  0  0  0  0  0  0
    0.3714   11.5427   -3.8620 H   0  0  0  0  0  0  0  0  0  0  0  0
   -1.6079   12.5739   -1.8115 H   0  0  0  0  0  0  0  0  0  0  0  0
   -1.7464   11.1265   -2.8852 H   0  0  0  0  0  0  0  0  0  0  0  0
    0.7907    9.0328   -1.2809 H   0  0  0  0  0  0  0  0  0  0  0  0
   -0.3619    9.2058   -2.6477 H   0  0  0  0  0  0  0  0  0  0  0  0
    1.1769   10.1325   -2.6477 H   0  0  0  0  0  0  0  0  0  0  0  0
  1  2  1  0
  2  3  1  0
  3  4  1  0
  4  5  1  0
  5  6  1  0
  6  7  1  0
  7  8  1  0
  7  9  1  0
  2 10  1  0
 10 11  1  0
 11 12  1  0
 12 13  1  0
 13 14  1  1
 13 15  1  0
 15 16  1  0
 16 17  1  0
 17 18  2  0
 18 19  1  0
 19 20  1  0
 20 21  1  0
 21 22  1  0
 22 23  1  0
 22 24  1  0
 24 25  1  0
 24 26  1  0
 19 27  1  0
 27 28  1  6
 27 29  1  0
 29 30  1  0
 30 31  1  0
 31 32  1  6
  7  5  1  0
 31 10  1  0
 31 13  1  0
 27 15  1  0
 24 18  1  0
  1 33  1  0
  1 34  1  0
  1 35  1  0
  2 36  1  1
  3 37  1  0
  3 38  1  0
  4 39  1  0
  4 40  1  0
  5 41  1  6
  8 42  1  0
  8 43  1  0
  8 44  1  0
  9 45  1  0
  9 46  1  0
  9 47  1  0
 10 48  1  1
 11 49  1  0
 11 50  1  0
 12 51  1  0
 12 52  1  0
 14 53  1  0
 14 54  1  0
 14 55  1  0
 15 56  1  6
 16 57  1  0
 16 58  1  0
 17 59  1  0
 19 60  1  1
 20 61  1  0
 20 62  1  0
 21 63  1  0
 21 64  1  0
 22 65  1  1
 23 66  1  0
 25 67  1  0
 25 68  1  0
 25 69  1  0
 26 70  1  0
 26 71  1  0
 26 72  1  0
 28 73  1  0
 28 74  1  0
 28 75  1  0
 29 76  1  0
 29 77  1  0
 30 78  1  0
 30 79  1  0
 32 80  1  0
 32 81  1  0
 32 82  1  0
M  END
>  <meeko>  (1) 
{"is_sidechain": [false], "intermolecular_energy": 2.731, "internal_energy": -0.839}

$$$$
EPH_relaxed_0001_pdb2pqr_Repair_122_r2_0001_out
     RDKit          3D

 82 86  0  0  0  0  0  0  0  0999 V2000
    2.4580   18.0140   -2.6250 C   0  0  0  0  0  0  0  0  0  0  0  0
    1.1140   17.6700   -1.9770 C   0  0  2  0  0  0  0  0  0  0  0  0
    1.1730   17.7560   -0.4380 C   0  0  0  0  0  0  0  0  0  0  0  0
    0.8130   19.1380    0.1150 C   0  0  0  0  0  0  0  0  0  0  0  0
   -0.6340   19.2220    0.4960 C   0  0  2  0  0  0  0  0  0  0  0  0
   -1.4860   18.2860   -0.1780 O   0  0  0  0  0  0  0  0  0  0  0  0
   -1.7250   19.6750   -0.4560 C   0  0  0  0  0  0  0  0  0  0  0  0
   -1.4150   20.0750   -1.8650 C   0  0  0  0  0  0  0  0  0  0  0  0
   -3.0070   20.1930    0.1180 C   0  0  0  0  0  0  0  0  0  0  0  0
    0.6730   16.2750   -2.4030 C   0  0  1  0  0  0  0  0  0  0  0  0
    0.8100   16.0460   -3.9320 C   0  0  0  0  0  0  0  0  0  0  0  0
    1.2120   14.5620   -4.1290 C   0  0  0  0  0  0  0  0  0  0  0  0
    0.9700   13.9060   -2.7490 C   0  0  1  0  0  0  0  0  0  0  0  0
   -0.5640   13.6170   -2.7050 C   0  0  0  0  0  0  0  0  0  0  0  0
    1.8080   12.6240   -2.4360 C   0  0  2  0  0  0  0  0  0  0  0  0
    1.5480   11.4300   -3.3710 C   0  0  0  0  0  0  0  0  0  0  0  0
    0.4730   10.4950   -2.9270 C   0  0  0  0  0  0  0  0  0  0  0  0
   -0.0590   10.4450   -1.6910 C   0  0  0  0  0  0  0  0  0  0  0  0
    0.4900   11.3250   -0.5610 C   0  0  1  0  0  0  0  0  0  0  0  0
    0.6800   10.4680    0.7180 C   0  0  0  0  0  0  0  0  0  0  0  0
   -0.5920    9.7280    1.1200 C   0  0  0  0  0  0  0  0  0  0  0  0
   -1.0750    8.8190   -0.0080 C   0  0  2  0  0  0  0  0  0  0  0  0
   -0.1210    7.7690   -0.1930 O   0  0  0  0  0  0  0  0  0  0  0  0
   -1.2910    9.5710   -1.3510 C   0  0  0  0  0  0  0  0  0  0  0  0
   -2.5270   10.4980   -1.2340 C   0  0  0  0  0  0  0  0  0  0  0  0
   -1.6390    8.5180   -2.4370 C   0  0  0  0  0  0  0  0  0  0  0  0
    1.7780   12.1850   -0.9160 C   0  0  1  0  0  0  0  0  0  0  0  0
    3.0660   11.3400   -0.6710 C   0  0  0  0  0  0  0  0  0  0  0  0
    1.8610   13.4150    0.0640 C   0  0  0  0  0  0  0  0  0  0  0  0
    1.1100   14.6920   -0.3590 C   0  0  0  0  0  0  0  0  0  0  0  0
    1.4440   15.0710   -1.8050 C   0  0  2  0  0  0  0  0  0  0  0  0
    2.9760   15.3890   -1.8750 C   0  0  0  0  0  0  0  0  0  0  0  0
    3.2050   18.2052   -1.8405 H   0  0  0  0  0  0  0  0  0  0  0  0
    2.7899   17.1719   -3.2500 H   0  0  0  0  0  0  0  0  0  0  0  0
    2.3445   18.9121   -3.2500 H   0  0  0  0  0  0  0  0  0  0  0  0
    0.3805   18.4134   -2.3223 H   0  0  0  0  0  0  0  0  0  0  0  0
    0.4684   17.0209   -0.0217 H   0  0  0  0  0  0  0  0  0  0  0  0
    2.2134   17.5529   -0.1441 H   0  0  0  0  0  0  0  0  0  0  0  0
    1.4282   19.3374    1.0048 H   0  0  0  0  0  0  0  0  0  0  0  0
    1.0047   19.8829   -0.6713 H   0  0  0  0  0  0  0  0  0  0  0  0
   -0.3711   19.5322    1.5181 H   0  0  0  0  0  0  0  0  0  0  0  0
   -0.7412   20.9444   -1.8595 H   0  0  0  0  0  0  0  0  0  0  0  0
   -0.9281   19.2370   -2.3854 H   0  0  0  0  0  0  0  0  0  0  0  0
   -2.3479   20.3374   -2.3854 H   0  0  0  0  0  0  0  0  0  0  0  0
   -2.9523   20.1709    1.2164 H   0  0  0  0  0  0  0  0  0  0  0  0
   -3.1688   21.2271   -0.2203 H   0  0  0  0  0  0  0  0  0  0  0  0
   -3.8418   19.5616   -0.2203 H   0  0  0  0  0  0  0  0  0  0  0  0
   -0.3602   16.2856   -2.0256 H   0  0  0  0  0  0  0  0  0  0  0  0
   -0.1485   16.2482   -4.4325 H   0  0  0  0  0  0  0  0  0  0  0  0
    1.5636   16.7197   -4.3658 H   0  0  0  0  0  0  0  0  0  0  0  0
    0.5853   14.0888   -4.8992 H   0  0  0  0  0  0  0  0  0  0  0  0
    2.2534   14.4530   -4.4660 H   0  0  0  0  0  0  0  0  0  0  0  0
   -0.8955   13.5546   -1.6580 H   0  0  0  0  0  0  0  0  0  0  0  0
   -1.1048   14.4291   -3.2130 H   0  0  0  0  0  0  0  0  0  0  0  0
   -0.7723   12.6638   -3.2130 H   0  0  0  0  0  0  0  0  0  0  0  0
    2.8345   12.9548   -2.6524 H   0  0  0  0  0  0  0  0  0  0  0  0
    1.2676   11.8261   -4.3582 H   0  0  0  0  0  0  0  0  0  0  0  0
    2.4778   10.8424   -3.3800 H   0  0  0  0  0  0  0  0  0  0  0  0
    0.0822    9.7868   -3.6724 H   0  0  0  0  0  0  0  0  0  0  0  0
   -0.2709   12.0988   -0.3816 H   0  0  0  0  0  0  0  0  0  0  0  0
    1.4741    9.7296    0.5331 H   0  0  0  0  0  0  0  0  0  0  0  0
    0.9444   11.1491    1.5403 H   0  0  0  0  0  0  0  0  0  0  0  0
   -0.3865    9.1172    2.0114 H   0  0  0  0  0  0  0  0  0  0  0  0
   -1.3763   10.4691    1.3336 H   0  0  0  0  0  0  0  0  0  0  0  0
   -2.0556    8.4180    0.2879 H   0  0  0  0  0  0  0  0  0  0  0  0
    0.2620    7.5610    0.6760 H   0  0  0  0  0  0  0  0  0  0  0  0
   -2.7568   10.6704   -0.1722 H   0  0  0  0  0  0  0  0  0  0  0  0
   -2.3119   11.4594   -1.7234 H   0  0  0  0  0  0  0  0  0  0  0  0
   -3.3897   10.0224   -1.7234 H   0  0  0  0  0  0  0  0  0  0  0  0
   -1.9489    7.5803   -1.9526 H   0  0  0  0  0  0  0  0  0  0  0  0
   -2.4601    8.8956   -3.0640 H   0  0  0  0  0  0  0  0  0  0  0  0
   -0.7546    8.3319   -3.0640 H   0  0  0  0  0  0  0  0  0  0  0  0
    3.2326   11.2307    0.4108 H   0  0  0  0  0  0  0  0  0  0  0  0
    2.9442   10.3457   -1.1255 H   0  0  0  0  0  0  0  0  0  0  0  0
    3.9295   11.8476   -1.1255 H   0  0  0  0  0  0  0  0  0  0  0  0
    1.4536   13.0954    1.0345 H   0  0  0  0  0  0  0  0  0  0  0  0
    2.9238   13.6983    0.0810 H   0  0  0  0  0  0  0  0  0  0  0  0
    0.0273   14.5176   -0.2736 H   0  0  0  0  0  0  0  0  0  0  0  0
    1.4205   15.5161    0.3002 H   0  0  0  0  0  0  0  0  0  0  0  0
    3.3800   15.4729   -0.8553 H   0  0  0  0  0  0  0  0  0  0  0  0
    3.4945   14.5793   -2.4094 H   0  0  0  0  0  0  0  0  0  0  0  0
    3.1294   16.3381   -2.4094 H   0  0  0  0  0  0  0  0  0  0  0  0
  1  2  1  0
  2  3  1  0
  3  4  1  0
  4  5  1  0
  5  6  1  0
  6  7  1  0
  7  8  1  0
  7  9  1  0
  2 10  1  0
 10 11  1  0
 11 12  1  0
 12 13  1  0
 13 14  1  1
 13 15  1  0
 15 16  1  0
 16 17  1  0
 17 18  2  0
 18 19  1  0
 19 20  1  0
 20 21  1  0
 21 22  1  0
 22 23  1  0
 22 24  1  0
 24 25  1  0
 24 26  1  0
 19 27  1  0
 27 28  1  1
 27 29  1  0
 29 30  1  0
 30 31  1  0
 31 32  1  1
  7  5  1  0
 31 10  1  0
 31 13  1  0
 27 15  1  0
 24 18  1  0
  1 33  1  0
  1 34  1  0
  1 35  1  0
  2 36  1  6
  3 37  1  0
  3 38  1  0
  4 39  1  0
  4 40  1  0
  5 41  1  1
  8 42  1  0
  8 43  1  0
  8 44  1  0
  9 45  1  0
  9 46  1  0
  9 47  1  0
 10 48  1  1
 11 49  1  0
 11 50  1  0
 12 51  1  0
 12 52  1  0
 14 53  1  0
 14 54  1  0
 14 55  1  0
 15 56  1  6
 16 57  1  0
 16 58  1  0
 17 59  1  0
 19 60  1  1
 20 61  1  0
 20 62  1  0
 21 63  1  0
 21 64  1  0
 22 65  1  1
 23 66  1  0
 25 67  1  0
 25 68  1  0
 25 69  1  0
 26 70  1  0
 26 71  1  0
 26 72  1  0
 28 73  1  0
 28 74  1  0
 28 75  1  0
 29 76  1  0
 29 77  1  0
 30 78  1  0
 30 79  1  0
 32 80  1  0
 32 81  1  0
 32 82  1  0
M  END
>  <meeko>  (2) 
{"is_sidechain": [false], "intermolecular_energy": 2.731, "internal_energy": -0.839}

$$$$
EPH_relaxed_0001_pdb2pqr_Repair_122_r2_0001_out
     RDKit          3D

 82 86  0  0  0  0  0  0  0  0999 V2000
    0.4320   18.4270   -0.0480 C   0  0  0  0  0  0  0  0  0  0  0  0
    1.5090   17.3560   -0.2470 C   0  0  2  0  0  0  0  0  0  0  0  0
    2.7370   17.9010   -1.0030 C   0  0  0  0  0  0  0  0  0  0  0  0
    3.9670   18.1060   -0.1140 C   0  0  0  0  0  0  0  0  0  0  0  0
    3.5880   18.5890    1.2530 C   0  0  2  0  0  0  0  0  0  0  0  0
    3.8110   19.9880    1.4770 O   0  0  0  0  0  0  0  0  0  0  0  0
    4.5950   19.0850    2.2740 C   0  0  0  0  0  0  0  0  0  0  0  0
    6.0600   19.1220    1.9710 C   0  0  0  0  0  0  0  0  0  0  0  0
    4.2130   19.0710    3.7210 C   0  0  0  0  0  0  0  0  0  0  0  0
    0.9240   16.1630   -0.9940 C   0  0  1  0  0  0  0  0  0  0  0  0
    0.7850   16.4230   -2.5180 C   0  0  0  0  0  0  0  0  0  0  0  0
    1.0630   15.0730   -3.2290 C   0  0  0  0  0  0  0  0  0  0  0  0
    1.0240   14.0210   -2.0960 C   0  0  1  0  0  0  0  0  0  0  0  0
   -0.4930   13.7320   -1.8680 C   0  0  0  0  0  0  0  0  0  0  0  0
    1.8300   12.7050   -2.3480 C   0  0  2  0  0  0  0  0  0  0  0  0
    1.3480   11.8620   -3.5410 C   0  0  0  0  0  0  0  0  0  0  0  0
    0.3140   10.8350   -3.2190 C   0  0  0  0  0  0  0  0  0  0  0  0
   -0.0010   10.4020   -1.9840 C   0  0  0  0  0  0  0  0  0  0  0  0
    0.7810   10.8860   -0.7560 C   0  0  1  0  0  0  0  0  0  0  0  0
    1.1380    9.6730    0.1420 C   0  0  0  0  0  0  0  0  0  0  0  0
   -0.0860    8.8440    0.5200 C   0  0  0  0  0  0  0  0  0  0  0  0
   -0.8030    8.3320   -0.7260 C   0  0  2  0  0  0  0  0  0  0  0  0
    0.0450    7.3920   -1.3930 O   0  0  0  0  0  0  0  0  0  0  0  0
   -1.2040    9.4660   -1.7120 C   0  0  0  0  0  0  0  0  0  0  0  0
   -2.3480   10.3100   -1.0970 C   0  0  0  0  0  0  0  0  0  0  0  0
   -1.7910    8.8030   -2.9880 C   0  0  0  0  0  0  0  0  0  0  0  0
    2.0360   11.8140   -1.0560 C   0  0  1  0  0  0  0  0  0  0  0  0
    3.2970   10.9350   -1.3180 C   0  0  0  0  0  0  0  0  0  0  0  0
    2.3540   12.6770    0.2220 C   0  0  0  0  0  0  0  0  0  0  0  0
    1.6150   14.0220    0.3530 C   0  0  0  0  0  0  0  0  0  0  0  0
    1.7170   14.8330   -0.9420 C   0  0  2  0  0  0  0  0  0  0  0  0
    3.2300   15.1580   -1.1850 C   0  0  0  0  0  0  0  0  0  0  0  0
    0.2697   18.5884    1.0279 H   0  0  0  0  0  0  0  0  0  0  0  0
    0.7597   19.3677   -0.5145 H   0  0  0  0  0  0  0  0  0  0  0  0
   -0.5069   18.0940   -0.5145 H   0  0  0  0  0  0  0  0  0  0  0  0
    1.8493   17.0395    0.7500 H   0  0  0  0  0  0  0  0  0  0  0  0
    2.9989   17.1885   -1.7991 H   0  0  0  0  0  0  0  0  0  0  0  0
    2.4583   18.8889   -1.3984 H   0  0  0  0  0  0  0  0  0  0  0  0
    4.5015   17.1493   -0.0187 H   0  0  0  0  0  0  0  0  0  0  0  0
    4.6057   18.8691   -0.5827 H   0  0  0  0  0  0  0  0  0  0  0  0
    2.7774   17.8480    1.3159 H   0  0  0  0  0  0  0  0  0  0  0  0
    6.6289   19.1364    2.9124 H   0  0  0  0  0  0  0  0  0  0  0  0
    6.3367   18.2306    1.3890 H   0  0  0  0  0  0  0  0  0  0  0  0
    6.2913   20.0263    1.3890 H   0  0  0  0  0  0  0  0  0  0  0  0
    5.1214   19.1043    4.3404 H   0  0  0  0  0  0  0  0  0  0  0  0
    3.5855   19.9468    3.9431 H   0  0  0  0  0  0  0  0  0  0  0  0
    3.6513   18.1517    3.9431 H   0  0  0  0  0  0  0  0  0  0  0  0
   -0.0277   16.0547   -0.4531 H   0  0  0  0  0  0  0  0  0  0  0  0
   -0.2317   16.7719   -2.7516 H   0  0  0  0  0  0  0  0  0  0  0  0
    1.4900   17.1983   -2.8525 H   0  0  0  0  0  0  0  0  0  0  0  0
    0.2880   14.8631   -3.9808 H   0  0  0  0  0  0  0  0  0  0  0  0
    2.0234   15.0736   -3.7652 H   0  0  0  0  0  0  0  0  0  0  0  0
   -0.7005   13.6925   -0.7885 H   0  0  0  0  0  0  0  0  0  0  0  0
   -1.0918   14.5322   -2.3274 H   0  0  0  0  0  0  0  0  0  0  0  0
   -0.7556   12.7677   -2.3274 H   0  0  0  0  0  0  0  0  0  0  0  0
    2.8210   13.0870   -2.6343 H   0  0  0  0  0  0  0  0  0  0  0  0
    0.9256   12.5459   -4.2920 H   0  0  0  0  0  0  0  0  0  0  0  0
    2.2283   11.3066   -3.8969 H   0  0  0  0  0  0  0  0  0  0  0  0
   -0.2376   10.3945   -4.0626 H   0  0  0  0  0  0  0  0  0  0  0  0
    0.1067   11.5652   -0.2138 H   0  0  0  0  0  0  0  0  0  0  0  0
    1.8461    9.0292   -0.4003 H   0  0  0  0  0  0  0  0  0  0  0  0
    1.5765   10.0639    1.0720 H   0  0  0  0  0  0  0  0  0  0  0  0
    0.2343    7.9860    1.1293 H   0  0  0  0  0  0  0  0  0  0  0  0
   -0.7800    9.4809    1.0880 H   0  0  0  0  0  0  0  0  0  0  0  0
   -1.7391    7.8577   -0.3961 H   0  0  0  0  0  0  0  0  0  0  0  0
   -0.5260    6.7170   -1.7980 H   0  0  0  0  0  0  0  0  0  0  0  0
   -2.2875   10.2653    0.0004 H   0  0  0  0  0  0  0  0  0  0  0  0
   -2.2513   11.3548   -1.4273 H   0  0  0  0  0  0  0  0  0  0  0  0
   -3.3177    9.9093   -1.4273 H   0  0  0  0  0  0  0  0  0  0  0  0
   -2.4944    8.0086   -2.6979 H   0  0  0  0  0  0  0  0  0  0  0  0
   -2.3196    9.5608   -3.5849 H   0  0  0  0  0  0  0  0  0  0  0  0
   -0.9747    8.3701   -3.5849 H   0  0  0  0  0  0  0  0  0  0  0  0
    3.7365   10.6287   -0.3573 H   0  0  0  0  0  0  0  0  0  0  0  0
    3.0084   10.0413   -1.8908 H   0  0  0  0  0  0  0  0  0  0  0  0
    4.0356   11.5149   -1.8908 H   0  0  0  0  0  0  0  0  0  0  0  0
    2.1009   12.0709    1.1043 H   0  0  0  0  0  0  0  0  0  0  0  0
    3.4183   12.9406    0.1339 H   0  0  0  0  0  0  0  0  0  0  0  0
    0.5548   13.8298    0.5744 H   0  0  0  0  0  0  0  0  0  0  0  0
    2.0800   14.5995    1.1656 H   0  0  0  0  0  0  0  0  0  0  0  0
    3.7414   15.2679   -0.2173 H   0  0  0  0  0  0  0  0  0  0  0  0
    3.6941   14.3391   -1.7541 H   0  0  0  0  0  0  0  0  0  0  0  0
    3.3169   16.0953   -1.7541 H   0  0  0  0  0  0  0  0  0  0  0  0
  1  2  1  0
  2  3  1  0
  3  4  1  0
  4  5  1  0
  5  6  1  0
  6  7  1  0
  7  8  1  0
  7  9  1  0
  2 10  1  0
 10 11  1  0
 11 12  1  0
 12 13  1  0
 13 14  1  1
 13 15  1  0
 15 16  1  0
 16 17  1  0
 17 18  2  0
 18 19  1  0
 19 20  1  0
 20 21  1  0
 21 22  1  0
 22 23  1  0
 22 24  1  0
 24 25  1  0
 24 26  1  0
 19 27  1  0
 27 28  1  6
 27 29  1  0
 29 30  1  0
 30 31  1  0
 31 32  1  6
  7  5  1  0
 31 10  1  0
 31 13  1  0
 27 15  1  0
 24 18  1  0
  1 33  1  0
  1 34  1  0
  1 35  1  0
  2 36  1  1
  3 37  1  0
  3 38  1  0
  4 39  1  0
  4 40  1  0
  5 41  1  1
  8 42  1  0
  8 43  1  0
  8 44  1  0
  9 45  1  0
  9 46  1  0
  9 47  1  0
 10 48  1  1
 11 49  1  0
 11 50  1  0
 12 51  1  0
 12 52  1  0
 14 53  1  0
 14 54  1  0
 14 55  1  0
 15 56  1  6
 16 57  1  0
 16 58  1  0
 17 59  1  0
 19 60  1  1
 20 61  1  0
 20 62  1  0
 21 63  1  0
 21 64  1  0
 22 65  1  1
 23 66  1  0
 25 67  1  0
 25 68  1  0
 25 69  1  0
 26 70  1  0
 26 71  1  0
 26 72  1  0
 28 73  1  0
 28 74  1  0
 28 75  1  0
 29 76  1  0
 29 77  1  0
 30 78  1  0
 30 79  1  0
 32 80  1  0
 32 81  1  0
 32 82  1  0
M  END
>  <meeko>  (3) 
{"is_sidechain": [false], "intermolecular_energy": 2.731, "internal_energy": -0.839}

$$$$
EPH_relaxed_0001_pdb2pqr_Repair_122_r2_0001_out
     RDKit          3D

 82 86  0  0  0  0  0  0  0  0999 V2000
    2.1850   19.4540   -0.8070 C   0  0  0  0  0  0  0  0  0  0  0  0
    2.3330   18.3600    0.2540 C   0  0  2  0  0  0  0  0  0  0  0  0
    3.7800   17.8350    0.3480 C   0  0  0  0  0  0  0  0  0  0  0  0
    4.6980   18.7090    1.2060 C   0  0  0  0  0  0  0  0  0  0  0  0
    4.1890   18.8370    2.6100 C   0  0  2  0  0  0  0  0  0  0  0  0
    4.0140   20.1860    3.0630 O   0  0  0  0  0  0  0  0  0  0  0  0
    5.0110   19.4100    3.7490 C   0  0  0  0  0  0  0  0  0  0  0  0
    6.4110   19.8930    3.5350 C   0  0  0  0  0  0  0  0  0  0  0  0
    4.6350   19.0520    5.1530 C   0  0  0  0  0  0  0  0  0  0  0  0
    1.3800   17.2100   -0.0490 C   0  0  1  0  0  0  0  0  0  0  0  0
    0.1180   17.6690   -0.8280 C   0  0  0  0  0  0  0  0  0  0  0  0
   -0.2570   16.5140   -1.7920 C   0  0  0  0  0  0  0  0  0  0  0  0
    0.5870   15.3120   -1.3070 C   0  0  1  0  0  0  0  0  0  0  0  0
   -0.2060   14.7270   -0.0970 C   0  0  0  0  0  0  0  0  0  0  0  0
    0.9020   14.2140   -2.3750 C   0  0  2  0  0  0  0  0  0  0  0  0
   -0.3280   13.4900   -2.9490 C   0  0  0  0  0  0  0  0  0  0  0  0
   -0.7430   12.2580   -2.2150 C   0  0  0  0  0  0  0  0  0  0  0  0
    0.0060   11.5940   -1.3160 C   0  0  0  0  0  0  0  0  0  0  0  0
    1.4520   12.0170   -1.0290 C   0  0  1  0  0  0  0  0  0  0  0  0
    2.3680   10.7650   -1.0240 C   0  0  0  0  0  0  0  0  0  0  0  0
    1.8750    9.6840   -0.0670 C   0  0  0  0  0  0  0  0  0  0  0  0
    0.4560    9.2480   -0.4200 C   0  0  2  0  0  0  0  0  0  0  0  0
    0.4790    8.5860   -1.6880 O   0  0  0  0  0  0  0  0  0  0  0  0
   -0.5550   10.4280   -0.4640 C   0  0  0  0  0  0  0  0  0  0  0  0
   -0.8070   10.9520    0.9710 C   0  0  0  0  0  0  0  0  0  0  0  0
   -1.9140    9.8730   -0.9690 C   0  0  0  0  0  0  0  0  0  0  0  0
    2.0250   13.1880   -1.9390 C   0  0  1  0  0  0  0  0  0  0  0  0
    2.6240   12.5980   -3.2520 C   0  0  0  0  0  0  0  0  0  0  0  0
    3.2160   13.8900   -1.1840 C   0  0  0  0  0  0  0  0  0  0  0  0
    2.8510   15.0460   -0.2330 C   0  0  0  0  0  0  0  0  0  0  0  0
    1.9210   16.0490   -0.9220 C   0  0  2  0  0  0  0  0  0  0  0  0
    2.6990   16.6710   -2.1320 C   0  0  0  0  0  0  0  0  0  0  0  0
    2.0532   20.4281   -0.3133 H   0  0  0  0  0  0  0  0  0  0  0  0
    3.0878   19.4803   -1.4349 H   0  0  0  0  0  0  0  0  0  0  0  0
    1.3077   19.2395   -1.4349 H   0  0  0  0  0  0  0  0  0  0  0  0
    2.0796   18.8058    1.2272 H   0  0  0  0  0  0  0  0  0  0  0  0
    3.7553   16.8253    0.7837 H   0  0  0  0  0  0  0  0  0  0  0  0
    4.1912   17.8424   -0.6722 H   0  0  0  0  0  0  0  0  0  0  0  0
    5.7004   18.2566    1.2302 H   0  0  0  0  0  0  0  0  0  0  0  0
    4.7295   19.7140    0.7599 H   0  0  0  0  0  0  0  0  0  0  0  0
    3.6145   17.9041    2.5116 H   0  0  0  0  0  0  0  0  0  0  0  0
    6.8943   20.0597    4.5090 H   0  0  0  0  0  0  0  0  0  0  0  0
    6.9769   19.1381    2.9693 H   0  0  0  0  0  0  0  0  0  0  0  0
    6.3910   20.8362    2.9693 H   0  0  0  0  0  0  0  0  0  0  0  0
    5.2474   19.6351    5.8566 H   0  0  0  0  0  0  0  0  0  0  0  0
    3.5713   19.2794    5.3171 H   0  0  0  0  0  0  0  0  0  0  0  0
    4.8100   17.9785    5.3171 H   0  0  0  0  0  0  0  0  0  0  0  0
    1.1893   16.8541    0.9742 H   0  0  0  0  0  0  0  0  0  0  0  0
   -0.7090   17.8627   -0.1291 H   0  0  0  0  0  0  0  0  0  0  0  0
    0.3125   18.5989   -1.3824 H   0  0  0  0  0  0  0  0  0  0  0  0
   -1.3311   16.2862   -1.7259 H   0  0  0  0  0  0  0  0  0  0  0  0
   -0.0573   16.7668   -2.8438 H   0  0  0  0  0  0  0  0  0  0  0  0
    0.2548   15.0669    0.8422 H   0  0  0  0  0  0  0  0  0  0  0  0
   -1.2491   15.0736   -0.1401 H   0  0  0  0  0  0  0  0  0  0  0  0
   -0.1827   13.6281   -0.1401 H   0  0  0  0  0  0  0  0  0  0  0  0
    1.3152   14.8054   -3.2054 H   0  0  0  0  0  0  0  0  0  0  0  0
   -1.1732   14.1939   -2.9367 H   0  0  0  0  0  0  0  0  0  0  0  0
   -0.0434   13.1609   -3.9593 H   0  0  0  0  0  0  0  0  0  0  0  0
   -1.7460   11.8594   -2.4272 H   0  0  0  0  0  0  0  0  0  0  0  0
    1.4414   12.4750   -0.0289 H   0  0  0  0  0  0  0  0  0  0  0  0
    2.4003   10.3475   -2.0412 H   0  0  0  0  0  0  0  0  0  0  0  0
    3.3653   11.0820   -0.6849 H   0  0  0  0  0  0  0  0  0  0  0  0
    2.5451    8.8140   -0.1308 H   0  0  0  0  0  0  0  0  0  0  0  0
    1.8723   10.0939    0.9538 H   0  0  0  0  0  0  0  0  0  0  0  0
    0.1119    8.5705    0.3753 H   0  0  0  0  0  0  0  0  0  0  0  0
    0.8620    9.2030   -2.3350 H   0  0  0  0  0  0  0  0  0  0  0  0
   -0.4501   10.2099    1.7003 H   0  0  0  0  0  0  0  0  0  0  0  0
   -0.2656   11.8985    1.1161 H   0  0  0  0  0  0  0  0  0  0  0  0
   -1.8844   11.1199    1.1161 H   0  0  0  0  0  0  0  0  0  0  0  0
   -2.5473    9.6144   -0.1076 H   0  0  0  0  0  0  0  0  0  0  0  0
   -2.4184   10.6372   -1.5786 H   0  0  0  0  0  0  0  0  0  0  0  0
   -1.7393    8.9742   -1.5786 H   0  0  0  0  0  0  0  0  0  0  0  0
    3.3871   11.8464   -3.0015 H   0  0  0  0  0  0  0  0  0  0  0  0
    1.8235   12.1258   -3.8404 H   0  0  0  0  0  0  0  0  0  0  0  0
    3.0840   13.4056   -3.8404 H   0  0  0  0  0  0  0  0  0  0  0  0
    3.7328   13.1215   -0.5905 H   0  0  0  0  0  0  0  0  0  0  0  0
    3.8267   14.3500   -1.9749 H   0  0  0  0  0  0  0  0  0  0  0  0
    2.3451   14.6365    0.6538 H   0  0  0  0  0  0  0  0  0  0  0  0
    3.7754   15.5667    0.0575 H   0  0  0  0  0  0  0  0  0  0  0  0
    3.5064   17.3165   -1.7560 H   0  0  0  0  0  0  0  0  0  0  0  0
    3.1292   15.8650   -2.7447 H   0  0  0  0  0  0  0  0  0  0  0  0
    2.0075   17.2680   -2.7447 H   0  0  0  0  0  0  0  0  0  0  0  0
  1  2  1  0
  2  3  1  0
  3  4  1  0
  4  5  1  0
  5  6  1  0
  6  7  1  0
  7  8  1  0
  7  9  1  0
  2 10  1  0
 10 11  1  0
 11 12  1  0
 12 13  1  0
 13 14  1  1
 13 15  1  0
 15 16  1  0
 16 17  1  0
 17 18  2  0
 18 19  1  0
 19 20  1  0
 20 21  1  0
 21 22  1  0
 22 23  1  0
 22 24  1  0
 24 25  1  0
 24 26  1  0
 19 27  1  0
 27 28  1  6
 27 29  1  0
 29 30  1  0
 30 31  1  0
 31 32  1  6
  7  5  1  0
 31 10  1  0
 31 13  1  0
 27 15  1  0
 24 18  1  0
  1 33  1  0
  1 34  1  0
  1 35  1  0
  2 36  1  1
  3 37  1  0
  3 38  1  0
  4 39  1  0
  4 40  1  0
  5 41  1  1
  8 42  1  0
  8 43  1  0
  8 44  1  0
  9 45  1  0
  9 46  1  0
  9 47  1  0
 10 48  1  1
 11 49  1  0
 11 50  1  0
 12 51  1  0
 12 52  1  0
 14 53  1  0
 14 54  1  0
 14 55  1  0
 15 56  1  6
 16 57  1  0
 16 58  1  0
 17 59  1  0
 19 60  1  1
 20 61  1  0
 20 62  1  0
 21 63  1  0
 21 64  1  0
 22 65  1  1
 23 66  1  0
 25 67  1  0
 25 68  1  0
 25 69  1  0
 26 70  1  0
 26 71  1  0
 26 72  1  0
 28 73  1  0
 28 74  1  0
 28 75  1  0
 29 76  1  0
 29 77  1  0
 30 78  1  0
 30 79  1  0
 32 80  1  0
 32 81  1  0
 32 82  1  0
M  END
>  <meeko>  (4) 
{"is_sidechain": [false], "intermolecular_energy": 2.731, "internal_energy": -0.839}

$$$$
EPH_relaxed_0001_pdb2pqr_Repair_122_r2_0001_out
     RDKit          3D

 82 86  0  0  0  0  0  0  0  0999 V2000
    3.7240   17.9000    0.8210 C   0  0  0  0  0  0  0  0  0  0  0  0
    2.7120   18.3370   -0.2420 C   0  0  2  0  0  0  0  0  0  0  0  0
    1.9830   19.6380    0.1510 C   0  0  0  0  0  0  0  0  0  0  0  0
    0.7420   19.4110    1.0180 C   0  0  0  0  0  0  0  0  0  0  0  0
   -0.4750   20.0500    0.4230 C   0  0  2  0  0  0  0  0  0  0  0  0
   -1.5790   20.1940    1.3270 O   0  0  0  0  0  0  0  0  0  0  0  0
   -1.7860   19.3160    0.2090 C   0  0  0  0  0  0  0  0  0  0  0  0
   -1.9450   17.8770    0.5880 C   0  0  0  0  0  0  0  0  0  0  0  0
   -2.7470   19.8490   -0.8070 C   0  0  0  0  0  0  0  0  0  0  0  0
    1.6990   17.2240   -0.4830 C   0  0  1  0  0  0  0  0  0  0  0  0
    0.4980   17.6880   -1.3500 C   0  0  0  0  0  0  0  0  0  0  0  0
    0.0840   16.4770   -2.2250 C   0  0  0  0  0  0  0  0  0  0  0  0
    0.8300   15.2730   -1.6030 C   0  0  1  0  0  0  0  0  0  0  0  0
   -0.0410   14.8480   -0.3800 C   0  0  0  0  0  0  0  0  0  0  0  0
    1.1130   14.0680   -2.5580 C   0  0  2  0  0  0  0  0  0  0  0  0
   -0.1400   13.3710   -3.1170 C   0  0  0  0  0  0  0  0  0  0  0  0
   -0.6600   12.2380   -2.2970 C   0  0  0  0  0  0  0  0  0  0  0  0
    0.0130   11.6120   -1.3130 C   0  0  0  0  0  0  0  0  0  0  0  0
    1.4720   11.9710   -1.0040 C   0  0  1  0  0  0  0  0  0  0  0  0
    2.3040   10.6700   -0.8530 C   0  0  0  0  0  0  0  0  0  0  0  0
    1.7090    9.7110    0.1740 C   0  0  0  0  0  0  0  0  0  0  0  0
    0.2780    9.3320   -0.1990 C   0  0  2  0  0  0  0  0  0  0  0  0
    0.3050    8.5600   -1.4030 O   0  0  0  0  0  0  0  0  0  0  0  0
   -0.6520   10.5630   -0.3870 C   0  0  0  0  0  0  0  0  0  0  0  0
   -0.9210   11.2280    0.9850 C   0  0  0  0  0  0  0  0  0  0  0  0
   -2.0250   10.0500   -0.8980 C   0  0  0  0  0  0  0  0  0  0  0  0
    2.1510   13.0190   -1.9870 C   0  0  1  0  0  0  0  0  0  0  0  0
    2.7570   12.2780   -3.2180 C   0  0  0  0  0  0  0  0  0  0  0  0
    3.3560   13.7110   -1.2480 C   0  0  0  0  0  0  0  0  0  0  0  0
    3.0320   14.9680   -0.4170 C   0  0  0  0  0  0  0  0  0  0  0  0
    2.1940   15.9600   -1.2290 C   0  0  2  0  0  0  0  0  0  0  0  0
    3.0540   16.4230   -2.4540 C   0  0  0  0  0  0  0  0  0  0  0  0
    3.3054   18.0808    1.8220 H   0  0  0  0  0  0  0  0  0  0  0  0
    3.9407   16.8281    0.7023 H   0  0  0  0  0  0  0  0  0  0  0  0
    4.6528   18.4772    0.7023 H   0  0  0  0  0  0  0  0  0  0  0  0
    3.2701   18.5385   -1.1683 H   0  0  0  0  0  0  0  0  0  0  0  0
    2.6852   20.2742    0.7097 H   0  0  0  0  0  0  0  0  0  0  0  0
    1.6409   20.1090   -0.7824 H   0  0  0  0  0  0  0  0  0  0  0  0
    0.5664   18.3292    1.1125 H   0  0  0  0  0  0  0  0  0  0  0  0
    0.9230   19.8688    2.0017 H   0  0  0  0  0  0  0  0  0  0  0  0
    0.1459   20.6624   -0.2474 H   0  0  0  0  0  0  0  0  0  0  0  0
   -1.9551   17.7855    1.6841 H   0  0  0  0  0  0  0  0  0  0  0  0
   -2.8911   17.4925    0.1792 H   0  0  0  0  0  0  0  0  0  0  0  0
   -1.1057   17.2953    0.1792 H   0  0  0  0  0  0  0  0  0  0  0  0
   -3.5981   20.3211   -0.2944 H   0  0  0  0  0  0  0  0  0  0  0  0
   -2.2390   20.5943   -1.4367 H   0  0  0  0  0  0  0  0  0  0  0  0
   -3.1102   19.0234   -1.4367 H   0  0  0  0  0  0  0  0  0  0  0  0
    1.4505   16.9723    0.5586 H   0  0  0  0  0  0  0  0  0  0  0  0
   -0.3392   17.9932   -0.7051 H   0  0  0  0  0  0  0  0  0  0  0  0
    0.7717   18.5513   -1.9744 H   0  0  0  0  0  0  0  0  0  0  0  0
   -1.0043   16.3226   -2.1844 H   0  0  0  0  0  0  0  0  0  0  0  0
    0.3378   16.6224   -3.2854 H   0  0  0  0  0  0  0  0  0  0  0  0
    0.4848   15.1046    0.5515 H   0  0  0  0  0  0  0  0  0  0  0  0
   -1.0048   15.3771   -0.4147 H   0  0  0  0  0  0  0  0  0  0  0  0
   -0.2171   13.7627   -0.4147 H   0  0  0  0  0  0  0  0  0  0  0  0
    1.5930   14.5563   -3.4189 H   0  0  0  0  0  0  0  0  0  0  0  0
   -0.9380   14.1234   -3.2015 H   0  0  0  0  0  0  0  0  0  0  0  0
    0.1597   12.9353   -4.0816 H   0  0  0  0  0  0  0  0  0  0  0  0
   -1.6787   11.8845   -2.5146 H   0  0  0  0  0  0  0  0  0  0  0  0
    1.4557   12.5168   -0.0491 H   0  0  0  0  0  0  0  0  0  0  0  0
    2.3443   10.1621   -1.8279 H   0  0  0  0  0  0  0  0  0  0  0  0
    3.3073   10.9540   -0.5027 H   0  0  0  0  0  0  0  0  0  0  0  0
    2.3239    8.7998    0.2144 H   0  0  0  0  0  0  0  0  0  0  0  0
    1.6961   10.2099    1.1543 H   0  0  0  0  0  0  0  0  0  0  0  0
   -0.1382    8.7498    0.6363 H   0  0  0  0  0  0  0  0  0  0  0  0
   -0.6160    8.3860   -1.6610 H   0  0  0  0  0  0  0  0  0  0  0  0
   -0.6401   10.5335    1.7905 H   0  0  0  0  0  0  0  0  0  0  0  0
   -0.3244   12.1483    1.0697 H   0  0  0  0  0  0  0  0  0  0  0  0
   -1.9896   11.4747    1.0697 H   0  0  0  0  0  0  0  0  0  0  0  0
   -2.6691    9.8093   -0.0394 H   0  0  0  0  0  0  0  0  0  0  0  0
   -2.5038   10.8299   -1.5084 H   0  0  0  0  0  0  0  0  0  0  0  0
   -1.8751    9.1472   -1.5084 H   0  0  0  0  0  0  0  0  0  0  0  0
    3.4178   11.4700   -2.8708 H   0  0  0  0  0  0  0  0  0  0  0  0
    1.9451   11.8521   -3.8258 H   0  0  0  0  0  0  0  0  0  0  0  0
    3.3356   12.9892   -3.8258 H   0  0  0  0  0  0  0  0  0  0  0  0
    3.8006   12.9686   -0.5689 H   0  0  0  0  0  0  0  0  0  0  0  0
    4.0233   14.0601   -2.0498 H   0  0  0  0  0  0  0  0  0  0  0  0
    2.4691   14.6712    0.4802 H   0  0  0  0  0  0  0  0  0  0  0  0
    3.9769   15.4553   -0.1346 H   0  0  0  0  0  0  0  0  0  0  0  0
    3.9693   16.9158   -2.0942 H   0  0  0  0  0  0  0  0  0  0  0  0
    3.3240   15.5483   -3.0640 H   0  0  0  0  0  0  0  0  0  0  0  0
    2.4725   17.1300   -3.0640 H   0  0  0  0  0  0  0  0  0  0  0  0
  1  2  1  0
  2  3  1  0
  3  4  1  0
  4  5  1  0
  5  6  1  0
  6  7  1  0
  7  8  1  0
  7  9  1  0
  2 10  1  0
 10 11  1  0
 11 12  1  0
 12 13  1  0
 13 14  1  1
 13 15  1  0
 15 16  1  0
 16 17  1  0
 17 18  2  0
 18 19  1  0
 19 20  1  0
 20 21  1  0
 21 22  1  0
 22 23  1  0
 22 24  1  0
 24 25  1  0
 24 26  1  0
 19 27  1  0
 27 28  1  6
 27 29  1  0
 29 30  1  0
 30 31  1  0
 31 32  1  6
  7  5  1  0
 31 10  1  0
 31 13  1  0
 27 15  1  0
 24 18  1  0
  1 33  1  0
  1 34  1  0
  1 35  1  0
  2 36  1  6
  3 37  1  0
  3 38  1  0
  4 39  1  0
  4 40  1  0
  5 41  1  6
  8 42  1  0
  8 43  1  0
  8 44  1  0
  9 45  1  0
  9 46  1  0
  9 47  1  0
 10 48  1  1
 11 49  1  0
 11 50  1  0
 12 51  1  0
 12 52  1  0
 14 53  1  0
 14 54  1  0
 14 55  1  0
 15 56  1  6
 16 57  1  0
 16 58  1  0
 17 59  1  0
 19 60  1  1
 20 61  1  0
 20 62  1  0
 21 63  1  0
 21 64  1  0
 22 65  1  1
 23 66  1  0
 25 67  1  0
 25 68  1  0
 25 69  1  0
 26 70  1  0
 26 71  1  0
 26 72  1  0
 28 73  1  0
 28 74  1  0
 28 75  1  0
 29 76  1  0
 29 77  1  0
 30 78  1  0
 30 79  1  0
 32 80  1  0
 32 81  1  0
 32 82  1  0
M  END
>  <meeko>  (5) 
{"is_sidechain": [false], "intermolecular_energy": 2.731, "internal_energy": -0.839}

$$$$
EPH_relaxed_0001_pdb2pqr_Repair_122_r2_0001_out
     RDKit          3D

 82 86  0  0  0  0  0  0  0  0999 V2000
   -5.1950    5.7880   -1.6630 C   0  0  0  0  0  0  0  0  0  0  0  0
   -5.4640    7.2920   -1.7570 C   0  0  2  0  0  0  0  0  0  0  0  0
   -5.2240    8.0100   -0.4140 C   0  0  0  0  0  0  0  0  0  0  0  0
   -4.1920    9.1380   -0.4940 C   0  0  0  0  0  0  0  0  0  0  0  0
   -2.8220    8.6150   -0.8040 C   0  0  2  0  0  0  0  0  0  0  0  0
   -1.8220    8.9400    0.1700 O   0  0  0  0  0  0  0  0  0  0  0  0
   -1.6420    9.5070   -1.1380 C   0  0  0  0  0  0  0  0  0  0  0  0
   -1.7770   10.9970   -1.1790 C   0  0  0  0  0  0  0  0  0  0  0  0
   -0.4920    8.9200   -1.8960 C   0  0  0  0  0  0  0  0  0  0  0  0
   -6.8920    7.5360   -2.2310 C   0  0  1  0  0  0  0  0  0  0  0  0
   -7.1970    6.8470   -3.5870 C   0  0  0  0  0  0  0  0  0  0  0  0
   -8.6780    6.3910   -3.5340 C   0  0  0  0  0  0  0  0  0  0  0  0
   -9.2660    7.1180   -2.3010 C   0  0  1  0  0  0  0  0  0  0  0  0
   -9.5960    8.5580   -2.8040 C   0  0  0  0  0  0  0  0  0  0  0  0
  -10.5050    6.4430   -1.6270 C   0  0  2  0  0  0  0  0  0  0  0  0
  -11.7540    6.3340   -2.5190 C   0  0  0  0  0  0  0  0  0  0  0  0
  -12.6950    7.4910   -2.4430 C   0  0  0  0  0  0  0  0  0  0  0  0
  -12.6940    8.4380   -1.4870 C   0  0  0  0  0  0  0  0  0  0  0  0
  -11.7390    8.3480   -0.2890 C   0  0  1  0  0  0  0  0  0  0  0  0
  -12.5210    8.6350    1.0190 C   0  0  0  0  0  0  0  0  0  0  0  0
  -13.2750    9.9600    0.9720 C   0  0  0  0  0  0  0  0  0  0  0  0
  -14.2560    9.9890   -0.1970 C   0  0  2  0  0  0  0  0  0  0  0  0
  -15.2870    9.0260    0.0430 O   0  0  0  0  0  0  0  0  0  0  0  0
  -13.5830    9.7040   -1.5690 C   0  0  0  0  0  0  0  0  0  0  0  0
  -12.6870   10.9020   -1.9680 C   0  0  0  0  0  0  0  0  0  0  0  0
  -14.7020    9.6220   -2.6420 C   0  0  0  0  0  0  0  0  0  0  0  0
  -10.8630    7.0250   -0.2000 C   0  0  1  0  0  0  0  0  0  0  0  0
  -11.6560    5.9110    0.5490 C   0  0  0  0  0  0  0  0  0  0  0  0
   -9.5810    7.3160    0.6670 C   0  0  0  0  0  0  0  0  0  0  0  0
   -8.3500    7.8690   -0.0770 C   0  0  0  0  0  0  0  0  0  0  0  0
   -8.0390    7.0310   -1.3210 C   0  0  2  0  0  0  0  0  0  0  0  0
   -7.6820    5.5820   -0.8450 C   0  0  0  0  0  0  0  0  0  0  0  0
   -5.1418    5.4904   -0.6053 H   0  0  0  0  0  0  0  0  0  0  0  0
   -6.0091    5.2383   -2.1581 H   0  0  0  0  0  0  0  0  0  0  0  0
   -4.2408    5.5545   -2.1581 H   0  0  0  0  0  0  0  0  0  0  0  0
   -4.7541    7.7103   -2.4858 H   0  0  0  0  0  0  0  0  0  0  0  0
   -6.1788    8.4366   -0.0730 H   0  0  0  0  0  0  0  0  0  0  0  0
   -4.8258    7.2595    0.2847 H   0  0  0  0  0  0  0  0  0  0  0  0
   -4.4927    9.8408   -1.2850 H   0  0  0  0  0  0  0  0  0  0  0  0
   -4.1546    9.6386    0.4848 H   0  0  0  0  0  0  0  0  0  0  0  0
   -3.2470    7.7344   -1.3080 H   0  0  0  0  0  0  0  0  0  0  0  0
   -1.8126   11.3903   -0.1523 H   0  0  0  0  0  0  0  0  0  0  0  0
   -0.9143   11.4289   -1.7074 H   0  0  0  0  0  0  0  0  0  0  0  0
   -2.7033   11.2668   -1.7074 H   0  0  0  0  0  0  0  0  0  0  0  0
    0.2573    8.5375   -1.1873 H   0  0  0  0  0  0  0  0  0  0  0  0
   -0.8525    8.0956   -2.5288 H   0  0  0  0  0  0  0  0  0  0  0  0
   -0.0359    9.6956   -2.5288 H   0  0  0  0  0  0  0  0  0  0  0  0
   -6.8916    8.6356   -2.2599 H   0  0  0  0  0  0  0  0  0  0  0  0
   -7.0485    7.5566   -4.4143 H   0  0  0  0  0  0  0  0  0  0  0  0
   -6.5262    5.9916   -3.7551 H   0  0  0  0  0  0  0  0  0  0  0  0
   -9.2091    6.6886   -4.4502 H   0  0  0  0  0  0  0  0  0  0  0  0
   -8.7756    5.2979   -3.4597 H   0  0  0  0  0  0  0  0  0  0  0  0
   -9.7482    9.2221   -1.9404 H   0  0  0  0  0  0  0  0  0  0  0  0
   -8.7607    8.9340   -3.4131 H   0  0  0  0  0  0  0  0  0  0  0  0
  -10.5117    8.5328   -3.4131 H   0  0  0  0  0  0  0  0  0  0  0  0
  -10.1571    5.4109   -1.4729 H   0  0  0  0  0  0  0  0  0  0  0  0
  -11.4192    6.2362   -3.5622 H   0  0  0  0  0  0  0  0  0  0  0  0
  -12.3145    5.4613   -2.1525 H   0  0  0  0  0  0  0  0  0  0  0  0
  -13.4531    7.5764   -3.2355 H   0  0  0  0  0  0  0  0  0  0  0  0
  -10.9781    9.1267   -0.4462 H   0  0  0  0  0  0  0  0  0  0  0  0
  -13.2450    7.8231    1.1821 H   0  0  0  0  0  0  0  0  0  0  0  0
  -11.7895    8.6965    1.8382 H   0  0  0  0  0  0  0  0  0  0  0  0
  -13.8312   10.0911    1.9119 H   0  0  0  0  0  0  0  0  0  0  0  0
  -12.5467   10.7736    0.8390 H   0  0  0  0  0  0  0  0  0  0  0  0
  -14.6690   11.0068   -0.2563 H   0  0  0  0  0  0  0  0  0  0  0  0
  -15.6880    8.8060   -0.8150 H   0  0  0  0  0  0  0  0  0  0  0  0
  -12.3147   11.3997   -1.0604 H   0  0  0  0  0  0  0  0  0  0  0  0
  -11.8356   10.5408   -2.5635 H   0  0  0  0  0  0  0  0  0  0  0  0
  -13.2741   11.6166   -2.5635 H   0  0  0  0  0  0  0  0  0  0  0  0
  -15.6812    9.5502   -2.1459 H   0  0  0  0  0  0  0  0  0  0  0  0
  -14.6745   10.5246   -3.2702 H   0  0  0  0  0  0  0  0  0  0  0  0
  -14.5432    8.7331   -3.2702 H   0  0  0  0  0  0  0  0  0  0  0  0
  -11.5536    6.0549    1.6347 H   0  0  0  0  0  0  0  0  0  0  0  0
  -12.7187    5.9669    0.2704 H   0  0  0  0  0  0  0  0  0  0  0  0
  -11.2553    4.9252    0.2704 H   0  0  0  0  0  0  0  0  0  0  0  0
   -9.8603    8.0485    1.4386 H   0  0  0  0  0  0  0  0  0  0  0  0
   -9.2668    6.3356    1.0544 H   0  0  0  0  0  0  0  0  0  0  0  0
   -8.5505    8.9064   -0.3829 H   0  0  0  0  0  0  0  0  0  0  0  0
   -7.4835    7.8276    0.5994 H   0  0  0  0  0  0  0  0  0  0  0  0
   -7.6738    5.5488    0.2545 H   0  0  0  0  0  0  0  0  0  0  0  0
   -8.4328    4.8750   -1.2276 H   0  0  0  0  0  0  0  0  0  0  0  0
   -6.6887    5.3047   -1.2276 H   0  0  0  0  0  0  0  0  0  0  0  0
  1  2  1  0
  2  3  1  0
  3  4  1  0
  4  5  1  0
  5  6  1  0
  6  7  1  0
  7  8  1  0
  7  9  1  0
  2 10  1  0
 10 11  1  0
 11 12  1  0
 12 13  1  0
 13 14  1  6
 13 15  1  0
 15 16  1  0
 16 17  1  0
 17 18  2  0
 18 19  1  0
 19 20  1  0
 20 21  1  0
 21 22  1  0
 22 23  1  0
 22 24  1  0
 24 25  1  0
 24 26  1  0
 19 27  1  0
 27 28  1  1
 27 29  1  0
 29 30  1  0
 30 31  1  0
 31 32  1  1
  7  5  1  0
 31 10  1  0
 31 13  1  0
 27 15  1  0
 24 18  1  0
  1 33  1  0
  1 34  1  0
  1 35  1  0
  2 36  1  6
  3 37  1  0
  3 38  1  0
  4 39  1  0
  4 40  1  0
  5 41  1  6
  8 42  1  0
  8 43  1  0
  8 44  1  0
  9 45  1  0
  9 46  1  0
  9 47  1  0
 10 48  1  6
 11 49  1  0
 11 50  1  0
 12 51  1  0
 12 52  1  0
 14 53  1  0
 14 54  1  0
 14 55  1  0
 15 56  1  1
 16 57  1  0
 16 58  1  0
 17 59  1  0
 19 60  1  6
 20 61  1  0
 20 62  1  0
 21 63  1  0
 21 64  1  0
 22 65  1  6
 23 66  1  0
 25 67  1  0
 25 68  1  0
 25 69  1  0
 26 70  1  0
 26 71  1  0
 26 72  1  0
 28 73  1  0
 28 74  1  0
 28 75  1  0
 29 76  1  0
 29 77  1  0
 30 78  1  0
 30 79  1  0
 32 80  1  0
 32 81  1  0
 32 82  1  0
M  END
>  <meeko>  (6) 
{"is_sidechain": [false], "intermolecular_energy": 2.731, "internal_energy": -0.839}

$$$$
EPH_relaxed_0001_pdb2pqr_Repair_122_r2_0001_out
     RDKit          3D

 82 86  0  0  0  0  0  0  0  0999 V2000
    0.4560    8.7930   -2.3370 C   0  0  0  0  0  0  0  0  0  0  0  0
    1.1920    9.9340   -3.0450 C   0  0  2  0  0  0  0  0  0  0  0  0
    2.6940    9.9620   -2.6960 C   0  0  0  0  0  0  0  0  0  0  0  0
    3.5690   10.5790   -3.7900 C   0  0  0  0  0  0  0  0  0  0  0  0
    4.9690   10.8190   -3.3110 C   0  0  2  0  0  0  0  0  0  0  0  0
    5.5650   12.0330   -3.7860 O   0  0  0  0  0  0  0  0  0  0  0  0
    6.1790   10.8100   -4.2250 C   0  0  0  0  0  0  0  0  0  0  0  0
    6.0460   10.5550   -5.6940 C   0  0  0  0  0  0  0  0  0  0  0  0
    7.5280   10.5640   -3.6250 C   0  0  0  0  0  0  0  0  0  0  0  0
    0.5490   11.2690   -2.6870 C   0  0  1  0  0  0  0  0  0  0  0  0
   -0.8250   11.1010   -1.9850 C   0  0  0  0  0  0  0  0  0  0  0  0
   -0.9410   12.2480   -0.9500 C   0  0  0  0  0  0  0  0  0  0  0  0
    0.2040   13.2220   -1.3150 C   0  0  1  0  0  0  0  0  0  0  0  0
   -0.3530   14.0680   -2.5030 C   0  0  0  0  0  0  0  0  0  0  0  0
    0.7340   14.1300   -0.1580 C   0  0  2  0  0  0  0  0  0  0  0  0
   -0.2980   15.1080    0.4290 C   0  0  0  0  0  0  0  0  0  0  0  0
   -0.3490   16.4500   -0.2230 C   0  0  0  0  0  0  0  0  0  0  0  0
    0.5880   16.9550   -1.0460 C   0  0  0  0  0  0  0  0  0  0  0  0
    1.8920   16.1930   -1.3180 C   0  0  1  0  0  0  0  0  0  0  0  0
    3.0940   17.1660   -1.2000 C   0  0  0  0  0  0  0  0  0  0  0  0
    2.9420   18.3960   -2.0890 C   0  0  0  0  0  0  0  0  0  0  0  0
    1.6640   19.1590   -1.7490 C   0  0  2  0  0  0  0  0  0  0  0  0
    1.7920   19.7100   -0.4340 O   0  0  0  0  0  0  0  0  0  0  0  0
    0.3860   18.2780   -1.8240 C   0  0  0  0  0  0  0  0  0  0  0  0
    0.0800   17.9310   -3.3020 C   0  0  0  0  0  0  0  0  0  0  0  0
   -0.8110   19.1300   -1.3220 C   0  0  0  0  0  0  0  0  0  0  0  0
    2.1020   14.8580   -0.4810 C   0  0  1  0  0  0  0  0  0  0  0  0
    2.7650   15.1890    0.8910 C   0  0  0  0  0  0  0  0  0  0  0  0
    3.1100   13.9240   -1.2490 C   0  0  0  0  0  0  0  0  0  0  0  0
    2.5110   12.9650   -2.2950 C   0  0  0  0  0  0  0  0  0  0  0  0
    1.3230   12.1920   -1.7130 C   0  0  2  0  0  0  0  0  0  0  0  0
    1.8570   11.3140   -0.5290 C   0  0  0  0  0  0  0  0  0  0  0  0
    0.5397    8.9227   -1.2479 H   0  0  0  0  0  0  0  0  0  0  0  0
   -0.6049    8.8052   -2.6273 H   0  0  0  0  0  0  0  0  0  0  0  0
    0.9046    7.8315   -2.6273 H   0  0  0  0  0  0  0  0  0  0  0  0
    1.1082    9.7596   -4.1278 H   0  0  0  0  0  0  0  0  0  0  0  0
    2.8255   10.5481   -1.7745 H   0  0  0  0  0  0  0  0  0  0  0  0
    3.0160    8.9168   -2.5784 H   0  0  0  0  0  0  0  0  0  0  0  0
    3.5991    9.8946   -4.6506 H   0  0  0  0  0  0  0  0  0  0  0  0
    3.1323   11.5484   -4.0722 H   0  0  0  0  0  0  0  0  0  0  0  0
    4.7573   10.3038   -2.3624 H   0  0  0  0  0  0  0  0  0  0  0  0
    5.5428    9.5901   -5.8546 H   0  0  0  0  0  0  0  0  0  0  0  0
    5.4524   11.3591   -6.1535 H   0  0  0  0  0  0  0  0  0  0  0  0
    7.0451   10.5284   -6.1535 H   0  0  0  0  0  0  0  0  0  0  0  0
    7.4495   10.5783   -2.5279 H   0  0  0  0  0  0  0  0  0  0  0  0
    7.9018    9.5829   -3.9531 H   0  0  0  0  0  0  0  0  0  0  0  0
    8.2241   11.3500   -3.9531 H   0  0  0  0  0  0  0  0  0  0  0  0
    0.5063   11.7273   -3.6861 H   0  0  0  0  0  0  0  0  0  0  0  0
   -1.6383   11.1722   -2.7222 H   0  0  0  0  0  0  0  0  0  0  0  0
   -0.9014   10.1185   -1.4962 H   0  0  0  0  0  0  0  0  0  0  0  0
   -1.9172   12.7482   -1.0328 H   0  0  0  0  0  0  0  0  0  0  0  0
   -0.8645   11.8843    0.0853 H   0  0  0  0  0  0  0  0  0  0  0  0
   -0.9178   14.9258   -2.1092 H   0  0  0  0  0  0  0  0  0  0  0  0
    0.4833   14.4310   -3.1185 H   0  0  0  0  0  0  0  0  0  0  0  0
   -1.0170   13.4432   -3.1185 H   0  0  0  0  0  0  0  0  0  0  0  0
    0.9405   13.4005    0.6390 H   0  0  0  0  0  0  0  0  0  0  0  0
   -1.2928   14.6477    0.3371 H   0  0  0  0  0  0  0  0  0  0  0  0
    0.0108   15.2872    1.4695 H   0  0  0  0  0  0  0  0  0  0  0  0
   -1.2266   17.0790   -0.0129 H   0  0  0  0  0  0  0  0  0  0  0  0
    1.8161   15.8174   -2.3491 H   0  0  0  0  0  0  0  0  0  0  0  0
    3.1792   17.4956   -0.1540 H   0  0  0  0  0  0  0  0  0  0  0  0
    3.9937   16.6257   -1.5295 H   0  0  0  0  0  0  0  0  0  0  0  0
    3.8075   19.0581   -1.9389 H   0  0  0  0  0  0  0  0  0  0  0  0
    2.8870   18.0675   -3.1373 H   0  0  0  0  0  0  0  0  0  0  0  0
    1.5430   19.9517   -2.5020 H   0  0  0  0  0  0  0  0  0  0  0  0
    1.0040   19.4490    0.0720 H   0  0  0  0  0  0  0  0  0  0  0  0
   -0.6471   17.1065   -3.3421 H   0  0  0  0  0  0  0  0  0  0  0  0
   -0.3388   18.8140   -3.8068 H   0  0  0  0  0  0  0  0  0  0  0  0
    1.0085   17.6260   -3.8068 H   0  0  0  0  0  0  0  0  0  0  0  0
   -0.8205   19.1368   -0.2221 H   0  0  0  0  0  0  0  0  0  0  0  0
   -0.7094   20.1601   -1.6941 H   0  0  0  0  0  0  0  0  0  0  0  0
   -1.7511   18.6967   -1.6941 H   0  0  0  0  0  0  0  0  0  0  0  0
    2.1045   14.8592    1.7065 H   0  0  0  0  0  0  0  0  0  0  0  0
    3.7303   14.6671    0.9672 H   0  0  0  0  0  0  0  0  0  0  0  0
    2.9279   16.2742    0.9672 H   0  0  0  0  0  0  0  0  0  0  0  0
    3.8340   14.5705   -1.7666 H   0  0  0  0  0  0  0  0  0  0  0  0
    3.5432   13.2720   -0.4762 H   0  0  0  0  0  0  0  0  0  0  0  0
    2.1706   13.5473   -3.1639 H   0  0  0  0  0  0  0  0  0  0  0  0
    3.2859   12.2441   -2.5945 H   0  0  0  0  0  0  0  0  0  0  0  0
    1.5749   11.7778    0.4277 H   0  0  0  0  0  0  0  0  0  0  0  0
    1.4180   10.3074   -0.5920 H   0  0  0  0  0  0  0  0  0  0  0  0
    2.9528   11.2408   -0.5920 H   0  0  0  0  0  0  0  0  0  0  0  0
  1  2  1  0
  2  3  1  0
  3  4  1  0
  4  5  1  0
  5  6  1  0
  6  7  1  0
  7  8  1  0
  7  9  1  0
  2 10  1  0
 10 11  1  0
 11 12  1  0
 12 13  1  0
 13 14  1  6
 13 15  1  0
 15 16  1  0
 16 17  1  0
 17 18  2  0
 18 19  1  0
 19 20  1  0
 20 21  1  0
 21 22  1  0
 22 23  1  0
 22 24  1  0
 24 25  1  0
 24 26  1  0
 19 27  1  0
 27 28  1  1
 27 29  1  0
 29 30  1  0
 30 31  1  0
 31 32  1  1
  7  5  1  0
 31 10  1  0
 31 13  1  0
 27 15  1  0
 24 18  1  0
  1 33  1  0
  1 34  1  0
  1 35  1  0
  2 36  1  6
  3 37  1  0
  3 38  1  0
  4 39  1  0
  4 40  1  0
  5 41  1  1
  8 42  1  0
  8 43  1  0
  8 44  1  0
  9 45  1  0
  9 46  1  0
  9 47  1  0
 10 48  1  6
 11 49  1  0
 11 50  1  0
 12 51  1  0
 12 52  1  0
 14 53  1  0
 14 54  1  0
 14 55  1  0
 15 56  1  1
 16 57  1  0
 16 58  1  0
 17 59  1  0
 19 60  1  6
 20 61  1  0
 20 62  1  0
 21 63  1  0
 21 64  1  0
 22 65  1  6
 23 66  1  0
 25 67  1  0
 25 68  1  0
 25 69  1  0
 26 70  1  0
 26 71  1  0
 26 72  1  0
 28 73  1  0
 28 74  1  0
 28 75  1  0
 29 76  1  0
 29 77  1  0
 30 78  1  0
 30 79  1  0
 32 80  1  0
 32 81  1  0
 32 82  1  0
M  END
>  <meeko>  (7) 
{"is_sidechain": [false], "intermolecular_energy": 2.731, "internal_energy": -0.839}

$$$$
EPH_relaxed_0001_pdb2pqr_Repair_122_r2_0001_out
     RDKit          3D

 82 86  0  0  0  0  0  0  0  0999 V2000
    2.6500   19.1080   -1.1510 C   0  0  0  0  0  0  0  0  0  0  0  0
    2.3810   18.0730   -2.2470 C   0  0  2  0  0  0  0  0  0  0  0  0
    0.9410   18.1610   -2.7890 C   0  0  0  0  0  0  0  0  0  0  0  0
    0.1840   19.4080   -2.3250 C   0  0  0  0  0  0  0  0  0  0  0  0
   -1.0870   19.0530   -1.6140 C   0  0  2  0  0  0  0  0  0  0  0  0
   -1.9120   20.1730   -1.2670 O   0  0  0  0  0  0  0  0  0  0  0  0
   -1.3690   19.4220   -0.1700 C   0  0  0  0  0  0  0  0  0  0  0  0
   -0.3720   20.1780    0.6520 C   0  0  0  0  0  0  0  0  0  0  0  0
   -2.3920   18.6300    0.5840 C   0  0  0  0  0  0  0  0  0  0  0  0
    2.6530   16.6700   -1.7150 C   0  0  1  0  0  0  0  0  0  0  0  0
    3.4820   16.6790   -0.4030 C   0  0  0  0  0  0  0  0  0  0  0  0
    2.9690   15.4960    0.4580 C   0  0  0  0  0  0  0  0  0  0  0  0
    2.1060   14.6540   -0.5110 C   0  0  1  0  0  0  0  0  0  0  0  0
    3.1310   13.7910   -1.3130 C   0  0  0  0  0  0  0  0  0  0  0  0
    0.9950   13.7700    0.1440 C   0  0  2  0  0  0  0  0  0  0  0  0
    1.5070   12.6770    1.0980 C   0  0  0  0  0  0  0  0  0  0  0  0
    1.7890   11.3560    0.4610 C   0  0  0  0  0  0  0  0  0  0  0  0
    1.3720   10.9710   -0.7590 C   0  0  0  0  0  0  0  0  0  0  0  0
    0.4500   11.8680   -1.5960 C   0  0  1  0  0  0  0  0  0  0  0  0
   -0.7090   11.0180   -2.1790 C   0  0  0  0  0  0  0  0  0  0  0  0
   -0.2110    9.8050   -2.9580 C   0  0  0  0  0  0  0  0  0  0  0  0
    0.6540    8.9080   -2.0760 C   0  0  2  0  0  0  0  0  0  0  0  0
   -0.1680    8.3350   -1.0550 O   0  0  0  0  0  0  0  0  0  0  0  0
    1.8500    9.6580   -1.4260 C   0  0  0  0  0  0  0  0  0  0  0  0
    2.8930   10.0150   -2.5130 C   0  0  0  0  0  0  0  0  0  0  0  0
    2.5560    8.6760   -0.4520 C   0  0  0  0  0  0  0  0  0  0  0  0
   -0.0620   13.1930   -0.8830 C   0  0  1  0  0  0  0  0  0  0  0  0
   -1.3560   12.8910   -0.0670 C   0  0  0  0  0  0  0  0  0  0  0  0
   -0.4660   14.2450   -1.9820 C   0  0  0  0  0  0  0  0  0  0  0  0
    0.6520   15.1690   -2.5020 C   0  0  0  0  0  0  0  0  0  0  0  0
    1.4250   15.8020   -1.3410 C   0  0  2  0  0  0  0  0  0  0  0  0
    0.4260   16.6940   -0.5300 C   0  0  0  0  0  0  0  0  0  0  0  0
    2.5277   18.6374   -0.1643 H   0  0  0  0  0  0  0  0  0  0  0  0
    3.6770   19.4891   -1.2507 H   0  0  0  0  0  0  0  0  0  0  0  0
    1.9385   19.9410   -1.2507 H   0  0  0  0  0  0  0  0  0  0  0  0
    3.0615   18.2923   -3.0830 H   0  0  0  0  0  0  0  0  0  0  0  0
    0.9836   18.1695   -3.8881 H   0  0  0  0  0  0  0  0  0  0  0  0
    0.3961   17.2896   -2.3968 H   0  0  0  0  0  0  0  0  0  0  0  0
    0.8269   19.9812   -1.6409 H   0  0  0  0  0  0  0  0  0  0  0  0
   -0.0749   20.0022   -3.2137 H   0  0  0  0  0  0  0  0  0  0  0  0
   -1.1524   18.0993   -2.1582 H   0  0  0  0  0  0  0  0  0  0  0  0
   -0.5816   20.0191    1.7201 H   0  0  0  0  0  0  0  0  0  0  0  0
    0.6417   19.8195    0.4199 H   0  0  0  0  0  0  0  0  0  0  0  0
   -0.4436   21.2509    0.4199 H   0  0  0  0  0  0  0  0  0  0  0  0
   -2.2296   18.7557    1.6647 H   0  0  0  0  0  0  0  0  0  0  0  0
   -3.3988   18.9864    0.3206 H   0  0  0  0  0  0  0  0  0  0  0  0
   -2.2991   17.5660    0.3206 H   0  0  0  0  0  0  0  0  0  0  0  0
    3.1683   16.2384   -2.5857 H   0  0  0  0  0  0  0  0  0  0  0  0
    4.5505   16.5477   -0.6291 H   0  0  0  0  0  0  0  0  0  0  0  0
    3.3676   17.6344    0.1301 H   0  0  0  0  0  0  0  0  0  0  0  0
    3.8111   14.9026    0.8437 H   0  0  0  0  0  0  0  0  0  0  0  0
    2.4000   15.8350    1.3362 H   0  0  0  0  0  0  0  0  0  0  0  0
    3.7791   13.2453   -0.6114 H   0  0  0  0  0  0  0  0  0  0  0  0
    2.5895   13.0728   -1.9462 H   0  0  0  0  0  0  0  0  0  0  0  0
    3.7464   14.4469   -1.9462 H   0  0  0  0  0  0  0  0  0  0  0  0
    0.4623   14.4930    0.7792 H   0  0  0  0  0  0  0  0  0  0  0  0
    2.4381   13.0375    1.5597 H   0  0  0  0  0  0  0  0  0  0  0  0
    0.6970   12.4998    1.8209 H   0  0  0  0  0  0  0  0  0  0  0  0
    2.3885   10.6367    1.0382 H   0  0  0  0  0  0  0  0  0  0  0  0
    1.0701   12.2635   -2.4140 H   0  0  0  0  0  0  0  0  0  0  0  0
   -1.3418   10.6689   -1.3498 H   0  0  0  0  0  0  0  0  0  0  0  0
   -1.2714   11.6551   -2.8774 H   0  0  0  0  0  0  0  0  0  0  0  0
   -1.0759    9.2290   -3.3189 H   0  0  0  0  0  0  0  0  0  0  0  0
    0.3970   10.1567   -3.8045 H   0  0  0  0  0  0  0  0  0  0  0  0
    1.0865    8.1289   -2.7209 H   0  0  0  0  0  0  0  0  0  0  0  0
   -0.9920    8.0340   -1.4740 H   0  0  0  0  0  0  0  0  0  0  0  0
    3.8289   10.3354   -2.0320 H   0  0  0  0  0  0  0  0  0  0  0  0
    3.0864    9.1319   -3.1397 H   0  0  0  0  0  0  0  0  0  0  0  0
    2.5047   10.8314   -3.1397 H   0  0  0  0  0  0  0  0  0  0  0  0
    2.3430    8.9723    0.5857 H   0  0  0  0  0  0  0  0  0  0  0  0
    2.1833    7.6558   -0.6259 H   0  0  0  0  0  0  0  0  0  0  0  0
    3.6418    8.7043   -0.6259 H   0  0  0  0  0  0  0  0  0  0  0  0
   -1.1318   12.9433    1.0086 H   0  0  0  0  0  0  0  0  0  0  0  0
   -2.1287   13.6330   -0.3170 H   0  0  0  0  0  0  0  0  0  0  0  0
   -1.7204   11.8837   -0.3170 H   0  0  0  0  0  0  0  0  0  0  0  0
   -0.8666   13.6899   -2.8430 H   0  0  0  0  0  0  0  0  0  0  0  0
   -1.1871   14.9139   -1.4896 H   0  0  0  0  0  0  0  0  0  0  0  0
    1.3473   14.5806   -3.1187 H   0  0  0  0  0  0  0  0  0  0  0  0
    0.1941   15.9724   -3.0976 H   0  0  0  0  0  0  0  0  0  0  0  0
    0.5928   16.5451    0.5470 H   0  0  0  0  0  0  0  0  0  0  0  0
    0.5899   17.7517   -0.7836 H   0  0  0  0  0  0  0  0  0  0  0  0
   -0.6065   16.4118   -0.7836 H   0  0  0  0  0  0  0  0  0  0  0  0
  1  2  1  0
  2  3  1  0
  3  4  1  0
  4  5  1  0
  5  6  1  0
  6  7  1  0
  7  8  1  0
  7  9  1  0
  2 10  1  0
 10 11  1  0
 11 12  1  0
 12 13  1  0
 13 14  1  6
 13 15  1  0
 15 16  1  0
 16 17  1  0
 17 18  2  0
 18 19  1  0
 19 20  1  0
 20 21  1  0
 21 22  1  0
 22 23  1  0
 22 24  1  0
 24 25  1  0
 24 26  1  0
 19 27  1  0
 27 28  1  1
 27 29  1  0
 29 30  1  0
 30 31  1  0
 31 32  1  1
  7  5  1  0
 31 10  1  0
 31 13  1  0
 27 15  1  0
 24 18  1  0
  1 33  1  0
  1 34  1  0
  1 35  1  0
  2 36  1  6
  3 37  1  0
  3 38  1  0
  4 39  1  0
  4 40  1  0
  5 41  1  6
  8 42  1  0
  8 43  1  0
  8 44  1  0
  9 45  1  0
  9 46  1  0
  9 47  1  0
 10 48  1  6
 11 49  1  0
 11 50  1  0
 12 51  1  0
 12 52  1  0
 14 53  1  0
 14 54  1  0
 14 55  1  0
 15 56  1  1
 16 57  1  0
 16 58  1  0
 17 59  1  0
 19 60  1  6
 20 61  1  0
 20 62  1  0
 21 63  1  0
 21 64  1  0
 22 65  1  6
 23 66  1  0
 25 67  1  0
 25 68  1  0
 25 69  1  0
 26 70  1  0
 26 71  1  0
 26 72  1  0
 28 73  1  0
 28 74  1  0
 28 75  1  0
 29 76  1  0
 29 77  1  0
 30 78  1  0
 30 79  1  0
 32 80  1  0
 32 81  1  0
 32 82  1  0
M  END
>  <meeko>  (8) 
{"is_sidechain": [false], "intermolecular_energy": 2.731, "internal_energy": -0.839}

$$$$
EPH_relaxed_0001_pdb2pqr_Repair_122_r2_0001_out
     RDKit          3D

 82 86  0  0  0  0  0  0  0  0999 V2000
   -3.7440    7.2100   -3.4290 C   0  0  0  0  0  0  0  0  0  0  0  0
   -3.7690    7.2830   -1.9000 C   0  0  2  0  0  0  0  0  0  0  0  0
   -5.1860    7.0630   -1.3320 C   0  0  0  0  0  0  0  0  0  0  0  0
   -6.3030    7.3180   -2.3480 C   0  0  0  0  0  0  0  0  0  0  0  0
   -7.6290    7.5090   -1.6770 C   0  0  2  0  0  0  0  0  0  0  0  0
   -8.1900    6.3170   -1.1100 O   0  0  0  0  0  0  0  0  0  0  0  0
   -8.9230    6.9090   -2.1960 C   0  0  0  0  0  0  0  0  0  0  0  0
   -8.9530    6.0730   -3.4360 C   0  0  0  0  0  0  0  0  0  0  0  0
  -10.2180    7.5320   -1.7790 C   0  0  0  0  0  0  0  0  0  0  0  0
   -3.2240    8.6270   -1.4340 C   0  0  1  0  0  0  0  0  0  0  0  0
   -3.8400    9.0880   -0.0860 C   0  0  0  0  0  0  0  0  0  0  0  0
   -2.7230    9.8390    0.6830 C   0  0  0  0  0  0  0  0  0  0  0  0
   -1.6160   10.0760   -0.3700 C   0  0  1  0  0  0  0  0  0  0  0  0
   -2.0840   11.3320   -1.1700 C   0  0  0  0  0  0  0  0  0  0  0  0
   -0.1630   10.2510    0.1820 C   0  0  2  0  0  0  0  0  0  0  0  0
    0.0440   11.4710    1.0970 C   0  0  0  0  0  0  0  0  0  0  0  0
    0.4570   12.7260    0.4020 C   0  0  0  0  0  0  0  0  0  0  0  0
    0.9300   12.8040   -0.8560 C   0  0  0  0  0  0  0  0  0  0  0  0
    1.1800   11.5370   -1.6840 C   0  0  1  0  0  0  0  0  0  0  0  0
    2.5700   11.6310   -2.3660 C   0  0  0  0  0  0  0  0  0  0  0  0
    2.7340   12.9070   -3.1870 C   0  0  0  0  0  0  0  0  0  0  0  0
    2.5350   14.1450   -2.3170 C   0  0  2  0  0  0  0  0  0  0  0  0
    3.6030   14.2180   -1.3680 O   0  0  0  0  0  0  0  0  0  0  0  0
    1.1710   14.1570   -1.5710 C   0  0  0  0  0  0  0  0  0  0  0  0
    0.0240   14.3810   -2.5870 C   0  0  0  0  0  0  0  0  0  0  0  0
    1.1570   15.3850   -0.6220 C   0  0  0  0  0  0  0  0  0  0  0  0
    0.9660   10.1590   -0.9230 C   0  0  1  0  0  0  0  0  0  0  0  0
    2.2770    9.7480   -0.1860 C   0  0  0  0  0  0  0  0  0  0  0  0
    0.6770    9.0280   -1.9800 C   0  0  0  0  0  0  0  0  0  0  0  0
   -0.7920    8.8240   -2.3960 C   0  0  0  0  0  0  0  0  0  0  0  0
   -1.7010    8.7230   -1.1670 C   0  0  2  0  0  0  0  0  0  0  0  0
   -1.2680    7.4550   -0.3540 C   0  0  0  0  0  0  0  0  0  0  0  0
   -3.4024    6.2126   -3.7429 H   0  0  0  0  0  0  0  0  0  0  0  0
   -4.7555    7.3915   -3.8213 H   0  0  0  0  0  0  0  0  0  0  0  0
   -3.0561    7.9735   -3.8213 H   0  0  0  0  0  0  0  0  0  0  0  0
   -3.1307    6.4719   -1.5196 H   0  0  0  0  0  0  0  0  0  0  0  0
   -5.2632    6.0220   -0.9849 H   0  0  0  0  0  0  0  0  0  0  0  0
   -5.3216    7.7886   -0.5164 H   0  0  0  0  0  0  0  0  0  0  0  0
   -6.0612    8.2234   -2.9240 H   0  0  0  0  0  0  0  0  0  0  0  0
   -6.3750    6.4397   -3.0063 H   0  0  0  0  0  0  0  0  0  0  0  0
   -7.3578    8.5325   -1.3788 H   0  0  0  0  0  0  0  0  0  0  0  0
   -8.9912    5.0089   -3.1600 H   0  0  0  0  0  0  0  0  0  0  0  0
   -9.8425    6.3299   -4.0300 H   0  0  0  0  0  0  0  0  0  0  0  0
   -8.0474    6.2655   -4.0300 H   0  0  0  0  0  0  0  0  0  0  0  0
  -10.2749    7.5594   -0.6808 H   0  0  0  0  0  0  0  0  0  0  0  0
  -10.2762    8.5567   -2.1748 H   0  0  0  0  0  0  0  0  0  0  0  0
  -11.0549    6.9380   -2.1748 H   0  0  0  0  0  0  0  0  0  0  0  0
   -3.4940    9.2455   -2.3026 H   0  0  0  0  0  0  0  0  0  0  0  0
   -4.6915    9.7599   -0.2688 H   0  0  0  0  0  0  0  0  0  0  0  0
   -4.2094    8.2291    0.4935 H   0  0  0  0  0  0  0  0  0  0  0  0
   -3.0975   10.7962    1.0749 H   0  0  0  0  0  0  0  0  0  0  0  0
   -2.3584    9.2694    1.5505 H   0  0  0  0  0  0  0  0  0  0  0  0
   -2.3795   12.1251   -0.4674 H   0  0  0  0  0  0  0  0  0  0  0  0
   -1.2595   11.6916   -1.8032 H   0  0  0  0  0  0  0  0  0  0  0  0
   -2.9428   11.0644   -1.8032 H   0  0  0  0  0  0  0  0  0  0  0  0
   -0.0483    9.3688    0.8289 H   0  0  0  0  0  0  0  0  0  0  0  0
   -0.9033   11.6681    1.6203 H   0  0  0  0  0  0  0  0  0  0  0  0
    0.8731   11.2091    1.7708 H   0  0  0  0  0  0  0  0  0  0  0  0
    0.3672   13.6665    0.9654 H   0  0  0  0  0  0  0  0  0  0  0  0
    0.3897   11.5118   -2.4487 H   0  0  0  0  0  0  0  0  0  0  0  0
    3.3469   11.6103   -1.5875 H   0  0  0  0  0  0  0  0  0  0  0  0
    2.6630   10.7774   -3.0535 H   0  0  0  0  0  0  0  0  0  0  0  0
    3.7453   12.9295   -3.6191 H   0  0  0  0  0  0  0  0  0  0  0  0
    1.9752   12.9120   -3.9833 H   0  0  0  0  0  0  0  0  0  0  0  0
    2.5354   15.0201   -2.9835 H   0  0  0  0  0  0  0  0  0  0  0  0
    4.2210   13.4930   -1.5640 H   0  0  0  0  0  0  0  0  0  0  0  0
   -0.9154   14.5645   -2.0449 H   0  0  0  0  0  0  0  0  0  0  0  0
    0.2585   15.2503   -3.2189 H   0  0  0  0  0  0  0  0  0  0  0  0
   -0.0858   13.4873   -3.2189 H   0  0  0  0  0  0  0  0  0  0  0  0
    1.1609   15.0410    0.4228 H   0  0  0  0  0  0  0  0  0  0  0  0
    2.0482   16.0024   -0.8081 H   0  0  0  0  0  0  0  0  0  0  0  0
    0.2520   15.9819   -0.8081 H   0  0  0  0  0  0  0  0  0  0  0  0
    2.1175    9.7980    0.9012 H   0  0  0  0  0  0  0  0  0  0  0  0
    2.5505    8.7210   -0.4696 H   0  0  0  0  0  0  0  0  0  0  0  0
    3.0879   10.4350   -0.4696 H   0  0  0  0  0  0  0  0  0  0  0  0
    1.2497    9.2673   -2.8882 H   0  0  0  0  0  0  0  0  0  0  0  0
    0.9683    8.0902   -1.4844 H   0  0  0  0  0  0  0  0  0  0  0  0
   -1.1133    9.6768   -3.0121 H   0  0  0  0  0  0  0  0  0  0  0  0
   -0.8680    7.8866   -2.9665 H   0  0  0  0  0  0  0  0  0  0  0  0
   -1.3406    7.6675    0.7228 H   0  0  0  0  0  0  0  0  0  0  0  0
   -1.9297    6.6135   -0.6071 H   0  0  0  0  0  0  0  0  0  0  0  0
   -0.2298    7.1940   -0.6071 H   0  0  0  0  0  0  0  0  0  0  0  0
  1  2  1  0
  2  3  1  0
  3  4  1  0
  4  5  1  0
  5  6  1  0
  6  7  1  0
  7  8  1  0
  7  9  1  0
  2 10  1  0
 10 11  1  0
 11 12  1  0
 12 13  1  0
 13 14  1  6
 13 15  1  0
 15 16  1  0
 16 17  1  0
 17 18  2  0
 18 19  1  0
 19 20  1  0
 20 21  1  0
 21 22  1  0
 22 23  1  0
 22 24  1  0
 24 25  1  0
 24 26  1  0
 19 27  1  0
 27 28  1  1
 27 29  1  0
 29 30  1  0
 30 31  1  0
 31 32  1  1
  7  5  1  0
 31 10  1  0
 31 13  1  0
 27 15  1  0
 24 18  1  0
  1 33  1  0
  1 34  1  0
  1 35  1  0
  2 36  1  1
  3 37  1  0
  3 38  1  0
  4 39  1  0
  4 40  1  0
  5 41  1  1
  8 42  1  0
  8 43  1  0
  8 44  1  0
  9 45  1  0
  9 46  1  0
  9 47  1  0
 10 48  1  6
 11 49  1  0
 11 50  1  0
 12 51  1  0
 12 52  1  0
 14 53  1  0
 14 54  1  0
 14 55  1  0
 15 56  1  1
 16 57  1  0
 16 58  1  0
 17 59  1  0
 19 60  1  6
 20 61  1  0
 20 62  1  0
 21 63  1  0
 21 64  1  0
 22 65  1  6
 23 66  1  0
 25 67  1  0
 25 68  1  0
 25 69  1  0
 26 70  1  0
 26 71  1  0
 26 72  1  0
 28 73  1  0
 28 74  1  0
 28 75  1  0
 29 76  1  0
 29 77  1  0
 30 78  1  0
 30 79  1  0
 32 80  1  0
 32 81  1  0
 32 82  1  0
M  END
>  <meeko>  (9) 
{"is_sidechain": [false], "intermolecular_energy": 2.731, "internal_energy": -0.839}

$$$$
EPH_relaxed_0001_pdb2pqr_Repair_122_r2_0001_out
     RDKit          3D

 82 86  0  0  0  0  0  0  0  0999 V2000
   -0.8100   16.3100   -5.8600 C   0  0  0  0  0  0  0  0  0  0  0  0
    0.2850   15.5970   -6.6580 C   0  0  2  0  0  0  0  0  0  0  0  0
   -0.0960   15.4270   -8.1420 C   0  0  0  0  0  0  0  0  0  0  0  0
    0.4730   16.5180   -9.0530 C   0  0  0  0  0  0  0  0  0  0  0  0
    1.8390   16.1620   -9.5580 C   0  0  2  0  0  0  0  0  0  0  0  0
    2.0140   16.3210  -10.9720 O   0  0  0  0  0  0  0  0  0  0  0  0
    2.1110   14.9790  -10.4680 C   0  0  0  0  0  0  0  0  0  0  0  0
    1.0090   14.0750  -10.9250 C   0  0  0  0  0  0  0  0  0  0  0  0
    3.4980   14.4160  -10.5150 C   0  0  0  0  0  0  0  0  0  0  0  0
    0.5780   14.2370   -6.0360 C   0  0  1  0  0  0  0  0  0  0  0  0
    1.8070   13.5390   -6.6780 C   0  0  0  0  0  0  0  0  0  0  0  0
    2.5200   12.7560   -5.5460 C   0  0  0  0  0  0  0  0  0  0  0  0
    1.5080   12.7550   -4.3760 C   0  0  1  0  0  0  0  0  0  0  0  0
    0.5070   11.6050   -4.7130 C   0  0  0  0  0  0  0  0  0  0  0  0
    2.1090   12.5950   -2.9420 C   0  0  2  0  0  0  0  0  0  0  0  0
    2.8450   11.2680   -2.6870 C   0  0  0  0  0  0  0  0  0  0  0  0
    1.9990   10.1620   -2.1500 C   0  0  0  0  0  0  0  0  0  0  0  0
    0.7710   10.3050   -1.6160 C   0  0  0  0  0  0  0  0  0  0  0  0
    0.1540   11.6960   -1.4220 C   0  0  1  0  0  0  0  0  0  0  0  0
   -0.4550   11.7980    0.0010 C   0  0  0  0  0  0  0  0  0  0  0  0
   -1.4440   10.6740    0.2960 C   0  0  0  0  0  0  0  0  0  0  0  0
   -0.7770    9.3090    0.1490 C   0  0  2  0  0  0  0  0  0  0  0  0
    0.2090    9.1650    1.1750 O   0  0  0  0  0  0  0  0  0  0  0  0
   -0.1190    9.0950   -1.2420 C   0  0  0  0  0  0  0  0  0  0  0  0
   -1.2200    8.9500   -2.3220 C   0  0  0  0  0  0  0  0  0  0  0  0
    0.6370    7.7390   -1.2090 C   0  0  0  0  0  0  0  0  0  0  0  0
    1.0950   12.9270   -1.7730 C   0  0  1  0  0  0  0  0  0  0  0  0
    1.9570   13.3090   -0.5310 C   0  0  0  0  0  0  0  0  0  0  0  0
    0.2010   14.1830   -2.0950 C   0  0  0  0  0  0  0  0  0  0  0  0
   -0.2630   14.3490   -3.5550 C   0  0  0  0  0  0  0  0  0  0  0  0
    0.9140   14.2030   -4.5240 C   0  0  2  0  0  0  0  0  0  0  0  0
    1.9270   15.3600   -4.2240 C   0  0  0  0  0  0  0  0  0  0  0  0
   -0.6193   16.1858   -4.7838 H   0  0  0  0  0  0  0  0  0  0  0  0
   -0.8086   17.3809   -6.1114 H   0  0  0  0  0  0  0  0  0  0  0  0
   -1.7888   15.8756   -6.1114 H   0  0  0  0  0  0  0  0  0  0  0  0
    1.1867   16.2258   -6.6190 H   0  0  0  0  0  0  0  0  0  0  0  0
    0.2819   14.4537   -8.4881 H   0  0  0  0  0  0  0  0  0  0  0  0
   -1.1921   15.4976   -8.2023 H   0  0  0  0  0  0  0  0  0  0  0  0
   -0.2008   16.6524   -9.9120 H   0  0  0  0  0  0  0  0  0  0  0  0
    0.5549   17.4455   -8.4674 H   0  0  0  0  0  0  0  0  0  0  0  0
    2.2998   16.4880   -8.6139 H   0  0  0  0  0  0  0  0  0  0  0  0
    0.4942   13.6527  -10.0494 H   0  0  0  0  0  0  0  0  0  0  0  0
    0.2918   14.6484  -11.5307 H   0  0  0  0  0  0  0  0  0  0  0  0
    1.4311   13.2596  -11.5307 H   0  0  0  0  0  0  0  0  0  0  0  0
    3.8677   14.2659   -9.4899 H   0  0  0  0  0  0  0  0  0  0  0  0
    3.4847   13.4521  -11.0448 H   0  0  0  0  0  0  0  0  0  0  0  0
    4.1603   15.1165  -11.0448 H   0  0  0  0  0  0  0  0  0  0  0  0
   -0.3862   13.7399   -6.2182 H   0  0  0  0  0  0  0  0  0  0  0  0
    1.4796   12.8476   -7.4685 H   0  0  0  0  0  0  0  0  0  0  0  0
    2.4843   14.2751   -7.1356 H   0  0  0  0  0  0  0  0  0  0  0  0
    2.7443   11.7279   -5.8665 H   0  0  0  0  0  0  0  0  0  0  0  0
    3.4817   13.2105   -5.2657 H   0  0  0  0  0  0  0  0  0  0  0  0
    0.1250   11.1661   -3.7795 H   0  0  0  0  0  0  0  0  0  0  0  0
   -0.3320   12.0090   -5.2985 H   0  0  0  0  0  0  0  0  0  0  0  0
    1.0229   10.8297   -5.2985 H   0  0  0  0  0  0  0  0  0  0  0  0
    2.8843   13.3751   -2.9234 H   0  0  0  0  0  0  0  0  0  0  0  0
    3.2791   10.9316   -3.6401 H   0  0  0  0  0  0  0  0  0  0  0  0
    3.5954   11.4808   -1.9114 H   0  0  0  0  0  0  0  0  0  0  0  0
    2.4135    9.1440   -2.1941 H   0  0  0  0  0  0  0  0  0  0  0  0
   -0.6422   11.7835   -2.1759 H   0  0  0  0  0  0  0  0  0  0  0  0
    0.3606   11.7525    0.7377 H   0  0  0  0  0  0  0  0  0  0  0  0
   -1.0031   12.7497    0.0622 H   0  0  0  0  0  0  0  0  0  0  0  0
   -1.8172   10.7835    1.3249 H   0  0  0  0  0  0  0  0  0  0  0  0
   -2.2742   10.7387   -0.4228 H   0  0  0  0  0  0  0  0  0  0  0  0
   -1.5635    8.5459    0.2440 H   0  0  0  0  0  0  0  0  0  0  0  0
    1.0790    9.3280    0.7720 H   0  0  0  0  0  0  0  0  0  0  0  0
   -2.1975    8.8213   -1.8342 H   0  0  0  0  0  0  0  0  0  0  0  0
   -1.2395    9.8533   -2.9494 H   0  0  0  0  0  0  0  0  0  0  0  0
   -1.0049    8.0724   -2.9494 H   0  0  0  0  0  0  0  0  0  0  0  0
    0.8048    7.4381   -0.1644 H   0  0  0  0  0  0  0  0  0  0  0  0
    0.0364    6.9718   -1.7196 H   0  0  0  0  0  0  0  0  0  0  0  0
    1.6053    7.8465   -1.7196 H   0  0  0  0  0  0  0  0  0  0  0  0
    1.4045   13.0642    0.3881 H   0  0  0  0  0  0  0  0  0  0  0  0
    2.9012   12.7450   -0.5525 H   0  0  0  0  0  0  0  0  0  0  0  0
    2.1734   14.3873   -0.5525 H   0  0  0  0  0  0  0  0  0  0  0  0
   -0.6985   14.1217   -1.4648 H   0  0  0  0  0  0  0  0  0  0  0  0
    0.8442   15.0530   -1.8965 H   0  0  0  0  0  0  0  0  0  0  0  0
   -1.0148   13.5792   -3.7834 H   0  0  0  0  0  0  0  0  0  0  0  0
   -0.6930   15.3544   -3.6743 H   0  0  0  0  0  0  0  0  0  0  0  0
    2.0333   15.4814   -3.1359 H   0  0  0  0  0  0  0  0  0  0  0  0
    2.9052   15.1138   -4.6627 H   0  0  0  0  0  0  0  0  0  0  0  0
    1.5537   16.2971   -4.6627 H   0  0  0  0  0  0  0  0  0  0  0  0
  1  2  1  0
  2  3  1  0
  3  4  1  0
  4  5  1  0
  5  6  1  0
  6  7  1  0
  7  8  1  0
  7  9  1  0
  2 10  1  0
 10 11  1  0
 11 12  1  0
 12 13  1  0
 13 14  1  6
 13 15  1  0
 15 16  1  0
 16 17  1  0
 17 18  2  0
 18 19  1  0
 19 20  1  0
 20 21  1  0
 21 22  1  0
 22 23  1  0
 22 24  1  0
 24 25  1  0
 24 26  1  0
 19 27  1  0
 27 28  1  1
 27 29  1  0
 29 30  1  0
 30 31  1  0
 31 32  1  6
  7  5  1  0
 31 10  1  0
 31 13  1  0
 27 15  1  0
 24 18  1  0
  1 33  1  0
  1 34  1  0
  1 35  1  0
  2 36  1  6
  3 37  1  0
  3 38  1  0
  4 39  1  0
  4 40  1  0
  5 41  1  1
  8 42  1  0
  8 43  1  0
  8 44  1  0
  9 45  1  0
  9 46  1  0
  9 47  1  0
 10 48  1  1
 11 49  1  0
 11 50  1  0
 12 51  1  0
 12 52  1  0
 14 53  1  0
 14 54  1  0
 14 55  1  0
 15 56  1  6
 16 57  1  0
 16 58  1  0
 17 59  1  0
 19 60  1  6
 20 61  1  0
 20 62  1  0
 21 63  1  0
 21 64  1  0
 22 65  1  1
 23 66  1  0
 25 67  1  0
 25 68  1  0
 25 69  1  0
 26 70  1  0
 26 71  1  0
 26 72  1  0
 28 73  1  0
 28 74  1  0
 28 75  1  0
 29 76  1  0
 29 77  1  0
 30 78  1  0
 30 79  1  0
 32 80  1  0
 32 81  1  0
 32 82  1  0
M  END
>  <meeko>  (10) 
{"is_sidechain": [false], "intermolecular_energy": 2.731, "internal_energy": -0.839}

$$$$
EPH_relaxed_0001_pdb2pqr_Repair_122_r2_0001_out
     RDKit          3D

 82 86  0  0  0  0  0  0  0  0999 V2000
   -0.0720    9.3710   -2.4260 C   0  0  0  0  0  0  0  0  0  0  0  0
    1.0250   10.3510   -2.8500 C   0  0  2  0  0  0  0  0  0  0  0  0
    2.4110    9.6780   -2.9160 C   0  0  0  0  0  0  0  0  0  0  0  0
    3.3570   10.3180   -3.9350 C   0  0  0  0  0  0  0  0  0  0  0  0
    4.7160   10.5620   -3.3520 C   0  0  2  0  0  0  0  0  0  0  0  0
    5.2760   11.8470   -3.6570 O   0  0  0  0  0  0  0  0  0  0  0  0
    5.9720   10.7090   -4.1910 C   0  0  0  0  0  0  0  0  0  0  0  0
    5.9290   10.6150   -5.6840 C   0  0  0  0  0  0  0  0  0  0  0  0
    7.2980   10.4560   -3.5440 C   0  0  0  0  0  0  0  0  0  0  0  0
    1.0650   11.5340   -1.8900 C   0  0  1  0  0  0  0  0  0  0  0  0
    2.1400   11.3680   -0.7830 C   0  0  0  0  0  0  0  0  0  0  0  0
    2.7010   12.7830   -0.4890 C   0  0  0  0  0  0  0  0  0  0  0  0
    1.7130   13.7470   -1.1860 C   0  0  1  0  0  0  0  0  0  0  0  0
    0.5150   13.8800   -0.1940 C   0  0  0  0  0  0  0  0  0  0  0  0
    2.2820   15.1450   -1.5930 C   0  0  2  0  0  0  0  0  0  0  0  0
    2.7610   16.0210   -0.4220 C   0  0  0  0  0  0  0  0  0  0  0  0
    1.7270   16.9250    0.1630 C   0  0  0  0  0  0  0  0  0  0  0  0
    0.5510   17.2410   -0.4090 C   0  0  0  0  0  0  0  0  0  0  0  0
    0.2020   16.7470   -1.8190 C   0  0  1  0  0  0  0  0  0  0  0  0
   -0.3700   17.9230   -2.6540 C   0  0  0  0  0  0  0  0  0  0  0  0
   -1.5480   18.6080   -1.9680 C   0  0  0  0  0  0  0  0  0  0  0  0
   -1.1470   19.1370   -0.5930 C   0  0  2  0  0  0  0  0  0  0  0  0
   -0.1980   20.1940   -0.7660 O   0  0  0  0  0  0  0  0  0  0  0  0
   -0.5470   18.0430    0.3330 C   0  0  0  0  0  0  0  0  0  0  0  0
   -1.6610   17.0570    0.7640 C   0  0  0  0  0  0  0  0  0  0  0  0
   -0.0540   18.7350    1.6330 C   0  0  0  0  0  0  0  0  0  0  0  0
    1.3530   15.9600   -2.5820 C   0  0  1  0  0  0  0  0  0  0  0  0
    2.2780   16.9670   -3.3330 C   0  0  0  0  0  0  0  0  0  0  0  0
    0.7050   15.0440   -3.6860 C   0  0  0  0  0  0  0  0  0  0  0  0
    0.2720   13.6310   -3.2500 C   0  0  0  0  0  0  0  0  0  0  0  0
    1.3970   12.9240   -2.4880 C   0  0  2  0  0  0  0  0  0  0  0  0
    2.6080   12.7570   -3.4680 C   0  0  0  0  0  0  0  0  0  0  0  0
   -0.1205    9.3276   -1.3279 H   0  0  0  0  0  0  0  0  0  0  0  0
   -1.0402    9.7104   -2.8227 H   0  0  0  0  0  0  0  0  0  0  0  0
    0.1565    8.3708   -2.8227 H   0  0  0  0  0  0  0  0  0  0  0  0
    0.7807   10.7031   -3.8631 H   0  0  0  0  0  0  0  0  0  0  0  0
    2.8764    9.7428   -1.9214 H   0  0  0  0  0  0  0  0  0  0  0  0
    2.2489    8.6382   -3.2362 H   0  0  0  0  0  0  0  0  0  0  0  0
    3.4557    9.6466   -4.8007 H   0  0  0  0  0  0  0  0  0  0  0  0
    2.9331   11.2877   -4.2349 H   0  0  0  0  0  0  0  0  0  0  0  0
    4.4808    9.9348   -2.4795 H   0  0  0  0  0  0  0  0  0  0  0  0
    5.4881    9.6511   -5.9782 H   0  0  0  0  0  0  0  0  0  0  0  0
    5.3169   11.4360   -6.0856 H   0  0  0  0  0  0  0  0  0  0  0  0
    6.9504   10.6888   -6.0856 H   0  0  0  0  0  0  0  0  0  0  0  0
    7.1825   10.4780   -2.4503 H   0  0  0  0  0  0  0  0  0  0  0  0
    7.6746    9.4698   -3.8531 H   0  0  0  0  0  0  0  0  0  0  0  0
    8.0113   11.2343   -3.8531 H   0  0  0  0  0  0  0  0  0  0  0  0
    0.0248   11.5174   -1.5326 H   0  0  0  0  0  0  0  0  0  0  0  0
    1.6864   10.9441    0.1251 H   0  0  0  0  0  0  0  0  0  0  0  0
    2.9394   10.6857   -1.1077 H   0  0  0  0  0  0  0  0  0  0  0  0
    2.7292   12.9722    0.5942 H   0  0  0  0  0  0  0  0  0  0  0  0
    3.7316   12.9070   -0.8530 H   0  0  0  0  0  0  0  0  0  0  0  0
    0.8886   13.8385    0.8398 H   0  0  0  0  0  0  0  0  0  0  0  0
    0.0052   14.8403   -0.3614 H   0  0  0  0  0  0  0  0  0  0  0  0
   -0.1930   13.0549   -0.3614 H   0  0  0  0  0  0  0  0  0  0  0  0
    3.1885   14.8759   -2.1549 H   0  0  0  0  0  0  0  0  0  0  0  0
    3.1206   15.3547    0.3760 H   0  0  0  0  0  0  0  0  0  0  0  0
    3.5419   16.6778   -0.8330 H   0  0  0  0  0  0  0  0  0  0  0  0
    1.9451   17.3704    1.1448 H   0  0  0  0  0  0  0  0  0  0  0  0
   -0.5691   15.9735   -1.6878 H   0  0  0  0  0  0  0  0  0  0  0  0
    0.4270   18.6648   -2.8107 H   0  0  0  0  0  0  0  0  0  0  0  0
   -0.7321   17.5109   -3.6074 H   0  0  0  0  0  0  0  0  0  0  0  0
   -1.8888   19.4478   -2.5914 H   0  0  0  0  0  0  0  0  0  0  0  0
   -2.3553   17.8720   -1.8390 H   0  0  0  0  0  0  0  0  0  0  0  0
   -2.0606   19.4992   -0.0989 H   0  0  0  0  0  0  0  0  0  0  0  0
    0.3420   20.2400    0.0420 H   0  0  0  0  0  0  0  0  0  0  0  0
   -1.7086   17.0149    1.8622 H   0  0  0  0  0  0  0  0  0  0  0  0
   -2.6280   17.4005    0.3680 H   0  0  0  0  0  0  0  0  0  0  0  0
   -1.4375   16.0554    0.3680 H   0  0  0  0  0  0  0  0  0  0  0  0
   -0.4413   18.1913    2.5073 H   0  0  0  0  0  0  0  0  0  0  0  0
    1.0457   18.7308    1.6562 H   0  0  0  0  0  0  0  0  0  0  0  0
   -0.4172   19.7730    1.6562 H   0  0  0  0  0  0  0  0  0  0  0  0
    2.8332   17.5714   -2.6005 H   0  0  0  0  0  0  0  0  0  0  0  0
    2.9880   16.4123   -3.9640 H   0  0  0  0  0  0  0  0  0  0  0  0
    1.6651   17.6274   -3.9640 H   0  0  0  0  0  0  0  0  0  0  0  0
   -0.1870   15.5626   -4.0672 H   0  0  0  0  0  0  0  0  0  0  0  0
    1.4990   14.8848   -4.4304 H   0  0  0  0  0  0  0  0  0  0  0  0
   -0.6102   13.7101   -2.5977 H   0  0  0  0  0  0  0  0  0  0  0  0
    0.0342   13.0437   -4.1492 H   0  0  0  0  0  0  0  0  0  0  0  0
    3.5340   12.6293   -2.8882 H   0  0  0  0  0  0  0  0  0  0  0  0
    2.4474   11.8725   -4.1019 H   0  0  0  0  0  0  0  0  0  0  0  0
    2.6928   13.6520   -4.1019 H   0  0  0  0  0  0  0  0  0  0  0  0
  1  2  1  0
  2  3  1  0
  3  4  1  0
  4  5  1  0
  5  6  1  0
  6  7  1  0
  7  8  1  0
  7  9  1  0
  2 10  1  0
 10 11  1  0
 11 12  1  0
 12 13  1  0
 13 14  1  1
 13 15  1  0
 15 16  1  0
 16 17  1  0
 17 18  2  0
 18 19  1  0
 19 20  1  0
 20 21  1  0
 21 22  1  0
 22 23  1  0
 22 24  1  0
 24 25  1  0
 24 26  1  0
 19 27  1  0
 27 28  1  6
 27 29  1  0
 29 30  1  0
 30 31  1  0
 31 32  1  6
  7  5  1  0
 31 10  1  0
 31 13  1  0
 27 15  1  0
 24 18  1  0
  1 33  1  0
  1 34  1  0
  1 35  1  0
  2 36  1  6
  3 37  1  0
  3 38  1  0
  4 39  1  0
  4 40  1  0
  5 41  1  1
  8 42  1  0
  8 43  1  0
  8 44  1  0
  9 45  1  0
  9 46  1  0
  9 47  1  0
 10 48  1  1
 11 49  1  0
 11 50  1  0
 12 51  1  0
 12 52  1  0
 14 53  1  0
 14 54  1  0
 14 55  1  0
 15 56  1  6
 16 57  1  0
 16 58  1  0
 17 59  1  0
 19 60  1  1
 20 61  1  0
 20 62  1  0
 21 63  1  0
 21 64  1  0
 22 65  1  1
 23 66  1  0
 25 67  1  0
 25 68  1  0
 25 69  1  0
 26 70  1  0
 26 71  1  0
 26 72  1  0
 28 73  1  0
 28 74  1  0
 28 75  1  0
 29 76  1  0
 29 77  1  0
 30 78  1  0
 30 79  1  0
 32 80  1  0
 32 81  1  0
 32 82  1  0
M  END
>  <meeko>  (11) 
{"is_sidechain": [false], "intermolecular_energy": 2.731, "internal_energy": -0.839}

$$$$
EPH_relaxed_0001_pdb2pqr_Repair_122_r2_0001_out
     RDKit          3D

 82 86  0  0  0  0  0  0  0  0999 V2000
   -0.3460   15.3060   -7.3640 C   0  0  0  0  0  0  0  0  0  0  0  0
    1.0720   15.1730   -6.7990 C   0  0  2  0  0  0  0  0  0  0  0  0
    2.1460   15.2470   -7.9030 C   0  0  0  0  0  0  0  0  0  0  0  0
    1.8950   16.3500   -8.9340 C   0  0  0  0  0  0  0  0  0  0  0  0
    1.2600   15.8100  -10.1800 C   0  0  2  0  0  0  0  0  0  0  0  0
    1.0620   14.3900  -10.1840 O   0  0  0  0  0  0  0  0  0  0  0  0
    1.9800   14.9060  -11.1620 C   0  0  0  0  0  0  0  0  0  0  0  0
    3.4010   14.4900  -10.9420 C   0  0  0  0  0  0  0  0  0  0  0  0
    1.4720   14.8260  -12.5670 C   0  0  0  0  0  0  0  0  0  0  0  0
    1.2040   13.8640   -6.0300 C   0  0  1  0  0  0  0  0  0  0  0  0
    2.6170   13.2370   -6.1570 C   0  0  0  0  0  0  0  0  0  0  0  0
    2.9280   12.5550   -4.8000 C   0  0  0  0  0  0  0  0  0  0  0  0
    1.5710   12.5230   -4.0590 C   0  0  1  0  0  0  0  0  0  0  0  0
    0.8200   11.2890   -4.6510 C   0  0  0  0  0  0  0  0  0  0  0  0
    1.6360   12.4660   -2.4980 C   0  0  2  0  0  0  0  0  0  0  0  0
    2.3100   11.2090   -1.9190 C   0  0  0  0  0  0  0  0  0  0  0  0
    1.3920   10.0640   -1.6430 C   0  0  0  0  0  0  0  0  0  0  0  0
    0.0500   10.1350   -1.5810 C   0  0  0  0  0  0  0  0  0  0  0  0
   -0.6750   11.4820   -1.7030 C   0  0  1  0  0  0  0  0  0  0  0  0
   -1.7510   11.5930   -0.5910 C   0  0  0  0  0  0  0  0  0  0  0  0
   -2.7150   10.4110   -0.5890 C   0  0  0  0  0  0  0  0  0  0  0  0
   -1.9630    9.0950   -0.4080 C   0  0  2  0  0  0  0  0  0  0  0  0
   -1.3950    9.0660    0.9050 O   0  0  0  0  0  0  0  0  0  0  0  0
   -0.8460    8.8760   -1.4660 C   0  0  0  0  0  0  0  0  0  0  0  0
   -1.4850    8.6070   -2.8500 C   0  0  0  0  0  0  0  0  0  0  0  0
   -0.0740    7.5840   -1.0850 C   0  0  0  0  0  0  0  0  0  0  0  0
    0.2590   12.7660   -1.7800 C   0  0  1  0  0  0  0  0  0  0  0  0
    0.6040   13.2600   -0.3420 C   0  0  0  0  0  0  0  0  0  0  0  0
   -0.5340   13.9370   -2.4730 C   0  0  0  0  0  0  0  0  0  0  0  0
   -0.4630   14.0100   -4.0100 C   0  0  0  0  0  0  0  0  0  0  0  0
    0.9870   13.9160   -4.4960 C   0  0  2  0  0  0  0  0  0  0  0  0
    1.7610   15.1570   -3.9360 C   0  0  0  0  0  0  0  0  0  0  0  0
   -1.0661   15.3735   -6.5352 H   0  0  0  0  0  0  0  0  0  0  0  0
   -0.4111   16.2142   -7.9812 H   0  0  0  0  0  0  0  0  0  0  0  0
   -0.5788   14.4258   -7.9812 H   0  0  0  0  0  0  0  0  0  0  0  0
    1.2388   16.0216   -6.1193 H   0  0  0  0  0  0  0  0  0  0  0  0
    3.1205   15.4317   -7.4274 H   0  0  0  0  0  0  0  0  0  0  0  0
    2.1170   14.2895   -8.4437 H   0  0  0  0  0  0  0  0  0  0  0  0
    1.2283   17.1055   -8.4927 H   0  0  0  0  0  0  0  0  0  0  0  0
    2.8648   16.7915   -9.2069 H   0  0  0  0  0  0  0  0  0  0  0  0
    0.6849   16.7377  -10.3168 H   0  0  0  0  0  0  0  0  0  0  0  0
    3.6028   14.4309   -9.8623 H   0  0  0  0  0  0  0  0  0  0  0  0
    3.5699   13.5047  -11.4010 H   0  0  0  0  0  0  0  0  0  0  0  0
    4.0746   15.2287  -11.4010 H   0  0  0  0  0  0  0  0  0  0  0  0
    0.3855   14.6549  -12.5549 H   0  0  0  0  0  0  0  0  0  0  0  0
    1.6888   15.7694  -13.0896 H   0  0  0  0  0  0  0  0  0  0  0  0
    1.9682   13.9949  -13.0896 H   0  0  0  0  0  0  0  0  0  0  0  0
    0.3966   13.2879   -6.5056 H   0  0  0  0  0  0  0  0  0  0  0  0
    2.6296   12.4925   -6.9667 H   0  0  0  0  0  0  0  0  0  0  0  0
    3.3691   14.0037   -6.3950 H   0  0  0  0  0  0  0  0  0  0  0  0
    3.3091   11.5351   -4.9564 H   0  0  0  0  0  0  0  0  0  0  0  0
    3.7013   13.0919   -4.2310 H   0  0  0  0  0  0  0  0  0  0  0  0
    0.4392   10.6632   -3.8304 H   0  0  0  0  0  0  0  0  0  0  0  0
   -0.0214   11.6341   -5.2699 H   0  0  0  0  0  0  0  0  0  0  0  0
    1.5131   10.7002   -5.2699 H   0  0  0  0  0  0  0  0  0  0  0  0
    2.3085   13.3031   -2.2593 H   0  0  0  0  0  0  0  0  0  0  0  0
    3.0707   10.8695   -2.6374 H   0  0  0  0  0  0  0  0  0  0  0  0
    2.7263   11.5074   -0.9455 H   0  0  0  0  0  0  0  0  0  0  0  0
    1.8521    9.0789   -1.4762 H   0  0  0  0  0  0  0  0  0  0  0  0
   -1.1590   11.4800   -2.6908 H   0  0  0  0  0  0  0  0  0  0  0  0
   -1.2458   11.6375    0.3851 H   0  0  0  0  0  0  0  0  0  0  0  0
   -2.3386   12.5024   -0.7850 H   0  0  0  0  0  0  0  0  0  0  0  0
   -3.4321   10.5325    0.2363 H   0  0  0  0  0  0  0  0  0  0  0  0
   -3.2413   10.3851   -1.5546 H   0  0  0  0  0  0  0  0  0  0  0  0
   -2.6881    8.2793   -0.5456 H   0  0  0  0  0  0  0  0  0  0  0  0
   -1.3310    8.1350    1.1780 H   0  0  0  0  0  0  0  0  0  0  0  0
   -2.4910    8.1835   -2.7133 H   0  0  0  0  0  0  0  0  0  0  0  0
   -1.5575    9.5510   -3.4101 H   0  0  0  0  0  0  0  0  0  0  0  0
   -0.8606    7.8954   -3.4101 H   0  0  0  0  0  0  0  0  0  0  0  0
   -0.0222    7.4973    0.0104 H   0  0  0  0  0  0  0  0  0  0  0  0
   -0.5974    6.7089   -1.4977 H   0  0  0  0  0  0  0  0  0  0  0  0
    0.9446    7.6303   -1.4977 H   0  0  0  0  0  0  0  0  0  0  0  0
    0.1375   12.5920    0.3970 H   0  0  0  0  0  0  0  0  0  0  0  0
    1.6953   13.2540   -0.2042 H   0  0  0  0  0  0  0  0  0  0  0  0
    0.2226   14.2825   -0.2042 H   0  0  0  0  0  0  0  0  0  0  0  0
   -1.5928   13.8329   -2.1934 H   0  0  0  0  0  0  0  0  0  0  0  0
   -0.0520   14.8601   -2.1186 H   0  0  0  0  0  0  0  0  0  0  0  0
   -1.0406   13.1769   -4.4371 H   0  0  0  0  0  0  0  0  0  0  0  0
   -0.8807   14.9742   -4.3355 H   0  0  0  0  0  0  0  0  0  0  0  0
    1.7460   15.1329   -2.8364 H   0  0  0  0  0  0  0  0  0  0  0  0
    2.8024   15.1296   -4.2892 H   0  0  0  0  0  0  0  0  0  0  0  0
    1.2783   16.0802   -4.2892 H   0  0  0  0  0  0  0  0  0  0  0  0
  1  2  1  0
  2  3  1  0
  3  4  1  0
  4  5  1  0
  5  6  1  0
  6  7  1  0
  7  8  1  0
  7  9  1  0
  2 10  1  0
 10 11  1  0
 11 12  1  0
 12 13  1  0
 13 14  1  6
 13 15  1  0
 15 16  1  0
 16 17  1  0
 17 18  2  0
 18 19  1  0
 19 20  1  0
 20 21  1  0
 21 22  1  0
 22 23  1  0
 22 24  1  0
 24 25  1  0
 24 26  1  0
 19 27  1  0
 27 28  1  1
 27 29  1  0
 29 30  1  0
 30 31  1  0
 31 32  1  1
  7  5  1  0
 31 10  1  0
 31 13  1  0
 27 15  1  0
 24 18  1  0
  1 33  1  0
  1 34  1  0
  1 35  1  0
  2 36  1  1
  3 37  1  0
  3 38  1  0
  4 39  1  0
  4 40  1  0
  5 41  1  6
  8 42  1  0
  8 43  1  0
  8 44  1  0
  9 45  1  0
  9 46  1  0
  9 47  1  0
 10 48  1  6
 11 49  1  0
 11 50  1  0
 12 51  1  0
 12 52  1  0
 14 53  1  0
 14 54  1  0
 14 55  1  0
 15 56  1  1
 16 57  1  0
 16 58  1  0
 17 59  1  0
 19 60  1  6
 20 61  1  0
 20 62  1  0
 21 63  1  0
 21 64  1  0
 22 65  1  1
 23 66  1  0
 25 67  1  0
 25 68  1  0
 25 69  1  0
 26 70  1  0
 26 71  1  0
 26 72  1  0
 28 73  1  0
 28 74  1  0
 28 75  1  0
 29 76  1  0
 29 77  1  0
 30 78  1  0
 30 79  1  0
 32 80  1  0
 32 81  1  0
 32 82  1  0
M  END
>  <meeko>  (12) 
{"is_sidechain": [false], "intermolecular_energy": 2.731, "internal_energy": -0.839}

$$$$
EPH_relaxed_0001_pdb2pqr_Repair_122_r2_0001_out
     RDKit          3D

 82 86  0  0  0  0  0  0  0  0999 V2000
    0.0120   10.5040   -3.7990 C   0  0  0  0  0  0  0  0  0  0  0  0
    0.8750   10.1990   -2.5720 C   0  0  2  0  0  0  0  0  0  0  0  0
    0.3320    9.0040   -1.7620 C   0  0  0  0  0  0  0  0  0  0  0  0
   -0.8840    9.3490   -0.8970 C   0  0  0  0  0  0  0  0  0  0  0  0
   -2.0320    8.4230   -1.1630 C   0  0  2  0  0  0  0  0  0  0  0  0
   -3.1020    9.0000   -1.9230 O   0  0  0  0  0  0  0  0  0  0  0  0
   -3.4170    8.6190   -0.5740 C   0  0  0  0  0  0  0  0  0  0  0  0
   -3.7260    9.7720    0.3280 C   0  0  0  0  0  0  0  0  0  0  0  0
   -4.3280    7.4350   -0.4790 C   0  0  0  0  0  0  0  0  0  0  0  0
    0.9680   11.4330   -1.6810 C   0  0  1  0  0  0  0  0  0  0  0  0
    2.0300   11.2820   -0.5600 C   0  0  0  0  0  0  0  0  0  0  0  0
    2.6560   12.6840   -0.3460 C   0  0  0  0  0  0  0  0  0  0  0  0
    1.7160   13.6510   -1.1030 C   0  0  1  0  0  0  0  0  0  0  0  0
    0.5230   13.8960   -0.1270 C   0  0  0  0  0  0  0  0  0  0  0  0
    2.3520   14.9950   -1.5870 C   0  0  2  0  0  0  0  0  0  0  0  0
    2.8680   15.9140   -0.4660 C   0  0  0  0  0  0  0  0  0  0  0  0
    1.8760   16.8970    0.0600 C   0  0  0  0  0  0  0  0  0  0  0  0
    0.7170   17.2340   -0.5370 C   0  0  0  0  0  0  0  0  0  0  0  0
    0.3510   16.6760   -1.9180 C   0  0  1  0  0  0  0  0  0  0  0  0
   -0.1630   17.8260   -2.8220 C   0  0  0  0  0  0  0  0  0  0  0  0
   -1.3100   18.6050   -2.1840 C   0  0  0  0  0  0  0  0  0  0  0  0
   -0.8880   19.1930   -0.8410 C   0  0  2  0  0  0  0  0  0  0  0  0
    0.1090   20.1930   -1.0680 O   0  0  0  0  0  0  0  0  0  0  0  0
   -0.3440   18.1280    0.1510 C   0  0  0  0  0  0  0  0  0  0  0  0
   -1.5050   17.2220    0.6310 C   0  0  0  0  0  0  0  0  0  0  0  0
    0.1770   18.8710    1.4120 C   0  0  0  0  0  0  0  0  0  0  0  0
    1.4660   15.7930   -2.6270 C   0  0  1  0  0  0  0  0  0  0  0  0
    2.4390   16.7100   -3.4300 C   0  0  0  0  0  0  0  0  0  0  0  0
    0.7790   14.8450   -3.6800 C   0  0  0  0  0  0  0  0  0  0  0  0
    0.2790   13.4820   -3.1650 C   0  0  0  0  0  0  0  0  0  0  0  0
    1.3670   12.7690   -2.3560 C   0  0  2  0  0  0  0  0  0  0  0  0
    2.5720   12.4890   -3.3180 C   0  0  0  0  0  0  0  0  0  0  0  0
   -0.9785   10.8541   -3.4728 H   0  0  0  0  0  0  0  0  0  0  0  0
    0.4965   11.2854   -4.4030 H   0  0  0  0  0  0  0  0  0  0  0  0
   -0.1021    9.5917   -4.4030 H   0  0  0  0  0  0  0  0  0  0  0  0
    1.8773    9.9250   -2.9330 H   0  0  0  0  0  0  0  0  0  0  0  0
    0.0434    8.2096   -2.4660 H   0  0  0  0  0  0  0  0  0  0  0  0
    1.1337    8.6877   -1.0785 H   0  0  0  0  0  0  0  0  0  0  0  0
   -0.6013    9.2714    0.1632 H   0  0  0  0  0  0  0  0  0  0  0  0
   -1.2031   10.3720   -1.1451 H   0  0  0  0  0  0  0  0  0  0  0  0
   -1.3574    7.5545   -1.1898 H   0  0  0  0  0  0  0  0  0  0  0  0
   -3.6399    9.4506    1.3765 H   0  0  0  0  0  0  0  0  0  0  0  0
   -3.0151   10.5890    0.1353 H   0  0  0  0  0  0  0  0  0  0  0  0
   -4.7502   10.1240    0.1353 H   0  0  0  0  0  0  0  0  0  0  0  0
   -4.5110    7.1972    0.5793 H   0  0  0  0  0  0  0  0  0  0  0  0
   -5.2830    7.6666   -0.9732 H   0  0  0  0  0  0  0  0  0  0  0  0
   -3.8594    6.5712   -0.9732 H   0  0  0  0  0  0  0  0  0  0  0  0
   -0.0730   11.4851   -1.3295 H   0  0  0  0  0  0  0  0  0  0  0  0
    1.5539   10.9339    0.3685 H   0  0  0  0  0  0  0  0  0  0  0  0
    2.7974   10.5450   -0.8393 H   0  0  0  0  0  0  0  0  0  0  0  0
    2.6904   12.9346    0.7245 H   0  0  0  0  0  0  0  0  0  0  0  0
    3.6921   12.7382   -0.7114 H   0  0  0  0  0  0  0  0  0  0  0  0
    0.8780   13.8231    0.9116 H   0  0  0  0  0  0  0  0  0  0  0  0
    0.1058   14.8986   -0.3023 H   0  0  0  0  0  0  0  0  0  0  0  0
   -0.2556   13.1390   -0.3023 H   0  0  0  0  0  0  0  0  0  0  0  0
    3.2469   14.6518   -2.1267 H   0  0  0  0  0  0  0  0  0  0  0  0
    3.1939   15.2790    0.3710 H   0  0  0  0  0  0  0  0  0  0  0  0
    3.6798   16.5089   -0.9099 H   0  0  0  0  0  0  0  0  0  0  0  0
    2.1114   17.3876    1.0160 H   0  0  0  0  0  0  0  0  0  0  0  0
   -0.4554   15.9475   -1.7474 H   0  0  0  0  0  0  0  0  0  0  0  0
    0.6684   18.5194   -3.0172 H   0  0  0  0  0  0  0  0  0  0  0  0
   -0.5419   17.3758   -3.7514 H   0  0  0  0  0  0  0  0  0  0  0  0
   -1.6086   19.4222   -2.8571 H   0  0  0  0  0  0  0  0  0  0  0  0
   -2.1522   17.9172   -2.0175 H   0  0  0  0  0  0  0  0  0  0  0  0
   -1.7853   19.6258   -0.3746 H   0  0  0  0  0  0  0  0  0  0  0  0
   -0.3460   21.0470   -1.1640 H   0  0  0  0  0  0  0  0  0  0  0  0
   -1.5265   17.2053    1.7307 H   0  0  0  0  0  0  0  0  0  0  0  0
   -2.4591   17.6167    0.2516 H   0  0  0  0  0  0  0  0  0  0  0  0
   -1.3540   16.2006    0.2516 H   0  0  0  0  0  0  0  0  0  0  0  0
   -0.1833   18.3571    2.3154 H   0  0  0  0  0  0  0  0  0  0  0  0
    1.2770   18.8753    1.4067 H   0  0  0  0  0  0  0  0  0  0  0  0
   -0.1938   19.9066    1.4067 H   0  0  0  0  0  0  0  0  0  0  0  0
    3.0563   17.2918   -2.7297 H   0  0  0  0  0  0  0  0  0  0  0  0
    3.0895   16.0889   -4.0633 H   0  0  0  0  0  0  0  0  0  0  0  0
    1.8575   17.3961   -4.0633 H   0  0  0  0  0  0  0  0  0  0  0  0
   -0.0865   15.3815   -4.0960 H   0  0  0  0  0  0  0  0  0  0  0  0
    1.5670   14.6058   -4.4093 H   0  0  0  0  0  0  0  0  0  0  0  0
   -0.6007   13.6403   -2.5238 H   0  0  0  0  0  0  0  0  0  0  0  0
    0.0172   12.8548   -4.0299 H   0  0  0  0  0  0  0  0  0  0  0  0
    3.4740   12.2794   -2.7244 H   0  0  0  0  0  0  0  0  0  0  0  0
    2.3406   11.6207   -3.9524 H   0  0  0  0  0  0  0  0  0  0  0  0
    2.7472   13.3704   -3.9524 H   0  0  0  0  0  0  0  0  0  0  0  0
  1  2  1  0
  2  3  1  0
  3  4  1  0
  4  5  1  0
  5  6  1  0
  6  7  1  0
  7  8  1  0
  7  9  1  0
  2 10  1  0
 10 11  1  0
 11 12  1  0
 12 13  1  0
 13 14  1  1
 13 15  1  0
 15 16  1  0
 16 17  1  0
 17 18  2  0
 18 19  1  0
 19 20  1  0
 20 21  1  0
 21 22  1  0
 22 23  1  0
 22 24  1  0
 24 25  1  0
 24 26  1  0
 19 27  1  0
 27 28  1  6
 27 29  1  0
 29 30  1  0
 30 31  1  0
 31 32  1  6
  7  5  1  0
 31 10  1  0
 31 13  1  0
 27 15  1  0
 24 18  1  0
  1 33  1  0
  1 34  1  0
  1 35  1  0
  2 36  1  6
  3 37  1  0
  3 38  1  0
  4 39  1  0
  4 40  1  0
  5 41  1  6
  8 42  1  0
  8 43  1  0
  8 44  1  0
  9 45  1  0
  9 46  1  0
  9 47  1  0
 10 48  1  1
 11 49  1  0
 11 50  1  0
 12 51  1  0
 12 52  1  0
 14 53  1  0
 14 54  1  0
 14 55  1  0
 15 56  1  6
 16 57  1  0
 16 58  1  0
 17 59  1  0
 19 60  1  1
 20 61  1  0
 20 62  1  0
 21 63  1  0
 21 64  1  0
 22 65  1  1
 23 66  1  0
 25 67  1  0
 25 68  1  0
 25 69  1  0
 26 70  1  0
 26 71  1  0
 26 72  1  0
 28 73  1  0
 28 74  1  0
 28 75  1  0
 29 76  1  0
 29 77  1  0
 30 78  1  0
 30 79  1  0
 32 80  1  0
 32 81  1  0
 32 82  1  0
M  END
>  <meeko>  (13) 
{"is_sidechain": [false], "intermolecular_energy": 2.731, "internal_energy": -0.839}

$$$$
EPH_relaxed_0001_pdb2pqr_Repair_122_r2_0001_out
     RDKit          3D

 82 86  0  0  0  0  0  0  0  0999 V2000
    3.5650   10.9730   -3.9950 C   0  0  0  0  0  0  0  0  0  0  0  0
    2.3900   11.3730   -4.8920 C   0  0  2  0  0  0  0  0  0  0  0  0
    2.8600   11.9550   -6.2400 C   0  0  0  0  0  0  0  0  0  0  0  0
    2.2930   13.3450   -6.5410 C   0  0  0  0  0  0  0  0  0  0  0  0
    2.3480   13.6620   -8.0050 C   0  0  2  0  0  0  0  0  0  0  0  0
    2.7990   14.9870   -8.3140 O   0  0  0  0  0  0  0  0  0  0  0  0
    1.4430   14.6780   -8.6760 C   0  0  0  0  0  0  0  0  0  0  0  0
    0.4170   15.4410   -7.9000 C   0  0  0  0  0  0  0  0  0  0  0  0
    1.2220   14.5730  -10.1530 C   0  0  0  0  0  0  0  0  0  0  0  0
    1.5040   12.3810   -4.1690 C   0  0  1  0  0  0  0  0  0  0  0  0
    0.0840   11.8270   -3.8770 C   0  0  0  0  0  0  0  0  0  0  0  0
   -0.3580   12.4260   -2.5170 C   0  0  0  0  0  0  0  0  0  0  0  0
    0.6650   13.5500   -2.2340 C   0  0  1  0  0  0  0  0  0  0  0  0
    0.1660   14.7670   -3.0740 C   0  0  0  0  0  0  0  0  0  0  0  0
    0.8750   13.9330   -0.7330 C   0  0  2  0  0  0  0  0  0  0  0  0
   -0.3700   14.4910   -0.0220 C   0  0  0  0  0  0  0  0  0  0  0  0
   -0.5300   15.9740   -0.0860 C   0  0  0  0  0  0  0  0  0  0  0  0
    0.4300   16.8500   -0.4400 C   0  0  0  0  0  0  0  0  0  0  0  0
    1.8600   16.3760   -0.7280 C   0  0  1  0  0  0  0  0  0  0  0  0
    2.8690   17.3030   -0.0010 C   0  0  0  0  0  0  0  0  0  0  0  0
    2.6620   18.7760   -0.3420 C   0  0  0  0  0  0  0  0  0  0  0  0
    1.2460   19.2240    0.0140 C   0  0  2  0  0  0  0  0  0  0  0  0
    1.0940   19.1840    1.4360 O   0  0  0  0  0  0  0  0  0  0  0  0
    0.1430   18.3560   -0.6550 C   0  0  0  0  0  0  0  0  0  0  0  0
    0.1150   18.6330   -2.1780 C   0  0  0  0  0  0  0  0  0  0  0  0
   -1.2310   18.8230   -0.1030 C   0  0  0  0  0  0  0  0  0  0  0  0
    2.1470   14.8350   -0.4650 C   0  0  1  0  0  0  0  0  0  0  0  0
    2.5430   14.6160    1.0270 C   0  0  0  0  0  0  0  0  0  0  0  0
    3.3880   14.3890   -1.3240 C   0  0  0  0  0  0  0  0  0  0  0  0
    3.1030   13.9090   -2.7600 C   0  0  0  0  0  0  0  0  0  0  0  0
    1.9760   12.8720   -2.7770 C   0  0  2  0  0  0  0  0  0  0  0  0
    2.4580   11.6270   -1.9580 C   0  0  0  0  0  0  0  0  0  0  0  0
    3.2713   11.0730   -2.9397 H   0  0  0  0  0  0  0  0  0  0  0  0
    3.8444    9.9291   -4.2005 H   0  0  0  0  0  0  0  0  0  0  0  0
    4.4233   11.6296   -4.2005 H   0  0  0  0  0  0  0  0  0  0  0  0
    1.8144   10.4613   -5.1097 H   0  0  0  0  0  0  0  0  0  0  0  0
    3.9578   12.0234   -6.2249 H   0  0  0  0  0  0  0  0  0  0  0  0
    2.4925   11.2803   -7.0273 H   0  0  0  0  0  0  0  0  0  0  0  0
    1.2455   13.3824   -6.2074 H   0  0  0  0  0  0  0  0  0  0  0  0
    2.9041   14.0873   -6.0066 H   0  0  0  0  0  0  0  0  0  0  0  0
    2.5890   12.6162   -8.2462 H   0  0  0  0  0  0  0  0  0  0  0  0
    0.5972   15.3070   -6.8232 H   0  0  0  0  0  0  0  0  0  0  0  0
    0.4855   16.5093   -8.1531 H   0  0  0  0  0  0  0  0  0  0  0  0
   -0.5864   15.0679   -8.1531 H   0  0  0  0  0  0  0  0  0  0  0  0
    0.2437   14.1082  -10.3452 H   0  0  0  0  0  0  0  0  0  0  0  0
    1.2445   15.5781  -10.5995 H   0  0  0  0  0  0  0  0  0  0  0  0
    2.0154   13.9556  -10.5995 H   0  0  0  0  0  0  0  0  0  0  0  0
    1.5385   13.2094   -4.8919 H   0  0  0  0  0  0  0  0  0  0  0  0
   -0.6131   12.1338   -4.6707 H   0  0  0  0  0  0  0  0  0  0  0  0
    0.0881   10.7276   -3.8421 H   0  0  0  0  0  0  0  0  0  0  0  0
   -1.3763   12.8363   -2.5861 H   0  0  0  0  0  0  0  0  0  0  0  0
   -0.3803   11.6716   -1.7168 H   0  0  0  0  0  0  0  0  0  0  0  0
   -0.1630   15.5694   -2.3973 H   0  0  0  0  0  0  0  0  0  0  0  0
    0.9856   15.1354   -3.7084 H   0  0  0  0  0  0  0  0  0  0  0  0
   -0.6764   14.4540   -3.7084 H   0  0  0  0  0  0  0  0  0  0  0  0
    1.0732   12.9567   -0.2665 H   0  0  0  0  0  0  0  0  0  0  0  0
   -1.2580   14.0332   -0.4822 H   0  0  0  0  0  0  0  0  0  0  0  0
   -0.2487   14.2437    1.0430 H   0  0  0  0  0  0  0  0  0  0  0  0
   -1.5151   16.3861    0.1783 H   0  0  0  0  0  0  0  0  0  0  0  0
    1.9941   16.4593   -1.8166 H   0  0  0  0  0  0  0  0  0  0  0  0
    2.7488   17.1722    1.0846 H   0  0  0  0  0  0  0  0  0  0  0  0
    3.8793   17.0224   -0.3336 H   0  0  0  0  0  0  0  0  0  0  0  0
    3.3845   19.3818    0.2245 H   0  0  0  0  0  0  0  0  0  0  0  0
    2.8119   18.9108   -1.4234 H   0  0  0  0  0  0  0  0  0  0  0  0
    1.1164   20.2465   -0.3703 H   0  0  0  0  0  0  0  0  0  0  0  0
    0.1450   19.2620    1.6320 H   0  0  0  0  0  0  0  0  0  0  0  0
    0.0058   19.7136   -2.3522 H   0  0  0  0  0  0  0  0  0  0  0  0
    1.0533   18.2814   -2.6319 H   0  0  0  0  0  0  0  0  0  0  0  0
   -0.7339   18.1008   -2.6319 H   0  0  0  0  0  0  0  0  0  0  0  0
   -1.2064   18.8146    0.9967 H   0  0  0  0  0  0  0  0  0  0  0  0
   -1.4410   19.8430   -0.4573 H   0  0  0  0  0  0  0  0  0  0  0  0
   -2.0191   18.1422   -0.4573 H   0  0  0  0  0  0  0  0  0  0  0  0
    1.7676   15.0448    1.6789 H   0  0  0  0  0  0  0  0  0  0  0  0
    2.6357   13.5384    1.2274 H   0  0  0  0  0  0  0  0  0  0  0  0
    3.5050   15.1103    1.2274 H   0  0  0  0  0  0  0  0  0  0  0  0
    4.0728   15.2473   -1.3899 H   0  0  0  0  0  0  0  0  0  0  0  0
    3.7977   13.5110   -0.8032 H   0  0  0  0  0  0  0  0  0  0  0  0
    2.8080   14.7713   -3.3759 H   0  0  0  0  0  0  0  0  0  0  0  0
    4.0148   13.4432   -3.1619 H   0  0  0  0  0  0  0  0  0  0  0  0
    2.3750   11.8413   -0.8823 H   0  0  0  0  0  0  0  0  0  0  0  0
    1.8312   10.7584   -2.2083 H   0  0  0  0  0  0  0  0  0  0  0  0
    3.5063   11.4069   -2.2083 H   0  0  0  0  0  0  0  0  0  0  0  0
  1  2  1  0
  2  3  1  0
  3  4  1  0
  4  5  1  0
  5  6  1  0
  6  7  1  0
  7  8  1  0
  7  9  1  0
  2 10  1  0
 10 11  1  0
 11 12  1  0
 12 13  1  0
 13 14  1  6
 13 15  1  0
 15 16  1  0
 16 17  1  0
 17 18  2  0
 18 19  1  0
 19 20  1  0
 20 21  1  0
 21 22  1  0
 22 23  1  0
 22 24  1  0
 24 25  1  0
 24 26  1  0
 19 27  1  0
 27 28  1  1
 27 29  1  0
 29 30  1  0
 30 31  1  0
 31 32  1  1
  7  5  1  0
 31 10  1  0
 31 13  1  0
 27 15  1  0
 24 18  1  0
  1 33  1  0
  1 34  1  0
  1 35  1  0
  2 36  1  6
  3 37  1  0
  3 38  1  0
  4 39  1  0
  4 40  1  0
  5 41  1  6
  8 42  1  0
  8 43  1  0
  8 44  1  0
  9 45  1  0
  9 46  1  0
  9 47  1  0
 10 48  1  6
 11 49  1  0
 11 50  1  0
 12 51  1  0
 12 52  1  0
 14 53  1  0
 14 54  1  0
 14 55  1  0
 15 56  1  1
 16 57  1  0
 16 58  1  0
 17 59  1  0
 19 60  1  6
 20 61  1  0
 20 62  1  0
 21 63  1  0
 21 64  1  0
 22 65  1  6
 23 66  1  0
 25 67  1  0
 25 68  1  0
 25 69  1  0
 26 70  1  0
 26 71  1  0
 26 72  1  0
 28 73  1  0
 28 74  1  0
 28 75  1  0
 29 76  1  0
 29 77  1  0
 30 78  1  0
 30 79  1  0
 32 80  1  0
 32 81  1  0
 32 82  1  0
M  END
>  <meeko>  (14) 
{"is_sidechain": [false], "intermolecular_energy": 2.731, "internal_energy": -0.839}

$$$$
EPH_relaxed_0001_pdb2pqr_Repair_122_r2_0001_out
     RDKit          3D

 82 86  0  0  0  0  0  0  0  0999 V2000
    0.2920    9.2420   -0.2390 C   0  0  0  0  0  0  0  0  0  0  0  0
   -0.7440   10.3210   -0.5630 C   0  0  2  0  0  0  0  0  0  0  0  0
   -1.0340   10.4130   -2.0750 C   0  0  0  0  0  0  0  0  0  0  0  0
    0.1560   10.0200   -2.9540 C   0  0  0  0  0  0  0  0  0  0  0  0
    0.3300   10.9640   -4.1060 C   0  0  2  0  0  0  0  0  0  0  0  0
    0.9110   10.3780   -5.2780 O   0  0  0  0  0  0  0  0  0  0  0  0
    1.6840   11.4020   -4.6310 C   0  0  0  0  0  0  0  0  0  0  0  0
    2.9560   10.9090   -4.0170 C   0  0  0  0  0  0  0  0  0  0  0  0
    1.7700   12.6760   -5.4120 C   0  0  0  0  0  0  0  0  0  0  0  0
   -0.2690   11.6720   -0.0410 C   0  0  1  0  0  0  0  0  0  0  0  0
    0.8100   11.5380    1.0670 C   0  0  0  0  0  0  0  0  0  0  0  0
    1.7870   12.7280    0.8870 C   0  0  0  0  0  0  0  0  0  0  0  0
    1.0640   13.6810   -0.0930 C   0  0  1  0  0  0  0  0  0  0  0  0
    0.0560   14.4790    0.7930 C   0  0  0  0  0  0  0  0  0  0  0  0
    1.9770   14.6350   -0.9300 C   0  0  2  0  0  0  0  0  0  0  0  0
    2.8000   15.6400   -0.1050 C   0  0  0  0  0  0  0  0  0  0  0  0
    2.1370   16.9540    0.1450 C   0  0  0  0  0  0  0  0  0  0  0  0
    1.0570   17.4210   -0.5070 C   0  0  0  0  0  0  0  0  0  0  0  0
    0.4470   16.6440   -1.6810 C   0  0  1  0  0  0  0  0  0  0  0  0
    0.1700   17.6160   -2.8570 C   0  0  0  0  0  0  0  0  0  0  0  0
   -0.6850   18.8090   -2.4410 C   0  0  0  0  0  0  0  0  0  0  0  0
   -0.0190   19.5900   -1.3110 C   0  0  2  0  0  0  0  0  0  0  0  0
    1.1780   20.1940   -1.8120 O   0  0  0  0  0  0  0  0  0  0  0  0
    0.3180   18.7120   -0.0740 C   0  0  0  0  0  0  0  0  0  0  0  0
   -0.9910   18.3040    0.6460 C   0  0  0  0  0  0  0  0  0  0  0  0
    1.1120   19.5880    0.9320 C   0  0  0  0  0  0  0  0  0  0  0  0
    1.2400   15.3440   -2.1370 C   0  0  1  0  0  0  0  0  0  0  0  0
    2.3440   15.7290   -3.1690 C   0  0  0  0  0  0  0  0  0  0  0  0
    0.2500   14.3760   -2.8870 C   0  0  0  0  0  0  0  0  0  0  0  0
   -0.5350   13.3760   -2.0170 C   0  0  0  0  0  0  0  0  0  0  0  0
    0.3990   12.6320   -1.0570 C   0  0  2  0  0  0  0  0  0  0  0  0
    1.4100   11.8030   -1.9200 C   0  0  0  0  0  0  0  0  0  0  0  0
    0.3881    9.1419    0.8522 H   0  0  0  0  0  0  0  0  0  0  0  0
   -0.0316    8.2823   -0.6682 H   0  0  0  0  0  0  0  0  0  0  0  0
    1.2641    9.5264   -0.6682 H   0  0  0  0  0  0  0  0  0  0  0  0
   -1.6824   10.0385   -0.0634 H   0  0  0  0  0  0  0  0  0  0  0  0
   -1.8748    9.7434   -2.3089 H   0  0  0  0  0  0  0  0  0  0  0  0
   -1.2629   11.4661   -2.2953 H   0  0  0  0  0  0  0  0  0  0  0  0
    1.0702   10.0316   -2.3424 H   0  0  0  0  0  0  0  0  0  0  0  0
   -0.0342    9.0153   -3.3595 H   0  0  0  0  0  0  0  0  0  0  0  0
   -0.5639   11.5309   -3.8069 H   0  0  0  0  0  0  0  0  0  0  0  0
    2.8709   10.9420   -2.9208 H   0  0  0  0  0  0  0  0  0  0  0  0
    3.1416    9.8738   -4.3394 H   0  0  0  0  0  0  0  0  0  0  0  0
    3.7908   11.5487   -4.3394 H   0  0  0  0  0  0  0  0  0  0  0  0
    1.8275   13.5280   -4.7186 H   0  0  0  0  0  0  0  0  0  0  0  0
    2.6690   12.6576   -6.0457 H   0  0  0  0  0  0  0  0  0  0  0  0
    0.8767   12.7786   -6.0457 H   0  0  0  0  0  0  0  0  0  0  0  0
   -1.2302   12.0885    0.2947 H   0  0  0  0  0  0  0  0  0  0  0  0
    0.3399   11.5810    2.0606 H   0  0  0  0  0  0  0  0  0  0  0  0
    1.3396   10.5771    0.9881 H   0  0  0  0  0  0  0  0  0  0  0  0
    1.9719   13.2277    1.8494 H   0  0  0  0  0  0  0  0  0  0  0  0
    2.7694   12.4080    0.5095 H   0  0  0  0  0  0  0  0  0  0  0  0
    0.2807   14.3011    1.8550 H   0  0  0  0  0  0  0  0  0  0  0  0
    0.1461   15.5532    0.5741 H   0  0  0  0  0  0  0  0  0  0  0  0
   -0.9689   14.1449    0.5741 H   0  0  0  0  0  0  0  0  0  0  0  0
    2.7074   13.9386   -1.3676 H   0  0  0  0  0  0  0  0  0  0  0  0
    3.0207   15.1798    0.8694 H   0  0  0  0  0  0  0  0  0  0  0  0
    3.6976   15.8606   -0.7014 H   0  0  0  0  0  0  0  0  0  0  0  0
    2.5680   17.5945    0.9286 H   0  0  0  0  0  0  0  0  0  0  0  0
   -0.5014   16.2273   -1.3109 H   0  0  0  0  0  0  0  0  0  0  0  0
    1.1314   17.9880   -3.2409 H   0  0  0  0  0  0  0  0  0  0  0  0
   -0.3852   17.0595   -3.6264 H   0  0  0  0  0  0  0  0  0  0  0  0
   -0.8209   19.4738   -3.3067 H   0  0  0  0  0  0  0  0  0  0  0  0
   -1.6572   18.4371   -2.0853 H   0  0  0  0  0  0  0  0  0  0  0  0
   -0.7360   20.3509   -0.9691 H   0  0  0  0  0  0  0  0  0  0  0  0
    0.9940   20.5080   -2.7140 H   0  0  0  0  0  0  0  0  0  0  0  0
   -0.8406   18.3509    1.7347 H   0  0  0  0  0  0  0  0  0  0  0  0
   -1.7983   18.9931    0.3574 H   0  0  0  0  0  0  0  0  0  0  0  0
   -1.2638   17.2782    0.3574 H   0  0  0  0  0  0  0  0  0  0  0  0
    0.8482   19.2969    1.9595 H   0  0  0  0  0  0  0  0  0  0  0  0
    2.1907   19.4407    0.7747 H   0  0  0  0  0  0  0  0  0  0  0  0
    0.8598   20.6471    0.7747 H   0  0  0  0  0  0  0  0  0  0  0  0
    3.2516   16.0455   -2.6341 H   0  0  0  0  0  0  0  0  0  0  0  0
    2.5753   14.8585   -3.8004 H   0  0  0  0  0  0  0  0  0  0  0  0
    1.9838   16.5546   -3.8004 H   0  0  0  0  0  0  0  0  0  0  0  0
   -0.4824   14.9982   -3.4222 H   0  0  0  0  0  0  0  0  0  0  0  0
    0.8880   13.7561   -3.5341 H   0  0  0  0  0  0  0  0  0  0  0  0
   -1.2899   13.9227   -1.4329 H   0  0  0  0  0  0  0  0  0  0  0  0
   -1.0172   12.6402   -2.6774 H   0  0  0  0  0  0  0  0  0  0  0  0
    2.0884   11.2467   -1.2565 H   0  0  0  0  0  0  0  0  0  0  0  0
    0.8563   11.0956   -2.5548 H   0  0  0  0  0  0  0  0  0  0  0  0
    1.9952   12.4846   -2.5548 H   0  0  0  0  0  0  0  0  0  0  0  0
  1  2  1  0
  2  3  1  0
  3  4  1  0
  4  5  1  0
  5  6  1  0
  6  7  1  0
  7  8  1  0
  7  9  1  0
  2 10  1  0
 10 11  1  0
 11 12  1  0
 12 13  1  0
 13 14  1  1
 13 15  1  0
 15 16  1  0
 16 17  1  0
 17 18  2  0
 18 19  1  0
 19 20  1  0
 20 21  1  0
 21 22  1  0
 22 23  1  0
 22 24  1  0
 24 25  1  0
 24 26  1  0
 19 27  1  0
 27 28  1  6
 27 29  1  0
 29 30  1  0
 30 31  1  0
 31 32  1  6
  7  5  1  0
 31 10  1  0
 31 13  1  0
 27 15  1  0
 24 18  1  0
  1 33  1  0
  1 34  1  0
  1 35  1  0
  2 36  1  1
  3 37  1  0
  3 38  1  0
  4 39  1  0
  4 40  1  0
  5 41  1  6
  8 42  1  0
  8 43  1  0
  8 44  1  0
  9 45  1  0
  9 46  1  0
  9 47  1  0
 10 48  1  1
 11 49  1  0
 11 50  1  0
 12 51  1  0
 12 52  1  0
 14 53  1  0
 14 54  1  0
 14 55  1  0
 15 56  1  6
 16 57  1  0
 16 58  1  0
 17 59  1  0
 19 60  1  1
 20 61  1  0
 20 62  1  0
 21 63  1  0
 21 64  1  0
 22 65  1  1
 23 66  1  0
 25 67  1  0
 25 68  1  0
 25 69  1  0
 26 70  1  0
 26 71  1  0
 26 72  1  0
 28 73  1  0
 28 74  1  0
 28 75  1  0
 29 76  1  0
 29 77  1  0
 30 78  1  0
 30 79  1  0
 32 80  1  0
 32 81  1  0
 32 82  1  0
M  END
>  <meeko>  (15) 
{"is_sidechain": [false], "intermolecular_energy": 2.731, "internal_energy": -0.839}

$$$$
EPH_relaxed_0001_pdb2pqr_Repair_122_r2_0001_out
     RDKit          3D

 82 86  0  0  0  0  0  0  0  0999 V2000
    0.9540   14.8890   -2.6400 C   0  0  0  0  0  0  0  0  0  0  0  0
    1.2020   14.2110   -3.9900 C   0  0  2  0  0  0  0  0  0  0  0  0
    0.4870   14.9380   -5.1470 C   0  0  0  0  0  0  0  0  0  0  0  0
    0.9830   14.5230   -6.5350 C   0  0  0  0  0  0  0  0  0  0  0  0
    0.7620   15.6050   -7.5480 C   0  0  2  0  0  0  0  0  0  0  0  0
    0.3360   15.1410   -8.8360 O   0  0  0  0  0  0  0  0  0  0  0  0
    1.6220   15.7790   -8.7860 C   0  0  0  0  0  0  0  0  0  0  0  0
    2.7690   14.8620   -9.0750 C   0  0  0  0  0  0  0  0  0  0  0  0
    1.6560   17.1200   -9.4510 C   0  0  0  0  0  0  0  0  0  0  0  0
    0.7510   12.7560   -3.9310 C   0  0  1  0  0  0  0  0  0  0  0  0
    1.8860   11.7630   -4.2980 C   0  0  0  0  0  0  0  0  0  0  0  0
    1.6790   10.5030   -3.4190 C   0  0  0  0  0  0  0  0  0  0  0  0
    0.2610   10.6700   -2.8250 C   0  0  1  0  0  0  0  0  0  0  0  0
   -0.7060   10.1950   -3.9550 C   0  0  0  0  0  0  0  0  0  0  0  0
   -0.0160    9.9260   -1.4780 C   0  0  2  0  0  0  0  0  0  0  0  0
    0.0890    8.3930   -1.5450 C   0  0  0  0  0  0  0  0  0  0  0  0
   -1.1810    7.6810   -1.8750 C   0  0  0  0  0  0  0  0  0  0  0  0
   -2.4140    8.2180   -1.8280 C   0  0  0  0  0  0  0  0  0  0  0  0
   -2.6310    9.6490   -1.3170 C   0  0  1  0  0  0  0  0  0  0  0  0
   -3.8180    9.6680   -0.3190 C   0  0  0  0  0  0  0  0  0  0  0  0
   -5.0880    9.0600   -0.9090 C   0  0  0  0  0  0  0  0  0  0  0  0
   -4.8480    7.6190   -1.3520 C   0  0  2  0  0  0  0  0  0  0  0  0
   -4.5990    6.8170   -0.1940 O   0  0  0  0  0  0  0  0  0  0  0  0
   -3.6670    7.4740   -2.3520 C   0  0  0  0  0  0  0  0  0  0  0  0
   -4.0620    8.0900   -3.7170 C   0  0  0  0  0  0  0  0  0  0  0  0
   -3.4410    5.9590   -2.6080 C   0  0  0  0  0  0  0  0  0  0  0  0
   -1.3420   10.3830   -0.7460 C   0  0  1  0  0  0  0  0  0  0  0  0
   -1.1590   10.0400    0.7640 C   0  0  0  0  0  0  0  0  0  0  0  0
   -1.5620   11.9410   -0.8230 C   0  0  0  0  0  0  0  0  0  0  0  0
   -1.1580   12.6350   -2.1380 C   0  0  0  0  0  0  0  0  0  0  0  0
    0.2530   12.2200   -2.5660 C   0  0  2  0  0  0  0  0  0  0  0  0
    1.2500   12.7050   -1.4590 C   0  0  0  0  0  0  0  0  0  0  0  0
    1.2088   14.1925   -1.8276 H   0  0  0  0  0  0  0  0  0  0  0  0
    1.5810   15.7894   -2.5612 H   0  0  0  0  0  0  0  0  0  0  0  0
   -0.1060   15.1723   -2.5612 H   0  0  0  0  0  0  0  0  0  0  0  0
    2.2827   14.2581   -4.1897 H   0  0  0  0  0  0  0  0  0  0  0  0
   -0.5890   14.7186   -5.0828 H   0  0  0  0  0  0  0  0  0  0  0  0
    0.7041   16.0106   -5.0356 H   0  0  0  0  0  0  0  0  0  0  0  0
    2.0591   14.3023   -6.4779 H   0  0  0  0  0  0  0  0  0  0  0  0
    0.4153   13.6355   -6.8512 H   0  0  0  0  0  0  0  0  0  0  0  0
    0.4468   16.3086   -6.7634 H   0  0  0  0  0  0  0  0  0  0  0  0
    3.2064   14.5123   -8.1282 H   0  0  0  0  0  0  0  0  0  0  0  0
    2.4110   13.9984   -9.6546 H   0  0  0  0  0  0  0  0  0  0  0  0
    3.5326   15.4014   -9.6546 H   0  0  0  0  0  0  0  0  0  0  0  0
    1.6760   17.9089   -8.6847 H   0  0  0  0  0  0  0  0  0  0  0  0
    2.5563   17.1954  -10.0784 H   0  0  0  0  0  0  0  0  0  0  0  0
    0.7606   17.2409  -10.0784 H   0  0  0  0  0  0  0  0  0  0  0  0
   -0.0829   12.7931   -4.6474 H   0  0  0  0  0  0  0  0  0  0  0  0
    1.8258   11.4958   -5.3634 H   0  0  0  0  0  0  0  0  0  0  0  0
    2.8751   12.2104   -4.1205 H   0  0  0  0  0  0  0  0  0  0  0  0
    1.7393    9.5897   -4.0292 H   0  0  0  0  0  0  0  0  0  0  0  0
    2.4491   10.4073   -2.6394 H   0  0  0  0  0  0  0  0  0  0  0  0
   -1.6068    9.7525   -3.5047 H   0  0  0  0  0  0  0  0  0  0  0  0
   -0.9922   11.0551   -4.5782 H   0  0  0  0  0  0  0  0  0  0  0  0
   -0.2003    9.4428   -4.5782 H   0  0  0  0  0  0  0  0  0  0  0  0
    0.8251   10.2552   -0.8502 H   0  0  0  0  0  0  0  0  0  0  0  0
    0.8323    8.1364   -2.3142 H   0  0  0  0  0  0  0  0  0  0  0  0
    0.3695    8.0626   -0.5340 H   0  0  0  0  0  0  0  0  0  0  0  0
   -1.1022    6.6279   -2.1827 H   0  0  0  0  0  0  0  0  0  0  0  0
   -2.8780   10.2542   -2.2017 H   0  0  0  0  0  0  0  0  0  0  0  0
   -3.5354    9.0946    0.5762 H   0  0  0  0  0  0  0  0  0  0  0  0
   -4.0327   10.7189   -0.0752 H   0  0  0  0  0  0  0  0  0  0  0  0
   -5.8817    9.0751   -0.1476 H   0  0  0  0  0  0  0  0  0  0  0  0
   -5.3858    9.6522   -1.7868 H   0  0  0  0  0  0  0  0  0  0  0  0
   -5.7508    7.2819   -1.8824 H   0  0  0  0  0  0  0  0  0  0  0  0
   -4.9410    5.9250   -0.3750 H   0  0  0  0  0  0  0  0  0  0  0  0
   -4.6489    9.0053   -3.5501 H   0  0  0  0  0  0  0  0  0  0  0  0
   -3.1528    8.3359   -4.2852 H   0  0  0  0  0  0  0  0  0  0  0  0
   -4.6649    7.3663   -4.2852 H   0  0  0  0  0  0  0  0  0  0  0  0
   -3.3624    5.4322   -1.6455 H   0  0  0  0  0  0  0  0  0  0  0  0
   -4.2886    5.5533   -3.1799 H   0  0  0  0  0  0  0  0  0  0  0  0
   -2.5119    5.8184   -3.1799 H   0  0  0  0  0  0  0  0  0  0  0  0
   -1.5887   10.8455    1.3777 H   0  0  0  0  0  0  0  0  0  0  0  0
   -1.6720    9.0935    0.9898 H   0  0  0  0  0  0  0  0  0  0  0  0
   -0.0872    9.9391    0.9898 H   0  0  0  0  0  0  0  0  0  0  0  0
   -2.6325   12.1345   -0.6597 H   0  0  0  0  0  0  0  0  0  0  0  0
   -0.8953   12.3643   -0.0573 H   0  0  0  0  0  0  0  0  0  0  0  0
   -1.8708   12.3536   -2.9271 H   0  0  0  0  0  0  0  0  0  0  0  0
   -1.1702   13.7233   -1.9783 H   0  0  0  0  0  0  0  0  0  0  0  0
    0.8244   12.4980   -0.4660 H   0  0  0  0  0  0  0  0  0  0  0  0
    2.2057   12.1711   -1.5669 H   0  0  0  0  0  0  0  0  0  0  0  0
    1.4199   13.7864   -1.5669 H   0  0  0  0  0  0  0  0  0  0  0  0
  1  2  1  0
  2  3  1  0
  3  4  1  0
  4  5  1  0
  5  6  1  0
  6  7  1  0
  7  8  1  0
  7  9  1  0
  2 10  1  0
 10 11  1  0
 11 12  1  0
 12 13  1  0
 13 14  1  6
 13 15  1  0
 15 16  1  0
 16 17  1  0
 17 18  2  0
 18 19  1  0
 19 20  1  0
 20 21  1  0
 21 22  1  0
 22 23  1  0
 22 24  1  0
 24 25  1  0
 24 26  1  0
 19 27  1  0
 27 28  1  1
 27 29  1  0
 29 30  1  0
 30 31  1  0
 31 32  1  1
  7  5  1  0
 31 10  1  0
 31 13  1  0
 27 15  1  0
 24 18  1  0
  1 33  1  0
  1 34  1  0
  1 35  1  0
  2 36  1  6
  3 37  1  0
  3 38  1  0
  4 39  1  0
  4 40  1  0
  5 41  1  1
  8 42  1  0
  8 43  1  0
  8 44  1  0
  9 45  1  0
  9 46  1  0
  9 47  1  0
 10 48  1  6
 11 49  1  0
 11 50  1  0
 12 51  1  0
 12 52  1  0
 14 53  1  0
 14 54  1  0
 14 55  1  0
 15 56  1  1
 16 57  1  0
 16 58  1  0
 17 59  1  0
 19 60  1  6
 20 61  1  0
 20 62  1  0
 21 63  1  0
 21 64  1  0
 22 65  1  6
 23 66  1  0
 25 67  1  0
 25 68  1  0
 25 69  1  0
 26 70  1  0
 26 71  1  0
 26 72  1  0
 28 73  1  0
 28 74  1  0
 28 75  1  0
 29 76  1  0
 29 77  1  0
 30 78  1  0
 30 79  1  0
 32 80  1  0
 32 81  1  0
 32 82  1  0
M  END
>  <meeko>  (16) 
{"is_sidechain": [false], "intermolecular_energy": 2.731, "internal_energy": -0.839}

$$$$
EPH_relaxed_0001_pdb2pqr_Repair_122_r2_0001_out
     RDKit          3D

 82 86  0  0  0  0  0  0  0  0999 V2000
   -3.2050    7.3890   -2.6650 C   0  0  0  0  0  0  0  0  0  0  0  0
   -3.1180    7.8020   -1.1930 C   0  0  2  0  0  0  0  0  0  0  0  0
   -4.4780    7.6850   -0.4760 C   0  0  0  0  0  0  0  0  0  0  0  0
   -5.6630    7.5030   -1.4290 C   0  0  0  0  0  0  0  0  0  0  0  0
   -6.8560    6.9300   -0.7260 C   0  0  2  0  0  0  0  0  0  0  0  0
   -7.4650    5.8170   -1.3930 O   0  0  0  0  0  0  0  0  0  0  0  0
   -8.2670    7.0030   -1.2800 C   0  0  0  0  0  0  0  0  0  0  0  0
   -8.5590    7.6680   -2.5880 C   0  0  0  0  0  0  0  0  0  0  0  0
   -9.4160    6.8660   -0.3300 C   0  0  0  0  0  0  0  0  0  0  0  0
   -2.5920    9.2280   -1.0840 C   0  0  1  0  0  0  0  0  0  0  0  0
   -2.4820    9.7130    0.3870 C   0  0  0  0  0  0  0  0  0  0  0  0
   -1.2390   10.6360    0.4610 C   0  0  0  0  0  0  0  0  0  0  0  0
   -0.8720   10.9170   -1.0150 C   0  0  1  0  0  0  0  0  0  0  0  0
   -1.8450   12.0540   -1.4600 C   0  0  0  0  0  0  0  0  0  0  0  0
    0.6190   11.2910   -1.2970 C   0  0  2  0  0  0  0  0  0  0  0  0
    1.1050   12.5880   -0.6280 C   0  0  0  0  0  0  0  0  0  0  0  0
    0.9340   13.8280   -1.4410 C   0  0  0  0  0  0  0  0  0  0  0  0
    0.6770   13.8680   -2.7620 C   0  0  0  0  0  0  0  0  0  0  0  0
    0.6300   12.5800   -3.5940 C   0  0  1  0  0  0  0  0  0  0  0  0
    1.4450   12.7780   -4.9000 C   0  0  0  0  0  0  0  0  0  0  0  0
    0.9940   14.0010   -5.6910 C   0  0  0  0  0  0  0  0  0  0  0  0
    1.1100   15.2690   -4.8490 C   0  0  2  0  0  0  0  0  0  0  0  0
    2.4940   15.5270   -4.5930 O   0  0  0  0  0  0  0  0  0  0  0  0
    0.3370   15.1840   -3.5040 C   0  0  0  0  0  0  0  0  0  0  0  0
   -1.1870   15.2080   -3.7770 C   0  0  0  0  0  0  0  0  0  0  0  0
    0.6520   16.4680   -2.6900 C   0  0  0  0  0  0  0  0  0  0  0  0
    1.0200   11.2440   -2.8270 C   0  0  1  0  0  0  0  0  0  0  0  0
    2.5650   11.0340   -2.8770 C   0  0  0  0  0  0  0  0  0  0  0  0
    0.3810   10.0160   -3.5770 C   0  0  0  0  0  0  0  0  0  0  0  0
   -1.0520    9.6220   -3.1690 C   0  0  0  0  0  0  0  0  0  0  0  0
   -1.1770    9.5100   -1.6460 C   0  0  2  0  0  0  0  0  0  0  0  0
   -0.2260    8.3590   -1.1710 C   0  0  0  0  0  0  0  0  0  0  0  0
   -3.4313    6.3146   -2.7316 H   0  0  0  0  0  0  0  0  0  0  0  0
   -4.0019    7.9630   -3.1604 H   0  0  0  0  0  0  0  0  0  0  0  0
   -2.2442    7.5927   -3.1604 H   0  0  0  0  0  0  0  0  0  0  0  0
   -2.4223    7.1104   -0.6953 H   0  0  0  0  0  0  0  0  0  0  0  0
   -4.4404    6.8186    0.2007 H   0  0  0  0  0  0  0  0  0  0  0  0
   -4.6403    8.6309    0.0616 H   0  0  0  0  0  0  0  0  0  0  0  0
   -5.9342    8.4817   -1.8517 H   0  0  0  0  0  0  0  0  0  0  0  0
   -5.3618    6.8016   -2.2210 H   0  0  0  0  0  0  0  0  0  0  0  0
   -6.4341    7.1914    0.2557 H   0  0  0  0  0  0  0  0  0  0  0  0
   -8.9951    8.6612   -2.4051 H   0  0  0  0  0  0  0  0  0  0  0  0
   -7.6259    7.7770   -3.1603 H   0  0  0  0  0  0  0  0  0  0  0  0
   -9.2707    7.0548   -3.1603 H   0  0  0  0  0  0  0  0  0  0  0  0
   -9.0440    6.9104    0.7042 H   0  0  0  0  0  0  0  0  0  0  0  0
  -10.1305    7.6853   -0.4981 H   0  0  0  0  0  0  0  0  0  0  0  0
   -9.9178    5.9017   -0.4981 H   0  0  0  0  0  0  0  0  0  0  0  0
   -3.3476    9.7495   -1.6899 H   0  0  0  0  0  0  0  0  0  0  0  0
   -3.3862   10.2716    0.6704 H   0  0  0  0  0  0  0  0  0  0  0  0
   -2.3842    8.8623    1.0774 H   0  0  0  0  0  0  0  0  0  0  0  0
   -1.4812   11.5720    0.9857 H   0  0  0  0  0  0  0  0  0  0  0  0
   -0.4093   10.1740    1.0161 H   0  0  0  0  0  0  0  0  0  0  0  0
   -2.2657   12.5456   -0.5704 H   0  0  0  0  0  0  0  0  0  0  0  0
   -1.2950   12.7927   -2.0615 H   0  0  0  0  0  0  0  0  0  0  0  0
   -2.6598   11.6248   -2.0615 H   0  0  0  0  0  0  0  0  0  0  0  0
    1.1647   10.4764   -0.7983 H   0  0  0  0  0  0  0  0  0  0  0  0
    0.5452   12.7169    0.3101 H   0  0  0  0  0  0  0  0  0  0  0  0
    2.1885   12.4672   -0.4818 H   0  0  0  0  0  0  0  0  0  0  0  0
    1.0257   14.7906   -0.9165 H   0  0  0  0  0  0  0  0  0  0  0  0
   -0.4297   12.4127   -3.8368 H   0  0  0  0  0  0  0  0  0  0  0  0
    2.5065   12.8992   -4.6382 H   0  0  0  0  0  0  0  0  0  0  0  0
    1.2824   11.8928   -5.5324 H   0  0  0  0  0  0  0  0  0  0  0  0
    1.6256   14.1040   -6.5857 H   0  0  0  0  0  0  0  0  0  0  0  0
   -0.0594   13.8649   -5.9772 H   0  0  0  0  0  0  0  0  0  0  0  0
    0.6523   16.0887   -5.4222 H   0  0  0  0  0  0  0  0  0  0  0  0
    2.5600   15.9330   -3.7120 H   0  0  0  0  0  0  0  0  0  0  0  0
   -1.7307   15.2166   -2.8208 H   0  0  0  0  0  0  0  0  0  0  0  0
   -1.4423   16.1103   -4.3521 H   0  0  0  0  0  0  0  0  0  0  0  0
   -1.4706   14.3142   -4.3521 H   0  0  0  0  0  0  0  0  0  0  0  0
    0.5968   16.2432   -1.6146 H   0  0  0  0  0  0  0  0  0  0  0  0
    1.6634   16.8213   -2.9393 H   0  0  0  0  0  0  0  0  0  0  0  0
   -0.0811   17.2493   -2.9393 H   0  0  0  0  0  0  0  0  0  0  0  0
    2.9611   10.9802   -1.8522 H   0  0  0  0  0  0  0  0  0  0  0  0
    2.7907   10.0969   -3.4070 H   0  0  0  0  0  0  0  0  0  0  0  0
    3.0326   11.8768   -3.4070 H   0  0  0  0  0  0  0  0  0  0  0  0
    0.3682   10.2521   -4.6513 H   0  0  0  0  0  0  0  0  0  0  0  0
    1.0061    9.1536   -3.3021 H   0  0  0  0  0  0  0  0  0  0  0  0
   -1.7531   10.3878   -3.5323 H   0  0  0  0  0  0  0  0  0  0  0  0
   -1.2868    8.6435   -3.6133 H   0  0  0  0  0  0  0  0  0  0  0  0
   -0.2037    8.3320   -0.0716 H   0  0  0  0  0  0  0  0  0  0  0  0
   -0.5957    7.3964   -1.5540 H   0  0  0  0  0  0  0  0  0  0  0  0
    0.7891    8.5405   -1.5540 H   0  0  0  0  0  0  0  0  0  0  0  0
  1  2  1  0
  2  3  1  0
  3  4  1  0
  4  5  1  0
  5  6  1  0
  6  7  1  0
  7  8  1  0
  7  9  1  0
  2 10  1  0
 10 11  1  0
 11 12  1  0
 12 13  1  0
 13 14  1  6
 13 15  1  0
 15 16  1  0
 16 17  1  0
 17 18  2  0
 18 19  1  0
 19 20  1  0
 20 21  1  0
 21 22  1  0
 22 23  1  0
 22 24  1  0
 24 25  1  0
 24 26  1  0
 19 27  1  0
 27 28  1  1
 27 29  1  0
 29 30  1  0
 30 31  1  0
 31 32  1  1
  7  5  1  0
 31 10  1  0
 31 13  1  0
 27 15  1  0
 24 18  1  0
  1 33  1  0
  1 34  1  0
  1 35  1  0
  2 36  1  1
  3 37  1  0
  3 38  1  0
  4 39  1  0
  4 40  1  0
  5 41  1  1
  8 42  1  0
  8 43  1  0
  8 44  1  0
  9 45  1  0
  9 46  1  0
  9 47  1  0
 10 48  1  6
 11 49  1  0
 11 50  1  0
 12 51  1  0
 12 52  1  0
 14 53  1  0
 14 54  1  0
 14 55  1  0
 15 56  1  1
 16 57  1  0
 16 58  1  0
 17 59  1  0
 19 60  1  6
 20 61  1  0
 20 62  1  0
 21 63  1  0
 21 64  1  0
 22 65  1  6
 23 66  1  0
 25 67  1  0
 25 68  1  0
 25 69  1  0
 26 70  1  0
 26 71  1  0
 26 72  1  0
 28 73  1  0
 28 74  1  0
 28 75  1  0
 29 76  1  0
 29 77  1  0
 30 78  1  0
 30 79  1  0
 32 80  1  0
 32 81  1  0
 32 82  1  0
M  END
>  <meeko>  (17) 
{"is_sidechain": [false], "intermolecular_energy": 2.731, "internal_energy": -0.839}

$$$$
EPH_relaxed_0001_pdb2pqr_Repair_122_r2_0001_out
     RDKit          3D

 82 86  0  0  0  0  0  0  0  0999 V2000
    2.5640   16.5210   -7.7460 C   0  0  0  0  0  0  0  0  0  0  0  0
    1.5900   15.3530   -7.5710 C   0  0  2  0  0  0  0  0  0  0  0  0
    0.3240   15.5170   -8.4350 C   0  0  0  0  0  0  0  0  0  0  0  0
    0.1830   14.4550   -9.5290 C   0  0  0  0  0  0  0  0  0  0  0  0
    0.6990   14.9460  -10.8480 C   0  0  2  0  0  0  0  0  0  0  0  0
    1.1430   13.9140  -11.7380 O   0  0  0  0  0  0  0  0  0  0  0  0
    2.1500   14.8290  -11.2750 C   0  0  0  0  0  0  0  0  0  0  0  0
    3.1770   14.2020  -10.3850 C   0  0  0  0  0  0  0  0  0  0  0  0
    2.6600   15.7520  -12.3370 C   0  0  0  0  0  0  0  0  0  0  0  0
    1.2040   15.2130   -6.1030 C   0  0  1  0  0  0  0  0  0  0  0  0
   -0.1130   15.9590   -5.7580 C   0  0  0  0  0  0  0  0  0  0  0  0
   -0.8390   15.1110   -4.6820 C   0  0  0  0  0  0  0  0  0  0  0  0
    0.2250   14.0940   -4.2040 C   0  0  1  0  0  0  0  0  0  0  0  0
    1.0980   14.8800   -3.1770 C   0  0  0  0  0  0  0  0  0  0  0  0
   -0.3190   12.7600   -3.5980 C   0  0  2  0  0  0  0  0  0  0  0  0
   -1.1600   12.9190   -2.3190 C   0  0  0  0  0  0  0  0  0  0  0  0
   -0.3930   12.8600   -1.0400 C   0  0  0  0  0  0  0  0  0  0  0  0
    0.8670   12.4050   -0.9030 C   0  0  0  0  0  0  0  0  0  0  0  0
    1.6170   11.7950   -2.0940 C   0  0  1  0  0  0  0  0  0  0  0  0
    2.3020   10.4740   -1.6530 C   0  0  0  0  0  0  0  0  0  0  0  0
    3.1970   10.6590   -0.4310 C   0  0  0  0  0  0  0  0  0  0  0  0
    2.4020   11.2120    0.7480 C   0  0  2  0  0  0  0  0  0  0  0  0
    1.4570   10.2250    1.1720 O   0  0  0  0  0  0  0  0  0  0  0  0
    1.6610   12.5380    0.4200 C   0  0  0  0  0  0  0  0  0  0  0  0
    2.6900   13.6830    0.2560 C   0  0  0  0  0  0  0  0  0  0  0  0
    0.7860   12.9130    1.6470 C   0  0  0  0  0  0  0  0  0  0  0  0
    0.7770   11.6290   -3.4320 C   0  0  1  0  0  0  0  0  0  0  0  0
    0.0140   10.2690   -3.4170 C   0  0  0  0  0  0  0  0  0  0  0  0
    1.7650   11.5700   -4.6570 C   0  0  0  0  0  0  0  0  0  0  0  0
    2.1710   12.9160   -5.2870 C   0  0  0  0  0  0  0  0  0  0  0  0
    0.9400   13.7830   -5.5690 C   0  0  2  0  0  0  0  0  0  0  0  0
    0.0530   13.0280   -6.6170 C   0  0  0  0  0  0  0  0  0  0  0  0
    2.8732   16.8918   -6.7576 H   0  0  0  0  0  0  0  0  0  0  0  0
    3.4491   16.1800   -8.3031 H   0  0  0  0  0  0  0  0  0  0  0  0
    2.0695   17.3304   -8.3031 H   0  0  0  0  0  0  0  0  0  0  0  0
    2.1040   14.4411   -7.9090 H   0  0  0  0  0  0  0  0  0  0  0  0
   -0.5555   15.4566   -7.7771 H   0  0  0  0  0  0  0  0  0  0  0  0
    0.4041   16.4905   -8.9408 H   0  0  0  0  0  0  0  0  0  0  0  0
    0.7523   13.5613   -9.2338 H   0  0  0  0  0  0  0  0  0  0  0  0
   -0.8857   14.2212   -9.6443 H   0  0  0  0  0  0  0  0  0  0  0  0
    0.0017   15.7966  -10.8310 H   0  0  0  0  0  0  0  0  0  0  0  0
    2.9022   14.3698   -9.3332 H   0  0  0  0  0  0  0  0  0  0  0  0
    3.2238   13.1211  -10.5839 H   0  0  0  0  0  0  0  0  0  0  0  0
    4.1598   14.6543  -10.5839 H   0  0  0  0  0  0  0  0  0  0  0  0
    3.1409   16.6223  -11.8664 H   0  0  0  0  0  0  0  0  0  0  0  0
    3.3931   15.2217  -12.9626 H   0  0  0  0  0  0  0  0  0  0  0  0
    1.8209   16.0904  -12.9626 H   0  0  0  0  0  0  0  0  0  0  0  0
    2.1089   15.6276   -5.6348 H   0  0  0  0  0  0  0  0  0  0  0  0
    0.1115   16.9607   -5.3629 H   0  0  0  0  0  0  0  0  0  0  0  0
   -0.7415   16.0847   -6.6520 H   0  0  0  0  0  0  0  0  0  0  0  0
   -1.1726   15.7453   -3.8475 H   0  0  0  0  0  0  0  0  0  0  0  0
   -1.7398   14.6182   -5.0767 H   0  0  0  0  0  0  0  0  0  0  0  0
    0.7959   14.6080   -2.1549 H   0  0  0  0  0  0  0  0  0  0  0  0
    2.1577   14.6256   -3.3260 H   0  0  0  0  0  0  0  0  0  0  0  0
    0.9558   15.9605   -3.3260 H   0  0  0  0  0  0  0  0  0  0  0  0
   -1.0183   12.4163   -4.3745 H   0  0  0  0  0  0  0  0  0  0  0  0
   -1.6686   13.8932   -2.3656 H   0  0  0  0  0  0  0  0  0  0  0  0
   -1.8497   12.0623   -2.2999 H   0  0  0  0  0  0  0  0  0  0  0  0
   -0.9000   13.2187   -0.1321 H   0  0  0  0  0  0  0  0  0  0  0  0
    2.3796   12.5333   -2.3828 H   0  0  0  0  0  0  0  0  0  0  0  0
    1.5227    9.7363   -1.4110 H   0  0  0  0  0  0  0  0  0  0  0  0
    2.9374   10.1336   -2.4839 H   0  0  0  0  0  0  0  0  0  0  0  0
    3.6283    9.6869   -0.1501 H   0  0  0  0  0  0  0  0  0  0  0  0
    3.9935   11.3743   -0.6840 H   0  0  0  0  0  0  0  0  0  0  0  0
    3.1198   11.4438    1.5487 H   0  0  0  0  0  0  0  0  0  0  0  0
    0.5960   10.6650    1.2730 H   0  0  0  0  0  0  0  0  0  0  0  0
    3.0071   14.0359    1.2484 H   0  0  0  0  0  0  0  0  0  0  0  0
    3.5650   13.3130   -0.2985 H   0  0  0  0  0  0  0  0  0  0  0  0
    2.2290   14.5137   -0.2985 H   0  0  0  0  0  0  0  0  0  0  0  0
    1.3326   12.6788    2.5724 H   0  0  0  0  0  0  0  0  0  0  0  0
    0.5566   13.9885    1.6188 H   0  0  0  0  0  0  0  0  0  0  0  0
   -0.1510   12.3374    1.6188 H   0  0  0  0  0  0  0  0  0  0  0  0
   -0.1605    9.9579   -2.3764 H   0  0  0  0  0  0  0  0  0  0  0  0
   -0.9511   10.3843   -3.9320 H   0  0  0  0  0  0  0  0  0  0  0  0
    0.6155    9.5054   -3.9320 H   0  0  0  0  0  0  0  0  0  0  0  0
    2.6846   11.0698   -4.3191 H   0  0  0  0  0  0  0  0  0  0  0  0
    1.2139   11.0373   -5.4460 H   0  0  0  0  0  0  0  0  0  0  0  0
    2.8370   13.4512   -4.5942 H   0  0  0  0  0  0  0  0  0  0  0  0
    2.6852   12.7168   -6.2388 H   0  0  0  0  0  0  0  0  0  0  0  0
   -0.6828   12.4017   -6.0913 H   0  0  0  0  0  0  0  0  0  0  0  0
   -0.4726   13.7601   -7.2477 H   0  0  0  0  0  0  0  0  0  0  0  0
    0.6917   12.3922   -7.2477 H   0  0  0  0  0  0  0  0  0  0  0  0
  1  2  1  0
  2  3  1  0
  3  4  1  0
  4  5  1  0
  5  6  1  0
  6  7  1  0
  7  8  1  0
  7  9  1  0
  2 10  1  0
 10 11  1  0
 11 12  1  0
 12 13  1  0
 13 14  1  1
 13 15  1  0
 15 16  1  0
 16 17  1  0
 17 18  2  0
 18 19  1  0
 19 20  1  0
 20 21  1  0
 21 22  1  0
 22 23  1  0
 22 24  1  0
 24 25  1  0
 24 26  1  0
 19 27  1  0
 27 28  1  1
 27 29  1  0
 29 30  1  0
 30 31  1  0
 31 32  1  6
  7  5  1  0
 31 10  1  0
 31 13  1  0
 27 15  1  0
 24 18  1  0
  1 33  1  0
  1 34  1  0
  1 35  1  0
  2 36  1  6
  3 37  1  0
  3 38  1  0
  4 39  1  0
  4 40  1  0
  5 41  1  6
  8 42  1  0
  8 43  1  0
  8 44  1  0
  9 45  1  0
  9 46  1  0
  9 47  1  0
 10 48  1  1
 11 49  1  0
 11 50  1  0
 12 51  1  0
 12 52  1  0
 14 53  1  0
 14 54  1  0
 14 55  1  0
 15 56  1  6
 16 57  1  0
 16 58  1  0
 17 59  1  0
 19 60  1  6
 20 61  1  0
 20 62  1  0
 21 63  1  0
 21 64  1  0
 22 65  1  1
 23 66  1  0
 25 67  1  0
 25 68  1  0
 25 69  1  0
 26 70  1  0
 26 71  1  0
 26 72  1  0
 28 73  1  0
 28 74  1  0
 28 75  1  0
 29 76  1  0
 29 77  1  0
 30 78  1  0
 30 79  1  0
 32 80  1  0
 32 81  1  0
 32 82  1  0
M  END
>  <meeko>  (18) 
{"is_sidechain": [false], "intermolecular_energy": 2.731, "internal_energy": -0.839}

$$$$
EPH_relaxed_0001_pdb2pqr_Repair_122_r2_0001_out
     RDKit          3D

 82 86  0  0  0  0  0  0  0  0999 V2000
   -2.4120    7.7510   -0.1020 C   0  0  0  0  0  0  0  0  0  0  0  0
   -3.0260    9.1530   -0.0740 C   0  0  2  0  0  0  0  0  0  0  0  0
   -4.5250    9.1380   -0.4330 C   0  0  0  0  0  0  0  0  0  0  0  0
   -5.1400    7.7360   -0.4500 C   0  0  0  0  0  0  0  0  0  0  0  0
   -5.8280    7.4470   -1.7500 C   0  0  2  0  0  0  0  0  0  0  0  0
   -6.7580    8.4530   -2.1710 O   0  0  0  0  0  0  0  0  0  0  0  0
   -7.3140    7.1640   -1.8650 C   0  0  0  0  0  0  0  0  0  0  0  0
   -8.2030    7.1550   -0.6610 C   0  0  0  0  0  0  0  0  0  0  0  0
   -7.8100    6.4210   -3.0660 C   0  0  0  0  0  0  0  0  0  0  0  0
   -2.2710   10.0700   -1.0290 C   0  0  1  0  0  0  0  0  0  0  0  0
   -2.9240   11.4720   -1.1520 C   0  0  0  0  0  0  0  0  0  0  0  0
   -1.7680   12.4900   -1.3320 C   0  0  0  0  0  0  0  0  0  0  0  0
   -0.5270   11.6200   -1.6380 C   0  0  1  0  0  0  0  0  0  0  0  0
   -0.6360   11.2850   -3.1580 C   0  0  0  0  0  0  0  0  0  0  0  0
    0.8610   12.2480   -1.2840 C   0  0  2  0  0  0  0  0  0  0  0  0
    1.2120   13.5320   -2.0550 C   0  0  0  0  0  0  0  0  0  0  0  0
    1.9480   13.3240   -3.3380 C   0  0  0  0  0  0  0  0  0  0  0  0
    2.5620   12.1860   -3.7120 C   0  0  0  0  0  0  0  0  0  0  0  0
    2.6370   10.9830   -2.7630 C   0  0  1  0  0  0  0  0  0  0  0  0
    4.0830   10.4220   -2.7520 C   0  0  0  0  0  0  0  0  0  0  0  0
    4.5940   10.0940   -4.1520 C   0  0  0  0  0  0  0  0  0  0  0  0
    4.5590   11.3290   -5.0480 C   0  0  2  0  0  0  0  0  0  0  0  0
    5.5080   12.2810   -4.5590 O   0  0  0  0  0  0  0  0  0  0  0  0
    3.1530   11.9870   -5.1290 C   0  0  0  0  0  0  0  0  0  0  0  0
    2.1950   11.0720   -5.9310 C   0  0  0  0  0  0  0  0  0  0  0  0
    3.2870   13.2990   -5.9480 C   0  0  0  0  0  0  0  0  0  0  0  0
    2.0620   11.2170   -1.3000 C   0  0  1  0  0  0  0  0  0  0  0  0
    3.1720   11.8120   -0.3810 C   0  0  0  0  0  0  0  0  0  0  0  0
    1.6660    9.8270   -0.6750 C   0  0  0  0  0  0  0  0  0  0  0  0
    0.2400    9.3170   -0.9630 C   0  0  0  0  0  0  0  0  0  0  0  0
   -0.7990   10.4050   -0.6780 C   0  0  2  0  0  0  0  0  0  0  0  0
   -0.7280   10.7480    0.8490 C   0  0  0  0  0  0  0  0  0  0  0  0
   -2.2573    7.3978    0.9282 H   0  0  0  0  0  0  0  0  0  0  0  0
   -3.0914    7.0636   -0.6272 H   0  0  0  0  0  0  0  0  0  0  0  0
   -1.4460    7.7842   -0.6272 H   0  0  0  0  0  0  0  0  0  0  0  0
   -2.9370    9.5326    0.9546 H   0  0  0  0  0  0  0  0  0  0  0  0
   -5.0656    9.7453    0.3079 H   0  0  0  0  0  0  0  0  0  0  0  0
   -4.6153    9.5409   -1.4525 H   0  0  0  0  0  0  0  0  0  0  0  0
   -4.3417    6.9949   -0.2969 H   0  0  0  0  0  0  0  0  0  0  0  0
   -5.8891    7.6809    0.3536 H   0  0  0  0  0  0  0  0  0  0  0  0
   -4.9439    6.9116   -2.1263 H   0  0  0  0  0  0  0  0  0  0  0  0
   -7.5865    7.1612    0.2500 H   0  0  0  0  0  0  0  0  0  0  0  0
   -8.8470    8.0467   -0.6741 H   0  0  0  0  0  0  0  0  0  0  0  0
   -8.8288    6.2505   -0.6741 H   0  0  0  0  0  0  0  0  0  0  0  0
   -8.3935    5.5469   -2.7412 H   0  0  0  0  0  0  0  0  0  0  0  0
   -8.4475    7.0837   -3.6697 H   0  0  0  0  0  0  0  0  0  0  0  0
   -6.9535    6.0864   -3.6697 H   0  0  0  0  0  0  0  0  0  0  0  0
   -2.3105    9.4584   -1.9424 H   0  0  0  0  0  0  0  0  0  0  0  0
   -3.5946   11.5024   -2.0235 H   0  0  0  0  0  0  0  0  0  0  0  0
   -3.5229   11.7083   -0.2601 H   0  0  0  0  0  0  0  0  0  0  0  0
   -1.9789   13.1734   -2.1677 H   0  0  0  0  0  0  0  0  0  0  0  0
   -1.6259   13.1217   -0.4427 H   0  0  0  0  0  0  0  0  0  0  0  0
   -0.9742   10.2455   -3.2810 H   0  0  0  0  0  0  0  0  0  0  0  0
   -1.3594   11.9645   -3.6323 H   0  0  0  0  0  0  0  0  0  0  0  0
    0.3488   11.4088   -3.6323 H   0  0  0  0  0  0  0  0  0  0  0  0
    0.7199   12.5574   -0.2379 H   0  0  0  0  0  0  0  0  0  0  0  0
    0.2737   14.0590   -2.2828 H   0  0  0  0  0  0  0  0  0  0  0  0
    1.8904   14.1026   -1.4037 H   0  0  0  0  0  0  0  0  0  0  0  0
    1.9920   14.1727   -4.0364 H   0  0  0  0  0  0  0  0  0  0  0  0
    1.9474   10.2297   -3.1716 H   0  0  0  0  0  0  0  0  0  0  0  0
    4.7488   11.1721   -2.3004 H   0  0  0  0  0  0  0  0  0  0  0  0
    4.0741    9.4872   -2.1723 H   0  0  0  0  0  0  0  0  0  0  0  0
    5.6295    9.7297   -4.0812 H   0  0  0  0  0  0  0  0  0  0  0  0
    3.9444    9.3226   -4.5914 H   0  0  0  0  0  0  0  0  0  0  0  0
    4.8127   11.0038   -6.0677 H   0  0  0  0  0  0  0  0  0  0  0  0
    5.0630   12.8200   -3.8840 H   0  0  0  0  0  0  0  0  0  0  0  0
    1.5798   10.4844   -5.2337 H   0  0  0  0  0  0  0  0  0  0  0  0
    1.5420   11.6903   -6.5645 H   0  0  0  0  0  0  0  0  0  0  0  0
    2.7827   10.3913   -6.5645 H   0  0  0  0  0  0  0  0  0  0  0  0
    3.3742   14.1532   -5.2604 H   0  0  0  0  0  0  0  0  0  0  0  0
    4.1844   13.2455   -6.5820 H   0  0  0  0  0  0  0  0  0  0  0  0
    2.3974   13.4280   -6.5820 H   0  0  0  0  0  0  0  0  0  0  0  0
    2.8943   11.6631    0.6729 H   0  0  0  0  0  0  0  0  0  0  0  0
    4.1268   11.3048   -0.5837 H   0  0  0  0  0  0  0  0  0  0  0  0
    3.2781   12.8879   -0.5837 H   0  0  0  0  0  0  0  0  0  0  0  0
    2.3720    9.0760   -1.0591 H   0  0  0  0  0  0  0  0  0  0  0  0
    1.7030    9.9796    0.4137 H   0  0  0  0  0  0  0  0  0  0  0  0
    0.1703    9.0209   -2.0201 H   0  0  0  0  0  0  0  0  0  0  0  0
    0.0361    8.4570   -0.3081 H   0  0  0  0  0  0  0  0  0  0  0  0
   -0.9163    9.8384    1.4383 H   0  0  0  0  0  0  0  0  0  0  0  0
    0.2706   11.1412    1.0905 H   0  0  0  0  0  0  0  0  0  0  0  0
   -1.4884   11.5053    1.0905 H   0  0  0  0  0  0  0  0  0  0  0  0
  1  2  1  0
  2  3  1  0
  3  4  1  0
  4  5  1  0
  5  6  1  0
  6  7  1  0
  7  8  1  0
  7  9  1  0
  2 10  1  0
 10 11  1  0
 11 12  1  0
 12 13  1  0
 13 14  1  6
 13 15  1  0
 15 16  1  0
 16 17  1  0
 17 18  2  0
 18 19  1  0
 19 20  1  0
 20 21  1  0
 21 22  1  0
 22 23  1  0
 22 24  1  0
 24 25  1  0
 24 26  1  0
 19 27  1  0
 27 28  1  1
 27 29  1  0
 29 30  1  0
 30 31  1  0
 31 32  1  1
  7  5  1  0
 31 10  1  0
 31 13  1  0
 27 15  1  0
 24 18  1  0
  1 33  1  0
  1 34  1  0
  1 35  1  0
  2 36  1  1
  3 37  1  0
  3 38  1  0
  4 39  1  0
  4 40  1  0
  5 41  1  6
  8 42  1  0
  8 43  1  0
  8 44  1  0
  9 45  1  0
  9 46  1  0
  9 47  1  0
 10 48  1  6
 11 49  1  0
 11 50  1  0
 12 51  1  0
 12 52  1  0
 14 53  1  0
 14 54  1  0
 14 55  1  0
 15 56  1  1
 16 57  1  0
 16 58  1  0
 17 59  1  0
 19 60  1  6
 20 61  1  0
 20 62  1  0
 21 63  1  0
 21 64  1  0
 22 65  1  6
 23 66  1  0
 25 67  1  0
 25 68  1  0
 25 69  1  0
 26 70  1  0
 26 71  1  0
 26 72  1  0
 28 73  1  0
 28 74  1  0
 28 75  1  0
 29 76  1  0
 29 77  1  0
 30 78  1  0
 30 79  1  0
 32 80  1  0
 32 81  1  0
 32 82  1  0
M  END
>  <meeko>  (19) 
{"is_sidechain": [false], "intermolecular_energy": 2.731, "internal_energy": -0.839}

$$$$
