EPH_relaxed_0001_pdb2pqr_Repair_415_r2_0001_out
     RDKit          3D

 82 86  0  0  0  0  0  0  0  0999 V2000
   -1.6050    8.5770   -1.8200 C   0  0  0  0  0  0  0  0  0  0  0  0
   -1.9980    9.1510   -0.4560 C   0  0  2  0  0  0  0  0  0  0  0  0
   -3.4850    9.5540   -0.4020 C   0  0  0  0  0  0  0  0  0  0  0  0
   -4.4410    8.3650   -0.2750 C   0  0  0  0  0  0  0  0  0  0  0  0
   -5.0760    8.0210   -1.5890 C   0  0  2  0  0  0  0  0  0  0  0  0
   -6.3380    8.6580   -1.8280 O   0  0  0  0  0  0  0  0  0  0  0  0
   -6.3620    7.2260   -1.7140 C   0  0  0  0  0  0  0  0  0  0  0  0
   -7.0890    6.7240   -0.5060 C   0  0  0  0  0  0  0  0  0  0  0  0
   -6.6450    6.5230   -3.0040 C   0  0  0  0  0  0  0  0  0  0  0  0
   -1.1200   10.3520   -0.1250 C   0  0  1  0  0  0  0  0  0  0  0  0
   -0.0380   10.0260    0.9390 C   0  0  0  0  0  0  0  0  0  0  0  0
    1.2180   10.8570    0.5690 C   0  0  0  0  0  0  0  0  0  0  0  0
    0.7160   11.8740   -0.4840 C   0  0  1  0  0  0  0  0  0  0  0  0
    0.0500   13.0150    0.3460 C   0  0  0  0  0  0  0  0  0  0  0  0
    1.7910   12.4310   -1.4730 C   0  0  2  0  0  0  0  0  0  0  0  0
    2.9280   13.2340   -0.8170 C   0  0  0  0  0  0  0  0  0  0  0  0
    2.6840   14.7020   -0.6960 C   0  0  0  0  0  0  0  0  0  0  0  0
    1.7310   15.3930   -1.3480 C   0  0  0  0  0  0  0  0  0  0  0  0
    0.8340   14.7090   -2.3880 C   0  0  1  0  0  0  0  0  0  0  0  0
    0.7480   15.5940   -3.6590 C   0  0  0  0  0  0  0  0  0  0  0  0
    0.3000   17.0200   -3.3500 C   0  0  0  0  0  0  0  0  0  0  0  0
    1.2490   17.6860   -2.3570 C   0  0  2  0  0  0  0  0  0  0  0  0
    2.5230   17.8630   -2.9840 O   0  0  0  0  0  0  0  0  0  0  0  0
    1.4230   16.8790   -1.0400 C   0  0  0  0  0  0  0  0  0  0  0  0
    0.1150   16.9440   -0.2140 C   0  0  0  0  0  0  0  0  0  0  0  0
    2.5100   17.5860   -0.1870 C   0  0  0  0  0  0  0  0  0  0  0  0
    1.1880   13.1960   -2.7210 C   0  0  1  0  0  0  0  0  0  0  0  0
    2.2690   13.1370   -3.8430 C   0  0  0  0  0  0  0  0  0  0  0  0
   -0.0910   12.4840   -3.2990 C   0  0  0  0  0  0  0  0  0  0  0  0
   -1.0540   11.8480   -2.2770 C   0  0  0  0  0  0  0  0  0  0  0  0
   -0.2930   10.9690   -1.2810 C   0  0  2  0  0  0  0  0  0  0  0  0
    0.3700    9.7980   -2.0840 C   0  0  0  0  0  0  0  0  0  0  0  0
   -0.9890    7.6772   -1.6755 H   0  0  0  0  0  0  0  0  0  0  0  0
   -2.5129    8.3133   -2.3822 H   0  0  0  0  0  0  0  0  0  0  0  0
   -1.0308    9.3281   -2.3822 H   0  0  0  0  0  0  0  0  0  0  0  0
   -1.8434    8.3601    0.2928 H   0  0  0  0  0  0  0  0  0  0  0  0
   -3.6346   10.2140    0.4652 H   0  0  0  0  0  0  0  0  0  0  0  0
   -3.7175   10.0529   -1.3544 H   0  0  0  0  0  0  0  0  0  0  0  0
   -3.8783    7.4924    0.0883 H   0  0  0  0  0  0  0  0  0  0  0  0
   -5.2393    8.6407    0.4298 H   0  0  0  0  0  0  0  0  0  0  0  0
   -4.0899    7.9078   -2.0632 H   0  0  0  0  0  0  0  0  0  0  0  0
   -6.5783    7.0767    0.4022 H   0  0  0  0  0  0  0  0  0  0  0  0
   -8.1219    7.1023   -0.5161 H   0  0  0  0  0  0  0  0  0  0  0  0
   -7.1012    5.6241   -0.5161 H   0  0  0  0  0  0  0  0  0  0  0  0
   -7.0483    5.5212   -2.7948 H   0  0  0  0  0  0  0  0  0  0  0  0
   -7.3806    7.1009   -3.5828 H   0  0  0  0  0  0  0  0  0  0  0  0
   -5.7142    6.4301   -3.5828 H   0  0  0  0  0  0  0  0  0  0  0  0
   -1.8941   11.0612    0.2033 H   0  0  0  0  0  0  0  0  0  0  0  0
   -0.3956   10.3057    1.9409 H   0  0  0  0  0  0  0  0  0  0  0  0
    0.1904    8.9501    0.9532 H   0  0  0  0  0  0  0  0  0  0  0  0
    1.6140   11.3773    1.4536 H   0  0  0  0  0  0  0  0  0  0  0  0
    2.0361   10.2291    0.1861 H   0  0  0  0  0  0  0  0  0  0  0  0
    0.1716   12.8067    1.4192 H   0  0  0  0  0  0  0  0  0  0  0  0
    0.5301   13.9741    0.1020 H   0  0  0  0  0  0  0  0  0  0  0  0
   -1.0212   13.0686    0.1020 H   0  0  0  0  0  0  0  0  0  0  0  0
    2.2580   11.5118   -1.8564 H   0  0  0  0  0  0  0  0  0  0  0  0
    3.0889   12.8316    0.1940 H   0  0  0  0  0  0  0  0  0  0  0  0
    3.7998   13.1238   -1.4787 H   0  0  0  0  0  0  0  0  0  0  0  0
    3.3389   15.2667   -0.0161 H   0  0  0  0  0  0  0  0  0  0  0  0
   -0.1597   14.6241   -1.9240 H   0  0  0  0  0  0  0  0  0  0  0  0
    1.7409   15.6308   -4.1309 H   0  0  0  0  0  0  0  0  0  0  0  0
   -0.0017   15.1460   -4.3277 H   0  0  0  0  0  0  0  0  0  0  0  0
    0.2869   17.6034   -4.2824 H   0  0  0  0  0  0  0  0  0  0  0  0
   -0.7054   16.9839   -2.9052 H   0  0  0  0  0  0  0  0  0  0  0  0
    0.8065   18.6532   -2.0763 H   0  0  0  0  0  0  0  0  0  0  0  0
    2.9600   18.6180   -2.5550 H   0  0  0  0  0  0  0  0  0  0  0  0
    0.3578   16.9319    0.8588 H   0  0  0  0  0  0  0  0  0  0  0  0
   -0.4265   17.8702   -0.4570 H   0  0  0  0  0  0  0  0  0  0  0  0
   -0.5156   16.0761   -0.4570 H   0  0  0  0  0  0  0  0  0  0  0  0
    2.2890   17.4423    0.8809 H   0  0  0  0  0  0  0  0  0  0  0  0
    3.4954   17.1555   -0.4187 H   0  0  0  0  0  0  0  0  0  0  0  0
    2.5160   18.6613   -0.4187 H   0  0  0  0  0  0  0  0  0  0  0  0
    3.2684   13.0825   -3.3867 H   0  0  0  0  0  0  0  0  0  0  0  0
    2.1017   12.2467   -4.4669 H   0  0  0  0  0  0  0  0  0  0  0  0
    2.1996   14.0403   -4.4669 H   0  0  0  0  0  0  0  0  0  0  0  0
   -0.6592   13.2328   -3.8703 H   0  0  0  0  0  0  0  0  0  0  0  0
    0.2925   11.6429   -3.8953 H   0  0  0  0  0  0  0  0  0  0  0  0
   -1.5746   12.6464   -1.7279 H   0  0  0  0  0  0  0  0  0  0  0  0
   -1.7761   11.2197   -2.8191 H   0  0  0  0  0  0  0  0  0  0  0  0
    0.7870    9.0615   -1.3813 H   0  0  0  0  0  0  0  0  0  0  0  0
   -0.3874    9.3127   -2.7172 H   0  0  0  0  0  0  0  0  0  0  0  0
    1.1758   10.1977   -2.7172 H   0  0  0  0  0  0  0  0  0  0  0  0
  1  2  1  0
  2  3  1  0
  3  4  1  0
  4  5  1  0
  5  6  1  0
  6  7  1  0
  7  8  1  0
  7  9  1  0
  2 10  1  0
 10 11  1  0
 11 12  1  0
 12 13  1  0
 13 14  1  1
 13 15  1  0
 15 16  1  0
 16 17  1  0
 17 18  2  0
 18 19  1  0
 19 20  1  0
 20 21  1  0
 21 22  1  0
 22 23  1  0
 22 24  1  0
 24 25  1  0
 24 26  1  0
 19 27  1  0
 27 28  1  6
 27 29  1  0
 29 30  1  0
 30 31  1  0
 31 32  1  6
  7  5  1  0
 31 10  1  0
 31 13  1  0
 27 15  1  0
 24 18  1  0
  1 33  1  0
  1 34  1  0
  1 35  1  0
  2 36  1  1
  3 37  1  0
  3 38  1  0
  4 39  1  0
  4 40  1  0
  5 41  1  6
  8 42  1  0
  8 43  1  0
  8 44  1  0
  9 45  1  0
  9 46  1  0
  9 47  1  0
 10 48  1  1
 11 49  1  0
 11 50  1  0
 12 51  1  0
 12 52  1  0
 14 53  1  0
 14 54  1  0
 14 55  1  0
 15 56  1  6
 16 57  1  0
 16 58  1  0
 17 59  1  0
 19 60  1  1
 20 61  1  0
 20 62  1  0
 21 63  1  0
 21 64  1  0
 22 65  1  1
 23 66  1  0
 25 67  1  0
 25 68  1  0
 25 69  1  0
 26 70  1  0
 26 71  1  0
 26 72  1  0
 28 73  1  0
 28 74  1  0
 28 75  1  0
 29 76  1  0
 29 77  1  0
 30 78  1  0
 30 79  1  0
 32 80  1  0
 32 81  1  0
 32 82  1  0
M  END
>  <meeko>  (1) 
{"is_sidechain": [false], "intermolecular_energy": 2.731, "internal_energy": -0.839}

$$$$
EPH_relaxed_0001_pdb2pqr_Repair_415_r2_0001_out
     RDKit          3D

 82 86  0  0  0  0  0  0  0  0999 V2000
    2.3920   19.6100   -1.0400 C   0  0  0  0  0  0  0  0  0  0  0  0
    2.1640   18.7900    0.2330 C   0  0  2  0  0  0  0  0  0  0  0  0
    3.4900   18.3400    0.8790 C   0  0  0  0  0  0  0  0  0  0  0  0
    3.7580   18.9820    2.2430 C   0  0  0  0  0  0  0  0  0  0  0  0
    5.2200   18.9890    2.5740 C   0  0  2  0  0  0  0  0  0  0  0  0
    5.6410   17.9350    3.4510 O   0  0  0  0  0  0  0  0  0  0  0  0
    5.7620   19.2720    3.9630 C   0  0  0  0  0  0  0  0  0  0  0  0
    4.8490   19.5690    5.1110 C   0  0  0  0  0  0  0  0  0  0  0  0
    7.1780   19.7400    4.0960 C   0  0  0  0  0  0  0  0  0  0  0  0
    1.2980   17.5750   -0.0800 C   0  0  1  0  0  0  0  0  0  0  0  0
    0.1020   17.9170   -1.0080 C   0  0  0  0  0  0  0  0  0  0  0  0
   -0.1220   16.6840   -1.9210 C   0  0  0  0  0  0  0  0  0  0  0  0
    0.7210   15.5610   -1.2730 C   0  0  1  0  0  0  0  0  0  0  0  0
   -0.1630   15.0170   -0.1070 C   0  0  0  0  0  0  0  0  0  0  0  0
    1.1900   14.4130   -2.2250 C   0  0  2  0  0  0  0  0  0  0  0  0
    0.0580   13.5910   -2.8640 C   0  0  0  0  0  0  0  0  0  0  0  0
   -0.3740   12.3900   -2.0890 C   0  0  0  0  0  0  0  0  0  0  0  0
    0.3090   11.8250   -1.0770 C   0  0  0  0  0  0  0  0  0  0  0  0
    1.6990   12.3400   -0.6810 C   0  0  1  0  0  0  0  0  0  0  0  0
    2.6640   11.1390   -0.4990 C   0  0  0  0  0  0  0  0  0  0  0  0
    2.1260   10.1000    0.4800 C   0  0  0  0  0  0  0  0  0  0  0  0
    0.7700    9.5690    0.0220 C   0  0  2  0  0  0  0  0  0  0  0  0
    0.9500    8.8280   -1.1890 O   0  0  0  0  0  0  0  0  0  0  0  0
   -0.2820   10.6910   -0.2040 C   0  0  0  0  0  0  0  0  0  0  0  0
   -0.7010   11.2940    1.1590 C   0  0  0  0  0  0  0  0  0  0  0  0
   -1.5580   10.0360   -0.7990 C   0  0  0  0  0  0  0  0  0  0  0  0
    2.3080   13.4770   -1.6100 C   0  0  1  0  0  0  0  0  0  0  0  0
    3.0620   12.8330   -2.8140 C   0  0  0  0  0  0  0  0  0  0  0  0
    3.3840   14.2860   -0.7940 C   0  0  0  0  0  0  0  0  0  0  0  0
    2.8740   15.4820    0.0330 C   0  0  0  0  0  0  0  0  0  0  0  0
    1.9750   16.3890   -0.8130 C   0  0  2  0  0  0  0  0  0  0  0  0
    2.8430   16.9690   -1.9810 C   0  0  0  0  0  0  0  0  0  0  0  0
    2.6776   20.6370   -0.7684 H   0  0  0  0  0  0  0  0  0  0  0  0
    3.1964   19.1504   -1.6330 H   0  0  0  0  0  0  0  0  0  0  0  0
    1.4658   19.6316   -1.6330 H   0  0  0  0  0  0  0  0  0  0  0  0
    1.6478   19.4381    0.9565 H   0  0  0  0  0  0  0  0  0  0  0  0
    3.4603   17.2481    1.0087 H   0  0  0  0  0  0  0  0  0  0  0  0
    4.3002   18.6605    0.2076 H   0  0  0  0  0  0  0  0  0  0  0  0
    3.3909   20.0188    2.2274 H   0  0  0  0  0  0  0  0  0  0  0  0
    3.2354   18.3907    3.0093 H   0  0  0  0  0  0  0  0  0  0  0  0
    5.4655   19.4071    1.5866 H   0  0  0  0  0  0  0  0  0  0  0  0
    5.3818   19.3957    6.0576 H   0  0  0  0  0  0  0  0  0  0  0  0
    4.5249   20.6189    5.0596 H   0  0  0  0  0  0  0  0  0  0  0  0
    3.9692   18.9107    5.0596 H   0  0  0  0  0  0  0  0  0  0  0  0
    7.4373   19.8257    5.1616 H   0  0  0  0  0  0  0  0  0  0  0  0
    7.8504   19.0163    3.6121 H   0  0  0  0  0  0  0  0  0  0  0  0
    7.2867   20.7218    3.6121 H   0  0  0  0  0  0  0  0  0  0  0  0
    1.0214   17.2773    0.9422 H   0  0  0  0  0  0  0  0  0  0  0  0
   -0.7990   18.1130   -0.4082 H   0  0  0  0  0  0  0  0  0  0  0  0
    0.3095   18.8177   -1.6043 H   0  0  0  0  0  0  0  0  0  0  0  0
   -1.1861   16.4064   -1.9446 H   0  0  0  0  0  0  0  0  0  0  0  0
    0.1716   16.8777   -2.9633 H   0  0  0  0  0  0  0  0  0  0  0  0
    0.2891   15.2952    0.8564 H   0  0  0  0  0  0  0  0  0  0  0  0
   -1.1712   15.4511   -0.1779 H   0  0  0  0  0  0  0  0  0  0  0  0
   -0.2298   13.9213   -0.1779 H   0  0  0  0  0  0  0  0  0  0  0  0
    1.6577   14.9688   -3.0511 H   0  0  0  0  0  0  0  0  0  0  0  0
   -0.8145   14.2500   -2.9840 H   0  0  0  0  0  0  0  0  0  0  0  0
    0.4576   13.2113   -3.8159 H   0  0  0  0  0  0  0  0  0  0  0  0
   -1.3321   11.9280   -2.3694 H   0  0  0  0  0  0  0  0  0  0  0  0
    1.5677   12.8619    0.2784 H   0  0  0  0  0  0  0  0  0  0  0  0
    2.8159   10.6574   -1.4762 H   0  0  0  0  0  0  0  0  0  0  0  0
    3.6076   11.5278   -0.0885 H   0  0  0  0  0  0  0  0  0  0  0  0
    2.8373    9.2633    0.5438 H   0  0  0  0  0  0  0  0  0  0  0  0
    2.0024   10.5759    1.4640 H   0  0  0  0  0  0  0  0  0  0  0  0
    0.3781    8.9280    0.8254 H   0  0  0  0  0  0  0  0  0  0  0  0
    1.4660    9.3820   -1.7990 H   0  0  0  0  0  0  0  0  0  0  0  0
   -0.2792   10.6870    1.9737 H   0  0  0  0  0  0  0  0  0  0  0  0
   -0.3232   12.3242    1.2359 H   0  0  0  0  0  0  0  0  0  0  0  0
   -1.7983   11.2992    1.2359 H   0  0  0  0  0  0  0  0  0  0  0  0
   -2.2128    9.6999    0.0184 H   0  0  0  0  0  0  0  0  0  0  0  0
   -2.0927   10.7711   -1.4185 H   0  0  0  0  0  0  0  0  0  0  0  0
   -1.2724    9.1730   -1.4185 H   0  0  0  0  0  0  0  0  0  0  0  0
    3.8480   12.1617   -2.4377 H   0  0  0  0  0  0  0  0  0  0  0  0
    2.3516   12.2586   -3.4267 H   0  0  0  0  0  0  0  0  0  0  0  0
    3.5182   13.6245   -3.4267 H   0  0  0  0  0  0  0  0  0  0  0  0
    3.8715   13.5853   -0.1001 H   0  0  0  0  0  0  0  0  0  0  0  0
    4.0509   14.7234   -1.5516 H   0  0  0  0  0  0  0  0  0  0  0  0
    2.2996   15.1064    0.8926 H   0  0  0  0  0  0  0  0  0  0  0  0
    3.7403   16.0670    0.3753 H   0  0  0  0  0  0  0  0  0  0  0  0
    3.6891   17.5344   -1.5633 H   0  0  0  0  0  0  0  0  0  0  0  0
    3.2237   16.1432   -2.5999 H   0  0  0  0  0  0  0  0  0  0  0  0
    2.2257   17.6367   -2.5999 H   0  0  0  0  0  0  0  0  0  0  0  0
  1  2  1  0
  2  3  1  0
  3  4  1  0
  4  5  1  0
  5  6  1  0
  6  7  1  0
  7  8  1  0
  7  9  1  0
  2 10  1  0
 10 11  1  0
 11 12  1  0
 12 13  1  0
 13 14  1  1
 13 15  1  0
 15 16  1  0
 16 17  1  0
 17 18  2  0
 18 19  1  0
 19 20  1  0
 20 21  1  0
 21 22  1  0
 22 23  1  0
 22 24  1  0
 24 25  1  0
 24 26  1  0
 19 27  1  0
 27 28  1  6
 27 29  1  0
 29 30  1  0
 30 31  1  0
 31 32  1  6
  7  5  1  0
 31 10  1  0
 31 13  1  0
 27 15  1  0
 24 18  1  0
  1 33  1  0
  1 34  1  0
  1 35  1  0
  2 36  1  1
  3 37  1  0
  3 38  1  0
  4 39  1  0
  4 40  1  0
  5 41  1  6
  8 42  1  0
  8 43  1  0
  8 44  1  0
  9 45  1  0
  9 46  1  0
  9 47  1  0
 10 48  1  1
 11 49  1  0
 11 50  1  0
 12 51  1  0
 12 52  1  0
 14 53  1  0
 14 54  1  0
 14 55  1  0
 15 56  1  6
 16 57  1  0
 16 58  1  0
 17 59  1  0
 19 60  1  1
 20 61  1  0
 20 62  1  0
 21 63  1  0
 21 64  1  0
 22 65  1  1
 23 66  1  0
 25 67  1  0
 25 68  1  0
 25 69  1  0
 26 70  1  0
 26 71  1  0
 26 72  1  0
 28 73  1  0
 28 74  1  0
 28 75  1  0
 29 76  1  0
 29 77  1  0
 30 78  1  0
 30 79  1  0
 32 80  1  0
 32 81  1  0
 32 82  1  0
M  END
>  <meeko>  (2) 
{"is_sidechain": [false], "intermolecular_energy": 2.731, "internal_energy": -0.839}

$$$$
EPH_relaxed_0001_pdb2pqr_Repair_415_r2_0001_out
     RDKit          3D

 82 86  0  0  0  0  0  0  0  0999 V2000
    1.7170   12.7030   -5.7850 C   0  0  0  0  0  0  0  0  0  0  0  0
    0.8590   13.5020   -4.8010 C   0  0  2  0  0  0  0  0  0  0  0  0
    0.8670   15.0110   -5.1150 C   0  0  0  0  0  0  0  0  0  0  0  0
    0.5420   15.3370   -6.5760 C   0  0  0  0  0  0  0  0  0  0  0  0
    1.7540   15.2250   -7.4510 C   0  0  2  0  0  0  0  0  0  0  0  0
    2.2580   16.4760   -7.9390 O   0  0  0  0  0  0  0  0  0  0  0  0
    1.7510   15.5670   -8.9300 C   0  0  0  0  0  0  0  0  0  0  0  0
    0.5120   16.0460   -9.6180 C   0  0  0  0  0  0  0  0  0  0  0  0
    2.8130   14.9740   -9.8030 C   0  0  0  0  0  0  0  0  0  0  0  0
    1.3440   13.2640   -3.3760 C   0  0  1  0  0  0  0  0  0  0  0  0
    1.3560   14.5610   -2.5240 C   0  0  0  0  0  0  0  0  0  0  0  0
    0.9810   14.1500   -1.0770 C   0  0  0  0  0  0  0  0  0  0  0  0
    1.0920   12.6070   -1.0690 C   0  0  1  0  0  0  0  0  0  0  0  0
    2.6150   12.3160   -0.8920 C   0  0  0  0  0  0  0  0  0  0  0  0
    0.2330   11.8580    0.0010 C   0  0  2  0  0  0  0  0  0  0  0  0
    0.5870   12.1800    1.4630 C   0  0  0  0  0  0  0  0  0  0  0  0
    1.6180   11.2940    2.0800 C   0  0  0  0  0  0  0  0  0  0  0  0
    2.0290   10.1110    1.5860 C   0  0  0  0  0  0  0  0  0  0  0  0
    1.3710    9.5060    0.3390 C   0  0  1  0  0  0  0  0  0  0  0  0
    1.0630    8.0070    0.5920 C   0  0  0  0  0  0  0  0  0  0  0  0
    2.2930    7.2240    1.0400 C   0  0  0  0  0  0  0  0  0  0  0  0
    2.8850    7.8200    2.3140 C   0  0  2  0  0  0  0  0  0  0  0  0
    1.9580    7.6290    3.3870 O   0  0  0  0  0  0  0  0  0  0  0  0
    3.2270    9.3310    2.1830 C   0  0  0  0  0  0  0  0  0  0  0  0
    4.4420    9.5100    1.2390 C   0  0  0  0  0  0  0  0  0  0  0  0
    3.6820    9.8410    3.5770 C   0  0  0  0  0  0  0  0  0  0  0  0
    0.1190   10.2980   -0.2360 C   0  0  1  0  0  0  0  0  0  0  0  0
   -1.1830    9.8320    0.4850 C   0  0  0  0  0  0  0  0  0  0  0  0
   -0.0630    9.9360   -1.7580 C   0  0  0  0  0  0  0  0  0  0  0  0
    0.7200   10.7890   -2.7740 C   0  0  0  0  0  0  0  0  0  0  0  0
    0.5250   12.2840   -2.4990 C   0  0  2  0  0  0  0  0  0  0  0  0
   -0.9950   12.6110   -2.6910 C   0  0  0  0  0  0  0  0  0  0  0  0
    2.4105   12.0572   -5.2263 H   0  0  0  0  0  0  0  0  0  0  0  0
    1.0665   12.0815   -6.4179 H   0  0  0  0  0  0  0  0  0  0  0  0
    2.2907   13.3961   -6.4179 H   0  0  0  0  0  0  0  0  0  0  0  0
   -0.1777   13.1492   -4.9047 H   0  0  0  0  0  0  0  0  0  0  0  0
    0.1200   15.5030   -4.4748 H   0  0  0  0  0  0  0  0  0  0  0  0
    1.8876   15.3740   -4.9237 H   0  0  0  0  0  0  0  0  0  0  0  0
   -0.2241   14.6346   -6.9362 H   0  0  0  0  0  0  0  0  0  0  0  0
    0.1788   16.3742   -6.6237 H   0  0  0  0  0  0  0  0  0  0  0  0
    2.1009   14.3392   -6.8987 H   0  0  0  0  0  0  0  0  0  0  0  0
   -0.2366   16.3354   -8.8657 H   0  0  0  0  0  0  0  0  0  0  0  0
    0.7546   16.9151  -10.2471 H   0  0  0  0  0  0  0  0  0  0  0  0
    0.1069   15.2397  -10.2471 H   0  0  0  0  0  0  0  0  0  0  0  0
    3.6011   14.5340   -9.1743 H   0  0  0  0  0  0  0  0  0  0  0  0
    2.3712   14.1920  -10.4381 H   0  0  0  0  0  0  0  0  0  0  0  0
    3.2470   15.7604  -10.4381 H   0  0  0  0  0  0  0  0  0  0  0  0
    2.3361   12.8391   -3.5888 H   0  0  0  0  0  0  0  0  0  0  0  0
    2.3574   15.0159   -2.5410 H   0  0  0  0  0  0  0  0  0  0  0  0
    0.6451   15.3006   -2.9210 H   0  0  0  0  0  0  0  0  0  0  0  0
    1.6809   14.5935   -0.3535 H   0  0  0  0  0  0  0  0  0  0  0  0
   -0.0227   14.4977   -0.7912 H   0  0  0  0  0  0  0  0  0  0  0  0
    2.8573   12.2697    0.1800 H   0  0  0  0  0  0  0  0  0  0  0  0
    2.8620   11.3544   -1.3656 H   0  0  0  0  0  0  0  0  0  0  0  0
    3.1992   13.1188   -1.3656 H   0  0  0  0  0  0  0  0  0  0  0  0
   -0.7695   12.2797   -0.1635 H   0  0  0  0  0  0  0  0  0  0  0  0
    0.9600   13.2141    1.5025 H   0  0  0  0  0  0  0  0  0  0  0  0
   -0.3353   12.0217    2.0411 H   0  0  0  0  0  0  0  0  0  0  0  0
    2.0809   11.6366    3.0172 H   0  0  0  0  0  0  0  0  0  0  0  0
    2.1075    9.6034   -0.4722 H   0  0  0  0  0  0  0  0  0  0  0  0
    0.2934    7.9324    1.3744 H   0  0  0  0  0  0  0  0  0  0  0  0
    0.7185    7.5723   -0.3579 H   0  0  0  0  0  0  0  0  0  0  0  0
    2.0050    6.1797    1.2312 H   0  0  0  0  0  0  0  0  0  0  0  0
    3.0504    7.2746    0.2439 H   0  0  0  0  0  0  0  0  0  0  0  0
    3.8337    7.2993    2.5107 H   0  0  0  0  0  0  0  0  0  0  0  0
    1.0610    7.6980    3.0170 H   0  0  0  0  0  0  0  0  0  0  0  0
    5.3549    9.6445    1.8378 H   0  0  0  0  0  0  0  0  0  0  0  0
    4.5479    8.6178    0.6044 H   0  0  0  0  0  0  0  0  0  0  0  0
    4.2861   10.3949    0.6044 H   0  0  0  0  0  0  0  0  0  0  0  0
    3.1695    9.2666    4.3628 H   0  0  0  0  0  0  0  0  0  0  0  0
    4.7696    9.7110    3.6779 H   0  0  0  0  0  0  0  0  0  0  0  0
    3.4292   10.9068    3.6779 H   0  0  0  0  0  0  0  0  0  0  0  0
   -1.0377    9.8840    1.5741 H   0  0  0  0  0  0  0  0  0  0  0  0
   -2.0175   10.4873    0.1947 H   0  0  0  0  0  0  0  0  0  0  0  0
   -1.4122    8.7960    0.1947 H   0  0  0  0  0  0  0  0  0  0  0  0
    0.2499    8.8898   -1.8908 H   0  0  0  0  0  0  0  0  0  0  0  0
   -1.1235   10.1315   -1.9752 H   0  0  0  0  0  0  0  0  0  0  0  0
    1.7902   10.5458   -2.6994 H   0  0  0  0  0  0  0  0  0  0  0  0
    0.3445   10.5656   -3.7835 H   0  0  0  0  0  0  0  0  0  0  0  0
   -1.4750   12.7143   -1.7067 H   0  0  0  0  0  0  0  0  0  0  0  0
   -1.0997   13.5522   -3.2506 H   0  0  0  0  0  0  0  0  0  0  0  0
   -1.4775   11.7961   -3.2506 H   0  0  0  0  0  0  0  0  0  0  0  0
  1  2  1  0
  2  3  1  0
  3  4  1  0
  4  5  1  0
  5  6  1  0
  6  7  1  0
  7  8  1  0
  7  9  1  0
  2 10  1  0
 10 11  1  0
 11 12  1  0
 12 13  1  0
 13 14  1  6
 13 15  1  0
 15 16  1  0
 16 17  1  0
 17 18  2  0
 18 19  1  0
 19 20  1  0
 20 21  1  0
 21 22  1  0
 22 23  1  0
 22 24  1  0
 24 25  1  0
 24 26  1  0
 19 27  1  0
 27 28  1  1
 27 29  1  0
 29 30  1  0
 30 31  1  0
 31 32  1  1
  7  5  1  0
 31 10  1  0
 31 13  1  0
 27 15  1  0
 24 18  1  0
  1 33  1  0
  1 34  1  0
  1 35  1  0
  2 36  1  1
  3 37  1  0
  3 38  1  0
  4 39  1  0
  4 40  1  0
  5 41  1  6
  8 42  1  0
  8 43  1  0
  8 44  1  0
  9 45  1  0
  9 46  1  0
  9 47  1  0
 10 48  1  6
 11 49  1  0
 11 50  1  0
 12 51  1  0
 12 52  1  0
 14 53  1  0
 14 54  1  0
 14 55  1  0
 15 56  1  6
 16 57  1  0
 16 58  1  0
 17 59  1  0
 19 60  1  6
 20 61  1  0
 20 62  1  0
 21 63  1  0
 21 64  1  0
 22 65  1  1
 23 66  1  0
 25 67  1  0
 25 68  1  0
 25 69  1  0
 26 70  1  0
 26 71  1  0
 26 72  1  0
 28 73  1  0
 28 74  1  0
 28 75  1  0
 29 76  1  0
 29 77  1  0
 30 78  1  0
 30 79  1  0
 32 80  1  0
 32 81  1  0
 32 82  1  0
M  END
>  <meeko>  (3) 
{"is_sidechain": [false], "intermolecular_energy": 2.731, "internal_energy": -0.839}

$$$$
EPH_relaxed_0001_pdb2pqr_Repair_415_r2_0001_out
     RDKit          3D

 82 86  0  0  0  0  0  0  0  0999 V2000
    0.4030   18.4780   -0.0120 C   0  0  0  0  0  0  0  0  0  0  0  0
    1.4840   17.4120   -0.2110 C   0  0  2  0  0  0  0  0  0  0  0  0
    2.7120   17.9640   -0.9610 C   0  0  0  0  0  0  0  0  0  0  0  0
    3.9510   18.1290   -0.0760 C   0  0  0  0  0  0  0  0  0  0  0  0
    3.5920   18.6200    1.2940 C   0  0  2  0  0  0  0  0  0  0  0  0
    3.8330   20.0170    1.5110 O   0  0  0  0  0  0  0  0  0  0  0  0
    4.6150   19.1080    2.3020 C   0  0  0  0  0  0  0  0  0  0  0  0
    6.0770   19.1270    1.9840 C   0  0  0  0  0  0  0  0  0  0  0  0
    4.2480   19.1040    3.7540 C   0  0  0  0  0  0  0  0  0  0  0  0
    0.9050   16.2200   -0.9650 C   0  0  1  0  0  0  0  0  0  0  0  0
    0.7270   16.5020   -2.4810 C   0  0  0  0  0  0  0  0  0  0  0  0
    1.0150   15.1700   -3.2200 C   0  0  0  0  0  0  0  0  0  0  0  0
    1.0220   14.0980   -2.1050 C   0  0  1  0  0  0  0  0  0  0  0  0
   -0.4840   13.7770   -1.8490 C   0  0  0  0  0  0  0  0  0  0  0  0
    1.8470   12.8030   -2.3960 C   0  0  2  0  0  0  0  0  0  0  0  0
    1.3540   11.9700   -3.5930 C   0  0  0  0  0  0  0  0  0  0  0  0
    0.3480   10.9180   -3.2650 C   0  0  0  0  0  0  0  0  0  0  0  0
    0.0690   10.4590   -2.0310 C   0  0  0  0  0  0  0  0  0  0  0  0
    0.8690   10.9380   -0.8130 C   0  0  1  0  0  0  0  0  0  0  0  0
    1.2700    9.7180    0.0570 C   0  0  0  0  0  0  0  0  0  0  0  0
    0.0710    8.8590    0.4470 C   0  0  0  0  0  0  0  0  0  0  0  0
   -0.6650    8.3540   -0.7910 C   0  0  2  0  0  0  0  0  0  0  0  0
    0.1860    7.4410   -1.4920 O   0  0  0  0  0  0  0  0  0  0  0  0
   -1.1090    9.4950   -1.7480 C   0  0  0  0  0  0  0  0  0  0  0  0
   -2.2550   10.3060   -1.0940 C   0  0  0  0  0  0  0  0  0  0  0  0
   -1.7120    8.8420   -3.0220 C   0  0  0  0  0  0  0  0  0  0  0  0
    2.0990   11.8950   -1.1250 C   0  0  1  0  0  0  0  0  0  0  0  0
    3.3710   11.0460   -1.4290 C   0  0  0  0  0  0  0  0  0  0  0  0
    2.4290   12.7440    0.1600 C   0  0  0  0  0  0  0  0  0  0  0  0
    1.6670   14.0710    0.3310 C   0  0  0  0  0  0  0  0  0  0  0  0
    1.7240   14.9050   -0.9530 C   0  0  2  0  0  0  0  0  0  0  0  0
    3.2250   15.2630   -1.2240 C   0  0  0  0  0  0  0  0  0  0  0  0
    0.2401   18.6386    1.0639 H   0  0  0  0  0  0  0  0  0  0  0  0
    0.7268   19.4201   -0.4785 H   0  0  0  0  0  0  0  0  0  0  0  0
   -0.5345   18.1411   -0.4785 H   0  0  0  0  0  0  0  0  0  0  0  0
    1.8224   17.0928    0.7858 H   0  0  0  0  0  0  0  0  0  0  0  0
    2.9594   17.2716   -1.7792 H   0  0  0  0  0  0  0  0  0  0  0  0
    2.4421   18.9659   -1.3262 H   0  0  0  0  0  0  0  0  0  0  0  0
    4.4563   17.1562    0.0150 H   0  0  0  0  0  0  0  0  0  0  0  0
    4.6110   18.8735   -0.5452 H   0  0  0  0  0  0  0  0  0  0  0  0
    2.7742   17.8881    1.3682 H   0  0  0  0  0  0  0  0  0  0  0  0
    6.6556   19.1345    2.9195 H   0  0  0  0  0  0  0  0  0  0  0  0
    6.3367   18.2322    1.3994 H   0  0  0  0  0  0  0  0  0  0  0  0
    6.3134   20.0283    1.3994 H   0  0  0  0  0  0  0  0  0  0  0  0
    5.1636   19.1140    4.3636 H   0  0  0  0  0  0  0  0  0  0  0  0
    3.6457   19.9956    3.9824 H   0  0  0  0  0  0  0  0  0  0  0  0
    3.6652   18.1995    3.9824 H   0  0  0  0  0  0  0  0  0  0  0  0
   -0.0320   16.0846   -0.4050 H   0  0  0  0  0  0  0  0  0  0  0  0
   -0.3012   16.8346   -2.6864 H   0  0  0  0  0  0  0  0  0  0  0  0
    1.4092   17.2964   -2.8180 H   0  0  0  0  0  0  0  0  0  0  0  0
    0.2275   14.9574   -3.9580 H   0  0  0  0  0  0  0  0  0  0  0  0
    1.9633   15.1987   -3.7767 H   0  0  0  0  0  0  0  0  0  0  0  0
   -0.6714   13.7371   -0.7658 H   0  0  0  0  0  0  0  0  0  0  0  0
   -1.1082   14.5623   -2.3004 H   0  0  0  0  0  0  0  0  0  0  0  0
   -0.7337   12.8055   -2.3004 H   0  0  0  0  0  0  0  0  0  0  0  0
    2.8241   13.2092   -2.6966 H   0  0  0  0  0  0  0  0  0  0  0  0
    0.9014   12.6577   -4.3225 H   0  0  0  0  0  0  0  0  0  0  0  0
    2.2365   11.4382   -3.9783 H   0  0  0  0  0  0  0  0  0  0  0  0
   -0.2136   10.4802   -4.1034 H   0  0  0  0  0  0  0  0  0  0  0  0
    0.1935   11.5947   -0.2451 H   0  0  0  0  0  0  0  0  0  0  0  0
    1.9787    9.0974   -0.5110 H   0  0  0  0  0  0  0  0  0  0  0  0
    1.7213   10.1023    0.9836 H   0  0  0  0  0  0  0  0  0  0  0  0
    0.4215    7.9971    1.0338 H   0  0  0  0  0  0  0  0  0  0  0  0
   -0.6220    9.4730    1.0409 H   0  0  0  0  0  0  0  0  0  0  0  0
   -1.5847    7.8571   -0.4487 H   0  0  0  0  0  0  0  0  0  0  0  0
    0.6680    7.9480   -2.1670 H   0  0  0  0  0  0  0  0  0  0  0  0
   -2.1688   10.2450    0.0009 H   0  0  0  0  0  0  0  0  0  0  0  0
   -2.1862   11.3576   -1.4092 H   0  0  0  0  0  0  0  0  0  0  0  0
   -3.2239    9.8914   -1.4092 H   0  0  0  0  0  0  0  0  0  0  0  0
   -2.4314    8.0630   -2.7293 H   0  0  0  0  0  0  0  0  0  0  0  0
   -2.2257    9.6096   -3.6194 H   0  0  0  0  0  0  0  0  0  0  0  0
   -0.9060    8.3910   -3.6194 H   0  0  0  0  0  0  0  0  0  0  0  0
    3.8383   10.7341   -0.4833 H   0  0  0  0  0  0  0  0  0  0  0  0
    3.0874   10.1554   -2.0091 H   0  0  0  0  0  0  0  0  0  0  0  0
    4.0846   11.6495   -2.0091 H   0  0  0  0  0  0  0  0  0  0  0  0
    2.2086   12.1185    1.0376 H   0  0  0  0  0  0  0  0  0  0  0  0
    3.4853   13.0311    0.0514 H   0  0  0  0  0  0  0  0  0  0  0  0
    0.6161   13.8540    0.5729 H   0  0  0  0  0  0  0  0  0  0  0  0
    2.1383   14.6442    1.1430 H   0  0  0  0  0  0  0  0  0  0  0  0
    3.7508   15.3884   -0.2660 H   0  0  0  0  0  0  0  0  0  0  0  0
    3.6974   14.4523   -1.7982 H   0  0  0  0  0  0  0  0  0  0  0  0
    3.2807   16.1996   -1.7982 H   0  0  0  0  0  0  0  0  0  0  0  0
  1  2  1  0
  2  3  1  0
  3  4  1  0
  4  5  1  0
  5  6  1  0
  6  7  1  0
  7  8  1  0
  7  9  1  0
  2 10  1  0
 10 11  1  0
 11 12  1  0
 12 13  1  0
 13 14  1  1
 13 15  1  0
 15 16  1  0
 16 17  1  0
 17 18  2  0
 18 19  1  0
 19 20  1  0
 20 21  1  0
 21 22  1  0
 22 23  1  0
 22 24  1  0
 24 25  1  0
 24 26  1  0
 19 27  1  0
 27 28  1  6
 27 29  1  0
 29 30  1  0
 30 31  1  0
 31 32  1  6
  7  5  1  0
 31 10  1  0
 31 13  1  0
 27 15  1  0
 24 18  1  0
  1 33  1  0
  1 34  1  0
  1 35  1  0
  2 36  1  1
  3 37  1  0
  3 38  1  0
  4 39  1  0
  4 40  1  0
  5 41  1  1
  8 42  1  0
  8 43  1  0
  8 44  1  0
  9 45  1  0
  9 46  1  0
  9 47  1  0
 10 48  1  1
 11 49  1  0
 11 50  1  0
 12 51  1  0
 12 52  1  0
 14 53  1  0
 14 54  1  0
 14 55  1  0
 15 56  1  6
 16 57  1  0
 16 58  1  0
 17 59  1  0
 19 60  1  1
 20 61  1  0
 20 62  1  0
 21 63  1  0
 21 64  1  0
 22 65  1  1
 23 66  1  0
 25 67  1  0
 25 68  1  0
 25 69  1  0
 26 70  1  0
 26 71  1  0
 26 72  1  0
 28 73  1  0
 28 74  1  0
 28 75  1  0
 29 76  1  0
 29 77  1  0
 30 78  1  0
 30 79  1  0
 32 80  1  0
 32 81  1  0
 32 82  1  0
M  END
>  <meeko>  (4) 
{"is_sidechain": [false], "intermolecular_energy": 2.731, "internal_energy": -0.839}

$$$$
EPH_relaxed_0001_pdb2pqr_Repair_415_r2_0001_out
     RDKit          3D

 82 86  0  0  0  0  0  0  0  0999 V2000
   -3.4360    9.3220    0.3930 C   0  0  0  0  0  0  0  0  0  0  0  0
   -2.5720    9.6800   -0.8190 C   0  0  2  0  0  0  0  0  0  0  0  0
   -1.8860    8.4420   -1.4300 C   0  0  0  0  0  0  0  0  0  0  0  0
   -2.7970    7.6250   -2.3500 C   0  0  0  0  0  0  0  0  0  0  0  0
   -4.2300    7.6970   -1.9180 C   0  0  2  0  0  0  0  0  0  0  0  0
   -4.7620    6.4710   -1.4010 O   0  0  0  0  0  0  0  0  0  0  0  0
   -5.3530    6.9550   -2.6180 C   0  0  0  0  0  0  0  0  0  0  0  0
   -5.0920    6.0880   -3.8090 C   0  0  0  0  0  0  0  0  0  0  0  0
   -6.7540    7.4540   -2.4500 C   0  0  0  0  0  0  0  0  0  0  0  0
   -1.5240   10.7140   -0.4220 C   0  0  1  0  0  0  0  0  0  0  0  0
   -0.4390   10.1320    0.5240 C   0  0  0  0  0  0  0  0  0  0  0  0
    0.8940   10.8340    0.1600 C   0  0  0  0  0  0  0  0  0  0  0  0
    0.4780   12.0200   -0.7420 C   0  0  1  0  0  0  0  0  0  0  0  0
    0.0170   13.1340    0.2490 C   0  0  0  0  0  0  0  0  0  0  0  0
    1.5630   12.5450   -1.7370 C   0  0  2  0  0  0  0  0  0  0  0  0
    2.8320   13.1150   -1.0780 C   0  0  0  0  0  0  0  0  0  0  0  0
    2.7950   14.5790   -0.7850 C   0  0  0  0  0  0  0  0  0  0  0  0
    1.9090   15.4560   -1.2920 C   0  0  0  0  0  0  0  0  0  0  0  0
    0.8740   15.0160   -2.3360 C   0  0  1  0  0  0  0  0  0  0  0  0
    0.8400   16.0450   -3.4960 C   0  0  0  0  0  0  0  0  0  0  0  0
    0.6050   17.4710   -3.0070 C   0  0  0  0  0  0  0  0  0  0  0  0
    1.6870   17.8920   -2.0150 C   0  0  2  0  0  0  0  0  0  0  0  0
    2.9380   17.9770   -2.7060 O   0  0  0  0  0  0  0  0  0  0  0  0
    1.8210   16.9240   -0.8070 C   0  0  0  0  0  0  0  0  0  0  0  0
    0.5800   17.0600    0.1090 C   0  0  0  0  0  0  0  0  0  0  0  0
    3.0380   17.3840    0.0400 C   0  0  0  0  0  0  0  0  0  0  0  0
    1.0030   13.5190   -2.8520 C   0  0  1  0  0  0  0  0  0  0  0  0
    2.0040   13.4520   -4.0450 C   0  0  0  0  0  0  0  0  0  0  0  0
   -0.3900   13.0470   -3.4130 C   0  0  0  0  0  0  0  0  0  0  0  0
   -1.3730   12.4260   -2.4020 C   0  0  0  0  0  0  0  0  0  0  0  0
   -0.6850   11.3480   -1.5590 C   0  0  2  0  0  0  0  0  0  0  0  0
   -0.2290   10.2030   -2.5270 C   0  0  0  0  0  0  0  0  0  0  0  0
   -2.8844    9.5506    1.3169 H   0  0  0  0  0  0  0  0  0  0  0  0
   -4.3660    9.9088    0.3665 H   0  0  0  0  0  0  0  0  0  0  0  0
   -3.6784    8.2494    0.3665 H   0  0  0  0  0  0  0  0  0  0  0  0
   -3.2375   10.1004   -1.5874 H   0  0  0  0  0  0  0  0  0  0  0  0
   -1.0162    8.7792   -2.0128 H   0  0  0  0  0  0  0  0  0  0  0  0
   -1.6021    7.7862   -0.5937 H   0  0  0  0  0  0  0  0  0  0  0  0
   -2.7134    8.0173   -3.3743 H   0  0  0  0  0  0  0  0  0  0  0  0
   -2.4773    6.5735   -2.3030 H   0  0  0  0  0  0  0  0  0  0  0  0
   -4.1127    8.7504   -1.6238 H   0  0  0  0  0  0  0  0  0  0  0  0
   -4.7900    5.0850   -3.4732 H   0  0  0  0  0  0  0  0  0  0  0  0
   -6.0070    6.0119   -4.4147 H   0  0  0  0  0  0  0  0  0  0  0  0
   -4.2870    6.5297   -4.4147 H   0  0  0  0  0  0  0  0  0  0  0  0
   -6.9876    7.5372   -1.3783 H   0  0  0  0  0  0  0  0  0  0  0  0
   -6.8507    8.4419   -2.9241 H   0  0  0  0  0  0  0  0  0  0  0  0
   -7.4534    6.7497   -2.9241 H   0  0  0  0  0  0  0  0  0  0  0  0
   -2.1769   11.4736    0.0327 H   0  0  0  0  0  0  0  0  0  0  0  0
   -0.7011   10.3368    1.5725 H   0  0  0  0  0  0  0  0  0  0  0  0
   -0.3562    9.0414    0.4067 H   0  0  0  0  0  0  0  0  0  0  0  0
    1.4025   11.1952    1.0661 H   0  0  0  0  0  0  0  0  0  0  0  0
    1.5987   10.1553   -0.3427 H   0  0  0  0  0  0  0  0  0  0  0  0
    0.1605   12.7872    1.2830 H   0  0  0  0  0  0  0  0  0  0  0  0
    0.6127   14.0434    0.0812 H   0  0  0  0  0  0  0  0  0  0  0  0
   -1.0471   13.3566    0.0812 H   0  0  0  0  0  0  0  0  0  0  0  0
    1.8800   11.6238   -2.2478 H   0  0  0  0  0  0  0  0  0  0  0  0
    2.9910   12.5821   -0.1289 H   0  0  0  0  0  0  0  0  0  0  0  0
    3.6444   12.9702   -1.8054 H   0  0  0  0  0  0  0  0  0  0  0  0
    3.5565   14.9739   -0.0964 H   0  0  0  0  0  0  0  0  0  0  0  0
   -0.0960   15.0056   -1.8173 H   0  0  0  0  0  0  0  0  0  0  0  0
    1.8023   16.0087   -4.0277 H   0  0  0  0  0  0  0  0  0  0  0  0
    0.0021   15.7762   -4.1560 H   0  0  0  0  0  0  0  0  0  0  0  0
    0.6208   18.1545   -3.8688 H   0  0  0  0  0  0  0  0  0  0  0  0
   -0.3710   17.5129   -2.5014 H   0  0  0  0  0  0  0  0  0  0  0  0
    1.3943   18.8687   -1.6021 H   0  0  0  0  0  0  0  0  0  0  0  0
    2.7500   17.9430   -3.6590 H   0  0  0  0  0  0  0  0  0  0  0  0
    0.8960   17.0254    1.1621 H   0  0  0  0  0  0  0  0  0  0  0  0
    0.0790   18.0184   -0.0922 H   0  0  0  0  0  0  0  0  0  0  0  0
   -0.1166   16.2328   -0.0922 H   0  0  0  0  0  0  0  0  0  0  0  0
    2.7962   17.2926    1.1092 H   0  0  0  0  0  0  0  0  0  0  0  0
    3.9076   16.7525   -0.1945 H   0  0  0  0  0  0  0  0  0  0  0  0
    3.2725   18.4328   -0.1945 H   0  0  0  0  0  0  0  0  0  0  0  0
    3.0314   13.3832   -3.6581 H   0  0  0  0  0  0  0  0  0  0  0  0
    1.7835   12.5666   -4.6594 H   0  0  0  0  0  0  0  0  0  0  0  0
    1.9035   14.3589   -4.6594 H   0  0  0  0  0  0  0  0  0  0  0  0
   -0.8824   13.9229   -3.8605 H   0  0  0  0  0  0  0  0  0  0  0  0
   -0.1557   12.2377   -4.1202 H   0  0  0  0  0  0  0  0  0  0  0  0
   -1.7516   13.2159   -1.7366 H   0  0  0  0  0  0  0  0  0  0  0  0
   -2.2006   11.9612   -2.9579 H   0  0  0  0  0  0  0  0  0  0  0  0
    0.1147    9.3400   -1.9379 H   0  0  0  0  0  0  0  0  0  0  0  0
   -1.0752    9.9004   -3.1613 H   0  0  0  0  0  0  0  0  0  0  0  0
    0.5936   10.5650   -3.1613 H   0  0  0  0  0  0  0  0  0  0  0  0
  1  2  1  0
  2  3  1  0
  3  4  1  0
  4  5  1  0
  5  6  1  0
  6  7  1  0
  7  8  1  0
  7  9  1  0
  2 10  1  0
 10 11  1  0
 11 12  1  0
 12 13  1  0
 13 14  1  1
 13 15  1  0
 15 16  1  0
 16 17  1  0
 17 18  2  0
 18 19  1  0
 19 20  1  0
 20 21  1  0
 21 22  1  0
 22 23  1  0
 22 24  1  0
 24 25  1  0
 24 26  1  0
 19 27  1  0
 27 28  1  6
 27 29  1  0
 29 30  1  0
 30 31  1  0
 31 32  1  6
  7  5  1  0
 31 10  1  0
 31 13  1  0
 27 15  1  0
 24 18  1  0
  1 33  1  0
  1 34  1  0
  1 35  1  0
  2 36  1  6
  3 37  1  0
  3 38  1  0
  4 39  1  0
  4 40  1  0
  5 41  1  1
  8 42  1  0
  8 43  1  0
  8 44  1  0
  9 45  1  0
  9 46  1  0
  9 47  1  0
 10 48  1  1
 11 49  1  0
 11 50  1  0
 12 51  1  0
 12 52  1  0
 14 53  1  0
 14 54  1  0
 14 55  1  0
 15 56  1  6
 16 57  1  0
 16 58  1  0
 17 59  1  0
 19 60  1  1
 20 61  1  0
 20 62  1  0
 21 63  1  0
 21 64  1  0
 22 65  1  1
 23 66  1  0
 25 67  1  0
 25 68  1  0
 25 69  1  0
 26 70  1  0
 26 71  1  0
 26 72  1  0
 28 73  1  0
 28 74  1  0
 28 75  1  0
 29 76  1  0
 29 77  1  0
 30 78  1  0
 30 79  1  0
 32 80  1  0
 32 81  1  0
 32 82  1  0
M  END
>  <meeko>  (5) 
{"is_sidechain": [false], "intermolecular_energy": 2.731, "internal_energy": -0.839}

$$$$
EPH_relaxed_0001_pdb2pqr_Repair_415_r2_0001_out
     RDKit          3D

 82 86  0  0  0  0  0  0  0  0999 V2000
    2.3620   18.0440   -2.6960 C   0  0  0  0  0  0  0  0  0  0  0  0
    1.0570   17.6690   -1.9890 C   0  0  2  0  0  0  0  0  0  0  0  0
    1.1910   17.7260   -0.4540 C   0  0  0  0  0  0  0  0  0  0  0  0
    0.8680   19.0990    0.1420 C   0  0  0  0  0  0  0  0  0  0  0  0
   -0.5740   19.2060    0.5370 C   0  0  2  0  0  0  0  0  0  0  0  0
   -1.4430   18.2650   -0.1070 O   0  0  0  0  0  0  0  0  0  0  0  0
   -1.6710   19.6500   -0.4130 C   0  0  0  0  0  0  0  0  0  0  0  0
   -1.3720   20.0170   -1.8330 C   0  0  0  0  0  0  0  0  0  0  0  0
   -2.9400   20.1940    0.1640 C   0  0  0  0  0  0  0  0  0  0  0  0
    0.6140   16.2760   -2.4210 C   0  0  1  0  0  0  0  0  0  0  0  0
    0.6930   16.0740   -3.9580 C   0  0  0  0  0  0  0  0  0  0  0  0
    1.1010   14.5980   -4.1950 C   0  0  0  0  0  0  0  0  0  0  0  0
    0.9210   13.9170   -2.8180 C   0  0  1  0  0  0  0  0  0  0  0  0
   -0.6070   13.6100   -2.7190 C   0  0  0  0  0  0  0  0  0  0  0  0
    1.7840   12.6390   -2.5600 C   0  0  2  0  0  0  0  0  0  0  0  0
    1.4990   11.4580   -3.5050 C   0  0  0  0  0  0  0  0  0  0  0  0
    0.4520   10.5040   -3.0340 C   0  0  0  0  0  0  0  0  0  0  0  0
   -0.0300   10.4270   -1.7800 C   0  0  0  0  0  0  0  0  0  0  0  0
    0.5540   11.2950   -0.6570 C   0  0  1  0  0  0  0  0  0  0  0  0
    0.8030   10.4190    0.5980 C   0  0  0  0  0  0  0  0  0  0  0  0
   -0.4450    9.6580    1.0380 C   0  0  0  0  0  0  0  0  0  0  0  0
   -0.9610    8.7630   -0.0860 C   0  0  2  0  0  0  0  0  0  0  0  0
   -0.0050    7.7260   -0.3260 O   0  0  0  0  0  0  0  0  0  0  0  0
   -1.2390    9.5350   -1.4060 C   0  0  0  0  0  0  0  0  0  0  0  0
   -2.4780   10.4460   -1.2260 C   0  0  0  0  0  0  0  0  0  0  0  0
   -1.6190    8.4960   -2.4950 C   0  0  0  0  0  0  0  0  0  0  0  0
    1.8190   12.1750   -1.0480 C   0  0  1  0  0  0  0  0  0  0  0  0
    3.1230   11.3400   -0.8680 C   0  0  0  0  0  0  0  0  0  0  0  0
    1.9280   13.3890   -0.0510 C   0  0  0  0  0  0  0  0  0  0  0  0
    1.1470   14.6640   -0.4220 C   0  0  0  0  0  0  0  0  0  0  0  0
    1.4190   15.0710   -1.8740 C   0  0  2  0  0  0  0  0  0  0  0  0
    2.9440   15.4070   -1.9990 C   0  0  0  0  0  0  0  0  0  0  0  0
    3.1349   18.2661   -1.9455 H   0  0  0  0  0  0  0  0  0  0  0  0
    2.6925   17.2045   -3.3253 H   0  0  0  0  0  0  0  0  0  0  0  0
    2.1964   18.9309   -3.3253 H   0  0  0  0  0  0  0  0  0  0  0  0
    0.2975   18.4088   -2.2820 H   0  0  0  0  0  0  0  0  0  0  0  0
    0.5024   16.9874   -0.0177 H   0  0  0  0  0  0  0  0  0  0  0  0
    2.2431   17.5116   -0.2152 H   0  0  0  0  0  0  0  0  0  0  0  0
    1.4943   19.2576    1.0323 H   0  0  0  0  0  0  0  0  0  0  0  0
    1.0715   19.8620   -0.6238 H   0  0  0  0  0  0  0  0  0  0  0  0
   -0.2965   19.5351    1.5493 H   0  0  0  0  0  0  0  0  0  0  0  0
   -0.6773   20.8697   -1.8529 H   0  0  0  0  0  0  0  0  0  0  0  0
   -0.9132   19.1582   -2.3448 H   0  0  0  0  0  0  0  0  0  0  0  0
   -2.3058   20.2928   -2.3448 H   0  0  0  0  0  0  0  0  0  0  0  0
   -2.8834   20.1697    1.2623 H   0  0  0  0  0  0  0  0  0  0  0  0
   -3.0808   21.2316   -0.1731 H   0  0  0  0  0  0  0  0  0  0  0  0
   -3.7886   19.5806   -0.1731 H   0  0  0  0  0  0  0  0  0  0  0  0
   -0.4035   16.2691   -2.0032 H   0  0  0  0  0  0  0  0  0  0  0  0
   -0.2862   16.2746   -4.4172 H   0  0  0  0  0  0  0  0  0  0  0  0
    1.4223   16.7626   -4.4097 H   0  0  0  0  0  0  0  0  0  0  0  0
    0.4486   14.1309   -4.9474 H   0  0  0  0  0  0  0  0  0  0  0  0
    2.1292   14.5055   -4.5747 H   0  0  0  0  0  0  0  0  0  0  0  0
   -0.9013   13.5509   -1.6608 H   0  0  0  0  0  0  0  0  0  0  0  0
   -1.1749   14.4120   -3.2133 H   0  0  0  0  0  0  0  0  0  0  0  0
   -0.8211   12.6509   -3.2133 H   0  0  0  0  0  0  0  0  0  0  0  0
    2.7980   12.9839   -2.8107 H   0  0  0  0  0  0  0  0  0  0  0  0
    1.1751   11.8676   -4.4731 H   0  0  0  0  0  0  0  0  0  0  0  0
    2.4337   10.8809   -3.5619 H   0  0  0  0  0  0  0  0  0  0  0  0
    0.0392    9.8041   -3.7754 H   0  0  0  0  0  0  0  0  0  0  0  0
   -0.2070   12.0575   -0.4346 H   0  0  0  0  0  0  0  0  0  0  0  0
    1.5965    9.6925    0.3690 H   0  0  0  0  0  0  0  0  0  0  0  0
    1.0926   11.0892    1.4207 H   0  0  0  0  0  0  0  0  0  0  0  0
   -0.1982    9.0349    1.9102 H   0  0  0  0  0  0  0  0  0  0  0  0
   -1.2283   10.3860    1.2957 H   0  0  0  0  0  0  0  0  0  0  0  0
   -1.9248    8.3458    0.2411 H   0  0  0  0  0  0  0  0  0  0  0  0
    0.4500    7.5450    0.5140 H   0  0  0  0  0  0  0  0  0  0  0  0
   -2.6743   10.5903   -0.1533 H   0  0  0  0  0  0  0  0  0  0  0  0
   -2.2879   11.4210   -1.6984 H   0  0  0  0  0  0  0  0  0  0  0  0
   -3.3520    9.9738   -1.6984 H   0  0  0  0  0  0  0  0  0  0  0  0
   -1.9586    7.5673   -2.0131 H   0  0  0  0  0  0  0  0  0  0  0  0
   -2.4273    8.9007   -3.1218 H   0  0  0  0  0  0  0  0  0  0  0  0
   -0.7403    8.2837   -3.1218 H   0  0  0  0  0  0  0  0  0  0  0  0
    3.3289   11.2082    0.2045 H   0  0  0  0  0  0  0  0  0  0  0  0
    2.9958   10.3549   -1.3407 H   0  0  0  0  0  0  0  0  0  0  0  0
    3.9645   11.8677   -1.3407 H   0  0  0  0  0  0  0  0  0  0  0  0
    1.5631   13.0485    0.9293 H   0  0  0  0  0  0  0  0  0  0  0  0
    2.9875   13.6841   -0.0711 H   0  0  0  0  0  0  0  0  0  0  0  0
    0.0705   14.4758   -0.2967 H   0  0  0  0  0  0  0  0  0  0  0  0
    1.4746   15.4805    0.2383 H   0  0  0  0  0  0  0  0  0  0  0  0
    3.3817   15.5034   -0.9945 H   0  0  0  0  0  0  0  0  0  0  0  0
    3.4538   14.5996   -2.5451 H   0  0  0  0  0  0  0  0  0  0  0  0
    3.0673   16.3538   -2.5451 H   0  0  0  0  0  0  0  0  0  0  0  0
  1  2  1  0
  2  3  1  0
  3  4  1  0
  4  5  1  0
  5  6  1  0
  6  7  1  0
  7  8  1  0
  7  9  1  0
  2 10  1  0
 10 11  1  0
 11 12  1  0
 12 13  1  0
 13 14  1  1
 13 15  1  0
 15 16  1  0
 16 17  1  0
 17 18  2  0
 18 19  1  0
 19 20  1  0
 20 21  1  0
 21 22  1  0
 22 23  1  0
 22 24  1  0
 24 25  1  0
 24 26  1  0
 19 27  1  0
 27 28  1  6
 27 29  1  0
 29 30  1  0
 30 31  1  0
 31 32  1  1
  7  5  1  0
 31 10  1  0
 31 13  1  0
 27 15  1  0
 24 18  1  0
  1 33  1  0
  1 34  1  0
  1 35  1  0
  2 36  1  6
  3 37  1  0
  3 38  1  0
  4 39  1  0
  4 40  1  0
  5 41  1  1
  8 42  1  0
  8 43  1  0
  8 44  1  0
  9 45  1  0
  9 46  1  0
  9 47  1  0
 10 48  1  1
 11 49  1  0
 11 50  1  0
 12 51  1  0
 12 52  1  0
 14 53  1  0
 14 54  1  0
 14 55  1  0
 15 56  1  6
 16 57  1  0
 16 58  1  0
 17 59  1  0
 19 60  1  1
 20 61  1  0
 20 62  1  0
 21 63  1  0
 21 64  1  0
 22 65  1  1
 23 66  1  0
 25 67  1  0
 25 68  1  0
 25 69  1  0
 26 70  1  0
 26 71  1  0
 26 72  1  0
 28 73  1  0
 28 74  1  0
 28 75  1  0
 29 76  1  0
 29 77  1  0
 30 78  1  0
 30 79  1  0
 32 80  1  0
 32 81  1  0
 32 82  1  0
M  END
>  <meeko>  (6) 
{"is_sidechain": [false], "intermolecular_energy": 2.731, "internal_energy": -0.839}

$$$$
EPH_relaxed_0001_pdb2pqr_Repair_415_r2_0001_out
     RDKit          3D

 82 86  0  0  0  0  0  0  0  0999 V2000
    1.9810   18.2160   -2.6550 C   0  0  0  0  0  0  0  0  0  0  0  0
    0.4670   17.9840   -2.6400 C   0  0  2  0  0  0  0  0  0  0  0  0
   -0.1700   18.3960   -1.2980 C   0  0  0  0  0  0  0  0  0  0  0  0
    0.6430   17.9670   -0.0730 C   0  0  0  0  0  0  0  0  0  0  0  0
    1.2230   19.1470    0.6470 C   0  0  2  0  0  0  0  0  0  0  0  0
    2.1320   19.9360   -0.1300 O   0  0  0  0  0  0  0  0  0  0  0  0
    2.6910   19.2660    1.0110 C   0  0  0  0  0  0  0  0  0  0  0  0
    3.6710   18.1890    0.6650 C   0  0  0  0  0  0  0  0  0  0  0  0
    3.0800   20.1910    2.1220 C   0  0  0  0  0  0  0  0  0  0  0  0
    0.1630   16.5200   -2.9340 C   0  0  1  0  0  0  0  0  0  0  0  0
    0.2570   16.1820   -4.4460 C   0  0  0  0  0  0  0  0  0  0  0  0
    0.8090   14.7370   -4.5480 C   0  0  0  0  0  0  0  0  0  0  0  0
    0.7010   14.1760   -3.1100 C   0  0  1  0  0  0  0  0  0  0  0  0
   -0.7890   13.7310   -2.9640 C   0  0  0  0  0  0  0  0  0  0  0  0
    1.6870   13.0190   -2.7440 C   0  0  2  0  0  0  0  0  0  0  0  0
    1.5180   11.7320   -3.5690 C   0  0  0  0  0  0  0  0  0  0  0  0
    0.5720   10.7280   -2.9980 C   0  0  0  0  0  0  0  0  0  0  0  0
    0.1030   10.7240   -1.7360 C   0  0  0  0  0  0  0  0  0  0  0  0
    0.6020   11.7470   -0.7080 C   0  0  1  0  0  0  0  0  0  0  0  0
    0.9400   11.0230    0.6220 C   0  0  0  0  0  0  0  0  0  0  0  0
   -0.2250   10.1890    1.1460 C   0  0  0  0  0  0  0  0  0  0  0  0
   -0.6540    9.1450    0.1190 C   0  0  2  0  0  0  0  0  0  0  0  0
    0.4000    8.1890   -0.0350 O   0  0  0  0  0  0  0  0  0  0  0  0
   -1.0100    9.7560   -1.2650 C   0  0  0  0  0  0  0  0  0  0  0  0
   -2.3330   10.5540   -1.1560 C   0  0  0  0  0  0  0  0  0  0  0  0
   -1.2880    8.5870   -2.2470 C   0  0  0  0  0  0  0  0  0  0  0  0
    1.7720   12.7060   -1.1950 C   0  0  1  0  0  0  0  0  0  0  0  0
    3.1540   12.0250   -0.9540 C   0  0  0  0  0  0  0  0  0  0  0  0
    1.7630   14.0140   -0.3190 C   0  0  0  0  0  0  0  0  0  0  0  0
    0.8590   15.1660   -0.7990 C   0  0  0  0  0  0  0  0  0  0  0  0
    1.0850   15.4580   -2.2850 C   0  0  2  0  0  0  0  0  0  0  0  0
    2.5690   15.9290   -2.4600 C   0  0  0  0  0  0  0  0  0  0  0  0
    2.3535   18.2731   -1.6215 H   0  0  0  0  0  0  0  0  0  0  0  0
    2.4744   17.3830   -3.1771 H   0  0  0  0  0  0  0  0  0  0  0  0
    2.2024   19.1585   -3.1771 H   0  0  0  0  0  0  0  0  0  0  0  0
    0.0267   18.6192   -3.4227 H   0  0  0  0  0  0  0  0  0  0  0  0
   -0.2694   19.4914   -1.2826 H   0  0  0  0  0  0  0  0  0  0  0  0
   -1.1421   17.8853   -1.2335 H   0  0  0  0  0  0  0  0  0  0  0  0
   -0.0141   17.4163    0.6162 H   0  0  0  0  0  0  0  0  0  0  0  0
    1.4731   17.3324   -0.4168 H   0  0  0  0  0  0  0  0  0  0  0  0
    0.3037   19.2665    1.2391 H   0  0  0  0  0  0  0  0  0  0  0  0
    4.0724   17.7478    1.5892 H   0  0  0  0  0  0  0  0  0  0  0  0
    3.1661   17.4093    0.0757 H   0  0  0  0  0  0  0  0  0  0  0  0
    4.4947   18.6183    0.0757 H   0  0  0  0  0  0  0  0  0  0  0  0
    2.8769   19.7081    3.0892 H   0  0  0  0  0  0  0  0  0  0  0  0
    4.1524   20.4241    2.0465 H   0  0  0  0  0  0  0  0  0  0  0  0
    2.4965   21.1204    2.0465 H   0  0  0  0  0  0  0  0  0  0  0  0
   -0.8480   16.4523   -2.5059 H   0  0  0  0  0  0  0  0  0  0  0  0
   -0.7387   16.2407   -4.9098 H   0  0  0  0  0  0  0  0  0  0  0  0
    0.9129   16.8931   -4.9696 H   0  0  0  0  0  0  0  0  0  0  0  0
    0.2040   14.1384   -5.2449 H   0  0  0  0  0  0  0  0  0  0  0  0
    1.8402   14.7102   -4.9301 H   0  0  0  0  0  0  0  0  0  0  0  0
   -1.0459   13.6543   -1.8972 H   0  0  0  0  0  0  0  0  0  0  0  0
   -1.4423   14.4732   -3.4460 H   0  0  0  0  0  0  0  0  0  0  0  0
   -0.9282   12.7521   -3.4460 H   0  0  0  0  0  0  0  0  0  0  0  0
    2.6608   13.4367   -3.0394 H   0  0  0  0  0  0  0  0  0  0  0  0
    1.1525   12.0139   -4.5675 H   0  0  0  0  0  0  0  0  0  0  0  0
    2.5052   11.2470   -3.5818 H   0  0  0  0  0  0  0  0  0  0  0  0
    0.2291    9.9233   -3.6650 H   0  0  0  0  0  0  0  0  0  0  0  0
   -0.2301   12.4488   -0.5498 H   0  0  0  0  0  0  0  0  0  0  0  0
    1.8010   10.3595    0.4535 H   0  0  0  0  0  0  0  0  0  0  0  0
    1.1642   11.7936    1.3743 H   0  0  0  0  0  0  0  0  0  0  0  0
    0.0845    9.6789    2.0701 H   0  0  0  0  0  0  0  0  0  0  0  0
   -1.0755   10.8584    1.3424 H   0  0  0  0  0  0  0  0  0  0  0  0
   -1.5708    8.6690    0.4970 H   0  0  0  0  0  0  0  0  0  0  0  0
    0.3840    7.8780   -0.9560 H   0  0  0  0  0  0  0  0  0  0  0  0
   -2.5837   10.7052   -0.0957 H   0  0  0  0  0  0  0  0  0  0  0  0
   -2.2136   11.5308   -1.6475 H   0  0  0  0  0  0  0  0  0  0  0  0
   -3.1413    9.9927   -1.6475 H   0  0  0  0  0  0  0  0  0  0  0  0
   -1.5055    7.6723   -1.6760 H   0  0  0  0  0  0  0  0  0  0  0  0
   -2.1515    8.8378   -2.8805 H   0  0  0  0  0  0  0  0  0  0  0  0
   -0.4040    8.4222   -2.8805 H   0  0  0  0  0  0  0  0  0  0  0  0
    3.3352   11.9357    0.1273 H   0  0  0  0  0  0  0  0  0  0  0  0
    3.1538   11.0238   -1.4096 H   0  0  0  0  0  0  0  0  0  0  0  0
    3.9478   12.6351   -1.4096 H   0  0  0  0  0  0  0  0  0  0  0  0
    1.4360   13.7342    0.6933 H   0  0  0  0  0  0  0  0  0  0  0  0
    2.7881   14.4082   -0.3801 H   0  0  0  0  0  0  0  0  0  0  0  0
   -0.1934   14.8863   -0.6433 H   0  0  0  0  0  0  0  0  0  0  0  0
    1.1068   16.0695   -0.2226 H   0  0  0  0  0  0  0  0  0  0  0  0
    3.0267   16.0743   -1.4704 H   0  0  0  0  0  0  0  0  0  0  0  0
    3.1328   15.1656   -3.0163 H   0  0  0  0  0  0  0  0  0  0  0  0
    2.5894   16.8778   -3.0163 H   0  0  0  0  0  0  0  0  0  0  0  0
  1  2  1  0
  2  3  1  0
  3  4  1  0
  4  5  1  0
  5  6  1  0
  6  7  1  0
  7  8  1  0
  7  9  1  0
  2 10  1  0
 10 11  1  0
 11 12  1  0
 12 13  1  0
 13 14  1  1
 13 15  1  0
 15 16  1  0
 16 17  1  0
 17 18  2  0
 18 19  1  0
 19 20  1  0
 20 21  1  0
 21 22  1  0
 22 23  1  0
 22 24  1  0
 24 25  1  0
 24 26  1  0
 19 27  1  0
 27 28  1  6
 27 29  1  0
 29 30  1  0
 30 31  1  0
 31 32  1  1
  7  5  1  0
 31 10  1  0
 31 13  1  0
 27 15  1  0
 24 18  1  0
  1 33  1  0
  1 34  1  0
  1 35  1  0
  2 36  1  6
  3 37  1  0
  3 38  1  0
  4 39  1  0
  4 40  1  0
  5 41  1  1
  8 42  1  0
  8 43  1  0
  8 44  1  0
  9 45  1  0
  9 46  1  0
  9 47  1  0
 10 48  1  1
 11 49  1  0
 11 50  1  0
 12 51  1  0
 12 52  1  0
 14 53  1  0
 14 54  1  0
 14 55  1  0
 15 56  1  6
 16 57  1  0
 16 58  1  0
 17 59  1  0
 19 60  1  1
 20 61  1  0
 20 62  1  0
 21 63  1  0
 21 64  1  0
 22 65  1  1
 23 66  1  0
 25 67  1  0
 25 68  1  0
 25 69  1  0
 26 70  1  0
 26 71  1  0
 26 72  1  0
 28 73  1  0
 28 74  1  0
 28 75  1  0
 29 76  1  0
 29 77  1  0
 30 78  1  0
 30 79  1  0
 32 80  1  0
 32 81  1  0
 32 82  1  0
M  END
>  <meeko>  (7) 
{"is_sidechain": [false], "intermolecular_energy": 2.731, "internal_energy": -0.839}

$$$$
EPH_relaxed_0001_pdb2pqr_Repair_415_r2_0001_out
     RDKit          3D

 82 86  0  0  0  0  0  0  0  0999 V2000
    3.7620   17.9240    0.7790 C   0  0  0  0  0  0  0  0  0  0  0  0
    2.7770   18.3210   -0.3240 C   0  0  2  0  0  0  0  0  0  0  0  0
    2.0510   19.6430   -0.0050 C   0  0  0  0  0  0  0  0  0  0  0  0
    0.9040   19.4900    0.9990 C   0  0  0  0  0  0  0  0  0  0  0  0
   -0.3630   20.1080    0.4910 C   0  0  2  0  0  0  0  0  0  0  0  0
   -1.4170   20.1940    1.4590 O   0  0  0  0  0  0  0  0  0  0  0  0
   -1.6620   19.3400    0.3300 C   0  0  0  0  0  0  0  0  0  0  0  0
   -1.7580   17.8870    0.6760 C   0  0  0  0  0  0  0  0  0  0  0  0
   -2.6950   19.8720   -0.6140 C   0  0  0  0  0  0  0  0  0  0  0  0
    1.7590   17.2070   -0.5370 C   0  0  1  0  0  0  0  0  0  0  0  0
    0.5590   17.6530   -1.4150 C   0  0  0  0  0  0  0  0  0  0  0  0
    0.1410   16.4230   -2.2600 C   0  0  0  0  0  0  0  0  0  0  0  0
    0.8840   15.2320   -1.6100 C   0  0  1  0  0  0  0  0  0  0  0  0
    0.0110   14.8400   -0.3760 C   0  0  0  0  0  0  0  0  0  0  0  0
    1.1610   14.0030   -2.5350 C   0  0  2  0  0  0  0  0  0  0  0  0
   -0.0940   13.2970   -3.0770 C   0  0  0  0  0  0  0  0  0  0  0  0
   -0.6170   12.1850   -2.2290 C   0  0  0  0  0  0  0  0  0  0  0  0
    0.0540   11.5810   -1.2300 C   0  0  0  0  0  0  0  0  0  0  0  0
    1.5140   11.9420   -0.9310 C   0  0  1  0  0  0  0  0  0  0  0  0
    2.3420   10.6430   -0.7490 C   0  0  0  0  0  0  0  0  0  0  0  0
    1.7440    9.7120    0.3010 C   0  0  0  0  0  0  0  0  0  0  0  0
    0.3120    9.3290   -0.0610 C   0  0  2  0  0  0  0  0  0  0  0  0
    0.3350    8.5270   -1.2460 O   0  0  0  0  0  0  0  0  0  0  0  0
   -0.6140   10.5580   -0.2790 C   0  0  0  0  0  0  0  0  0  0  0  0
   -0.8810   11.2560    1.0770 C   0  0  0  0  0  0  0  0  0  0  0  0
   -1.9900   10.0370   -0.7770 C   0  0  0  0  0  0  0  0  0  0  0  0
    2.1960   12.9640   -1.9400 C   0  0  1  0  0  0  0  0  0  0  0  0
    2.7990   12.1920   -3.1530 C   0  0  0  0  0  0  0  0  0  0  0  0
    3.4040   13.6700   -1.2180 C   0  0  0  0  0  0  0  0  0  0  0  0
    3.0850   14.9470   -0.4180 C   0  0  0  0  0  0  0  0  0  0  0  0
    2.2500   15.9230   -1.2530 C   0  0  2  0  0  0  0  0  0  0  0  0
    3.1110   16.3530   -2.4890 C   0  0  0  0  0  0  0  0  0  0  0  0
    3.3050   18.1082    1.7624 H   0  0  0  0  0  0  0  0  0  0  0  0
    4.0086   16.8563    0.6835 H   0  0  0  0  0  0  0  0  0  0  0  0
    4.6801   18.5223    0.6835 H   0  0  0  0  0  0  0  0  0  0  0  0
    3.3570   18.4763   -1.2457 H   0  0  0  0  0  0  0  0  0  0  0  0
    2.7841   20.3501    0.4106 H   0  0  0  0  0  0  0  0  0  0  0  0
    1.6083   20.0014   -0.9461 H   0  0  0  0  0  0  0  0  0  0  0  0
    0.7302   18.4192    1.1814 H   0  0  0  0  0  0  0  0  0  0  0  0
    1.1895   20.0066    1.9273 H   0  0  0  0  0  0  0  0  0  0  0  0
    0.2006   20.7569   -0.1955 H   0  0  0  0  0  0  0  0  0  0  0  0
   -1.7657   17.7703    1.7698 H   0  0  0  0  0  0  0  0  0  0  0  0
   -2.6856   17.4706    0.2563 H   0  0  0  0  0  0  0  0  0  0  0  0
   -0.8932   17.3522    0.2563 H   0  0  0  0  0  0  0  0  0  0  0  0
   -3.5294   20.3017   -0.0403 H   0  0  0  0  0  0  0  0  0  0  0  0
   -2.2461   20.6511   -1.2477 H   0  0  0  0  0  0  0  0  0  0  0  0
   -3.0685   19.0541   -1.2477 H   0  0  0  0  0  0  0  0  0  0  0  0
    1.5092   16.9830    0.5106 H   0  0  0  0  0  0  0  0  0  0  0  0
   -0.2771   17.9764   -0.7775 H   0  0  0  0  0  0  0  0  0  0  0  0
    0.8353   18.4998   -2.0604 H   0  0  0  0  0  0  0  0  0  0  0  0
   -0.9478   16.2728   -2.2148 H   0  0  0  0  0  0  0  0  0  0  0  0
    0.3944   16.5422   -3.3238 H   0  0  0  0  0  0  0  0  0  0  0  0
    0.5536   15.0837    0.5493 H   0  0  0  0  0  0  0  0  0  0  0  0
   -0.9357   15.3994   -0.4040 H   0  0  0  0  0  0  0  0  0  0  0  0
   -0.1999   13.7608   -0.4040 H   0  0  0  0  0  0  0  0  0  0  0  0
    1.6415   14.4695   -3.4076 H   0  0  0  0  0  0  0  0  0  0  0  0
   -0.8898   14.0495   -3.1793 H   0  0  0  0  0  0  0  0  0  0  0  0
    0.2036   12.8377   -4.0312 H   0  0  0  0  0  0  0  0  0  0  0  0
   -1.6366   11.8291   -2.4380 H   0  0  0  0  0  0  0  0  0  0  0  0
    1.5000   12.5105    0.0106 H   0  0  0  0  0  0  0  0  0  0  0  0
    2.3804   10.1113   -1.7112 H   0  0  0  0  0  0  0  0  0  0  0  0
    3.3466   10.9320   -0.4065 H   0  0  0  0  0  0  0  0  0  0  0  0
    2.3557    8.7999    0.3634 H   0  0  0  0  0  0  0  0  0  0  0  0
    1.7333   10.2352    1.2685 H   0  0  0  0  0  0  0  0  0  0  0  0
   -0.1051    8.7693    0.7891 H   0  0  0  0  0  0  0  0  0  0  0  0
    1.2220    8.6040   -1.6360 H   0  0  0  0  0  0  0  0  0  0  0  0
   -0.6197   10.5730    1.8987 H   0  0  0  0  0  0  0  0  0  0  0  0
   -0.2676   12.1664    1.1478 H   0  0  0  0  0  0  0  0  0  0  0  0
   -1.9454   11.5246    1.1478 H   0  0  0  0  0  0  0  0  0  0  0  0
   -2.6258    9.7963    0.0878 H   0  0  0  0  0  0  0  0  0  0  0  0
   -2.4774   10.8128   -1.3857 H   0  0  0  0  0  0  0  0  0  0  0  0
   -1.8413    9.1329   -1.3857 H   0  0  0  0  0  0  0  0  0  0  0  0
    3.4375   11.3746   -2.7867 H   0  0  0  0  0  0  0  0  0  0  0  0
    1.9847   11.7755   -3.7641 H   0  0  0  0  0  0  0  0  0  0  0  0
    3.4003   12.8812   -3.7641 H   0  0  0  0  0  0  0  0  0  0  0  0
    3.8463   12.9427   -0.5213 H   0  0  0  0  0  0  0  0  0  0  0  0
    4.0720   13.9974   -2.0283 H   0  0  0  0  0  0  0  0  0  0  0  0
    2.5215   14.6737    0.4863 H   0  0  0  0  0  0  0  0  0  0  0  0
    4.0319   15.4375   -0.1481 H   0  0  0  0  0  0  0  0  0  0  0  0
    4.0446   16.8193   -2.1412 H   0  0  0  0  0  0  0  0  0  0  0  0
    3.3478   15.4673   -3.0969 H   0  0  0  0  0  0  0  0  0  0  0  0
    2.5452   17.0744   -3.0969 H   0  0  0  0  0  0  0  0  0  0  0  0
  1  2  1  0
  2  3  1  0
  3  4  1  0
  4  5  1  0
  5  6  1  0
  6  7  1  0
  7  8  1  0
  7  9  1  0
  2 10  1  0
 10 11  1  0
 11 12  1  0
 12 13  1  0
 13 14  1  1
 13 15  1  0
 15 16  1  0
 16 17  1  0
 17 18  2  0
 18 19  1  0
 19 20  1  0
 20 21  1  0
 21 22  1  0
 22 23  1  0
 22 24  1  0
 24 25  1  0
 24 26  1  0
 19 27  1  0
 27 28  1  6
 27 29  1  0
 29 30  1  0
 30 31  1  0
 31 32  1  6
  7  5  1  0
 31 10  1  0
 31 13  1  0
 27 15  1  0
 24 18  1  0
  1 33  1  0
  1 34  1  0
  1 35  1  0
  2 36  1  6
  3 37  1  0
  3 38  1  0
  4 39  1  0
  4 40  1  0
  5 41  1  6
  8 42  1  0
  8 43  1  0
  8 44  1  0
  9 45  1  0
  9 46  1  0
  9 47  1  0
 10 48  1  1
 11 49  1  0
 11 50  1  0
 12 51  1  0
 12 52  1  0
 14 53  1  0
 14 54  1  0
 14 55  1  0
 15 56  1  6
 16 57  1  0
 16 58  1  0
 17 59  1  0
 19 60  1  1
 20 61  1  0
 20 62  1  0
 21 63  1  0
 21 64  1  0
 22 65  1  1
 23 66  1  0
 25 67  1  0
 25 68  1  0
 25 69  1  0
 26 70  1  0
 26 71  1  0
 26 72  1  0
 28 73  1  0
 28 74  1  0
 28 75  1  0
 29 76  1  0
 29 77  1  0
 30 78  1  0
 30 79  1  0
 32 80  1  0
 32 81  1  0
 32 82  1  0
M  END
>  <meeko>  (8) 
{"is_sidechain": [false], "intermolecular_energy": 2.731, "internal_energy": -0.839}

$$$$
EPH_relaxed_0001_pdb2pqr_Repair_415_r2_0001_out
     RDKit          3D

 82 86  0  0  0  0  0  0  0  0999 V2000
    2.7730   12.4270   -5.4020 C   0  0  0  0  0  0  0  0  0  0  0  0
    1.3230   12.8920   -5.2440 C   0  0  2  0  0  0  0  0  0  0  0  0
    1.0820   14.2720   -5.8900 C   0  0  0  0  0  0  0  0  0  0  0  0
    1.7270   14.4270   -7.2700 C   0  0  0  0  0  0  0  0  0  0  0  0
    1.3880   15.7460   -7.8950 C   0  0  2  0  0  0  0  0  0  0  0  0
    0.4200   15.6770   -8.9500 O   0  0  0  0  0  0  0  0  0  0  0  0
    1.7380   16.1080   -9.3260 C   0  0  0  0  0  0  0  0  0  0  0  0
    2.4600   15.1480  -10.2200 C   0  0  0  0  0  0  0  0  0  0  0  0
    1.8150   17.5550   -9.7000 C   0  0  0  0  0  0  0  0  0  0  0  0
    0.9490   12.9360   -3.7670 C   0  0  1  0  0  0  0  0  0  0  0  0
   -0.4730   13.5100   -3.5280 C   0  0  0  0  0  0  0  0  0  0  0  0
   -1.0660   12.7450   -2.3160 C   0  0  0  0  0  0  0  0  0  0  0  0
    0.1410   12.0020   -1.6960 C   0  0  1  0  0  0  0  0  0  0  0  0
    0.8680   13.0740   -0.8250 C   0  0  0  0  0  0  0  0  0  0  0  0
   -0.1900   10.7150   -0.8710 C   0  0  2  0  0  0  0  0  0  0  0  0
   -1.0580   10.9460    0.3770 C   0  0  0  0  0  0  0  0  0  0  0  0
   -0.3050   11.2200    1.6370 C   0  0  0  0  0  0  0  0  0  0  0  0
    1.0100   10.9990    1.8250 C   0  0  0  0  0  0  0  0  0  0  0  0
    1.8600   10.3290    0.7380 C   0  0  1  0  0  0  0  0  0  0  0  0
    2.7400    9.2240    1.3780 C   0  0  0  0  0  0  0  0  0  0  0  0
    3.5820    9.7450    2.5380 C   0  0  0  0  0  0  0  0  0  0  0  0
    2.6980   10.3510    3.6250 C   0  0  2  0  0  0  0  0  0  0  0  0
    1.9180    9.3090    4.2190 O   0  0  0  0  0  0  0  0  0  0  0  0
    1.7590   11.4710    3.0960 C   0  0  0  0  0  0  0  0  0  0  0  0
    2.5950   12.7220    2.7310 C   0  0  0  0  0  0  0  0  0  0  0  0
    0.8230   11.8980    4.2590 C   0  0  0  0  0  0  0  0  0  0  0  0
    1.0690    9.8160   -0.5410 C   0  0  1  0  0  0  0  0  0  0  0  0
    0.5330    8.3730   -0.2920 C   0  0  0  0  0  0  0  0  0  0  0  0
    2.0670    9.7140   -1.7550 C   0  0  0  0  0  0  0  0  0  0  0  0
    2.2600   10.9860   -2.6040 C   0  0  0  0  0  0  0  0  0  0  0  0
    0.9100   11.5890   -3.0030 C   0  0  2  0  0  0  0  0  0  0  0  0
    0.1650   10.5410   -3.8990 C   0  0  0  0  0  0  0  0  0  0  0  0
    3.2222   12.2829   -4.4083 H   0  0  0  0  0  0  0  0  0  0  0  0
    2.7951   11.4767   -5.9556 H   0  0  0  0  0  0  0  0  0  0  0  0
    3.3436   13.1872   -5.9556 H   0  0  0  0  0  0  0  0  0  0  0  0
    0.6838   12.1660   -5.7678 H   0  0  0  0  0  0  0  0  0  0  0  0
   -0.0027   14.4216   -5.9949 H   0  0  0  0  0  0  0  0  0  0  0  0
    1.5473   15.0206   -5.2319 H   0  0  0  0  0  0  0  0  0  0  0  0
    2.8193   14.3533   -7.1633 H   0  0  0  0  0  0  0  0  0  0  0  0
    1.3399   13.6294   -7.9211 H   0  0  0  0  0  0  0  0  0  0  0  0
    1.5531   16.2675   -6.9407 H   0  0  0  0  0  0  0  0  0  0  0  0
    3.0090   14.4181   -9.6070 H   0  0  0  0  0  0  0  0  0  0  0  0
    1.7329   14.6205  -10.8549 H   0  0  0  0  0  0  0  0  0  0  0  0
    3.1685   15.7002  -10.8549 H   0  0  0  0  0  0  0  0  0  0  0  0
    1.8476   18.1683   -8.7874 H   0  0  0  0  0  0  0  0  0  0  0  0
    2.7239   17.7324  -10.2937 H   0  0  0  0  0  0  0  0  0  0  0  0
    0.9301   17.8279  -10.2937 H   0  0  0  0  0  0  0  0  0  0  0  0
    1.7711   13.5603   -3.3869 H   0  0  0  0  0  0  0  0  0  0  0  0
   -0.4149   14.5857   -3.3055 H   0  0  0  0  0  0  0  0  0  0  0  0
   -1.1041   13.3865   -4.4204 H   0  0  0  0  0  0  0  0  0  0  0  0
   -1.5047   13.4463   -1.5909 H   0  0  0  0  0  0  0  0  0  0  0  0
   -1.8729   12.0578   -2.6103 H   0  0  0  0  0  0  0  0  0  0  0  0
    0.7140   12.8469    0.2402 H   0  0  0  0  0  0  0  0  0  0  0  0
    1.9445   13.0612   -1.0507 H   0  0  0  0  0  0  0  0  0  0  0  0
    0.4579   14.0694   -1.0507 H   0  0  0  0  0  0  0  0  0  0  0  0
   -0.8176   10.1417   -1.5691 H   0  0  0  0  0  0  0  0  0  0  0  0
   -1.7145   11.8063    0.1797 H   0  0  0  0  0  0  0  0  0  0  0  0
   -1.6025   10.0054    0.5468 H   0  0  0  0  0  0  0  0  0  0  0  0
   -0.8719   11.6373    2.4823 H   0  0  0  0  0  0  0  0  0  0  0  0
    2.5001   11.1199    0.3200 H   0  0  0  0  0  0  0  0  0  0  0  0
    2.0846    8.4228    1.7501 H   0  0  0  0  0  0  0  0  0  0  0  0
    3.4296    8.8565    0.6038 H   0  0  0  0  0  0  0  0  0  0  0  0
    4.1593    8.9123    2.9662 H   0  0  0  0  0  0  0  0  0  0  0  0
    4.2571   10.5262    2.1586 H   0  0  0  0  0  0  0  0  0  0  0  0
    3.3610   10.8216    4.3659 H   0  0  0  0  0  0  0  0  0  0  0  0
    1.1800    9.7280    4.6930 H   0  0  0  0  0  0  0  0  0  0  0  0
    2.9288   13.2215    3.6524 H   0  0  0  0  0  0  0  0  0  0  0  0
    3.4718   12.4176    2.1406 H   0  0  0  0  0  0  0  0  0  0  0  0
    1.9783   13.4157    2.1406 H   0  0  0  0  0  0  0  0  0  0  0  0
    1.3087   11.6764    5.2208 H   0  0  0  0  0  0  0  0  0  0  0  0
    0.6214   12.9772    4.1901 H   0  0  0  0  0  0  0  0  0  0  0  0
   -0.1242   11.3429    4.1901 H   0  0  0  0  0  0  0  0  0  0  0  0
    0.4646    8.1889    0.7903 H   0  0  0  0  0  0  0  0  0  0  0  0
   -0.4638    8.2688   -0.7453 H   0  0  0  0  0  0  0  0  0  0  0  0
    1.2201    7.6433   -0.7453 H   0  0  0  0  0  0  0  0  0  0  0  0
    3.0509    9.4289   -1.3541 H   0  0  0  0  0  0  0  0  0  0  0  0
    1.6166    8.9779   -2.4371 H   0  0  0  0  0  0  0  0  0  0  0  0
    2.8261   11.7262   -2.0195 H   0  0  0  0  0  0  0  0  0  0  0  0
    2.8081   10.7170   -3.5190 H   0  0  0  0  0  0  0  0  0  0  0  0
   -0.3528    9.8126   -3.2577 H   0  0  0  0  0  0  0  0  0  0  0  0
   -0.5696   11.0578   -4.5341 H   0  0  0  0  0  0  0  0  0  0  0  0
    0.8945   10.0171   -4.5341 H   0  0  0  0  0  0  0  0  0  0  0  0
  1  2  1  0
  2  3  1  0
  3  4  1  0
  4  5  1  0
  5  6  1  0
  6  7  1  0
  7  8  1  0
  7  9  1  0
  2 10  1  0
 10 11  1  0
 11 12  1  0
 12 13  1  0
 13 14  1  1
 13 15  1  0
 15 16  1  0
 16 17  1  0
 17 18  2  0
 18 19  1  0
 19 20  1  0
 20 21  1  0
 21 22  1  0
 22 23  1  0
 22 24  1  0
 24 25  1  0
 24 26  1  0
 19 27  1  0
 27 28  1  1
 27 29  1  0
 29 30  1  0
 30 31  1  0
 31 32  1  6
  7  5  1  0
 31 10  1  0
 31 13  1  0
 27 15  1  0
 24 18  1  0
  1 33  1  0
  1 34  1  0
  1 35  1  0
  2 36  1  6
  3 37  1  0
  3 38  1  0
  4 39  1  0
  4 40  1  0
  5 41  1  1
  8 42  1  0
  8 43  1  0
  8 44  1  0
  9 45  1  0
  9 46  1  0
  9 47  1  0
 10 48  1  1
 11 49  1  0
 11 50  1  0
 12 51  1  0
 12 52  1  0
 14 53  1  0
 14 54  1  0
 14 55  1  0
 15 56  1  6
 16 57  1  0
 16 58  1  0
 17 59  1  0
 19 60  1  6
 20 61  1  0
 20 62  1  0
 21 63  1  0
 21 64  1  0
 22 65  1  1
 23 66  1  0
 25 67  1  0
 25 68  1  0
 25 69  1  0
 26 70  1  0
 26 71  1  0
 26 72  1  0
 28 73  1  0
 28 74  1  0
 28 75  1  0
 29 76  1  0
 29 77  1  0
 30 78  1  0
 30 79  1  0
 32 80  1  0
 32 81  1  0
 32 82  1  0
M  END
>  <meeko>  (9) 
{"is_sidechain": [false], "intermolecular_energy": 2.731, "internal_energy": -0.839}

$$$$
EPH_relaxed_0001_pdb2pqr_Repair_415_r2_0001_out
     RDKit          3D

 82 86  0  0  0  0  0  0  0  0999 V2000
   -2.2310   10.2610   -0.8140 C   0  0  0  0  0  0  0  0  0  0  0  0
   -0.7010   10.2810   -0.8530 C   0  0  2  0  0  0  0  0  0  0  0  0
   -0.0840    9.1180   -0.0490 C   0  0  0  0  0  0  0  0  0  0  0  0
    1.4430    9.1770    0.0450 C   0  0  0  0  0  0  0  0  0  0  0  0
    1.9700    8.2490    1.0970 C   0  0  2  0  0  0  0  0  0  0  0  0
    2.2330    8.8670    2.3630 O   0  0  0  0  0  0  0  0  0  0  0  0
    3.3730    8.3400    1.6660 C   0  0  0  0  0  0  0  0  0  0  0  0
    4.3380    9.3850    1.2010 C   0  0  0  0  0  0  0  0  0  0  0  0
    3.9650    7.1250    2.3100 C   0  0  0  0  0  0  0  0  0  0  0  0
   -0.1850   11.6130   -0.3230 C   0  0  1  0  0  0  0  0  0  0  0  0
    0.9740   11.4420    0.6960 C   0  0  0  0  0  0  0  0  0  0  0  0
    1.9370   12.6380    0.4830 C   0  0  0  0  0  0  0  0  0  0  0  0
    1.1430   13.6240   -0.4060 C   0  0  1  0  0  0  0  0  0  0  0  0
    0.2070   14.3900    0.5810 C   0  0  0  0  0  0  0  0  0  0  0  0
    1.9920   14.6070   -1.2760 C   0  0  2  0  0  0  0  0  0  0  0  0
    2.8770   15.5840   -0.4820 C   0  0  0  0  0  0  0  0  0  0  0  0
    2.2370   16.8880   -0.1370 C   0  0  0  0  0  0  0  0  0  0  0  0
    1.1110   17.3770   -0.6890 C   0  0  0  0  0  0  0  0  0  0  0  0
    0.4130   16.6400   -1.8390 C   0  0  1  0  0  0  0  0  0  0  0  0
    0.0490   17.6520   -2.9570 C   0  0  0  0  0  0  0  0  0  0  0  0
   -0.7710   18.8290   -2.4370 C   0  0  0  0  0  0  0  0  0  0  0  0
   -0.0190   19.5710   -1.3340 C   0  0  2  0  0  0  0  0  0  0  0  0
    1.1370   20.1930   -1.9030 O   0  0  0  0  0  0  0  0  0  0  0  0
    0.4090   18.6500   -0.1570 C   0  0  0  0  0  0  0  0  0  0  0  0
   -0.8430   18.2170    0.6460 C   0  0  0  0  0  0  0  0  0  0  0  0
    1.2780   19.4920    0.8150 C   0  0  0  0  0  0  0  0  0  0  0  0
    1.1670   15.3570   -2.3990 C   0  0  1  0  0  0  0  0  0  0  0  0
    2.1900   15.7780   -3.4980 C   0  0  0  0  0  0  0  0  0  0  0  0
    0.1220   14.4140   -3.1040 C   0  0  0  0  0  0  0  0  0  0  0  0
   -0.5970   13.3840   -2.2120 C   0  0  0  0  0  0  0  0  0  0  0  0
    0.4060   12.6080   -1.3530 C   0  0  2  0  0  0  0  0  0  0  0  0
    1.3470   11.8100   -2.3180 C   0  0  0  0  0  0  0  0  0  0  0  0
   -2.5711   10.2566    0.2321 H   0  0  0  0  0  0  0  0  0  0  0  0
   -2.6225   11.1541   -1.3230 H   0  0  0  0  0  0  0  0  0  0  0  0
   -2.5990    9.3580   -1.3230 H   0  0  0  0  0  0  0  0  0  0  0  0
   -0.3950   10.1552   -1.9021 H   0  0  0  0  0  0  0  0  0  0  0  0
   -0.4960    9.1436    0.9706 H   0  0  0  0  0  0  0  0  0  0  0  0
   -0.3378    8.1892   -0.5809 H   0  0  0  0  0  0  0  0  0  0  0  0
    1.8712    8.8932   -0.9277 H   0  0  0  0  0  0  0  0  0  0  0  0
    1.7303   10.2031    0.3179 H   0  0  0  0  0  0  0  0  0  0  0  0
    1.3976    7.4092    0.6761 H   0  0  0  0  0  0  0  0  0  0  0  0
    4.7931    9.8778    2.0728 H   0  0  0  0  0  0  0  0  0  0  0  0
    5.1250    8.9133    0.5942 H   0  0  0  0  0  0  0  0  0  0  0  0
    3.8053   10.1320    0.5942 H   0  0  0  0  0  0  0  0  0  0  0  0
    3.9146    7.2285    3.4040 H   0  0  0  0  0  0  0  0  0  0  0  0
    3.4003    6.2335    1.9996 H   0  0  0  0  0  0  0  0  0  0  0  0
    5.0151    7.0203    1.9996 H   0  0  0  0  0  0  0  0  0  0  0  0
   -1.1174   12.0172    0.0981 H   0  0  0  0  0  0  0  0  0  0  0  0
    0.5799   11.4512    1.7229 H   0  0  0  0  0  0  0  0  0  0  0  0
    1.4941   10.4845    0.5455 H   0  0  0  0  0  0  0  0  0  0  0  0
    2.1958   13.1044    1.4450 H   0  0  0  0  0  0  0  0  0  0  0  0
    2.8871   12.3317    0.0210 H   0  0  0  0  0  0  0  0  0  0  0  0
    0.4946   14.1546    1.6163 H   0  0  0  0  0  0  0  0  0  0  0  0
    0.3023   15.4726    0.4111 H   0  0  0  0  0  0  0  0  0  0  0  0
   -0.8354   14.0825    0.4111 H   0  0  0  0  0  0  0  0  0  0  0  0
    2.6860   13.9262   -1.7906 H   0  0  0  0  0  0  0  0  0  0  0  0
    3.1707   15.0907    0.4563 H   0  0  0  0  0  0  0  0  0  0  0  0
    3.7267   15.8260   -1.1373 H   0  0  0  0  0  0  0  0  0  0  0  0
    2.7272   17.5011    0.6336 H   0  0  0  0  0  0  0  0  0  0  0  0
   -0.5047   16.2094   -1.4120 H   0  0  0  0  0  0  0  0  0  0  0  0
    0.9791   18.0384   -3.3993 H   0  0  0  0  0  0  0  0  0  0  0  0
   -0.5634   17.1214   -3.7010 H   0  0  0  0  0  0  0  0  0  0  0  0
   -0.9711   19.5232   -3.2665 H   0  0  0  0  0  0  0  0  0  0  0  0
   -1.7145   18.4445   -2.0223 H   0  0  0  0  0  0  0  0  0  0  0  0
   -0.7061   20.3193   -0.9122 H   0  0  0  0  0  0  0  0  0  0  0  0
    0.9000   21.1110   -2.1210 H   0  0  0  0  0  0  0  0  0  0  0  0
   -0.6313   18.2902    1.7229 H   0  0  0  0  0  0  0  0  0  0  0  0
   -1.6869   18.8755    0.3926 H   0  0  0  0  0  0  0  0  0  0  0  0
   -1.0998   17.1778    0.3926 H   0  0  0  0  0  0  0  0  0  0  0  0
    1.0168   19.2390    1.8532 H   0  0  0  0  0  0  0  0  0  0  0  0
    2.3415   19.2719    0.6404 H   0  0  0  0  0  0  0  0  0  0  0  0
    1.0915   20.5619    0.6404 H   0  0  0  0  0  0  0  0  0  0  0  0
    3.1065   16.1552   -3.0207 H   0  0  0  0  0  0  0  0  0  0  0  0
    2.4344   14.9073   -4.1243 H   0  0  0  0  0  0  0  0  0  0  0  0
    1.7508   16.5685   -4.1243 H   0  0  0  0  0  0  0  0  0  0  0  0
   -0.6477   15.0532   -3.5611 H   0  0  0  0  0  0  0  0  0  0  0  0
    0.7087   13.8169   -3.8176 H   0  0  0  0  0  0  0  0  0  0  0  0
   -1.3040   13.9097   -1.5533 H   0  0  0  0  0  0  0  0  0  0  0  0
   -1.1302   12.6715   -2.8586 H   0  0  0  0  0  0  0  0  0  0  0  0
    2.0546   11.2100   -1.7270 H   0  0  0  0  0  0  0  0  0  0  0  0
    0.7427   11.1448   -2.9523 H   0  0  0  0  0  0  0  0  0  0  0  0
    1.9045   12.5148   -2.9523 H   0  0  0  0  0  0  0  0  0  0  0  0
  1  2  1  0
  2  3  1  0
  3  4  1  0
  4  5  1  0
  5  6  1  0
  6  7  1  0
  7  8  1  0
  7  9  1  0
  2 10  1  0
 10 11  1  0
 11 12  1  0
 12 13  1  0
 13 14  1  1
 13 15  1  0
 15 16  1  0
 16 17  1  0
 17 18  2  0
 18 19  1  0
 19 20  1  0
 20 21  1  0
 21 22  1  0
 22 23  1  0
 22 24  1  0
 24 25  1  0
 24 26  1  0
 19 27  1  0
 27 28  1  6
 27 29  1  0
 29 30  1  0
 30 31  1  0
 31 32  1  6
  7  5  1  0
 31 10  1  0
 31 13  1  0
 27 15  1  0
 24 18  1  0
  1 33  1  0
  1 34  1  0
  1 35  1  0
  2 36  1  6
  3 37  1  0
  3 38  1  0
  4 39  1  0
  4 40  1  0
  5 41  1  1
  8 42  1  0
  8 43  1  0
  8 44  1  0
  9 45  1  0
  9 46  1  0
  9 47  1  0
 10 48  1  1
 11 49  1  0
 11 50  1  0
 12 51  1  0
 12 52  1  0
 14 53  1  0
 14 54  1  0
 14 55  1  0
 15 56  1  6
 16 57  1  0
 16 58  1  0
 17 59  1  0
 19 60  1  1
 20 61  1  0
 20 62  1  0
 21 63  1  0
 21 64  1  0
 22 65  1  1
 23 66  1  0
 25 67  1  0
 25 68  1  0
 25 69  1  0
 26 70  1  0
 26 71  1  0
 26 72  1  0
 28 73  1  0
 28 74  1  0
 28 75  1  0
 29 76  1  0
 29 77  1  0
 30 78  1  0
 30 79  1  0
 32 80  1  0
 32 81  1  0
 32 82  1  0
M  END
>  <meeko>  (10) 
{"is_sidechain": [false], "intermolecular_energy": 2.731, "internal_energy": -0.839}

$$$$
EPH_relaxed_0001_pdb2pqr_Repair_415_r2_0001_out
     RDKit          3D

 82 86  0  0  0  0  0  0  0  0999 V2000
    1.2890   13.6700   -5.2340 C   0  0  0  0  0  0  0  0  0  0  0  0
    0.4270   14.2670   -4.1180 C   0  0  2  0  0  0  0  0  0  0  0  0
    0.3430   15.8040   -4.2080 C   0  0  0  0  0  0  0  0  0  0  0  0
    1.4480   16.5270   -3.4340 C   0  0  0  0  0  0  0  0  0  0  0  0
    0.9060   17.6690   -2.6290 C   0  0  2  0  0  0  0  0  0  0  0  0
    1.5940   18.9120   -2.8150 O   0  0  0  0  0  0  0  0  0  0  0  0
    1.6710   18.3360   -1.5010 C   0  0  0  0  0  0  0  0  0  0  0  0
    3.0450   17.8830   -1.1160 C   0  0  0  0  0  0  0  0  0  0  0  0
    0.9020   19.0930   -0.4640 C   0  0  0  0  0  0  0  0  0  0  0  0
    0.9780   13.8530   -2.7590 C   0  0  1  0  0  0  0  0  0  0  0  0
    0.9780   15.0190   -1.7340 C   0  0  0  0  0  0  0  0  0  0  0  0
    0.6770   14.3960   -0.3470 C   0  0  0  0  0  0  0  0  0  0  0  0
    0.8430   12.8730   -0.5600 C   0  0  1  0  0  0  0  0  0  0  0  0
    2.3820   12.6220   -0.4790 C   0  0  0  0  0  0  0  0  0  0  0  0
    0.0560   11.9480    0.4240 C   0  0  2  0  0  0  0  0  0  0  0  0
    0.4570   12.0770    1.9040 C   0  0  0  0  0  0  0  0  0  0  0  0
    1.5430   11.1570    2.3530 C   0  0  0  0  0  0  0  0  0  0  0  0
    1.9760   10.0720    1.6840 C   0  0  0  0  0  0  0  0  0  0  0  0
    1.2890    9.6200    0.3890 C   0  0  1  0  0  0  0  0  0  0  0  0
    1.0450    8.0890    0.4400 C   0  0  0  0  0  0  0  0  0  0  0  0
    2.3200    7.3030    0.7300 C   0  0  0  0  0  0  0  0  0  0  0  0
    2.9420    7.7400    2.0530 C   0  0  2  0  0  0  0  0  0  0  0  0
    2.0660    7.3630    3.1200 O   0  0  0  0  0  0  0  0  0  0  0  0
    3.2240    9.2670    2.1230 C   0  0  0  0  0  0  0  0  0  0  0  0
    4.3920    9.6250    1.1720 C   0  0  0  0  0  0  0  0  0  0  0  0
    3.7160    9.5970    3.5580 C   0  0  0  0  0  0  0  0  0  0  0  0
   -0.0130   10.4320   -0.0250 C   0  0  1  0  0  0  0  0  0  0  0  0
   -1.2660    9.8180    0.6690 C   0  0  0  0  0  0  0  0  0  0  0  0
   -0.2430   10.2780   -1.5750 C   0  0  0  0  0  0  0  0  0  0  0  0
    0.4670   11.2950   -2.4880 C   0  0  0  0  0  0  0  0  0  0  0  0
    0.2310   12.7280   -2.0000 C   0  0  2  0  0  0  0  0  0  0  0  0
   -1.3060   13.0170   -2.0910 C   0  0  0  0  0  0  0  0  0  0  0  0
    2.1168   13.0967   -4.7911 H   0  0  0  0  0  0  0  0  0  0  0  0
    0.6734   13.0039   -5.8563 H   0  0  0  0  0  0  0  0  0  0  0  0
    1.6961   14.4806   -5.8563 H   0  0  0  0  0  0  0  0  0  0  0  0
   -0.5930   13.8740   -4.2408 H   0  0  0  0  0  0  0  0  0  0  0  0
    0.4136   16.0943   -5.2667 H   0  0  0  0  0  0  0  0  0  0  0  0
   -0.6142   16.1007   -3.7544 H   0  0  0  0  0  0  0  0  0  0  0  0
    1.9340   15.8112   -2.7547 H   0  0  0  0  0  0  0  0  0  0  0  0
    2.1672   16.9316   -4.1614 H   0  0  0  0  0  0  0  0  0  0  0  0
   -0.1122   17.2567   -2.6868 H   0  0  0  0  0  0  0  0  0  0  0  0
    3.1282   17.8556   -0.0195 H   0  0  0  0  0  0  0  0  0  0  0  0
    3.2269   16.8773   -1.5228 H   0  0  0  0  0  0  0  0  0  0  0  0
    3.7894   18.5833   -1.5228 H   0  0  0  0  0  0  0  0  0  0  0  0
    1.2257   18.7743    0.5378 H   0  0  0  0  0  0  0  0  0  0  0  0
    1.0876   20.1706   -0.5838 H   0  0  0  0  0  0  0  0  0  0  0  0
   -0.1725   18.8905   -0.5838 H   0  0  0  0  0  0  0  0  0  0  0  0
    1.9750   13.5026   -3.0642 H   0  0  0  0  0  0  0  0  0  0  0  0
    1.9609   15.5127   -1.7221 H   0  0  0  0  0  0  0  0  0  0  0  0
    0.2255   15.7766   -1.9981 H   0  0  0  0  0  0  0  0  0  0  0  0
    1.3895   14.7628    0.4065 H   0  0  0  0  0  0  0  0  0  0  0  0
   -0.3259   14.6593    0.0202 H   0  0  0  0  0  0  0  0  0  0  0  0
    2.6903   12.5717    0.5757 H   0  0  0  0  0  0  0  0  0  0  0  0
    2.6254   11.6723   -0.9778 H   0  0  0  0  0  0  0  0  0  0  0  0
    2.9145   13.4452   -0.9778 H   0  0  0  0  0  0  0  0  0  0  0  0
   -0.9662   12.3485    0.3551 H   0  0  0  0  0  0  0  0  0  0  0  0
    0.7939   13.1099    2.0760 H   0  0  0  0  0  0  0  0  0  0  0  0
   -0.4349   11.8016    2.4859 H   0  0  0  0  0  0  0  0  0  0  0  0
    2.0311   11.3848    3.3121 H   0  0  0  0  0  0  0  0  0  0  0  0
    1.9878    9.8598   -0.4260 H   0  0  0  0  0  0  0  0  0  0  0  0
    0.3112    7.8750    1.2310 H   0  0  0  0  0  0  0  0  0  0  0  0
    0.6774    7.7763   -0.5485 H   0  0  0  0  0  0  0  0  0  0  0  0
    2.0779    6.2313    0.7828 H   0  0  0  0  0  0  0  0  0  0  0  0
    3.0419    7.4953   -0.0774 H   0  0  0  0  0  0  0  0  0  0  0  0
    3.9164    7.2373    2.1418 H   0  0  0  0  0  0  0  0  0  0  0  0
    1.6780    8.1770    3.4840 H   0  0  0  0  0  0  0  0  0  0  0  0
    5.2777    9.8965    1.7651 H   0  0  0  0  0  0  0  0  0  0  0  0
    4.6273    8.7577    0.5376 H   0  0  0  0  0  0  0  0  0  0  0  0
    4.1009   10.4752    0.5376 H   0  0  0  0  0  0  0  0  0  0  0  0
    3.0361    9.1410    4.2927 H   0  0  0  0  0  0  0  0  0  0  0  0
    4.7306    9.1960    3.6990 H   0  0  0  0  0  0  0  0  0  0  0  0
    3.7300   10.6878    3.6990 H   0  0  0  0  0  0  0  0  0  0  0  0
   -1.1461    9.8768    1.7609 H   0  0  0  0  0  0  0  0  0  0  0  0
   -2.1634   10.3784    0.3680 H   0  0  0  0  0  0  0  0  0  0  0  0
   -1.3730    8.7654    0.3680 H   0  0  0  0  0  0  0  0  0  0  0  0
    0.1016    9.2742   -1.8642 H   0  0  0  0  0  0  0  0  0  0  0  0
   -1.3177   10.4583   -1.7253 H   0  0  0  0  0  0  0  0  0  0  0  0
    1.5473   11.0875   -2.4861 H   0  0  0  0  0  0  0  0  0  0  0  0
    0.0583   11.1988   -3.5047 H   0  0  0  0  0  0  0  0  0  0  0  0
   -1.7249   13.0958   -1.0770 H   0  0  0  0  0  0  0  0  0  0  0  0
   -1.4702   13.9618   -2.6300 H   0  0  0  0  0  0  0  0  0  0  0  0
   -1.8021   12.1964   -2.6300 H   0  0  0  0  0  0  0  0  0  0  0  0
  1  2  1  0
  2  3  1  0
  3  4  1  0
  4  5  1  0
  5  6  1  0
  6  7  1  0
  7  8  1  0
  7  9  1  0
  2 10  1  0
 10 11  1  0
 11 12  1  0
 12 13  1  0
 13 14  1  6
 13 15  1  0
 15 16  1  0
 16 17  1  0
 17 18  2  0
 18 19  1  0
 19 20  1  0
 20 21  1  0
 21 22  1  0
 22 23  1  0
 22 24  1  0
 24 25  1  0
 24 26  1  0
 19 27  1  0
 27 28  1  1
 27 29  1  0
 29 30  1  0
 30 31  1  0
 31 32  1  1
  7  5  1  0
 31 10  1  0
 31 13  1  0
 27 15  1  0
 24 18  1  0
  1 33  1  0
  1 34  1  0
  1 35  1  0
  2 36  1  6
  3 37  1  0
  3 38  1  0
  4 39  1  0
  4 40  1  0
  5 41  1  1
  8 42  1  0
  8 43  1  0
  8 44  1  0
  9 45  1  0
  9 46  1  0
  9 47  1  0
 10 48  1  6
 11 49  1  0
 11 50  1  0
 12 51  1  0
 12 52  1  0
 14 53  1  0
 14 54  1  0
 14 55  1  0
 15 56  1  1
 16 57  1  0
 16 58  1  0
 17 59  1  0
 19 60  1  6
 20 61  1  0
 20 62  1  0
 21 63  1  0
 21 64  1  0
 22 65  1  1
 23 66  1  0
 25 67  1  0
 25 68  1  0
 25 69  1  0
 26 70  1  0
 26 71  1  0
 26 72  1  0
 28 73  1  0
 28 74  1  0
 28 75  1  0
 29 76  1  0
 29 77  1  0
 30 78  1  0
 30 79  1  0
 32 80  1  0
 32 81  1  0
 32 82  1  0
M  END
>  <meeko>  (11) 
{"is_sidechain": [false], "intermolecular_energy": 2.731, "internal_energy": -0.839}

$$$$
EPH_relaxed_0001_pdb2pqr_Repair_415_r2_0001_out
     RDKit          3D

 82 86  0  0  0  0  0  0  0  0999 V2000
   -0.3380   14.7390   -4.3700 C   0  0  0  0  0  0  0  0  0  0  0  0
    1.0810   14.1620   -4.3640 C   0  0  2  0  0  0  0  0  0  0  0  0
    1.2120   12.9330   -5.2860 C   0  0  0  0  0  0  0  0  0  0  0  0
    2.6440   12.6640   -5.7540 C   0  0  0  0  0  0  0  0  0  0  0  0
    3.2100   11.4270   -5.1250 C   0  0  2  0  0  0  0  0  0  0  0  0
    3.6940   11.6030   -3.7870 O   0  0  0  0  0  0  0  0  0  0  0  0
    4.6780   11.2620   -4.7760 C   0  0  0  0  0  0  0  0  0  0  0  0
    5.6710   12.3480   -5.0470 C   0  0  0  0  0  0  0  0  0  0  0  0
    5.2260    9.8770   -4.6280 C   0  0  0  0  0  0  0  0  0  0  0  0
    1.4860   13.7930   -2.9420 C   0  0  1  0  0  0  0  0  0  0  0  0
    1.4050   14.9960   -1.9660 C   0  0  0  0  0  0  0  0  0  0  0  0
    0.9560   14.4300   -0.5940 C   0  0  0  0  0  0  0  0  0  0  0  0
    1.1150   12.8980   -0.7340 C   0  0  1  0  0  0  0  0  0  0  0  0
    2.6330   12.6280   -0.4900 C   0  0  0  0  0  0  0  0  0  0  0  0
    0.2160   12.0220    0.1990 C   0  0  2  0  0  0  0  0  0  0  0  0
    0.4700   12.2010    1.7060 C   0  0  0  0  0  0  0  0  0  0  0  0
    1.4890   11.2830    2.2940 C   0  0  0  0  0  0  0  0  0  0  0  0
    1.9670   10.1680    1.7120 C   0  0  0  0  0  0  0  0  0  0  0  0
    1.4050    9.6770    0.3710 C   0  0  1  0  0  0  0  0  0  0  0  0
    1.1290    8.1520    0.4520 C   0  0  0  0  0  0  0  0  0  0  0  0
    2.3550    7.3590    0.8970 C   0  0  0  0  0  0  0  0  0  0  0  0
    2.8490    7.8380    2.2600 C   0  0  2  0  0  0  0  0  0  0  0  0
    1.8640    7.5140    3.2470 O   0  0  0  0  0  0  0  0  0  0  0  0
    3.1500    9.3620    2.3020 C   0  0  0  0  0  0  0  0  0  0  0  0
    4.4140    9.6660    1.4610 C   0  0  0  0  0  0  0  0  0  0  0  0
    3.5020    9.7380    3.7670 C   0  0  0  0  0  0  0  0  0  0  0  0
    0.1660   10.4910   -0.2010 C   0  0  1  0  0  0  0  0  0  0  0  0
   -1.1620    9.9220    0.3860 C   0  0  0  0  0  0  0  0  0  0  0  0
    0.0890   10.2820   -1.7590 C   0  0  0  0  0  0  0  0  0  0  0  0
    0.9050   11.2540   -2.6320 C   0  0  0  0  0  0  0  0  0  0  0  0
    0.6470   12.7080   -2.2230 C   0  0  2  0  0  0  0  0  0  0  0  0
   -0.8680   13.0150   -2.4780 C   0  0  0  0  0  0  0  0  0  0  0  0
   -0.6814   14.8786   -3.3344 H   0  0  0  0  0  0  0  0  0  0  0  0
   -0.3375   15.7083   -4.8900 H   0  0  0  0  0  0  0  0  0  0  0  0
   -1.0141   14.0444   -4.8900 H   0  0  0  0  0  0  0  0  0  0  0  0
    1.7560   14.9389   -4.7525 H   0  0  0  0  0  0  0  0  0  0  0  0
    0.8538   12.0486   -4.7386 H   0  0  0  0  0  0  0  0  0  0  0  0
    0.6139   13.1411   -6.1854 H   0  0  0  0  0  0  0  0  0  0  0  0
    2.6444   12.5402   -6.8470 H   0  0  0  0  0  0  0  0  0  0  0  0
    3.2689   13.5180   -5.4535 H   0  0  0  0  0  0  0  0  0  0  0  0
    2.5091   10.7924   -5.6871 H   0  0  0  0  0  0  0  0  0  0  0  0
    6.0411   12.7527   -4.0935 H   0  0  0  0  0  0  0  0  0  0  0  0
    6.5138   11.9387   -5.6234 H   0  0  0  0  0  0  0  0  0  0  0  0
    5.1881   13.1509   -5.6234 H   0  0  0  0  0  0  0  0  0  0  0  0
    5.3225    9.6331   -3.5597 H   0  0  0  0  0  0  0  0  0  0  0  0
    4.5440    9.1596   -5.1077 H   0  0  0  0  0  0  0  0  0  0  0  0
    6.2143    9.8205   -5.1077 H   0  0  0  0  0  0  0  0  0  0  0  0
    2.5026   13.4182   -3.1316 H   0  0  0  0  0  0  0  0  0  0  0  0
    2.3905   15.4757   -1.8736 H   0  0  0  0  0  0  0  0  0  0  0  0
    0.6964   15.7539   -2.3314 H   0  0  0  0  0  0  0  0  0  0  0  0
    1.5964   14.8148    0.2134 H   0  0  0  0  0  0  0  0  0  0  0  0
   -0.0736   14.7213   -0.3390 H   0  0  0  0  0  0  0  0  0  0  0  0
    2.8300   12.5930    0.5917 H   0  0  0  0  0  0  0  0  0  0  0  0
    2.9121   11.6661   -0.9449 H   0  0  0  0  0  0  0  0  0  0  0  0
    3.2266   13.4347   -0.9449 H   0  0  0  0  0  0  0  0  0  0  0  0
   -0.7873   12.4336    0.0146 H   0  0  0  0  0  0  0  0  0  0  0  0
    0.8068   13.2347    1.8735 H   0  0  0  0  0  0  0  0  0  0  0  0
   -0.4802   11.9609    2.2054 H   0  0  0  0  0  0  0  0  0  0  0  0
    1.8831   11.5398    3.2883 H   0  0  0  0  0  0  0  0  0  0  0  0
    2.1866    9.8758   -0.3771 H   0  0  0  0  0  0  0  0  0  0  0  0
    0.3160    7.9784    1.1724 H   0  0  0  0  0  0  0  0  0  0  0  0
    0.8561    7.8077   -0.5564 H   0  0  0  0  0  0  0  0  0  0  0  0
    2.0898    6.2936    0.9642 H   0  0  0  0  0  0  0  0  0  0  0  0
    3.1574    7.5097    0.1598 H   0  0  0  0  0  0  0  0  0  0  0  0
    3.8004    7.3254    2.4650 H   0  0  0  0  0  0  0  0  0  0  0  0
    1.1600    7.0090    2.8050 H   0  0  0  0  0  0  0  0  0  0  0  0
    5.2610    9.8697    2.1326 H   0  0  0  0  0  0  0  0  0  0  0  0
    4.6495    8.7989    0.8265 H   0  0  0  0  0  0  0  0  0  0  0  0
    4.2295   10.5454    0.8265 H   0  0  0  0  0  0  0  0  0  0  0  0
    2.9165    9.1125    4.4569 H   0  0  0  0  0  0  0  0  0  0  0  0
    4.5751    9.5701    3.9409 H   0  0  0  0  0  0  0  0  0  0  0  0
    3.2638   10.7977    3.9409 H   0  0  0  0  0  0  0  0  0  0  0  0
   -1.1154    9.9420    1.4848 H   0  0  0  0  0  0  0  0  0  0  0  0
   -2.0074   10.5369    0.0436 H   0  0  0  0  0  0  0  0  0  0  0  0
   -1.2999    8.8858    0.0436 H   0  0  0  0  0  0  0  0  0  0  0  0
    0.4426    9.2632   -1.9758 H   0  0  0  0  0  0  0  0  0  0  0  0
   -0.9619   10.4715   -2.0229 H   0  0  0  0  0  0  0  0  0  0  0  0
    1.9757   11.0316   -2.5136 H   0  0  0  0  0  0  0  0  0  0  0  0
    0.5984   11.1252   -3.6805 H   0  0  0  0  0  0  0  0  0  0  0  0
   -1.3880   13.1204   -1.5144 H   0  0  0  0  0  0  0  0  0  0  0  0
   -0.9615   13.9503   -3.0493 H   0  0  0  0  0  0  0  0  0  0  0  0
   -1.3182   12.1898   -3.0493 H   0  0  0  0  0  0  0  0  0  0  0  0
  1  2  1  0
  2  3  1  0
  3  4  1  0
  4  5  1  0
  5  6  1  0
  6  7  1  0
  7  8  1  0
  7  9  1  0
  2 10  1  0
 10 11  1  0
 11 12  1  0
 12 13  1  0
 13 14  1  6
 13 15  1  0
 15 16  1  0
 16 17  1  0
 17 18  2  0
 18 19  1  0
 19 20  1  0
 20 21  1  0
 21 22  1  0
 22 23  1  0
 22 24  1  0
 24 25  1  0
 24 26  1  0
 19 27  1  0
 27 28  1  1
 27 29  1  0
 29 30  1  0
 30 31  1  0
 31 32  1  1
  7  5  1  0
 31 10  1  0
 31 13  1  0
 27 15  1  0
 24 18  1  0
  1 33  1  0
  1 34  1  0
  1 35  1  0
  2 36  1  6
  3 37  1  0
  3 38  1  0
  4 39  1  0
  4 40  1  0
  5 41  1  1
  8 42  1  0
  8 43  1  0
  8 44  1  0
  9 45  1  0
  9 46  1  0
  9 47  1  0
 10 48  1  6
 11 49  1  0
 11 50  1  0
 12 51  1  0
 12 52  1  0
 14 53  1  0
 14 54  1  0
 14 55  1  0
 15 56  1  1
 16 57  1  0
 16 58  1  0
 17 59  1  0
 19 60  1  6
 20 61  1  0
 20 62  1  0
 21 63  1  0
 21 64  1  0
 22 65  1  1
 23 66  1  0
 25 67  1  0
 25 68  1  0
 25 69  1  0
 26 70  1  0
 26 71  1  0
 26 72  1  0
 28 73  1  0
 28 74  1  0
 28 75  1  0
 29 76  1  0
 29 77  1  0
 30 78  1  0
 30 79  1  0
 32 80  1  0
 32 81  1  0
 32 82  1  0
M  END
>  <meeko>  (12) 
{"is_sidechain": [false], "intermolecular_energy": 2.731, "internal_energy": -0.839}

$$$$
EPH_relaxed_0001_pdb2pqr_Repair_415_r2_0001_out
     RDKit          3D

 82 86  0  0  0  0  0  0  0  0999 V2000
   -5.1420    5.8500   -1.8020 C   0  0  0  0  0  0  0  0  0  0  0  0
   -5.4540    7.3490   -1.8110 C   0  0  2  0  0  0  0  0  0  0  0  0
   -5.2420    7.9950   -0.4270 C   0  0  0  0  0  0  0  0  0  0  0  0
   -4.1680    9.0860   -0.4160 C   0  0  0  0  0  0  0  0  0  0  0  0
   -2.8500    8.5710   -0.9100 C   0  0  2  0  0  0  0  0  0  0  0  0
   -1.7530    8.7710   -0.0090 O   0  0  0  0  0  0  0  0  0  0  0  0
   -1.6790    9.4710   -1.2620 C   0  0  0  0  0  0  0  0  0  0  0  0
   -1.7720   10.9590   -1.1340 C   0  0  0  0  0  0  0  0  0  0  0  0
   -0.6250    8.9450   -2.1850 C   0  0  0  0  0  0  0  0  0  0  0  0
   -6.8870    7.5790   -2.2790 C   0  0  1  0  0  0  0  0  0  0  0  0
   -7.1910    6.8870   -3.6350 C   0  0  0  0  0  0  0  0  0  0  0  0
   -8.6660    6.4160   -3.5750 C   0  0  0  0  0  0  0  0  0  0  0  0
   -9.2560    7.1350   -2.3400 C   0  0  1  0  0  0  0  0  0  0  0  0
   -9.6030    8.5730   -2.8400 C   0  0  0  0  0  0  0  0  0  0  0  0
  -10.4860    6.4480   -1.6610 C   0  0  2  0  0  0  0  0  0  0  0  0
  -11.7370    6.3270   -2.5480 C   0  0  0  0  0  0  0  0  0  0  0  0
  -12.6890    7.4730   -2.4680 C   0  0  0  0  0  0  0  0  0  0  0  0
  -12.6950    8.4200   -1.5110 C   0  0  0  0  0  0  0  0  0  0  0  0
  -11.7340    8.3380   -0.3170 C   0  0  1  0  0  0  0  0  0  0  0  0
  -12.5140    8.6160    0.9950 C   0  0  0  0  0  0  0  0  0  0  0  0
  -13.2810    9.9340    0.9520 C   0  0  0  0  0  0  0  0  0  0  0  0
  -14.2670    9.9530   -0.2130 C   0  0  2  0  0  0  0  0  0  0  0  0
  -15.2870    8.9790    0.0300 O   0  0  0  0  0  0  0  0  0  0  0  0
  -13.5970    9.6760   -1.5880 C   0  0  0  0  0  0  0  0  0  0  0  0
  -12.7150   10.8840   -1.9900 C   0  0  0  0  0  0  0  0  0  0  0  0
  -14.7200    9.5830   -2.6560 C   0  0  0  0  0  0  0  0  0  0  0  0
  -10.8440    7.0250   -0.2320 C   0  0  1  0  0  0  0  0  0  0  0  0
  -11.6230    5.9020    0.5190 C   0  0  0  0  0  0  0  0  0  0  0  0
   -9.5610    7.3280    0.6300 C   0  0  0  0  0  0  0  0  0  0  0  0
   -8.3400    7.8940   -0.1190 C   0  0  0  0  0  0  0  0  0  0  0  0
   -8.0250    7.0610   -1.3650 C   0  0  2  0  0  0  0  0  0  0  0  0
   -7.6510    5.6150   -0.8910 C   0  0  0  0  0  0  0  0  0  0  0  0
   -5.0685    5.4970   -0.7628 H   0  0  0  0  0  0  0  0  0  0  0  0
   -5.9460    5.3050   -2.3184 H   0  0  0  0  0  0  0  0  0  0  0  0
   -4.1874    5.6711   -2.3184 H   0  0  0  0  0  0  0  0  0  0  0  0
   -4.7528    7.8285   -2.5099 H   0  0  0  0  0  0  0  0  0  0  0  0
   -6.1937    8.4410   -0.1023 H   0  0  0  0  0  0  0  0  0  0  0  0
   -4.8992    7.1991    0.2505 H   0  0  0  0  0  0  0  0  0  0  0  0
   -4.4933    9.9130   -1.0642 H   0  0  0  0  0  0  0  0  0  0  0  0
   -4.0360    9.4270    0.6215 H   0  0  0  0  0  0  0  0  0  0  0  0
   -3.3468    7.7576   -1.4591 H   0  0  0  0  0  0  0  0  0  0  0  0
   -1.7893   11.2351   -0.0693 H   0  0  0  0  0  0  0  0  0  0  0  0
   -0.9012   11.4239   -1.6193 H   0  0  0  0  0  0  0  0  0  0  0  0
   -2.6940   11.3119   -1.6193 H   0  0  0  0  0  0  0  0  0  0  0  0
    0.2056    8.5305   -1.5948 H   0  0  0  0  0  0  0  0  0  0  0  0
   -1.0540    8.1553   -2.8193 H   0  0  0  0  0  0  0  0  0  0  0  0
   -0.2519    9.7626   -2.8193 H   0  0  0  0  0  0  0  0  0  0  0  0
   -6.8978    8.6786   -2.3068 H   0  0  0  0  0  0  0  0  0  0  0  0
   -7.0538    7.5985   -4.4626 H   0  0  0  0  0  0  0  0  0  0  0  0
   -6.5120    6.0388   -3.8069 H   0  0  0  0  0  0  0  0  0  0  0  0
   -9.2044    6.7086   -4.4885 H   0  0  0  0  0  0  0  0  0  0  0  0
   -8.7515    5.3219   -3.5006 H   0  0  0  0  0  0  0  0  0  0  0  0
   -9.7624    9.2335   -1.9749 H   0  0  0  0  0  0  0  0  0  0  0  0
   -8.7724    8.9599   -3.4487 H   0  0  0  0  0  0  0  0  0  0  0  0
  -10.5186    8.5386   -3.4487 H   0  0  0  0  0  0  0  0  0  0  0  0
  -10.1272    5.4194   -1.5085 H   0  0  0  0  0  0  0  0  0  0  0  0
  -11.4051    6.2333   -3.5925 H   0  0  0  0  0  0  0  0  0  0  0  0
  -12.2871    5.4485   -2.1796 H   0  0  0  0  0  0  0  0  0  0  0  0
  -13.4506    7.5508   -3.2579 H   0  0  0  0  0  0  0  0  0  0  0  0
  -10.9815    9.1241   -0.4775 H   0  0  0  0  0  0  0  0  0  0  0  0
  -13.2295    7.7970    1.1600 H   0  0  0  0  0  0  0  0  0  0  0  0
  -11.7801    8.6835    1.8116 H   0  0  0  0  0  0  0  0  0  0  0  0
  -13.8345   10.0594    1.8943 H   0  0  0  0  0  0  0  0  0  0  0  0
  -12.5615   10.7549    0.8167 H   0  0  0  0  0  0  0  0  0  0  0  0
  -14.6908   10.9665   -0.2694 H   0  0  0  0  0  0  0  0  0  0  0  0
  -16.1290    9.3480   -0.2880 H   0  0  0  0  0  0  0  0  0  0  0  0
  -12.3475   11.3874   -1.0836 H   0  0  0  0  0  0  0  0  0  0  0  0
  -11.8602   10.5317   -2.5859 H   0  0  0  0  0  0  0  0  0  0  0  0
  -13.3109   11.5909   -2.5859 H   0  0  0  0  0  0  0  0  0  0  0  0
  -15.6962    9.5022   -2.1555 H   0  0  0  0  0  0  0  0  0  0  0  0
  -14.7039   10.4856   -3.2846 H   0  0  0  0  0  0  0  0  0  0  0  0
  -14.5556    8.6954   -3.2846 H   0  0  0  0  0  0  0  0  0  0  0  0
  -11.5215    6.0483    1.6045 H   0  0  0  0  0  0  0  0  0  0  0  0
  -12.6865    5.9447    0.2411 H   0  0  0  0  0  0  0  0  0  0  0  0
  -11.2105    4.9209    0.2411 H   0  0  0  0  0  0  0  0  0  0  0  0
   -9.8442    8.0568    1.4037 H   0  0  0  0  0  0  0  0  0  0  0  0
   -9.2352    6.3506    1.0153 H   0  0  0  0  0  0  0  0  0  0  0  0
   -8.5529    8.9295   -0.4231 H   0  0  0  0  0  0  0  0  0  0  0  0
   -7.4702    7.8606    0.5536 H   0  0  0  0  0  0  0  0  0  0  0  0
   -7.6420    5.5804    0.2084 H   0  0  0  0  0  0  0  0  0  0  0  0
   -8.3937    4.8999   -1.2743 H   0  0  0  0  0  0  0  0  0  0  0  0
   -6.6547    5.3497   -1.2743 H   0  0  0  0  0  0  0  0  0  0  0  0
  1  2  1  0
  2  3  1  0
  3  4  1  0
  4  5  1  0
  5  6  1  0
  6  7  1  0
  7  8  1  0
  7  9  1  0
  2 10  1  0
 10 11  1  0
 11 12  1  0
 12 13  1  0
 13 14  1  6
 13 15  1  0
 15 16  1  0
 16 17  1  0
 17 18  2  0
 18 19  1  0
 19 20  1  0
 20 21  1  0
 21 22  1  0
 22 23  1  0
 22 24  1  0
 24 25  1  0
 24 26  1  0
 19 27  1  0
 27 28  1  1
 27 29  1  0
 29 30  1  0
 30 31  1  0
 31 32  1  1
  7  5  1  0
 31 10  1  0
 31 13  1  0
 27 15  1  0
 24 18  1  0
  1 33  1  0
  1 34  1  0
  1 35  1  0
  2 36  1  6
  3 37  1  0
  3 38  1  0
  4 39  1  0
  4 40  1  0
  5 41  1  6
  8 42  1  0
  8 43  1  0
  8 44  1  0
  9 45  1  0
  9 46  1  0
  9 47  1  0
 10 48  1  6
 11 49  1  0
 11 50  1  0
 12 51  1  0
 12 52  1  0
 14 53  1  0
 14 54  1  0
 14 55  1  0
 15 56  1  1
 16 57  1  0
 16 58  1  0
 17 59  1  0
 19 60  1  6
 20 61  1  0
 20 62  1  0
 21 63  1  0
 21 64  1  0
 22 65  1  6
 23 66  1  0
 25 67  1  0
 25 68  1  0
 25 69  1  0
 26 70  1  0
 26 71  1  0
 26 72  1  0
 28 73  1  0
 28 74  1  0
 28 75  1  0
 29 76  1  0
 29 77  1  0
 30 78  1  0
 30 79  1  0
 32 80  1  0
 32 81  1  0
 32 82  1  0
M  END
>  <meeko>  (13) 
{"is_sidechain": [false], "intermolecular_energy": 2.731, "internal_energy": -0.839}

$$$$
EPH_relaxed_0001_pdb2pqr_Repair_415_r2_0001_out
     RDKit          3D

 82 86  0  0  0  0  0  0  0  0999 V2000
    2.9430   17.3510   -1.6820 C   0  0  0  0  0  0  0  0  0  0  0  0
    1.5810   16.7540   -2.0470 C   0  0  2  0  0  0  0  0  0  0  0  0
    0.4560   17.8080   -2.0100 C   0  0  0  0  0  0  0  0  0  0  0  0
    0.7730   19.0160   -1.1240 C   0  0  0  0  0  0  0  0  0  0  0  0
   -0.4580   19.8110   -0.8100 C   0  0  2  0  0  0  0  0  0  0  0  0
   -0.5880   20.1950    0.5650 O   0  0  0  0  0  0  0  0  0  0  0  0
   -1.5880   19.2940    0.0610 C   0  0  0  0  0  0  0  0  0  0  0  0
   -1.5410   17.9290    0.6710 C   0  0  0  0  0  0  0  0  0  0  0  0
   -2.9420   19.9160   -0.0810 C   0  0  0  0  0  0  0  0  0  0  0  0
    1.2490   15.6040   -1.1040 C   0  0  1  0  0  0  0  0  0  0  0  0
   -0.2530   15.5660   -0.7150 C   0  0  0  0  0  0  0  0  0  0  0  0
   -0.6420   14.0710   -0.5770 C   0  0  0  0  0  0  0  0  0  0  0  0
    0.7080   13.3170   -0.5630 C   0  0  1  0  0  0  0  0  0  0  0  0
    1.2260   13.4480    0.9040 C   0  0  0  0  0  0  0  0  0  0  0  0
    0.6710   11.8260   -1.0320 C   0  0  2  0  0  0  0  0  0  0  0  0
   -0.1900   10.8910   -0.1650 C   0  0  0  0  0  0  0  0  0  0  0  0
    0.5280   10.2250    0.9620 C   0  0  0  0  0  0  0  0  0  0  0  0
    1.8640   10.1460    1.1010 C   0  0  0  0  0  0  0  0  0  0  0  0
    2.8020   10.6770    0.0090 C   0  0  1  0  0  0  0  0  0  0  0  0
    3.9080    9.6280   -0.2790 C   0  0  0  0  0  0  0  0  0  0  0  0
    4.6590    9.2090    0.9810 C   0  0  0  0  0  0  0  0  0  0  0  0
    3.7000    8.6320    2.0200 C   0  0  2  0  0  0  0  0  0  0  0  0
    3.1670    7.4010    1.5220 O   0  0  0  0  0  0  0  0  0  0  0  0
    2.5370    9.5970    2.3830 C   0  0  0  0  0  0  0  0  0  0  0  0
    3.0890   10.7950    3.1940 C   0  0  0  0  0  0  0  0  0  0  0  0
    1.5680    8.8410    3.3310 C   0  0  0  0  0  0  0  0  0  0  0  0
    2.0970   11.2000   -1.3160 C   0  0  1  0  0  0  0  0  0  0  0  0
    1.8740   10.0150   -2.3040 C   0  0  0  0  0  0  0  0  0  0  0  0
    3.0590   12.2110   -2.0450 C   0  0  0  0  0  0  0  0  0  0  0  0
    2.9640   13.6890   -1.6230 C   0  0  0  0  0  0  0  0  0  0  0  0
    1.5080   14.1660   -1.6180 C   0  0  2  0  0  0  0  0  0  0  0  0
    0.9670   14.0670   -3.0850 C   0  0  0  0  0  0  0  0  0  0  0  0
    3.0427   17.3947   -0.5874 H   0  0  0  0  0  0  0  0  0  0  0  0
    3.7429   16.7210   -2.0982 H   0  0  0  0  0  0  0  0  0  0  0  0
    3.0218   18.3662   -2.0982 H   0  0  0  0  0  0  0  0  0  0  0  0
    1.6489   16.3806   -3.0795 H   0  0  0  0  0  0  0  0  0  0  0  0
    0.2815   18.1657   -3.0355 H   0  0  0  0  0  0  0  0  0  0  0  0
   -0.4298   17.3177   -1.5800 H   0  0  0  0  0  0  0  0  0  0  0  0
    1.2178   18.6608   -0.1827 H   0  0  0  0  0  0  0  0  0  0  0  0
    1.4721   19.6672   -1.6691 H   0  0  0  0  0  0  0  0  0  0  0  0
   -0.4475   20.2672   -1.8109 H   0  0  0  0  0  0  0  0  0  0  0  0
   -1.5440   18.0171    1.7675 H   0  0  0  0  0  0  0  0  0  0  0  0
   -2.4198   17.3522    0.3471 H   0  0  0  0  0  0  0  0  0  0  0  0
   -0.6246   17.4140    0.3471 H   0  0  0  0  0  0  0  0  0  0  0  0
   -3.3631   20.1094    0.9166 H   0  0  0  0  0  0  0  0  0  0  0  0
   -2.8541   20.8640   -0.6320 H   0  0  0  0  0  0  0  0  0  0  0  0
   -3.6039   19.2317   -0.6320 H   0  0  0  0  0  0  0  0  0  0  0  0
    1.9366   15.8379   -0.2779 H   0  0  0  0  0  0  0  0  0  0  0  0
   -0.4101   16.0880    0.2404 H   0  0  0  0  0  0  0  0  0  0  0  0
   -0.8706   16.0662   -1.4755 H   0  0  0  0  0  0  0  0  0  0  0  0
   -1.1933   13.8979    0.3590 H   0  0  0  0  0  0  0  0  0  0  0  0
   -1.2999   13.7340   -1.3916 H   0  0  0  0  0  0  0  0  0  0  0  0
    0.4029   13.2398    1.6034 H   0  0  0  0  0  0  0  0  0  0  0  0
    2.0402   12.7275    1.0711 H   0  0  0  0  0  0  0  0  0  0  0  0
    1.5998   14.4690    1.0711 H   0  0  0  0  0  0  0  0  0  0  0  0
    0.1544   11.8961   -2.0006 H   0  0  0  0  0  0  0  0  0  0  0  0
   -1.0134   11.4839    0.2598 H   0  0  0  0  0  0  0  0  0  0  0  0
   -0.5267   10.0829   -0.8310 H   0  0  0  0  0  0  0  0  0  0  0  0
   -0.0877    9.7592    1.7455 H   0  0  0  0  0  0  0  0  0  0  0  0
    3.2541   11.5936    0.4157 H   0  0  0  0  0  0  0  0  0  0  0  0
    3.4415    8.7369   -0.7242 H   0  0  0  0  0  0  0  0  0  0  0  0
    4.6353   10.0889   -0.9635 H   0  0  0  0  0  0  0  0  0  0  0  0
    5.4065    8.4461    0.7179 H   0  0  0  0  0  0  0  0  0  0  0  0
    5.1494   10.0956    1.4092 H   0  0  0  0  0  0  0  0  0  0  0  0
    4.2734    8.4709    2.9448 H   0  0  0  0  0  0  0  0  0  0  0  0
    2.2530    7.3250    1.8440 H   0  0  0  0  0  0  0  0  0  0  0  0
    2.9924   10.5853    4.2695 H   0  0  0  0  0  0  0  0  0  0  0  0
    4.1491   10.9495    2.9443 H   0  0  0  0  0  0  0  0  0  0  0  0
    2.5177   11.7012    2.9443 H   0  0  0  0  0  0  0  0  0  0  0  0
    1.8385    9.0520    4.3761 H   0  0  0  0  0  0  0  0  0  0  0  0
    0.5369    9.1757    3.1444 H   0  0  0  0  0  0  0  0  0  0  0  0
    1.6419    7.7595    3.1444 H   0  0  0  0  0  0  0  0  0  0  0  0
    1.7000    9.0903   -1.7342 H   0  0  0  0  0  0  0  0  0  0  0  0
    0.9997   10.2254   -2.9375 H   0  0  0  0  0  0  0  0  0  0  0  0
    2.7650    9.8931   -2.9375 H   0  0  0  0  0  0  0  0  0  0  0  0
    4.0914   11.8786   -1.8618 H   0  0  0  0  0  0  0  0  0  0  0  0
    2.7485   12.1930   -3.1001 H   0  0  0  0  0  0  0  0  0  0  0  0
    3.3831   13.8022   -0.6123 H   0  0  0  0  0  0  0  0  0  0  0  0
    3.5294   14.2966   -2.3449 H   0  0  0  0  0  0  0  0  0  0  0  0
   -0.1148   13.8690   -3.0643 H   0  0  0  0  0  0  0  0  0  0  0  0
    1.1563   15.0147   -3.6104 H   0  0  0  0  0  0  0  0  0  0  0  0
    1.4797   13.2478   -3.6104 H   0  0  0  0  0  0  0  0  0  0  0  0
  1  2  1  0
  2  3  1  0
  3  4  1  0
  4  5  1  0
  5  6  1  0
  6  7  1  0
  7  8  1  0
  7  9  1  0
  2 10  1  0
 10 11  1  0
 11 12  1  0
 12 13  1  0
 13 14  1  1
 13 15  1  0
 15 16  1  0
 16 17  1  0
 17 18  2  0
 18 19  1  0
 19 20  1  0
 20 21  1  0
 21 22  1  0
 22 23  1  0
 22 24  1  0
 24 25  1  0
 24 26  1  0
 19 27  1  0
 27 28  1  6
 27 29  1  0
 29 30  1  0
 30 31  1  0
 31 32  1  6
  7  5  1  0
 31 10  1  0
 31 13  1  0
 27 15  1  0
 24 18  1  0
  1 33  1  0
  1 34  1  0
  1 35  1  0
  2 36  1  6
  3 37  1  0
  3 38  1  0
  4 39  1  0
  4 40  1  0
  5 41  1  6
  8 42  1  0
  8 43  1  0
  8 44  1  0
  9 45  1  0
  9 46  1  0
  9 47  1  0
 10 48  1  1
 11 49  1  0
 11 50  1  0
 12 51  1  0
 12 52  1  0
 14 53  1  0
 14 54  1  0
 14 55  1  0
 15 56  1  6
 16 57  1  0
 16 58  1  0
 17 59  1  0
 19 60  1  1
 20 61  1  0
 20 62  1  0
 21 63  1  0
 21 64  1  0
 22 65  1  1
 23 66  1  0
 25 67  1  0
 25 68  1  0
 25 69  1  0
 26 70  1  0
 26 71  1  0
 26 72  1  0
 28 73  1  0
 28 74  1  0
 28 75  1  0
 29 76  1  0
 29 77  1  0
 30 78  1  0
 30 79  1  0
 32 80  1  0
 32 81  1  0
 32 82  1  0
M  END
>  <meeko>  (14) 
{"is_sidechain": [false], "intermolecular_energy": 2.731, "internal_energy": -0.839}

$$$$
EPH_relaxed_0001_pdb2pqr_Repair_415_r2_0001_out
     RDKit          3D

 82 86  0  0  0  0  0  0  0  0999 V2000
    2.4050   16.8870   -2.1460 C   0  0  0  0  0  0  0  0  0  0  0  0
    0.9130   16.6790   -1.8730 C   0  0  2  0  0  0  0  0  0  0  0  0
    0.2520   17.9360   -1.2730 C   0  0  0  0  0  0  0  0  0  0  0  0
    0.4340   18.0630    0.2420 C   0  0  0  0  0  0  0  0  0  0  0  0
    1.2980   19.2340    0.6000 C   0  0  2  0  0  0  0  0  0  0  0  0
    2.2500   19.6050   -0.4050 O   0  0  0  0  0  0  0  0  0  0  0  0
    2.7930   19.1300    0.8380 C   0  0  0  0  0  0  0  0  0  0  0  0
    3.5110   17.8210    0.7270 C   0  0  0  0  0  0  0  0  0  0  0  0
    3.4650   20.1940    1.6490 C   0  0  0  0  0  0  0  0  0  0  0  0
    0.7160   15.4900   -0.9390 C   0  0  1  0  0  0  0  0  0  0  0  0
   -0.7600   15.3220   -0.4890 C   0  0  0  0  0  0  0  0  0  0  0  0
   -1.0180   13.7980   -0.3650 C   0  0  0  0  0  0  0  0  0  0  0  0
    0.3890   13.1580   -0.4200 C   0  0  1  0  0  0  0  0  0  0  0  0
    0.9550   13.3090    1.0270 C   0  0  0  0  0  0  0  0  0  0  0  0
    0.4560   11.6770   -0.9150 C   0  0  2  0  0  0  0  0  0  0  0  0
   -0.2890   10.6600   -0.0320 C   0  0  0  0  0  0  0  0  0  0  0  0
    0.5280   10.0390    1.0530 C   0  0  0  0  0  0  0  0  0  0  0  0
    1.8710   10.0690    1.1350 C   0  0  0  0  0  0  0  0  0  0  0  0
    2.7150   10.6930    0.0160 C   0  0  1  0  0  0  0  0  0  0  0  0
    3.8910    9.7440   -0.3360 C   0  0  0  0  0  0  0  0  0  0  0  0
    4.7260    9.3680    0.8840 C   0  0  0  0  0  0  0  0  0  0  0  0
    3.8630    8.6980    1.9500 C   0  0  2  0  0  0  0  0  0  0  0  0
    3.4120    7.4350    1.4510 O   0  0  0  0  0  0  0  0  0  0  0  0
    2.6400    9.5570    2.3780 C   0  0  0  0  0  0  0  0  0  0  0  0
    3.1250   10.7850    3.1890 C   0  0  0  0  0  0  0  0  0  0  0  0
    1.7770    8.7090    3.3510 C   0  0  0  0  0  0  0  0  0  0  0  0
    1.9150   11.1760   -1.2690 C   0  0  1  0  0  0  0  0  0  0  0  0
    1.7480    9.9920   -2.2690 C   0  0  0  0  0  0  0  0  0  0  0  0
    2.7590   12.2740   -2.0170 C   0  0  0  0  0  0  0  0  0  0  0  0
    2.5600   13.7330   -1.5630 C   0  0  0  0  0  0  0  0  0  0  0  0
    1.0710   14.0870   -1.4900 C   0  0  2  0  0  0  0  0  0  0  0  0
    0.4790   13.9660   -2.9350 C   0  0  0  0  0  0  0  0  0  0  0  0
    2.9455   16.9623   -1.1909 H   0  0  0  0  0  0  0  0  0  0  0  0
    2.7948   16.0345   -2.7216 H   0  0  0  0  0  0  0  0  0  0  0  0
    2.5467   17.8136   -2.7216 H   0  0  0  0  0  0  0  0  0  0  0  0
    0.4247   16.4782   -2.8380 H   0  0  0  0  0  0  0  0  0  0  0  0
    0.6936   18.8226   -1.7514 H   0  0  0  0  0  0  0  0  0  0  0  0
   -0.8285   17.8521   -1.4612 H   0  0  0  0  0  0  0  0  0  0  0  0
   -0.5530   18.1919    0.7101 H   0  0  0  0  0  0  0  0  0  0  0  0
    0.9265   17.1493    0.6061 H   0  0  0  0  0  0  0  0  0  0  0  0
    0.4863   19.6811    1.1926 H   0  0  0  0  0  0  0  0  0  0  0  0
    3.7238   17.4330    1.7341 H   0  0  0  0  0  0  0  0  0  0  0  0
    2.8809   17.1022    0.1827 H   0  0  0  0  0  0  0  0  0  0  0  0
    4.4558   17.9660    0.1827 H   0  0  0  0  0  0  0  0  0  0  0  0
    3.3296   19.9796    2.7194 H   0  0  0  0  0  0  0  0  0  0  0  0
    4.5390   20.2125    1.4118 H   0  0  0  0  0  0  0  0  0  0  0  0
    3.0202   21.1717    1.4118 H   0  0  0  0  0  0  0  0  0  0  0  0
    1.4162   15.7671   -0.1372 H   0  0  0  0  0  0  0  0  0  0  0  0
   -0.9184   15.8135    0.4823 H   0  0  0  0  0  0  0  0  0  0  0  0
   -1.4488   15.7820   -1.2128 H   0  0  0  0  0  0  0  0  0  0  0  0
   -1.5138   13.5645    0.5888 H   0  0  0  0  0  0  0  0  0  0  0  0
   -1.6790   13.4210   -1.1593 H   0  0  0  0  0  0  0  0  0  0  0  0
    0.1591   13.0967    1.7560 H   0  0  0  0  0  0  0  0  0  0  0  0
    1.7839   12.6006    1.1723 H   0  0  0  0  0  0  0  0  0  0  0  0
    1.3208   14.3362    1.1723 H   0  0  0  0  0  0  0  0  0  0  0  0
   -0.1042   11.7192   -1.8607 H   0  0  0  0  0  0  0  0  0  0  0  0
   -1.1404   11.1756    0.4362 H   0  0  0  0  0  0  0  0  0  0  0  0
   -0.5854    9.8371   -0.6990 H   0  0  0  0  0  0  0  0  0  0  0  0
   -0.0137    9.5126    1.8527 H   0  0  0  0  0  0  0  0  0  0  0  0
    3.1061   11.6379    0.4211 H   0  0  0  0  0  0  0  0  0  0  0  0
    3.4812    8.8246   -0.7796 H   0  0  0  0  0  0  0  0  0  0  0  0
    4.5490   10.2752   -1.0395 H   0  0  0  0  0  0  0  0  0  0  0  0
    5.5213    8.6734    0.5758 H   0  0  0  0  0  0  0  0  0  0  0  0
    5.1599   10.2852    1.3088 H   0  0  0  0  0  0  0  0  0  0  0  0
    4.4867    8.5715    2.8472 H   0  0  0  0  0  0  0  0  0  0  0  0
    2.5090    7.5580    1.1120 H   0  0  0  0  0  0  0  0  0  0  0  0
    3.0404   10.5707    4.2646 H   0  0  0  0  0  0  0  0  0  0  0  0
    4.1748   10.9981    2.9391 H   0  0  0  0  0  0  0  0  0  0  0  0
    2.5041   11.6579    2.9391 H   0  0  0  0  0  0  0  0  0  0  0  0
    2.0368    8.9643    4.3890 H   0  0  0  0  0  0  0  0  0  0  0  0
    0.7119    8.9216    3.1767 H   0  0  0  0  0  0  0  0  0  0  0  0
    1.9709    7.6403    3.1767 H   0  0  0  0  0  0  0  0  0  0  0  0
    1.6158    9.0547   -1.7087 H   0  0  0  0  0  0  0  0  0  0  0  0
    0.8658   10.1683   -2.9020 H   0  0  0  0  0  0  0  0  0  0  0  0
    2.6445    9.9175   -2.9020 H   0  0  0  0  0  0  0  0  0  0  0  0
    3.8221   12.0257   -1.8820 H   0  0  0  0  0  0  0  0  0  0  0  0
    2.4075   12.2466   -3.0590 H   0  0  0  0  0  0  0  0  0  0  0  0
    3.0103   13.8648   -0.5681 H   0  0  0  0  0  0  0  0  0  0  0  0
    3.0426   14.3969   -2.2953 H   0  0  0  0  0  0  0  0  0  0  0  0
   -0.5970   13.7461   -2.8732 H   0  0  0  0  0  0  0  0  0  0  0  0
    0.6293   14.9134   -3.4733 H   0  0  0  0  0  0  0  0  0  0  0  0
    0.9890   13.1535   -3.4733 H   0  0  0  0  0  0  0  0  0  0  0  0
  1  2  1  0
  2  3  1  0
  3  4  1  0
  4  5  1  0
  5  6  1  0
  6  7  1  0
  7  8  1  0
  7  9  1  0
  2 10  1  0
 10 11  1  0
 11 12  1  0
 12 13  1  0
 13 14  1  1
 13 15  1  0
 15 16  1  0
 16 17  1  0
 17 18  2  0
 18 19  1  0
 19 20  1  0
 20 21  1  0
 21 22  1  0
 22 23  1  0
 22 24  1  0
 24 25  1  0
 24 26  1  0
 19 27  1  0
 27 28  1  6
 27 29  1  0
 29 30  1  0
 30 31  1  0
 31 32  1  6
  7  5  1  0
 31 10  1  0
 31 13  1  0
 27 15  1  0
 24 18  1  0
  1 33  1  0
  1 34  1  0
  1 35  1  0
  2 36  1  6
  3 37  1  0
  3 38  1  0
  4 39  1  0
  4 40  1  0
  5 41  1  1
  8 42  1  0
  8 43  1  0
  8 44  1  0
  9 45  1  0
  9 46  1  0
  9 47  1  0
 10 48  1  1
 11 49  1  0
 11 50  1  0
 12 51  1  0
 12 52  1  0
 14 53  1  0
 14 54  1  0
 14 55  1  0
 15 56  1  6
 16 57  1  0
 16 58  1  0
 17 59  1  0
 19 60  1  1
 20 61  1  0
 20 62  1  0
 21 63  1  0
 21 64  1  0
 22 65  1  1
 23 66  1  0
 25 67  1  0
 25 68  1  0
 25 69  1  0
 26 70  1  0
 26 71  1  0
 26 72  1  0
 28 73  1  0
 28 74  1  0
 28 75  1  0
 29 76  1  0
 29 77  1  0
 30 78  1  0
 30 79  1  0
 32 80  1  0
 32 81  1  0
 32 82  1  0
M  END
>  <meeko>  (15) 
{"is_sidechain": [false], "intermolecular_energy": 2.731, "internal_energy": -0.839}

$$$$
EPH_relaxed_0001_pdb2pqr_Repair_415_r2_0001_out
     RDKit          3D

 82 86  0  0  0  0  0  0  0  0999 V2000
    2.0200   19.1860   -2.2630 C   0  0  0  0  0  0  0  0  0  0  0  0
    1.6050   19.1490   -0.7900 C   0  0  2  0  0  0  0  0  0  0  0  0
    2.7140   19.6800    0.1400 C   0  0  0  0  0  0  0  0  0  0  0  0
    3.4810   18.5770    0.8750 C   0  0  0  0  0  0  0  0  0  0  0  0
    3.6330   18.8850    2.3340 C   0  0  2  0  0  0  0  0  0  0  0  0
    4.1450   20.1940    2.6190 O   0  0  0  0  0  0  0  0  0  0  0  0
    4.9760   19.0890    3.0100 C   0  0  0  0  0  0  0  0  0  0  0  0
    6.2580   18.9910    2.2450 C   0  0  0  0  0  0  0  0  0  0  0  0
    5.0670   18.8980    4.4920 C   0  0  0  0  0  0  0  0  0  0  0  0
    1.2270   17.7270   -0.3920 C   0  0  1  0  0  0  0  0  0  0  0  0
   -0.0850   17.6660    0.4350 C   0  0  0  0  0  0  0  0  0  0  0  0
   -0.8070   16.3550    0.0330 C   0  0  0  0  0  0  0  0  0  0  0  0
    0.2560   15.5490   -0.7510 C   0  0  1  0  0  0  0  0  0  0  0  0
    1.1390   14.8760    0.3460 C   0  0  0  0  0  0  0  0  0  0  0  0
   -0.2890   14.5030   -1.7770 C   0  0  2  0  0  0  0  0  0  0  0  0
   -1.1220   13.3620   -1.1660 C   0  0  0  0  0  0  0  0  0  0  0  0
   -0.3470   12.1500   -0.7670 C   0  0  0  0  0  0  0  0  0  0  0  0
    0.9120   11.8650   -1.1490 C   0  0  0  0  0  0  0  0  0  0  0  0
    1.6530   12.7620   -2.1500 C   0  0  1  0  0  0  0  0  0  0  0  0
    2.3350   11.8800   -3.2290 C   0  0  0  0  0  0  0  0  0  0  0  0
    3.2380   10.8100   -2.6250 C   0  0  0  0  0  0  0  0  0  0  0  0
    2.4530    9.9030   -1.6810 C   0  0  2  0  0  0  0  0  0  0  0  0
    1.5070    9.1500   -2.4460 O   0  0  0  0  0  0  0  0  0  0  0  0
    1.7140   10.6810   -0.5560 C   0  0  0  0  0  0  0  0  0  0  0  0
    2.7470   11.2490    0.4490 C   0  0  0  0  0  0  0  0  0  0  0  0
    0.8490    9.6660    0.2380 C   0  0  0  0  0  0  0  0  0  0  0  0
    0.8030   13.9480   -2.7790 C   0  0  1  0  0  0  0  0  0  0  0  0
    0.0360   13.4440   -4.0390 C   0  0  0  0  0  0  0  0  0  0  0  0
    1.7840   15.0750   -3.2780 C   0  0  0  0  0  0  0  0  0  0  0  0
    2.1910   16.1470   -2.2500 C   0  0  0  0  0  0  0  0  0  0  0  0
    0.9610   16.7160   -1.5350 C   0  0  2  0  0  0  0  0  0  0  0  0
    0.0650   17.4190   -2.6100 C   0  0  0  0  0  0  0  0  0  0  0  0
    3.1134   19.2835   -2.3335 H   0  0  0  0  0  0  0  0  0  0  0  0
    1.7022   18.2560   -2.7570 H   0  0  0  0  0  0  0  0  0  0  0  0
    1.5426   20.0451   -2.7570 H   0  0  0  0  0  0  0  0  0  0  0  0
    0.7340   19.8110   -0.6752 H   0  0  0  0  0  0  0  0  0  0  0  0
    3.4291   20.2559   -0.4658 H   0  0  0  0  0  0  0  0  0  0  0  0
    2.2226   20.2962    0.9074 H   0  0  0  0  0  0  0  0  0  0  0  0
    2.9339   17.6290    0.7659 H   0  0  0  0  0  0  0  0  0  0  0  0
    4.4858   18.5054    0.4332 H   0  0  0  0  0  0  0  0  0  0  0  0
    2.7708   18.2488    2.5828 H   0  0  0  0  0  0  0  0  0  0  0  0
    7.1009   18.9266    2.9488 H   0  0  0  0  0  0  0  0  0  0  0  0
    6.2394   18.0917    1.6119 H   0  0  0  0  0  0  0  0  0  0  0  0
    6.3763   19.8827    1.6119 H   0  0  0  0  0  0  0  0  0  0  0  0
    4.6477   19.7781    5.0016 H   0  0  0  0  0  0  0  0  0  0  0  0
    4.4993   18.0015    4.7817 H   0  0  0  0  0  0  0  0  0  0  0  0
    6.1209   18.7741    4.7817 H   0  0  0  0  0  0  0  0  0  0  0  0
    2.1356   17.4424    0.1588 H   0  0  0  0  0  0  0  0  0  0  0  0
    0.1454   17.6570    1.5106 H   0  0  0  0  0  0  0  0  0  0  0  0
   -0.7186   18.5428    0.2354 H   0  0  0  0  0  0  0  0  0  0  0  0
   -1.1332   15.8017    0.9260 H   0  0  0  0  0  0  0  0  0  0  0  0
   -1.7119   16.5430   -0.5636 H   0  0  0  0  0  0  0  0  0  0  0  0
    0.7667   15.1598    1.3414 H   0  0  0  0  0  0  0  0  0  0  0  0
    1.0919   13.7826    0.2349 H   0  0  0  0  0  0  0  0  0  0  0  0
    2.1807   15.2113    0.2349 H   0  0  0  0  0  0  0  0  0  0  0  0
   -0.9938   15.1021   -2.3722 H   0  0  0  0  0  0  0  0  0  0  0  0
   -1.6277   13.7522   -0.2704 H   0  0  0  0  0  0  0  0  0  0  0  0
   -1.8146   13.0343   -1.9553 H   0  0  0  0  0  0  0  0  0  0  0  0
   -0.8473   11.4284   -0.1044 H   0  0  0  0  0  0  0  0  0  0  0  0
    2.4174   13.2994   -1.5695 H   0  0  0  0  0  0  0  0  0  0  0  0
    1.5541   11.3863   -3.8260 H   0  0  0  0  0  0  0  0  0  0  0  0
    2.9638   12.5367   -3.8482 H   0  0  0  0  0  0  0  0  0  0  0  0
    3.6669   10.2017   -3.4350 H   0  0  0  0  0  0  0  0  0  0  0  0
    4.0358   11.3060   -2.0527 H   0  0  0  0  0  0  0  0  0  0  0  0
    3.1766    9.2420   -1.1815 H   0  0  0  0  0  0  0  0  0  0  0  0
    1.9780    8.3940   -2.8350 H   0  0  0  0  0  0  0  0  0  0  0  0
    2.4019   11.0593    1.4761 H   0  0  0  0  0  0  0  0  0  0  0  0
    3.7190   10.7585    0.2923 H   0  0  0  0  0  0  0  0  0  0  0  0
    2.8535   12.3326    0.2923 H   0  0  0  0  0  0  0  0  0  0  0  0
    0.9888    9.8300    1.3167 H   0  0  0  0  0  0  0  0  0  0  0  0
   -0.2110    9.8069   -0.0200 H   0  0  0  0  0  0  0  0  0  0  0  0
    1.1562    8.6417   -0.0200 H   0  0  0  0  0  0  0  0  0  0  0  0
   -0.8450   12.8651   -3.7248 H   0  0  0  0  0  0  0  0  0  0  0  0
   -0.2874   14.3062   -4.6407 H   0  0  0  0  0  0  0  0  0  0  0  0
    0.6991   12.8050   -4.6407 H   0  0  0  0  0  0  0  0  0  0  0  0
    2.7038   14.5841   -3.6287 H   0  0  0  0  0  0  0  0  0  0  0  0
    1.2263   15.6185   -4.0549 H   0  0  0  0  0  0  0  0  0  0  0  0
    2.8629   15.6950   -1.5056 H   0  0  0  0  0  0  0  0  0  0  0  0
    2.6990   16.9662   -2.7799 H   0  0  0  0  0  0  0  0  0  0  0  0
   -0.7048   18.0230   -2.1075 H   0  0  0  0  0  0  0  0  0  0  0  0
    0.6897   18.0705   -3.2388 H   0  0  0  0  0  0  0  0  0  0  0  0
   -0.4192   16.6573   -3.2388 H   0  0  0  0  0  0  0  0  0  0  0  0
  1  2  1  0
  2  3  1  0
  3  4  1  0
  4  5  1  0
  5  6  1  0
  6  7  1  0
  7  8  1  0
  7  9  1  0
  2 10  1  0
 10 11  1  0
 11 12  1  0
 12 13  1  0
 13 14  1  1
 13 15  1  0
 15 16  1  0
 16 17  1  0
 17 18  2  0
 18 19  1  0
 19 20  1  0
 20 21  1  0
 21 22  1  0
 22 23  1  0
 22 24  1  0
 24 25  1  0
 24 26  1  0
 19 27  1  0
 27 28  1  6
 27 29  1  0
 29 30  1  0
 30 31  1  0
 31 32  1  6
  7  5  1  0
 31 10  1  0
 31 13  1  0
 27 15  1  0
 24 18  1  0
  1 33  1  0
  1 34  1  0
  1 35  1  0
  2 36  1  6
  3 37  1  0
  3 38  1  0
  4 39  1  0
  4 40  1  0
  5 41  1  1
  8 42  1  0
  8 43  1  0
  8 44  1  0
  9 45  1  0
  9 46  1  0
  9 47  1  0
 10 48  1  1
 11 49  1  0
 11 50  1  0
 12 51  1  0
 12 52  1  0
 14 53  1  0
 14 54  1  0
 14 55  1  0
 15 56  1  6
 16 57  1  0
 16 58  1  0
 17 59  1  0
 19 60  1  1
 20 61  1  0
 20 62  1  0
 21 63  1  0
 21 64  1  0
 22 65  1  1
 23 66  1  0
 25 67  1  0
 25 68  1  0
 25 69  1  0
 26 70  1  0
 26 71  1  0
 26 72  1  0
 28 73  1  0
 28 74  1  0
 28 75  1  0
 29 76  1  0
 29 77  1  0
 30 78  1  0
 30 79  1  0
 32 80  1  0
 32 81  1  0
 32 82  1  0
M  END
>  <meeko>  (16) 
{"is_sidechain": [false], "intermolecular_energy": 2.731, "internal_energy": -0.839}

$$$$
EPH_relaxed_0001_pdb2pqr_Repair_415_r2_0001_out
     RDKit          3D

 82 86  0  0  0  0  0  0  0  0999 V2000
    3.2630   18.0580   -3.6300 C   0  0  0  0  0  0  0  0  0  0  0  0
    2.1230   17.9670   -2.6110 C   0  0  2  0  0  0  0  0  0  0  0  0
    2.1040   19.1750   -1.6530 C   0  0  0  0  0  0  0  0  0  0  0  0
    0.8340   20.0240   -1.7590 C   0  0  0  0  0  0  0  0  0  0  0  0
   -0.3520   19.3250   -1.1670 C   0  0  2  0  0  0  0  0  0  0  0  0
   -1.3080   20.1920   -0.5420 O   0  0  0  0  0  0  0  0  0  0  0  0
   -0.6300   19.2670    0.3240 C   0  0  0  0  0  0  0  0  0  0  0  0
    0.2830   19.9180    1.3140 C   0  0  0  0  0  0  0  0  0  0  0  0
   -1.5110   18.1750    0.8450 C   0  0  0  0  0  0  0  0  0  0  0  0
    2.2400   16.6720   -1.8160 C   0  0  1  0  0  0  0  0  0  0  0  0
    2.4690   16.9200   -0.3010 C   0  0  0  0  0  0  0  0  0  0  0  0
    1.7240   15.7900    0.4550 C   0  0  0  0  0  0  0  0  0  0  0  0
    1.3760   14.7530   -0.6390 C   0  0  1  0  0  0  0  0  0  0  0  0
    2.6850   13.9280   -0.8400 C   0  0  0  0  0  0  0  0  0  0  0  0
    0.1500   13.8280   -0.3480 C   0  0  2  0  0  0  0  0  0  0  0  0
    0.2990   12.9130    0.8790 C   0  0  0  0  0  0  0  0  0  0  0  0
    0.8900   11.5700    0.6050 C   0  0  0  0  0  0  0  0  0  0  0  0
    1.0230   11.0070   -0.6100 C   0  0  0  0  0  0  0  0  0  0  0  0
    0.4650   11.6950   -1.8620 C   0  0  1  0  0  0  0  0  0  0  0  0
   -0.3100   10.6610   -2.7200 C   0  0  0  0  0  0  0  0  0  0  0  0
    0.5300    9.4320   -3.0560 C   0  0  0  0  0  0  0  0  0  0  0  0
    1.0190    8.7420   -1.7850 C   0  0  2  0  0  0  0  0  0  0  0  0
   -0.1090    8.1970   -1.0930 O   0  0  0  0  0  0  0  0  0  0  0  0
    1.8050    9.6900   -0.8360 C   0  0  0  0  0  0  0  0  0  0  0  0
    3.1750   10.0400   -1.4690 C   0  0  0  0  0  0  0  0  0  0  0  0
    2.1180    8.9080    0.4680 C   0  0  0  0  0  0  0  0  0  0  0  0
   -0.3690   13.0240   -1.6090 C   0  0  1  0  0  0  0  0  0  0  0  0
   -1.8620   12.6710   -1.3290 C   0  0  0  0  0  0  0  0  0  0  0  0
   -0.3580   13.8960   -2.9200 C   0  0  0  0  0  0  0  0  0  0  0  0
    0.8180   14.8770   -3.0930 C   0  0  0  0  0  0  0  0  0  0  0  0
    1.0200   15.7170   -1.8280 C   0  0  2  0  0  0  0  0  0  0  0  0
   -0.2730   16.5760   -1.6120 C   0  0  0  0  0  0  0  0  0  0  0  0
    4.2236   18.1347   -3.0996 H   0  0  0  0  0  0  0  0  0  0  0  0
    3.2635   17.1570   -4.2611 H   0  0  0  0  0  0  0  0  0  0  0  0
    3.1206   18.9476   -4.2611 H   0  0  0  0  0  0  0  0  0  0  0  0
    1.1759   17.9750   -3.1704 H   0  0  0  0  0  0  0  0  0  0  0  0
    2.1873   18.8018   -0.6216 H   0  0  0  0  0  0  0  0  0  0  0  0
    2.9479   19.8220   -1.9343 H   0  0  0  0  0  0  0  0  0  0  0  0
    0.9931   20.9716   -1.2234 H   0  0  0  0  0  0  0  0  0  0  0  0
    0.6294   20.2027   -2.8249 H   0  0  0  0  0  0  0  0  0  0  0  0
   -0.3078   18.5442   -1.9405 H   0  0  0  0  0  0  0  0  0  0  0  0
   -0.0521   19.6791    2.3341 H   0  0  0  0  0  0  0  0  0  0  0  0
    1.3077   19.5455    1.1680 H   0  0  0  0  0  0  0  0  0  0  0  0
    0.2648   21.0081    1.1680 H   0  0  0  0  0  0  0  0  0  0  0  0
   -1.5001   18.1885    1.9449 H   0  0  0  0  0  0  0  0  0  0  0  0
   -2.5392   18.3309    0.4865 H   0  0  0  0  0  0  0  0  0  0  0  0
   -1.1412   17.2030    0.4865 H   0  0  0  0  0  0  0  0  0  0  0  0
    3.0863   16.2078   -2.3435 H   0  0  0  0  0  0  0  0  0  0  0  0
    3.5439   16.8857   -0.0698 H   0  0  0  0  0  0  0  0  0  0  0  0
    2.0935   17.9096   -0.0017 H   0  0  0  0  0  0  0  0  0  0  0  0
    2.3730   15.3424    1.2221 H   0  0  0  0  0  0  0  0  0  0  0  0
    0.8305   16.1580    0.9806 H   0  0  0  0  0  0  0  0  0  0  0  0
    3.1056   13.6629    0.1412 H   0  0  0  0  0  0  0  0  0  0  0  0
    2.4572   13.0099   -1.4015 H   0  0  0  0  0  0  0  0  0  0  0  0
    3.4150   14.5296   -1.4015 H   0  0  0  0  0  0  0  0  0  0  0  0
   -0.6347   14.5529   -0.0858 H   0  0  0  0  0  0  0  0  0  0  0  0
    0.9432   13.4253    1.6088 H   0  0  0  0  0  0  0  0  0  0  0  0
   -0.7213   12.7273    1.2458 H   0  0  0  0  0  0  0  0  0  0  0  0
    1.2471   10.9914    1.4697 H   0  0  0  0  0  0  0  0  0  0  0  0
    1.3381   12.0637   -2.4203 H   0  0  0  0  0  0  0  0  0  0  0  0
   -1.2011   10.3372   -2.1623 H   0  0  0  0  0  0  0  0  0  0  0  0
   -0.5807   11.1495   -3.6677 H   0  0  0  0  0  0  0  0  0  0  0  0
   -0.0815    8.7257   -3.6367 H   0  0  0  0  0  0  0  0  0  0  0  0
    1.4049    9.7534   -3.6401 H   0  0  0  0  0  0  0  0  0  0  0  0
    1.7198    7.9505   -2.0888 H   0  0  0  0  0  0  0  0  0  0  0  0
   -0.8260    8.8530   -1.1380 H   0  0  0  0  0  0  0  0  0  0  0  0
    3.9098   10.2277   -0.6722 H   0  0  0  0  0  0  0  0  0  0  0  0
    3.5163    9.2002   -2.0921 H   0  0  0  0  0  0  0  0  0  0  0  0
    3.0717   10.9406   -2.0921 H   0  0  0  0  0  0  0  0  0  0  0  0
    1.8682    9.5321    1.3387 H   0  0  0  0  0  0  0  0  0  0  0  0
    1.5200    7.9852    0.4946 H   0  0  0  0  0  0  0  0  0  0  0  0
    3.1876    8.6527    0.4946 H   0  0  0  0  0  0  0  0  0  0  0  0
   -2.0318   12.6308   -0.2429 H   0  0  0  0  0  0  0  0  0  0  0  0
   -2.5103   13.4406   -1.7733 H   0  0  0  0  0  0  0  0  0  0  0  0
   -2.0970   11.6925   -1.7733 H   0  0  0  0  0  0  0  0  0  0  0  0
   -0.3455   13.2072   -3.7776 H   0  0  0  0  0  0  0  0  0  0  0  0
   -1.2539   14.5305   -2.8508 H   0  0  0  0  0  0  0  0  0  0  0  0
    1.7360   14.3063   -3.2967 H   0  0  0  0  0  0  0  0  0  0  0  0
    0.5916   15.5526   -3.9310 H   0  0  0  0  0  0  0  0  0  0  0  0
   -0.4564   16.6979   -0.5343 H   0  0  0  0  0  0  0  0  0  0  0  0
   -0.1380   17.5646   -2.0751 H   0  0  0  0  0  0  0  0  0  0  0  0
   -1.1320   16.0684   -2.0751 H   0  0  0  0  0  0  0  0  0  0  0  0
  1  2  1  0
  2  3  1  0
  3  4  1  0
  4  5  1  0
  5  6  1  0
  6  7  1  0
  7  8  1  0
  7  9  1  0
  2 10  1  0
 10 11  1  0
 11 12  1  0
 12 13  1  0
 13 14  1  6
 13 15  1  0
 15 16  1  0
 16 17  1  0
 17 18  2  0
 18 19  1  0
 19 20  1  0
 20 21  1  0
 21 22  1  0
 22 23  1  0
 22 24  1  0
 24 25  1  0
 24 26  1  0
 19 27  1  0
 27 28  1  1
 27 29  1  0
 29 30  1  0
 30 31  1  0
 31 32  1  1
  7  5  1  0
 31 10  1  0
 31 13  1  0
 27 15  1  0
 24 18  1  0
  1 33  1  0
  1 34  1  0
  1 35  1  0
  2 36  1  6
  3 37  1  0
  3 38  1  0
  4 39  1  0
  4 40  1  0
  5 41  1  6
  8 42  1  0
  8 43  1  0
  8 44  1  0
  9 45  1  0
  9 46  1  0
  9 47  1  0
 10 48  1  6
 11 49  1  0
 11 50  1  0
 12 51  1  0
 12 52  1  0
 14 53  1  0
 14 54  1  0
 14 55  1  0
 15 56  1  1
 16 57  1  0
 16 58  1  0
 17 59  1  0
 19 60  1  6
 20 61  1  0
 20 62  1  0
 21 63  1  0
 21 64  1  0
 22 65  1  6
 23 66  1  0
 25 67  1  0
 25 68  1  0
 25 69  1  0
 26 70  1  0
 26 71  1  0
 26 72  1  0
 28 73  1  0
 28 74  1  0
 28 75  1  0
 29 76  1  0
 29 77  1  0
 30 78  1  0
 30 79  1  0
 32 80  1  0
 32 81  1  0
 32 82  1  0
M  END
>  <meeko>  (17) 
{"is_sidechain": [false], "intermolecular_energy": 2.731, "internal_energy": -0.839}

$$$$
EPH_relaxed_0001_pdb2pqr_Repair_415_r2_0001_out
     RDKit          3D

 82 86  0  0  0  0  0  0  0  0999 V2000
    0.3940    8.8390   -2.1900 C   0  0  0  0  0  0  0  0  0  0  0  0
    1.1060    9.9630   -2.9480 C   0  0  2  0  0  0  0  0  0  0  0  0
    2.6180    9.9990   -2.6480 C   0  0  0  0  0  0  0  0  0  0  0  0
    3.4500   10.6530   -3.7540 C   0  0  0  0  0  0  0  0  0  0  0  0
    4.8640   10.8900   -3.3170 C   0  0  2  0  0  0  0  0  0  0  0  0
    5.4790   12.0540   -3.8850 O   0  0  0  0  0  0  0  0  0  0  0  0
    6.0560   10.7900   -4.2510 C   0  0  0  0  0  0  0  0  0  0  0  0
    5.8870   10.4400   -5.6960 C   0  0  0  0  0  0  0  0  0  0  0  0
    7.4100   10.5520   -3.6600 C   0  0  0  0  0  0  0  0  0  0  0  0
    0.4740   11.3060   -2.6010 C   0  0  1  0  0  0  0  0  0  0  0  0
   -0.8860   11.1540   -1.8690 C   0  0  0  0  0  0  0  0  0  0  0  0
   -0.9790   12.3200   -0.8520 C   0  0  0  0  0  0  0  0  0  0  0  0
    0.1600   13.2840   -1.2580 C   0  0  1  0  0  0  0  0  0  0  0  0
   -0.4180   14.1100   -2.4500 C   0  0  0  0  0  0  0  0  0  0  0  0
    0.7170   14.2110   -0.1290 C   0  0  2  0  0  0  0  0  0  0  0  0
   -0.3010   15.2020    0.4620 C   0  0  0  0  0  0  0  0  0  0  0  0
   -0.3620   16.5320   -0.2130 C   0  0  0  0  0  0  0  0  0  0  0  0
    0.5600   17.0210   -1.0640 C   0  0  0  0  0  0  0  0  0  0  0  0
    1.8550   16.2500   -1.3490 C   0  0  1  0  0  0  0  0  0  0  0  0
    3.0630   17.2210   -1.2720 C   0  0  0  0  0  0  0  0  0  0  0  0
    2.8950   18.4360   -2.1800 C   0  0  0  0  0  0  0  0  0  0  0  0
    1.6260   19.2090   -1.8280 C   0  0  2  0  0  0  0  0  0  0  0  0
    1.7820   19.7820   -0.5270 O   0  0  0  0  0  0  0  0  0  0  0  0
    0.3440   18.3300   -1.8620 C   0  0  0  0  0  0  0  0  0  0  0  0
    0.0080   17.9570   -3.3270 C   0  0  0  0  0  0  0  0  0  0  0  0
   -0.8400   19.1940   -1.3520 C   0  0  0  0  0  0  0  0  0  0  0  0
    2.0790   14.9300   -0.4930 C   0  0  1  0  0  0  0  0  0  0  0  0
    2.7710   15.2830    0.8590 C   0  0  0  0  0  0  0  0  0  0  0  0
    3.0700   13.9790   -1.2630 C   0  0  0  0  0  0  0  0  0  0  0  0
    2.4470   13.0030   -2.2790 C   0  0  0  0  0  0  0  0  0  0  0  0
    1.2690   12.2440   -1.6590 C   0  0  2  0  0  0  0  0  0  0  0  0
    1.8250   11.3870   -0.4720 C   0  0  0  0  0  0  0  0  0  0  0  0
    0.4982    9.0035   -1.1074 H   0  0  0  0  0  0  0  0  0  0  0  0
   -0.6726    8.8336   -2.4591 H   0  0  0  0  0  0  0  0  0  0  0  0
    0.8449    7.8724   -2.4591 H   0  0  0  0  0  0  0  0  0  0  0  0
    0.9876    9.7633   -4.0232 H   0  0  0  0  0  0  0  0  0  0  0  0
    2.7738   10.5632   -1.7167 H   0  0  0  0  0  0  0  0  0  0  0  0
    2.9545    8.9548   -2.5678 H   0  0  0  0  0  0  0  0  0  0  0  0
    3.4547    9.9932   -4.6341 H   0  0  0  0  0  0  0  0  0  0  0  0
    2.9973   11.6265   -3.9937 H   0  0  0  0  0  0  0  0  0  0  0  0
    4.6591   10.4456   -2.3318 H   0  0  0  0  0  0  0  0  0  0  0  0
    5.4101    9.4524   -5.7807 H   0  0  0  0  0  0  0  0  0  0  0  0
    5.2545   11.1957   -6.1848 H   0  0  0  0  0  0  0  0  0  0  0  0
    6.8721   10.4146   -6.1848 H   0  0  0  0  0  0  0  0  0  0  0  0
    7.3384   10.5646   -2.5624 H   0  0  0  0  0  0  0  0  0  0  0  0
    7.7880    9.5736   -3.9916 H   0  0  0  0  0  0  0  0  0  0  0  0
    8.0990   11.3428   -3.9916 H   0  0  0  0  0  0  0  0  0  0  0  0
    0.4131   11.7468   -3.6070 H   0  0  0  0  0  0  0  0  0  0  0  0
   -1.7137   11.2142   -2.5911 H   0  0  0  0  0  0  0  0  0  0  0  0
   -0.9547   10.1806   -1.3613 H   0  0  0  0  0  0  0  0  0  0  0  0
   -1.9557   12.8209   -0.9238 H   0  0  0  0  0  0  0  0  0  0  0  0
   -0.8824   11.9749    0.1880 H   0  0  0  0  0  0  0  0  0  0  0  0
   -1.0077   14.9528   -2.0602 H   0  0  0  0  0  0  0  0  0  0  0  0
    0.4091   14.4945   -3.0648 H   0  0  0  0  0  0  0  0  0  0  0  0
   -1.0626   13.4647   -3.0648 H   0  0  0  0  0  0  0  0  0  0  0  0
    0.9397   13.4950    0.6758 H   0  0  0  0  0  0  0  0  0  0  0  0
   -1.2985   14.7427    0.3988 H   0  0  0  0  0  0  0  0  0  0  0  0
    0.0290   15.3987    1.4927 H   0  0  0  0  0  0  0  0  0  0  0  0
   -1.2342   17.1665    0.0031 H   0  0  0  0  0  0  0  0  0  0  0  0
    1.7558   15.8567   -2.3715 H   0  0  0  0  0  0  0  0  0  0  0  0
    3.1706   17.5686   -0.2339 H   0  0  0  0  0  0  0  0  0  0  0  0
    3.9548   16.6724   -1.6093 H   0  0  0  0  0  0  0  0  0  0  0  0
    3.7650   19.0983   -2.0598 H   0  0  0  0  0  0  0  0  0  0  0  0
    2.8171   18.0885   -3.2207 H   0  0  0  0  0  0  0  0  0  0  0  0
    1.4917   19.9888   -2.5921 H   0  0  0  0  0  0  0  0  0  0  0  0
    1.6420   19.0750    0.1250 H   0  0  0  0  0  0  0  0  0  0  0  0
   -0.7282   17.1397   -3.3377 H   0  0  0  0  0  0  0  0  0  0  0  0
   -0.4106   18.8343   -3.8420 H   0  0  0  0  0  0  0  0  0  0  0  0
    0.9241   17.6320   -3.8420 H   0  0  0  0  0  0  0  0  0  0  0  0
   -0.8444   19.1972   -0.2520 H   0  0  0  0  0  0  0  0  0  0  0  0
   -0.7280   20.2241   -1.7212 H   0  0  0  0  0  0  0  0  0  0  0  0
   -1.7868   18.7731   -1.7212 H   0  0  0  0  0  0  0  0  0  0  0  0
    2.1327   14.9574    1.6936 H   0  0  0  0  0  0  0  0  0  0  0  0
    3.7424   14.7703    0.9186 H   0  0  0  0  0  0  0  0  0  0  0  0
    2.9261   16.3704    0.9186 H   0  0  0  0  0  0  0  0  0  0  0  0
    3.7854   14.6136   -1.8066 H   0  0  0  0  0  0  0  0  0  0  0  0
    3.5175   13.3403   -0.4872 H   0  0  0  0  0  0  0  0  0  0  0  0
    2.0904   13.5706   -3.1512 H   0  0  0  0  0  0  0  0  0  0  0  0
    3.2137   12.2744   -2.5811 H   0  0  0  0  0  0  0  0  0  0  0  0
    1.5273   11.8458    0.4824 H   0  0  0  0  0  0  0  0  0  0  0  0
    1.4156   10.3678   -0.5323 H   0  0  0  0  0  0  0  0  0  0  0  0
    2.9226   11.3455   -0.5323 H   0  0  0  0  0  0  0  0  0  0  0  0
  1  2  1  0
  2  3  1  0
  3  4  1  0
  4  5  1  0
  5  6  1  0
  6  7  1  0
  7  8  1  0
  7  9  1  0
  2 10  1  0
 10 11  1  0
 11 12  1  0
 12 13  1  0
 13 14  1  6
 13 15  1  0
 15 16  1  0
 16 17  1  0
 17 18  2  0
 18 19  1  0
 19 20  1  0
 20 21  1  0
 21 22  1  0
 22 23  1  0
 22 24  1  0
 24 25  1  0
 24 26  1  0
 19 27  1  0
 27 28  1  1
 27 29  1  0
 29 30  1  0
 30 31  1  0
 31 32  1  1
  7  5  1  0
 31 10  1  0
 31 13  1  0
 27 15  1  0
 24 18  1  0
  1 33  1  0
  1 34  1  0
  1 35  1  0
  2 36  1  6
  3 37  1  0
  3 38  1  0
  4 39  1  0
  4 40  1  0
  5 41  1  1
  8 42  1  0
  8 43  1  0
  8 44  1  0
  9 45  1  0
  9 46  1  0
  9 47  1  0
 10 48  1  6
 11 49  1  0
 11 50  1  0
 12 51  1  0
 12 52  1  0
 14 53  1  0
 14 54  1  0
 14 55  1  0
 15 56  1  1
 16 57  1  0
 16 58  1  0
 17 59  1  0
 19 60  1  6
 20 61  1  0
 20 62  1  0
 21 63  1  0
 21 64  1  0
 22 65  1  6
 23 66  1  0
 25 67  1  0
 25 68  1  0
 25 69  1  0
 26 70  1  0
 26 71  1  0
 26 72  1  0
 28 73  1  0
 28 74  1  0
 28 75  1  0
 29 76  1  0
 29 77  1  0
 30 78  1  0
 30 79  1  0
 32 80  1  0
 32 81  1  0
 32 82  1  0
M  END
>  <meeko>  (18) 
{"is_sidechain": [false], "intermolecular_energy": 2.731, "internal_energy": -0.839}

$$$$
EPH_relaxed_0001_pdb2pqr_Repair_415_r2_0001_out
     RDKit          3D

 82 86  0  0  0  0  0  0  0  0999 V2000
    2.2720   12.5510   -5.3100 C   0  0  0  0  0  0  0  0  0  0  0  0
    0.9420   13.2550   -5.0250 C   0  0  2  0  0  0  0  0  0  0  0  0
    0.9600   14.7310   -5.4700 C   0  0  0  0  0  0  0  0  0  0  0  0
    0.4430   15.7010   -4.4040 C   0  0  0  0  0  0  0  0  0  0  0  0
    1.5460   16.1790   -3.5080 C   0  0  2  0  0  0  0  0  0  0  0  0
    1.2850   16.0310   -2.1070 O   0  0  0  0  0  0  0  0  0  0  0  0
    1.4150   17.3790   -2.5880 C   0  0  0  0  0  0  0  0  0  0  0  0
    0.1500   18.1740   -2.5180 C   0  0  0  0  0  0  0  0  0  0  0  0
    2.6620   18.0660   -2.1270 C   0  0  0  0  0  0  0  0  0  0  0  0
    0.6130   13.1620   -3.5400 C   0  0  1  0  0  0  0  0  0  0  0  0
   -0.8510   13.5690   -3.2250 C   0  0  0  0  0  0  0  0  0  0  0  0
   -1.3240   12.6700   -2.0540 C   0  0  0  0  0  0  0  0  0  0  0  0
   -0.0290   12.0160   -1.5180 C   0  0  1  0  0  0  0  0  0  0  0  0
    0.6130   13.0970   -0.5940 C   0  0  0  0  0  0  0  0  0  0  0  0
   -0.2010   10.6510   -0.7750 C   0  0  2  0  0  0  0  0  0  0  0  0
   -1.0480   10.7080    0.5080 C   0  0  0  0  0  0  0  0  0  0  0  0
   -0.2860   10.9750    1.7640 C   0  0  0  0  0  0  0  0  0  0  0  0
    1.0490   10.8790    1.9040 C   0  0  0  0  0  0  0  0  0  0  0  0
    1.9280   10.3730    0.7520 C   0  0  1  0  0  0  0  0  0  0  0  0
    2.9360    9.3250    1.2920 C   0  0  0  0  0  0  0  0  0  0  0  0
    3.7570    9.8530    2.4640 C   0  0  0  0  0  0  0  0  0  0  0  0
    2.8510   10.2920    3.6110 C   0  0  2  0  0  0  0  0  0  0  0  0
    2.2000    9.1380    4.1520 O   0  0  0  0  0  0  0  0  0  0  0  0
    1.7870   11.3410    3.1850 C   0  0  0  0  0  0  0  0  0  0  0  0
    2.4800   12.6930    2.8850 C   0  0  0  0  0  0  0  0  0  0  0  0
    0.8510   11.5920    4.3970 C   0  0  0  0  0  0  0  0  0  0  0  0
    1.1530    9.8660   -0.5400 C   0  0  1  0  0  0  0  0  0  0  0  0
    0.7730    8.3620   -0.3760 C   0  0  0  0  0  0  0  0  0  0  0  0
    2.1160    9.9480   -1.7820 C   0  0  0  0  0  0  0  0  0  0  0  0
    2.1520   11.2860   -2.5460 C   0  0  0  0  0  0  0  0  0  0  0  0
    0.7360   11.7710   -2.8690 C   0  0  2  0  0  0  0  0  0  0  0  0
    0.0720   10.7140   -3.8160 C   0  0  0  0  0  0  0  0  0  0  0  0
    2.7610   12.2922   -4.3593 H   0  0  0  0  0  0  0  0  0  0  0  0
    2.0850   11.6338   -5.8877 H   0  0  0  0  0  0  0  0  0  0  0  0
    2.9253   13.2214   -5.8877 H   0  0  0  0  0  0  0  0  0  0  0  0
    0.1639   12.7434   -5.6105 H   0  0  0  0  0  0  0  0  0  0  0  0
    1.9958   15.0066   -5.7175 H   0  0  0  0  0  0  0  0  0  0  0  0
    0.2857   14.8145   -6.3351 H   0  0  0  0  0  0  0  0  0  0  0  0
   -0.0127   16.5691   -4.9028 H   0  0  0  0  0  0  0  0  0  0  0  0
   -0.2953   15.1695   -3.7856 H   0  0  0  0  0  0  0  0  0  0  0  0
    2.3051   15.9004   -4.2537 H   0  0  0  0  0  0  0  0  0  0  0  0
   -0.1190   18.3431   -1.4649 H   0  0  0  0  0  0  0  0  0  0  0  0
    0.2972   19.1422   -3.0188 H   0  0  0  0  0  0  0  0  0  0  0  0
   -0.6586   17.6214   -3.0188 H   0  0  0  0  0  0  0  0  0  0  0  0
    2.6877   18.0802   -1.0274 H   0  0  0  0  0  0  0  0  0  0  0  0
    3.5408   17.5247   -2.5074 H   0  0  0  0  0  0  0  0  0  0  0  0
    2.6741   19.0981   -2.5074 H   0  0  0  0  0  0  0  0  0  0  0  0
    1.3797   13.8417   -3.1397 H   0  0  0  0  0  0  0  0  0  0  0  0
   -0.8946   14.6280   -2.9308 H   0  0  0  0  0  0  0  0  0  0  0  0
   -1.4951   13.4393   -4.1072 H   0  0  0  0  0  0  0  0  0  0  0  0
   -1.8071   13.2735   -1.2715 H   0  0  0  0  0  0  0  0  0  0  0  0
   -2.0669   11.9244   -2.3737 H   0  0  0  0  0  0  0  0  0  0  0  0
    0.4503   12.8230    0.4588 H   0  0  0  0  0  0  0  0  0  0  0  0
    1.6929   13.1564   -0.7947 H   0  0  0  0  0  0  0  0  0  0  0  0
    0.1485   14.0737   -0.7947 H   0  0  0  0  0  0  0  0  0  0  0  0
   -0.7898   10.0635   -1.4948 H   0  0  0  0  0  0  0  0  0  0  0  0
   -1.7947   11.5067    0.3871 H   0  0  0  0  0  0  0  0  0  0  0  0
   -1.4887    9.7071    0.6264 H   0  0  0  0  0  0  0  0  0  0  0  0
   -0.8648   11.2756    2.6498 H   0  0  0  0  0  0  0  0  0  0  0  0
    2.4705   11.2521    0.3740 H   0  0  0  0  0  0  0  0  0  0  0  0
    2.3778    8.4373    1.6241 H   0  0  0  0  0  0  0  0  0  0  0  0
    3.6344    9.0827    0.4774 H   0  0  0  0  0  0  0  0  0  0  0  0
    4.4288    9.0580    2.8200 H   0  0  0  0  0  0  0  0  0  0  0  0
    4.3373   10.7228    2.1224 H   0  0  0  0  0  0  0  0  0  0  0  0
    3.4866   10.7795    4.3649 H   0  0  0  0  0  0  0  0  0  0  0  0
    2.6920    8.8670    4.9450 H   0  0  0  0  0  0  0  0  0  0  0  0
    2.7357   13.1919    3.8314 H   0  0  0  0  0  0  0  0  0  0  0  0
    3.3975   12.5140    2.3052 H   0  0  0  0  0  0  0  0  0  0  0  0
    1.7990   13.3334    2.3052 H   0  0  0  0  0  0  0  0  0  0  0  0
    1.4122   11.4415    5.3310 H   0  0  0  0  0  0  0  0  0  0  0  0
    0.4713   12.6237    4.3596 H   0  0  0  0  0  0  0  0  0  0  0  0
    0.0060   10.8887    4.3596 H   0  0  0  0  0  0  0  0  0  0  0  0
    0.7104    8.1142    0.6939 H   0  0  0  0  0  0  0  0  0  0  0  0
   -0.2005    8.1756   -0.8531 H   0  0  0  0  0  0  0  0  0  0  0  0
    1.5411    7.7356   -0.8531 H   0  0  0  0  0  0  0  0  0  0  0  0
    3.1360    9.7402   -1.4265 H   0  0  0  0  0  0  0  0  0  0  0  0
    1.7206    9.2161   -2.5017 H   0  0  0  0  0  0  0  0  0  0  0  0
    2.6582   12.0407   -1.9262 H   0  0  0  0  0  0  0  0  0  0  0  0
    2.6953   11.1360   -3.4906 H   0  0  0  0  0  0  0  0  0  0  0  0
   -0.4168    9.9359   -3.2114 H   0  0  0  0  0  0  0  0  0  0  0  0
   -0.6772   11.2098   -4.4507 H   0  0  0  0  0  0  0  0  0  0  0  0
    0.8439   10.2543   -4.4507 H   0  0  0  0  0  0  0  0  0  0  0  0
  1  2  1  0
  2  3  1  0
  3  4  1  0
  4  5  1  0
  5  6  1  0
  6  7  1  0
  7  8  1  0
  7  9  1  0
  2 10  1  0
 10 11  1  0
 11 12  1  0
 12 13  1  0
 13 14  1  1
 13 15  1  0
 15 16  1  0
 16 17  1  0
 17 18  2  0
 18 19  1  0
 19 20  1  0
 20 21  1  0
 21 22  1  0
 22 23  1  0
 22 24  1  0
 24 25  1  0
 24 26  1  0
 19 27  1  0
 27 28  1  1
 27 29  1  0
 29 30  1  0
 30 31  1  0
 31 32  1  6
  7  5  1  0
 31 10  1  0
 31 13  1  0
 27 15  1  0
 24 18  1  0
  1 33  1  0
  1 34  1  0
  1 35  1  0
  2 36  1  6
  3 37  1  0
  3 38  1  0
  4 39  1  0
  4 40  1  0
  5 41  1  6
  8 42  1  0
  8 43  1  0
  8 44  1  0
  9 45  1  0
  9 46  1  0
  9 47  1  0
 10 48  1  1
 11 49  1  0
 11 50  1  0
 12 51  1  0
 12 52  1  0
 14 53  1  0
 14 54  1  0
 14 55  1  0
 15 56  1  6
 16 57  1  0
 16 58  1  0
 17 59  1  0
 19 60  1  6
 20 61  1  0
 20 62  1  0
 21 63  1  0
 21 64  1  0
 22 65  1  1
 23 66  1  0
 25 67  1  0
 25 68  1  0
 25 69  1  0
 26 70  1  0
 26 71  1  0
 26 72  1  0
 28 73  1  0
 28 74  1  0
 28 75  1  0
 29 76  1  0
 29 77  1  0
 30 78  1  0
 30 79  1  0
 32 80  1  0
 32 81  1  0
 32 82  1  0
M  END
>  <meeko>  (19) 
{"is_sidechain": [false], "intermolecular_energy": 2.731, "internal_energy": -0.839}

$$$$
EPH_relaxed_0001_pdb2pqr_Repair_415_r2_0001_out
     RDKit          3D

 82 86  0  0  0  0  0  0  0  0999 V2000
   -0.6570   10.3520   -3.1510 C   0  0  0  0  0  0  0  0  0  0  0  0
    0.0850   10.0720   -1.8410 C   0  0  2  0  0  0  0  0  0  0  0  0
   -0.6920    9.1010   -0.9290 C   0  0  0  0  0  0  0  0  0  0  0  0
   -1.9570    8.5300   -1.5750 C   0  0  0  0  0  0  0  0  0  0  0  0
   -3.2000    9.0950   -0.9550 C   0  0  2  0  0  0  0  0  0  0  0  0
   -3.6650    8.3890    0.2030 O   0  0  0  0  0  0  0  0  0  0  0  0
   -4.5320    8.3700   -0.9430 C   0  0  0  0  0  0  0  0  0  0  0  0
   -4.6910    7.0180   -1.5640 C   0  0  0  0  0  0  0  0  0  0  0  0
   -5.7830    9.1740   -0.7650 C   0  0  0  0  0  0  0  0  0  0  0  0
    0.3490   11.3800   -1.1040 C   0  0  1  0  0  0  0  0  0  0  0  0
    1.4250   11.2340    0.0040 C   0  0  0  0  0  0  0  0  0  0  0  0
    2.2160   12.5670    0.0390 C   0  0  0  0  0  0  0  0  0  0  0  0
    1.3680   13.5450   -0.8070 C   0  0  1  0  0  0  0  0  0  0  0  0
    0.2450   14.0400    0.1580 C   0  0  0  0  0  0  0  0  0  0  0  0
    2.1370   14.7400   -1.4590 C   0  0  2  0  0  0  0  0  0  0  0  0
    2.7930   15.7140   -0.4650 C   0  0  0  0  0  0  0  0  0  0  0  0
    1.9400   16.8620   -0.0390 C   0  0  0  0  0  0  0  0  0  0  0  0
    0.8080   17.2630   -0.6460 C   0  0  0  0  0  0  0  0  0  0  0  0
    0.3320   16.5970   -1.9440 C   0  0  1  0  0  0  0  0  0  0  0  0
   -0.0770   17.6900   -2.9660 C   0  0  0  0  0  0  0  0  0  0  0  0
   -1.1040   18.6660   -2.4010 C   0  0  0  0  0  0  0  0  0  0  0  0
   -0.5710   19.3510   -1.1450 C   0  0  2  0  0  0  0  0  0  0  0  0
    0.5260   20.1930   -1.5090 O   0  0  0  0  0  0  0  0  0  0  0  0
   -0.1190   18.3490   -0.0460 C   0  0  0  0  0  0  0  0  0  0  0  0
   -1.3590   17.6480    0.5620 C   0  0  0  0  0  0  0  0  0  0  0  0
    0.5270   19.1640    1.1070 C   0  0  0  0  0  0  0  0  0  0  0  0
    1.3130   15.5140   -2.5670 C   0  0  1  0  0  0  0  0  0  0  0  0
    2.3570   16.2110   -3.4920 C   0  0  0  0  0  0  0  0  0  0  0  0
    0.4850   14.5390   -3.4870 C   0  0  0  0  0  0  0  0  0  0  0  0
   -0.1500   13.3130   -2.8050 C   0  0  0  0  0  0  0  0  0  0  0  0
    0.8760   12.5730   -1.9400 C   0  0  2  0  0  0  0  0  0  0  0  0
    2.0070   12.0440   -2.8870 C   0  0  0  0  0  0  0  0  0  0  0  0
   -1.6647   10.7323   -2.9276 H   0  0  0  0  0  0  0  0  0  0  0  0
   -0.1025   11.1027   -3.7332 H   0  0  0  0  0  0  0  0  0  0  0  0
   -0.7367    9.4221   -3.7332 H   0  0  0  0  0  0  0  0  0  0  0  0
    1.0399    9.5902   -2.0980 H   0  0  0  0  0  0  0  0  0  0  0  0
   -0.0279    8.2643   -0.6667 H   0  0  0  0  0  0  0  0  0  0  0  0
   -1.0122    9.6748   -0.0468 H   0  0  0  0  0  0  0  0  0  0  0  0
   -1.9509    8.7742   -2.6475 H   0  0  0  0  0  0  0  0  0  0  0  0
   -1.9603    7.4412   -1.4186 H   0  0  0  0  0  0  0  0  0  0  0  0
   -2.9174   10.1137   -1.2591 H   0  0  0  0  0  0  0  0  0  0  0  0
   -4.7802    6.2592   -0.7726 H   0  0  0  0  0  0  0  0  0  0  0  0
   -5.5968    7.0053   -2.1880 H   0  0  0  0  0  0  0  0  0  0  0  0
   -3.8128    6.7955   -2.1880 H   0  0  0  0  0  0  0  0  0  0  0  0
   -5.9856    9.3042    0.3083 H   0  0  0  0  0  0  0  0  0  0  0  0
   -5.6555   10.1597   -1.2363 H   0  0  0  0  0  0  0  0  0  0  0  0
   -6.6267    8.6486   -1.2363 H   0  0  0  0  0  0  0  0  0  0  0  0
   -0.6664   11.5948   -0.7395 H   0  0  0  0  0  0  0  0  0  0  0  0
    0.9446   11.0531    0.9769 H   0  0  0  0  0  0  0  0  0  0  0  0
    2.0923   10.3845   -0.2035 H   0  0  0  0  0  0  0  0  0  0  0  0
    2.3158   12.9325    1.0717 H   0  0  0  0  0  0  0  0  0  0  0  0
    3.2385   12.4561   -0.3510 H   0  0  0  0  0  0  0  0  0  0  0  0
    0.5678   13.8977    1.1999 H   0  0  0  0  0  0  0  0  0  0  0  0
    0.0502   15.1074   -0.0230 H   0  0  0  0  0  0  0  0  0  0  0  0
   -0.6743   13.4637   -0.0230 H   0  0  0  0  0  0  0  0  0  0  0  0
    2.9670   14.2334   -1.9733 H   0  0  0  0  0  0  0  0  0  0  0  0
    3.0712   15.1453    0.4345 H   0  0  0  0  0  0  0  0  0  0  0  0
    3.6526   16.1533   -0.9924 H   0  0  0  0  0  0  0  0  0  0  0  0
    2.2642   17.4285    0.8464 H   0  0  0  0  0  0  0  0  0  0  0  0
   -0.5463   15.9928   -1.6726 H   0  0  0  0  0  0  0  0  0  0  0  0
    0.8215   18.2536   -3.2577 H   0  0  0  0  0  0  0  0  0  0  0  0
   -0.5365   17.1848   -3.8283 H   0  0  0  0  0  0  0  0  0  0  0  0
   -1.3302   19.4299   -3.1595 H   0  0  0  0  0  0  0  0  0  0  0  0
   -2.0131   18.1058   -2.1370 H   0  0  0  0  0  0  0  0  0  0  0  0
   -1.3956   19.9379   -0.7143 H   0  0  0  0  0  0  0  0  0  0  0  0
    0.7260   20.7620   -0.7470 H   0  0  0  0  0  0  0  0  0  0  0  0
   -1.2981   17.6824    1.6598 H   0  0  0  0  0  0  0  0  0  0  0  0
   -2.2718   18.1637    0.2290 H   0  0  0  0  0  0  0  0  0  0  0  0
   -1.3878   16.6000    0.2290 H   0  0  0  0  0  0  0  0  0  0  0  0
    0.2012   18.7529    2.0739 H   0  0  0  0  0  0  0  0  0  0  0  0
    1.6226   19.1003    1.0320 H   0  0  0  0  0  0  0  0  0  0  0  0
    0.2149   20.2161    1.0320 H   0  0  0  0  0  0  0  0  0  0  0  0
    3.1142   16.7165   -2.8746 H   0  0  0  0  0  0  0  0  0  0  0  0
    2.8454   15.4571   -4.1270 H   0  0  0  0  0  0  0  0  0  0  0  0
    1.8480   16.9511   -4.1270 H   0  0  0  0  0  0  0  0  0  0  0  0
   -0.3270   15.1229   -3.9450 H   0  0  0  0  0  0  0  0  0  0  0  0
    1.2145   14.1265   -4.1995 H   0  0  0  0  0  0  0  0  0  0  0  0
   -0.9831   13.6465   -2.1688 H   0  0  0  0  0  0  0  0  0  0  0  0
   -0.5115   12.6263   -3.5846 H   0  0  0  0  0  0  0  0  0  0  0  0
    2.8393   11.6547   -2.2823 H   0  0  0  0  0  0  0  0  0  0  0  0
    1.6073   11.2394   -3.5217 H   0  0  0  0  0  0  0  0  0  0  0  0
    2.3683   12.8665   -3.5217 H   0  0  0  0  0  0  0  0  0  0  0  0
  1  2  1  0
  2  3  1  0
  3  4  1  0
  4  5  1  0
  5  6  1  0
  6  7  1  0
  7  8  1  0
  7  9  1  0
  2 10  1  0
 10 11  1  0
 11 12  1  0
 12 13  1  0
 13 14  1  1
 13 15  1  0
 15 16  1  0
 16 17  1  0
 17 18  2  0
 18 19  1  0
 19 20  1  0
 20 21  1  0
 21 22  1  0
 22 23  1  0
 22 24  1  0
 24 25  1  0
 24 26  1  0
 19 27  1  0
 27 28  1  6
 27 29  1  0
 29 30  1  0
 30 31  1  0
 31 32  1  6
  7  5  1  0
 31 10  1  0
 31 13  1  0
 27 15  1  0
 24 18  1  0
  1 33  1  0
  1 34  1  0
  1 35  1  0
  2 36  1  6
  3 37  1  0
  3 38  1  0
  4 39  1  0
  4 40  1  0
  5 41  1  1
  8 42  1  0
  8 43  1  0
  8 44  1  0
  9 45  1  0
  9 46  1  0
  9 47  1  0
 10 48  1  1
 11 49  1  0
 11 50  1  0
 12 51  1  0
 12 52  1  0
 14 53  1  0
 14 54  1  0
 14 55  1  0
 15 56  1  6
 16 57  1  0
 16 58  1  0
 17 59  1  0
 19 60  1  1
 20 61  1  0
 20 62  1  0
 21 63  1  0
 21 64  1  0
 22 65  1  1
 23 66  1  0
 25 67  1  0
 25 68  1  0
 25 69  1  0
 26 70  1  0
 26 71  1  0
 26 72  1  0
 28 73  1  0
 28 74  1  0
 28 75  1  0
 29 76  1  0
 29 77  1  0
 30 78  1  0
 30 79  1  0
 32 80  1  0
 32 81  1  0
 32 82  1  0
M  END
>  <meeko>  (20) 
{"is_sidechain": [false], "intermolecular_energy": 2.731, "internal_energy": -0.839}

$$$$
