EPH_relaxed_0001_pdb2pqr_Repair_275_r2_0001_out
     RDKit          3D

 82 86  0  0  0  0  0  0  0  0999 V2000
   -1.6980    8.5790   -1.8850 C   0  0  0  0  0  0  0  0  0  0  0  0
   -2.0750    9.1000   -0.4950 C   0  0  2  0  0  0  0  0  0  0  0  0
   -3.5710    9.4620   -0.3970 C   0  0  0  0  0  0  0  0  0  0  0  0
   -4.4910    8.2450   -0.2740 C   0  0  0  0  0  0  0  0  0  0  0  0
   -5.1950    7.9500   -1.5640 C   0  0  2  0  0  0  0  0  0  0  0  0
   -6.3710    8.7360   -1.7980 O   0  0  0  0  0  0  0  0  0  0  0  0
   -6.5750    7.3220   -1.6400 C   0  0  0  0  0  0  0  0  0  0  0  0
   -7.3320    6.9510   -0.4040 C   0  0  0  0  0  0  0  0  0  0  0  0
   -6.9760    6.6260   -2.9030 C   0  0  0  0  0  0  0  0  0  0  0  0
   -1.2220   10.3140   -0.1470 C   0  0  1  0  0  0  0  0  0  0  0  0
   -0.1960   10.0190    0.9800 C   0  0  0  0  0  0  0  0  0  0  0  0
    1.0730   10.8490    0.6580 C   0  0  0  0  0  0  0  0  0  0  0  0
    0.6240   11.8380   -0.4440 C   0  0  1  0  0  0  0  0  0  0  0  0
   -0.0910   12.9940    0.3230 C   0  0  0  0  0  0  0  0  0  0  0  0
    1.7470   12.3780   -1.3870 C   0  0  2  0  0  0  0  0  0  0  0  0
    2.8430   13.2030   -0.6910 C   0  0  0  0  0  0  0  0  0  0  0  0
    2.5870   14.6720   -0.6170 C   0  0  0  0  0  0  0  0  0  0  0  0
    1.6660   15.3420   -1.3350 C   0  0  0  0  0  0  0  0  0  0  0  0
    0.8300   14.6290   -2.4050 C   0  0  1  0  0  0  0  0  0  0  0  0
    0.8070   15.4840   -3.6990 C   0  0  0  0  0  0  0  0  0  0  0  0
    0.3370   16.9130   -3.4480 C   0  0  0  0  0  0  0  0  0  0  0  0
    1.2280   17.6080   -2.4210 C   0  0  2  0  0  0  0  0  0  0  0  0
    2.5330   17.7780   -2.9840 O   0  0  0  0  0  0  0  0  0  0  0  0
    1.3360   16.8330   -1.0780 C   0  0  0  0  0  0  0  0  0  0  0  0
   -0.0150   16.9090   -0.3240 C   0  0  0  0  0  0  0  0  0  0  0  0
    2.3730   17.5660   -0.1860 C   0  0  0  0  0  0  0  0  0  0  0  0
    1.2080   13.1110   -2.6830 C   0  0  1  0  0  0  0  0  0  0  0  0
    2.3470   13.0320   -3.7450 C   0  0  0  0  0  0  0  0  0  0  0  0
   -0.0360   12.3770   -3.3110 C   0  0  0  0  0  0  0  0  0  0  0  0
   -1.0480   11.7600   -2.3270 C   0  0  0  0  0  0  0  0  0  0  0  0
   -0.3370   10.9080   -1.2710 C   0  0  2  0  0  0  0  0  0  0  0  0
    0.3730    9.7240   -2.0110 C   0  0  0  0  0  0  0  0  0  0  0  0
   -1.0560    7.6917   -1.7823 H   0  0  0  0  0  0  0  0  0  0  0  0
   -2.6113    8.3090   -2.4355 H   0  0  0  0  0  0  0  0  0  0  0  0
   -1.1560    9.3621   -2.4355 H   0  0  0  0  0  0  0  0  0  0  0  0
   -1.8830    8.2913    0.2255 H   0  0  0  0  0  0  0  0  0  0  0  0
   -3.7171   10.0988    0.4880 H   0  0  0  0  0  0  0  0  0  0  0  0
   -3.8398    9.9754   -1.3320 H   0  0  0  0  0  0  0  0  0  0  0  0
   -3.8886    7.3701    0.0116 H   0  0  0  0  0  0  0  0  0  0  0  0
   -5.2517    8.4658    0.4893 H   0  0  0  0  0  0  0  0  0  0  0  0
   -4.2424    7.6994   -2.0536 H   0  0  0  0  0  0  0  0  0  0  0  0
   -6.7482    7.2371    0.4833 H   0  0  0  0  0  0  0  0  0  0  0  0
   -8.2975    7.4780   -0.3933 H   0  0  0  0  0  0  0  0  0  0  0  0
   -7.5069    5.8651   -0.3933 H   0  0  0  0  0  0  0  0  0  0  0  0
   -7.5111    5.6972   -2.6558 H   0  0  0  0  0  0  0  0  0  0  0  0
   -7.6340    7.2830   -3.4907 H   0  0  0  0  0  0  0  0  0  0  0  0
   -6.0776    6.3863   -3.4907 H   0  0  0  0  0  0  0  0  0  0  0  0
   -2.0160   11.0261    0.1222 H   0  0  0  0  0  0  0  0  0  0  0  0
   -0.6076   10.3190    1.9550 H   0  0  0  0  0  0  0  0  0  0  0  0
    0.0368    8.9451    1.0310 H   0  0  0  0  0  0  0  0  0  0  0  0
    1.4182   11.3923    1.5500 H   0  0  0  0  0  0  0  0  0  0  0  0
    1.9133   10.2173    0.3341 H   0  0  0  0  0  0  0  0  0  0  0  0
    0.0091   12.8321    1.4064 H   0  0  0  0  0  0  0  0  0  0  0  0
    0.3708   13.9548    0.0516 H   0  0  0  0  0  0  0  0  0  0  0  0
   -1.1569   13.0099    0.0516 H   0  0  0  0  0  0  0  0  0  0  0  0
    2.2376   11.4526   -1.7232 H   0  0  0  0  0  0  0  0  0  0  0  0
    2.9519   12.8250    0.3363 H   0  0  0  0  0  0  0  0  0  0  0  0
    3.7487   13.0830   -1.3036 H   0  0  0  0  0  0  0  0  0  0  0  0
    3.2026   15.2560    0.0830 H   0  0  0  0  0  0  0  0  0  0  0  0
   -0.1866   14.5487   -1.9927 H   0  0  0  0  0  0  0  0  0  0  0  0
    1.8233   15.5157   -4.1187 H   0  0  0  0  0  0  0  0  0  0  0  0
    0.0956   15.0162   -4.3955 H   0  0  0  0  0  0  0  0  0  0  0  0
    0.3715   17.4746   -4.3932 H   0  0  0  0  0  0  0  0  0  0  0  0
   -0.6906   16.8811   -3.0569 H   0  0  0  0  0  0  0  0  0  0  0  0
    0.7659   18.5783   -2.1864 H   0  0  0  0  0  0  0  0  0  0  0  0
    2.4880   17.5080   -3.9170 H   0  0  0  0  0  0  0  0  0  0  0  0
    0.1692   16.8986    0.7604 H   0  0  0  0  0  0  0  0  0  0  0  0
   -0.5364   17.8379   -0.5985 H   0  0  0  0  0  0  0  0  0  0  0  0
   -0.6372   16.0444   -0.5985 H   0  0  0  0  0  0  0  0  0  0  0  0
    2.1312   17.3951    0.8734 H   0  0  0  0  0  0  0  0  0  0  0  0
    3.3798   17.1778   -0.3996 H   0  0  0  0  0  0  0  0  0  0  0  0
    2.3430   18.6447   -0.3996 H   0  0  0  0  0  0  0  0  0  0  0  0
    3.3195   12.9645   -3.2354 H   0  0  0  0  0  0  0  0  0  0  0  0
    2.2004   12.1419   -4.3744 H   0  0  0  0  0  0  0  0  0  0  0  0
    2.3247   13.9339   -4.3744 H   0  0  0  0  0  0  0  0  0  0  0  0
   -0.5768   13.1085   -3.9294 H   0  0  0  0  0  0  0  0  0  0  0  0
    0.3827   11.5244   -3.8657 H   0  0  0  0  0  0  0  0  0  0  0  0
   -1.6003   12.5681   -1.8250 H   0  0  0  0  0  0  0  0  0  0  0  0
   -1.7375   11.1151   -2.8916 H   0  0  0  0  0  0  0  0  0  0  0  0
    0.7912    9.0267   -1.2702 H   0  0  0  0  0  0  0  0  0  0  0  0
   -0.3571    9.1950   -2.6413 H   0  0  0  0  0  0  0  0  0  0  0  0
    1.1835   10.1188   -2.6413 H   0  0  0  0  0  0  0  0  0  0  0  0
  1  2  1  0
  2  3  1  0
  3  4  1  0
  4  5  1  0
  5  6  1  0
  6  7  1  0
  7  8  1  0
  7  9  1  0
  2 10  1  0
 10 11  1  0
 11 12  1  0
 12 13  1  0
 13 14  1  1
 13 15  1  0
 15 16  1  0
 16 17  1  0
 17 18  2  0
 18 19  1  0
 19 20  1  0
 20 21  1  0
 21 22  1  0
 22 23  1  0
 22 24  1  0
 24 25  1  0
 24 26  1  0
 19 27  1  0
 27 28  1  6
 27 29  1  0
 29 30  1  0
 30 31  1  0
 31 32  1  6
  7  5  1  0
 31 10  1  0
 31 13  1  0
 27 15  1  0
 24 18  1  0
  1 33  1  0
  1 34  1  0
  1 35  1  0
  2 36  1  1
  3 37  1  0
  3 38  1  0
  4 39  1  0
  4 40  1  0
  5 41  1  6
  8 42  1  0
  8 43  1  0
  8 44  1  0
  9 45  1  0
  9 46  1  0
  9 47  1  0
 10 48  1  1
 11 49  1  0
 11 50  1  0
 12 51  1  0
 12 52  1  0
 14 53  1  0
 14 54  1  0
 14 55  1  0
 15 56  1  6
 16 57  1  0
 16 58  1  0
 17 59  1  0
 19 60  1  1
 20 61  1  0
 20 62  1  0
 21 63  1  0
 21 64  1  0
 22 65  1  1
 23 66  1  0
 25 67  1  0
 25 68  1  0
 25 69  1  0
 26 70  1  0
 26 71  1  0
 26 72  1  0
 28 73  1  0
 28 74  1  0
 28 75  1  0
 29 76  1  0
 29 77  1  0
 30 78  1  0
 30 79  1  0
 32 80  1  0
 32 81  1  0
 32 82  1  0
M  END
>  <meeko>  (1) 
{"is_sidechain": [false], "intermolecular_energy": 2.731, "internal_energy": -0.839}

$$$$
EPH_relaxed_0001_pdb2pqr_Repair_275_r2_0001_out
     RDKit          3D

 82 86  0  0  0  0  0  0  0  0999 V2000
    4.2110   17.5700   -0.6160 C   0  0  0  0  0  0  0  0  0  0  0  0
    2.8640   18.1250   -0.1450 C   0  0  2  0  0  0  0  0  0  0  0  0
    2.9580   18.7660    1.2540 C   0  0  0  0  0  0  0  0  0  0  0  0
    4.3700   18.7500    1.8460 C   0  0  0  0  0  0  0  0  0  0  0  0
    4.4000   19.3360    3.2250 C   0  0  2  0  0  0  0  0  0  0  0  0
    5.5190   20.1940    3.4860 O   0  0  0  0  0  0  0  0  0  0  0  0
    5.4530   18.9850    4.2600 C   0  0  0  0  0  0  0  0  0  0  0  0
    6.5480   18.0100    3.9590 C   0  0  0  0  0  0  0  0  0  0  0  0
    5.1380   19.2100    5.7060 C   0  0  0  0  0  0  0  0  0  0  0  0
    1.8180   17.0160   -0.1400 C   0  0  1  0  0  0  0  0  0  0  0  0
    0.3890   17.5410   -0.4410 C   0  0  0  0  0  0  0  0  0  0  0  0
   -0.3320   16.4350   -1.2520 C   0  0  0  0  0  0  0  0  0  0  0  0
    0.5750   15.1910   -1.1070 C   0  0  1  0  0  0  0  0  0  0  0  0
    0.2070   14.5860    0.2840 C   0  0  0  0  0  0  0  0  0  0  0  0
    0.4710   14.1240   -2.2460 C   0  0  2  0  0  0  0  0  0  0  0  0
   -0.9080   13.4590   -2.3940 C   0  0  0  0  0  0  0  0  0  0  0  0
   -1.1050   12.2140   -1.5940 C   0  0  0  0  0  0  0  0  0  0  0  0
   -0.1270   11.4950   -1.0130 C   0  0  0  0  0  0  0  0  0  0  0  0
    1.3480   11.8630   -1.2150 C   0  0  1  0  0  0  0  0  0  0  0  0
    2.1610   10.5840   -1.5470 C   0  0  0  0  0  0  0  0  0  0  0  0
    1.9710    9.4850   -0.5060 C   0  0  0  0  0  0  0  0  0  0  0  0
    0.4990    9.1050   -0.3760 C   0  0  2  0  0  0  0  0  0  0  0  0
    0.0710    8.4900   -1.5950 O   0  0  0  0  0  0  0  0  0  0  0  0
   -0.4200   10.3160   -0.0520 C   0  0  0  0  0  0  0  0  0  0  0  0
   -0.1590   10.7940    1.3980 C   0  0  0  0  0  0  0  0  0  0  0  0
   -1.8920    9.8220   -0.0870 C   0  0  0  0  0  0  0  0  0  0  0  0
    1.6330   13.0490   -2.2340 C   0  0  1  0  0  0  0  0  0  0  0  0
    1.7360   12.4890   -3.6860 C   0  0  0  0  0  0  0  0  0  0  0  0
    3.0340   13.6860   -1.9030 C   0  0  0  0  0  0  0  0  0  0  0  0
    3.0540   14.8170   -0.8580 C   0  0  0  0  0  0  0  0  0  0  0  0
    1.9890   15.8730   -1.1720 C   0  0  2  0  0  0  0  0  0  0  0  0
    2.3460   16.5140   -2.5560 C   0  0  0  0  0  0  0  0  0  0  0  0
    4.8285   17.3156    0.2580 H   0  0  0  0  0  0  0  0  0  0  0  0
    4.0439   16.6674   -1.2222 H   0  0  0  0  0  0  0  0  0  0  0  0
    4.7282   18.3283   -1.2222 H   0  0  0  0  0  0  0  0  0  0  0  0
    2.5660   18.9142   -0.8510 H   0  0  0  0  0  0  0  0  0  0  0  0
    2.6246   19.8116    1.1798 H   0  0  0  0  0  0  0  0  0  0  0  0
    2.3222   18.1687    1.9241 H   0  0  0  0  0  0  0  0  0  0  0  0
    4.7250   17.7099    1.8929 H   0  0  0  0  0  0  0  0  0  0  0  0
    5.0192   19.3596    1.2004 H   0  0  0  0  0  0  0  0  0  0  0  0
    3.3010   19.3541    3.2675 H   0  0  0  0  0  0  0  0  0  0  0  0
    6.9720   17.6325    4.9012 H   0  0  0  0  0  0  0  0  0  0  0  0
    6.1411   17.1697    3.3773 H   0  0  0  0  0  0  0  0  0  0  0  0
    7.3356   18.5113    3.3773 H   0  0  0  0  0  0  0  0  0  0  0  0
    5.8761   18.6828    6.3284 H   0  0  0  0  0  0  0  0  0  0  0  0
    5.1753   20.2871    5.9261 H   0  0  0  0  0  0  0  0  0  0  0  0
    4.1312   18.8254    5.9261 H   0  0  0  0  0  0  0  0  0  0  0  0
    1.9648   16.6287    0.8791 H   0  0  0  0  0  0  0  0  0  0  0  0
   -0.1495   17.7337    0.4986 H   0  0  0  0  0  0  0  0  0  0  0  0
    0.4256   18.4844   -1.0055 H   0  0  0  0  0  0  0  0  0  0  0  0
   -1.3312   16.2376   -0.8365 H   0  0  0  0  0  0  0  0  0  0  0  0
   -0.4837   16.7204   -2.3034 H   0  0  0  0  0  0  0  0  0  0  0  0
    0.6009   15.2335    1.0813 H   0  0  0  0  0  0  0  0  0  0  0  0
   -0.8869   14.5158    0.3755 H   0  0  0  0  0  0  0  0  0  0  0  0
    0.6477   13.5823    0.3755 H   0  0  0  0  0  0  0  0  0  0  0  0
    0.6071   14.7323   -3.1523 H   0  0  0  0  0  0  0  0  0  0  0  0
   -1.6716   14.1872   -2.0830 H   0  0  0  0  0  0  0  0  0  0  0  0
   -0.9892   13.1587   -3.4491 H   0  0  0  0  0  0  0  0  0  0  0  0
   -2.1368   11.8539   -1.4689 H   0  0  0  0  0  0  0  0  0  0  0  0
    1.6899   12.2839   -0.2580 H   0  0  0  0  0  0  0  0  0  0  0  0
    1.8350   10.2029   -2.5260 H   0  0  0  0  0  0  0  0  0  0  0  0
    3.2265   10.8574   -1.5541 H   0  0  0  0  0  0  0  0  0  0  0  0
    2.5462    8.5980   -0.8100 H   0  0  0  0  0  0  0  0  0  0  0  0
    2.3243    9.8581    0.4666 H   0  0  0  0  0  0  0  0  0  0  0  0
    0.4125    8.4091    0.4715 H   0  0  0  0  0  0  0  0  0  0  0  0
   -0.8230    8.1380   -1.4490 H   0  0  0  0  0  0  0  0  0  0  0  0
   -0.5625   10.0550    2.1059 H   0  0  0  0  0  0  0  0  0  0  0  0
    0.9237   10.9028    1.5589 H   0  0  0  0  0  0  0  0  0  0  0  0
   -0.6529   11.7636    1.5589 H   0  0  0  0  0  0  0  0  0  0  0  0
   -2.2617    9.6979    0.9416 H   0  0  0  0  0  0  0  0  0  0  0  0
   -2.5142   10.5606   -0.6137 H   0  0  0  0  0  0  0  0  0  0  0  0
   -1.9427    8.8576   -0.6137 H   0  0  0  0  0  0  0  0  0  0  0  0
    1.9349   11.4078   -3.6487 H   0  0  0  0  0  0  0  0  0  0  0  0
    0.7896   12.6697   -4.2167 H   0  0  0  0  0  0  0  0  0  0  0  0
    2.5562   12.9946   -4.2167 H   0  0  0  0  0  0  0  0  0  0  0  0
    3.6867   12.8809   -1.5343 H   0  0  0  0  0  0  0  0  0  0  0  0
    3.3652   14.1555   -2.8410 H   0  0  0  0  0  0  0  0  0  0  0  0
    2.8562   14.3913    0.1368 H   0  0  0  0  0  0  0  0  0  0  0  0
    4.0428   15.2985   -0.8812 H   0  0  0  0  0  0  0  0  0  0  0  0
    2.8754   17.4646   -2.3942 H   0  0  0  0  0  0  0  0  0  0  0  0
    2.9913   15.8268   -3.1228 H   0  0  0  0  0  0  0  0  0  0  0  0
    1.4220   16.7008   -3.1228 H   0  0  0  0  0  0  0  0  0  0  0  0
  1  2  1  0
  2  3  1  0
  3  4  1  0
  4  5  1  0
  5  6  1  0
  6  7  1  0
  7  8  1  0
  7  9  1  0
  2 10  1  0
 10 11  1  0
 11 12  1  0
 12 13  1  0
 13 14  1  1
 13 15  1  0
 15 16  1  0
 16 17  1  0
 17 18  2  0
 18 19  1  0
 19 20  1  0
 20 21  1  0
 21 22  1  0
 22 23  1  0
 22 24  1  0
 24 25  1  0
 24 26  1  0
 19 27  1  0
 27 28  1  6
 27 29  1  0
 29 30  1  0
 30 31  1  0
 31 32  1  6
  7  5  1  0
 31 10  1  0
 31 13  1  0
 27 15  1  0
 24 18  1  0
  1 33  1  0
  1 34  1  0
  1 35  1  0
  2 36  1  6
  3 37  1  0
  3 38  1  0
  4 39  1  0
  4 40  1  0
  5 41  1  1
  8 42  1  0
  8 43  1  0
  8 44  1  0
  9 45  1  0
  9 46  1  0
  9 47  1  0
 10 48  1  1
 11 49  1  0
 11 50  1  0
 12 51  1  0
 12 52  1  0
 14 53  1  0
 14 54  1  0
 14 55  1  0
 15 56  1  6
 16 57  1  0
 16 58  1  0
 17 59  1  0
 19 60  1  1
 20 61  1  0
 20 62  1  0
 21 63  1  0
 21 64  1  0
 22 65  1  1
 23 66  1  0
 25 67  1  0
 25 68  1  0
 25 69  1  0
 26 70  1  0
 26 71  1  0
 26 72  1  0
 28 73  1  0
 28 74  1  0
 28 75  1  0
 29 76  1  0
 29 77  1  0
 30 78  1  0
 30 79  1  0
 32 80  1  0
 32 81  1  0
 32 82  1  0
M  END
>  <meeko>  (2) 
{"is_sidechain": [false], "intermolecular_energy": 2.731, "internal_energy": -0.839}

$$$$
EPH_relaxed_0001_pdb2pqr_Repair_275_r2_0001_out
     RDKit          3D

 82 86  0  0  0  0  0  0  0  0999 V2000
    2.3160   18.0770   -2.6950 C   0  0  0  0  0  0  0  0  0  0  0  0
    1.0540   17.6570   -1.9350 C   0  0  2  0  0  0  0  0  0  0  0  0
    1.2550   17.7000   -0.4070 C   0  0  0  0  0  0  0  0  0  0  0  0
    0.9330   19.0610    0.2170 C   0  0  0  0  0  0  0  0  0  0  0  0
   -0.5070   19.1600    0.6200 C   0  0  2  0  0  0  0  0  0  0  0  0
   -1.3860   18.2690   -0.0790 O   0  0  0  0  0  0  0  0  0  0  0  0
   -1.5990   19.6730   -0.3000 C   0  0  0  0  0  0  0  0  0  0  0  0
   -1.2970   20.1220   -1.6950 C   0  0  0  0  0  0  0  0  0  0  0  0
   -2.8620   20.1940    0.3110 C   0  0  0  0  0  0  0  0  0  0  0  0
    0.6300   16.2580   -2.3660 C   0  0  1  0  0  0  0  0  0  0  0  0
    0.7750   16.0330   -3.8940 C   0  0  0  0  0  0  0  0  0  0  0  0
    1.1930   14.5530   -4.0920 C   0  0  0  0  0  0  0  0  0  0  0  0
    0.9540   13.8930   -2.7130 C   0  0  1  0  0  0  0  0  0  0  0  0
   -0.5760   13.5870   -2.6750 C   0  0  0  0  0  0  0  0  0  0  0  0
    1.8060   12.6200   -2.4000 C   0  0  2  0  0  0  0  0  0  0  0  0
    1.5620   11.4250   -3.3380 C   0  0  0  0  0  0  0  0  0  0  0  0
    0.4960   10.4770   -2.8980 C   0  0  0  0  0  0  0  0  0  0  0  0
   -0.0390   10.4190   -1.6650 C   0  0  0  0  0  0  0  0  0  0  0  0
    0.4970   11.3030   -0.5310 C   0  0  1  0  0  0  0  0  0  0  0  0
    0.6920   10.4460    0.7470 C   0  0  0  0  0  0  0  0  0  0  0  0
   -0.5730    9.6910    1.1440 C   0  0  0  0  0  0  0  0  0  0  0  0
   -1.0410    8.7790    0.0130 C   0  0  2  0  0  0  0  0  0  0  0  0
   -0.0750    7.7400   -0.1710 O   0  0  0  0  0  0  0  0  0  0  0  0
   -1.2620    9.5310   -1.3290 C   0  0  0  0  0  0  0  0  0  0  0  0
   -2.5090   10.4430   -1.2160 C   0  0  0  0  0  0  0  0  0  0  0  0
   -1.5950    8.4750   -2.4190 C   0  0  0  0  0  0  0  0  0  0  0  0
    1.7760   12.1780   -0.8810 C   0  0  1  0  0  0  0  0  0  0  0  0
    3.0730   11.3480   -0.6330 C   0  0  0  0  0  0  0  0  0  0  0  0
    1.8430   13.4070    0.1010 C   0  0  0  0  0  0  0  0  0  0  0  0
    1.0780   14.6770   -0.3220 C   0  0  0  0  0  0  0  0  0  0  0  0
    1.4120   15.0620   -1.7660 C   0  0  2  0  0  0  0  0  0  0  0  0
    2.9410   15.3970   -1.8310 C   0  0  0  0  0  0  0  0  0  0  0  0
    3.1063   18.3400   -1.9765 H   0  0  0  0  0  0  0  0  0  0  0  0
    2.6576   17.2441   -3.3271 H   0  0  0  0  0  0  0  0  0  0  0  0
    2.0904   18.9485   -3.3271 H   0  0  0  0  0  0  0  0  0  0  0  0
    0.2619   18.3787   -2.1836 H   0  0  0  0  0  0  0  0  0  0  0  0
    0.6002   16.9440    0.0510 H   0  0  0  0  0  0  0  0  0  0  0  0
    2.3202   17.5024   -0.2167 H   0  0  0  0  0  0  0  0  0  0  0  0
    1.5628   19.2027    1.1076 H   0  0  0  0  0  0  0  0  0  0  0  0
    1.1325   19.8385   -0.5351 H   0  0  0  0  0  0  0  0  0  0  0  0
   -0.2258   19.4242    1.6501 H   0  0  0  0  0  0  0  0  0  0  0  0
   -0.6834   21.0343   -1.6618 H   0  0  0  0  0  0  0  0  0  0  0  0
   -0.7476   19.3296   -2.2244 H   0  0  0  0  0  0  0  0  0  0  0  0
   -2.2381   20.3321   -2.2244 H   0  0  0  0  0  0  0  0  0  0  0  0
   -2.7800   20.1602    1.4074 H   0  0  0  0  0  0  0  0  0  0  0  0
   -3.0246   21.2326   -0.0127 H   0  0  0  0  0  0  0  0  0  0  0  0
   -3.7096   19.5721   -0.0127 H   0  0  0  0  0  0  0  0  0  0  0  0
   -0.4051   16.2566   -1.9938 H   0  0  0  0  0  0  0  0  0  0  0  0
   -0.1836   16.2263   -4.3977 H   0  0  0  0  0  0  0  0  0  0  0  0
    1.5234   16.7151   -4.3238 H   0  0  0  0  0  0  0  0  0  0  0  0
    0.5732   14.0743   -4.8644 H   0  0  0  0  0  0  0  0  0  0  0  0
    2.2363   14.4550   -4.4266 H   0  0  0  0  0  0  0  0  0  0  0  0
   -0.9107   13.5201   -1.6293 H   0  0  0  0  0  0  0  0  0  0  0  0
   -1.1240   14.3933   -3.1845 H   0  0  0  0  0  0  0  0  0  0  0  0
   -0.7717   12.6319   -3.1845 H   0  0  0  0  0  0  0  0  0  0  0  0
    2.8294   12.9625   -2.6127 H   0  0  0  0  0  0  0  0  0  0  0  0
    1.2797   11.8197   -4.3252 H   0  0  0  0  0  0  0  0  0  0  0  0
    2.4984   10.8479   -3.3460 H   0  0  0  0  0  0  0  0  0  0  0  0
    0.1156    9.7653   -3.6456 H   0  0  0  0  0  0  0  0  0  0  0  0
   -0.2728   12.0680   -0.3518 H   0  0  0  0  0  0  0  0  0  0  0  0
    1.4949    9.7168    0.5634 H   0  0  0  0  0  0  0  0  0  0  0  0
    0.9458   11.1288    1.5713 H   0  0  0  0  0  0  0  0  0  0  0  0
   -0.3636    9.0811    2.0351 H   0  0  0  0  0  0  0  0  0  0  0  0
   -1.3665   10.4225    1.3566 H   0  0  0  0  0  0  0  0  0  0  0  0
   -2.0177    8.3660    0.3052 H   0  0  0  0  0  0  0  0  0  0  0  0
    0.7890    8.1630   -0.3130 H   0  0  0  0  0  0  0  0  0  0  0  0
   -2.7431   10.6142   -0.1549 H   0  0  0  0  0  0  0  0  0  0  0  0
   -2.3045   11.4062   -1.7064 H   0  0  0  0  0  0  0  0  0  0  0  0
   -3.3649    9.9563   -1.7064 H   0  0  0  0  0  0  0  0  0  0  0  0
   -1.8924    7.5319   -1.9372 H   0  0  0  0  0  0  0  0  0  0  0  0
   -2.4207    8.8428   -3.0458 H   0  0  0  0  0  0  0  0  0  0  0  0
   -0.7076    8.3026   -3.0458 H   0  0  0  0  0  0  0  0  0  0  0  0
    3.2390   11.2418    0.4492 H   0  0  0  0  0  0  0  0  0  0  0  0
    2.9632   10.3519   -1.0866 H   0  0  0  0  0  0  0  0  0  0  0  0
    3.9315   11.8649   -1.0866 H   0  0  0  0  0  0  0  0  0  0  0  0
    1.4371   13.0812    1.0701 H   0  0  0  0  0  0  0  0  0  0  0  0
    2.9025   13.7022    0.1209 H   0  0  0  0  0  0  0  0  0  0  0  0
   -0.0029   14.4901   -0.2401 H   0  0  0  0  0  0  0  0  0  0  0  0
    1.3768   15.5034    0.3396 H   0  0  0  0  0  0  0  0  0  0  0  0
    3.3409   15.4846   -0.8100 H   0  0  0  0  0  0  0  0  0  0  0  0
    3.4701   14.5935   -2.3643 H   0  0  0  0  0  0  0  0  0  0  0  0
    3.0856   16.3481   -2.3643 H   0  0  0  0  0  0  0  0  0  0  0  0
  1  2  1  0
  2  3  1  0
  3  4  1  0
  4  5  1  0
  5  6  1  0
  6  7  1  0
  7  8  1  0
  7  9  1  0
  2 10  1  0
 10 11  1  0
 11 12  1  0
 12 13  1  0
 13 14  1  1
 13 15  1  0
 15 16  1  0
 16 17  1  0
 17 18  2  0
 18 19  1  0
 19 20  1  0
 20 21  1  0
 21 22  1  0
 22 23  1  0
 22 24  1  0
 24 25  1  0
 24 26  1  0
 19 27  1  0
 27 28  1  1
 27 29  1  0
 29 30  1  0
 30 31  1  0
 31 32  1  1
  7  5  1  0
 31 10  1  0
 31 13  1  0
 27 15  1  0
 24 18  1  0
  1 33  1  0
  1 34  1  0
  1 35  1  0
  2 36  1  1
  3 37  1  0
  3 38  1  0
  4 39  1  0
  4 40  1  0
  5 41  1  1
  8 42  1  0
  8 43  1  0
  8 44  1  0
  9 45  1  0
  9 46  1  0
  9 47  1  0
 10 48  1  1
 11 49  1  0
 11 50  1  0
 12 51  1  0
 12 52  1  0
 14 53  1  0
 14 54  1  0
 14 55  1  0
 15 56  1  6
 16 57  1  0
 16 58  1  0
 17 59  1  0
 19 60  1  1
 20 61  1  0
 20 62  1  0
 21 63  1  0
 21 64  1  0
 22 65  1  1
 23 66  1  0
 25 67  1  0
 25 68  1  0
 25 69  1  0
 26 70  1  0
 26 71  1  0
 26 72  1  0
 28 73  1  0
 28 74  1  0
 28 75  1  0
 29 76  1  0
 29 77  1  0
 30 78  1  0
 30 79  1  0
 32 80  1  0
 32 81  1  0
 32 82  1  0
M  END
>  <meeko>  (3) 
{"is_sidechain": [false], "intermolecular_energy": 2.731, "internal_energy": -0.839}

$$$$
EPH_relaxed_0001_pdb2pqr_Repair_275_r2_0001_out
     RDKit          3D

 82 86  0  0  0  0  0  0  0  0999 V2000
    0.3900   18.4800   -0.1500 C   0  0  0  0  0  0  0  0  0  0  0  0
    1.4610   17.3960   -0.2960 C   0  0  2  0  0  0  0  0  0  0  0  0
    2.7130   17.9120   -1.0330 C   0  0  0  0  0  0  0  0  0  0  0  0
    3.9400   18.0630   -0.1300 C   0  0  0  0  0  0  0  0  0  0  0  0
    3.5650   18.5520    1.2370 C   0  0  2  0  0  0  0  0  0  0  0  0
    3.7720   19.9550    1.4490 O   0  0  0  0  0  0  0  0  0  0  0  0
    4.5740   19.0690    2.2460 C   0  0  0  0  0  0  0  0  0  0  0  0
    6.0360   19.1210    1.9320 C   0  0  0  0  0  0  0  0  0  0  0  0
    4.2020   19.0610    3.6960 C   0  0  0  0  0  0  0  0  0  0  0  0
    0.8850   16.1910   -1.0310 C   0  0  1  0  0  0  0  0  0  0  0  0
    0.7420   16.4330   -2.5570 C   0  0  0  0  0  0  0  0  0  0  0  0
    1.0300   15.0780   -3.2540 C   0  0  0  0  0  0  0  0  0  0  0  0
    1.0000   14.0370   -2.1100 C   0  0  1  0  0  0  0  0  0  0  0  0
   -0.5150   13.7400   -1.8780 C   0  0  0  0  0  0  0  0  0  0  0  0
    1.8150   12.7250   -2.3480 C   0  0  2  0  0  0  0  0  0  0  0  0
    1.3380   11.8660   -3.5320 C   0  0  0  0  0  0  0  0  0  0  0  0
    0.3120   10.8340   -3.1990 C   0  0  0  0  0  0  0  0  0  0  0  0
    0.0010   10.4120   -1.9590 C   0  0  0  0  0  0  0  0  0  0  0  0
    0.7810   10.9150   -0.7370 C   0  0  1  0  0  0  0  0  0  0  0  0
    1.1480    9.7140    0.1730 C   0  0  0  0  0  0  0  0  0  0  0  0
   -0.0700    8.8810    0.5610 C   0  0  0  0  0  0  0  0  0  0  0  0
   -0.7850    8.3500   -0.6790 C   0  0  2  0  0  0  0  0  0  0  0  0
    0.0690    7.4100   -1.3370 O   0  0  0  0  0  0  0  0  0  0  0  0
   -1.1950    9.4700   -1.6760 C   0  0  0  0  0  0  0  0  0  0  0  0
   -2.3440   10.3120   -1.0700 C   0  0  0  0  0  0  0  0  0  0  0  0
   -1.7770    8.7900   -2.9450 C   0  0  0  0  0  0  0  0  0  0  0  0
    2.0290   11.8490   -1.0480 C   0  0  1  0  0  0  0  0  0  0  0  0
    3.2960   10.9770   -1.3010 C   0  0  0  0  0  0  0  0  0  0  0  0
    2.3410   12.7280    0.2210 C   0  0  0  0  0  0  0  0  0  0  0  0
    1.5920   14.0690    0.3390 C   0  0  0  0  0  0  0  0  0  0  0  0
    1.6870   14.8670   -0.9650 C   0  0  2  0  0  0  0  0  0  0  0  0
    3.1980   15.2000   -1.2130 C   0  0  0  0  0  0  0  0  0  0  0  0
    0.2030   18.6693    0.9173 H   0  0  0  0  0  0  0  0  0  0  0  0
    0.7376   19.4061   -0.6312 H   0  0  0  0  0  0  0  0  0  0  0  0
   -0.5402   18.1436   -0.6312 H   0  0  0  0  0  0  0  0  0  0  0  0
    1.7718   17.1004    0.7169 H   0  0  0  0  0  0  0  0  0  0  0  0
    2.9590   17.2035   -1.8376 H   0  0  0  0  0  0  0  0  0  0  0  0
    2.4704   18.9142   -1.4160 H   0  0  0  0  0  0  0  0  0  0  0  0
    4.4357   17.0856   -0.0355 H   0  0  0  0  0  0  0  0  0  0  0  0
    4.6131   18.8035   -0.5867 H   0  0  0  0  0  0  0  0  0  0  0  0
    2.7643   17.8015    1.3118 H   0  0  0  0  0  0  0  0  0  0  0  0
    6.6118   19.1415    2.8690 H   0  0  0  0  0  0  0  0  0  0  0  0
    6.3174   18.2323    1.3481 H   0  0  0  0  0  0  0  0  0  0  0  0
    6.2536   20.0275    1.3481 H   0  0  0  0  0  0  0  0  0  0  0  0
    5.1152   19.0806    4.3089 H   0  0  0  0  0  0  0  0  0  0  0  0
    3.5894   19.9462    3.9223 H   0  0  0  0  0  0  0  0  0  0  0  0
    3.6280   18.1503    3.9223 H   0  0  0  0  0  0  0  0  0  0  0  0
   -0.0656   16.0823   -0.4882 H   0  0  0  0  0  0  0  0  0  0  0  0
   -0.2778   16.7711   -2.7930 H   0  0  0  0  0  0  0  0  0  0  0  0
    1.4405   17.2102   -2.9007 H   0  0  0  0  0  0  0  0  0  0  0  0
    0.2561   14.8543   -4.0031 H   0  0  0  0  0  0  0  0  0  0  0  0
    1.9901   15.0806   -3.7908 H   0  0  0  0  0  0  0  0  0  0  0  0
   -0.7196   13.6999   -0.7979 H   0  0  0  0  0  0  0  0  0  0  0  0
   -1.1192   14.5368   -2.3363 H   0  0  0  0  0  0  0  0  0  0  0  0
   -0.7737   12.7741   -2.3363 H   0  0  0  0  0  0  0  0  0  0  0  0
    2.8031   13.1116   -2.6381 H   0  0  0  0  0  0  0  0  0  0  0  0
    0.9097   12.5390   -4.2893 H   0  0  0  0  0  0  0  0  0  0  0  0
    2.2223   11.3137   -3.8828 H   0  0  0  0  0  0  0  0  0  0  0  0
   -0.2362   10.3800   -4.0377 H   0  0  0  0  0  0  0  0  0  0  0  0
    0.1024   11.5951   -0.2014 H   0  0  0  0  0  0  0  0  0  0  0  0
    1.8597    9.0694   -0.3636 H   0  0  0  0  0  0  0  0  0  0  0  0
    1.5855   10.1172    1.0982 H   0  0  0  0  0  0  0  0  0  0  0  0
    0.2566    8.0320    1.1795 H   0  0  0  0  0  0  0  0  0  0  0  0
   -0.7679    9.5196    1.1223 H   0  0  0  0  0  0  0  0  0  0  0  0
   -1.7170    7.8721   -0.3428 H   0  0  0  0  0  0  0  0  0  0  0  0
   -0.4430    6.9980   -2.0530 H   0  0  0  0  0  0  0  0  0  0  0  0
   -2.2887   10.2715    0.0279 H   0  0  0  0  0  0  0  0  0  0  0  0
   -2.2490   11.3559   -1.4036 H   0  0  0  0  0  0  0  0  0  0  0  0
   -3.3108    9.9070   -1.4036 H   0  0  0  0  0  0  0  0  0  0  0  0
   -2.4655    7.9856   -2.6469 H   0  0  0  0  0  0  0  0  0  0  0  0
   -2.3212    9.5354   -3.5435 H   0  0  0  0  0  0  0  0  0  0  0  0
   -0.9565    8.3674   -3.5435 H   0  0  0  0  0  0  0  0  0  0  0  0
    3.7327   10.6764   -0.3372 H   0  0  0  0  0  0  0  0  0  0  0  0
    3.0155   10.0797   -1.8722 H   0  0  0  0  0  0  0  0  0  0  0  0
    4.0339   11.5594   -1.8722 H   0  0  0  0  0  0  0  0  0  0  0  0
    2.0929   12.1291    1.1097 H   0  0  0  0  0  0  0  0  0  0  0  0
    3.4031   12.9990    0.1291 H   0  0  0  0  0  0  0  0  0  0  0  0
    0.5335   13.8713    0.5635 H   0  0  0  0  0  0  0  0  0  0  0  0
    2.0532   14.6584    1.1451 H   0  0  0  0  0  0  0  0  0  0  0  0
    3.7118   15.3132   -0.2470 H   0  0  0  0  0  0  0  0  0  0  0  0
    3.6647   14.3832   -1.7830 H   0  0  0  0  0  0  0  0  0  0  0  0
    3.2781   16.1374   -1.7830 H   0  0  0  0  0  0  0  0  0  0  0  0
  1  2  1  0
  2  3  1  0
  3  4  1  0
  4  5  1  0
  5  6  1  0
  6  7  1  0
  7  8  1  0
  7  9  1  0
  2 10  1  0
 10 11  1  0
 11 12  1  0
 12 13  1  0
 13 14  1  1
 13 15  1  0
 15 16  1  0
 16 17  1  0
 17 18  2  0
 18 19  1  0
 19 20  1  0
 20 21  1  0
 21 22  1  0
 22 23  1  0
 22 24  1  0
 24 25  1  0
 24 26  1  0
 19 27  1  0
 27 28  1  6
 27 29  1  0
 29 30  1  0
 30 31  1  0
 31 32  1  6
  7  5  1  0
 31 10  1  0
 31 13  1  0
 27 15  1  0
 24 18  1  0
  1 33  1  0
  1 34  1  0
  1 35  1  0
  2 36  1  1
  3 37  1  0
  3 38  1  0
  4 39  1  0
  4 40  1  0
  5 41  1  1
  8 42  1  0
  8 43  1  0
  8 44  1  0
  9 45  1  0
  9 46  1  0
  9 47  1  0
 10 48  1  1
 11 49  1  0
 11 50  1  0
 12 51  1  0
 12 52  1  0
 14 53  1  0
 14 54  1  0
 14 55  1  0
 15 56  1  6
 16 57  1  0
 16 58  1  0
 17 59  1  0
 19 60  1  1
 20 61  1  0
 20 62  1  0
 21 63  1  0
 21 64  1  0
 22 65  1  1
 23 66  1  0
 25 67  1  0
 25 68  1  0
 25 69  1  0
 26 70  1  0
 26 71  1  0
 26 72  1  0
 28 73  1  0
 28 74  1  0
 28 75  1  0
 29 76  1  0
 29 77  1  0
 30 78  1  0
 30 79  1  0
 32 80  1  0
 32 81  1  0
 32 82  1  0
M  END
>  <meeko>  (4) 
{"is_sidechain": [false], "intermolecular_energy": 2.731, "internal_energy": -0.839}

$$$$
EPH_relaxed_0001_pdb2pqr_Repair_275_r2_0001_out
     RDKit          3D

 82 86  0  0  0  0  0  0  0  0999 V2000
    3.7730   17.8790    0.6020 C   0  0  0  0  0  0  0  0  0  0  0  0
    2.7220   18.3340   -0.4150 C   0  0  2  0  0  0  0  0  0  0  0  0
    2.0100   19.6290    0.0260 C   0  0  0  0  0  0  0  0  0  0  0  0
    0.8190   19.3900    0.9580 C   0  0  0  0  0  0  0  0  0  0  0  0
   -0.4160   20.0830    0.4670 C   0  0  2  0  0  0  0  0  0  0  0  0
   -1.4660   20.1940    1.4370 O   0  0  0  0  0  0  0  0  0  0  0  0
   -1.7500   19.3840    0.2850 C   0  0  0  0  0  0  0  0  0  0  0  0
   -1.9170   17.9280    0.5910 C   0  0  0  0  0  0  0  0  0  0  0  0
   -2.7550   19.9900   -0.6440 C   0  0  0  0  0  0  0  0  0  0  0  0
    1.6990   17.2270   -0.6350 C   0  0  1  0  0  0  0  0  0  0  0  0
    0.4970   17.6880   -1.5030 C   0  0  0  0  0  0  0  0  0  0  0  0
    0.0690   16.4680   -2.3580 C   0  0  0  0  0  0  0  0  0  0  0  0
    0.8100   15.2670   -1.7240 C   0  0  1  0  0  0  0  0  0  0  0  0
   -0.0590   14.8660   -0.4910 C   0  0  0  0  0  0  0  0  0  0  0  0
    1.0780   14.0460   -2.6620 C   0  0  2  0  0  0  0  0  0  0  0  0
   -0.1830   13.3520   -3.2060 C   0  0  0  0  0  0  0  0  0  0  0  0
   -0.7080   12.2340   -2.3670 C   0  0  0  0  0  0  0  0  0  0  0  0
   -0.0360   11.6170   -1.3770 C   0  0  0  0  0  0  0  0  0  0  0  0
    1.4280   11.9680   -1.0810 C   0  0  1  0  0  0  0  0  0  0  0  0
    2.2500   10.6630   -0.9150 C   0  0  0  0  0  0  0  0  0  0  0  0
    1.6530    9.7240    0.1280 C   0  0  0  0  0  0  0  0  0  0  0  0
    0.2170    9.3510   -0.2320 C   0  0  2  0  0  0  0  0  0  0  0  0
    0.2310    8.5610   -1.4250 O   0  0  0  0  0  0  0  0  0  0  0  0
   -0.7040   10.5860   -0.4340 C   0  0  0  0  0  0  0  0  0  0  0  0
   -0.9620   11.2720    0.9300 C   0  0  0  0  0  0  0  0  0  0  0  0
   -2.0840   10.0770   -0.9310 C   0  0  0  0  0  0  0  0  0  0  0  0
    2.1100   12.9970   -2.0820 C   0  0  1  0  0  0  0  0  0  0  0  0
    2.7050   12.2340   -3.3050 C   0  0  0  0  0  0  0  0  0  0  0  0
    3.3250   13.6900   -1.3580 C   0  0  0  0  0  0  0  0  0  0  0  0
    3.0150   14.9600   -0.5440 C   0  0  0  0  0  0  0  0  0  0  0  0
    2.1810   15.9480   -1.3650 C   0  0  2  0  0  0  0  0  0  0  0  0
    3.0380   16.3860   -2.6010 C   0  0  0  0  0  0  0  0  0  0  0  0
    3.3927   18.0437    1.6209 H   0  0  0  0  0  0  0  0  0  0  0  0
    3.9838   16.8091    0.4577 H   0  0  0  0  0  0  0  0  0  0  0  0
    4.6974   18.4575    0.4577 H   0  0  0  0  0  0  0  0  0  0  0  0
    3.2454   18.5495   -1.3582 H   0  0  0  0  0  0  0  0  0  0  0  0
    2.7388   20.2648    0.5500 H   0  0  0  0  0  0  0  0  0  0  0  0
    1.6156   20.1048   -0.8840 H   0  0  0  0  0  0  0  0  0  0  0  0
    0.6225   18.3092    1.0156 H   0  0  0  0  0  0  0  0  0  0  0  0
    1.0707   19.7978    1.9481 H   0  0  0  0  0  0  0  0  0  0  0  0
    0.1795   20.7223   -0.2014 H   0  0  0  0  0  0  0  0  0  0  0  0
   -1.9337   17.7820    1.6811 H   0  0  0  0  0  0  0  0  0  0  0  0
   -2.8623   17.5685    0.1583 H   0  0  0  0  0  0  0  0  0  0  0  0
   -1.0777   17.3638    0.1583 H   0  0  0  0  0  0  0  0  0  0  0  0
   -3.5524   20.4708   -0.0584 H   0  0  0  0  0  0  0  0  0  0  0  0
   -2.2618   20.7414   -1.2782 H   0  0  0  0  0  0  0  0  0  0  0  0
   -3.1894   19.2031   -1.2782 H   0  0  0  0  0  0  0  0  0  0  0  0
    1.4527   16.9929    0.4112 H   0  0  0  0  0  0  0  0  0  0  0  0
   -0.3345   18.0093   -0.8585 H   0  0  0  0  0  0  0  0  0  0  0  0
    0.7744   18.5399   -2.1413 H   0  0  0  0  0  0  0  0  0  0  0  0
   -1.0202   16.3222   -2.3085 H   0  0  0  0  0  0  0  0  0  0  0  0
    0.3175   16.5967   -3.4218 H   0  0  0  0  0  0  0  0  0  0  0  0
    0.4807   15.1151    0.4346 H   0  0  0  0  0  0  0  0  0  0  0  0
   -1.0114   15.4157   -0.5193 H   0  0  0  0  0  0  0  0  0  0  0  0
   -0.2588   13.7847   -0.5193 H   0  0  0  0  0  0  0  0  0  0  0  0
    1.5581   14.5182   -3.5318 H   0  0  0  0  0  0  0  0  0  0  0  0
   -0.9753   14.1096   -3.2972 H   0  0  0  0  0  0  0  0  0  0  0  0
    0.1081   12.9011   -4.1662 H   0  0  0  0  0  0  0  0  0  0  0  0
   -1.7302   11.8850   -2.5754 H   0  0  0  0  0  0  0  0  0  0  0  0
    1.4216   12.5273   -0.1338 H   0  0  0  0  0  0  0  0  0  0  0  0
    2.2816   10.1407   -1.8826 H   0  0  0  0  0  0  0  0  0  0  0  0
    3.2571   10.9441   -0.5734 H   0  0  0  0  0  0  0  0  0  0  0  0
    2.2609    8.8086    0.1783 H   0  0  0  0  0  0  0  0  0  0  0  0
    1.6491   10.2370    1.1010 H   0  0  0  0  0  0  0  0  0  0  0  0
   -0.1988    8.7847    0.6144 H   0  0  0  0  0  0  0  0  0  0  0  0
   -0.5100    8.8540   -1.9810 H   0  0  0  0  0  0  0  0  0  0  0  0
   -0.7015   10.5794    1.7439 H   0  0  0  0  0  0  0  0  0  0  0  0
   -0.3432   12.1782    1.0076 H   0  0  0  0  0  0  0  0  0  0  0  0
   -2.0245   11.5458    1.0076 H   0  0  0  0  0  0  0  0  0  0  0  0
   -2.7214    9.8419   -0.0659 H   0  0  0  0  0  0  0  0  0  0  0  0
   -2.5650   10.8569   -1.5396 H   0  0  0  0  0  0  0  0  0  0  0  0
   -1.9434    9.1716   -1.5396 H   0  0  0  0  0  0  0  0  0  0  0  0
    3.3451   11.4132   -2.9491 H   0  0  0  0  0  0  0  0  0  0  0  0
    1.8866   11.8230   -3.9143 H   0  0  0  0  0  0  0  0  0  0  0  0
    3.3031   12.9276   -3.9143 H   0  0  0  0  0  0  0  0  0  0  0  0
    3.7669   12.9536   -0.6706 H   0  0  0  0  0  0  0  0  0  0  0  0
    3.9914   14.0223   -2.1677 H   0  0  0  0  0  0  0  0  0  0  0  0
    2.4541   14.6800    0.3599 H   0  0  0  0  0  0  0  0  0  0  0  0
    3.9652   15.4436   -0.2734 H   0  0  0  0  0  0  0  0  0  0  0  0
    3.9672   16.8609   -2.2531 H   0  0  0  0  0  0  0  0  0  0  0  0
    3.2830   15.5026   -3.2089 H   0  0  0  0  0  0  0  0  0  0  0  0
    2.4655   17.1021   -3.2089 H   0  0  0  0  0  0  0  0  0  0  0  0
  1  2  1  0
  2  3  1  0
  3  4  1  0
  4  5  1  0
  5  6  1  0
  6  7  1  0
  7  8  1  0
  7  9  1  0
  2 10  1  0
 10 11  1  0
 11 12  1  0
 12 13  1  0
 13 14  1  1
 13 15  1  0
 15 16  1  0
 16 17  1  0
 17 18  2  0
 18 19  1  0
 19 20  1  0
 20 21  1  0
 21 22  1  0
 22 23  1  0
 22 24  1  0
 24 25  1  0
 24 26  1  0
 19 27  1  0
 27 28  1  6
 27 29  1  0
 29 30  1  0
 30 31  1  0
 31 32  1  6
  7  5  1  0
 31 10  1  0
 31 13  1  0
 27 15  1  0
 24 18  1  0
  1 33  1  0
  1 34  1  0
  1 35  1  0
  2 36  1  6
  3 37  1  0
  3 38  1  0
  4 39  1  0
  4 40  1  0
  5 41  1  6
  8 42  1  0
  8 43  1  0
  8 44  1  0
  9 45  1  0
  9 46  1  0
  9 47  1  0
 10 48  1  1
 11 49  1  0
 11 50  1  0
 12 51  1  0
 12 52  1  0
 14 53  1  0
 14 54  1  0
 14 55  1  0
 15 56  1  6
 16 57  1  0
 16 58  1  0
 17 59  1  0
 19 60  1  1
 20 61  1  0
 20 62  1  0
 21 63  1  0
 21 64  1  0
 22 65  1  1
 23 66  1  0
 25 67  1  0
 25 68  1  0
 25 69  1  0
 26 70  1  0
 26 71  1  0
 26 72  1  0
 28 73  1  0
 28 74  1  0
 28 75  1  0
 29 76  1  0
 29 77  1  0
 30 78  1  0
 30 79  1  0
 32 80  1  0
 32 81  1  0
 32 82  1  0
M  END
>  <meeko>  (5) 
{"is_sidechain": [false], "intermolecular_energy": 2.731, "internal_energy": -0.839}

$$$$
EPH_relaxed_0001_pdb2pqr_Repair_275_r2_0001_out
     RDKit          3D

 82 86  0  0  0  0  0  0  0  0999 V2000
   -5.1250    5.8800   -1.9050 C   0  0  0  0  0  0  0  0  0  0  0  0
   -5.4610    7.3740   -1.8890 C   0  0  2  0  0  0  0  0  0  0  0  0
   -5.2440    8.0030   -0.4980 C   0  0  0  0  0  0  0  0  0  0  0  0
   -4.2020    9.1240   -0.4850 C   0  0  0  0  0  0  0  0  0  0  0  0
   -2.8310    8.6110   -0.8090 C   0  0  2  0  0  0  0  0  0  0  0  0
   -1.8210    8.9550    0.1480 O   0  0  0  0  0  0  0  0  0  0  0  0
   -1.6640    9.5110   -1.1680 C   0  0  0  0  0  0  0  0  0  0  0  0
   -1.8130   10.9990   -1.2220 C   0  0  0  0  0  0  0  0  0  0  0  0
   -0.5190    8.9270   -1.9360 C   0  0  0  0  0  0  0  0  0  0  0  0
   -6.9010    7.5880   -2.3390 C   0  0  1  0  0  0  0  0  0  0  0  0
   -7.2180    6.8810   -3.6840 C   0  0  0  0  0  0  0  0  0  0  0  0
   -8.6890    6.3990   -3.6000 C   0  0  0  0  0  0  0  0  0  0  0  0
   -9.2670    7.1240   -2.3630 C   0  0  1  0  0  0  0  0  0  0  0  0
   -9.6330    8.5540   -2.8720 C   0  0  0  0  0  0  0  0  0  0  0  0
  -10.4820    6.4330   -1.6610 C   0  0  2  0  0  0  0  0  0  0  0  0
  -11.7440    6.2930   -2.5300 C   0  0  0  0  0  0  0  0  0  0  0  0
  -12.7050    7.4330   -2.4470 C   0  0  0  0  0  0  0  0  0  0  0  0
  -12.7050    8.3880   -1.4980 C   0  0  0  0  0  0  0  0  0  0  0  0
  -11.7270    8.3260   -0.3170 C   0  0  1  0  0  0  0  0  0  0  0  0
  -12.4910    8.6090    1.0030 C   0  0  0  0  0  0  0  0  0  0  0  0
  -13.2700    9.9200    0.9580 C   0  0  0  0  0  0  0  0  0  0  0  0
  -14.2720    9.9210   -0.1930 C   0  0  2  0  0  0  0  0  0  0  0  0
  -15.2810    8.9410    0.0730 O   0  0  0  0  0  0  0  0  0  0  0  0
  -13.6190    9.6360   -1.5740 C   0  0  0  0  0  0  0  0  0  0  0  0
  -12.7530   10.8480   -2.0000 C   0  0  0  0  0  0  0  0  0  0  0  0
  -14.7550    9.5240   -2.6260 C   0  0  0  0  0  0  0  0  0  0  0  0
  -10.8250    7.0200   -0.2330 C   0  0  1  0  0  0  0  0  0  0  0  0
  -11.5840    5.8980    0.5390 C   0  0  0  0  0  0  0  0  0  0  0  0
   -9.5330    7.3420    0.6080 C   0  0  0  0  0  0  0  0  0  0  0  0
   -8.3270    7.9110   -0.1620 C   0  0  0  0  0  0  0  0  0  0  0  0
   -8.0230    7.0690   -1.4050 C   0  0  2  0  0  0  0  0  0  0  0  0
   -7.6300    5.6310   -0.9230 C   0  0  0  0  0  0  0  0  0  0  0  0
   -5.0422    5.5117   -0.8718 H   0  0  0  0  0  0  0  0  0  0  0  0
   -5.9220    5.3305   -2.4273 H   0  0  0  0  0  0  0  0  0  0  0  0
   -4.1695    5.7246   -2.4273 H   0  0  0  0  0  0  0  0  0  0  0  0
   -4.7752    7.8749   -2.5882 H   0  0  0  0  0  0  0  0  0  0  0  0
   -6.2025    8.4158   -0.1503 H   0  0  0  0  0  0  0  0  0  0  0  0
   -4.8668    7.2060    0.1597 H   0  0  0  0  0  0  0  0  0  0  0  0
   -4.4844    9.8818   -1.2307 H   0  0  0  0  0  0  0  0  0  0  0  0
   -4.1761    9.5562    0.5262 H   0  0  0  0  0  0  0  0  0  0  0  0
   -3.2544    7.7216   -1.2986 H   0  0  0  0  0  0  0  0  0  0  0  0
   -1.8532   11.4008   -0.1988 H   0  0  0  0  0  0  0  0  0  0  0  0
   -0.9540   11.4345   -1.7534 H   0  0  0  0  0  0  0  0  0  0  0  0
   -2.7413   11.2555   -1.7534 H   0  0  0  0  0  0  0  0  0  0  0  0
    0.2353    8.5423   -1.2338 H   0  0  0  0  0  0  0  0  0  0  0  0
   -0.8836    8.1047   -2.5692 H   0  0  0  0  0  0  0  0  0  0  0  0
   -0.0675    9.7049   -2.5692 H   0  0  0  0  0  0  0  0  0  0  0  0
   -6.9206    8.6872   -2.3764 H   0  0  0  0  0  0  0  0  0  0  0  0
   -7.0974    7.5857   -4.5200 H   0  0  0  0  0  0  0  0  0  0  0  0
   -6.5348    6.0364   -3.8569 H   0  0  0  0  0  0  0  0  0  0  0  0
   -9.2421    6.6799   -4.5084 H   0  0  0  0  0  0  0  0  0  0  0  0
   -8.7653    5.3049   -3.5157 H   0  0  0  0  0  0  0  0  0  0  0  0
   -9.8028    9.2173   -2.0111 H   0  0  0  0  0  0  0  0  0  0  0  0
   -8.8069    8.9487   -3.4817 H   0  0  0  0  0  0  0  0  0  0  0  0
  -10.5471    8.5034   -3.4817 H   0  0  0  0  0  0  0  0  0  0  0  0
  -10.1127    5.4088   -1.5039 H   0  0  0  0  0  0  0  0  0  0  0  0
  -11.4256    6.1924   -3.5781 H   0  0  0  0  0  0  0  0  0  0  0  0
  -12.2815    5.4132   -2.1466 H   0  0  0  0  0  0  0  0  0  0  0  0
  -13.4780    7.4979   -3.2269 H   0  0  0  0  0  0  0  0  0  0  0  0
  -10.9839    9.1174   -0.4944 H   0  0  0  0  0  0  0  0  0  0  0  0
  -13.1969    7.7854    1.1855 H   0  0  0  0  0  0  0  0  0  0  0  0
  -11.7468    8.6901    1.8090 H   0  0  0  0  0  0  0  0  0  0  0  0
  -13.8116   10.0495    1.9066 H   0  0  0  0  0  0  0  0  0  0  0  0
  -12.5590   10.7452    0.8047 H   0  0  0  0  0  0  0  0  0  0  0  0
  -14.7044   10.9307   -0.2527 H   0  0  0  0  0  0  0  0  0  0  0  0
  -16.0800    9.4130    0.3620 H   0  0  0  0  0  0  0  0  0  0  0  0
  -12.3823   11.3669   -1.1037 H   0  0  0  0  0  0  0  0  0  0  0  0
  -11.9002   10.4967   -2.5994 H   0  0  0  0  0  0  0  0  0  0  0  0
  -13.3617   11.5410   -2.5994 H   0  0  0  0  0  0  0  0  0  0  0  0
  -15.7228    9.4286   -2.1119 H   0  0  0  0  0  0  0  0  0  0  0  0
  -14.7617   10.4258   -3.2558 H   0  0  0  0  0  0  0  0  0  0  0  0
  -14.5855    8.6382   -3.2558 H   0  0  0  0  0  0  0  0  0  0  0  0
  -11.4748    6.0595    1.6216 H   0  0  0  0  0  0  0  0  0  0  0  0
  -12.6503    5.9247    0.2700 H   0  0  0  0  0  0  0  0  0  0  0  0
  -11.1624    4.9182    0.2700 H   0  0  0  0  0  0  0  0  0  0  0  0
   -9.8119    8.0757    1.3787 H   0  0  0  0  0  0  0  0  0  0  0  0
   -9.1936    6.3708    0.9972 H   0  0  0  0  0  0  0  0  0  0  0  0
   -8.5521    8.9421   -0.4721 H   0  0  0  0  0  0  0  0  0  0  0  0
   -7.4478    7.8908    0.4988 H   0  0  0  0  0  0  0  0  0  0  0  0
   -7.6221    5.6022    0.1766 H   0  0  0  0  0  0  0  0  0  0  0  0
   -8.3623    4.9038   -1.3036 H   0  0  0  0  0  0  0  0  0  0  0  0
   -6.6296    5.3773   -1.3036 H   0  0  0  0  0  0  0  0  0  0  0  0
  1  2  1  0
  2  3  1  0
  3  4  1  0
  4  5  1  0
  5  6  1  0
  6  7  1  0
  7  8  1  0
  7  9  1  0
  2 10  1  0
 10 11  1  0
 11 12  1  0
 12 13  1  0
 13 14  1  6
 13 15  1  0
 15 16  1  0
 16 17  1  0
 17 18  2  0
 18 19  1  0
 19 20  1  0
 20 21  1  0
 21 22  1  0
 22 23  1  0
 22 24  1  0
 24 25  1  0
 24 26  1  0
 19 27  1  0
 27 28  1  1
 27 29  1  0
 29 30  1  0
 30 31  1  0
 31 32  1  1
  7  5  1  0
 31 10  1  0
 31 13  1  0
 27 15  1  0
 24 18  1  0
  1 33  1  0
  1 34  1  0
  1 35  1  0
  2 36  1  6
  3 37  1  0
  3 38  1  0
  4 39  1  0
  4 40  1  0
  5 41  1  6
  8 42  1  0
  8 43  1  0
  8 44  1  0
  9 45  1  0
  9 46  1  0
  9 47  1  0
 10 48  1  6
 11 49  1  0
 11 50  1  0
 12 51  1  0
 12 52  1  0
 14 53  1  0
 14 54  1  0
 14 55  1  0
 15 56  1  1
 16 57  1  0
 16 58  1  0
 17 59  1  0
 19 60  1  6
 20 61  1  0
 20 62  1  0
 21 63  1  0
 21 64  1  0
 22 65  1  6
 23 66  1  0
 25 67  1  0
 25 68  1  0
 25 69  1  0
 26 70  1  0
 26 71  1  0
 26 72  1  0
 28 73  1  0
 28 74  1  0
 28 75  1  0
 29 76  1  0
 29 77  1  0
 30 78  1  0
 30 79  1  0
 32 80  1  0
 32 81  1  0
 32 82  1  0
M  END
>  <meeko>  (6) 
{"is_sidechain": [false], "intermolecular_energy": 2.731, "internal_energy": -0.839}

$$$$
EPH_relaxed_0001_pdb2pqr_Repair_275_r2_0001_out
     RDKit          3D

 82 86  0  0  0  0  0  0  0  0999 V2000
   -0.7430   19.8950   -2.1990 C   0  0  0  0  0  0  0  0  0  0  0  0
    0.0990   19.2340   -1.1040 C   0  0  2  0  0  0  0  0  0  0  0  0
    1.1580   20.1940   -0.5260 C   0  0  0  0  0  0  0  0  0  0  0  0
    1.6380   19.8090    0.8760 C   0  0  0  0  0  0  0  0  0  0  0  0
    3.1300   19.6840    0.9360 C   0  0  2  0  0  0  0  0  0  0  0  0
    3.6070   18.5490    1.6710 O   0  0  0  0  0  0  0  0  0  0  0  0
    3.9320   19.8380    2.2140 C   0  0  0  0  0  0  0  0  0  0  0  0
    3.2670   20.1330    3.5220 C   0  0  0  0  0  0  0  0  0  0  0  0
    5.3850   20.1870    2.1100 C   0  0  0  0  0  0  0  0  0  0  0  0
    0.7750   17.9830   -1.6530 C   0  0  1  0  0  0  0  0  0  0  0  0
    2.2890   18.1920   -1.9230 C   0  0  0  0  0  0  0  0  0  0  0  0
    2.9910   16.8480   -1.6000 C   0  0  0  0  0  0  0  0  0  0  0  0
    1.8370   15.8250   -1.4770 C   0  0  1  0  0  0  0  0  0  0  0  0
    1.4890   15.4340   -2.9470 C   0  0  0  0  0  0  0  0  0  0  0  0
    2.1220   14.5650   -0.5960 C   0  0  2  0  0  0  0  0  0  0  0  0
    3.2580   13.6590   -1.1020 C   0  0  0  0  0  0  0  0  0  0  0  0
    2.8370   12.5680   -2.0310 C   0  0  0  0  0  0  0  0  0  0  0  0
    1.5730   12.1460   -2.2210 C   0  0  0  0  0  0  0  0  0  0  0  0
    0.4190   12.7170   -1.3870 C   0  0  1  0  0  0  0  0  0  0  0  0
   -0.4750   11.5570   -0.8760 C   0  0  0  0  0  0  0  0  0  0  0  0
   -0.9610   10.6520   -2.0040 C   0  0  0  0  0  0  0  0  0  0  0  0
    0.2160   10.0580   -2.7730 C   0  0  2  0  0  0  0  0  0  0  0  0
    0.9260    9.1640   -1.9090 O   0  0  0  0  0  0  0  0  0  0  0  0
    1.1920   11.1330   -3.3280 C   0  0  0  0  0  0  0  0  0  0  0  0
    0.5090   11.9080   -4.4820 C   0  0  0  0  0  0  0  0  0  0  0  0
    2.4050   10.3970   -3.9570 C   0  0  0  0  0  0  0  0  0  0  0  0
    0.8320   13.7250   -0.2300 C   0  0  1  0  0  0  0  0  0  0  0  0
    1.1700   12.9330    1.0700 C   0  0  0  0  0  0  0  0  0  0  0  0
   -0.4000   14.6420    0.1170 C   0  0  0  0  0  0  0  0  0  0  0  0
   -0.5600   15.9330   -0.7080 C   0  0  0  0  0  0  0  0  0  0  0  0
    0.7560   16.7150   -0.7630 C   0  0  2  0  0  0  0  0  0  0  0  0
    1.1200   17.1420    0.7000 C   0  0  0  0  0  0  0  0  0  0  0  0
   -1.5279   20.5112   -1.7362 H   0  0  0  0  0  0  0  0  0  0  0  0
   -0.0984   20.5308   -2.8237 H   0  0  0  0  0  0  0  0  0  0  0  0
   -1.2076   19.1179   -2.8237 H   0  0  0  0  0  0  0  0  0  0  0  0
   -0.5809   18.9604   -0.2837 H   0  0  0  0  0  0  0  0  0  0  0  0
    2.0266   20.2000   -1.2010 H   0  0  0  0  0  0  0  0  0  0  0  0
    0.6840   21.1832   -0.4431 H   0  0  0  0  0  0  0  0  0  0  0  0
    1.3162   20.5832    1.5881 H   0  0  0  0  0  0  0  0  0  0  0  0
    1.2015   18.8323    1.1318 H   0  0  0  0  0  0  0  0  0  0  0  0
    3.2315   20.1427   -0.0586 H   0  0  0  0  0  0  0  0  0  0  0  0
    3.9326   19.8377    4.3465 H   0  0  0  0  0  0  0  0  0  0  0  0
    3.0540   21.2100    3.5904 H   0  0  0  0  0  0  0  0  0  0  0  0
    2.3256   19.5680    3.5904 H   0  0  0  0  0  0  0  0  0  0  0  0
    5.8107   20.2892    3.1191 H   0  0  0  0  0  0  0  0  0  0  0  0
    5.9154   19.3907    1.5672 H   0  0  0  0  0  0  0  0  0  0  0  0
    5.4959   21.1373    1.5672 H   0  0  0  0  0  0  0  0  0  0  0  0
    0.1612   17.8213   -2.5514 H   0  0  0  0  0  0  0  0  0  0  0  0
    2.4522   18.4608   -2.9771 H   0  0  0  0  0  0  0  0  0  0  0  0
    2.6918   19.0067   -1.3033 H   0  0  0  0  0  0  0  0  0  0  0  0
    3.6774   16.5636   -2.4112 H   0  0  0  0  0  0  0  0  0  0  0  0
    3.5984   16.9039   -0.6846 H   0  0  0  0  0  0  0  0  0  0  0  0
    0.7577   14.6123   -2.9445 H   0  0  0  0  0  0  0  0  0  0  0  0
    1.0611   16.3041   -3.4664 H   0  0  0  0  0  0  0  0  0  0  0  0
    2.4029   15.1099   -3.4664 H   0  0  0  0  0  0  0  0  0  0  0  0
    2.4893   15.0098    0.3406 H   0  0  0  0  0  0  0  0  0  0  0  0
    3.9882   14.2911   -1.6286 H   0  0  0  0  0  0  0  0  0  0  0  0
    3.6689   13.1598   -0.2121 H   0  0  0  0  0  0  0  0  0  0  0  0
    3.6271   12.0666   -2.6092 H   0  0  0  0  0  0  0  0  0  0  0  0
   -0.1581   13.3603   -2.0675 H   0  0  0  0  0  0  0  0  0  0  0  0
    0.1053   10.9520   -0.1638 H   0  0  0  0  0  0  0  0  0  0  0  0
   -1.3611   12.0030   -0.4006 H   0  0  0  0  0  0  0  0  0  0  0  0
   -1.5609    9.8349   -1.5768 H   0  0  0  0  0  0  0  0  0  0  0  0
   -1.5671   11.2519   -2.6987 H   0  0  0  0  0  0  0  0  0  0  0  0
   -0.1939    9.5275   -3.6451 H   0  0  0  0  0  0  0  0  0  0  0  0
    0.5220    9.2250   -1.0270 H   0  0  0  0  0  0  0  0  0  0  0  0
   -0.1636   12.6712   -4.0635 H   0  0  0  0  0  0  0  0  0  0  0  0
    1.2766   12.3954   -5.1011 H   0  0  0  0  0  0  0  0  0  0  0  0
   -0.0711   11.2078   -5.1011 H   0  0  0  0  0  0  0  0  0  0  0  0
    3.0509   10.0051   -3.1575 H   0  0  0  0  0  0  0  0  0  0  0  0
    2.0460    9.5643   -4.5797 H   0  0  0  0  0  0  0  0  0  0  0  0
    2.9778   11.1000   -4.5797 H   0  0  0  0  0  0  0  0  0  0  0  0
    0.9101   13.5420    1.9484 H   0  0  0  0  0  0  0  0  0  0  0  0
    0.5931   11.9966    1.0893 H   0  0  0  0  0  0  0  0  0  0  0  0
    2.2452   12.7017    1.0893 H   0  0  0  0  0  0  0  0  0  0  0  0
   -1.3112   14.0422   -0.0238 H   0  0  0  0  0  0  0  0  0  0  0  0
   -0.2251   14.9801    1.1490 H   0  0  0  0  0  0  0  0  0  0  0  0
   -0.8656   15.6704   -1.7315 H   0  0  0  0  0  0  0  0  0  0  0  0
   -1.3230   16.5636   -0.2282 H   0  0  0  0  0  0  0  0  0  0  0  0
    0.5770   16.5050    1.4137 H   0  0  0  0  0  0  0  0  0  0  0  0
    2.2028   17.0277    0.8567 H   0  0  0  0  0  0  0  0  0  0  0  0
    0.8358   18.1930    0.8567 H   0  0  0  0  0  0  0  0  0  0  0  0
  1  2  1  0
  2  3  1  0
  3  4  1  0
  4  5  1  0
  5  6  1  0
  6  7  1  0
  7  8  1  0
  7  9  1  0
  2 10  1  0
 10 11  1  0
 11 12  1  0
 12 13  1  0
 13 14  1  6
 13 15  1  0
 15 16  1  0
 16 17  1  0
 17 18  2  0
 18 19  1  0
 19 20  1  0
 20 21  1  0
 21 22  1  0
 22 23  1  0
 22 24  1  0
 24 25  1  0
 24 26  1  0
 19 27  1  0
 27 28  1  1
 27 29  1  0
 29 30  1  0
 30 31  1  0
 31 32  1  1
  7  5  1  0
 31 10  1  0
 31 13  1  0
 27 15  1  0
 24 18  1  0
  1 33  1  0
  1 34  1  0
  1 35  1  0
  2 36  1  1
  3 37  1  0
  3 38  1  0
  4 39  1  0
  4 40  1  0
  5 41  1  6
  8 42  1  0
  8 43  1  0
  8 44  1  0
  9 45  1  0
  9 46  1  0
  9 47  1  0
 10 48  1  6
 11 49  1  0
 11 50  1  0
 12 51  1  0
 12 52  1  0
 14 53  1  0
 14 54  1  0
 14 55  1  0
 15 56  1  1
 16 57  1  0
 16 58  1  0
 17 59  1  0
 19 60  1  6
 20 61  1  0
 20 62  1  0
 21 63  1  0
 21 64  1  0
 22 65  1  6
 23 66  1  0
 25 67  1  0
 25 68  1  0
 25 69  1  0
 26 70  1  0
 26 71  1  0
 26 72  1  0
 28 73  1  0
 28 74  1  0
 28 75  1  0
 29 76  1  0
 29 77  1  0
 30 78  1  0
 30 79  1  0
 32 80  1  0
 32 81  1  0
 32 82  1  0
M  END
>  <meeko>  (7) 
{"is_sidechain": [false], "intermolecular_energy": 2.731, "internal_energy": -0.839}

$$$$
EPH_relaxed_0001_pdb2pqr_Repair_275_r2_0001_out
     RDKit          3D

 82 86  0  0  0  0  0  0  0  0999 V2000
    0.4410    8.8650   -2.4980 C   0  0  0  0  0  0  0  0  0  0  0  0
    1.1970   10.0200   -3.1620 C   0  0  2  0  0  0  0  0  0  0  0  0
    2.6910   10.0300   -2.7820 C   0  0  0  0  0  0  0  0  0  0  0  0
    3.5980   10.6160   -3.8680 C   0  0  0  0  0  0  0  0  0  0  0  0
    4.9870   10.8590   -3.3590 C   0  0  2  0  0  0  0  0  0  0  0  0
    5.5950   12.0680   -3.8310 O   0  0  0  0  0  0  0  0  0  0  0  0
    6.2180   10.8420   -4.2460 C   0  0  0  0  0  0  0  0  0  0  0  0
    6.1170   10.5750   -5.7150 C   0  0  0  0  0  0  0  0  0  0  0  0
    7.5520   10.5990   -3.6120 C   0  0  0  0  0  0  0  0  0  0  0  0
    0.5540   11.3490   -2.7820 C   0  0  1  0  0  0  0  0  0  0  0  0
   -0.8340   11.1710   -2.1110 C   0  0  0  0  0  0  0  0  0  0  0  0
   -0.9640   12.2920   -1.0490 C   0  0  0  0  0  0  0  0  0  0  0  0
    0.1920   13.2680   -1.3680 C   0  0  1  0  0  0  0  0  0  0  0  0
   -0.3370   14.1470   -2.5440 C   0  0  0  0  0  0  0  0  0  0  0  0
    0.7060   14.1440   -0.1790 C   0  0  2  0  0  0  0  0  0  0  0  0
   -0.3330   15.1120    0.4140 C   0  0  0  0  0  0  0  0  0  0  0  0
   -0.3640   16.4710   -0.2050 C   0  0  0  0  0  0  0  0  0  0  0  0
    0.5910   16.9920   -0.9970 C   0  0  0  0  0  0  0  0  0  0  0  0
    1.8950   16.2290   -1.2640 C   0  0  1  0  0  0  0  0  0  0  0  0
    3.1010   17.1920   -1.0980 C   0  0  0  0  0  0  0  0  0  0  0  0
    2.9710   18.4450   -1.9580 C   0  0  0  0  0  0  0  0  0  0  0  0
    1.6910   19.2070   -1.6230 C   0  0  2  0  0  0  0  0  0  0  0  0
    1.7970   19.7230   -0.2930 O   0  0  0  0  0  0  0  0  0  0  0  0
    0.4100   18.3350   -1.7450 C   0  0  0  0  0  0  0  0  0  0  0  0
    0.1300   18.0270   -3.2370 C   0  0  0  0  0  0  0  0  0  0  0  0
   -0.7920   19.1810   -1.2440 C   0  0  0  0  0  0  0  0  0  0  0  0
    2.0830   14.8730   -0.4570 C   0  0  1  0  0  0  0  0  0  0  0  0
    2.7220   15.1650    0.9350 C   0  0  0  0  0  0  0  0  0  0  0  0
    3.1010   13.9520   -1.2290 C   0  0  0  0  0  0  0  0  0  0  0  0
    2.5160   13.0230   -2.3100 C   0  0  0  0  0  0  0  0  0  0  0  0
    1.3140   12.2430   -1.7700 C   0  0  2  0  0  0  0  0  0  0  0  0
    1.8210   11.3330   -0.6000 C   0  0  0  0  0  0  0  0  0  0  0  0
    0.5062    8.9647   -1.4045 H   0  0  0  0  0  0  0  0  0  0  0  0
   -0.6145    8.8923   -2.8064 H   0  0  0  0  0  0  0  0  0  0  0  0
    0.8884    7.9086   -2.8064 H   0  0  0  0  0  0  0  0  0  0  0  0
    1.1340    9.8745   -4.2505 H   0  0  0  0  0  0  0  0  0  0  0  0
    2.8128   10.6288   -1.8673 H   0  0  0  0  0  0  0  0  0  0  0  0
    2.9940    8.9820   -2.6407 H   0  0  0  0  0  0  0  0  0  0  0  0
    3.6456    9.9112   -4.7112 H   0  0  0  0  0  0  0  0  0  0  0  0
    3.1750   11.5810   -4.1840 H   0  0  0  0  0  0  0  0  0  0  0  0
    4.7533   10.3521   -2.4111 H   0  0  0  0  0  0  0  0  0  0  0  0
    5.7321    9.5574   -5.8771 H   0  0  0  0  0  0  0  0  0  0  0  0
    5.4323   11.3034   -6.1739 H   0  0  0  0  0  0  0  0  0  0  0  0
    7.1124   10.6679   -6.1739 H   0  0  0  0  0  0  0  0  0  0  0  0
    7.4466   10.6182   -2.5172 H   0  0  0  0  0  0  0  0  0  0  0  0
    7.9339    9.6165   -3.9264 H   0  0  0  0  0  0  0  0  0  0  0  0
    8.2558   11.3837   -3.9264 H   0  0  0  0  0  0  0  0  0  0  0  0
    0.5329   11.8327   -3.7697 H   0  0  0  0  0  0  0  0  0  0  0  0
   -1.6326   11.2658   -2.8615 H   0  0  0  0  0  0  0  0  0  0  0  0
   -0.9249   10.1768   -1.6491 H   0  0  0  0  0  0  0  0  0  0  0  0
   -1.9360   12.7994   -1.1370 H   0  0  0  0  0  0  0  0  0  0  0  0
   -0.9089   11.9019   -0.0220 H   0  0  0  0  0  0  0  0  0  0  0  0
   -0.8643   15.0231   -2.1385 H   0  0  0  0  0  0  0  0  0  0  0  0
    0.5097   14.4818   -3.1612 H   0  0  0  0  0  0  0  0  0  0  0  0
   -1.0293   13.5556   -3.1612 H   0  0  0  0  0  0  0  0  0  0  0  0
    0.8958   13.3930    0.6021 H   0  0  0  0  0  0  0  0  0  0  0  0
   -1.3281   14.6597    0.2912 H   0  0  0  0  0  0  0  0  0  0  0  0
   -0.0444   15.2623    1.4648 H   0  0  0  0  0  0  0  0  0  0  0  0
   -1.2422   17.0994    0.0044 H   0  0  0  0  0  0  0  0  0  0  0  0
    1.8352   15.8799   -2.3054 H   0  0  0  0  0  0  0  0  0  0  0  0
    3.1684   17.4941   -0.0425 H   0  0  0  0  0  0  0  0  0  0  0  0
    4.0043   16.6554   -1.4238 H   0  0  0  0  0  0  0  0  0  0  0  0
    3.8370   19.0983   -1.7754 H   0  0  0  0  0  0  0  0  0  0  0  0
    2.9330   18.1427   -3.0150 H   0  0  0  0  0  0  0  0  0  0  0  0
    1.5884   20.0197   -2.3572 H   0  0  0  0  0  0  0  0  0  0  0  0
    2.6740   20.1330   -0.2050 H   0  0  0  0  0  0  0  0  0  0  0  0
   -0.6082   17.2149   -3.3115 H   0  0  0  0  0  0  0  0  0  0  0  0
   -0.2649   18.9278   -3.7295 H   0  0  0  0  0  0  0  0  0  0  0  0
    1.0643   17.7195   -3.7295 H   0  0  0  0  0  0  0  0  0  0  0  0
   -0.8022   19.1882   -0.1441 H   0  0  0  0  0  0  0  0  0  0  0  0
   -0.6957   20.2115   -1.6165 H   0  0  0  0  0  0  0  0  0  0  0  0
   -1.7296   18.7426   -1.6165 H   0  0  0  0  0  0  0  0  0  0  0  0
    2.0302   14.8489    1.7296 H   0  0  0  0  0  0  0  0  0  0  0  0
    3.6666   14.6092    1.0287 H   0  0  0  0  0  0  0  0  0  0  0  0
    2.9200   16.2430    1.0287 H   0  0  0  0  0  0  0  0  0  0  0  0
    3.8384   14.6067   -1.7165 H   0  0  0  0  0  0  0  0  0  0  0  0
    3.5162   13.2785   -0.4648 H   0  0  0  0  0  0  0  0  0  0  0  0
    2.1949   13.6291   -3.1700 H   0  0  0  0  0  0  0  0  0  0  0  0
    3.2924   12.3053   -2.6134 H   0  0  0  0  0  0  0  0  0  0  0  0
    1.5627   11.7966    0.3635 H   0  0  0  0  0  0  0  0  0  0  0  0
    1.3436   10.3446   -0.6710 H   0  0  0  0  0  0  0  0  0  0  0  0
    2.9128   11.2188   -0.6710 H   0  0  0  0  0  0  0  0  0  0  0  0
  1  2  1  0
  2  3  1  0
  3  4  1  0
  4  5  1  0
  5  6  1  0
  6  7  1  0
  7  8  1  0
  7  9  1  0
  2 10  1  0
 10 11  1  0
 11 12  1  0
 12 13  1  0
 13 14  1  6
 13 15  1  0
 15 16  1  0
 16 17  1  0
 17 18  2  0
 18 19  1  0
 19 20  1  0
 20 21  1  0
 21 22  1  0
 22 23  1  0
 22 24  1  0
 24 25  1  0
 24 26  1  0
 19 27  1  0
 27 28  1  1
 27 29  1  0
 29 30  1  0
 30 31  1  0
 31 32  1  1
  7  5  1  0
 31 10  1  0
 31 13  1  0
 27 15  1  0
 24 18  1  0
  1 33  1  0
  1 34  1  0
  1 35  1  0
  2 36  1  6
  3 37  1  0
  3 38  1  0
  4 39  1  0
  4 40  1  0
  5 41  1  1
  8 42  1  0
  8 43  1  0
  8 44  1  0
  9 45  1  0
  9 46  1  0
  9 47  1  0
 10 48  1  6
 11 49  1  0
 11 50  1  0
 12 51  1  0
 12 52  1  0
 14 53  1  0
 14 54  1  0
 14 55  1  0
 15 56  1  1
 16 57  1  0
 16 58  1  0
 17 59  1  0
 19 60  1  6
 20 61  1  0
 20 62  1  0
 21 63  1  0
 21 64  1  0
 22 65  1  6
 23 66  1  0
 25 67  1  0
 25 68  1  0
 25 69  1  0
 26 70  1  0
 26 71  1  0
 26 72  1  0
 28 73  1  0
 28 74  1  0
 28 75  1  0
 29 76  1  0
 29 77  1  0
 30 78  1  0
 30 79  1  0
 32 80  1  0
 32 81  1  0
 32 82  1  0
M  END
>  <meeko>  (8) 
{"is_sidechain": [false], "intermolecular_energy": 2.731, "internal_energy": -0.839}

$$$$
EPH_relaxed_0001_pdb2pqr_Repair_275_r2_0001_out
     RDKit          3D

 82 86  0  0  0  0  0  0  0  0999 V2000
    1.2260   19.7060   -1.9040 C   0  0  0  0  0  0  0  0  0  0  0  0
    1.3750   19.3750   -0.4170 C   0  0  2  0  0  0  0  0  0  0  0  0
    2.8060   19.6350    0.0950 C   0  0  0  0  0  0  0  0  0  0  0  0
    2.8780   19.9410    1.5940 C   0  0  0  0  0  0  0  0  0  0  0  0
    4.2670   19.7700    2.1290 C   0  0  2  0  0  0  0  0  0  0  0  0
    4.4970   18.5310    2.8130 O   0  0  0  0  0  0  0  0  0  0  0  0
    4.5930   19.7230    3.6100 C   0  0  0  0  0  0  0  0  0  0  0  0
    3.5230   19.8490    4.6490 C   0  0  0  0  0  0  0  0  0  0  0  0
    5.9890   20.0450    4.0460 C   0  0  0  0  0  0  0  0  0  0  0  0
    0.9890   17.9220   -0.1670 C   0  0  1  0  0  0  0  0  0  0  0  0
   -0.4000   17.7810    0.5100 C   0  0  0  0  0  0  0  0  0  0  0  0
   -1.0480   16.4940   -0.0610 C   0  0  0  0  0  0  0  0  0  0  0  0
    0.1070   15.7640   -0.7870 C   0  0  1  0  0  0  0  0  0  0  0  0
    0.8850   15.0220    0.3440 C   0  0  0  0  0  0  0  0  0  0  0  0
   -0.3060   14.7910   -1.9390 C   0  0  2  0  0  0  0  0  0  0  0  0
   -1.1730   13.5970   -1.5050 C   0  0  0  0  0  0  0  0  0  0  0  0
   -0.4180   12.3680   -1.1170 C   0  0  0  0  0  0  0  0  0  0  0  0
    0.8790   12.1300   -1.3850 C   0  0  0  0  0  0  0  0  0  0  0  0
    1.7010   13.1100   -2.2330 C   0  0  1  0  0  0  0  0  0  0  0  0
    2.5110   12.3220   -3.2960 C   0  0  0  0  0  0  0  0  0  0  0  0
    3.3690   11.2210   -2.6800 C   0  0  0  0  0  0  0  0  0  0  0  0
    2.5090   10.2350   -1.8940 C   0  0  2  0  0  0  0  0  0  0  0  0
    1.6640    9.5290   -2.8080 O   0  0  0  0  0  0  0  0  0  0  0  0
    1.6410   10.9160   -0.7990 C   0  0  0  0  0  0  0  0  0  0  0  0
    2.5510   11.4190    0.3480 C   0  0  0  0  0  0  0  0  0  0  0  0
    0.7190    9.8320   -0.1780 C   0  0  0  0  0  0  0  0  0  0  0  0
    0.8970   14.3290   -2.8580 C   0  0  1  0  0  0  0  0  0  0  0  0
    0.2760   13.9110   -4.2260 C   0  0  0  0  0  0  0  0  0  0  0  0
    1.9000   15.5030   -3.1670 C   0  0  0  0  0  0  0  0  0  0  0  0
    2.1740   16.5000   -2.0250 C   0  0  0  0  0  0  0  0  0  0  0  0
    0.8650   16.9960   -1.4030 C   0  0  2  0  0  0  0  0  0  0  0  0
    0.0710   17.7670   -2.5120 C   0  0  0  0  0  0  0  0  0  0  0  0
    0.7767   20.7040   -2.0143 H   0  0  0  0  0  0  0  0  0  0  0  0
    2.2161   19.6946   -2.3832 H   0  0  0  0  0  0  0  0  0  0  0  0
    0.5781   18.9573   -2.3832 H   0  0  0  0  0  0  0  0  0  0  0  0
    0.6989   20.0406    0.1396 H   0  0  0  0  0  0  0  0  0  0  0  0
    3.4146   18.7411   -0.1065 H   0  0  0  0  0  0  0  0  0  0  0  0
    3.1793   20.5250   -0.4328 H   0  0  0  0  0  0  0  0  0  0  0  0
    2.5570   20.9797    1.7615 H   0  0  0  0  0  0  0  0  0  0  0  0
    2.2189   19.2347    2.1199 H   0  0  0  0  0  0  0  0  0  0  0  0
    4.6843   20.3606    1.3001 H   0  0  0  0  0  0  0  0  0  0  0  0
    3.9759   19.7957    5.6500 H   0  0  0  0  0  0  0  0  0  0  0  0
    3.0084   20.8139    4.5303 H   0  0  0  0  0  0  0  0  0  0  0  0
    2.7984   19.0300    4.5303 H   0  0  0  0  0  0  0  0  0  0  0  0
    6.0366   20.0560    5.1449 H   0  0  0  0  0  0  0  0  0  0  0  0
    6.6798   19.2826    3.6567 H   0  0  0  0  0  0  0  0  0  0  0  0
    6.2761   21.0329    3.6567 H   0  0  0  0  0  0  0  0  0  0  0  0
    1.8417   17.6092    0.4536 H   0  0  0  0  0  0  0  0  0  0  0  0
   -0.2828   17.6943    1.6003 H   0  0  0  0  0  0  0  0  0  0  0  0
   -1.0280   18.6615    0.3094 H   0  0  0  0  0  0  0  0  0  0  0  0
   -1.4526   15.8704    0.7498 H   0  0  0  0  0  0  0  0  0  0  0  0
   -1.8901   16.7142   -0.7335 H   0  0  0  0  0  0  0  0  0  0  0  0
    0.5239   15.3664    1.3243 H   0  0  0  0  0  0  0  0  0  0  0  0
    0.7199   13.9383    0.2525 H   0  0  0  0  0  0  0  0  0  0  0  0
    1.9597   15.2382    0.2525 H   0  0  0  0  0  0  0  0  0  0  0  0
   -0.9583   15.4226   -2.5600 H   0  0  0  0  0  0  0  0  0  0  0  0
   -1.7770   13.9117   -0.6412 H   0  0  0  0  0  0  0  0  0  0  0  0
   -1.7727   13.3207   -2.3848 H   0  0  0  0  0  0  0  0  0  0  0  0
   -0.9688   11.5918   -0.5655 H   0  0  0  0  0  0  0  0  0  0  0  0
    2.3890   13.6118   -1.5366 H   0  0  0  0  0  0  0  0  0  0  0  0
    1.8077   11.8645   -4.0074 H   0  0  0  0  0  0  0  0  0  0  0  0
    3.1868   13.0322   -3.7948 H   0  0  0  0  0  0  0  0  0  0  0  0
    3.8931   10.6814   -3.4826 H   0  0  0  0  0  0  0  0  0  0  0  0
    4.0919   11.6829   -1.9915 H   0  0  0  0  0  0  0  0  0  0  0  0
    3.1903    9.5475   -1.3712 H   0  0  0  0  0  0  0  0  0  0  0  0
    1.9750    8.6090   -2.8460 H   0  0  0  0  0  0  0  0  0  0  0  0
    2.0940   11.1664    1.3162 H   0  0  0  0  0  0  0  0  0  0  0  0
    3.5373   10.9379    0.2714 H   0  0  0  0  0  0  0  0  0  0  0  0
    2.6683   12.5100    0.2714 H   0  0  0  0  0  0  0  0  0  0  0  0
    0.7700    9.8920    0.9192 H   0  0  0  0  0  0  0  0  0  0  0  0
   -0.3172    9.9999   -0.5066 H   0  0  0  0  0  0  0  0  0  0  0  0
    1.0510    8.8361   -0.5066 H   0  0  0  0  0  0  0  0  0  0  0  0
   -0.6248   13.3047   -4.0498 H   0  0  0  0  0  0  0  0  0  0  0  0
    0.0058   14.8118   -4.7966 H   0  0  0  0  0  0  0  0  0  0  0  0
    1.0089   13.3216   -4.7966 H   0  0  0  0  0  0  0  0  0  0  0  0
    2.8617   15.0525   -3.4536 H   0  0  0  0  0  0  0  0  0  0  0  0
    1.4155   16.0956   -3.9570 H   0  0  0  0  0  0  0  0  0  0  0  0
    2.7748   16.0023   -1.2495 H   0  0  0  0  0  0  0  0  0  0  0  0
    2.7157   17.3642   -2.4369 H   0  0  0  0  0  0  0  0  0  0  0  0
   -0.6415   18.4588   -2.0389 H   0  0  0  0  0  0  0  0  0  0  0  0
    0.7742   18.3361   -3.1378 H   0  0  0  0  0  0  0  0  0  0  0  0
   -0.4772   17.0474   -3.1378 H   0  0  0  0  0  0  0  0  0  0  0  0
  1  2  1  0
  2  3  1  0
  3  4  1  0
  4  5  1  0
  5  6  1  0
  6  7  1  0
  7  8  1  0
  7  9  1  0
  2 10  1  0
 10 11  1  0
 11 12  1  0
 12 13  1  0
 13 14  1  1
 13 15  1  0
 15 16  1  0
 16 17  1  0
 17 18  2  0
 18 19  1  0
 19 20  1  0
 20 21  1  0
 21 22  1  0
 22 23  1  0
 22 24  1  0
 24 25  1  0
 24 26  1  0
 19 27  1  0
 27 28  1  6
 27 29  1  0
 29 30  1  0
 30 31  1  0
 31 32  1  6
  7  5  1  0
 31 10  1  0
 31 13  1  0
 27 15  1  0
 24 18  1  0
  1 33  1  0
  1 34  1  0
  1 35  1  0
  2 36  1  1
  3 37  1  0
  3 38  1  0
  4 39  1  0
  4 40  1  0
  5 41  1  6
  8 42  1  0
  8 43  1  0
  8 44  1  0
  9 45  1  0
  9 46  1  0
  9 47  1  0
 10 48  1  1
 11 49  1  0
 11 50  1  0
 12 51  1  0
 12 52  1  0
 14 53  1  0
 14 54  1  0
 14 55  1  0
 15 56  1  6
 16 57  1  0
 16 58  1  0
 17 59  1  0
 19 60  1  1
 20 61  1  0
 20 62  1  0
 21 63  1  0
 21 64  1  0
 22 65  1  1
 23 66  1  0
 25 67  1  0
 25 68  1  0
 25 69  1  0
 26 70  1  0
 26 71  1  0
 26 72  1  0
 28 73  1  0
 28 74  1  0
 28 75  1  0
 29 76  1  0
 29 77  1  0
 30 78  1  0
 30 79  1  0
 32 80  1  0
 32 81  1  0
 32 82  1  0
M  END
>  <meeko>  (9) 
{"is_sidechain": [false], "intermolecular_energy": 2.731, "internal_energy": -0.839}

$$$$
EPH_relaxed_0001_pdb2pqr_Repair_275_r2_0001_out
     RDKit          3D

 82 86  0  0  0  0  0  0  0  0999 V2000
    3.0710   18.1340   -3.9070 C   0  0  0  0  0  0  0  0  0  0  0  0
    2.1030   18.0510   -2.7230 C   0  0  2  0  0  0  0  0  0  0  0  0
    2.3000   19.2140   -1.7300 C   0  0  0  0  0  0  0  0  0  0  0  0
    1.1240   20.1940   -1.6890 C   0  0  0  0  0  0  0  0  0  0  0  0
    0.2650   19.9800   -0.4800 C   0  0  2  0  0  0  0  0  0  0  0  0
   -0.4380   18.7310   -0.4580 O   0  0  0  0  0  0  0  0  0  0  0  0
   -1.2500   19.9140   -0.5300 C   0  0  0  0  0  0  0  0  0  0  0  0
   -1.9940   20.0640   -1.8200 C   0  0  0  0  0  0  0  0  0  0  0  0
   -2.0200   20.1940    0.7220 C   0  0  0  0  0  0  0  0  0  0  0  0
    2.2740   16.7180   -2.0050 C   0  0  1  0  0  0  0  0  0  0  0  0
    2.6490   16.8890   -0.5090 C   0  0  0  0  0  0  0  0  0  0  0  0
    1.9610   15.7320    0.2600 C   0  0  0  0  0  0  0  0  0  0  0  0
    1.4940   14.7540   -0.8430 C   0  0  1  0  0  0  0  0  0  0  0  0
    2.7640   13.9240   -1.2080 C   0  0  0  0  0  0  0  0  0  0  0  0
    0.2850   13.8300   -0.4810 C   0  0  2  0  0  0  0  0  0  0  0  0
    0.5350   12.8540    0.6820 C   0  0  0  0  0  0  0  0  0  0  0  0
    1.0760   11.5190    0.2890 C   0  0  0  0  0  0  0  0  0  0  0  0
    1.0830   11.0150   -0.9590 C   0  0  0  0  0  0  0  0  0  0  0  0
    0.4200   11.7710   -2.1180 C   0  0  1  0  0  0  0  0  0  0  0  0
   -0.4500   10.7880   -2.9460 C   0  0  0  0  0  0  0  0  0  0  0  0
    0.3350    9.5680   -3.4180 C   0  0  0  0  0  0  0  0  0  0  0  0
    0.9300    8.8110   -2.2340 C   0  0  2  0  0  0  0  0  0  0  0  0
   -0.1360    8.2460   -1.4640 O   0  0  0  0  0  0  0  0  0  0  0  0
    1.8190    9.7010   -1.3210 C   0  0  0  0  0  0  0  0  0  0  0  0
    3.1270   10.0660   -2.0650 C   0  0  0  0  0  0  0  0  0  0  0  0
    2.2400    8.8530   -0.0910 C   0  0  0  0  0  0  0  0  0  0  0  0
   -0.3640   13.0960   -1.7230 C   0  0  1  0  0  0  0  0  0  0  0  0
   -1.8290   12.7470   -1.3180 C   0  0  0  0  0  0  0  0  0  0  0  0
   -0.4630   14.0300   -2.9860 C   0  0  0  0  0  0  0  0  0  0  0  0
    0.7070   15.0040   -3.2230 C   0  0  0  0  0  0  0  0  0  0  0  0
    1.0420   15.7790   -1.9460 C   0  0  2  0  0  0  0  0  0  0  0  0
   -0.2100   16.6410   -1.5660 C   0  0  0  0  0  0  0  0  0  0  0  0
    4.1015   18.2224   -3.5326 H   0  0  0  0  0  0  0  0  0  0  0  0
    2.9801   17.2248   -4.5194 H   0  0  0  0  0  0  0  0  0  0  0  0
    2.8266   19.0145   -4.5194 H   0  0  0  0  0  0  0  0  0  0  0  0
    1.0816   18.1288   -3.1238 H   0  0  0  0  0  0  0  0  0  0  0  0
    2.4357   18.7919   -0.7233 H   0  0  0  0  0  0  0  0  0  0  0  0
    3.1794   19.7810   -2.0692 H   0  0  0  0  0  0  0  0  0  0  0  0
    1.5168   21.2213   -1.6697 H   0  0  0  0  0  0  0  0  0  0  0  0
    0.5057   20.0246   -2.5828 H   0  0  0  0  0  0  0  0  0  0  0  0
    0.9577   20.5641    0.1437 H   0  0  0  0  0  0  0  0  0  0  0  0
   -3.0525   20.2774   -1.6101 H   0  0  0  0  0  0  0  0  0  0  0  0
   -1.5606   20.8928   -2.3990 H   0  0  0  0  0  0  0  0  0  0  0  0
   -1.9157   19.1320   -2.3990 H   0  0  0  0  0  0  0  0  0  0  0  0
   -1.3931   19.9661    1.5967 H   0  0  0  0  0  0  0  0  0  0  0  0
   -2.3095   21.2550    0.7449 H   0  0  0  0  0  0  0  0  0  0  0  0
   -2.9234   19.5668    0.7449 H   0  0  0  0  0  0  0  0  0  0  0  0
    3.0593   16.2703   -2.6317 H   0  0  0  0  0  0  0  0  0  0  0  0
    3.7402   16.8313   -0.3831 H   0  0  0  0  0  0  0  0  0  0  0  0
    2.3192   17.8670   -0.1286 H   0  0  0  0  0  0  0  0  0  0  0  0
    2.6726   15.2400    0.9393 H   0  0  0  0  0  0  0  0  0  0  0  0
    1.1275   16.0843    0.8854 H   0  0  0  0  0  0  0  0  0  0  0  0
    3.2655   13.5963   -0.2854 H   0  0  0  0  0  0  0  0  0  0  0  0
    2.4695   13.0435   -1.7979 H   0  0  0  0  0  0  0  0  0  0  0  0
    3.4522   14.5471   -1.7979 H   0  0  0  0  0  0  0  0  0  0  0  0
   -0.4599   14.5499   -0.1112 H   0  0  0  0  0  0  0  0  0  0  0  0
    1.2535   13.3226    1.3706 H   0  0  0  0  0  0  0  0  0  0  0  0
   -0.4488   12.6623    1.1353 H   0  0  0  0  0  0  0  0  0  0  0  0
    1.5050   10.8948    1.0867 H   0  0  0  0  0  0  0  0  0  0  0  0
    1.2414   12.1573   -2.7394 H   0  0  0  0  0  0  0  0  0  0  0  0
   -1.2890   10.4475   -2.3214 H   0  0  0  0  0  0  0  0  0  0  0  0
   -0.8023   11.3247   -3.8392 H   0  0  0  0  0  0  0  0  0  0  0  0
   -0.3394    8.8980   -3.9715 H   0  0  0  0  0  0  0  0  0  0  0  0
    1.1563    9.9080   -4.0660 H   0  0  0  0  0  0  0  0  0  0  0  0
    1.5851    8.0266   -2.6409 H   0  0  0  0  0  0  0  0  0  0  0  0
   -0.2700    8.8140   -0.6860 H   0  0  0  0  0  0  0  0  0  0  0  0
    3.9167   10.2864   -1.3316 H   0  0  0  0  0  0  0  0  0  0  0  0
    3.4382    9.2204   -2.6959 H   0  0  0  0  0  0  0  0  0  0  0  0
    2.9553   10.9506   -2.6959 H   0  0  0  0  0  0  0  0  0  0  0  0
    1.9740    9.3888    0.8321 H   0  0  0  0  0  0  0  0  0  0  0  0
    1.7177    7.8852   -0.1167 H   0  0  0  0  0  0  0  0  0  0  0  0
    3.3266    8.6840   -0.1167 H   0  0  0  0  0  0  0  0  0  0  0  0
   -1.9114   12.7274   -0.2213 H   0  0  0  0  0  0  0  0  0  0  0  0
   -2.5126   13.5074   -1.7235 H   0  0  0  0  0  0  0  0  0  0  0  0
   -2.0963   11.7600   -1.7235 H   0  0  0  0  0  0  0  0  0  0  0  0
   -0.5427   13.3836   -3.8725 H   0  0  0  0  0  0  0  0  0  0  0  0
   -1.3382   14.6706   -2.8024 H   0  0  0  0  0  0  0  0  0  0  0  0
    1.5921   14.4329   -3.5400 H   0  0  0  0  0  0  0  0  0  0  0  0
    0.4129   15.7224   -4.0024 H   0  0  0  0  0  0  0  0  0  0  0  0
   -0.2958   16.7001   -0.4709 H   0  0  0  0  0  0  0  0  0  0  0  0
   -0.0973   17.6538   -1.9801 H   0  0  0  0  0  0  0  0  0  0  0  0
   -1.1159   16.1743   -1.9801 H   0  0  0  0  0  0  0  0  0  0  0  0
  1  2  1  0
  2  3  1  0
  3  4  1  0
  4  5  1  0
  5  6  1  0
  6  7  1  0
  7  8  1  0
  7  9  1  0
  2 10  1  0
 10 11  1  0
 11 12  1  0
 12 13  1  0
 13 14  1  6
 13 15  1  0
 15 16  1  0
 16 17  1  0
 17 18  2  0
 18 19  1  0
 19 20  1  0
 20 21  1  0
 21 22  1  0
 22 23  1  0
 22 24  1  0
 24 25  1  0
 24 26  1  0
 19 27  1  0
 27 28  1  1
 27 29  1  0
 29 30  1  0
 30 31  1  0
 31 32  1  1
  7  5  1  0
 31 10  1  0
 31 13  1  0
 27 15  1  0
 24 18  1  0
  1 33  1  0
  1 34  1  0
  1 35  1  0
  2 36  1  6
  3 37  1  0
  3 38  1  0
  4 39  1  0
  4 40  1  0
  5 41  1  1
  8 42  1  0
  8 43  1  0
  8 44  1  0
  9 45  1  0
  9 46  1  0
  9 47  1  0
 10 48  1  6
 11 49  1  0
 11 50  1  0
 12 51  1  0
 12 52  1  0
 14 53  1  0
 14 54  1  0
 14 55  1  0
 15 56  1  1
 16 57  1  0
 16 58  1  0
 17 59  1  0
 19 60  1  6
 20 61  1  0
 20 62  1  0
 21 63  1  0
 21 64  1  0
 22 65  1  6
 23 66  1  0
 25 67  1  0
 25 68  1  0
 25 69  1  0
 26 70  1  0
 26 71  1  0
 26 72  1  0
 28 73  1  0
 28 74  1  0
 28 75  1  0
 29 76  1  0
 29 77  1  0
 30 78  1  0
 30 79  1  0
 32 80  1  0
 32 81  1  0
 32 82  1  0
M  END
>  <meeko>  (10) 
{"is_sidechain": [false], "intermolecular_energy": 2.731, "internal_energy": -0.839}

$$$$
EPH_relaxed_0001_pdb2pqr_Repair_275_r2_0001_out
     RDKit          3D

 82 86  0  0  0  0  0  0  0  0999 V2000
    0.0070   10.3710   -3.3920 C   0  0  0  0  0  0  0  0  0  0  0  0
    0.8580   10.1230   -2.1440 C   0  0  2  0  0  0  0  0  0  0  0  0
    0.2850    8.9920   -1.2660 C   0  0  0  0  0  0  0  0  0  0  0  0
   -0.7430    8.1150   -1.9860 C   0  0  0  0  0  0  0  0  0  0  0  0
   -2.1370    8.3900   -1.5090 C   0  0  2  0  0  0  0  0  0  0  0  0
   -2.5670    9.7490   -1.6670 O   0  0  0  0  0  0  0  0  0  0  0  0
   -2.4550    9.2730   -0.3160 C   0  0  0  0  0  0  0  0  0  0  0  0
   -1.3710    9.9350    0.4750 C   0  0  0  0  0  0  0  0  0  0  0  0
   -3.7720    9.0980    0.3720 C   0  0  0  0  0  0  0  0  0  0  0  0
    0.9740   11.4060   -1.3300 C   0  0  1  0  0  0  0  0  0  0  0  0
    2.0540   11.3150   -0.2200 C   0  0  0  0  0  0  0  0  0  0  0  0
    2.6930   12.7220   -0.1000 C   0  0  0  0  0  0  0  0  0  0  0  0
    1.7460   13.6490   -0.8970 C   0  0  1  0  0  0  0  0  0  0  0  0
    0.5720   13.9610    0.0830 C   0  0  0  0  0  0  0  0  0  0  0  0
    2.3820   14.9580   -1.4710 C   0  0  2  0  0  0  0  0  0  0  0  0
    2.9230   15.9370   -0.4150 C   0  0  0  0  0  0  0  0  0  0  0  0
    1.9470   16.9580    0.0680 C   0  0  0  0  0  0  0  0  0  0  0  0
    0.7800   17.2670   -0.5280 C   0  0  0  0  0  0  0  0  0  0  0  0
    0.3860   16.6310   -1.8670 C   0  0  1  0  0  0  0  0  0  0  0  0
   -0.1360   17.7300   -2.8290 C   0  0  0  0  0  0  0  0  0  0  0  0
   -1.2670   18.5530   -2.2190 C   0  0  0  0  0  0  0  0  0  0  0  0
   -0.8180   19.2170   -0.9200 C   0  0  2  0  0  0  0  0  0  0  0  0
    0.1820   20.1940   -1.2230 O   0  0  0  0  0  0  0  0  0  0  0  0
   -0.2630   18.2080    0.1240 C   0  0  0  0  0  0  0  0  0  0  0  0
   -1.4220   17.3410    0.6770 C   0  0  0  0  0  0  0  0  0  0  0  0
    0.2840   19.0200    1.3290 C   0  0  0  0  0  0  0  0  0  0  0  0
    1.4830   15.7000   -2.5410 C   0  0  1  0  0  0  0  0  0  0  0  0
    2.4480   16.5600   -3.4130 C   0  0  0  0  0  0  0  0  0  0  0  0
    0.7720   14.6960   -3.5240 C   0  0  0  0  0  0  0  0  0  0  0  0
    0.2720   13.3690   -2.9210 C   0  0  0  0  0  0  0  0  0  0  0  0
    1.3690   12.6970   -2.0900 C   0  0  2  0  0  0  0  0  0  0  0  0
    2.5550   12.3520   -3.0530 C   0  0  0  0  0  0  0  0  0  0  0  0
   -1.0086   10.6670   -3.0904 H   0  0  0  0  0  0  0  0  0  0  0  0
    0.4603   11.1744   -3.9912 H   0  0  0  0  0  0  0  0  0  0  0  0
   -0.0423    9.4498   -3.9912 H   0  0  0  0  0  0  0  0  0  0  0  0
    1.8557    9.8059   -2.4817 H   0  0  0  0  0  0  0  0  0  0  0  0
    1.1172    8.3525   -0.9366 H   0  0  0  0  0  0  0  0  0  0  0  0
   -0.2350    9.4711   -0.4233 H   0  0  0  0  0  0  0  0  0  0  0  0
   -0.6895    8.3165   -3.0661 H   0  0  0  0  0  0  0  0  0  0  0  0
   -0.5077    7.0625   -1.7694 H   0  0  0  0  0  0  0  0  0  0  0  0
   -2.4552    7.3723   -1.7793 H   0  0  0  0  0  0  0  0  0  0  0  0
   -1.5733    9.8115    1.5492 H   0  0  0  0  0  0  0  0  0  0  0  0
   -0.4033    9.4736    0.2287 H   0  0  0  0  0  0  0  0  0  0  0  0
   -1.3395   11.0066    0.2287 H   0  0  0  0  0  0  0  0  0  0  0  0
   -3.6220    9.1179    1.4615 H   0  0  0  0  0  0  0  0  0  0  0  0
   -4.4494    9.9140    0.0801 H   0  0  0  0  0  0  0  0  0  0  0  0
   -4.2128    8.1334    0.0801 H   0  0  0  0  0  0  0  0  0  0  0  0
   -0.0604   11.4856   -0.9644 H   0  0  0  0  0  0  0  0  0  0  0  0
    1.5916   11.0264    0.7355 H   0  0  0  0  0  0  0  0  0  0  0  0
    2.8119   10.5573   -0.4681 H   0  0  0  0  0  0  0  0  0  0  0  0
    2.7477   13.0353    0.9530 H   0  0  0  0  0  0  0  0  0  0  0  0
    3.7231   12.7469   -0.4851 H   0  0  0  0  0  0  0  0  0  0  0  0
    0.9255   13.8670    1.1204 H   0  0  0  0  0  0  0  0  0  0  0  0
    0.2122   14.9859   -0.0904 H   0  0  0  0  0  0  0  0  0  0  0  0
   -0.2492   13.2499   -0.0904 H   0  0  0  0  0  0  0  0  0  0  0  0
    3.2648   14.5773   -2.0055 H   0  0  0  0  0  0  0  0  0  0  0  0
    3.2579   15.3498    0.4528 H   0  0  0  0  0  0  0  0  0  0  0  0
    3.7317   16.4979   -0.9063 H   0  0  0  0  0  0  0  0  0  0  0  0
    2.2028   17.5038    0.9882 H   0  0  0  0  0  0  0  0  0  0  0  0
   -0.4222   15.9201   -1.6401 H   0  0  0  0  0  0  0  0  0  0  0  0
    0.6962   18.4047   -3.0782 H   0  0  0  0  0  0  0  0  0  0  0  0
   -0.5331   17.2289   -3.7241 H   0  0  0  0  0  0  0  0  0  0  0  0
   -1.5726   19.3309   -2.9342 H   0  0  0  0  0  0  0  0  0  0  0  0
   -2.1101   17.8820   -1.9976 H   0  0  0  0  0  0  0  0  0  0  0  0
   -1.7042   19.6836   -0.4650 H   0  0  0  0  0  0  0  0  0  0  0  0
    0.9800   19.9650   -0.7180 H   0  0  0  0  0  0  0  0  0  0  0  0
   -1.3999   17.3575    1.7767 H   0  0  0  0  0  0  0  0  0  0  0  0
   -2.3825   17.7442    0.3235 H   0  0  0  0  0  0  0  0  0  0  0  0
   -1.3065   16.3058    0.3235 H   0  0  0  0  0  0  0  0  0  0  0  0
   -0.0365   18.5442    2.2676 H   0  0  0  0  0  0  0  0  0  0  0  0
    1.3829   19.0438    1.2866 H   0  0  0  0  0  0  0  0  0  0  0  0
   -0.1069   20.0473    1.2866 H   0  0  0  0  0  0  0  0  0  0  0  0
    3.1079   17.1481   -2.7583 H   0  0  0  0  0  0  0  0  0  0  0  0
    3.0560   15.8988   -4.0479 H   0  0  0  0  0  0  0  0  0  0  0  0
    1.8609   17.2398   -4.0479 H   0  0  0  0  0  0  0  0  0  0  0  0
   -0.0971   15.2132   -3.9565 H   0  0  0  0  0  0  0  0  0  0  0  0
    1.5461   14.4081   -4.2505 H   0  0  0  0  0  0  0  0  0  0  0  0
   -0.5955   13.5712   -2.2756 H   0  0  0  0  0  0  0  0  0  0  0  0
   -0.0088   12.6939   -3.7429 H   0  0  0  0  0  0  0  0  0  0  0  0
    3.4449   12.0931   -2.4606 H   0  0  0  0  0  0  0  0  0  0  0  0
    2.2756   11.4979   -3.6874 H   0  0  0  0  0  0  0  0  0  0  0  0
    2.7774   13.2227   -3.6874 H   0  0  0  0  0  0  0  0  0  0  0  0
  1  2  1  0
  2  3  1  0
  3  4  1  0
  4  5  1  0
  5  6  1  0
  6  7  1  0
  7  8  1  0
  7  9  1  0
  2 10  1  0
 10 11  1  0
 11 12  1  0
 12 13  1  0
 13 14  1  1
 13 15  1  0
 15 16  1  0
 16 17  1  0
 17 18  2  0
 18 19  1  0
 19 20  1  0
 20 21  1  0
 21 22  1  0
 22 23  1  0
 22 24  1  0
 24 25  1  0
 24 26  1  0
 19 27  1  0
 27 28  1  6
 27 29  1  0
 29 30  1  0
 30 31  1  0
 31 32  1  6
  7  5  1  0
 31 10  1  0
 31 13  1  0
 27 15  1  0
 24 18  1  0
  1 33  1  0
  1 34  1  0
  1 35  1  0
  2 36  1  6
  3 37  1  0
  3 38  1  0
  4 39  1  0
  4 40  1  0
  5 41  1  6
  8 42  1  0
  8 43  1  0
  8 44  1  0
  9 45  1  0
  9 46  1  0
  9 47  1  0
 10 48  1  1
 11 49  1  0
 11 50  1  0
 12 51  1  0
 12 52  1  0
 14 53  1  0
 14 54  1  0
 14 55  1  0
 15 56  1  6
 16 57  1  0
 16 58  1  0
 17 59  1  0
 19 60  1  1
 20 61  1  0
 20 62  1  0
 21 63  1  0
 21 64  1  0
 22 65  1  1
 23 66  1  0
 25 67  1  0
 25 68  1  0
 25 69  1  0
 26 70  1  0
 26 71  1  0
 26 72  1  0
 28 73  1  0
 28 74  1  0
 28 75  1  0
 29 76  1  0
 29 77  1  0
 30 78  1  0
 30 79  1  0
 32 80  1  0
 32 81  1  0
 32 82  1  0
M  END
>  <meeko>  (11) 
{"is_sidechain": [false], "intermolecular_energy": 2.731, "internal_energy": -0.839}

$$$$
EPH_relaxed_0001_pdb2pqr_Repair_275_r2_0001_out
     RDKit          3D

 82 86  0  0  0  0  0  0  0  0999 V2000
   -3.6920    7.2550   -3.4870 C   0  0  0  0  0  0  0  0  0  0  0  0
   -3.6850    7.2930   -1.9560 C   0  0  2  0  0  0  0  0  0  0  0  0
   -5.0840    7.0310   -1.3630 C   0  0  0  0  0  0  0  0  0  0  0  0
   -6.2190    7.1520   -2.3840 C   0  0  0  0  0  0  0  0  0  0  0  0
   -7.5360    7.4150   -1.7200 C   0  0  2  0  0  0  0  0  0  0  0  0
   -8.1640    6.2570   -1.1550 O   0  0  0  0  0  0  0  0  0  0  0  0
   -8.8580    6.8860   -2.2450 C   0  0  0  0  0  0  0  0  0  0  0  0
   -8.9270    6.0500   -3.4850 C   0  0  0  0  0  0  0  0  0  0  0  0
  -10.1200    7.5790   -1.8360 C   0  0  0  0  0  0  0  0  0  0  0  0
   -3.1580    8.6380   -1.4720 C   0  0  1  0  0  0  0  0  0  0  0  0
   -3.7890    9.0780   -0.1240 C   0  0  0  0  0  0  0  0  0  0  0  0
   -2.6860    9.8330    0.6620 C   0  0  0  0  0  0  0  0  0  0  0  0
   -1.5730   10.0920   -0.3800 C   0  0  1  0  0  0  0  0  0  0  0  0
   -2.0480   11.3520   -1.1700 C   0  0  0  0  0  0  0  0  0  0  0  0
   -0.1270   10.2770    0.1850 C   0  0  2  0  0  0  0  0  0  0  0  0
    0.0600   11.4890    1.1140 C   0  0  0  0  0  0  0  0  0  0  0  0
    0.4660   12.7550    0.4360 C   0  0  0  0  0  0  0  0  0  0  0  0
    0.9470   12.8520   -0.8170 C   0  0  0  0  0  0  0  0  0  0  0  0
    1.2170   11.5970   -1.6570 C   0  0  1  0  0  0  0  0  0  0  0  0
    2.6110   11.7130   -2.3270 C   0  0  0  0  0  0  0  0  0  0  0  0
    2.7680   12.9980   -3.1340 C   0  0  0  0  0  0  0  0  0  0  0  0
    2.5490   14.2250   -2.2520 C   0  0  2  0  0  0  0  0  0  0  0  0
    3.6090   14.2990   -1.2940 O   0  0  0  0  0  0  0  0  0  0  0  0
    1.1800   14.2140   -1.5160 C   0  0  0  0  0  0  0  0  0  0  0  0
    0.0380   14.4380   -2.5390 C   0  0  0  0  0  0  0  0  0  0  0  0
    1.1450   15.4330   -0.5540 C   0  0  0  0  0  0  0  0  0  0  0  0
    1.0110   10.2080   -0.9120 C   0  0  1  0  0  0  0  0  0  0  0  0
    2.3210    9.8030   -0.1700 C   0  0  0  0  0  0  0  0  0  0  0  0
    0.7430    9.0850   -1.9830 C   0  0  0  0  0  0  0  0  0  0  0  0
   -0.7210    8.8700   -2.4130 C   0  0  0  0  0  0  0  0  0  0  0  0
   -1.6380    8.7470   -1.1920 C   0  0  2  0  0  0  0  0  0  0  0  0
   -1.1980    7.4750   -0.3900 C   0  0  0  0  0  0  0  0  0  0  0  0
   -3.8815    6.2263   -3.8274 H   0  0  0  0  0  0  0  0  0  0  0  0
   -4.4830    7.9184   -3.8666 H   0  0  0  0  0  0  0  0  0  0  0  0
   -2.7165    7.5930   -3.8666 H   0  0  0  0  0  0  0  0  0  0  0  0
   -3.0222    6.4872   -1.6077 H   0  0  0  0  0  0  0  0  0  0  0  0
   -5.0992    6.0132   -0.9461 H   0  0  0  0  0  0  0  0  0  0  0  0
   -5.2575    7.8014   -0.5973 H   0  0  0  0  0  0  0  0  0  0  0  0
   -5.9940    7.9815   -3.0705 H   0  0  0  0  0  0  0  0  0  0  0  0
   -6.2937    6.1990   -2.9283 H   0  0  0  0  0  0  0  0  0  0  0  0
   -7.2107    8.4224   -1.4213 H   0  0  0  0  0  0  0  0  0  0  0  0
   -9.0146    4.9892   -3.2076 H   0  0  0  0  0  0  0  0  0  0  0  0
   -9.8037    6.3472   -4.0793 H   0  0  0  0  0  0  0  0  0  0  0  0
   -8.0135    6.1994   -4.0793 H   0  0  0  0  0  0  0  0  0  0  0  0
  -10.1808    7.6124   -0.7382 H   0  0  0  0  0  0  0  0  0  0  0  0
  -10.1211    8.6042   -2.2346 H   0  0  0  0  0  0  0  0  0  0  0  0
  -10.9857    7.0297   -2.2346 H   0  0  0  0  0  0  0  0  0  0  0  0
   -3.4280    9.2629   -2.3361 H   0  0  0  0  0  0  0  0  0  0  0  0
   -4.6463    9.7426   -0.3063 H   0  0  0  0  0  0  0  0  0  0  0  0
   -4.1532    8.2089    0.4435 H   0  0  0  0  0  0  0  0  0  0  0  0
   -3.0736   10.7822    1.0604 H   0  0  0  0  0  0  0  0  0  0  0  0
   -2.3225    9.2587    1.5269 H   0  0  0  0  0  0  0  0  0  0  0  0
   -2.3447   12.1390   -0.4610 H   0  0  0  0  0  0  0  0  0  0  0  0
   -1.2266   11.7192   -1.8028 H   0  0  0  0  0  0  0  0  0  0  0  0
   -2.9074   11.0856   -1.8028 H   0  0  0  0  0  0  0  0  0  0  0  0
   -0.0078    9.3898    0.8242 H   0  0  0  0  0  0  0  0  0  0  0  0
   -0.8935   11.6711    1.6313 H   0  0  0  0  0  0  0  0  0  0  0  0
    0.8861   11.2283    1.7919 H   0  0  0  0  0  0  0  0  0  0  0  0
    0.3633   13.6882    1.0093 H   0  0  0  0  0  0  0  0  0  0  0  0
    0.4335   11.5719   -2.4287 H   0  0  0  0  0  0  0  0  0  0  0  0
    3.3818   11.6931   -1.5425 H   0  0  0  0  0  0  0  0  0  0  0  0
    2.7183   10.8673   -3.0222 H   0  0  0  0  0  0  0  0  0  0  0  0
    3.7823   13.0355   -3.5579 H   0  0  0  0  0  0  0  0  0  0  0  0
    2.0159   13.0032   -3.9367 H   0  0  0  0  0  0  0  0  0  0  0  0
    2.5448   15.1071   -2.9092 H   0  0  0  0  0  0  0  0  0  0  0  0
    3.6680   13.4350   -0.8530 H   0  0  0  0  0  0  0  0  0  0  0  0
   -0.9041   14.6228   -2.0022 H   0  0  0  0  0  0  0  0  0  0  0  0
    0.2766   15.3065   -3.1705 H   0  0  0  0  0  0  0  0  0  0  0  0
   -0.0692   13.5438   -3.1705 H   0  0  0  0  0  0  0  0  0  0  0  0
    1.1552   15.0787    0.4873 H   0  0  0  0  0  0  0  0  0  0  0  0
    2.0253   16.0676   -0.7340 H   0  0  0  0  0  0  0  0  0  0  0  0
    0.2297   16.0160   -0.7340 H   0  0  0  0  0  0  0  0  0  0  0  0
    2.1575    9.8535    0.9166 H   0  0  0  0  0  0  0  0  0  0  0  0
    2.5996    8.7768   -0.4515 H   0  0  0  0  0  0  0  0  0  0  0  0
    3.1302   10.4929   -0.4515 H   0  0  0  0  0  0  0  0  0  0  0  0
    1.3204    9.3398   -2.8839 H   0  0  0  0  0  0  0  0  0  0  0  0
    1.0406    8.1451   -1.4951 H   0  0  0  0  0  0  0  0  0  0  0  0
   -1.0464    9.7257   -3.0228 H   0  0  0  0  0  0  0  0  0  0  0  0
   -0.7830    7.9379   -2.9939 H   0  0  0  0  0  0  0  0  0  0  0  0
   -1.2686    7.6790    0.6886 H   0  0  0  0  0  0  0  0  0  0  0  0
   -1.8571    6.6329   -0.6478 H   0  0  0  0  0  0  0  0  0  0  0  0
   -0.1595    7.2201   -0.6478 H   0  0  0  0  0  0  0  0  0  0  0  0
  1  2  1  0
  2  3  1  0
  3  4  1  0
  4  5  1  0
  5  6  1  0
  6  7  1  0
  7  8  1  0
  7  9  1  0
  2 10  1  0
 10 11  1  0
 11 12  1  0
 12 13  1  0
 13 14  1  6
 13 15  1  0
 15 16  1  0
 16 17  1  0
 17 18  2  0
 18 19  1  0
 19 20  1  0
 20 21  1  0
 21 22  1  0
 22 23  1  0
 22 24  1  0
 24 25  1  0
 24 26  1  0
 19 27  1  0
 27 28  1  1
 27 29  1  0
 29 30  1  0
 30 31  1  0
 31 32  1  1
  7  5  1  0
 31 10  1  0
 31 13  1  0
 27 15  1  0
 24 18  1  0
  1 33  1  0
  1 34  1  0
  1 35  1  0
  2 36  1  1
  3 37  1  0
  3 38  1  0
  4 39  1  0
  4 40  1  0
  5 41  1  1
  8 42  1  0
  8 43  1  0
  8 44  1  0
  9 45  1  0
  9 46  1  0
  9 47  1  0
 10 48  1  6
 11 49  1  0
 11 50  1  0
 12 51  1  0
 12 52  1  0
 14 53  1  0
 14 54  1  0
 14 55  1  0
 15 56  1  1
 16 57  1  0
 16 58  1  0
 17 59  1  0
 19 60  1  6
 20 61  1  0
 20 62  1  0
 21 63  1  0
 21 64  1  0
 22 65  1  6
 23 66  1  0
 25 67  1  0
 25 68  1  0
 25 69  1  0
 26 70  1  0
 26 71  1  0
 26 72  1  0
 28 73  1  0
 28 74  1  0
 28 75  1  0
 29 76  1  0
 29 77  1  0
 30 78  1  0
 30 79  1  0
 32 80  1  0
 32 81  1  0
 32 82  1  0
M  END
>  <meeko>  (12) 
{"is_sidechain": [false], "intermolecular_energy": 2.731, "internal_energy": -0.839}

$$$$
EPH_relaxed_0001_pdb2pqr_Repair_275_r2_0001_out
     RDKit          3D

 82 86  0  0  0  0  0  0  0  0999 V2000
   -0.2780   15.0520   -7.6790 C   0  0  0  0  0  0  0  0  0  0  0  0
    1.0880   15.0460   -6.9870 C   0  0  2  0  0  0  0  0  0  0  0  0
    2.2510   15.1400   -7.9950 C   0  0  0  0  0  0  0  0  0  0  0  0
    2.2890   16.4600   -8.7690 C   0  0  0  0  0  0  0  0  0  0  0  0
    1.8770   16.2760  -10.1990 C   0  0  2  0  0  0  0  0  0  0  0  0
    1.2030   15.0410  -10.4740 O   0  0  0  0  0  0  0  0  0  0  0  0
    2.4770   15.2240  -11.1130 C   0  0  0  0  0  0  0  0  0  0  0  0
    3.5390   14.2870  -10.6320 C   0  0  0  0  0  0  0  0  0  0  0  0
    2.3840   15.4270  -12.5930 C   0  0  0  0  0  0  0  0  0  0  0  0
    1.2340   13.7880   -6.1380 C   0  0  1  0  0  0  0  0  0  0  0  0
    2.6670   13.1930   -6.1950 C   0  0  0  0  0  0  0  0  0  0  0  0
    2.9610   12.6010   -4.7920 C   0  0  0  0  0  0  0  0  0  0  0  0
    1.5860   12.5750   -4.0840 C   0  0  1  0  0  0  0  0  0  0  0  0
    0.8830   11.2880   -4.6180 C   0  0  0  0  0  0  0  0  0  0  0  0
    1.6140   12.6110   -2.5210 C   0  0  2  0  0  0  0  0  0  0  0  0
    2.3050   11.4090   -1.8530 C   0  0  0  0  0  0  0  0  0  0  0  0
    1.4110   10.2580   -1.5310 C   0  0  0  0  0  0  0  0  0  0  0  0
    0.0650   10.2950   -1.5050 C   0  0  0  0  0  0  0  0  0  0  0  0
   -0.6900   11.6130   -1.7230 C   0  0  1  0  0  0  0  0  0  0  0  0
   -1.7970   11.7600   -0.6460 C   0  0  0  0  0  0  0  0  0  0  0  0
   -2.7290   10.5530   -0.5970 C   0  0  0  0  0  0  0  0  0  0  0  0
   -1.9490    9.2710   -0.3200 C   0  0  2  0  0  0  0  0  0  0  0  0
   -1.4130    9.3350    1.0050 O   0  0  0  0  0  0  0  0  0  0  0  0
   -0.8000    9.0220   -1.3370 C   0  0  0  0  0  0  0  0  0  0  0  0
   -1.3970    8.6540   -2.7180 C   0  0  0  0  0  0  0  0  0  0  0  0
   -0.0040    7.7760   -0.8620 C   0  0  0  0  0  0  0  0  0  0  0  0
    0.2110   12.9150   -1.8540 C   0  0  1  0  0  0  0  0  0  0  0  0
    0.5080   13.5010   -0.4400 C   0  0  0  0  0  0  0  0  0  0  0  0
   -0.5940   14.0210   -2.6340 C   0  0  0  0  0  0  0  0  0  0  0  0
   -0.4860   14.0070   -4.1700 C   0  0  0  0  0  0  0  0  0  0  0  0
    0.9780   13.9230   -4.6160 C   0  0  2  0  0  0  0  0  0  0  0  0
    1.7050   15.2160   -4.1110 C   0  0  0  0  0  0  0  0  0  0  0  0
   -1.0737   15.0555   -6.9195 H   0  0  0  0  0  0  0  0  0  0  0  0
   -0.3668   15.9505   -8.3073 H   0  0  0  0  0  0  0  0  0  0  0  0
   -0.3747   14.1543   -8.3073 H   0  0  0  0  0  0  0  0  0  0  0  0
    1.1373   15.9370   -6.3438 H   0  0  0  0  0  0  0  0  0  0  0  0
    3.1973   15.0328   -7.4445 H   0  0  0  0  0  0  0  0  0  0  0  0
    2.1021   14.3384   -8.7334 H   0  0  0  0  0  0  0  0  0  0  0  0
    1.6035   17.1743   -8.2895 H   0  0  0  0  0  0  0  0  0  0  0  0
    3.3226   16.8360   -8.7554 H   0  0  0  0  0  0  0  0  0  0  0  0
    1.7257   17.3589  -10.3195 H   0  0  0  0  0  0  0  0  0  0  0  0
    3.5493   14.2780   -9.5321 H   0  0  0  0  0  0  0  0  0  0  0  0
    3.3302   13.2735  -11.0051 H   0  0  0  0  0  0  0  0  0  0  0  0
    4.5186   14.6205  -11.0051 H   0  0  0  0  0  0  0  0  0  0  0  0
    1.9341   16.4090  -12.8008 H   0  0  0  0  0  0  0  0  0  0  0  0
    3.3913   15.3847  -13.0329 H   0  0  0  0  0  0  0  0  0  0  0  0
    1.7582   14.6365  -13.0329 H   0  0  0  0  0  0  0  0  0  0  0  0
    0.4530   13.1638   -6.5968 H   0  0  0  0  0  0  0  0  0  0  0  0
    2.7190   12.4026   -6.9583 H   0  0  0  0  0  0  0  0  0  0  0  0
    3.4049   13.9642   -6.4611 H   0  0  0  0  0  0  0  0  0  0  0  0
    3.3729   11.5847   -4.8778 H   0  0  0  0  0  0  0  0  0  0  0  0
    3.7049   13.1917   -4.2373 H   0  0  0  0  0  0  0  0  0  0  0  0
    0.5477   10.6742   -3.7690 H   0  0  0  0  0  0  0  0  0  0  0  0
    0.0147   11.5719   -5.2307 H   0  0  0  0  0  0  0  0  0  0  0  0
    1.5911   10.7108   -5.2307 H   0  0  0  0  0  0  0  0  0  0  0  0
    2.2591   13.4782   -2.3167 H   0  0  0  0  0  0  0  0  0  0  0  0
    3.0918   11.0487   -2.5321 H   0  0  0  0  0  0  0  0  0  0  0  0
    2.6886   11.7753   -0.8894 H   0  0  0  0  0  0  0  0  0  0  0  0
    1.8926    9.2976   -1.2948 H   0  0  0  0  0  0  0  0  0  0  0  0
   -1.1474   11.5398   -2.7207 H   0  0  0  0  0  0  0  0  0  0  0  0
   -1.3188   11.8765    0.3377 H   0  0  0  0  0  0  0  0  0  0  0  0
   -2.4032   12.6397   -0.9079 H   0  0  0  0  0  0  0  0  0  0  0  0
   -3.4701   10.7029    0.2019 H   0  0  0  0  0  0  0  0  0  0  0  0
   -3.2283   10.4558   -1.5723 H   0  0  0  0  0  0  0  0  0  0  0  0
   -2.6491    8.4291   -0.4250 H   0  0  0  0  0  0  0  0  0  0  0  0
   -0.4550    9.4790    0.9290 H   0  0  0  0  0  0  0  0  0  0  0  0
   -2.3255    8.0817   -2.5753 H   0  0  0  0  0  0  0  0  0  0  0  0
   -1.6160    9.5741   -3.2797 H   0  0  0  0  0  0  0  0  0  0  0  0
   -0.6735    8.0449   -3.2797 H   0  0  0  0  0  0  0  0  0  0  0  0
    0.0132    7.7491    0.2375 H   0  0  0  0  0  0  0  0  0  0  0  0
   -0.4876    6.8646   -1.2435 H   0  0  0  0  0  0  0  0  0  0  0  0
    1.0262    7.8317   -1.2435 H   0  0  0  0  0  0  0  0  0  0  0  0
    0.1527   12.7999    0.3295 H   0  0  0  0  0  0  0  0  0  0  0  0
    1.5916   13.6522   -0.3260 H   0  0  0  0  0  0  0  0  0  0  0  0
   -0.0107   14.4643   -0.3260 H   0  0  0  0  0  0  0  0  0  0  0  0
   -1.6565   13.9042   -2.3743 H   0  0  0  0  0  0  0  0  0  0  0  0
   -0.1449   14.9759   -2.3233 H   0  0  0  0  0  0  0  0  0  0  0  0
   -1.0320   13.1359   -4.5612 H   0  0  0  0  0  0  0  0  0  0  0  0
   -0.9188   14.9398   -4.5607 H   0  0  0  0  0  0  0  0  0  0  0  0
    1.7113   15.2272   -3.0111 H   0  0  0  0  0  0  0  0  0  0  0  0
    2.7399   15.2240   -4.4837 H   0  0  0  0  0  0  0  0  0  0  0  0
    1.1741   16.1044   -4.4837 H   0  0  0  0  0  0  0  0  0  0  0  0
  1  2  1  0
  2  3  1  0
  3  4  1  0
  4  5  1  0
  5  6  1  0
  6  7  1  0
  7  8  1  0
  7  9  1  0
  2 10  1  0
 10 11  1  0
 11 12  1  0
 12 13  1  0
 13 14  1  1
 13 15  1  0
 15 16  1  0
 16 17  1  0
 17 18  2  0
 18 19  1  0
 19 20  1  0
 20 21  1  0
 21 22  1  0
 22 23  1  0
 22 24  1  0
 24 25  1  0
 24 26  1  0
 19 27  1  0
 27 28  1  1
 27 29  1  0
 29 30  1  0
 30 31  1  0
 31 32  1  1
  7  5  1  0
 31 10  1  0
 31 13  1  0
 27 15  1  0
 24 18  1  0
  1 33  1  0
  1 34  1  0
  1 35  1  0
  2 36  1  1
  3 37  1  0
  3 38  1  0
  4 39  1  0
  4 40  1  0
  5 41  1  6
  8 42  1  0
  8 43  1  0
  8 44  1  0
  9 45  1  0
  9 46  1  0
  9 47  1  0
 10 48  1  6
 11 49  1  0
 11 50  1  0
 12 51  1  0
 12 52  1  0
 14 53  1  0
 14 54  1  0
 14 55  1  0
 15 56  1  6
 16 57  1  0
 16 58  1  0
 17 59  1  0
 19 60  1  6
 20 61  1  0
 20 62  1  0
 21 63  1  0
 21 64  1  0
 22 65  1  1
 23 66  1  0
 25 67  1  0
 25 68  1  0
 25 69  1  0
 26 70  1  0
 26 71  1  0
 26 72  1  0
 28 73  1  0
 28 74  1  0
 28 75  1  0
 29 76  1  0
 29 77  1  0
 30 78  1  0
 30 79  1  0
 32 80  1  0
 32 81  1  0
 32 82  1  0
M  END
>  <meeko>  (13) 
{"is_sidechain": [false], "intermolecular_energy": 2.731, "internal_energy": -0.839}

$$$$
EPH_relaxed_0001_pdb2pqr_Repair_275_r2_0001_out
     RDKit          3D

 82 86  0  0  0  0  0  0  0  0999 V2000
   -0.9580   16.3100   -5.8870 C   0  0  0  0  0  0  0  0  0  0  0  0
    0.1630   15.6240   -6.6730 C   0  0  2  0  0  0  0  0  0  0  0  0
   -0.2120   15.4120   -8.1540 C   0  0  0  0  0  0  0  0  0  0  0  0
    0.4130   16.4410   -9.1000 C   0  0  0  0  0  0  0  0  0  0  0  0
    1.8220   16.0800   -9.4590 C   0  0  2  0  0  0  0  0  0  0  0  0
    2.2990   16.6700  -10.6760 O   0  0  0  0  0  0  0  0  0  0  0  0
    2.1880   15.2370  -10.6670 C   0  0  0  0  0  0  0  0  0  0  0  0
    1.1390   14.7020  -11.5910 C   0  0  0  0  0  0  0  0  0  0  0  0
    3.5070   14.5300  -10.6730 C   0  0  0  0  0  0  0  0  0  0  0  0
    0.5070   14.2870   -6.0260 C   0  0  1  0  0  0  0  0  0  0  0  0
    1.7620   13.6250   -6.6560 C   0  0  0  0  0  0  0  0  0  0  0  0
    2.5030   12.8910   -5.5090 C   0  0  0  0  0  0  0  0  0  0  0  0
    1.4910   12.8720   -4.3390 C   0  0  1  0  0  0  0  0  0  0  0  0
    0.5350   11.6790   -4.6550 C   0  0  0  0  0  0  0  0  0  0  0  0
    2.0980   12.7620   -2.9030 C   0  0  2  0  0  0  0  0  0  0  0  0
    2.8830   11.4690   -2.6240 C   0  0  0  0  0  0  0  0  0  0  0  0
    2.0790   10.3410   -2.0660 C   0  0  0  0  0  0  0  0  0  0  0  0
    0.8470   10.4480   -1.5350 C   0  0  0  0  0  0  0  0  0  0  0  0
    0.1770   11.8170   -1.3660 C   0  0  1  0  0  0  0  0  0  0  0  0
   -0.4360   11.9230    0.0550 C   0  0  0  0  0  0  0  0  0  0  0  0
   -1.3820   10.7680    0.3710 C   0  0  0  0  0  0  0  0  0  0  0  0
   -0.6640    9.4260    0.2490 C   0  0  2  0  0  0  0  0  0  0  0  0
    0.3270    9.3390    1.2770 O   0  0  0  0  0  0  0  0  0  0  0  0
    0.0020    9.2110   -1.1390 C   0  0  0  0  0  0  0  0  0  0  0  0
   -1.0920    9.0050   -2.2150 C   0  0  0  0  0  0  0  0  0  0  0  0
    0.8090    7.8870   -1.0810 C   0  0  0  0  0  0  0  0  0  0  0  0
    1.0710   13.0770   -1.7400 C   0  0  1  0  0  0  0  0  0  0  0  0
    1.9180   13.5140   -0.5050 C   0  0  0  0  0  0  0  0  0  0  0  0
    0.1300   14.2910   -2.0850 C   0  0  0  0  0  0  0  0  0  0  0  0
   -0.3390   14.4130   -3.5470 C   0  0  0  0  0  0  0  0  0  0  0  0
    0.8440   14.2940   -4.5140 C   0  0  2  0  0  0  0  0  0  0  0  0
    1.8120   15.4940   -4.2350 C   0  0  0  0  0  0  0  0  0  0  0  0
   -0.7724   16.1964   -4.8087 H   0  0  0  0  0  0  0  0  0  0  0  0
   -0.9846   17.3793   -6.1438 H   0  0  0  0  0  0  0  0  0  0  0  0
   -1.9222   15.8471   -6.1438 H   0  0  0  0  0  0  0  0  0  0  0  0
    1.0403   16.2870   -6.6466 H   0  0  0  0  0  0  0  0  0  0  0  0
    0.1260   14.4103   -8.4580 H   0  0  0  0  0  0  0  0  0  0  0  0
   -1.3034   15.5271   -8.2292 H   0  0  0  0  0  0  0  0  0  0  0  0
   -0.1878   16.4904  -10.0201 H   0  0  0  0  0  0  0  0  0  0  0  0
    0.4285   17.4137   -8.5865 H   0  0  0  0  0  0  0  0  0  0  0  0
    2.0992   16.0067   -8.3970 H   0  0  0  0  0  0  0  0  0  0  0  0
    0.3117   14.2801  -11.0015 H   0  0  0  0  0  0  0  0  0  0  0  0
    0.7591   15.5165  -12.2253 H   0  0  0  0  0  0  0  0  0  0  0  0
    1.5752   13.9163  -12.2253 H   0  0  0  0  0  0  0  0  0  0  0  0
    3.8338   14.3548   -9.6374 H   0  0  0  0  0  0  0  0  0  0  0  0
    3.4040   13.5662  -11.1930 H   0  0  0  0  0  0  0  0  0  0  0  0
    4.2526   15.1494  -11.1930 H   0  0  0  0  0  0  0  0  0  0  0  0
   -0.4375   13.7500   -6.1981 H   0  0  0  0  0  0  0  0  0  0  0  0
    1.4618   12.9072   -7.4336 H   0  0  0  0  0  0  0  0  0  0  0  0
    2.4109   14.3774   -7.1279 H   0  0  0  0  0  0  0  0  0  0  0  0
    2.7672   11.8666   -5.8105 H   0  0  0  0  0  0  0  0  0  0  0  0
    3.4458   13.3879   -5.2367 H   0  0  0  0  0  0  0  0  0  0  0  0
    0.1792   11.2350   -3.7136 H   0  0  0  0  0  0  0  0  0  0  0  0
   -0.3248   12.0423   -5.2370 H   0  0  0  0  0  0  0  0  0  0  0  0
    1.0770   10.9191   -5.2370 H   0  0  0  0  0  0  0  0  0  0  0  0
    2.8436   13.5707   -2.8990 H   0  0  0  0  0  0  0  0  0  0  0  0
    3.3297   11.1318   -3.5710 H   0  0  0  0  0  0  0  0  0  0  0  0
    3.6244   11.7243   -1.8526 H   0  0  0  0  0  0  0  0  0  0  0  0
    2.5316    9.3388   -2.0911 H   0  0  0  0  0  0  0  0  0  0  0  0
   -0.6221   11.8590   -2.1207 H   0  0  0  0  0  0  0  0  0  0  0  0
    0.3803   11.9222    0.7923 H   0  0  0  0  0  0  0  0  0  0  0  0
   -1.0195   12.8545    0.0987 H   0  0  0  0  0  0  0  0  0  0  0  0
   -1.7594   10.8824    1.3979 H   0  0  0  0  0  0  0  0  0  0  0  0
   -2.2136   10.7881   -0.3487 H   0  0  0  0  0  0  0  0  0  0  0  0
   -1.4210    8.6355    0.3588 H   0  0  0  0  0  0  0  0  0  0  0  0
   -0.0070    9.8260    2.0500 H   0  0  0  0  0  0  0  0  0  0  0  0
   -2.0594    8.8228   -1.7241 H   0  0  0  0  0  0  0  0  0  0  0  0
   -1.1631    9.9055   -2.8427 H   0  0  0  0  0  0  0  0  0  0  0  0
   -0.8307    8.1403   -2.8427 H   0  0  0  0  0  0  0  0  0  0  0  0
    0.9795    7.6072   -0.0309 H   0  0  0  0  0  0  0  0  0  0  0  0
    0.2429    7.0901   -1.5855 H   0  0  0  0  0  0  0  0  0  0  0  0
    1.7767    8.0250   -1.5855 H   0  0  0  0  0  0  0  0  0  0  0  0
    1.3874   13.2403    0.4189 H   0  0  0  0  0  0  0  0  0  0  0  0
    2.8937   13.0068   -0.5315 H   0  0  0  0  0  0  0  0  0  0  0  0
    2.0701   14.6031   -0.5315 H   0  0  0  0  0  0  0  0  0  0  0  0
   -0.7669   14.2066   -1.4538 H   0  0  0  0  0  0  0  0  0  0  0  0
    0.7395   15.1883   -1.9026 H   0  0  0  0  0  0  0  0  0  0  0  0
   -1.0611   13.6114   -3.7614 H   0  0  0  0  0  0  0  0  0  0  0  0
   -0.8066   15.3991   -3.6843 H   0  0  0  0  0  0  0  0  0  0  0  0
    1.9226   15.6311   -3.1492 H   0  0  0  0  0  0  0  0  0  0  0  0
    2.7956   15.2828   -4.6800 H   0  0  0  0  0  0  0  0  0  0  0  0
    1.3975   16.4106   -4.6800 H   0  0  0  0  0  0  0  0  0  0  0  0
  1  2  1  0
  2  3  1  0
  3  4  1  0
  4  5  1  0
  5  6  1  0
  6  7  1  0
  7  8  1  0
  7  9  1  0
  2 10  1  0
 10 11  1  0
 11 12  1  0
 12 13  1  0
 13 14  1  6
 13 15  1  0
 15 16  1  0
 16 17  1  0
 17 18  2  0
 18 19  1  0
 19 20  1  0
 20 21  1  0
 21 22  1  0
 22 23  1  0
 22 24  1  0
 24 25  1  0
 24 26  1  0
 19 27  1  0
 27 28  1  1
 27 29  1  0
 29 30  1  0
 30 31  1  0
 31 32  1  6
  7  5  1  0
 31 10  1  0
 31 13  1  0
 27 15  1  0
 24 18  1  0
  1 33  1  0
  1 34  1  0
  1 35  1  0
  2 36  1  6
  3 37  1  0
  3 38  1  0
  4 39  1  0
  4 40  1  0
  5 41  1  1
  8 42  1  0
  8 43  1  0
  8 44  1  0
  9 45  1  0
  9 46  1  0
  9 47  1  0
 10 48  1  1
 11 49  1  0
 11 50  1  0
 12 51  1  0
 12 52  1  0
 14 53  1  0
 14 54  1  0
 14 55  1  0
 15 56  1  6
 16 57  1  0
 16 58  1  0
 17 59  1  0
 19 60  1  6
 20 61  1  0
 20 62  1  0
 21 63  1  0
 21 64  1  0
 22 65  1  1
 23 66  1  0
 25 67  1  0
 25 68  1  0
 25 69  1  0
 26 70  1  0
 26 71  1  0
 26 72  1  0
 28 73  1  0
 28 74  1  0
 28 75  1  0
 29 76  1  0
 29 77  1  0
 30 78  1  0
 30 79  1  0
 32 80  1  0
 32 81  1  0
 32 82  1  0
M  END
>  <meeko>  (14) 
{"is_sidechain": [false], "intermolecular_energy": 2.731, "internal_energy": -0.839}

$$$$
EPH_relaxed_0001_pdb2pqr_Repair_275_r2_0001_out
     RDKit          3D

 82 86  0  0  0  0  0  0  0  0999 V2000
   -2.2560    7.7700   -2.1600 C   0  0  0  0  0  0  0  0  0  0  0  0
   -2.4160    8.4500   -0.7970 C   0  0  2  0  0  0  0  0  0  0  0  0
   -3.8850    8.4820   -0.3320 C   0  0  0  0  0  0  0  0  0  0  0  0
   -4.6790    7.2300   -0.7160 C   0  0  0  0  0  0  0  0  0  0  0  0
   -5.6510    7.5070   -1.8230 C   0  0  2  0  0  0  0  0  0  0  0  0
   -6.5010    8.6400   -1.6030 O   0  0  0  0  0  0  0  0  0  0  0  0
   -7.1530    7.3610   -1.6730 C   0  0  0  0  0  0  0  0  0  0  0  0
   -7.7700    6.9210   -0.3820 C   0  0  0  0  0  0  0  0  0  0  0  0
   -7.9810    7.1730   -2.9060 C   0  0  0  0  0  0  0  0  0  0  0  0
   -1.8570    9.8670   -0.8560 C   0  0  1  0  0  0  0  0  0  0  0  0
   -1.4340   10.4010    0.5390 C   0  0  0  0  0  0  0  0  0  0  0  0
   -0.1890   11.2970    0.3160 C   0  0  0  0  0  0  0  0  0  0  0  0
   -0.1360   11.5180   -1.2140 C   0  0  1  0  0  0  0  0  0  0  0  0
   -1.1640   12.6600   -1.4900 C   0  0  0  0  0  0  0  0  0  0  0  0
    1.2680   11.8470   -1.8160 C   0  0  2  0  0  0  0  0  0  0  0  0
    1.9030   13.1560   -1.3140 C   0  0  0  0  0  0  0  0  0  0  0  0
    1.5840   14.3700   -2.1210 C   0  0  0  0  0  0  0  0  0  0  0  0
    1.0560   14.3700   -3.3600 C   0  0  0  0  0  0  0  0  0  0  0  0
    0.8170   13.0550   -4.1130 C   0  0  1  0  0  0  0  0  0  0  0  0
    1.3420   13.1880   -5.5670 C   0  0  0  0  0  0  0  0  0  0  0  0
    0.7540   14.3940   -6.2940 C   0  0  0  0  0  0  0  0  0  0  0  0
    1.0630   15.6870   -5.5440 C   0  0  2  0  0  0  0  0  0  0  0  0
    2.4740   15.9220   -5.5940 O   0  0  0  0  0  0  0  0  0  0  0  0
    0.5880   15.6670   -4.0650 C   0  0  0  0  0  0  0  0  0  0  0  0
   -0.9600   15.7150   -4.0140 C   0  0  0  0  0  0  0  0  0  0  0  0
    1.0850   16.9710   -3.3850 C   0  0  0  0  0  0  0  0  0  0  0  0
    1.3390   11.7380   -3.3930 C   0  0  1  0  0  0  0  0  0  0  0  0
    2.8350   11.4910   -3.7560 C   0  0  0  0  0  0  0  0  0  0  0  0
    0.5380   10.4990   -3.9440 C   0  0  0  0  0  0  0  0  0  0  0  0
   -0.7830   10.1530   -3.2300 C   0  0  0  0  0  0  0  0  0  0  0  0
   -0.5870   10.0970   -1.7120 C   0  0  2  0  0  0  0  0  0  0  0  0
    0.4250    8.9420   -1.4020 C   0  0  0  0  0  0  0  0  0  0  0  0
   -2.0063    6.7088   -2.0133 H   0  0  0  0  0  0  0  0  0  0  0  0
   -3.1977    7.8507   -2.7228 H   0  0  0  0  0  0  0  0  0  0  0  0
   -1.4491    8.2621   -2.7228 H   0  0  0  0  0  0  0  0  0  0  0  0
   -1.8513    7.8569   -0.0626 H   0  0  0  0  0  0  0  0  0  0  0  0
   -3.9006    8.5808    0.7634 H   0  0  0  0  0  0  0  0  0  0  0  0
   -4.3638    9.3340   -0.8368 H   0  0  0  0  0  0  0  0  0  0  0  0
   -3.9769    6.4498   -1.0452 H   0  0  0  0  0  0  0  0  0  0  0  0
   -5.2486    6.9016    0.1659 H   0  0  0  0  0  0  0  0  0  0  0  0
   -4.9439    7.1218   -2.5724 H   0  0  0  0  0  0  0  0  0  0  0  0
   -7.1929    7.3325    0.4592 H   0  0  0  0  0  0  0  0  0  0  0  0
   -8.8067    7.2848   -0.3283 H   0  0  0  0  0  0  0  0  0  0  0  0
   -7.7637    5.8223   -0.3283 H   0  0  0  0  0  0  0  0  0  0  0  0
   -9.0168    6.9378   -2.6198 H   0  0  0  0  0  0  0  0  0  0  0  0
   -7.9662    8.0974   -3.5021 H   0  0  0  0  0  0  0  0  0  0  0  0
   -7.5685    6.3457   -3.5021 H   0  0  0  0  0  0  0  0  0  0  0  0
   -2.7151   10.3837   -1.3107 H   0  0  0  0  0  0  0  0  0  0  0  0
   -2.2502   10.9902    0.9825 H   0  0  0  0  0  0  0  0  0  0  0  0
   -1.2068    9.5730    1.2266 H   0  0  0  0  0  0  0  0  0  0  0  0
   -0.3013   12.2559    0.8432 H   0  0  0  0  0  0  0  0  0  0  0  0
    0.7316   10.8356    0.7029 H   0  0  0  0  0  0  0  0  0  0  0  0
   -1.5281   13.0645   -0.5341 H   0  0  0  0  0  0  0  0  0  0  0  0
   -0.6766   13.4610   -2.0652 H   0  0  0  0  0  0  0  0  0  0  0  0
   -2.0116   12.2592   -2.0652 H   0  0  0  0  0  0  0  0  0  0  0  0
    1.8933   11.0373   -1.4117 H   0  0  0  0  0  0  0  0  0  0  0  0
    1.5542   13.3303   -0.2854 H   0  0  0  0  0  0  0  0  0  0  0  0
    2.9912   13.0159   -1.3925 H   0  0  0  0  0  0  0  0  0  0  0  0
    1.7983   15.3479   -1.6652 H   0  0  0  0  0  0  0  0  0  0  0  0
   -0.2725   12.9038   -4.1220 H   0  0  0  0  0  0  0  0  0  0  0  0
    2.4366   13.2929   -5.5383 H   0  0  0  0  0  0  0  0  0  0  0  0
    1.0358   12.2854   -6.1162 H   0  0  0  0  0  0  0  0  0  0  0  0
    1.1863   14.4515   -7.3039 H   0  0  0  0  0  0  0  0  0  0  0  0
   -0.3379   14.2726   -6.3493 H   0  0  0  0  0  0  0  0  0  0  0  0
    0.5072   16.4967   -6.0394 H   0  0  0  0  0  0  0  0  0  0  0  0
    2.7990   15.5820   -6.4440 H   0  0  0  0  0  0  0  0  0  0  0  0
   -1.2922   15.7253   -2.9654 H   0  0  0  0  0  0  0  0  0  0  0  0
   -1.3155   16.6246   -4.5202 H   0  0  0  0  0  0  0  0  0  0  0  0
   -1.3712   14.8292   -4.5202 H   0  0  0  0  0  0  0  0  0  0  0  0
    1.0406   16.8545   -2.2921 H   0  0  0  0  0  0  0  0  0  0  0  0
    2.1225   17.1714   -3.6905 H   0  0  0  0  0  0  0  0  0  0  0  0
    0.4440   17.8111   -3.6905 H   0  0  0  0  0  0  0  0  0  0  0  0
    3.4251   11.3936   -2.8328 H   0  0  0  0  0  0  0  0  0  0  0  0
    2.9214   10.5664   -4.3457 H   0  0  0  0  0  0  0  0  0  0  0  0
    3.2140   12.3387   -4.3457 H   0  0  0  0  0  0  0  0  0  0  0  0
    0.3035   10.6972   -5.0003 H   0  0  0  0  0  0  0  0  0  0  0  0
    1.1937    9.6326   -3.7724 H   0  0  0  0  0  0  0  0  0  0  0  0
   -1.5328   10.9219   -3.4679 H   0  0  0  0  0  0  0  0  0  0  0  0
   -1.1210    9.1653   -3.5768 H   0  0  0  0  0  0  0  0  0  0  0  0
    0.5266    8.8260   -0.3129 H   0  0  0  0  0  0  0  0  0  0  0  0
    0.0540    8.0026   -1.8377 H   0  0  0  0  0  0  0  0  0  0  0  0
    1.4050    9.1864   -1.8377 H   0  0  0  0  0  0  0  0  0  0  0  0
  1  2  1  0
  2  3  1  0
  3  4  1  0
  4  5  1  0
  5  6  1  0
  6  7  1  0
  7  8  1  0
  7  9  1  0
  2 10  1  0
 10 11  1  0
 11 12  1  0
 12 13  1  0
 13 14  1  1
 13 15  1  0
 15 16  1  0
 16 17  1  0
 17 18  2  0
 18 19  1  0
 19 20  1  0
 20 21  1  0
 21 22  1  0
 22 23  1  0
 22 24  1  0
 24 25  1  0
 24 26  1  0
 19 27  1  0
 27 28  1  1
 27 29  1  0
 29 30  1  0
 30 31  1  0
 31 32  1  6
  7  5  1  0
 31 10  1  0
 31 13  1  0
 27 15  1  0
 24 18  1  0
  1 33  1  0
  1 34  1  0
  1 35  1  0
  2 36  1  1
  3 37  1  0
  3 38  1  0
  4 39  1  0
  4 40  1  0
  5 41  1  6
  8 42  1  0
  8 43  1  0
  8 44  1  0
  9 45  1  0
  9 46  1  0
  9 47  1  0
 10 48  1  6
 11 49  1  0
 11 50  1  0
 12 51  1  0
 12 52  1  0
 14 53  1  0
 14 54  1  0
 14 55  1  0
 15 56  1  1
 16 57  1  0
 16 58  1  0
 17 59  1  0
 19 60  1  6
 20 61  1  0
 20 62  1  0
 21 63  1  0
 21 64  1  0
 22 65  1  6
 23 66  1  0
 25 67  1  0
 25 68  1  0
 25 69  1  0
 26 70  1  0
 26 71  1  0
 26 72  1  0
 28 73  1  0
 28 74  1  0
 28 75  1  0
 29 76  1  0
 29 77  1  0
 30 78  1  0
 30 79  1  0
 32 80  1  0
 32 81  1  0
 32 82  1  0
M  END
>  <meeko>  (15) 
{"is_sidechain": [false], "intermolecular_energy": 2.731, "internal_energy": -0.839}

$$$$
EPH_relaxed_0001_pdb2pqr_Repair_275_r2_0001_out
     RDKit          3D

 82 86  0  0  0  0  0  0  0  0999 V2000
   -1.7710   14.8460    0.4550 C   0  0  0  0  0  0  0  0  0  0  0  0
   -0.4300   15.5510    0.2340 C   0  0  2  0  0  0  0  0  0  0  0  0
   -0.4870   16.5540   -0.9350 C   0  0  0  0  0  0  0  0  0  0  0  0
   -0.0480   17.9710   -0.5540 C   0  0  0  0  0  0  0  0  0  0  0  0
    1.3810   18.0050   -0.1020 C   0  0  2  0  0  0  0  0  0  0  0  0
    2.0690   19.2300   -0.3870 O   0  0  0  0  0  0  0  0  0  0  0  0
    2.5590   18.0570   -1.0560 C   0  0  0  0  0  0  0  0  0  0  0  0
    2.3610   18.0760   -2.5400 C   0  0  0  0  0  0  0  0  0  0  0  0
    3.8970   17.5990   -0.5670 C   0  0  0  0  0  0  0  0  0  0  0  0
    0.6640   14.5200   -0.0160 C   0  0  1  0  0  0  0  0  0  0  0  0
    0.7940   13.4940    1.1410 C   0  0  0  0  0  0  0  0  0  0  0  0
    1.1750   12.1370    0.4940 C   0  0  0  0  0  0  0  0  0  0  0  0
    1.5750   12.4950   -0.9560 C   0  0  1  0  0  0  0  0  0  0  0  0
    3.0470   13.0030   -0.8530 C   0  0  0  0  0  0  0  0  0  0  0  0
    1.4310   11.3530   -2.0140 C   0  0  2  0  0  0  0  0  0  0  0  0
    2.3170   10.1190   -1.7670 C   0  0  0  0  0  0  0  0  0  0  0  0
    3.6640   10.1620   -2.4100 C   0  0  0  0  0  0  0  0  0  0  0  0
    4.0390   11.0130   -3.3840 C   0  0  0  0  0  0  0  0  0  0  0  0
    3.0340   11.9910   -4.0050 C   0  0  1  0  0  0  0  0  0  0  0  0
    3.1640   11.9540   -5.5510 C   0  0  0  0  0  0  0  0  0  0  0  0
    4.5920   12.2060   -6.0240 C   0  0  0  0  0  0  0  0  0  0  0  0
    5.5520   11.1780   -5.4310 C   0  0  2  0  0  0  0  0  0  0  0  0
    5.2420    9.8910   -5.9730 O   0  0  0  0  0  0  0  0  0  0  0  0
    5.5030   11.1180   -3.8790 C   0  0  0  0  0  0  0  0  0  0  0  0
    6.1250   12.4070   -3.2870 C   0  0  0  0  0  0  0  0  0  0  0  0
    6.4110    9.9460   -3.4170 C   0  0  0  0  0  0  0  0  0  0  0  0
    1.5290   11.8440   -3.5160 C   0  0  1  0  0  0  0  0  0  0  0  0
    0.7900   10.7790   -4.3820 C   0  0  0  0  0  0  0  0  0  0  0  0
    0.7770   13.2070   -3.7500 C   0  0  0  0  0  0  0  0  0  0  0  0
    0.8570   14.2480   -2.6170 C   0  0  0  0  0  0  0  0  0  0  0  0
    0.5160   13.6150   -1.2650 C   0  0  2  0  0  0  0  0  0  0  0  0
   -0.9670   13.1150   -1.3310 C   0  0  0  0  0  0  0  0  0  0  0  0
   -1.9596   14.7468    1.5342 H   0  0  0  0  0  0  0  0  0  0  0  0
   -2.5763   15.4373   -0.0052 H   0  0  0  0  0  0  0  0  0  0  0  0
   -1.7405   13.8474   -0.0052 H   0  0  0  0  0  0  0  0  0  0  0  0
   -0.2014   16.1212    1.1464 H   0  0  0  0  0  0  0  0  0  0  0  0
    0.1723   16.1902   -1.7369 H   0  0  0  0  0  0  0  0  0  0  0  0
   -1.5384   16.6181   -1.2519 H   0  0  0  0  0  0  0  0  0  0  0  0
   -0.1608   18.6269   -1.4298 H   0  0  0  0  0  0  0  0  0  0  0  0
   -0.6797   18.3139    0.2787 H   0  0  0  0  0  0  0  0  0  0  0  0
    1.1517   17.3503    0.7517 H   0  0  0  0  0  0  0  0  0  0  0  0
    1.2893   18.1788   -2.7656 H   0  0  0  0  0  0  0  0  0  0  0  0
    2.9099   18.9256   -2.9723 H   0  0  0  0  0  0  0  0  0  0  0  0
    2.7383   17.1375   -2.9723 H   0  0  0  0  0  0  0  0  0  0  0  0
    3.9042   17.5965    0.5330 H   0  0  0  0  0  0  0  0  0  0  0  0
    4.0943   16.5822   -0.9373 H   0  0  0  0  0  0  0  0  0  0  0  0
    4.6761   18.2816   -0.9373 H   0  0  0  0  0  0  0  0  0  0  0  0
    1.5262   15.1920   -0.1384 H   0  0  0  0  0  0  0  0  0  0  0  0
    1.5784   13.8124    1.8434 H   0  0  0  0  0  0  0  0  0  0  0  0
   -0.1470   13.4127    1.7048 H   0  0  0  0  0  0  0  0  0  0  0  0
    2.0195   11.6760    1.0272 H   0  0  0  0  0  0  0  0  0  0  0  0
    0.3499   11.4105    0.5319 H   0  0  0  0  0  0  0  0  0  0  0  0
    3.3281   13.1000    0.2060 H   0  0  0  0  0  0  0  0  0  0  0  0
    3.7182   12.2845   -1.3462 H   0  0  0  0  0  0  0  0  0  0  0  0
    3.1322   13.9825   -1.3462 H   0  0  0  0  0  0  0  0  0  0  0  0
    0.3964   11.0144   -1.8559 H   0  0  0  0  0  0  0  0  0  0  0  0
    2.4617   10.0162   -0.6814 H   0  0  0  0  0  0  0  0  0  0  0  0
    1.7889    9.2689   -2.2235 H   0  0  0  0  0  0  0  0  0  0  0  0
    4.4132    9.4374   -2.0584 H   0  0  0  0  0  0  0  0  0  0  0  0
    3.3089   12.9879   -3.6300 H   0  0  0  0  0  0  0  0  0  0  0  0
    2.8437   10.9641   -5.9082 H   0  0  0  0  0  0  0  0  0  0  0  0
    2.5308   12.7558   -5.9586 H   0  0  0  0  0  0  0  0  0  0  0  0
    4.6250   12.1385   -7.1214 H   0  0  0  0  0  0  0  0  0  0  0  0
    4.9007   13.2079   -5.6911 H   0  0  0  0  0  0  0  0  0  0  0  0
    6.5730   11.4863   -5.7003 H   0  0  0  0  0  0  0  0  0  0  0  0
    5.7380    9.2290   -5.4620 H   0  0  0  0  0  0  0  0  0  0  0  0
    6.1000   12.3551   -2.1885 H   0  0  0  0  0  0  0  0  0  0  0  0
    7.1673   12.5003   -3.6260 H   0  0  0  0  0  0  0  0  0  0  0  0
    5.5495   13.2810   -3.6260 H   0  0  0  0  0  0  0  0  0  0  0  0
    6.4364    9.9132   -2.3178 H   0  0  0  0  0  0  0  0  0  0  0  0
    6.0099    8.9973   -3.8030 H   0  0  0  0  0  0  0  0  0  0  0  0
    7.4299   10.0974   -3.8030 H   0  0  0  0  0  0  0  0  0  0  0  0
    0.2878   10.0552   -3.7233 H   0  0  0  0  0  0  0  0  0  0  0  0
    0.0425   11.2772   -5.0169 H   0  0  0  0  0  0  0  0  0  0  0  0
    1.5183   10.2531   -5.0169 H   0  0  0  0  0  0  0  0  0  0  0  0
    1.1978   13.6680   -4.6558 H   0  0  0  0  0  0  0  0  0  0  0  0
   -0.2877   12.9398   -3.8207 H   0  0  0  0  0  0  0  0  0  0  0  0
    1.8773   14.6569   -2.5756 H   0  0  0  0  0  0  0  0  0  0  0  0
    0.1297   15.0470   -2.8233 H   0  0  0  0  0  0  0  0  0  0  0  0
   -1.3555   12.9840   -0.3103 H   0  0  0  0  0  0  0  0  0  0  0  0
   -1.5804   13.8560   -1.8645 H   0  0  0  0  0  0  0  0  0  0  0  0
   -1.0065   12.1539   -1.8645 H   0  0  0  0  0  0  0  0  0  0  0  0
  1  2  1  0
  2  3  1  0
  3  4  1  0
  4  5  1  0
  5  6  1  0
  6  7  1  0
  7  8  1  0
  7  9  1  0
  2 10  1  0
 10 11  1  0
 11 12  1  0
 12 13  1  0
 13 14  1  1
 13 15  1  0
 15 16  1  0
 16 17  1  0
 17 18  2  0
 18 19  1  0
 19 20  1  0
 20 21  1  0
 21 22  1  0
 22 23  1  0
 22 24  1  0
 24 25  1  0
 24 26  1  0
 19 27  1  0
 27 28  1  6
 27 29  1  0
 29 30  1  0
 30 31  1  0
 31 32  1  6
  7  5  1  0
 31 10  1  0
 31 13  1  0
 27 15  1  0
 24 18  1  0
  1 33  1  0
  1 34  1  0
  1 35  1  0
  2 36  1  1
  3 37  1  0
  3 38  1  0
  4 39  1  0
  4 40  1  0
  5 41  1  1
  8 42  1  0
  8 43  1  0
  8 44  1  0
  9 45  1  0
  9 46  1  0
  9 47  1  0
 10 48  1  6
 11 49  1  0
 11 50  1  0
 12 51  1  0
 12 52  1  0
 14 53  1  0
 14 54  1  0
 14 55  1  0
 15 56  1  6
 16 57  1  0
 16 58  1  0
 17 59  1  0
 19 60  1  1
 20 61  1  0
 20 62  1  0
 21 63  1  0
 21 64  1  0
 22 65  1  1
 23 66  1  0
 25 67  1  0
 25 68  1  0
 25 69  1  0
 26 70  1  0
 26 71  1  0
 26 72  1  0
 28 73  1  0
 28 74  1  0
 28 75  1  0
 29 76  1  0
 29 77  1  0
 30 78  1  0
 30 79  1  0
 32 80  1  0
 32 81  1  0
 32 82  1  0
M  END
>  <meeko>  (16) 
{"is_sidechain": [false], "intermolecular_energy": 2.731, "internal_energy": -0.839}

$$$$
EPH_relaxed_0001_pdb2pqr_Repair_275_r2_0001_out
     RDKit          3D

 82 86  0  0  0  0  0  0  0  0999 V2000
    1.9270   17.2470   -4.1890 C   0  0  0  0  0  0  0  0  0  0  0  0
    0.4950   16.7320   -4.0210 C   0  0  2  0  0  0  0  0  0  0  0  0
   -0.1500   17.2260   -2.7110 C   0  0  0  0  0  0  0  0  0  0  0  0
    0.6310   18.3510   -2.0270 C   0  0  0  0  0  0  0  0  0  0  0  0
    1.5430   17.8250   -0.9610 C   0  0  2  0  0  0  0  0  0  0  0  0
    1.0480   17.9710    0.3770 O   0  0  0  0  0  0  0  0  0  0  0  0
    2.2380   18.7090    0.0580 C   0  0  0  0  0  0  0  0  0  0  0  0
    2.0510   20.1940    0.0580 C   0  0  0  0  0  0  0  0  0  0  0  0
    3.4690   18.1910    0.7340 C   0  0  0  0  0  0  0  0  0  0  0  0
    0.4830   15.2080   -4.0650 C   0  0  1  0  0  0  0  0  0  0  0  0
    1.2400   14.6400   -5.2950 C   0  0  0  0  0  0  0  0  0  0  0  0
    1.9160   13.3230   -4.8350 C   0  0  0  0  0  0  0  0  0  0  0  0
    1.2620   13.0050   -3.4700 C   0  0  1  0  0  0  0  0  0  0  0  0
   -0.0990   12.3300   -3.8250 C   0  0  0  0  0  0  0  0  0  0  0  0
    2.1040   12.1260   -2.4890 C   0  0  2  0  0  0  0  0  0  0  0  0
    2.4220   10.7080   -2.9930 C   0  0  0  0  0  0  0  0  0  0  0  0
    1.4220    9.6610   -2.6270 C   0  0  0  0  0  0  0  0  0  0  0  0
    0.4660    9.7880   -1.6880 C   0  0  0  0  0  0  0  0  0  0  0  0
    0.3830   11.0450   -0.8130 C   0  0  1  0  0  0  0  0  0  0  0  0
    0.1920   10.6310    0.6700 C   0  0  0  0  0  0  0  0  0  0  0  0
   -1.0020    9.7010    0.8690 C   0  0  0  0  0  0  0  0  0  0  0  0
   -0.8550    8.4370    0.0260 C   0  0  2  0  0  0  0  0  0  0  0  0
    0.2500    7.6760    0.5260 O   0  0  0  0  0  0  0  0  0  0  0  0
   -0.6460    8.7290   -1.4860 C   0  0  0  0  0  0  0  0  0  0  0  0
   -1.9590    9.2810   -2.0950 C   0  0  0  0  0  0  0  0  0  0  0  0
   -0.3710    7.3780   -2.2000 C   0  0  0  0  0  0  0  0  0  0  0  0
    1.5530   12.1020   -1.0050 C   0  0  1  0  0  0  0  0  0  0  0  0
    2.7600   11.7330   -0.0880 C   0  0  0  0  0  0  0  0  0  0  0  0
    1.0510   13.5170   -0.5310 C   0  0  0  0  0  0  0  0  0  0  0  0
    0.3320   14.3870   -1.5800 C   0  0  0  0  0  0  0  0  0  0  0  0
    1.1390   14.4570   -2.8800 C   0  0  2  0  0  0  0  0  0  0  0  0
    2.5050   15.1520   -2.5580 C   0  0  0  0  0  0  0  0  0  0  0  0
    2.3770   17.4088   -3.1984 H   0  0  0  0  0  0  0  0  0  0  0  0
    2.5204   16.5059   -4.7446 H   0  0  0  0  0  0  0  0  0  0  0  0
    1.9125   18.1962   -4.7446 H   0  0  0  0  0  0  0  0  0  0  0  0
   -0.1011   17.1333   -4.8539 H   0  0  0  0  0  0  0  0  0  0  0  0
   -1.1612   17.5940   -2.9390 H   0  0  0  0  0  0  0  0  0  0  0  0
   -0.1606   16.3733   -2.0162 H   0  0  0  0  0  0  0  0  0  0  0  0
    1.2325   18.8776   -2.7825 H   0  0  0  0  0  0  0  0  0  0  0  0
   -0.0922   19.0315   -1.5539 H   0  0  0  0  0  0  0  0  0  0  0  0
    1.9180   17.0419   -1.6364 H   0  0  0  0  0  0  0  0  0  0  0  0
    2.0052   20.5578    1.0951 H   0  0  0  0  0  0  0  0  0  0  0  0
    2.8963   20.6700   -0.4605 H   0  0  0  0  0  0  0  0  0  0  0  0
    1.1141   20.4456   -0.4605 H   0  0  0  0  0  0  0  0  0  0  0  0
    3.3388   18.2458    1.8249 H   0  0  0  0  0  0  0  0  0  0  0  0
    3.6380   17.1454    0.4369 H   0  0  0  0  0  0  0  0  0  0  0  0
    4.3347   18.8011    0.4369 H   0  0  0  0  0  0  0  0  0  0  0  0
   -0.6029   15.0324   -4.0667 H   0  0  0  0  0  0  0  0  0  0  0  0
    0.5341   14.4375   -6.1139 H   0  0  0  0  0  0  0  0  0  0  0  0
    1.9860   15.3583   -5.6659 H   0  0  0  0  0  0  0  0  0  0  0  0
    1.7227   12.5149   -5.5559 H   0  0  0  0  0  0  0  0  0  0  0  0
    3.0094   13.4188   -4.7615 H   0  0  0  0  0  0  0  0  0  0  0  0
   -0.6303   12.0665   -2.8985 H   0  0  0  0  0  0  0  0  0  0  0  0
   -0.7122   13.0284   -4.4134 H   0  0  0  0  0  0  0  0  0  0  0  0
    0.0859   11.4192   -4.4134 H   0  0  0  0  0  0  0  0  0  0  0  0
    3.0671   12.6569   -2.4638 H   0  0  0  0  0  0  0  0  0  0  0  0
    2.4894   10.7446   -4.0903 H   0  0  0  0  0  0  0  0  0  0  0  0
    3.3622   10.4149   -2.5030 H   0  0  0  0  0  0  0  0  0  0  0  0
    1.4708    8.7058   -3.1704 H   0  0  0  0  0  0  0  0  0  0  0  0
   -0.4993   11.6013   -1.1625 H   0  0  0  0  0  0  0  0  0  0  0  0
    1.1014   10.1154    1.0121 H   0  0  0  0  0  0  0  0  0  0  0  0
    0.0028   11.5461    1.2504 H   0  0  0  0  0  0  0  0  0  0  0  0
   -1.0667    9.4203    1.9306 H   0  0  0  0  0  0  0  0  0  0  0  0
   -1.9145   10.2287    0.5546 H   0  0  0  0  0  0  0  0  0  0  0  0
   -1.7963    7.8739    0.1091 H   0  0  0  0  0  0  0  0  0  0  0  0
    1.0430    7.9520    0.0350 H   0  0  0  0  0  0  0  0  0  0  0  0
   -2.6457    9.5697   -1.2856 H   0  0  0  0  0  0  0  0  0  0  0  0
   -1.7338   10.1606   -2.7159 H   0  0  0  0  0  0  0  0  0  0  0  0
   -2.4299    8.5047   -2.7159 H   0  0  0  0  0  0  0  0  0  0  0  0
   -0.2109    6.5916   -1.4477 H   0  0  0  0  0  0  0  0  0  0  0  0
   -1.2337    7.1135   -2.8291 H   0  0  0  0  0  0  0  0  0  0  0  0
    0.5265    7.4718   -2.8291 H   0  0  0  0  0  0  0  0  0  0  0  0
    2.4607   11.8245    0.9665 H   0  0  0  0  0  0  0  0  0  0  0  0
    3.0726   10.6983   -0.2920 H   0  0  0  0  0  0  0  0  0  0  0  0
    3.5977   12.4161   -0.2920 H   0  0  0  0  0  0  0  0  0  0  0  0
    0.3537   13.3597    0.3051 H   0  0  0  0  0  0  0  0  0  0  0  0
    1.9635   14.0740   -0.2721 H   0  0  0  0  0  0  0  0  0  0  0  0
   -0.6557   13.9519   -1.7925 H   0  0  0  0  0  0  0  0  0  0  0  0
    0.2256   15.4053   -1.1779 H   0  0  0  0  0  0  0  0  0  0  0  0
    2.6348   15.2180   -1.4677 H   0  0  0  0  0  0  0  0  0  0  0  0
    3.3271   14.5626   -2.9901 H   0  0  0  0  0  0  0  0  0  0  0  0
    2.5126   16.1636   -2.9901 H   0  0  0  0  0  0  0  0  0  0  0  0
  1  2  1  0
  2  3  1  0
  3  4  1  0
  4  5  1  0
  5  6  1  0
  6  7  1  0
  7  8  1  0
  7  9  1  0
  2 10  1  0
 10 11  1  0
 11 12  1  0
 12 13  1  0
 13 14  1  6
 13 15  1  0
 15 16  1  0
 16 17  1  0
 17 18  2  0
 18 19  1  0
 19 20  1  0
 20 21  1  0
 21 22  1  0
 22 23  1  0
 22 24  1  0
 24 25  1  0
 24 26  1  0
 19 27  1  0
 27 28  1  1
 27 29  1  0
 29 30  1  0
 30 31  1  0
 31 32  1  1
  7  5  1  0
 31 10  1  0
 31 13  1  0
 27 15  1  0
 24 18  1  0
  1 33  1  0
  1 34  1  0
  1 35  1  0
  2 36  1  6
  3 37  1  0
  3 38  1  0
  4 39  1  0
  4 40  1  0
  5 41  1  6
  8 42  1  0
  8 43  1  0
  8 44  1  0
  9 45  1  0
  9 46  1  0
  9 47  1  0
 10 48  1  6
 11 49  1  0
 11 50  1  0
 12 51  1  0
 12 52  1  0
 14 53  1  0
 14 54  1  0
 14 55  1  0
 15 56  1  1
 16 57  1  0
 16 58  1  0
 17 59  1  0
 19 60  1  6
 20 61  1  0
 20 62  1  0
 21 63  1  0
 21 64  1  0
 22 65  1  6
 23 66  1  0
 25 67  1  0
 25 68  1  0
 25 69  1  0
 26 70  1  0
 26 71  1  0
 26 72  1  0
 28 73  1  0
 28 74  1  0
 28 75  1  0
 29 76  1  0
 29 77  1  0
 30 78  1  0
 30 79  1  0
 32 80  1  0
 32 81  1  0
 32 82  1  0
M  END
>  <meeko>  (17) 
{"is_sidechain": [false], "intermolecular_energy": 2.731, "internal_energy": -0.839}

$$$$
EPH_relaxed_0001_pdb2pqr_Repair_275_r2_0001_out
     RDKit          3D

 82 86  0  0  0  0  0  0  0  0999 V2000
    0.2070    9.8110   -4.5600 C   0  0  0  0  0  0  0  0  0  0  0  0
    1.2830   10.5460   -3.7560 C   0  0  2  0  0  0  0  0  0  0  0  0
    1.7360    9.7410   -2.5210 C   0  0  0  0  0  0  0  0  0  0  0  0
    0.7430    8.6580   -2.0940 C   0  0  0  0  0  0  0  0  0  0  0  0
   -0.1330    9.1210   -0.9690 C   0  0  2  0  0  0  0  0  0  0  0  0
   -0.7220    8.0670   -0.1960 O   0  0  0  0  0  0  0  0  0  0  0  0
   -1.6330    8.9000   -0.9310 C   0  0  0  0  0  0  0  0  0  0  0  0
   -2.3460    8.1910   -2.0390 C   0  0  0  0  0  0  0  0  0  0  0  0
   -2.4660    9.7930   -0.0650 C   0  0  0  0  0  0  0  0  0  0  0  0
    0.7650   11.9130   -3.3250 C   0  0  1  0  0  0  0  0  0  0  0  0
   -0.7450   11.8950   -2.9690 C   0  0  0  0  0  0  0  0  0  0  0  0
   -0.9430   12.9000   -1.8050 C   0  0  0  0  0  0  0  0  0  0  0  0
    0.3800   13.7000   -1.7520 C   0  0  1  0  0  0  0  0  0  0  0  0
    0.2430   14.7780   -2.8720 C   0  0  0  0  0  0  0  0  0  0  0  0
    0.7440   14.3440   -0.3740 C   0  0  2  0  0  0  0  0  0  0  0  0
   -0.2520   15.4000    0.1360 C   0  0  0  0  0  0  0  0  0  0  0  0
    0.0390   16.8040   -0.2790 C   0  0  0  0  0  0  0  0  0  0  0  0
    1.2050   17.2430   -0.7880 C   0  0  0  0  0  0  0  0  0  0  0  0
    2.4170   16.3090   -0.9010 C   0  0  1  0  0  0  0  0  0  0  0  0
    3.6810   17.0350   -0.3690 C   0  0  0  0  0  0  0  0  0  0  0  0
    3.9150   18.3780   -1.0530 C   0  0  0  0  0  0  0  0  0  0  0  0
    2.7120   19.3000   -0.8690 C   0  0  2  0  0  0  0  0  0  0  0  0
    2.6010   19.6430    0.5160 O   0  0  0  0  0  0  0  0  0  0  0  0
    1.3780   18.6720   -1.3600 C   0  0  0  0  0  0  0  0  0  0  0  0
    1.3840   18.5780   -2.9060 C   0  0  0  0  0  0  0  0  0  0  0  0
    0.2260   19.6450   -0.9890 C   0  0  0  0  0  0  0  0  0  0  0  0
    2.2360   14.8600   -0.2730 C   0  0  1  0  0  0  0  0  0  0  0  0
    2.5960   14.8880    1.2440 C   0  0  0  0  0  0  0  0  0  0  0  0
    3.2580   13.8740   -0.9540 C   0  0  0  0  0  0  0  0  0  0  0  0
    2.7950   13.1780   -2.2480 C   0  0  0  0  0  0  0  0  0  0  0  0
    1.4080   12.5530   -2.0680 C   0  0  2  0  0  0  0  0  0  0  0  0
    1.5200   11.4490   -0.9620 C   0  0  0  0  0  0  0  0  0  0  0  0
   -0.5003    9.3278   -3.8699 H   0  0  0  0  0  0  0  0  0  0  0  0
   -0.3324   10.5302   -5.1938 H   0  0  0  0  0  0  0  0  0  0  0  0
    0.6808    9.0469   -5.1938 H   0  0  0  0  0  0  0  0  0  0  0  0
    2.1593   10.6689   -4.4095 H   0  0  0  0  0  0  0  0  0  0  0  0
    2.6967    9.2587   -2.7542 H   0  0  0  0  0  0  0  0  0  0  0  0
    1.8149   10.4520   -1.6854 H   0  0  0  0  0  0  0  0  0  0  0  0
    0.1096    8.3960   -2.9543 H   0  0  0  0  0  0  0  0  0  0  0  0
    1.3158    7.7858   -1.7458 H   0  0  0  0  0  0  0  0  0  0  0  0
    0.4838   10.0208   -0.8282 H   0  0  0  0  0  0  0  0  0  0  0  0
   -3.0653    7.4757   -1.6136 H   0  0  0  0  0  0  0  0  0  0  0  0
   -2.8817    8.9249   -2.6590 H   0  0  0  0  0  0  0  0  0  0  0  0
   -1.6151    7.6511   -2.6590 H   0  0  0  0  0  0  0  0  0  0  0  0
   -2.2608    9.5730    0.9931 H   0  0  0  0  0  0  0  0  0  0  0  0
   -2.2179   10.8437   -0.2759 H   0  0  0  0  0  0  0  0  0  0  0  0
   -3.5314    9.6184   -0.2759 H   0  0  0  0  0  0  0  0  0  0  0  0
    1.0232   12.4985   -4.2197 H   0  0  0  0  0  0  0  0  0  0  0  0
   -1.3430   12.2016   -3.8398 H   0  0  0  0  0  0  0  0  0  0  0  0
   -1.0698   10.8851   -2.6780 H   0  0  0  0  0  0  0  0  0  0  0  0
   -1.7929   13.5679   -2.0088 H   0  0  0  0  0  0  0  0  0  0  0  0
   -1.1651   12.3969   -0.8523 H   0  0  0  0  0  0  0  0  0  0  0  0
    0.1170   15.7697   -2.4130 H   0  0  0  0  0  0  0  0  0  0  0  0
    1.1487   14.7753   -3.4962 H   0  0  0  0  0  0  0  0  0  0  0  0
   -0.6332   14.5489   -3.4962 H   0  0  0  0  0  0  0  0  0  0  0  0
    0.6545   13.4915    0.3153 H   0  0  0  0  0  0  0  0  0  0  0  0
   -1.2510   15.1346   -0.2401 H   0  0  0  0  0  0  0  0  0  0  0  0
   -0.1760   15.3851    1.2333 H   0  0  0  0  0  0  0  0  0  0  0  0
   -0.7676   17.5421   -0.1587 H   0  0  0  0  0  0  0  0  0  0  0  0
    2.5348   16.0910   -1.9727 H   0  0  0  0  0  0  0  0  0  0  0  0
    3.5615   17.2054    0.7111 H   0  0  0  0  0  0  0  0  0  0  0  0
    4.5493   16.3948   -0.5840 H   0  0  0  0  0  0  0  0  0  0  0  0
    4.8045   18.8549   -0.6155 H   0  0  0  0  0  0  0  0  0  0  0  0
    4.0627   18.2034   -2.1290 H   0  0  0  0  0  0  0  0  0  0  0  0
    2.8842   20.1936   -1.4869 H   0  0  0  0  0  0  0  0  0  0  0  0
    3.4800   19.5380    0.9160 H   0  0  0  0  0  0  0  0  0  0  0  0
    1.4514   17.5227   -3.2089 H   0  0  0  0  0  0  0  0  0  0  0  0
    0.4561   19.0151   -3.3035 H   0  0  0  0  0  0  0  0  0  0  0  0
    2.2488   19.1295   -3.3035 H   0  0  0  0  0  0  0  0  0  0  0  0
    0.1433   19.7149    0.1057 H   0  0  0  0  0  0  0  0  0  0  0  0
    0.4389   20.6408   -1.4049 H   0  0  0  0  0  0  0  0  0  0  0  0
   -0.7202   19.2685   -1.4049 H   0  0  0  0  0  0  0  0  0  0  0  0
    1.6748   14.8163    1.8408 H   0  0  0  0  0  0  0  0  0  0  0  0
    3.2532   14.0383    1.4806 H   0  0  0  0  0  0  0  0  0  0  0  0
    3.1139   15.8291    1.4806 H   0  0  0  0  0  0  0  0  0  0  0  0
    4.1661   14.4477   -1.1913 H   0  0  0  0  0  0  0  0  0  0  0  0
    3.4027   13.0618   -0.2264 H   0  0  0  0  0  0  0  0  0  0  0  0
    2.7533   13.9189   -3.0600 H   0  0  0  0  0  0  0  0  0  0  0  0
    3.5108   12.3792   -2.4922 H   0  0  0  0  0  0  0  0  0  0  0  0
    1.4723   11.9190    0.0314 H   0  0  0  0  0  0  0  0  0  0  0  0
    0.6896   10.7358   -1.0704 H   0  0  0  0  0  0  0  0  0  0  0  0
    2.4767   10.9171   -1.0704 H   0  0  0  0  0  0  0  0  0  0  0  0
  1  2  1  0
  2  3  1  0
  3  4  1  0
  4  5  1  0
  5  6  1  0
  6  7  1  0
  7  8  1  0
  7  9  1  0
  2 10  1  0
 10 11  1  0
 11 12  1  0
 12 13  1  0
 13 14  1  6
 13 15  1  0
 15 16  1  0
 16 17  1  0
 17 18  2  0
 18 19  1  0
 19 20  1  0
 20 21  1  0
 21 22  1  0
 22 23  1  0
 22 24  1  0
 24 25  1  0
 24 26  1  0
 19 27  1  0
 27 28  1  1
 27 29  1  0
 29 30  1  0
 30 31  1  0
 31 32  1  1
  7  5  1  0
 31 10  1  0
 31 13  1  0
 27 15  1  0
 24 18  1  0
  1 33  1  0
  1 34  1  0
  1 35  1  0
  2 36  1  6
  3 37  1  0
  3 38  1  0
  4 39  1  0
  4 40  1  0
  5 41  1  1
  8 42  1  0
  8 43  1  0
  8 44  1  0
  9 45  1  0
  9 46  1  0
  9 47  1  0
 10 48  1  6
 11 49  1  0
 11 50  1  0
 12 51  1  0
 12 52  1  0
 14 53  1  0
 14 54  1  0
 14 55  1  0
 15 56  1  1
 16 57  1  0
 16 58  1  0
 17 59  1  0
 19 60  1  6
 20 61  1  0
 20 62  1  0
 21 63  1  0
 21 64  1  0
 22 65  1  6
 23 66  1  0
 25 67  1  0
 25 68  1  0
 25 69  1  0
 26 70  1  0
 26 71  1  0
 26 72  1  0
 28 73  1  0
 28 74  1  0
 28 75  1  0
 29 76  1  0
 29 77  1  0
 30 78  1  0
 30 79  1  0
 32 80  1  0
 32 81  1  0
 32 82  1  0
M  END
>  <meeko>  (18) 
{"is_sidechain": [false], "intermolecular_energy": 2.731, "internal_energy": -0.839}

$$$$
EPH_relaxed_0001_pdb2pqr_Repair_275_r2_0001_out
     RDKit          3D

 82 86  0  0  0  0  0  0  0  0999 V2000
  -14.2510    5.4390    0.4190 C   0  0  0  0  0  0  0  0  0  0  0  0
  -13.7250    6.8690    0.2630 C   0  0  2  0  0  0  0  0  0  0  0  0
  -14.8520    7.8710   -0.0550 C   0  0  0  0  0  0  0  0  0  0  0  0
  -14.4510    9.3340    0.1500 C   0  0  0  0  0  0  0  0  0  0  0  0
  -15.2060   10.2500   -0.7650 C   0  0  2  0  0  0  0  0  0  0  0  0
  -15.1360    9.9010   -2.1540 O   0  0  0  0  0  0  0  0  0  0  0  0
  -14.5370   11.1540   -1.7840 C   0  0  0  0  0  0  0  0  0  0  0  0
  -13.0490   11.1870   -1.9400 C   0  0  0  0  0  0  0  0  0  0  0  0
  -15.2870   12.3500   -2.2810 C   0  0  0  0  0  0  0  0  0  0  0  0
  -12.6620    6.9160   -0.8280 C   0  0  1  0  0  0  0  0  0  0  0  0
  -13.0290    7.8920   -1.9770 C   0  0  0  0  0  0  0  0  0  0  0  0
  -11.7000    8.5230   -2.4690 C   0  0  0  0  0  0  0  0  0  0  0  0
  -10.5940    7.6540   -1.8250 C   0  0  1  0  0  0  0  0  0  0  0  0
  -10.4850    6.3980   -2.7450 C   0  0  0  0  0  0  0  0  0  0  0  0
   -9.2060    8.3430   -1.6220 C   0  0  2  0  0  0  0  0  0  0  0  0
   -8.5030    8.7910   -2.9150 C   0  0  0  0  0  0  0  0  0  0  0  0
   -7.5960    7.7780   -3.5320 C   0  0  0  0  0  0  0  0  0  0  0  0
   -7.1320    6.6700   -2.9240 C   0  0  0  0  0  0  0  0  0  0  0  0
   -7.4400    6.3950   -1.4470 C   0  0  1  0  0  0  0  0  0  0  0  0
   -6.1390    5.9650   -0.7190 C   0  0  0  0  0  0  0  0  0  0  0  0
   -5.4490    4.7870   -1.4000 C   0  0  0  0  0  0  0  0  0  0  0  0
   -5.1080    5.1200   -2.8500 C   0  0  2  0  0  0  0  0  0  0  0  0
   -4.1110    6.1470   -2.8650 O   0  0  0  0  0  0  0  0  0  0  0  0
   -6.3390    5.5760   -3.6810 C   0  0  0  0  0  0  0  0  0  0  0  0
   -7.2820    4.3710   -3.9190 C   0  0  0  0  0  0  0  0  0  0  0  0
   -5.8340    6.0160   -5.0810 C   0  0  0  0  0  0  0  0  0  0  0  0
   -8.2190    7.5450   -0.6750 C   0  0  1  0  0  0  0  0  0  0  0  0
   -7.2070    8.5870   -0.1080 C   0  0  0  0  0  0  0  0  0  0  0  0
   -8.9570    6.9220    0.5680 C   0  0  0  0  0  0  0  0  0  0  0  0
  -10.3740    6.3660    0.3290 C   0  0  0  0  0  0  0  0  0  0  0  0
  -11.2420    7.3820   -0.4190 C   0  0  2  0  0  0  0  0  0  0  0  0
  -11.3880    8.6480    0.4920 C   0  0  0  0  0  0  0  0  0  0  0  0
  -14.3405    5.1958    1.4880 H   0  0  0  0  0  0  0  0  0  0  0  0
  -15.2381    5.3572   -0.0595 H   0  0  0  0  0  0  0  0  0  0  0  0
  -13.5522    4.7370   -0.0595 H   0  0  0  0  0  0  0  0  0  0  0  0
  -13.2825    7.1654    1.2255 H   0  0  0  0  0  0  0  0  0  0  0  0
  -15.1500    7.7366   -1.1053 H   0  0  0  0  0  0  0  0  0  0  0  0
  -15.6746    7.6622    0.6449 H   0  0  0  0  0  0  0  0  0  0  0  0
  -14.6610    9.6184    1.1916 H   0  0  0  0  0  0  0  0  0  0  0  0
  -13.3790    9.4304   -0.0770 H   0  0  0  0  0  0  0  0  0  0  0  0
  -15.9576   10.4459    0.0140 H   0  0  0  0  0  0  0  0  0  0  0  0
  -12.5763   11.1975   -0.9468 H   0  0  0  0  0  0  0  0  0  0  0  0
  -12.7185   10.2960   -2.4939 H   0  0  0  0  0  0  0  0  0  0  0  0
  -12.7584   12.0918   -2.4939 H   0  0  0  0  0  0  0  0  0  0  0  0
  -15.6537   12.9348   -1.4245 H   0  0  0  0  0  0  0  0  0  0  0  0
  -14.6184   12.9743   -2.8919 H   0  0  0  0  0  0  0  0  0  0  0  0
  -16.1402   12.0200   -2.8919 H   0  0  0  0  0  0  0  0  0  0  0  0
  -12.6412    5.8532   -1.1110 H   0  0  0  0  0  0  0  0  0  0  0  0
  -13.5155    7.3449   -2.7980 H   0  0  0  0  0  0  0  0  0  0  0  0
  -13.7292    8.6660   -1.6296 H   0  0  0  0  0  0  0  0  0  0  0  0
  -11.6346    8.4844   -3.5664 H   0  0  0  0  0  0  0  0  0  0  0  0
  -11.6130    9.5834   -2.1899 H   0  0  0  0  0  0  0  0  0  0  0  0
  -10.4065    5.4939   -2.1234 H   0  0  0  0  0  0  0  0  0  0  0  0
  -11.3806    6.3298   -3.3800 H   0  0  0  0  0  0  0  0  0  0  0  0
   -9.5910    6.4851   -3.3800 H   0  0  0  0  0  0  0  0  0  0  0  0
   -9.4782    9.2690   -1.0944 H   0  0  0  0  0  0  0  0  0  0  0  0
   -9.2783    9.0468   -3.6522 H   0  0  0  0  0  0  0  0  0  0  0  0
   -7.8637    9.6411   -2.6348 H   0  0  0  0  0  0  0  0  0  0  0  0
   -7.2802    7.9517   -4.5713 H   0  0  0  0  0  0  0  0  0  0  0  0
   -8.1654    5.5682   -1.4363 H   0  0  0  0  0  0  0  0  0  0  0  0
   -5.4454    6.8186   -0.7030 H   0  0  0  0  0  0  0  0  0  0  0  0
   -6.4147    5.6480    0.2976 H   0  0  0  0  0  0  0  0  0  0  0  0
   -4.5221    4.5497   -0.8573 H   0  0  0  0  0  0  0  0  0  0  0  0
   -6.1321    3.9249   -1.3885 H   0  0  0  0  0  0  0  0  0  0  0  0
   -4.7367    4.1978   -3.3207 H   0  0  0  0  0  0  0  0  0  0  0  0
   -4.4720    6.9000   -3.3610 H   0  0  0  0  0  0  0  0  0  0  0  0
   -7.6035    3.9601   -2.9506 H   0  0  0  0  0  0  0  0  0  0  0  0
   -8.1635    4.7020   -4.4877 H   0  0  0  0  0  0  0  0  0  0  0  0
   -6.7489    3.5949   -4.4877 H   0  0  0  0  0  0  0  0  0  0  0  0
   -5.0093    6.7345   -4.9642 H   0  0  0  0  0  0  0  0  0  0  0  0
   -5.4774    5.1355   -5.6356 H   0  0  0  0  0  0  0  0  0  0  0  0
   -6.6574    6.4898   -5.6356 H   0  0  0  0  0  0  0  0  0  0  0  0
   -7.2318    8.5615    0.9914 H   0  0  0  0  0  0  0  0  0  0  0  0
   -6.1934    8.3415   -0.4577 H   0  0  0  0  0  0  0  0  0  0  0  0
   -7.4820    9.5930   -0.4577 H   0  0  0  0  0  0  0  0  0  0  0  0
   -8.3350    6.0966    0.9448 H   0  0  0  0  0  0  0  0  0  0  0  0
   -9.0908    7.7573    1.2712 H   0  0  0  0  0  0  0  0  0  0  0  0
  -10.3032    5.4446   -0.2677 H   0  0  0  0  0  0  0  0  0  0  0  0
  -10.8385    6.1581    1.3042 H   0  0  0  0  0  0  0  0  0  0  0  0
  -11.3531    8.3452    1.5489 H   0  0  0  0  0  0  0  0  0  0  0  0
  -10.5645    9.3468    0.2834 H   0  0  0  0  0  0  0  0  0  0  0  0
  -12.3490    9.1410    0.2834 H   0  0  0  0  0  0  0  0  0  0  0  0
  1  2  1  0
  2  3  1  0
  3  4  1  0
  4  5  1  0
  5  6  1  0
  6  7  1  0
  7  8  1  0
  7  9  1  0
  2 10  1  0
 10 11  1  0
 11 12  1  0
 12 13  1  0
 13 14  1  6
 13 15  1  0
 15 16  1  0
 16 17  1  0
 17 18  2  0
 18 19  1  0
 19 20  1  0
 20 21  1  0
 21 22  1  0
 22 23  1  0
 22 24  1  0
 24 25  1  0
 24 26  1  0
 19 27  1  0
 27 28  1  1
 27 29  1  0
 29 30  1  0
 30 31  1  0
 31 32  1  1
  7  5  1  0
 31 10  1  0
 31 13  1  0
 27 15  1  0
 24 18  1  0
  1 33  1  0
  1 34  1  0
  1 35  1  0
  2 36  1  1
  3 37  1  0
  3 38  1  0
  4 39  1  0
  4 40  1  0
  5 41  1  1
  8 42  1  0
  8 43  1  0
  8 44  1  0
  9 45  1  0
  9 46  1  0
  9 47  1  0
 10 48  1  6
 11 49  1  0
 11 50  1  0
 12 51  1  0
 12 52  1  0
 14 53  1  0
 14 54  1  0
 14 55  1  0
 15 56  1  1
 16 57  1  0
 16 58  1  0
 17 59  1  0
 19 60  1  6
 20 61  1  0
 20 62  1  0
 21 63  1  0
 21 64  1  0
 22 65  1  6
 23 66  1  0
 25 67  1  0
 25 68  1  0
 25 69  1  0
 26 70  1  0
 26 71  1  0
 26 72  1  0
 28 73  1  0
 28 74  1  0
 28 75  1  0
 29 76  1  0
 29 77  1  0
 30 78  1  0
 30 79  1  0
 32 80  1  0
 32 81  1  0
 32 82  1  0
M  END
>  <meeko>  (19) 
{"is_sidechain": [false], "intermolecular_energy": 2.731, "internal_energy": -0.839}

$$$$
EPH_relaxed_0001_pdb2pqr_Repair_275_r2_0001_out
     RDKit          3D

 82 86  0  0  0  0  0  0  0  0999 V2000
   -2.4550    7.7820   -0.0620 C   0  0  0  0  0  0  0  0  0  0  0  0
   -3.0740    9.1830   -0.0580 C   0  0  2  0  0  0  0  0  0  0  0  0
   -4.5650    9.1610   -0.4490 C   0  0  0  0  0  0  0  0  0  0  0  0
   -5.1820    7.7590   -0.4440 C   0  0  0  0  0  0  0  0  0  0  0  0
   -5.8570    7.4460   -1.7450 C   0  0  2  0  0  0  0  0  0  0  0  0
   -6.7750    8.4490   -2.2000 O   0  0  0  0  0  0  0  0  0  0  0  0
   -7.3440    7.1720   -1.8710 C   0  0  0  0  0  0  0  0  0  0  0  0
   -8.2460    7.1970   -0.6770 C   0  0  0  0  0  0  0  0  0  0  0  0
   -7.8320    6.4050   -3.0610 C   0  0  0  0  0  0  0  0  0  0  0  0
   -2.3010   10.0960   -1.0020 C   0  0  1  0  0  0  0  0  0  0  0  0
   -2.9320   11.5090   -1.1170 C   0  0  0  0  0  0  0  0  0  0  0  0
   -1.7600   12.5100   -1.2840 C   0  0  0  0  0  0  0  0  0  0  0  0
   -0.5310   11.6240   -1.5920 C   0  0  1  0  0  0  0  0  0  0  0  0
   -0.6390   11.3020   -3.1160 C   0  0  0  0  0  0  0  0  0  0  0  0
    0.8650   12.2270   -1.2280 C   0  0  2  0  0  0  0  0  0  0  0  0
    1.2390   13.5110   -1.9870 C   0  0  0  0  0  0  0  0  0  0  0  0
    1.9770   13.3030   -3.2680 C   0  0  0  0  0  0  0  0  0  0  0  0
    2.5740   12.1590   -3.6490 C   0  0  0  0  0  0  0  0  0  0  0  0
    2.6270   10.9470   -2.7100 C   0  0  1  0  0  0  0  0  0  0  0  0
    4.0640   10.3630   -2.6980 C   0  0  0  0  0  0  0  0  0  0  0  0
    4.5760   10.0390   -4.0980 C   0  0  0  0  0  0  0  0  0  0  0  0
    4.5630   11.2810   -4.9850 C   0  0  2  0  0  0  0  0  0  0  0  0
    5.5250   12.2140   -4.4850 O   0  0  0  0  0  0  0  0  0  0  0  0
    3.1680   11.9620   -5.0660 C   0  0  0  0  0  0  0  0  0  0  0  0
    2.1990   11.0680   -5.8790 C   0  0  0  0  0  0  0  0  0  0  0  0
    3.3250   13.2780   -5.8740 C   0  0  0  0  0  0  0  0  0  0  0  0
    2.0500   11.1780   -1.2480 C   0  0  1  0  0  0  0  0  0  0  0  0
    3.1650   11.7480   -0.3190 C   0  0  0  0  0  0  0  0  0  0  0  0
    1.6300    9.7890   -0.6360 C   0  0  0  0  0  0  0  0  0  0  0  0
    0.1980    9.3030   -0.9320 C   0  0  0  0  0  0  0  0  0  0  0  0
   -0.8260   10.4050   -0.6430 C   0  0  2  0  0  0  0  0  0  0  0  0
   -0.7550   10.7340    0.8870 C   0  0  0  0  0  0  0  0  0  0  0  0
   -2.3057    7.4441    0.9741 H   0  0  0  0  0  0  0  0  0  0  0  0
   -3.1289    7.0849   -0.5815 H   0  0  0  0  0  0  0  0  0  0  0  0
   -1.4858    7.8108   -0.5815 H   0  0  0  0  0  0  0  0  0  0  0  0
   -3.0085    9.5700    0.9696 H   0  0  0  0  0  0  0  0  0  0  0  0
   -5.1204    9.7875    0.2645 H   0  0  0  0  0  0  0  0  0  0  0  0
   -4.6327    9.5384   -1.4800 H   0  0  0  0  0  0  0  0  0  0  0  0
   -4.3864    7.0200   -0.2683 H   0  0  0  0  0  0  0  0  0  0  0  0
   -5.9390    7.7202    0.3532 H   0  0  0  0  0  0  0  0  0  0  0  0
   -4.9725    6.8958   -2.0986 H   0  0  0  0  0  0  0  0  0  0  0  0
   -7.6399    7.1802    0.2408 H   0  0  0  0  0  0  0  0  0  0  0  0
   -8.8556    8.1124   -0.6971 H   0  0  0  0  0  0  0  0  0  0  0  0
   -8.9054    6.3168   -0.6971 H   0  0  0  0  0  0  0  0  0  0  0  0
   -8.3939    5.5219   -2.7228 H   0  0  0  0  0  0  0  0  0  0  0  0
   -8.4881    7.0470   -3.6672 H   0  0  0  0  0  0  0  0  0  0  0  0
   -6.9725    6.0827   -3.6672 H   0  0  0  0  0  0  0  0  0  0  0  0
   -2.3462    9.4922   -1.9204 H   0  0  0  0  0  0  0  0  0  0  0  0
   -3.5981   11.5564   -1.9911 H   0  0  0  0  0  0  0  0  0  0  0  0
   -3.5313   11.7476   -0.2260 H   0  0  0  0  0  0  0  0  0  0  0  0
   -1.9569   13.2033   -2.1150 H   0  0  0  0  0  0  0  0  0  0  0  0
   -1.6120   13.1320   -0.3889 H   0  0  0  0  0  0  0  0  0  0  0  0
   -0.9863   10.2667   -3.2483 H   0  0  0  0  0  0  0  0  0  0  0  0
   -1.3549   11.9918   -3.5867 H   0  0  0  0  0  0  0  0  0  0  0  0
    0.3481   11.4206   -3.5867 H   0  0  0  0  0  0  0  0  0  0  0  0
    0.7244   12.5297   -0.1799 H   0  0  0  0  0  0  0  0  0  0  0  0
    0.3099   14.0542   -2.2144 H   0  0  0  0  0  0  0  0  0  0  0  0
    1.9236   14.0653   -1.3281 H   0  0  0  0  0  0  0  0  0  0  0  0
    2.0378   14.1570   -3.9586 H   0  0  0  0  0  0  0  0  0  0  0  0
    1.9278   10.2077   -3.1279 H   0  0  0  0  0  0  0  0  0  0  0  0
    4.7396   11.0986   -2.2370 H   0  0  0  0  0  0  0  0  0  0  0  0
    4.0376    9.4234   -2.1266 H   0  0  0  0  0  0  0  0  0  0  0  0
    5.6058    9.6591   -4.0257 H   0  0  0  0  0  0  0  0  0  0  0  0
    3.9168    9.2809   -4.5460 H   0  0  0  0  0  0  0  0  0  0  0  0
    4.8145   10.9594   -6.0064 H   0  0  0  0  0  0  0  0  0  0  0  0
    5.6960   11.9910   -3.5540 H   0  0  0  0  0  0  0  0  0  0  0  0
    1.5695   10.4873   -5.1887 H   0  0  0  0  0  0  0  0  0  0  0  0
    1.5606   11.7010   -6.5128 H   0  0  0  0  0  0  0  0  0  0  0  0
    2.7787   10.3808   -6.5128 H   0  0  0  0  0  0  0  0  0  0  0  0
    3.4260   14.1249   -5.1794 H   0  0  0  0  0  0  0  0  0  0  0  0
    4.2219   13.2144   -6.5076 H   0  0  0  0  0  0  0  0  0  0  0  0
    2.4383   13.4272   -6.5076 H   0  0  0  0  0  0  0  0  0  0  0  0
    2.8770   11.6008    0.7324 H   0  0  0  0  0  0  0  0  0  0  0  0
    4.1111   11.2230   -0.5170 H   0  0  0  0  0  0  0  0  0  0  0  0
    3.2935   12.8224   -0.5170 H   0  0  0  0  0  0  0  0  0  0  0  0
    2.3256    9.0305   -1.0242 H   0  0  0  0  0  0  0  0  0  0  0  0
    1.6653    9.9326    0.4540 H   0  0  0  0  0  0  0  0  0  0  0  0
    0.1275    9.0152   -1.9913 H   0  0  0  0  0  0  0  0  0  0  0  0
   -0.0211    8.4419   -0.2835 H   0  0  0  0  0  0  0  0  0  0  0  0
   -0.9520    9.8209    1.4679 H   0  0  0  0  0  0  0  0  0  0  0  0
    0.2464   11.1166    1.1337 H   0  0  0  0  0  0  0  0  0  0  0  0
   -1.5095   11.4955    1.1337 H   0  0  0  0  0  0  0  0  0  0  0  0
  1  2  1  0
  2  3  1  0
  3  4  1  0
  4  5  1  0
  5  6  1  0
  6  7  1  0
  7  8  1  0
  7  9  1  0
  2 10  1  0
 10 11  1  0
 11 12  1  0
 12 13  1  0
 13 14  1  6
 13 15  1  0
 15 16  1  0
 16 17  1  0
 17 18  2  0
 18 19  1  0
 19 20  1  0
 20 21  1  0
 21 22  1  0
 22 23  1  0
 22 24  1  0
 24 25  1  0
 24 26  1  0
 19 27  1  0
 27 28  1  1
 27 29  1  0
 29 30  1  0
 30 31  1  0
 31 32  1  1
  7  5  1  0
 31 10  1  0
 31 13  1  0
 27 15  1  0
 24 18  1  0
  1 33  1  0
  1 34  1  0
  1 35  1  0
  2 36  1  1
  3 37  1  0
  3 38  1  0
  4 39  1  0
  4 40  1  0
  5 41  1  6
  8 42  1  0
  8 43  1  0
  8 44  1  0
  9 45  1  0
  9 46  1  0
  9 47  1  0
 10 48  1  6
 11 49  1  0
 11 50  1  0
 12 51  1  0
 12 52  1  0
 14 53  1  0
 14 54  1  0
 14 55  1  0
 15 56  1  1
 16 57  1  0
 16 58  1  0
 17 59  1  0
 19 60  1  6
 20 61  1  0
 20 62  1  0
 21 63  1  0
 21 64  1  0
 22 65  1  6
 23 66  1  0
 25 67  1  0
 25 68  1  0
 25 69  1  0
 26 70  1  0
 26 71  1  0
 26 72  1  0
 28 73  1  0
 28 74  1  0
 28 75  1  0
 29 76  1  0
 29 77  1  0
 30 78  1  0
 30 79  1  0
 32 80  1  0
 32 81  1  0
 32 82  1  0
M  END
>  <meeko>  (20) 
{"is_sidechain": [false], "intermolecular_energy": 2.731, "internal_energy": -0.839}

$$$$
