EPH_relaxed_0001_pdb2pqr_Repair_355_r2_0001_out
     RDKit          3D

 82 86  0  0  0  0  0  0  0  0999 V2000
   -1.7710    8.5920   -2.1130 C   0  0  0  0  0  0  0  0  0  0  0  0
   -1.6250    8.7700   -0.5990 C   0  0  2  0  0  0  0  0  0  0  0  0
   -2.9870    8.9580    0.0980 C   0  0  0  0  0  0  0  0  0  0  0  0
   -4.1790    8.9270   -0.8620 C   0  0  0  0  0  0  0  0  0  0  0  0
   -4.7620    7.5510   -0.9780 C   0  0  2  0  0  0  0  0  0  0  0  0
   -4.9210    7.0800   -2.3230 O   0  0  0  0  0  0  0  0  0  0  0  0
   -6.1310    7.2700   -1.5710 C   0  0  0  0  0  0  0  0  0  0  0  0
   -7.0000    8.3740   -2.0850 C   0  0  0  0  0  0  0  0  0  0  0  0
   -6.8200    5.9930   -1.2040 C   0  0  0  0  0  0  0  0  0  0  0  0
   -0.7180    9.9580   -0.3000 C   0  0  1  0  0  0  0  0  0  0  0  0
    0.5000    9.5740    0.5820 C   0  0  0  0  0  0  0  0  0  0  0  0
    1.6880   10.4510    0.1100 C   0  0  0  0  0  0  0  0  0  0  0  0
    1.0420   11.5320   -0.7880 C   0  0  1  0  0  0  0  0  0  0  0  0
    0.4860   12.5990    0.2070 C   0  0  0  0  0  0  0  0  0  0  0  0
    1.9700   12.1780   -1.8680 C   0  0  2  0  0  0  0  0  0  0  0  0
    3.1800   12.9500   -1.3120 C   0  0  0  0  0  0  0  0  0  0  0  0
    2.9450   14.4010   -1.0510 C   0  0  0  0  0  0  0  0  0  0  0  0
    1.9080   15.1210   -1.5160 C   0  0  0  0  0  0  0  0  0  0  0  0
    0.8840   14.5000   -2.4750 C   0  0  1  0  0  0  0  0  0  0  0  0
    0.6220   15.4740   -3.6540 C   0  0  0  0  0  0  0  0  0  0  0  0
    0.2100   16.8650   -3.1830 C   0  0  0  0  0  0  0  0  0  0  0  0
    1.2800   17.4730   -2.2790 C   0  0  2  0  0  0  0  0  0  0  0  0
    2.4560   17.7170   -3.0560 O   0  0  0  0  0  0  0  0  0  0  0  0
    1.6340   16.5760   -1.0600 C   0  0  0  0  0  0  0  0  0  0  0  0
    0.4490   16.5590   -0.0640 C   0  0  0  0  0  0  0  0  0  0  0  0
    2.8220   17.2370   -0.3100 C   0  0  0  0  0  0  0  0  0  0  0  0
    1.2010   13.0210   -2.9630 C   0  0  1  0  0  0  0  0  0  0  0  0
    2.1210   13.0620   -4.2210 C   0  0  0  0  0  0  0  0  0  0  0  0
   -0.1400   12.3310   -3.4160 C   0  0  0  0  0  0  0  0  0  0  0  0
   -0.9520   11.6080   -2.3250 C   0  0  0  0  0  0  0  0  0  0  0  0
   -0.0590   10.6710   -1.5070 C   0  0  2  0  0  0  0  0  0  0  0  0
    0.4980    9.5730   -2.4770 C   0  0  0  0  0  0  0  0  0  0  0  0
   -2.4562    7.7566   -2.3196 H   0  0  0  0  0  0  0  0  0  0  0  0
   -2.1753    9.5153   -2.5535 H   0  0  0  0  0  0  0  0  0  0  0  0
   -0.7864    8.3762   -2.5535 H   0  0  0  0  0  0  0  0  0  0  0  0
   -1.1748    7.8491   -0.1998 H   0  0  0  0  0  0  0  0  0  0  0  0
   -3.1140    8.1517    0.8354 H   0  0  0  0  0  0  0  0  0  0  0  0
   -2.9750    9.9545    0.5636 H   0  0  0  0  0  0  0  0  0  0  0  0
   -4.9545    9.6125   -0.4896 H   0  0  0  0  0  0  0  0  0  0  0  0
   -3.8257    9.2347   -1.8573 H   0  0  0  0  0  0  0  0  0  0  0  0
   -4.2906    7.2453   -0.0323 H   0  0  0  0  0  0  0  0  0  0  0  0
   -7.4334    8.9246   -1.2370 H   0  0  0  0  0  0  0  0  0  0  0  0
   -6.3971    9.0601   -2.6980 H   0  0  0  0  0  0  0  0  0  0  0  0
   -7.8085    7.9491   -2.6980 H   0  0  0  0  0  0  0  0  0  0  0  0
   -6.8680    5.9040   -0.1087 H   0  0  0  0  0  0  0  0  0  0  0  0
   -7.8396    5.9947   -1.6168 H   0  0  0  0  0  0  0  0  0  0  0  0
   -6.2587    5.1418   -1.6168 H   0  0  0  0  0  0  0  0  0  0  0  0
   -1.4455   10.6280    0.1814 H   0  0  0  0  0  0  0  0  0  0  0  0
    0.2789    9.7737    1.6409 H   0  0  0  0  0  0  0  0  0  0  0  0
    0.7360    8.5040    0.4853 H   0  0  0  0  0  0  0  0  0  0  0  0
    2.1955   10.9128    0.9698 H   0  0  0  0  0  0  0  0  0  0  0  0
    2.4517    9.8666   -0.4242 H   0  0  0  0  0  0  0  0  0  0  0  0
    0.6608   12.2635    1.2399 H   0  0  0  0  0  0  0  0  0  0  0  0
    0.9992   13.5577    0.0411 H   0  0  0  0  0  0  0  0  0  0  0  0
   -0.5938   12.7276    0.0411 H   0  0  0  0  0  0  0  0  0  0  0  0
    2.3864   11.2967   -2.3778 H   0  0  0  0  0  0  0  0  0  0  0  0
    3.4781   12.4780   -0.3642 H   0  0  0  0  0  0  0  0  0  0  0  0
    3.9555   12.9024   -2.0907 H   0  0  0  0  0  0  0  0  0  0  0  0
    3.6821   14.9259   -0.4256 H   0  0  0  0  0  0  0  0  0  0  0  0
   -0.0384   14.3653   -1.8911 H   0  0  0  0  0  0  0  0  0  0  0  0
    1.5423   15.5618   -4.2501 H   0  0  0  0  0  0  0  0  0  0  0  0
   -0.2076   15.0634   -4.2483 H   0  0  0  0  0  0  0  0  0  0  0  0
    0.0673   17.5144   -4.0593 H   0  0  0  0  0  0  0  0  0  0  0  0
   -0.7261   16.7798   -2.6116 H   0  0  0  0  0  0  0  0  0  0  0  0
    0.8735   18.4099   -1.8704 H   0  0  0  0  0  0  0  0  0  0  0  0
    3.2110   17.7500   -2.4440 H   0  0  0  0  0  0  0  0  0  0  0  0
    0.8355   16.5645    0.9658 H   0  0  0  0  0  0  0  0  0  0  0  0
   -0.1781   17.4482   -0.2251 H   0  0  0  0  0  0  0  0  0  0  0  0
   -0.1524   15.6521   -0.2251 H   0  0  0  0  0  0  0  0  0  0  0  0
    2.6648   17.1495    0.7752 H   0  0  0  0  0  0  0  0  0  0  0  0
    3.7581   16.7300   -0.5869 H   0  0  0  0  0  0  0  0  0  0  0  0
    2.8847   18.2997   -0.5869 H   0  0  0  0  0  0  0  0  0  0  0  0
    3.1734   13.1089   -3.9043 H   0  0  0  0  0  0  0  0  0  0  0  0
    1.9594   12.1558   -4.8232 H   0  0  0  0  0  0  0  0  0  0  0  0
    1.8794   13.9503   -4.8232 H   0  0  0  0  0  0  0  0  0  0  0  0
   -0.7848   13.1095   -3.8498 H   0  0  0  0  0  0  0  0  0  0  0  0
    0.1655   11.5414   -4.1182 H   0  0  0  0  0  0  0  0  0  0  0  0
   -1.3987   12.3562   -1.6537 H   0  0  0  0  0  0  0  0  0  0  0  0
   -1.7365   11.0091   -2.8108 H   0  0  0  0  0  0  0  0  0  0  0  0
    0.9187    8.7438   -1.8893 H   0  0  0  0  0  0  0  0  0  0  0  0
   -0.3179    9.1960   -3.1112 H   0  0  0  0  0  0  0  0  0  0  0  0
    1.2841   10.0087   -3.1112 H   0  0  0  0  0  0  0  0  0  0  0  0
  1  2  1  0
  2  3  1  0
  3  4  1  0
  4  5  1  0
  5  6  1  0
  6  7  1  0
  7  8  1  0
  7  9  1  0
  2 10  1  0
 10 11  1  0
 11 12  1  0
 12 13  1  0
 13 14  1  1
 13 15  1  0
 15 16  1  0
 16 17  1  0
 17 18  2  0
 18 19  1  0
 19 20  1  0
 20 21  1  0
 21 22  1  0
 22 23  1  0
 22 24  1  0
 24 25  1  0
 24 26  1  0
 19 27  1  0
 27 28  1  6
 27 29  1  0
 29 30  1  0
 30 31  1  0
 31 32  1  6
  7  5  1  0
 31 10  1  0
 31 13  1  0
 27 15  1  0
 24 18  1  0
  1 33  1  0
  1 34  1  0
  1 35  1  0
  2 36  1  1
  3 37  1  0
  3 38  1  0
  4 39  1  0
  4 40  1  0
  5 41  1  1
  8 42  1  0
  8 43  1  0
  8 44  1  0
  9 45  1  0
  9 46  1  0
  9 47  1  0
 10 48  1  1
 11 49  1  0
 11 50  1  0
 12 51  1  0
 12 52  1  0
 14 53  1  0
 14 54  1  0
 14 55  1  0
 15 56  1  6
 16 57  1  0
 16 58  1  0
 17 59  1  0
 19 60  1  1
 20 61  1  0
 20 62  1  0
 21 63  1  0
 21 64  1  0
 22 65  1  1
 23 66  1  0
 25 67  1  0
 25 68  1  0
 25 69  1  0
 26 70  1  0
 26 71  1  0
 26 72  1  0
 28 73  1  0
 28 74  1  0
 28 75  1  0
 29 76  1  0
 29 77  1  0
 30 78  1  0
 30 79  1  0
 32 80  1  0
 32 81  1  0
 32 82  1  0
M  END
>  <meeko>  (1) 
{"is_sidechain": [false], "intermolecular_energy": 2.731, "internal_energy": -0.839}

$$$$
EPH_relaxed_0001_pdb2pqr_Repair_355_r2_0001_out
     RDKit          3D

 82 86  0  0  0  0  0  0  0  0999 V2000
    0.2600   18.2400    0.1950 C   0  0  0  0  0  0  0  0  0  0  0  0
    1.4010   17.2640   -0.1080 C   0  0  2  0  0  0  0  0  0  0  0  0
    2.5620   17.9450   -0.8610 C   0  0  0  0  0  0  0  0  0  0  0  0
    3.7960   18.1970    0.0100 C   0  0  0  0  0  0  0  0  0  0  0  0
    3.4210   18.6810    1.3770 C   0  0  2  0  0  0  0  0  0  0  0  0
    3.6890   20.0690    1.6160 O   0  0  0  0  0  0  0  0  0  0  0  0
    4.4340   19.1330    2.4130 C   0  0  0  0  0  0  0  0  0  0  0  0
    5.9020   19.1210    2.1240 C   0  0  0  0  0  0  0  0  0  0  0  0
    4.0360   19.1200    3.8560 C   0  0  0  0  0  0  0  0  0  0  0  0
    0.8760   16.0850   -0.9180 C   0  0  1  0  0  0  0  0  0  0  0  0
    0.7990   16.3910   -2.4380 C   0  0  0  0  0  0  0  0  0  0  0  0
    1.1370   15.0710   -3.1770 C   0  0  0  0  0  0  0  0  0  0  0  0
    1.0700   13.9820   -2.0810 C   0  0  1  0  0  0  0  0  0  0  0  0
   -0.4500   13.6560   -1.9310 C   0  0  0  0  0  0  0  0  0  0  0  0
    1.9140   12.6910   -2.3370 C   0  0  2  0  0  0  0  0  0  0  0  0
    1.5030   11.8770   -3.5760 C   0  0  0  0  0  0  0  0  0  0  0  0
    0.4770   10.8200   -3.3340 C   0  0  0  0  0  0  0  0  0  0  0  0
    0.1170   10.3410   -2.1290 C   0  0  0  0  0  0  0  0  0  0  0  0
    0.8330   10.8010   -0.8520 C   0  0  1  0  0  0  0  0  0  0  0  0
    1.1750    9.5670    0.0230 C   0  0  0  0  0  0  0  0  0  0  0  0
   -0.0470    8.7030    0.3190 C   0  0  0  0  0  0  0  0  0  0  0  0
   -0.6980    8.2170   -0.9740 C   0  0  2  0  0  0  0  0  0  0  0  0
    0.1990    7.3160   -1.6310 O   0  0  0  0  0  0  0  0  0  0  0  0
   -1.0780    9.3740   -1.9410 C   0  0  0  0  0  0  0  0  0  0  0  0
   -2.2650   10.1750   -1.3520 C   0  0  0  0  0  0  0  0  0  0  0  0
   -1.5930    8.7410   -3.2620 C   0  0  0  0  0  0  0  0  0  0  0  0
    2.0800   11.7630   -1.0660 C   0  0  1  0  0  0  0  0  0  0  0  0
    3.3700   10.9170   -1.2980 C   0  0  0  0  0  0  0  0  0  0  0  0
    2.3230   12.5900    0.2520 C   0  0  0  0  0  0  0  0  0  0  0  0
    1.5500   13.9160    0.3920 C   0  0  0  0  0  0  0  0  0  0  0  0
    1.6930   14.7700   -0.8720 C   0  0  2  0  0  0  0  0  0  0  0  0
    3.2080   15.1310   -1.0360 C   0  0  0  0  0  0  0  0  0  0  0  0
    0.1428   18.3403    1.2841 H   0  0  0  0  0  0  0  0  0  0  0  0
    0.4927   19.2228   -0.2408 H   0  0  0  0  0  0  0  0  0  0  0  0
   -0.6749   17.8578   -0.2408 H   0  0  0  0  0  0  0  0  0  0  0  0
    1.7953   16.9068    0.8548 H   0  0  0  0  0  0  0  0  0  0  0  0
    2.8563   17.3000   -1.7021 H   0  0  0  0  0  0  0  0  0  0  0  0
    2.1970   18.9278   -1.1939 H   0  0  0  0  0  0  0  0  0  0  0  0
    4.3613   17.2584    0.1070 H   0  0  0  0  0  0  0  0  0  0  0  0
    4.4037   18.9756   -0.4742 H   0  0  0  0  0  0  0  0  0  0  0  0
    2.5851   17.9676    1.4250 H   0  0  0  0  0  0  0  0  0  0  0  0
    6.4621   19.1164    3.0707 H   0  0  0  0  0  0  0  0  0  0  0  0
    6.1543   18.2208    1.5444 H   0  0  0  0  0  0  0  0  0  0  0  0
    6.1689   20.0170    1.5444 H   0  0  0  0  0  0  0  0  0  0  0  0
    4.9377   19.1495    4.4853 H   0  0  0  0  0  0  0  0  0  0  0  0
    3.4096   19.9982    4.0715 H   0  0  0  0  0  0  0  0  0  0  0  0
    3.4682   18.2028    4.0715 H   0  0  0  0  0  0  0  0  0  0  0  0
   -0.0963   15.9410   -0.4241 H   0  0  0  0  0  0  0  0  0  0  0  0
   -0.2136   16.7267   -2.7061 H   0  0  0  0  0  0  0  0  0  0  0  0
    1.5013   17.1906   -2.7162 H   0  0  0  0  0  0  0  0  0  0  0  0
    0.4010   14.8702   -3.9694 H   0  0  0  0  0  0  0  0  0  0  0  0
    2.1204   15.1082   -3.6685 H   0  0  0  0  0  0  0  0  0  0  0  0
   -0.7095   13.6004   -0.8635 H   0  0  0  0  0  0  0  0  0  0  0  0
   -1.0439   14.4472   -2.4119 H   0  0  0  0  0  0  0  0  0  0  0  0
   -0.6672   12.6908   -2.4119 H   0  0  0  0  0  0  0  0  0  0  0  0
    2.9085   13.1016   -2.5658 H   0  0  0  0  0  0  0  0  0  0  0  0
    1.1005   12.5763   -4.3237 H   0  0  0  0  0  0  0  0  0  0  0  0
    2.4097   11.3501   -3.9080 H   0  0  0  0  0  0  0  0  0  0  0  0
   -0.0274   10.3969   -4.2152 H   0  0  0  0  0  0  0  0  0  0  0  0
    0.1211   11.4490   -0.3198 H   0  0  0  0  0  0  0  0  0  0  0  0
    1.9198    8.9548   -0.5065 H   0  0  0  0  0  0  0  0  0  0  0  0
    1.5635    9.9362    0.9836 H   0  0  0  0  0  0  0  0  0  0  0  0
    0.2636    7.8322    0.9150 H   0  0  0  0  0  0  0  0  0  0  0  0
   -0.7786    9.3082    0.8745 H   0  0  0  0  0  0  0  0  0  0  0  0
   -1.6377    7.7142   -0.7019 H   0  0  0  0  0  0  0  0  0  0  0  0
    1.0590    7.3780   -1.1830 H   0  0  0  0  0  0  0  0  0  0  0  0
   -2.2191   10.1440   -0.2534 H   0  0  0  0  0  0  0  0  0  0  0  0
   -2.2072   11.2195   -1.6921 H   0  0  0  0  0  0  0  0  0  0  0  0
   -3.2120    9.7305   -1.6921 H   0  0  0  0  0  0  0  0  0  0  0  0
   -2.2714    7.9071   -3.0289 H   0  0  0  0  0  0  0  0  0  0  0  0
   -2.1329    9.5005   -3.8465 H   0  0  0  0  0  0  0  0  0  0  0  0
   -0.7395    8.3669   -3.8465 H   0  0  0  0  0  0  0  0  0  0  0  0
    3.8022   10.6336   -0.3270 H   0  0  0  0  0  0  0  0  0  0  0  0
    3.1162   10.0094   -1.8653 H   0  0  0  0  0  0  0  0  0  0  0  0
    4.1013   11.5115   -1.8653 H   0  0  0  0  0  0  0  0  0  0  0  0
    2.0439   11.9506    1.1025 H   0  0  0  0  0  0  0  0  0  0  0  0
    3.3844   12.8772    0.2204 H   0  0  0  0  0  0  0  0  0  0  0  0
    0.4853   13.6960    0.5591 H   0  0  0  0  0  0  0  0  0  0  0  0
    1.9654   14.4761    1.2427 H   0  0  0  0  0  0  0  0  0  0  0  0
    3.6684   15.2407   -0.0430 H   0  0  0  0  0  0  0  0  0  0  0  0
    3.7181   14.3293   -1.5901 H   0  0  0  0  0  0  0  0  0  0  0  0
    3.3017   16.0766   -1.5901 H   0  0  0  0  0  0  0  0  0  0  0  0
  1  2  1  0
  2  3  1  0
  3  4  1  0
  4  5  1  0
  5  6  1  0
  6  7  1  0
  7  8  1  0
  7  9  1  0
  2 10  1  0
 10 11  1  0
 11 12  1  0
 12 13  1  0
 13 14  1  1
 13 15  1  0
 15 16  1  0
 16 17  1  0
 17 18  2  0
 18 19  1  0
 19 20  1  0
 20 21  1  0
 21 22  1  0
 22 23  1  0
 22 24  1  0
 24 25  1  0
 24 26  1  0
 19 27  1  0
 27 28  1  6
 27 29  1  0
 29 30  1  0
 30 31  1  0
 31 32  1  6
  7  5  1  0
 31 10  1  0
 31 13  1  0
 27 15  1  0
 24 18  1  0
  1 33  1  0
  1 34  1  0
  1 35  1  0
  2 36  1  1
  3 37  1  0
  3 38  1  0
  4 39  1  0
  4 40  1  0
  5 41  1  1
  8 42  1  0
  8 43  1  0
  8 44  1  0
  9 45  1  0
  9 46  1  0
  9 47  1  0
 10 48  1  1
 11 49  1  0
 11 50  1  0
 12 51  1  0
 12 52  1  0
 14 53  1  0
 14 54  1  0
 14 55  1  0
 15 56  1  6
 16 57  1  0
 16 58  1  0
 17 59  1  0
 19 60  1  1
 20 61  1  0
 20 62  1  0
 21 63  1  0
 21 64  1  0
 22 65  1  1
 23 66  1  0
 25 67  1  0
 25 68  1  0
 25 69  1  0
 26 70  1  0
 26 71  1  0
 26 72  1  0
 28 73  1  0
 28 74  1  0
 28 75  1  0
 29 76  1  0
 29 77  1  0
 30 78  1  0
 30 79  1  0
 32 80  1  0
 32 81  1  0
 32 82  1  0
M  END
>  <meeko>  (2) 
{"is_sidechain": [false], "intermolecular_energy": 2.731, "internal_energy": -0.839}

$$$$
EPH_relaxed_0001_pdb2pqr_Repair_355_r2_0001_out
     RDKit          3D

 82 86  0  0  0  0  0  0  0  0999 V2000
    2.2840   19.6190   -0.6800 C   0  0  0  0  0  0  0  0  0  0  0  0
    2.1780   18.6940    0.5350 C   0  0  2  0  0  0  0  0  0  0  0  0
    3.5620   18.2510    1.0510 C   0  0  0  0  0  0  0  0  0  0  0  0
    3.8440   18.6720    2.4950 C   0  0  0  0  0  0  0  0  0  0  0  0
    5.3090   18.8780    2.7370 C   0  0  2  0  0  0  0  0  0  0  0  0
    5.9100   17.9210    3.6200 O   0  0  0  0  0  0  0  0  0  0  0  0
    5.8870   19.2820    4.0810 C   0  0  0  0  0  0  0  0  0  0  0  0
    5.0090   19.5060    5.2720 C   0  0  0  0  0  0  0  0  0  0  0  0
    7.2360   19.9300    4.1130 C   0  0  0  0  0  0  0  0  0  0  0  0
    1.3370   17.4720    0.1860 C   0  0  1  0  0  0  0  0  0  0  0  0
    0.0300   17.8410   -0.5660 C   0  0  0  0  0  0  0  0  0  0  0  0
   -0.2410   16.6980   -1.5780 C   0  0  0  0  0  0  0  0  0  0  0  0
    0.7180   15.5630   -1.1510 C   0  0  1  0  0  0  0  0  0  0  0  0
   -0.0050   14.8520    0.0370 C   0  0  0  0  0  0  0  0  0  0  0  0
    1.1280   14.5480   -2.2670 C   0  0  2  0  0  0  0  0  0  0  0  0
   -0.0330   13.7340   -2.8670 C   0  0  0  0  0  0  0  0  0  0  0  0
   -0.3210   12.4370   -2.1860 C   0  0  0  0  0  0  0  0  0  0  0  0
    0.4960   11.8100   -1.3200 C   0  0  0  0  0  0  0  0  0  0  0  0
    1.8980   12.3580   -1.0220 C   0  0  1  0  0  0  0  0  0  0  0  0
    2.9290   11.2000   -1.0760 C   0  0  0  0  0  0  0  0  0  0  0  0
    2.5500   10.0360   -0.1640 C   0  0  0  0  0  0  0  0  0  0  0  0
    1.1760    9.4810   -0.5300 C   0  0  2  0  0  0  0  0  0  0  0  0
    1.2520    8.8800   -1.8260 O   0  0  0  0  0  0  0  0  0  0  0  0
    0.0570   10.5600   -0.5180 C   0  0  0  0  0  0  0  0  0  0  0  0
   -0.2320   10.9940    0.9400 C   0  0  0  0  0  0  0  0  0  0  0  0
   -1.2480    9.9000   -1.0410 C   0  0  0  0  0  0  0  0  0  0  0  0
    2.3470   13.6170   -1.8810 C   0  0  1  0  0  0  0  0  0  0  0  0
    2.9890   13.1440   -3.2220 C   0  0  0  0  0  0  0  0  0  0  0  0
    3.4720   14.3960   -1.1020 C   0  0  0  0  0  0  0  0  0  0  0  0
    3.0060   15.4690   -0.1000 C   0  0  0  0  0  0  0  0  0  0  0  0
    1.9780   16.4080   -0.7390 C   0  0  2  0  0  0  0  0  0  0  0  0
    2.6830   17.1530   -1.9240 C   0  0  0  0  0  0  0  0  0  0  0  0
    2.4031   20.6584   -0.3402 H   0  0  0  0  0  0  0  0  0  0  0  0
    3.1548   19.3294   -1.2864 H   0  0  0  0  0  0  0  0  0  0  0  0
    1.3702   19.5339   -1.2864 H   0  0  0  0  0  0  0  0  0  0  0  0
    1.6917   19.2623    1.3416 H   0  0  0  0  0  0  0  0  0  0  0  0
    3.6200   17.1541    0.9915 H   0  0  0  0  0  0  0  0  0  0  0  0
    4.3141   18.7461    0.4192 H   0  0  0  0  0  0  0  0  0  0  0  0
    3.3128   19.6127    2.7021 H   0  0  0  0  0  0  0  0  0  0  0  0
    3.4965   17.8680    3.1604 H   0  0  0  0  0  0  0  0  0  0  0  0
    5.4431   19.2852    1.7240 H   0  0  0  0  0  0  0  0  0  0  0  0
    5.5936   19.3568    6.1918 H   0  0  0  0  0  0  0  0  0  0  0  0
    4.6160   20.5332    5.2498 H   0  0  0  0  0  0  0  0  0  0  0  0
    4.1720   18.7926    5.2498 H   0  0  0  0  0  0  0  0  0  0  0  0
    7.5464   20.0791    5.1577 H   0  0  0  0  0  0  0  0  0  0  0  0
    7.9653   19.2839    3.6024 H   0  0  0  0  0  0  0  0  0  0  0  0
    7.1875   20.9031    3.6024 H   0  0  0  0  0  0  0  0  0  0  0  0
    1.1907   17.0554    1.1935 H   0  0  0  0  0  0  0  0  0  0  0  0
   -0.8055   17.9239    0.1447 H   0  0  0  0  0  0  0  0  0  0  0  0
    0.1294   18.8085   -1.0799 H   0  0  0  0  0  0  0  0  0  0  0  0
   -1.2877   16.3654   -1.5169 H   0  0  0  0  0  0  0  0  0  0  0  0
   -0.0756   17.0143   -2.6185 H   0  0  0  0  0  0  0  0  0  0  0  0
    0.3877   15.2382    0.9892 H   0  0  0  0  0  0  0  0  0  0  0  0
   -1.0857   15.0489   -0.0208 H   0  0  0  0  0  0  0  0  0  0  0  0
    0.1738   13.7682   -0.0208 H   0  0  0  0  0  0  0  0  0  0  0  0
    1.4762   15.2114   -3.0724 H   0  0  0  0  0  0  0  0  0  0  0  0
   -0.9417   14.3520   -2.8194 H   0  0  0  0  0  0  0  0  0  0  0  0
    0.2725   13.4782   -3.8923 H   0  0  0  0  0  0  0  0  0  0  0  0
   -1.2827   11.9529   -2.4113 H   0  0  0  0  0  0  0  0  0  0  0  0
    1.8536   12.7700   -0.0030 H   0  0  0  0  0  0  0  0  0  0  0  0
    2.9916   10.8315   -2.1106 H   0  0  0  0  0  0  0  0  0  0  0  0
    3.8945   11.5960   -0.7283 H   0  0  0  0  0  0  0  0  0  0  0  0
    3.3000    9.2381   -0.2682 H   0  0  0  0  0  0  0  0  0  0  0  0
    2.5167   10.3995    0.8737 H   0  0  0  0  0  0  0  0  0  0  0  0
    0.9045    8.7395    0.2358 H   0  0  0  0  0  0  0  0  0  0  0  0
    1.9310    8.1860   -1.7900 H   0  0  0  0  0  0  0  0  0  0  0  0
    0.2408   10.2840    1.6345 H   0  0  0  0  0  0  0  0  0  0  0  0
    0.1765   12.0010    1.1106 H   0  0  0  0  0  0  0  0  0  0  0  0
   -1.3186   11.0054    1.1106 H   0  0  0  0  0  0  0  0  0  0  0  0
   -1.8677    9.5866   -0.1879 H   0  0  0  0  0  0  0  0  0  0  0  0
   -1.8056   10.6245   -1.6527 H   0  0  0  0  0  0  0  0  0  0  0  0
   -0.9949    9.0215   -1.6527 H   0  0  0  0  0  0  0  0  0  0  0  0
    3.8575   12.5041   -3.0071 H   0  0  0  0  0  0  0  0  0  0  0  0
    2.2483   12.5741   -3.8022 H   0  0  0  0  0  0  0  0  0  0  0  0
    3.3138   14.0203   -3.8022 H   0  0  0  0  0  0  0  0  0  0  0  0
    4.0651   13.6556   -0.5451 H   0  0  0  0  0  0  0  0  0  0  0  0
    4.0296   14.9458   -1.8745 H   0  0  0  0  0  0  0  0  0  0  0  0
    2.5494   14.9745    0.7700 H   0  0  0  0  0  0  0  0  0  0  0  0
    3.8790   16.0631    0.2083 H   0  0  0  0  0  0  0  0  0  0  0  0
    3.3869   17.8968   -1.5225 H   0  0  0  0  0  0  0  0  0  0  0  0
    3.2308   16.4252   -2.5406 H   0  0  0  0  0  0  0  0  0  0  0  0
    1.9261   17.6599   -2.5406 H   0  0  0  0  0  0  0  0  0  0  0  0
  1  2  1  0
  2  3  1  0
  3  4  1  0
  4  5  1  0
  5  6  1  0
  6  7  1  0
  7  8  1  0
  7  9  1  0
  2 10  1  0
 10 11  1  0
 11 12  1  0
 12 13  1  0
 13 14  1  1
 13 15  1  0
 15 16  1  0
 16 17  1  0
 17 18  2  0
 18 19  1  0
 19 20  1  0
 20 21  1  0
 21 22  1  0
 22 23  1  0
 22 24  1  0
 24 25  1  0
 24 26  1  0
 19 27  1  0
 27 28  1  6
 27 29  1  0
 29 30  1  0
 30 31  1  0
 31 32  1  6
  7  5  1  0
 31 10  1  0
 31 13  1  0
 27 15  1  0
 24 18  1  0
  1 33  1  0
  1 34  1  0
  1 35  1  0
  2 36  1  1
  3 37  1  0
  3 38  1  0
  4 39  1  0
  4 40  1  0
  5 41  1  6
  8 42  1  0
  8 43  1  0
  8 44  1  0
  9 45  1  0
  9 46  1  0
  9 47  1  0
 10 48  1  1
 11 49  1  0
 11 50  1  0
 12 51  1  0
 12 52  1  0
 14 53  1  0
 14 54  1  0
 14 55  1  0
 15 56  1  6
 16 57  1  0
 16 58  1  0
 17 59  1  0
 19 60  1  1
 20 61  1  0
 20 62  1  0
 21 63  1  0
 21 64  1  0
 22 65  1  1
 23 66  1  0
 25 67  1  0
 25 68  1  0
 25 69  1  0
 26 70  1  0
 26 71  1  0
 26 72  1  0
 28 73  1  0
 28 74  1  0
 28 75  1  0
 29 76  1  0
 29 77  1  0
 30 78  1  0
 30 79  1  0
 32 80  1  0
 32 81  1  0
 32 82  1  0
M  END
>  <meeko>  (3) 
{"is_sidechain": [false], "intermolecular_energy": 2.731, "internal_energy": -0.839}

$$$$
EPH_relaxed_0001_pdb2pqr_Repair_355_r2_0001_out
     RDKit          3D

 82 86  0  0  0  0  0  0  0  0999 V2000
    2.3010   17.9500   -2.5700 C   0  0  0  0  0  0  0  0  0  0  0  0
    0.9880   17.5160   -1.9130 C   0  0  2  0  0  0  0  0  0  0  0  0
    1.0710   17.5460   -0.3740 C   0  0  0  0  0  0  0  0  0  0  0  0
    0.7880   18.9240    0.2300 C   0  0  0  0  0  0  0  0  0  0  0  0
   -0.6530   19.0780    0.6100 C   0  0  2  0  0  0  0  0  0  0  0  0
   -1.5530   18.2090   -0.0890 O   0  0  0  0  0  0  0  0  0  0  0  0
   -1.7140   19.6160   -0.3320 C   0  0  0  0  0  0  0  0  0  0  0  0
   -1.3770   20.0350   -1.7290 C   0  0  0  0  0  0  0  0  0  0  0  0
   -2.9670   20.1890    0.2530 C   0  0  0  0  0  0  0  0  0  0  0  0
    0.6080   16.1180   -2.3870 C   0  0  1  0  0  0  0  0  0  0  0  0
    0.8160   15.9270   -3.9130 C   0  0  0  0  0  0  0  0  0  0  0  0
    1.2700   14.4590   -4.1230 C   0  0  0  0  0  0  0  0  0  0  0  0
    0.9910   13.7670   -2.7680 C   0  0  1  0  0  0  0  0  0  0  0  0
   -0.5330   13.4320   -2.7950 C   0  0  0  0  0  0  0  0  0  0  0  0
    1.8540   12.5040   -2.4470 C   0  0  2  0  0  0  0  0  0  0  0  0
    1.6700   11.3240   -3.4160 C   0  0  0  0  0  0  0  0  0  0  0  0
    0.6060   10.3470   -3.0370 C   0  0  0  0  0  0  0  0  0  0  0  0
    0.0250   10.2540   -1.8260 C   0  0  0  0  0  0  0  0  0  0  0  0
    0.4990   11.1260   -0.6560 C   0  0  1  0  0  0  0  0  0  0  0  0
    0.6620   10.2470    0.6110 C   0  0  0  0  0  0  0  0  0  0  0  0
   -0.6030    9.4610    0.9440 C   0  0  0  0  0  0  0  0  0  0  0  0
   -1.0100    8.5630   -0.2210 C   0  0  2  0  0  0  0  0  0  0  0  0
   -0.0170    7.5460   -0.3880 O   0  0  0  0  0  0  0  0  0  0  0  0
   -1.1930    9.3370   -1.5560 C   0  0  0  0  0  0  0  0  0  0  0  0
   -2.4600   10.2240   -1.4740 C   0  0  0  0  0  0  0  0  0  0  0  0
   -1.4630    8.2980   -2.6780 C   0  0  0  0  0  0  0  0  0  0  0  0
    1.7740   12.0310   -0.9380 C   0  0  1  0  0  0  0  0  0  0  0  0
    3.0760   11.2200   -0.6570 C   0  0  0  0  0  0  0  0  0  0  0  0
    1.7790   13.2410    0.0690 C   0  0  0  0  0  0  0  0  0  0  0  0
    1.0070   14.5040   -0.3580 C   0  0  0  0  0  0  0  0  0  0  0  0
    1.3890   14.9250   -1.7810 C   0  0  2  0  0  0  0  0  0  0  0  0
    2.9130   15.2900   -1.7800 C   0  0  0  0  0  0  0  0  0  0  0  0
    3.0380   18.1936   -1.7906 H   0  0  0  0  0  0  0  0  0  0  0  0
    2.6861   17.1313   -3.1957 H   0  0  0  0  0  0  0  0  0  0  0  0
    2.1223   18.8369   -3.1957 H   0  0  0  0  0  0  0  0  0  0  0  0
    0.2126   18.2352   -2.2154 H   0  0  0  0  0  0  0  0  0  0  0  0
    0.3359   16.8330    0.0275 H   0  0  0  0  0  0  0  0  0  0  0  0
    2.1035   17.2814   -0.1022 H   0  0  0  0  0  0  0  0  0  0  0  0
    1.4093   19.0537    1.1285 H   0  0  0  0  0  0  0  0  0  0  0  0
    1.0258   19.6854   -0.5274 H   0  0  0  0  0  0  0  0  0  0  0  0
   -0.3766   19.3462    1.6404 H   0  0  0  0  0  0  0  0  0  0  0  0
   -0.6879   20.8918   -1.6987 H   0  0  0  0  0  0  0  0  0  0  0  0
   -0.8979   19.1976   -2.2575 H   0  0  0  0  0  0  0  0  0  0  0  0
   -2.2976   20.3234   -2.2575 H   0  0  0  0  0  0  0  0  0  0  0  0
   -2.9053   20.1608    1.3509 H   0  0  0  0  0  0  0  0  0  0  0  0
   -3.0847   21.2304   -0.0810 H   0  0  0  0  0  0  0  0  0  0  0  0
   -3.8318   19.5969   -0.0810 H   0  0  0  0  0  0  0  0  0  0  0  0
   -0.4403   16.0896   -2.0548 H   0  0  0  0  0  0  0  0  0  0  0  0
   -0.1261   16.1125   -4.4498 H   0  0  0  0  0  0  0  0  0  0  0  0
    1.5667   16.6316   -4.3003 H   0  0  0  0  0  0  0  0  0  0  0  0
    0.6899   13.9845   -4.9282 H   0  0  0  0  0  0  0  0  0  0  0  0
    2.3272   14.3874   -4.4183 H   0  0  0  0  0  0  0  0  0  0  0  0
   -0.9086   13.3494   -1.7644 H   0  0  0  0  0  0  0  0  0  0  0  0
   -1.0751   14.2324   -3.3198 H   0  0  0  0  0  0  0  0  0  0  0  0
   -0.6895   12.4780   -3.3198 H   0  0  0  0  0  0  0  0  0  0  0  0
    2.8780   12.8696   -2.6137 H   0  0  0  0  0  0  0  0  0  0  0  0
    1.4189   11.7330   -4.4058 H   0  0  0  0  0  0  0  0  0  0  0  0
    2.6170   10.7647   -3.3976 H   0  0  0  0  0  0  0  0  0  0  0  0
    0.2685    9.6440   -3.8128 H   0  0  0  0  0  0  0  0  0  0  0  0
   -0.2918   11.8731   -0.4935 H   0  0  0  0  0  0  0  0  0  0  0  0
    1.4850    9.5365    0.4439 H   0  0  0  0  0  0  0  0  0  0  0  0
    0.8717   10.9171    1.4578 H   0  0  0  0  0  0  0  0  0  0  0  0
   -0.4164    8.8376    1.8309 H   0  0  0  0  0  0  0  0  0  0  0  0
   -1.4179   10.1737    1.1392 H   0  0  0  0  0  0  0  0  0  0  0  0
   -1.9890    8.1264    0.0258 H   0  0  0  0  0  0  0  0  0  0  0  0
    0.2590    7.2560    0.4980 H   0  0  0  0  0  0  0  0  0  0  0  0
   -2.7150   10.4025   -0.4190 H   0  0  0  0  0  0  0  0  0  0  0  0
   -2.2674   11.1855   -1.9724 H   0  0  0  0  0  0  0  0  0  0  0  0
   -3.2975    9.7140   -1.9724 H   0  0  0  0  0  0  0  0  0  0  0  0
   -1.7152    7.3274   -2.2260 H   0  0  0  0  0  0  0  0  0  0  0  0
   -2.3018    8.6412   -3.3014 H   0  0  0  0  0  0  0  0  0  0  0  0
   -0.5632    8.1894   -3.3014 H   0  0  0  0  0  0  0  0  0  0  0  0
    3.2235   11.1281    0.4292 H   0  0  0  0  0  0  0  0  0  0  0  0
    2.9866   10.2176   -1.1010 H   0  0  0  0  0  0  0  0  0  0  0  0
    3.9363   11.7423   -1.1010 H   0  0  0  0  0  0  0  0  0  0  0  0
    1.3425   12.8883    1.0151 H   0  0  0  0  0  0  0  0  0  0  0  0
    2.8310   13.5556    0.1353 H   0  0  0  0  0  0  0  0  0  0  0  0
   -0.0724   14.2954   -0.3219 H   0  0  0  0  0  0  0  0  0  0  0  0
    1.2641   15.3221    0.3309 H   0  0  0  0  0  0  0  0  0  0  0  0
    3.2689   15.3752   -0.7427 H   0  0  0  0  0  0  0  0  0  0  0  0
    3.4791   14.5020   -2.2983 H   0  0  0  0  0  0  0  0  0  0  0  0
    3.0607   16.2489   -2.2983 H   0  0  0  0  0  0  0  0  0  0  0  0
  1  2  1  0
  2  3  1  0
  3  4  1  0
  4  5  1  0
  5  6  1  0
  6  7  1  0
  7  8  1  0
  7  9  1  0
  2 10  1  0
 10 11  1  0
 11 12  1  0
 12 13  1  0
 13 14  1  6
 13 15  1  0
 15 16  1  0
 16 17  1  0
 17 18  2  0
 18 19  1  0
 19 20  1  0
 20 21  1  0
 21 22  1  0
 22 23  1  0
 22 24  1  0
 24 25  1  0
 24 26  1  0
 19 27  1  0
 27 28  1  1
 27 29  1  0
 29 30  1  0
 30 31  1  0
 31 32  1  1
  7  5  1  0
 31 10  1  0
 31 13  1  0
 27 15  1  0
 24 18  1  0
  1 33  1  0
  1 34  1  0
  1 35  1  0
  2 36  1  6
  3 37  1  0
  3 38  1  0
  4 39  1  0
  4 40  1  0
  5 41  1  1
  8 42  1  0
  8 43  1  0
  8 44  1  0
  9 45  1  0
  9 46  1  0
  9 47  1  0
 10 48  1  6
 11 49  1  0
 11 50  1  0
 12 51  1  0
 12 52  1  0
 14 53  1  0
 14 54  1  0
 14 55  1  0
 15 56  1  1
 16 57  1  0
 16 58  1  0
 17 59  1  0
 19 60  1  1
 20 61  1  0
 20 62  1  0
 21 63  1  0
 21 64  1  0
 22 65  1  1
 23 66  1  0
 25 67  1  0
 25 68  1  0
 25 69  1  0
 26 70  1  0
 26 71  1  0
 26 72  1  0
 28 73  1  0
 28 74  1  0
 28 75  1  0
 29 76  1  0
 29 77  1  0
 30 78  1  0
 30 79  1  0
 32 80  1  0
 32 81  1  0
 32 82  1  0
M  END
>  <meeko>  (4) 
{"is_sidechain": [false], "intermolecular_energy": 2.731, "internal_energy": -0.839}

$$$$
EPH_relaxed_0001_pdb2pqr_Repair_355_r2_0001_out
     RDKit          3D

 82 86  0  0  0  0  0  0  0  0999 V2000
   -0.4430   10.3530   -3.0690 C   0  0  0  0  0  0  0  0  0  0  0  0
    0.4220   10.0790   -1.8360 C   0  0  2  0  0  0  0  0  0  0  0  0
   -0.2030    9.0140   -0.9130 C   0  0  0  0  0  0  0  0  0  0  0  0
   -1.6230    8.6070   -1.3170 C   0  0  0  0  0  0  0  0  0  0  0  0
   -2.6540    9.4860   -0.6770 C   0  0  2  0  0  0  0  0  0  0  0  0
   -3.0610    9.0750    0.6350 O   0  0  0  0  0  0  0  0  0  0  0  0
   -4.0730    9.0340   -0.3840 C   0  0  0  0  0  0  0  0  0  0  0  0
   -4.5380    7.6530   -0.7250 C   0  0  0  0  0  0  0  0  0  0  0  0
   -5.1360   10.0750   -0.2200 C   0  0  0  0  0  0  0  0  0  0  0  0
    0.6480   11.3720   -1.0620 C   0  0  1  0  0  0  0  0  0  0  0  0
    1.7480   11.2340    0.0250 C   0  0  0  0  0  0  0  0  0  0  0  0
    2.4850   12.5960    0.0900 C   0  0  0  0  0  0  0  0  0  0  0  0
    1.5850   13.5660   -0.7100 C   0  0  1  0  0  0  0  0  0  0  0  0
    0.4600   13.9850    0.2880 C   0  0  0  0  0  0  0  0  0  0  0  0
    2.2940   14.8110   -1.3350 C   0  0  2  0  0  0  0  0  0  0  0  0
    2.9290   15.7780   -0.3210 C   0  0  0  0  0  0  0  0  0  0  0  0
    2.0390   16.8770    0.1570 C   0  0  0  0  0  0  0  0  0  0  0  0
    0.8810   17.2520   -0.4190 C   0  0  0  0  0  0  0  0  0  0  0  0
    0.4090   16.6090   -1.7300 C   0  0  1  0  0  0  0  0  0  0  0  0
   -0.0600   17.7160   -2.7100 C   0  0  0  0  0  0  0  0  0  0  0  0
   -1.1140   18.6320   -2.0960 C   0  0  0  0  0  0  0  0  0  0  0  0
   -0.5880   19.2970   -0.8270 C   0  0  2  0  0  0  0  0  0  0  0  0
    0.4700   20.1940   -1.1820 O   0  0  0  0  0  0  0  0  0  0  0  0
   -0.0770   18.2800    0.2310 C   0  0  0  0  0  0  0  0  0  0  0  0
   -1.2780   17.5110    0.8350 C   0  0  0  0  0  0  0  0  0  0  0  0
    0.5560   19.0830    1.3990 C   0  0  0  0  0  0  0  0  0  0  0  0
    1.4220   15.5860   -2.4040 C   0  0  1  0  0  0  0  0  0  0  0  0
    2.4210   16.3540   -3.3230 C   0  0  0  0  0  0  0  0  0  0  0  0
    0.6180   14.6090   -3.3410 C   0  0  0  0  0  0  0  0  0  0  0  0
    0.0430   13.3370   -2.6900 C   0  0  0  0  0  0  0  0  0  0  0  0
    1.1120   12.6120   -1.8670 C   0  0  2  0  0  0  0  0  0  0  0  0
    2.2460   12.1590   -2.8480 C   0  0  0  0  0  0  0  0  0  0  0  0
   -1.4465   10.6709   -2.7496 H   0  0  0  0  0  0  0  0  0  0  0  0
    0.0192   11.1487   -3.6717 H   0  0  0  0  0  0  0  0  0  0  0  0
   -0.5232    9.4363   -3.6717 H   0  0  0  0  0  0  0  0  0  0  0  0
    1.3860    9.6842   -2.1892 H   0  0  0  0  0  0  0  0  0  0  0  0
    0.4347    8.1180   -0.9348 H   0  0  0  0  0  0  0  0  0  0  0  0
   -0.2689    9.4575    0.0915 H   0  0  0  0  0  0  0  0  0  0  0  0
   -1.7184    8.6832   -2.4102 H   0  0  0  0  0  0  0  0  0  0  0  0
   -1.7938    7.5747   -0.9777 H   0  0  0  0  0  0  0  0  0  0  0  0
   -2.2528   10.3714   -1.1918 H   0  0  0  0  0  0  0  0  0  0  0  0
   -4.7273    7.0907    0.2013 H   0  0  0  0  0  0  0  0  0  0  0  0
   -5.4654    7.7132   -1.3135 H   0  0  0  0  0  0  0  0  0  0  0  0
   -3.7630    7.1400   -1.3135 H   0  0  0  0  0  0  0  0  0  0  0  0
   -5.3152   10.2505    0.8510 H   0  0  0  0  0  0  0  0  0  0  0  0
   -4.8086   11.0114   -0.6953 H   0  0  0  0  0  0  0  0  0  0  0  0
   -6.0654    9.7281   -0.6953 H   0  0  0  0  0  0  0  0  0  0  0  0
   -0.3687   11.5342   -0.6748 H   0  0  0  0  0  0  0  0  0  0  0  0
    1.2915   11.0034    0.9989 H   0  0  0  0  0  0  0  0  0  0  0  0
    2.4450   10.4188   -0.2193 H   0  0  0  0  0  0  0  0  0  0  0  0
    2.5880   12.9323    1.1323 H   0  0  0  0  0  0  0  0  0  0  0  0
    3.5040   12.5386   -0.3203 H   0  0  0  0  0  0  0  0  0  0  0  0
    0.8171   13.8520    1.3199 H   0  0  0  0  0  0  0  0  0  0  0  0
    0.1986   15.0408    0.1236 H   0  0  0  0  0  0  0  0  0  0  0  0
   -0.4283   13.3574    0.1236 H   0  0  0  0  0  0  0  0  0  0  0  0
    3.1339   14.3542   -1.8790 H   0  0  0  0  0  0  0  0  0  0  0  0
    3.2458   15.1923    0.5546 H   0  0  0  0  0  0  0  0  0  0  0  0
    3.7608   16.2681   -0.8482 H   0  0  0  0  0  0  0  0  0  0  0  0
    2.3558   17.4269    1.0555 H   0  0  0  0  0  0  0  0  0  0  0  0
   -0.4401   15.9625   -1.4637 H   0  0  0  0  0  0  0  0  0  0  0  0
    0.8104   18.3236   -2.9985 H   0  0  0  0  0  0  0  0  0  0  0  0
   -0.5142   17.2207   -3.5808 H   0  0  0  0  0  0  0  0  0  0  0  0
   -1.3829   19.4105   -2.8252 H   0  0  0  0  0  0  0  0  0  0  0  0
   -1.9952   18.0273   -1.8355 H   0  0  0  0  0  0  0  0  0  0  0  0
   -1.4280   19.8356   -0.3640 H   0  0  0  0  0  0  0  0  0  0  0  0
    0.2610   21.0610   -0.7950 H   0  0  0  0  0  0  0  0  0  0  0  0
   -1.2217   17.5470    1.9330 H   0  0  0  0  0  0  0  0  0  0  0  0
   -2.2170   17.9763    0.5005 H   0  0  0  0  0  0  0  0  0  0  0  0
   -1.2483   16.4635    0.5005 H   0  0  0  0  0  0  0  0  0  0  0  0
    0.2224   18.6599    2.3580 H   0  0  0  0  0  0  0  0  0  0  0  0
    1.6524   19.0231    1.3333 H   0  0  0  0  0  0  0  0  0  0  0  0
    0.2417   20.1351    1.3333 H   0  0  0  0  0  0  0  0  0  0  0  0
    3.1403   16.9070   -2.7011 H   0  0  0  0  0  0  0  0  0  0  0  0
    2.9610   15.6363   -3.9580 H   0  0  0  0  0  0  0  0  0  0  0  0
    1.8662   17.0604   -3.9580 H   0  0  0  0  0  0  0  0  0  0  0  0
   -0.2240   15.1744   -3.7669 H   0  0  0  0  0  0  0  0  0  0  0  0
    1.3514   14.2486   -4.0773 H   0  0  0  0  0  0  0  0  0  0  0  0
   -0.7915   13.6162   -2.0300 H   0  0  0  0  0  0  0  0  0  0  0  0
   -0.3051   12.6620   -3.4858 H   0  0  0  0  0  0  0  0  0  0  0  0
    3.1146   11.8120   -2.2691 H   0  0  0  0  0  0  0  0  0  0  0  0
    1.8767   11.3394   -3.4819 H   0  0  0  0  0  0  0  0  0  0  0  0
    2.5431   13.0075   -3.4819 H   0  0  0  0  0  0  0  0  0  0  0  0
  1  2  1  0
  2  3  1  0
  3  4  1  0
  4  5  1  0
  5  6  1  0
  6  7  1  0
  7  8  1  0
  7  9  1  0
  2 10  1  0
 10 11  1  0
 11 12  1  0
 12 13  1  0
 13 14  1  1
 13 15  1  0
 15 16  1  0
 16 17  1  0
 17 18  2  0
 18 19  1  0
 19 20  1  0
 20 21  1  0
 21 22  1  0
 22 23  1  0
 22 24  1  0
 24 25  1  0
 24 26  1  0
 19 27  1  0
 27 28  1  6
 27 29  1  0
 29 30  1  0
 30 31  1  0
 31 32  1  6
  7  5  1  0
 31 10  1  0
 31 13  1  0
 27 15  1  0
 24 18  1  0
  1 33  1  0
  1 34  1  0
  1 35  1  0
  2 36  1  6
  3 37  1  0
  3 38  1  0
  4 39  1  0
  4 40  1  0
  5 41  1  1
  8 42  1  0
  8 43  1  0
  8 44  1  0
  9 45  1  0
  9 46  1  0
  9 47  1  0
 10 48  1  1
 11 49  1  0
 11 50  1  0
 12 51  1  0
 12 52  1  0
 14 53  1  0
 14 54  1  0
 14 55  1  0
 15 56  1  6
 16 57  1  0
 16 58  1  0
 17 59  1  0
 19 60  1  1
 20 61  1  0
 20 62  1  0
 21 63  1  0
 21 64  1  0
 22 65  1  1
 23 66  1  0
 25 67  1  0
 25 68  1  0
 25 69  1  0
 26 70  1  0
 26 71  1  0
 26 72  1  0
 28 73  1  0
 28 74  1  0
 28 75  1  0
 29 76  1  0
 29 77  1  0
 30 78  1  0
 30 79  1  0
 32 80  1  0
 32 81  1  0
 32 82  1  0
M  END
>  <meeko>  (5) 
{"is_sidechain": [false], "intermolecular_energy": 2.731, "internal_energy": -0.839}

$$$$
EPH_relaxed_0001_pdb2pqr_Repair_355_r2_0001_out
     RDKit          3D

 82 86  0  0  0  0  0  0  0  0999 V2000
    1.9790   19.5370   -1.8610 C   0  0  0  0  0  0  0  0  0  0  0  0
    1.5890   19.3320   -0.3940 C   0  0  2  0  0  0  0  0  0  0  0  0
    2.7060   19.7740    0.5720 C   0  0  0  0  0  0  0  0  0  0  0  0
    3.5090   18.6100    1.1580 C   0  0  0  0  0  0  0  0  0  0  0  0
    3.8310   18.8330    2.6050 C   0  0  2  0  0  0  0  0  0  0  0  0
    4.3120   20.1470    2.9160 O   0  0  0  0  0  0  0  0  0  0  0  0
    5.2380   19.0680    3.1230 C   0  0  0  0  0  0  0  0  0  0  0  0
    6.4150   19.0920    2.1990 C   0  0  0  0  0  0  0  0  0  0  0  0
    5.5260   18.7880    4.5650 C   0  0  0  0  0  0  0  0  0  0  0  0
    1.2380   17.8690   -0.1500 C   0  0  1  0  0  0  0  0  0  0  0  0
   -0.0840   17.6960    0.6450 C   0  0  0  0  0  0  0  0  0  0  0  0
   -0.7700   16.4170    0.0990 C   0  0  0  0  0  0  0  0  0  0  0  0
    0.3220   15.7190   -0.7450 C   0  0  1  0  0  0  0  0  0  0  0  0
    1.2040   14.9550    0.2910 C   0  0  0  0  0  0  0  0  0  0  0  0
   -0.1840   14.7720   -1.8820 C   0  0  2  0  0  0  0  0  0  0  0  0
   -0.9990   13.5570   -1.4040 C   0  0  0  0  0  0  0  0  0  0  0  0
   -0.2020   12.3270   -1.1180 C   0  0  0  0  0  0  0  0  0  0  0  0
    1.0680   12.1100   -1.5070 C   0  0  0  0  0  0  0  0  0  0  0  0
    1.8020   13.1200   -2.3980 C   0  0  1  0  0  0  0  0  0  0  0  0
    2.5200   12.3680   -3.5500 C   0  0  0  0  0  0  0  0  0  0  0  0
    3.4380   11.2600   -3.0430 C   0  0  0  0  0  0  0  0  0  0  0  0
    2.6610   10.2450   -2.2100 C   0  0  2  0  0  0  0  0  0  0  0  0
    1.7430    9.5550   -3.0630 O   0  0  0  0  0  0  0  0  0  0  0  0
    1.8890   10.8890   -1.0240 C   0  0  0  0  0  0  0  0  0  0  0  0
    2.8940   11.3720    0.0500 C   0  0  0  0  0  0  0  0  0  0  0  0
    1.0350    9.7790   -0.3520 C   0  0  0  0  0  0  0  0  0  0  0  0
    0.9350   14.3460   -2.9170 C   0  0  1  0  0  0  0  0  0  0  0  0
    0.1970   13.9570   -4.2340 C   0  0  0  0  0  0  0  0  0  0  0  0
    1.8970   15.5380   -3.2820 C   0  0  0  0  0  0  0  0  0  0  0  0
    2.2640   16.5080   -2.1430 C   0  0  0  0  0  0  0  0  0  0  0  0
    1.0120   16.9740   -1.3940 C   0  0  2  0  0  0  0  0  0  0  0  0
    0.1150   17.7650   -2.4070 C   0  0  0  0  0  0  0  0  0  0  0  0
    2.9516   20.0482   -1.9139 H   0  0  0  0  0  0  0  0  0  0  0  0
    2.0506   18.5600   -2.3613 H   0  0  0  0  0  0  0  0  0  0  0  0
    1.2149   20.1500   -2.3613 H   0  0  0  0  0  0  0  0  0  0  0  0
    0.7113   19.9640   -0.1936 H   0  0  0  0  0  0  0  0  0  0  0  0
    3.3973   20.4325    0.0256 H   0  0  0  0  0  0  0  0  0  0  0  0
    2.2182   20.2848    1.4153 H   0  0  0  0  0  0  0  0  0  0  0  0
    2.9198   17.6861    1.0620 H   0  0  0  0  0  0  0  0  0  0  0  0
    4.4558   18.5324    0.6035 H   0  0  0  0  0  0  0  0  0  0  0  0
    3.0385   18.1351    2.9128 H   0  0  0  0  0  0  0  0  0  0  0  0
    7.3436   19.1109    2.7884 H   0  0  0  0  0  0  0  0  0  0  0  0
    6.4016   18.1934    1.5647 H   0  0  0  0  0  0  0  0  0  0  0  0
    6.3650   19.9893    1.5647 H   0  0  0  0  0  0  0  0  0  0  0  0
    4.8802   19.4158    5.1965 H   0  0  0  0  0  0  0  0  0  0  0  0
    5.3286   17.7272    4.7791 H   0  0  0  0  0  0  0  0  0  0  0  0
    6.5808   19.0152    4.7791 H   0  0  0  0  0  0  0  0  0  0  0  0
    2.1453   17.5489    0.3833 H   0  0  0  0  0  0  0  0  0  0  0  0
    0.1312   17.5820    1.7177 H   0  0  0  0  0  0  0  0  0  0  0  0
   -0.7346   18.5749    0.5257 H   0  0  0  0  0  0  0  0  0  0  0  0
   -1.0961   15.7683    0.9253 H   0  0  0  0  0  0  0  0  0  0  0  0
   -1.6703   16.6455   -0.4902 H   0  0  0  0  0  0  0  0  0  0  0  0
    0.8908   15.2263    1.3100 H   0  0  0  0  0  0  0  0  0  0  0  0
    1.0834   13.8712    0.1467 H   0  0  0  0  0  0  0  0  0  0  0  0
    2.2595   15.2289    0.1467 H   0  0  0  0  0  0  0  0  0  0  0  0
   -0.8935   15.4135   -2.4253 H   0  0  0  0  0  0  0  0  0  0  0  0
   -1.5259   13.8427   -0.4816 H   0  0  0  0  0  0  0  0  0  0  0  0
   -1.6728   13.2970   -2.2337 H   0  0  0  0  0  0  0  0  0  0  0  0
   -0.6946   11.5309   -0.5405 H   0  0  0  0  0  0  0  0  0  0  0  0
    2.5448   13.6113   -1.7523 H   0  0  0  0  0  0  0  0  0  0  0  0
    1.7595   11.9223   -4.2080 H   0  0  0  0  0  0  0  0  0  0  0  0
    3.1431   13.0978   -4.0876 H   0  0  0  0  0  0  0  0  0  0  0  0
    3.8920   10.7470   -3.9036 H   0  0  0  0  0  0  0  0  0  0  0  0
    4.2157   11.7115   -2.4095 H   0  0  0  0  0  0  0  0  0  0  0  0
    3.3919    9.5511   -1.7691 H   0  0  0  0  0  0  0  0  0  0  0  0
    0.8690    9.5830   -2.6390 H   0  0  0  0  0  0  0  0  0  0  0  0
    2.4836   11.1747    1.0513 H   0  0  0  0  0  0  0  0  0  0  0  0
    3.8453   10.8327   -0.0691 H   0  0  0  0  0  0  0  0  0  0  0  0
    3.0672   12.4517   -0.0691 H   0  0  0  0  0  0  0  0  0  0  0  0
    1.1070    9.8726    0.7416 H   0  0  0  0  0  0  0  0  0  0  0  0
   -0.0152    9.8869   -0.6609 H   0  0  0  0  0  0  0  0  0  0  0  0
    1.4085    8.7915   -0.6609 H   0  0  0  0  0  0  0  0  0  0  0  0
   -0.7516   13.4570   -3.9888 H   0  0  0  0  0  0  0  0  0  0  0  0
   -0.0079   14.8643   -4.8212 H   0  0  0  0  0  0  0  0  0  0  0  0
    0.8297   13.2752   -4.8212 H   0  0  0  0  0  0  0  0  0  0  0  0
    2.8329   15.1050   -3.6649 H   0  0  0  0  0  0  0  0  0  0  0  0
    1.3389   16.1460   -4.0093 H   0  0  0  0  0  0  0  0  0  0  0  0
    2.9357   15.9968   -1.4377 H   0  0  0  0  0  0  0  0  0  0  0  0
    2.7598   17.3881   -2.5784 H   0  0  0  0  0  0  0  0  0  0  0  0
   -0.5976   18.3934   -1.8526 H   0  0  0  0  0  0  0  0  0  0  0  0
    0.7506   18.4020   -3.0397 H   0  0  0  0  0  0  0  0  0  0  0  0
   -0.4375   17.0547   -3.0397 H   0  0  0  0  0  0  0  0  0  0  0  0
  1  2  1  0
  2  3  1  0
  3  4  1  0
  4  5  1  0
  5  6  1  0
  6  7  1  0
  7  8  1  0
  7  9  1  0
  2 10  1  0
 10 11  1  0
 11 12  1  0
 12 13  1  0
 13 14  1  1
 13 15  1  0
 15 16  1  0
 16 17  1  0
 17 18  2  0
 18 19  1  0
 19 20  1  0
 20 21  1  0
 21 22  1  0
 22 23  1  0
 22 24  1  0
 24 25  1  0
 24 26  1  0
 19 27  1  0
 27 28  1  6
 27 29  1  0
 29 30  1  0
 30 31  1  0
 31 32  1  6
  7  5  1  0
 31 10  1  0
 31 13  1  0
 27 15  1  0
 24 18  1  0
  1 33  1  0
  1 34  1  0
  1 35  1  0
  2 36  1  1
  3 37  1  0
  3 38  1  0
  4 39  1  0
  4 40  1  0
  5 41  1  1
  8 42  1  0
  8 43  1  0
  8 44  1  0
  9 45  1  0
  9 46  1  0
  9 47  1  0
 10 48  1  1
 11 49  1  0
 11 50  1  0
 12 51  1  0
 12 52  1  0
 14 53  1  0
 14 54  1  0
 14 55  1  0
 15 56  1  6
 16 57  1  0
 16 58  1  0
 17 59  1  0
 19 60  1  1
 20 61  1  0
 20 62  1  0
 21 63  1  0
 21 64  1  0
 22 65  1  1
 23 66  1  0
 25 67  1  0
 25 68  1  0
 25 69  1  0
 26 70  1  0
 26 71  1  0
 26 72  1  0
 28 73  1  0
 28 74  1  0
 28 75  1  0
 29 76  1  0
 29 77  1  0
 30 78  1  0
 30 79  1  0
 32 80  1  0
 32 81  1  0
 32 82  1  0
M  END
>  <meeko>  (6) 
{"is_sidechain": [false], "intermolecular_energy": 2.731, "internal_energy": -0.839}

$$$$
EPH_relaxed_0001_pdb2pqr_Repair_355_r2_0001_out
     RDKit          3D

 82 86  0  0  0  0  0  0  0  0999 V2000
    0.3610    9.3090   -2.8700 C   0  0  0  0  0  0  0  0  0  0  0  0
    1.2750   10.3600   -3.5060 C   0  0  2  0  0  0  0  0  0  0  0  0
    2.7440   10.1940   -3.0680 C   0  0  0  0  0  0  0  0  0  0  0  0
    3.7510   10.7960   -4.0520 C   0  0  0  0  0  0  0  0  0  0  0  0
    5.1210   10.8950   -3.4510 C   0  0  2  0  0  0  0  0  0  0  0  0
    5.8400   12.0880   -3.7930 O   0  0  0  0  0  0  0  0  0  0  0  0
    6.3980   10.8530   -4.2690 C   0  0  0  0  0  0  0  0  0  0  0  0
    6.3670   10.7050   -5.7580 C   0  0  0  0  0  0  0  0  0  0  0  0
    7.6730   10.4650   -3.5870 C   0  0  0  0  0  0  0  0  0  0  0  0
    0.7820   11.7590   -3.1530 C   0  0  1  0  0  0  0  0  0  0  0  0
   -0.7450   11.8020   -2.8800 C   0  0  0  0  0  0  0  0  0  0  0  0
   -0.9700   12.8570   -1.7660 C   0  0  0  0  0  0  0  0  0  0  0  0
    0.3750   13.6160   -1.6700 C   0  0  1  0  0  0  0  0  0  0  0  0
    0.3330   14.6530   -2.8350 C   0  0  0  0  0  0  0  0  0  0  0  0
    0.6860   14.2990   -0.2990 C   0  0  2  0  0  0  0  0  0  0  0  0
   -0.2990   15.4050    0.1180 C   0  0  0  0  0  0  0  0  0  0  0  0
    0.0610   16.7830   -0.3320 C   0  0  0  0  0  0  0  0  0  0  0  0
    1.2670   17.1650   -0.7920 C   0  0  0  0  0  0  0  0  0  0  0  0
    2.4510   16.1890   -0.8050 C   0  0  1  0  0  0  0  0  0  0  0  0
    3.7080   16.8940   -0.2320 C   0  0  0  0  0  0  0  0  0  0  0  0
    4.0230   18.2020   -0.9510 C   0  0  0  0  0  0  0  0  0  0  0  0
    2.8440   19.1680   -0.8660 C   0  0  2  0  0  0  0  0  0  0  0  0
    2.6720   19.5670    0.4970 O   0  0  0  0  0  0  0  0  0  0  0  0
    1.5180   18.5640   -1.4060 C   0  0  0  0  0  0  0  0  0  0  0  0
    1.6030   18.4120   -2.9450 C   0  0  0  0  0  0  0  0  0  0  0  0
    0.3820   19.5870   -1.1340 C   0  0  0  0  0  0  0  0  0  0  0  0
    2.1880   14.7710   -0.1360 C   0  0  1  0  0  0  0  0  0  0  0  0
    2.4670   14.8460    1.3960 C   0  0  0  0  0  0  0  0  0  0  0  0
    3.2100   13.7280   -0.7240 C   0  0  0  0  0  0  0  0  0  0  0  0
    2.7930   12.9980   -2.0150 C   0  0  0  0  0  0  0  0  0  0  0  0
    1.3780   12.4250   -1.8880 C   0  0  2  0  0  0  0  0  0  0  0  0
    1.3940   11.3620   -0.7380 C   0  0  0  0  0  0  0  0  0  0  0  0
    0.4248    9.3824   -1.7743 H   0  0  0  0  0  0  0  0  0  0  0  0
   -0.6769    9.4842   -3.1894 H   0  0  0  0  0  0  0  0  0  0  0  0
    0.6785    8.3054   -3.1894 H   0  0  0  0  0  0  0  0  0  0  0  0
    1.2370   10.2155   -4.5958 H   0  0  0  0  0  0  0  0  0  0  0  0
    2.8736   10.6869   -2.0932 H   0  0  0  0  0  0  0  0  0  0  0  0
    2.9458    9.1137   -3.0219 H   0  0  0  0  0  0  0  0  0  0  0  0
    3.7995   10.1587   -4.9473 H   0  0  0  0  0  0  0  0  0  0  0  0
    3.4148   11.8113   -4.3092 H   0  0  0  0  0  0  0  0  0  0  0  0
    4.7965   10.3371   -2.5602 H   0  0  0  0  0  0  0  0  0  0  0  0
    6.1479    9.6589   -6.0180 H   0  0  0  0  0  0  0  0  0  0  0  0
    5.5861   11.3578   -6.1752 H   0  0  0  0  0  0  0  0  0  0  0  0
    7.3442   10.9895   -6.1752 H   0  0  0  0  0  0  0  0  0  0  0  0
    7.5333   10.5075   -2.4967 H   0  0  0  0  0  0  0  0  0  0  0  0
    7.9498    9.4420   -3.8816 H   0  0  0  0  0  0  0  0  0  0  0  0
    8.4727   11.1604   -3.8816 H   0  0  0  0  0  0  0  0  0  0  0  0
    1.1079   12.3023   -4.0522 H   0  0  0  0  0  0  0  0  0  0  0  0
   -1.2851   12.0937   -3.7928 H   0  0  0  0  0  0  0  0  0  0  0  0
   -1.1192   10.8149   -2.5709 H   0  0  0  0  0  0  0  0  0  0  0  0
   -1.7846   13.5435   -2.0401 H   0  0  0  0  0  0  0  0  0  0  0  0
   -1.2593   12.3981   -0.8091 H   0  0  0  0  0  0  0  0  0  0  0  0
    0.2918   15.6704   -2.4189 H   0  0  0  0  0  0  0  0  0  0  0  0
    1.2362   14.5462   -3.4537 H   0  0  0  0  0  0  0  0  0  0  0  0
   -0.5586   14.4735   -3.4537 H   0  0  0  0  0  0  0  0  0  0  0  0
    0.5303   13.4764    0.4146 H   0  0  0  0  0  0  0  0  0  0  0  0
   -1.2854   15.1574   -0.3012 H   0  0  0  0  0  0  0  0  0  0  0  0
   -0.2811   15.4296    1.2176 H   0  0  0  0  0  0  0  0  0  0  0  0
   -0.7257   17.5503   -0.2834 H   0  0  0  0  0  0  0  0  0  0  0  0
    2.6182   15.9266   -1.8601 H   0  0  0  0  0  0  0  0  0  0  0  0
    3.5370   17.1093    0.8331 H   0  0  0  0  0  0  0  0  0  0  0  0
    4.5645   16.2189   -0.3758 H   0  0  0  0  0  0  0  0  0  0  0  0
    4.9038   18.6667   -0.4838 H   0  0  0  0  0  0  0  0  0  0  0  0
    4.2213   17.9818   -2.0103 H   0  0  0  0  0  0  0  0  0  0  0  0
    3.0781   20.0319   -1.5054 H   0  0  0  0  0  0  0  0  0  0  0  0
    2.0890   20.3450    0.5040 H   0  0  0  0  0  0  0  0  0  0  0  0
    2.1261   17.4766   -3.1927 H   0  0  0  0  0  0  0  0  0  0  0  0
    0.5877   18.3874   -3.3676 H   0  0  0  0  0  0  0  0  0  0  0  0
    2.1555   19.2641   -3.3676 H   0  0  0  0  0  0  0  0  0  0  0  0
    0.2487   19.7070   -0.0487 H   0  0  0  0  0  0  0  0  0  0  0  0
    0.6473   20.5568   -1.5803 H   0  0  0  0  0  0  0  0  0  0  0  0
   -0.5548   19.2219   -1.5803 H   0  0  0  0  0  0  0  0  0  0  0  0
    1.5484   14.5991    1.9485 H   0  0  0  0  0  0  0  0  0  0  0  0
    3.2579   14.1286    1.6602 H   0  0  0  0  0  0  0  0  0  0  0  0
    2.7916   15.8633    1.6602 H   0  0  0  0  0  0  0  0  0  0  0  0
    4.1483   14.2629   -0.9325 H   0  0  0  0  0  0  0  0  0  0  0  0
    3.2881   12.9400    0.0395 H   0  0  0  0  0  0  0  0  0  0  0  0
    2.8197   13.7081   -2.8546 H   0  0  0  0  0  0  0  0  0  0  0  0
    3.4932   12.1680   -2.1905 H   0  0  0  0  0  0  0  0  0  0  0  0
    1.3863   11.8746    0.2352 H   0  0  0  0  0  0  0  0  0  0  0  0
    0.5054   10.7189   -0.8208 H   0  0  0  0  0  0  0  0  0  0  0  0
    2.3015   10.7459   -0.8208 H   0  0  0  0  0  0  0  0  0  0  0  0
  1  2  1  0
  2  3  1  0
  3  4  1  0
  4  5  1  0
  5  6  1  0
  6  7  1  0
  7  8  1  0
  7  9  1  0
  2 10  1  0
 10 11  1  0
 11 12  1  0
 12 13  1  0
 13 14  1  6
 13 15  1  0
 15 16  1  0
 16 17  1  0
 17 18  2  0
 18 19  1  0
 19 20  1  0
 20 21  1  0
 21 22  1  0
 22 23  1  0
 22 24  1  0
 24 25  1  0
 24 26  1  0
 19 27  1  0
 27 28  1  1
 27 29  1  0
 29 30  1  0
 30 31  1  0
 31 32  1  1
  7  5  1  0
 31 10  1  0
 31 13  1  0
 27 15  1  0
 24 18  1  0
  1 33  1  0
  1 34  1  0
  1 35  1  0
  2 36  1  6
  3 37  1  0
  3 38  1  0
  4 39  1  0
  4 40  1  0
  5 41  1  1
  8 42  1  0
  8 43  1  0
  8 44  1  0
  9 45  1  0
  9 46  1  0
  9 47  1  0
 10 48  1  6
 11 49  1  0
 11 50  1  0
 12 51  1  0
 12 52  1  0
 14 53  1  0
 14 54  1  0
 14 55  1  0
 15 56  1  1
 16 57  1  0
 16 58  1  0
 17 59  1  0
 19 60  1  6
 20 61  1  0
 20 62  1  0
 21 63  1  0
 21 64  1  0
 22 65  1  6
 23 66  1  0
 25 67  1  0
 25 68  1  0
 25 69  1  0
 26 70  1  0
 26 71  1  0
 26 72  1  0
 28 73  1  0
 28 74  1  0
 28 75  1  0
 29 76  1  0
 29 77  1  0
 30 78  1  0
 30 79  1  0
 32 80  1  0
 32 81  1  0
 32 82  1  0
M  END
>  <meeko>  (7) 
{"is_sidechain": [false], "intermolecular_energy": 2.731, "internal_energy": -0.839}

$$$$
EPH_relaxed_0001_pdb2pqr_Repair_355_r2_0001_out
     RDKit          3D

 82 86  0  0  0  0  0  0  0  0999 V2000
   -5.2480    5.8540   -1.4490 C   0  0  0  0  0  0  0  0  0  0  0  0
   -5.4540    7.3300   -1.8010 C   0  0  2  0  0  0  0  0  0  0  0  0
   -5.1340    8.2600   -0.6130 C   0  0  0  0  0  0  0  0  0  0  0  0
   -3.6410    8.3530   -0.2890 C   0  0  0  0  0  0  0  0  0  0  0  0
   -2.8920    9.1150   -1.3400 C   0  0  2  0  0  0  0  0  0  0  0  0
   -2.1790    8.2980   -2.2780 O   0  0  0  0  0  0  0  0  0  0  0  0
   -1.3780    9.1420   -1.4350 C   0  0  0  0  0  0  0  0  0  0  0  0
   -0.5220    8.3930   -0.4630 C   0  0  0  0  0  0  0  0  0  0  0  0
   -0.7260   10.2760   -2.1630 C   0  0  0  0  0  0  0  0  0  0  0  0
   -6.8870    7.5580   -2.2690 C   0  0  1  0  0  0  0  0  0  0  0  0
   -7.1920    6.8560   -3.6190 C   0  0  0  0  0  0  0  0  0  0  0  0
   -8.6680    6.3870   -3.5550 C   0  0  0  0  0  0  0  0  0  0  0  0
   -9.2570    7.1150   -2.3250 C   0  0  1  0  0  0  0  0  0  0  0  0
   -9.6030    8.5490   -2.8350 C   0  0  0  0  0  0  0  0  0  0  0  0
  -10.4860    6.4340   -1.6400 C   0  0  2  0  0  0  0  0  0  0  0  0
  -11.7380    6.3060   -2.5250 C   0  0  0  0  0  0  0  0  0  0  0  0
  -12.6900    7.4540   -2.4520 C   0  0  0  0  0  0  0  0  0  0  0  0
  -12.6940    8.4080   -1.5030 C   0  0  0  0  0  0  0  0  0  0  0  0
  -11.7320    8.3350   -0.3090 C   0  0  1  0  0  0  0  0  0  0  0  0
  -12.5110    8.6220    1.0010 C   0  0  0  0  0  0  0  0  0  0  0  0
  -13.2780    9.9400    0.9490 C   0  0  0  0  0  0  0  0  0  0  0  0
  -14.2640    9.9520   -0.2150 C   0  0  2  0  0  0  0  0  0  0  0  0
  -15.2850    8.9810    0.0360 O   0  0  0  0  0  0  0  0  0  0  0  0
  -13.5950    9.6640   -1.5880 C   0  0  0  0  0  0  0  0  0  0  0  0
  -12.7130   10.8690   -2.0000 C   0  0  0  0  0  0  0  0  0  0  0  0
  -14.7190    9.5640   -2.6550 C   0  0  0  0  0  0  0  0  0  0  0  0
  -10.8430    7.0210   -0.2150 C   0  0  1  0  0  0  0  0  0  0  0  0
  -11.6220    5.9040    0.5450 C   0  0  0  0  0  0  0  0  0  0  0  0
   -9.5590    7.3300    0.6430 C   0  0  0  0  0  0  0  0  0  0  0  0
   -8.3380    7.8900   -0.1100 C   0  0  0  0  0  0  0  0  0  0  0  0
   -8.0250    7.0470   -1.3500 C   0  0  2  0  0  0  0  0  0  0  0  0
   -7.6510    5.6040   -0.8660 C   0  0  0  0  0  0  0  0  0  0  0  0
   -5.2316    5.7367   -0.3554 H   0  0  0  0  0  0  0  0  0  0  0  0
   -6.0717    5.2584   -1.8694 H   0  0  0  0  0  0  0  0  0  0  0  0
   -4.2927    5.5067   -1.8694 H   0  0  0  0  0  0  0  0  0  0  0  0
   -4.7540    7.5774   -2.6126 H   0  0  0  0  0  0  0  0  0  0  0  0
   -5.5007    9.2689   -0.8532 H   0  0  0  0  0  0  0  0  0  0  0  0
   -5.6289    7.8331    0.2718 H   0  0  0  0  0  0  0  0  0  0  0  0
   -3.5171    8.8633    0.6776 H   0  0  0  0  0  0  0  0  0  0  0  0
   -3.2342    7.3317   -0.2506 H   0  0  0  0  0  0  0  0  0  0  0  0
   -3.6448    9.9170   -1.3282 H   0  0  0  0  0  0  0  0  0  0  0  0
   -0.8193    8.6531    0.5636 H   0  0  0  0  0  0  0  0  0  0  0  0
   -0.6501    7.3117   -0.6190 H   0  0  0  0  0  0  0  0  0  0  0  0
    0.5327    8.6635   -0.6190 H   0  0  0  0  0  0  0  0  0  0  0  0
   -0.3149   10.9910   -1.4351 H   0  0  0  0  0  0  0  0  0  0  0  0
    0.0866    9.8875   -2.7944 H   0  0  0  0  0  0  0  0  0  0  0  0
   -1.4706   10.7828   -2.7944 H   0  0  0  0  0  0  0  0  0  0  0  0
   -6.8975    8.6574   -2.3046 H   0  0  0  0  0  0  0  0  0  0  0  0
   -7.0542    7.5608   -4.4522 H   0  0  0  0  0  0  0  0  0  0  0  0
   -6.5140    6.0057   -3.7844 H   0  0  0  0  0  0  0  0  0  0  0  0
   -9.2064    6.6738   -4.4703 H   0  0  0  0  0  0  0  0  0  0  0  0
   -8.7545    5.2935   -3.4728 H   0  0  0  0  0  0  0  0  0  0  0  0
   -9.7638    9.2153   -1.9746 H   0  0  0  0  0  0  0  0  0  0  0  0
   -8.7715    8.9318   -3.4449 H   0  0  0  0  0  0  0  0  0  0  0  0
  -10.5176    8.5105   -3.4449 H   0  0  0  0  0  0  0  0  0  0  0  0
  -10.1265    5.4068   -1.4800 H   0  0  0  0  0  0  0  0  0  0  0  0
  -11.4073    6.2044   -3.5692 H   0  0  0  0  0  0  0  0  0  0  0  0
  -12.2878    5.4301   -2.1501 H   0  0  0  0  0  0  0  0  0  0  0  0
  -13.4530    7.5260   -3.2411 H   0  0  0  0  0  0  0  0  0  0  0  0
  -10.9796    9.1199   -0.4754 H   0  0  0  0  0  0  0  0  0  0  0  0
  -13.2265    7.8042    1.1721 H   0  0  0  0  0  0  0  0  0  0  0  0
  -11.7768    8.6950    1.8168 H   0  0  0  0  0  0  0  0  0  0  0  0
  -13.8311   10.0719    1.8906 H   0  0  0  0  0  0  0  0  0  0  0  0
  -12.5581   10.7596    0.8075 H   0  0  0  0  0  0  0  0  0  0  0  0
  -14.6866   10.9656   -0.2790 H   0  0  0  0  0  0  0  0  0  0  0  0
  -14.8960    8.2820    0.5890 H   0  0  0  0  0  0  0  0  0  0  0  0
  -12.3413   11.3768   -1.0978 H   0  0  0  0  0  0  0  0  0  0  0  0
  -11.8609   10.5125   -2.5974 H   0  0  0  0  0  0  0  0  0  0  0  0
  -13.3104   11.5734   -2.5974 H   0  0  0  0  0  0  0  0  0  0  0  0
  -15.6941    9.4772   -2.1534 H   0  0  0  0  0  0  0  0  0  0  0  0
  -14.7091   10.4666   -3.2837 H   0  0  0  0  0  0  0  0  0  0  0  0
  -14.5499    8.6774   -3.2837 H   0  0  0  0  0  0  0  0  0  0  0  0
  -11.5160    6.0559    1.6293 H   0  0  0  0  0  0  0  0  0  0  0  0
  -12.6864    5.9479    0.2709 H   0  0  0  0  0  0  0  0  0  0  0  0
  -11.2130    4.9203    0.2709 H   0  0  0  0  0  0  0  0  0  0  0  0
   -9.8414    8.0645    1.4116 H   0  0  0  0  0  0  0  0  0  0  0  0
   -9.2331    6.3549    1.0342 H   0  0  0  0  0  0  0  0  0  0  0  0
   -8.5502    8.9234   -0.4215 H   0  0  0  0  0  0  0  0  0  0  0  0
   -7.4678    7.8617    0.5623 H   0  0  0  0  0  0  0  0  0  0  0  0
   -7.6439    5.5764    0.2336 H   0  0  0  0  0  0  0  0  0  0  0  0
   -8.3927    4.8861   -1.2460 H   0  0  0  0  0  0  0  0  0  0  0  0
   -6.6539    5.3367   -1.2460 H   0  0  0  0  0  0  0  0  0  0  0  0
  1  2  1  0
  2  3  1  0
  3  4  1  0
  4  5  1  0
  5  6  1  0
  6  7  1  0
  7  8  1  0
  7  9  1  0
  2 10  1  0
 10 11  1  0
 11 12  1  0
 12 13  1  0
 13 14  1  6
 13 15  1  0
 15 16  1  0
 16 17  1  0
 17 18  2  0
 18 19  1  0
 19 20  1  0
 20 21  1  0
 21 22  1  0
 22 23  1  0
 22 24  1  0
 24 25  1  0
 24 26  1  0
 19 27  1  0
 27 28  1  1
 27 29  1  0
 29 30  1  0
 30 31  1  0
 31 32  1  1
  7  5  1  0
 31 10  1  0
 31 13  1  0
 27 15  1  0
 24 18  1  0
  1 33  1  0
  1 34  1  0
  1 35  1  0
  2 36  1  6
  3 37  1  0
  3 38  1  0
  4 39  1  0
  4 40  1  0
  5 41  1  6
  8 42  1  0
  8 43  1  0
  8 44  1  0
  9 45  1  0
  9 46  1  0
  9 47  1  0
 10 48  1  6
 11 49  1  0
 11 50  1  0
 12 51  1  0
 12 52  1  0
 14 53  1  0
 14 54  1  0
 14 55  1  0
 15 56  1  1
 16 57  1  0
 16 58  1  0
 17 59  1  0
 19 60  1  6
 20 61  1  0
 20 62  1  0
 21 63  1  0
 21 64  1  0
 22 65  1  6
 23 66  1  0
 25 67  1  0
 25 68  1  0
 25 69  1  0
 26 70  1  0
 26 71  1  0
 26 72  1  0
 28 73  1  0
 28 74  1  0
 28 75  1  0
 29 76  1  0
 29 77  1  0
 30 78  1  0
 30 79  1  0
 32 80  1  0
 32 81  1  0
 32 82  1  0
M  END
>  <meeko>  (8) 
{"is_sidechain": [false], "intermolecular_energy": 2.731, "internal_energy": -0.839}

$$$$
EPH_relaxed_0001_pdb2pqr_Repair_355_r2_0001_out
     RDKit          3D

 82 86  0  0  0  0  0  0  0  0999 V2000
    0.2200   17.9220   -2.3400 C   0  0  0  0  0  0  0  0  0  0  0  0
   -0.0440   16.9710   -1.1700 C   0  0  2  0  0  0  0  0  0  0  0  0
   -0.1180   17.7160    0.1780 C   0  0  0  0  0  0  0  0  0  0  0  0
    0.5090   19.1120    0.1450 C   0  0  0  0  0  0  0  0  0  0  0  0
    1.6580   19.2270    1.1000 C   0  0  2  0  0  0  0  0  0  0  0  0
    2.6490   20.1940    0.7300 O   0  0  0  0  0  0  0  0  0  0  0  0
    3.0790   18.8230    0.7520 C   0  0  0  0  0  0  0  0  0  0  0  0
    3.4250   18.2730   -0.5960 C   0  0  0  0  0  0  0  0  0  0  0  0
    4.0260   18.5060    1.8670 C   0  0  0  0  0  0  0  0  0  0  0  0
    1.0390   15.9010   -1.1150 C   0  0  1  0  0  0  0  0  0  0  0  0
    1.2980   15.3860    0.3260 C   0  0  0  0  0  0  0  0  0  0  0  0
    1.6400   13.8790    0.2080 C   0  0  0  0  0  0  0  0  0  0  0  0
    1.8920   13.6530   -1.3010 C   0  0  1  0  0  0  0  0  0  0  0  0
    3.3580   14.1330   -1.5400 C   0  0  0  0  0  0  0  0  0  0  0  0
    1.6680   12.1980   -1.8290 C   0  0  2  0  0  0  0  0  0  0  0  0
    2.5960   11.1330   -1.2200 C   0  0  0  0  0  0  0  0  0  0  0  0
    3.8740   10.9030   -1.9570 C   0  0  0  0  0  0  0  0  0  0  0  0
    4.1380   11.3140   -3.2120 C   0  0  0  0  0  0  0  0  0  0  0  0
    3.0600   12.0040   -4.0580 C   0  0  1  0  0  0  0  0  0  0  0  0
    3.0410   11.3830   -5.4790 C   0  0  0  0  0  0  0  0  0  0  0  0
    4.4130   11.4090   -6.1470 C   0  0  0  0  0  0  0  0  0  0  0  0
    5.4440   10.6630   -5.3040 C   0  0  2  0  0  0  0  0  0  0  0  0
    5.1060    9.2730   -5.2860 O   0  0  0  0  0  0  0  0  0  0  0  0
    5.5450   11.1950   -3.8470 C   0  0  0  0  0  0  0  0  0  0  0  0
    6.1970   12.6000   -3.8500 C   0  0  0  0  0  0  0  0  0  0  0  0
    6.5150   10.2680   -3.0660 C   0  0  0  0  0  0  0  0  0  0  0  0
    1.6130   12.0830   -3.4070 C   0  0  1  0  0  0  0  0  0  0  0  0
    0.8130   10.7840   -3.7300 C   0  0  0  0  0  0  0  0  0  0  0  0
    0.8160   13.2700   -4.0660 C   0  0  0  0  0  0  0  0  0  0  0  0
    0.9860   14.6610   -3.4250 C   0  0  0  0  0  0  0  0  0  0  0  0
    0.7880   14.5930   -1.9080 C   0  0  2  0  0  0  0  0  0  0  0  0
   -0.6850   14.1340   -1.6370 C   0  0  0  0  0  0  0  0  0  0  0  0
    0.4953   18.9136   -1.9516 H   0  0  0  0  0  0  0  0  0  0  0  0
    1.0426   17.5277   -2.9546 H   0  0  0  0  0  0  0  0  0  0  0  0
   -0.6882   18.0081   -2.9546 H   0  0  0  0  0  0  0  0  0  0  0  0
   -1.0231   16.4997   -1.3411 H   0  0  0  0  0  0  0  0  0  0  0  0
   -1.1761   17.8172    0.4612 H   0  0  0  0  0  0  0  0  0  0  0  0
    0.4563   17.1229    0.9049 H   0  0  0  0  0  0  0  0  0  0  0  0
    0.8705   19.3163   -0.8736 H   0  0  0  0  0  0  0  0  0  0  0  0
   -0.2595   19.8399    0.4444 H   0  0  0  0  0  0  0  0  0  0  0  0
    1.0070   18.9761    1.9505 H   0  0  0  0  0  0  0  0  0  0  0  0
    4.0072   17.3475   -0.4760 H   0  0  0  0  0  0  0  0  0  0  0  0
    2.5008   18.0554   -1.1515 H   0  0  0  0  0  0  0  0  0  0  0  0
    4.0213   19.0119   -1.1515 H   0  0  0  0  0  0  0  0  0  0  0  0
    3.5254   18.6736    2.8320 H   0  0  0  0  0  0  0  0  0  0  0  0
    4.3392   17.4540    1.7942 H   0  0  0  0  0  0  0  0  0  0  0  0
    4.9094   19.1574    1.7942 H   0  0  0  0  0  0  0  0  0  0  0  0
    1.8728   16.4600   -1.5647 H   0  0  0  0  0  0  0  0  0  0  0  0
    2.1400   15.9312    0.7774 H   0  0  0  0  0  0  0  0  0  0  0  0
    0.4166   15.5419    0.9653 H   0  0  0  0  0  0  0  0  0  0  0  0
    2.5403   13.6382    0.7924 H   0  0  0  0  0  0  0  0  0  0  0  0
    0.8360   13.2371    0.5973 H   0  0  0  0  0  0  0  0  0  0  0  0
    3.8533   14.2952   -0.5713 H   0  0  0  0  0  0  0  0  0  0  0  0
    3.9064   13.3675   -2.1086 H   0  0  0  0  0  0  0  0  0  0  0  0
    3.3474   15.0746   -2.1086 H   0  0  0  0  0  0  0  0  0  0  0  0
    0.6600   11.9638   -1.4562 H   0  0  0  0  0  0  0  0  0  0  0  0
    2.8462   11.4460   -0.1956 H   0  0  0  0  0  0  0  0  0  0  0  0
    2.0422   10.1838   -1.2682 H   0  0  0  0  0  0  0  0  0  0  0  0
    4.6667   10.3513   -1.4305 H   0  0  0  0  0  0  0  0  0  0  0  0
    3.3517   13.0630   -4.1175 H   0  0  0  0  0  0  0  0  0  0  0  0
    2.7056   10.3382   -5.4028 H   0  0  0  0  0  0  0  0  0  0  0  0
    2.3572   11.9835   -6.0969 H   0  0  0  0  0  0  0  0  0  0  0  0
    4.3416   10.9306   -7.1350 H   0  0  0  0  0  0  0  0  0  0  0  0
    4.7341   12.4561   -6.2492 H   0  0  0  0  0  0  0  0  0  0  0  0
    6.4286   10.8265   -5.7664 H   0  0  0  0  0  0  0  0  0  0  0  0
    4.1410    9.2030   -5.3780 H   0  0  0  0  0  0  0  0  0  0  0  0
    6.3522   12.9344   -2.8136 H   0  0  0  0  0  0  0  0  0  0  0  0
    7.1656   12.5536   -4.3693 H   0  0  0  0  0  0  0  0  0  0  0  0
    5.5362   13.3098   -4.3693 H   0  0  0  0  0  0  0  0  0  0  0  0
    6.3669   10.4095   -1.9852 H   0  0  0  0  0  0  0  0  0  0  0  0
    6.3122    9.2195   -3.3297 H   0  0  0  0  0  0  0  0  0  0  0  0
    7.5532   10.5181   -3.3297 H   0  0  0  0  0  0  0  0  0  0  0  0
    0.5122   10.2957   -2.7913 H   0  0  0  0  0  0  0  0  0  0  0  0
   -0.0835   11.0410   -4.3132 H   0  0  0  0  0  0  0  0  0  0  0  0
    1.4460   10.0990   -4.3132 H   0  0  0  0  0  0  0  0  0  0  0  0
    1.1381   13.3453   -5.1151 H   0  0  0  0  0  0  0  0  0  0  0  0
   -0.2453   13.0166   -3.9269 H   0  0  0  0  0  0  0  0  0  0  0  0
    1.9980   15.0349   -3.6395 H   0  0  0  0  0  0  0  0  0  0  0  0
    0.2283   15.3371   -3.8478 H   0  0  0  0  0  0  0  0  0  0  0  0
   -0.8585   14.0799   -0.5521 H   0  0  0  0  0  0  0  0  0  0  0  0
   -1.3826   14.8574   -2.0843 H   0  0  0  0  0  0  0  0  0  0  0  0
   -0.8482   13.1424   -2.0843 H   0  0  0  0  0  0  0  0  0  0  0  0
  1  2  1  0
  2  3  1  0
  3  4  1  0
  4  5  1  0
  5  6  1  0
  6  7  1  0
  7  8  1  0
  7  9  1  0
  2 10  1  0
 10 11  1  0
 11 12  1  0
 12 13  1  0
 13 14  1  6
 13 15  1  0
 15 16  1  0
 16 17  1  0
 17 18  2  0
 18 19  1  0
 19 20  1  0
 20 21  1  0
 21 22  1  0
 22 23  1  0
 22 24  1  0
 24 25  1  0
 24 26  1  0
 19 27  1  0
 27 28  1  1
 27 29  1  0
 29 30  1  0
 30 31  1  0
 31 32  1  6
  7  5  1  0
 31 10  1  0
 31 13  1  0
 27 15  1  0
 24 18  1  0
  1 33  1  0
  1 34  1  0
  1 35  1  0
  2 36  1  6
  3 37  1  0
  3 38  1  0
  4 39  1  0
  4 40  1  0
  5 41  1  1
  8 42  1  0
  8 43  1  0
  8 44  1  0
  9 45  1  0
  9 46  1  0
  9 47  1  0
 10 48  1  6
 11 49  1  0
 11 50  1  0
 12 51  1  0
 12 52  1  0
 14 53  1  0
 14 54  1  0
 14 55  1  0
 15 56  1  1
 16 57  1  0
 16 58  1  0
 17 59  1  0
 19 60  1  6
 20 61  1  0
 20 62  1  0
 21 63  1  0
 21 64  1  0
 22 65  1  6
 23 66  1  0
 25 67  1  0
 25 68  1  0
 25 69  1  0
 26 70  1  0
 26 71  1  0
 26 72  1  0
 28 73  1  0
 28 74  1  0
 28 75  1  0
 29 76  1  0
 29 77  1  0
 30 78  1  0
 30 79  1  0
 32 80  1  0
 32 81  1  0
 32 82  1  0
M  END
>  <meeko>  (9) 
{"is_sidechain": [false], "intermolecular_energy": 2.731, "internal_energy": -0.839}

$$$$
EPH_relaxed_0001_pdb2pqr_Repair_355_r2_0001_out
     RDKit          3D

 82 86  0  0  0  0  0  0  0  0999 V2000
   -0.1860    9.3620   -2.2430 C   0  0  0  0  0  0  0  0  0  0  0  0
    0.9100   10.3260   -2.7070 C   0  0  2  0  0  0  0  0  0  0  0  0
    2.2830    9.6330   -2.8210 C   0  0  0  0  0  0  0  0  0  0  0  0
    3.2120   10.2750   -3.8550 C   0  0  0  0  0  0  0  0  0  0  0  0
    4.5820   10.5150   -3.2950 C   0  0  2  0  0  0  0  0  0  0  0  0
    5.1110   11.8230   -3.5480 O   0  0  0  0  0  0  0  0  0  0  0  0
    5.8120   10.7270   -4.1570 C   0  0  0  0  0  0  0  0  0  0  0  0
    5.7310   10.7070   -5.6510 C   0  0  0  0  0  0  0  0  0  0  0  0
    7.1590   10.4660   -3.5580 C   0  0  0  0  0  0  0  0  0  0  0  0
    1.0010   11.5080   -1.7500 C   0  0  1  0  0  0  0  0  0  0  0  0
    2.1020   11.3220   -0.6720 C   0  0  0  0  0  0  0  0  0  0  0  0
    2.7010   12.7250   -0.3970 C   0  0  0  0  0  0  0  0  0  0  0  0
    1.7140   13.7090   -1.0670 C   0  0  1  0  0  0  0  0  0  0  0  0
    0.5470   13.8670   -0.0430 C   0  0  0  0  0  0  0  0  0  0  0  0
    2.3010   15.0940   -1.4920 C   0  0  2  0  0  0  0  0  0  0  0  0
    2.8300   15.9610   -0.3360 C   0  0  0  0  0  0  0  0  0  0  0  0
    1.8310   16.8870    0.2760 C   0  0  0  0  0  0  0  0  0  0  0  0
    0.6460   17.2260   -0.2640 C   0  0  0  0  0  0  0  0  0  0  0  0
    0.2490   16.7380   -1.6630 C   0  0  1  0  0  0  0  0  0  0  0  0
   -0.3210   17.9250   -2.4830 C   0  0  0  0  0  0  0  0  0  0  0  0
   -1.4650   18.6350   -1.7660 C   0  0  0  0  0  0  0  0  0  0  0  0
   -1.0150   19.1570   -0.4040 C   0  0  2  0  0  0  0  0  0  0  0  0
   -0.0500   20.1940   -0.6030 O   0  0  0  0  0  0  0  0  0  0  0  0
   -0.4140   18.0510    0.5080 C   0  0  0  0  0  0  0  0  0  0  0  0
   -1.5360   17.0900    0.9700 C   0  0  0  0  0  0  0  0  0  0  0  0
    0.1290   18.7340    1.7920 C   0  0  0  0  0  0  0  0  0  0  0  0
    1.3620   15.9270   -2.4560 C   0  0  1  0  0  0  0  0  0  0  0  0
    2.2870   16.9140   -3.2330 C   0  0  0  0  0  0  0  0  0  0  0  0
    0.6650   15.0240   -3.5410 C   0  0  0  0  0  0  0  0  0  0  0  0
    0.2150   13.6210   -3.0910 C   0  0  0  0  0  0  0  0  0  0  0  0
    1.3450   12.8910   -2.3580 C   0  0  2  0  0  0  0  0  0  0  0  0
    2.5250   12.6980   -3.3710 C   0  0  0  0  0  0  0  0  0  0  0  0
   -0.2125    9.3387   -1.1436 H   0  0  0  0  0  0  0  0  0  0  0  0
   -1.1595    9.7019   -2.6261 H   0  0  0  0  0  0  0  0  0  0  0  0
    0.0268    8.3531   -2.6261 H   0  0  0  0  0  0  0  0  0  0  0  0
    0.6353   10.6809   -3.7113 H   0  0  0  0  0  0  0  0  0  0  0  0
    2.7756    9.6744   -1.8383 H   0  0  0  0  0  0  0  0  0  0  0  0
    2.0959    8.6012   -3.1534 H   0  0  0  0  0  0  0  0  0  0  0  0
    3.2942    9.6062   -4.7245 H   0  0  0  0  0  0  0  0  0  0  0  0
    2.7844   11.2463   -4.1444 H   0  0  0  0  0  0  0  0  0  0  0  0
    4.3808    9.8406   -2.4496 H   0  0  0  0  0  0  0  0  0  0  0  0
    4.7059   10.4539   -5.9593 H   0  0  0  0  0  0  0  0  0  0  0  0
    5.9985   11.6982   -6.0460 H   0  0  0  0  0  0  0  0  0  0  0  0
    6.4291    9.9543   -6.0460 H   0  0  0  0  0  0  0  0  0  0  0  0
    7.0815   10.4810   -2.4608 H   0  0  0  0  0  0  0  0  0  0  0  0
    7.5217    9.4809   -3.8865 H   0  0  0  0  0  0  0  0  0  0  0  0
    7.8634   11.2444   -3.8865 H   0  0  0  0  0  0  0  0  0  0  0  0
   -0.0293   11.5116   -1.3647 H   0  0  0  0  0  0  0  0  0  0  0  0
    1.6643   10.9099    0.2492 H   0  0  0  0  0  0  0  0  0  0  0  0
    2.8776   10.6223   -1.0166 H   0  0  0  0  0  0  0  0  0  0  0  0
    2.7644   12.9149    0.6846 H   0  0  0  0  0  0  0  0  0  0  0  0
    3.7230   12.8266   -0.7908 H   0  0  0  0  0  0  0  0  0  0  0  0
    0.9472   13.8128    0.9802 H   0  0  0  0  0  0  0  0  0  0  0  0
    0.0561   14.8398   -0.1937 H   0  0  0  0  0  0  0  0  0  0  0  0
   -0.1849   13.0597   -0.1937 H   0  0  0  0  0  0  0  0  0  0  0  0
    3.1860   14.8056   -2.0782 H   0  0  0  0  0  0  0  0  0  0  0  0
    3.1976   15.2882    0.4528 H   0  0  0  0  0  0  0  0  0  0  0  0
    3.6126   16.6011   -0.7693 H   0  0  0  0  0  0  0  0  0  0  0  0
    2.0853   17.3293    1.2505 H   0  0  0  0  0  0  0  0  0  0  0  0
   -0.5336   15.9802   -1.5101 H   0  0  0  0  0  0  0  0  0  0  0  0
    0.4867   18.6499   -2.6623 H   0  0  0  0  0  0  0  0  0  0  0  0
   -0.7178   17.5198   -3.4255 H   0  0  0  0  0  0  0  0  0  0  0  0
   -1.8055   19.4810   -2.3812 H   0  0  0  0  0  0  0  0  0  0  0  0
   -2.2836   17.9162   -1.6135 H   0  0  0  0  0  0  0  0  0  0  0  0
   -1.9071   19.5394    0.1136 H   0  0  0  0  0  0  0  0  0  0  0  0
    0.6900   19.8150   -1.1070 H   0  0  0  0  0  0  0  0  0  0  0  0
   -1.5667   17.0637    2.0693 H   0  0  0  0  0  0  0  0  0  0  0  0
   -2.5036   17.4438    0.5845 H   0  0  0  0  0  0  0  0  0  0  0  0
   -1.3351   16.0795    0.5845 H   0  0  0  0  0  0  0  0  0  0  0  0
   -0.2766   18.2239    2.6782 H   0  0  0  0  0  0  0  0  0  0  0  0
    1.2272   18.6721    1.8038 H   0  0  0  0  0  0  0  0  0  0  0  0
   -0.1789   19.7900    1.8038 H   0  0  0  0  0  0  0  0  0  0  0  0
    2.8576   17.5229   -2.5163 H   0  0  0  0  0  0  0  0  0  0  0  0
    2.9831   16.3434   -3.8653 H   0  0  0  0  0  0  0  0  0  0  0  0
    1.6725   17.5717   -3.8653 H   0  0  0  0  0  0  0  0  0  0  0  0
   -0.2262   15.5608   -3.8983 H   0  0  0  0  0  0  0  0  0  0  0  0
    1.4346   14.8479   -4.3070 H   0  0  0  0  0  0  0  0  0  0  0  0
   -0.6475   13.7193   -2.4154 H   0  0  0  0  0  0  0  0  0  0  0  0
   -0.0586   13.0378   -3.9827 H   0  0  0  0  0  0  0  0  0  0  0  0
    3.4627   12.5446   -2.8167 H   0  0  0  0  0  0  0  0  0  0  0  0
    2.3253   11.8206   -4.0037 H   0  0  0  0  0  0  0  0  0  0  0  0
    2.6153   13.5933   -4.0037 H   0  0  0  0  0  0  0  0  0  0  0  0
  1  2  1  0
  2  3  1  0
  3  4  1  0
  4  5  1  0
  5  6  1  0
  6  7  1  0
  7  8  1  0
  7  9  1  0
  2 10  1  0
 10 11  1  0
 11 12  1  0
 12 13  1  0
 13 14  1  1
 13 15  1  0
 15 16  1  0
 16 17  1  0
 17 18  2  0
 18 19  1  0
 19 20  1  0
 20 21  1  0
 21 22  1  0
 22 23  1  0
 22 24  1  0
 24 25  1  0
 24 26  1  0
 19 27  1  0
 27 28  1  6
 27 29  1  0
 29 30  1  0
 30 31  1  0
 31 32  1  6
  7  5  1  0
 31 10  1  0
 31 13  1  0
 27 15  1  0
 24 18  1  0
  1 33  1  0
  1 34  1  0
  1 35  1  0
  2 36  1  6
  3 37  1  0
  3 38  1  0
  4 39  1  0
  4 40  1  0
  5 41  1  1
  8 42  1  0
  8 43  1  0
  8 44  1  0
  9 45  1  0
  9 46  1  0
  9 47  1  0
 10 48  1  1
 11 49  1  0
 11 50  1  0
 12 51  1  0
 12 52  1  0
 14 53  1  0
 14 54  1  0
 14 55  1  0
 15 56  1  6
 16 57  1  0
 16 58  1  0
 17 59  1  0
 19 60  1  1
 20 61  1  0
 20 62  1  0
 21 63  1  0
 21 64  1  0
 22 65  1  1
 23 66  1  0
 25 67  1  0
 25 68  1  0
 25 69  1  0
 26 70  1  0
 26 71  1  0
 26 72  1  0
 28 73  1  0
 28 74  1  0
 28 75  1  0
 29 76  1  0
 29 77  1  0
 30 78  1  0
 30 79  1  0
 32 80  1  0
 32 81  1  0
 32 82  1  0
M  END
>  <meeko>  (10) 
{"is_sidechain": [false], "intermolecular_energy": 2.731, "internal_energy": -0.839}

$$$$
EPH_relaxed_0001_pdb2pqr_Repair_355_r2_0001_out
     RDKit          3D

 82 86  0  0  0  0  0  0  0  0999 V2000
    0.4570   20.1870   -1.3900 C   0  0  0  0  0  0  0  0  0  0  0  0
    1.3000   19.3730   -0.4040 C   0  0  2  0  0  0  0  0  0  0  0  0
    2.4710   20.1920    0.1740 C   0  0  0  0  0  0  0  0  0  0  0  0
    2.7050   19.9610    1.6690 C   0  0  0  0  0  0  0  0  0  0  0  0
    4.1650   19.8470    1.9900 C   0  0  2  0  0  0  0  0  0  0  0  0
    4.5710   18.5630    2.4820 O   0  0  0  0  0  0  0  0  0  0  0  0
    4.6990   19.6620    3.3980 C   0  0  0  0  0  0  0  0  0  0  0  0
    3.7810   19.5820    4.5770 C   0  0  0  0  0  0  0  0  0  0  0  0
    6.1170   20.0490    3.6820 C   0  0  0  0  0  0  0  0  0  0  0  0
    1.8290   18.1170   -1.0870 C   0  0  1  0  0  0  0  0  0  0  0  0
    3.3700   18.1430   -1.2740 C   0  0  0  0  0  0  0  0  0  0  0  0
    3.8660   16.6840   -1.1040 C   0  0  0  0  0  0  0  0  0  0  0  0
    2.5800   15.8260   -1.1570 C   0  0  1  0  0  0  0  0  0  0  0  0
    2.2610   15.6740   -2.6770 C   0  0  0  0  0  0  0  0  0  0  0  0
    2.6440   14.4390   -0.4390 C   0  0  2  0  0  0  0  0  0  0  0  0
    3.6730   13.4520   -1.0180 C   0  0  0  0  0  0  0  0  0  0  0  0
    3.1590   12.5550   -2.0950 C   0  0  0  0  0  0  0  0  0  0  0  0
    1.8620   12.3420   -2.3830 C   0  0  0  0  0  0  0  0  0  0  0  0
    0.7520   12.9620   -1.5240 C   0  0  1  0  0  0  0  0  0  0  0  0
   -0.3160   11.8840   -1.2010 C   0  0  0  0  0  0  0  0  0  0  0  0
   -0.8590   11.2040   -2.4540 C   0  0  0  0  0  0  0  0  0  0  0  0
    0.2660   10.5500   -3.2510 C   0  0  2  0  0  0  0  0  0  0  0  0
    0.8020    9.4650   -2.4870 O   0  0  0  0  0  0  0  0  0  0  0  0
    1.4060   11.5380   -3.6260 C   0  0  0  0  0  0  0  0  0  0  0  0
    0.8980   12.5390   -4.6930 C   0  0  0  0  0  0  0  0  0  0  0  0
    2.5420   10.7230   -4.3020 C   0  0  0  0  0  0  0  0  0  0  0  0
    1.2350   13.7500   -0.2310 C   0  0  1  0  0  0  0  0  0  0  0  0
    1.3930   12.7630    0.9650 C   0  0  0  0  0  0  0  0  0  0  0  0
    0.1210   14.7810    0.1880 C   0  0  0  0  0  0  0  0  0  0  0  0
    0.1810   16.1740   -0.4670 C   0  0  0  0  0  0  0  0  0  0  0  0
    1.5920   16.7640   -0.3710 C   0  0  2  0  0  0  0  0  0  0  0  0
    1.9310   16.9490    1.1470 C   0  0  0  0  0  0  0  0  0  0  0  0
   -0.2252   20.8457   -0.8325 H   0  0  0  0  0  0  0  0  0  0  0  0
    1.1192   20.7961   -2.0228 H   0  0  0  0  0  0  0  0  0  0  0  0
   -0.1285   19.5039   -2.0228 H   0  0  0  0  0  0  0  0  0  0  0  0
    0.6479   19.0929    0.4364 H   0  0  0  0  0  0  0  0  0  0  0  0
    3.3880   19.9166   -0.3676 H   0  0  0  0  0  0  0  0  0  0  0  0
    2.2127   21.2540    0.0495 H   0  0  0  0  0  0  0  0  0  0  0  0
    2.2813   20.8063    2.2311 H   0  0  0  0  0  0  0  0  0  0  0  0
    2.2169   19.0164    1.9508 H   0  0  0  0  0  0  0  0  0  0  0  0
    4.4210   20.5585    1.1911 H   0  0  0  0  0  0  0  0  0  0  0  0
    4.3701   19.6333    5.5045 H   0  0  0  0  0  0  0  0  0  0  0  0
    3.0711   20.4217    4.5466 H   0  0  0  0  0  0  0  0  0  0  0  0
    3.2270   18.6322    4.5466 H   0  0  0  0  0  0  0  0  0  0  0  0
    6.2745   20.0920    4.7698 H   0  0  0  0  0  0  0  0  0  0  0  0
    6.7957   19.3032    3.2424 H   0  0  0  0  0  0  0  0  0  0  0  0
    6.3227   21.0361    3.2424 H   0  0  0  0  0  0  0  0  0  0  0  0
    1.2473   18.1557   -2.0198 H   0  0  0  0  0  0  0  0  0  0  0  0
    3.6235   18.5147   -2.2778 H   0  0  0  0  0  0  0  0  0  0  0  0
    3.8457   18.8099   -0.5399 H   0  0  0  0  0  0  0  0  0  0  0  0
    4.5503   16.4089   -1.9201 H   0  0  0  0  0  0  0  0  0  0  0  0
    4.4253   16.5400   -0.1678 H   0  0  0  0  0  0  0  0  0  0  0  0
    1.2741   15.2038   -2.7993 H   0  0  0  0  0  0  0  0  0  0  0  0
    2.2557   16.6664   -3.1516 H   0  0  0  0  0  0  0  0  0  0  0  0
    3.0283   15.0447   -3.1516 H   0  0  0  0  0  0  0  0  0  0  0  0
    3.0170   14.7080    0.5603 H   0  0  0  0  0  0  0  0  0  0  0  0
    4.5087   14.0356   -1.4315 H   0  0  0  0  0  0  0  0  0  0  0  0
    3.9650   12.7936   -0.1866 H   0  0  0  0  0  0  0  0  0  0  0  0
    3.9039   12.0230   -2.7050 H   0  0  0  0  0  0  0  0  0  0  0  0
    0.3038   13.7595   -2.1348 H   0  0  0  0  0  0  0  0  0  0  0  0
    0.1391   11.1195   -0.5542 H   0  0  0  0  0  0  0  0  0  0  0  0
   -1.1579   12.3871   -0.7029 H   0  0  0  0  0  0  0  0  0  0  0  0
   -1.5862   10.4332   -2.1588 H   0  0  0  0  0  0  0  0  0  0  0  0
   -1.3402   11.9651   -3.0858 H   0  0  0  0  0  0  0  0  0  0  0  0
   -0.1649   10.1942   -4.1985 H   0  0  0  0  0  0  0  0  0  0  0  0
    0.1630    8.7340   -2.5270 H   0  0  0  0  0  0  0  0  0  0  0  0
    0.4544   13.4131   -4.1939 H   0  0  0  0  0  0  0  0  0  0  0  0
    1.7403   12.8639   -5.3215 H   0  0  0  0  0  0  0  0  0  0  0  0
    0.1385   12.0510   -5.3215 H   0  0  0  0  0  0  0  0  0  0  0  0
    3.1770   10.2674   -3.5279 H   0  0  0  0  0  0  0  0  0  0  0  0
    2.1033    9.9324   -4.9284 H   0  0  0  0  0  0  0  0  0  0  0  0
    3.1504   11.3919   -4.9284 H   0  0  0  0  0  0  0  0  0  0  0  0
    1.3044   13.3166    1.9114 H   0  0  0  0  0  0  0  0  0  0  0  0
    0.6062   11.9960    0.9138 H   0  0  0  0  0  0  0  0  0  0  0  0
    2.3799   12.2799    0.9138 H   0  0  0  0  0  0  0  0  0  0  0  0
   -0.8539   14.3374   -0.0624 H   0  0  0  0  0  0  0  0  0  0  0  0
    0.2843   14.9605    1.2609 H   0  0  0  0  0  0  0  0  0  0  0  0
   -0.1011   16.0860   -1.5266 H   0  0  0  0  0  0  0  0  0  0  0  0
   -0.5153   16.8411    0.0623 H   0  0  0  0  0  0  0  0  0  0  0  0
    1.1281   16.5108    1.7580 H   0  0  0  0  0  0  0  0  0  0  0  0
    2.8817   16.4446    1.3745 H   0  0  0  0  0  0  0  0  0  0  0  0
    2.0212   18.0214    1.3745 H   0  0  0  0  0  0  0  0  0  0  0  0
  1  2  1  0
  2  3  1  0
  3  4  1  0
  4  5  1  0
  5  6  1  0
  6  7  1  0
  7  8  1  0
  7  9  1  0
  2 10  1  0
 10 11  1  0
 11 12  1  0
 12 13  1  0
 13 14  1  6
 13 15  1  0
 15 16  1  0
 16 17  1  0
 17 18  2  0
 18 19  1  0
 19 20  1  0
 20 21  1  0
 21 22  1  0
 22 23  1  0
 22 24  1  0
 24 25  1  0
 24 26  1  0
 19 27  1  0
 27 28  1  1
 27 29  1  0
 29 30  1  0
 30 31  1  0
 31 32  1  1
  7  5  1  0
 31 10  1  0
 31 13  1  0
 27 15  1  0
 24 18  1  0
  1 33  1  0
  1 34  1  0
  1 35  1  0
  2 36  1  1
  3 37  1  0
  3 38  1  0
  4 39  1  0
  4 40  1  0
  5 41  1  6
  8 42  1  0
  8 43  1  0
  8 44  1  0
  9 45  1  0
  9 46  1  0
  9 47  1  0
 10 48  1  6
 11 49  1  0
 11 50  1  0
 12 51  1  0
 12 52  1  0
 14 53  1  0
 14 54  1  0
 14 55  1  0
 15 56  1  1
 16 57  1  0
 16 58  1  0
 17 59  1  0
 19 60  1  6
 20 61  1  0
 20 62  1  0
 21 63  1  0
 21 64  1  0
 22 65  1  6
 23 66  1  0
 25 67  1  0
 25 68  1  0
 25 69  1  0
 26 70  1  0
 26 71  1  0
 26 72  1  0
 28 73  1  0
 28 74  1  0
 28 75  1  0
 29 76  1  0
 29 77  1  0
 30 78  1  0
 30 79  1  0
 32 80  1  0
 32 81  1  0
 32 82  1  0
M  END
>  <meeko>  (11) 
{"is_sidechain": [false], "intermolecular_energy": 2.731, "internal_energy": -0.839}

$$$$
EPH_relaxed_0001_pdb2pqr_Repair_355_r2_0001_out
     RDKit          3D

 82 86  0  0  0  0  0  0  0  0999 V2000
    3.9490   17.6260    0.5760 C   0  0  0  0  0  0  0  0  0  0  0  0
    2.8410   18.0120   -0.4080 C   0  0  2  0  0  0  0  0  0  0  0  0
    2.1400   19.3260   -0.0080 C   0  0  0  0  0  0  0  0  0  0  0  0
    0.9250   19.1230    0.9000 C   0  0  0  0  0  0  0  0  0  0  0  0
   -0.2680   19.8850    0.4080 C   0  0  2  0  0  0  0  0  0  0  0  0
   -1.2460   20.1820    1.4140 O   0  0  0  0  0  0  0  0  0  0  0  0
   -1.6690   19.3050    0.3580 C   0  0  0  0  0  0  0  0  0  0  0  0
   -1.9500   17.9050    0.8050 C   0  0  0  0  0  0  0  0  0  0  0  0
   -2.6660   19.9210   -0.5740 C   0  0  0  0  0  0  0  0  0  0  0  0
    1.8190   16.8860   -0.5080 C   0  0  1  0  0  0  0  0  0  0  0  0
    0.4470   17.3700   -1.0480 C   0  0  0  0  0  0  0  0  0  0  0  0
   -0.1300   16.2140   -1.9040 C   0  0  0  0  0  0  0  0  0  0  0  0
    0.7570   14.9940   -1.5610 C   0  0  1  0  0  0  0  0  0  0  0  0
    0.1880   14.4500   -0.2130 C   0  0  0  0  0  0  0  0  0  0  0  0
    0.8400   13.8730   -2.6470 C   0  0  2  0  0  0  0  0  0  0  0  0
   -0.4930   13.1770   -2.9700 C   0  0  0  0  0  0  0  0  0  0  0  0
   -0.7970   11.9680   -2.1480 C   0  0  0  0  0  0  0  0  0  0  0  0
    0.0890   11.2950   -1.3910 C   0  0  0  0  0  0  0  0  0  0  0  0
    1.5740   11.6810   -1.3840 C   0  0  1  0  0  0  0  0  0  0  0  0
    2.4410   10.4020   -1.5250 C   0  0  0  0  0  0  0  0  0  0  0  0
    2.1070    9.3500   -0.4720 C   0  0  0  0  0  0  0  0  0  0  0  0
    0.6360    8.9500   -0.5480 C   0  0  2  0  0  0  0  0  0  0  0  0
    0.4060    8.2700   -1.7860 O   0  0  0  0  0  0  0  0  0  0  0  0
   -0.3340   10.1580   -0.4280 C   0  0  0  0  0  0  0  0  0  0  0  0
   -0.3030   10.7090    1.0190 C   0  0  0  0  0  0  0  0  0  0  0  0
   -1.7780    9.6360   -0.6620 C   0  0  0  0  0  0  0  0  0  0  0  0
    1.9980   12.8210   -2.4060 C   0  0  1  0  0  0  0  0  0  0  0  0
    2.3270   12.1960   -3.7960 C   0  0  0  0  0  0  0  0  0  0  0  0
    3.3250   13.4990   -1.8980 C   0  0  0  0  0  0  0  0  0  0  0  0
    3.1730   14.6780   -0.9190 C   0  0  0  0  0  0  0  0  0  0  0  0
    2.1580   15.6980   -1.4430 C   0  0  2  0  0  0  0  0  0  0  0  0
    2.7140   16.2800   -2.7870 C   0  0  0  0  0  0  0  0  0  0  0  0
    3.5850   17.7528    1.6062 H   0  0  0  0  0  0  0  0  0  0  0  0
    4.2335   16.5758    0.4143 H   0  0  0  0  0  0  0  0  0  0  0  0
    4.8244   18.2721    0.4143 H   0  0  0  0  0  0  0  0  0  0  0  0
    3.3120   18.1748   -1.3887 H   0  0  0  0  0  0  0  0  0  0  0  0
    2.8667   19.9603    0.5208 H   0  0  0  0  0  0  0  0  0  0  0  0
    1.7743   19.7906   -0.9355 H   0  0  0  0  0  0  0  0  0  0  0  0
    0.6767   18.0518    0.9290 H   0  0  0  0  0  0  0  0  0  0  0  0
    1.1803   19.4957    1.9029 H   0  0  0  0  0  0  0  0  0  0  0  0
    0.3440   20.4020   -0.3458 H   0  0  0  0  0  0  0  0  0  0  0  0
   -1.9579   17.8657    1.9043 H   0  0  0  0  0  0  0  0  0  0  0  0
   -2.9299   17.5868    0.4197 H   0  0  0  0  0  0  0  0  0  0  0  0
   -1.1688   17.2333    0.4197 H   0  0  0  0  0  0  0  0  0  0  0  0
   -3.4593   20.4111    0.0095 H   0  0  0  0  0  0  0  0  0  0  0  0
   -2.1635   20.6663   -1.2081 H   0  0  0  0  0  0  0  0  0  0  0  0
   -3.1076   19.1381   -1.2081 H   0  0  0  0  0  0  0  0  0  0  0  0
    1.8127   16.5502    0.5395 H   0  0  0  0  0  0  0  0  0  0  0  0
   -0.2306   17.5967   -0.2117 H   0  0  0  0  0  0  0  0  0  0  0  0
    0.5591   18.2863   -1.6462 H   0  0  0  0  0  0  0  0  0  0  0  0
   -1.1790   16.0189   -1.6365 H   0  0  0  0  0  0  0  0  0  0  0  0
   -0.1216   16.4467   -2.9791 H   0  0  0  0  0  0  0  0  0  0  0  0
    0.7017   14.9411    0.6266 H   0  0  0  0  0  0  0  0  0  0  0  0
   -0.8900   14.6620   -0.1579 H   0  0  0  0  0  0  0  0  0  0  0  0
    0.3514   13.3636   -0.1579 H   0  0  0  0  0  0  0  0  0  0  0  0
    1.1070   14.4403   -3.5508 H   0  0  0  0  0  0  0  0  0  0  0  0
   -1.3028   13.9053   -2.8157 H   0  0  0  0  0  0  0  0  0  0  0  0
   -0.4087   12.8253   -4.0088 H   0  0  0  0  0  0  0  0  0  0  0  0
   -1.8322   11.5963   -2.1625 H   0  0  0  0  0  0  0  0  0  0  0  0
    1.7617   12.1540   -0.4088 H   0  0  0  0  0  0  0  0  0  0  0  0
    2.2715    9.9692   -2.5220 H   0  0  0  0  0  0  0  0  0  0  0  0
    3.4921   10.6939   -1.3838 H   0  0  0  0  0  0  0  0  0  0  0  0
    2.7312    8.4603   -0.6414 H   0  0  0  0  0  0  0  0  0  0  0  0
    2.3044    9.7745    0.5234 H   0  0  0  0  0  0  0  0  0  0  0  0
    0.4281    8.2939    0.3101 H   0  0  0  0  0  0  0  0  0  0  0  0
    1.2340    8.2980   -2.2950 H   0  0  0  0  0  0  0  0  0  0  0  0
   -0.3501    9.8720    1.7312 H   0  0  0  0  0  0  0  0  0  0  0  0
    0.6283   11.2727    1.1768 H   0  0  0  0  0  0  0  0  0  0  0  0
   -1.1652   11.3736    1.1768 H   0  0  0  0  0  0  0  0  0  0  0  0
   -2.2658    9.4597    0.3080 H   0  0  0  0  0  0  0  0  0  0  0  0
   -2.3508   10.3840   -1.2299 H   0  0  0  0  0  0  0  0  0  0  0  0
   -1.7401    8.6947   -1.2299 H   0  0  0  0  0  0  0  0  0  0  0  0
    2.8350   11.2309   -3.6531 H   0  0  0  0  0  0  0  0  0  0  0  0
    1.3943   12.0397   -4.3578 H   0  0  0  0  0  0  0  0  0  0  0  0
    2.9838   12.8765   -4.3578 H   0  0  0  0  0  0  0  0  0  0  0  0
    3.9229   12.7244   -1.3955 H   0  0  0  0  0  0  0  0  0  0  0  0
    3.7897   13.9301   -2.7970 H   0  0  0  0  0  0  0  0  0  0  0  0
    2.8299   14.2960    0.0538 H   0  0  0  0  0  0  0  0  0  0  0  0
    4.1485   15.1755   -0.8149 H   0  0  0  0  0  0  0  0  0  0  0  0
    3.4587   17.0596   -2.5687 H   0  0  0  0  0  0  0  0  0  0  0  0
    3.1863   15.4741   -3.3680 H   0  0  0  0  0  0  0  0  0  0  0  0
    1.8874   16.7150   -3.3680 H   0  0  0  0  0  0  0  0  0  0  0  0
  1  2  1  0
  2  3  1  0
  3  4  1  0
  4  5  1  0
  5  6  1  0
  6  7  1  0
  7  8  1  0
  7  9  1  0
  2 10  1  0
 10 11  1  0
 11 12  1  0
 12 13  1  0
 13 14  1  1
 13 15  1  0
 15 16  1  0
 16 17  1  0
 17 18  2  0
 18 19  1  0
 19 20  1  0
 20 21  1  0
 21 22  1  0
 22 23  1  0
 22 24  1  0
 24 25  1  0
 24 26  1  0
 19 27  1  0
 27 28  1  6
 27 29  1  0
 29 30  1  0
 30 31  1  0
 31 32  1  6
  7  5  1  0
 31 10  1  0
 31 13  1  0
 27 15  1  0
 24 18  1  0
  1 33  1  0
  1 34  1  0
  1 35  1  0
  2 36  1  6
  3 37  1  0
  3 38  1  0
  4 39  1  0
  4 40  1  0
  5 41  1  6
  8 42  1  0
  8 43  1  0
  8 44  1  0
  9 45  1  0
  9 46  1  0
  9 47  1  0
 10 48  1  1
 11 49  1  0
 11 50  1  0
 12 51  1  0
 12 52  1  0
 14 53  1  0
 14 54  1  0
 14 55  1  0
 15 56  1  6
 16 57  1  0
 16 58  1  0
 17 59  1  0
 19 60  1  1
 20 61  1  0
 20 62  1  0
 21 63  1  0
 21 64  1  0
 22 65  1  1
 23 66  1  0
 25 67  1  0
 25 68  1  0
 25 69  1  0
 26 70  1  0
 26 71  1  0
 26 72  1  0
 28 73  1  0
 28 74  1  0
 28 75  1  0
 29 76  1  0
 29 77  1  0
 30 78  1  0
 30 79  1  0
 32 80  1  0
 32 81  1  0
 32 82  1  0
M  END
>  <meeko>  (12) 
{"is_sidechain": [false], "intermolecular_energy": 2.731, "internal_energy": -0.839}

$$$$
EPH_relaxed_0001_pdb2pqr_Repair_355_r2_0001_out
     RDKit          3D

 82 86  0  0  0  0  0  0  0  0999 V2000
    2.4940   11.4040   -5.3520 C   0  0  0  0  0  0  0  0  0  0  0  0
    1.8120   11.1960   -3.9970 C   0  0  2  0  0  0  0  0  0  0  0  0
    0.7180   10.1110   -4.0590 C   0  0  0  0  0  0  0  0  0  0  0  0
    0.6340    9.2500   -2.7950 C   0  0  0  0  0  0  0  0  0  0  0  0
   -0.7800    9.0970   -2.3220 C   0  0  2  0  0  0  0  0  0  0  0  0
   -1.4040   10.3150   -1.8950 O   0  0  0  0  0  0  0  0  0  0  0  0
   -1.2090    9.3140   -0.8830 C   0  0  0  0  0  0  0  0  0  0  0  0
   -0.2240    9.7000    0.1750 C   0  0  0  0  0  0  0  0  0  0  0  0
   -2.4800    8.6780   -0.4120 C   0  0  0  0  0  0  0  0  0  0  0  0
    1.2150   12.5110   -3.5090 C   0  0  1  0  0  0  0  0  0  0  0  0
   -0.3240   12.4350   -3.3230 C   0  0  0  0  0  0  0  0  0  0  0  0
   -0.6720   13.3290   -2.1050 C   0  0  0  0  0  0  0  0  0  0  0  0
    0.6160   14.1440   -1.8390 C   0  0  1  0  0  0  0  0  0  0  0  0
    0.5700   15.3140   -2.8710 C   0  0  0  0  0  0  0  0  0  0  0  0
    0.8120   14.6690   -0.3790 C   0  0  2  0  0  0  0  0  0  0  0  0
   -0.2610   15.6580    0.1080 C   0  0  0  0  0  0  0  0  0  0  0  0
    0.0360   17.0990   -0.1500 C   0  0  0  0  0  0  0  0  0  0  0  0
    1.2370   17.6010   -0.4890 C   0  0  0  0  0  0  0  0  0  0  0  0
    2.4790   16.7020   -0.5490 C   0  0  1  0  0  0  0  0  0  0  0  0
    3.6590   17.3990    0.1780 C   0  0  0  0  0  0  0  0  0  0  0  0
    3.9280   18.8020   -0.3580 C   0  0  0  0  0  0  0  0  0  0  0  0
    2.6880   19.6830   -0.2280 C   0  0  2  0  0  0  0  0  0  0  0  0
    2.4210   19.9000    1.1610 O   0  0  0  0  0  0  0  0  0  0  0  0
    1.4320   19.0780   -0.9140 C   0  0  0  0  0  0  0  0  0  0  0  0
    1.6070   19.1220   -2.4520 C   0  0  0  0  0  0  0  0  0  0  0  0
    0.2220   19.9940   -0.5880 C   0  0  0  0  0  0  0  0  0  0  0  0
    2.2710   15.2000   -0.0720 C   0  0  1  0  0  0  0  0  0  0  0  0
    2.4650   15.1000    1.4720 C   0  0  0  0  0  0  0  0  0  0  0  0
    3.3850   14.2960   -0.7200 C   0  0  0  0  0  0  0  0  0  0  0  0
    3.0820   13.7100   -2.1120 C   0  0  0  0  0  0  0  0  0  0  0  0
    1.7010   13.0480   -2.1390 C   0  0  2  0  0  0  0  0  0  0  0  0
    1.7240   11.8520   -1.1270 C   0  0  0  0  0  0  0  0  0  0  0  0
    3.5352   11.7215   -5.1935 H   0  0  0  0  0  0  0  0  0  0  0  0
    2.4804   10.4609   -5.9180 H   0  0  0  0  0  0  0  0  0  0  0  0
    1.9564   12.1790   -5.9180 H   0  0  0  0  0  0  0  0  0  0  0  0
    2.5796   10.8508   -3.2887 H   0  0  0  0  0  0  0  0  0  0  0  0
   -0.2534   10.6051   -4.2081 H   0  0  0  0  0  0  0  0  0  0  0  0
    0.9781    9.4387   -4.8898 H   0  0  0  0  0  0  0  0  0  0  0  0
    1.0465    8.2540   -3.0139 H   0  0  0  0  0  0  0  0  0  0  0  0
    1.2093    9.7489   -2.0012 H   0  0  0  0  0  0  0  0  0  0  0  0
   -0.9504    8.2691   -3.0259 H   0  0  0  0  0  0  0  0  0  0  0  0
   -0.6654    9.5270    1.1676 H   0  0  0  0  0  0  0  0  0  0  0  0
    0.6865    9.0922    0.0676 H   0  0  0  0  0  0  0  0  0  0  0  0
    0.0311   10.7646    0.0676 H   0  0  0  0  0  0  0  0  0  0  0  0
   -2.4995    8.6682    0.6878 H   0  0  0  0  0  0  0  0  0  0  0  0
   -3.3391    9.2525   -0.7889 H   0  0  0  0  0  0  0  0  0  0  0  0
   -2.5352    7.6461   -0.7889 H   0  0  0  0  0  0  0  0  0  0  0  0
    1.5529   13.1779   -4.3159 H   0  0  0  0  0  0  0  0  0  0  0  0
   -0.8333   12.8074   -4.2241 H   0  0  0  0  0  0  0  0  0  0  0  0
   -0.6512   11.3978   -3.1580 H   0  0  0  0  0  0  0  0  0  0  0  0
   -1.5128   13.9976   -2.3416 H   0  0  0  0  0  0  0  0  0  0  0  0
   -0.9811   12.7394   -1.2293 H   0  0  0  0  0  0  0  0  0  0  0  0
    0.5323   16.2741   -2.3354 H   0  0  0  0  0  0  0  0  0  0  0  0
    1.4701   15.2815   -3.5025 H   0  0  0  0  0  0  0  0  0  0  0  0
   -0.3248   15.2110   -3.5025 H   0  0  0  0  0  0  0  0  0  0  0  0
    0.6716   13.7577    0.2209 H   0  0  0  0  0  0  0  0  0  0  0  0
   -1.2062   15.4100   -0.3970 H   0  0  0  0  0  0  0  0  0  0  0  0
   -0.3037   15.5469    1.2015 H   0  0  0  0  0  0  0  0  0  0  0  0
   -0.7981   17.8098   -0.0547 H   0  0  0  0  0  0  0  0  0  0  0  0
    2.7164   16.5827   -1.6164 H   0  0  0  0  0  0  0  0  0  0  0  0
    3.4206   17.4703    1.2495 H   0  0  0  0  0  0  0  0  0  0  0  0
    4.5622   16.7957    0.0042 H   0  0  0  0  0  0  0  0  0  0  0  0
    4.7521   19.2538    0.2136 H   0  0  0  0  0  0  0  0  0  0  0  0
    4.1945   18.7259   -1.4225 H   0  0  0  0  0  0  0  0  0  0  0  0
    2.9005   20.6307   -0.7444 H   0  0  0  0  0  0  0  0  0  0  0  0
    1.5560   19.5020    1.3600 H   0  0  0  0  0  0  0  0  0  0  0  0
    2.6474   19.3836   -2.6953 H   0  0  0  0  0  0  0  0  0  0  0  0
    1.3680   18.1358   -2.8766 H   0  0  0  0  0  0  0  0  0  0  0  0
    0.9300   19.8779   -2.8766 H   0  0  0  0  0  0  0  0  0  0  0  0
    0.1098   20.0789    0.5030 H   0  0  0  0  0  0  0  0  0  0  0  0
    0.3914   20.9922   -1.0180 H   0  0  0  0  0  0  0  0  0  0  0  0
   -0.6928   19.5600   -1.0180 H   0  0  0  0  0  0  0  0  0  0  0  0
    1.5979   15.5470    1.9802 H   0  0  0  0  0  0  0  0  0  0  0  0
    2.5555   14.0429    1.7625 H   0  0  0  0  0  0  0  0  0  0  0  0
    3.3785   15.6396    1.7625 H   0  0  0  0  0  0  0  0  0  0  0  0
    4.2979   14.9036   -0.8064 H   0  0  0  0  0  0  0  0  0  0  0  0
    3.4719   13.4249   -0.0540 H   0  0  0  0  0  0  0  0  0  0  0  0
    3.1078   14.5193   -2.8566 H   0  0  0  0  0  0  0  0  0  0  0  0
    3.8408   12.9484   -2.3449 H   0  0  0  0  0  0  0  0  0  0  0  0
    1.7165   12.2418   -0.0984 H   0  0  0  0  0  0  0  0  0  0  0  0
    0.8378   11.2200   -1.2861 H   0  0  0  0  0  0  0  0  0  0  0  0
    2.6338   11.2545   -1.2861 H   0  0  0  0  0  0  0  0  0  0  0  0
  1  2  1  0
  2  3  1  0
  3  4  1  0
  4  5  1  0
  5  6  1  0
  6  7  1  0
  7  8  1  0
  7  9  1  0
  2 10  1  0
 10 11  1  0
 11 12  1  0
 12 13  1  0
 13 14  1  6
 13 15  1  0
 15 16  1  0
 16 17  1  0
 17 18  2  0
 18 19  1  0
 19 20  1  0
 20 21  1  0
 21 22  1  0
 22 23  1  0
 22 24  1  0
 24 25  1  0
 24 26  1  0
 19 27  1  0
 27 28  1  1
 27 29  1  0
 29 30  1  0
 30 31  1  0
 31 32  1  1
  7  5  1  0
 31 10  1  0
 31 13  1  0
 27 15  1  0
 24 18  1  0
  1 33  1  0
  1 34  1  0
  1 35  1  0
  2 36  1  1
  3 37  1  0
  3 38  1  0
  4 39  1  0
  4 40  1  0
  5 41  1  6
  8 42  1  0
  8 43  1  0
  8 44  1  0
  9 45  1  0
  9 46  1  0
  9 47  1  0
 10 48  1  6
 11 49  1  0
 11 50  1  0
 12 51  1  0
 12 52  1  0
 14 53  1  0
 14 54  1  0
 14 55  1  0
 15 56  1  1
 16 57  1  0
 16 58  1  0
 17 59  1  0
 19 60  1  6
 20 61  1  0
 20 62  1  0
 21 63  1  0
 21 64  1  0
 22 65  1  6
 23 66  1  0
 25 67  1  0
 25 68  1  0
 25 69  1  0
 26 70  1  0
 26 71  1  0
 26 72  1  0
 28 73  1  0
 28 74  1  0
 28 75  1  0
 29 76  1  0
 29 77  1  0
 30 78  1  0
 30 79  1  0
 32 80  1  0
 32 81  1  0
 32 82  1  0
M  END
>  <meeko>  (13) 
{"is_sidechain": [false], "intermolecular_energy": 2.731, "internal_energy": -0.839}

$$$$
EPH_relaxed_0001_pdb2pqr_Repair_355_r2_0001_out
     RDKit          3D

 82 86  0  0  0  0  0  0  0  0999 V2000
    2.1570   20.0600   -0.9790 C   0  0  0  0  0  0  0  0  0  0  0  0
    2.0260   19.0230   -2.0980 C   0  0  2  0  0  0  0  0  0  0  0  0
    0.6000   18.9760   -2.6820 C   0  0  0  0  0  0  0  0  0  0  0  0
   -0.3620   19.9800   -2.0410 C   0  0  0  0  0  0  0  0  0  0  0  0
   -1.4500   19.2930   -1.2730 C   0  0  2  0  0  0  0  0  0  0  0  0
   -2.4000   20.1750   -0.6610 O   0  0  0  0  0  0  0  0  0  0  0  0
   -1.5990   19.3870    0.2340 C   0  0  0  0  0  0  0  0  0  0  0  0
   -0.6460   20.1890    1.0630 C   0  0  0  0  0  0  0  0  0  0  0  0
   -2.3650   18.3160    0.9460 C   0  0  0  0  0  0  0  0  0  0  0  0
    2.4210   17.6450   -1.5780 C   0  0  1  0  0  0  0  0  0  0  0  0
    2.8480   17.6700   -0.0860 C   0  0  0  0  0  0  0  0  0  0  0  0
    2.3720   16.3320    0.5370 C   0  0  0  0  0  0  0  0  0  0  0  0
    1.9900   15.4510   -0.6760 C   0  0  1  0  0  0  0  0  0  0  0  0
    3.3440   14.8740   -1.1950 C   0  0  0  0  0  0  0  0  0  0  0  0
    0.9460   14.3190   -0.4060 C   0  0  2  0  0  0  0  0  0  0  0  0
    1.3930   13.2450    0.6010 C   0  0  0  0  0  0  0  0  0  0  0  0
    2.0960   12.0690    0.0080 C   0  0  0  0  0  0  0  0  0  0  0  0
    2.1080   11.7420   -1.2980 C   0  0  0  0  0  0  0  0  0  0  0  0
    1.2840   12.5380   -2.3170 C   0  0  1  0  0  0  0  0  0  0  0  0
    0.5190   11.5570   -3.2450 C   0  0  0  0  0  0  0  0  0  0  0  0
    1.4430   10.5390   -3.9080 C   0  0  0  0  0  0  0  0  0  0  0  0
    2.2010    9.7280   -2.8610 C   0  0  2  0  0  0  0  0  0  0  0  0
    1.2680    8.9150   -2.1430 O   0  0  0  0  0  0  0  0  0  0  0  0
    3.0020   10.6110   -1.8630 C   0  0  0  0  0  0  0  0  0  0  0  0
    4.2050   11.2600   -2.5920 C   0  0  0  0  0  0  0  0  0  0  0  0
    3.6040    9.6780   -0.7780 C   0  0  0  0  0  0  0  0  0  0  0  0
    0.3420   13.6690   -1.7160 C   0  0  1  0  0  0  0  0  0  0  0  0
   -1.0350   13.0570   -1.3150 C   0  0  0  0  0  0  0  0  0  0  0  0
    0.0450   14.7380   -2.8330 C   0  0  0  0  0  0  0  0  0  0  0  0
    1.0510   15.8960   -2.9710 C   0  0  0  0  0  0  0  0  0  0  0  0
    1.3400   16.5360   -1.6100 C   0  0  2  0  0  0  0  0  0  0  0  0
    0.0000   17.1450   -1.0730 C   0  0  0  0  0  0  0  0  0  0  0  0
    2.0934   19.5564   -0.0031 H   0  0  0  0  0  0  0  0  0  0  0  0
    3.1269   20.5717   -1.0650 H   0  0  0  0  0  0  0  0  0  0  0  0
    1.3448   20.7968   -1.0650 H   0  0  0  0  0  0  0  0  0  0  0  0
    2.7054   19.3237   -2.9092 H   0  0  0  0  0  0  0  0  0  0  0  0
    0.6588   19.1908   -3.7592 H   0  0  0  0  0  0  0  0  0  0  0  0
    0.2012   17.9720   -2.4749 H   0  0  0  0  0  0  0  0  0  0  0  0
    0.2038   20.6279   -1.3553 H   0  0  0  0  0  0  0  0  0  0  0  0
   -0.8288   20.5685   -2.8446 H   0  0  0  0  0  0  0  0  0  0  0  0
   -1.4236   18.4340   -1.9596 H   0  0  0  0  0  0  0  0  0  0  0  0
   -0.8521   20.0155    2.1295 H   0  0  0  0  0  0  0  0  0  0  0  0
    0.3857   19.8833    0.8345 H   0  0  0  0  0  0  0  0  0  0  0  0
   -0.7709   21.2577    0.8345 H   0  0  0  0  0  0  0  0  0  0  0  0
   -2.2657   18.4549    2.0327 H   0  0  0  0  0  0  0  0  0  0  0  0
   -3.4266   18.3755    0.6643 H   0  0  0  0  0  0  0  0  0  0  0  0
   -1.9656   17.3306    0.6643 H   0  0  0  0  0  0  0  0  0  0  0  0
    3.2269   17.4040   -2.2868 H   0  0  0  0  0  0  0  0  0  0  0  0
    3.9416   17.7573   -0.0062 H   0  0  0  0  0  0  0  0  0  0  0  0
    2.4048   18.5298    0.4377 H   0  0  0  0  0  0  0  0  0  0  0  0
    3.1810   15.8643    1.1173 H   0  0  0  0  0  0  0  0  0  0  0  0
    1.5314   16.4714    1.2326 H   0  0  0  0  0  0  0  0  0  0  0  0
    3.9794   14.6032   -0.3389 H   0  0  0  0  0  0  0  0  0  0  0  0
    3.1514   13.9798   -1.8060 H   0  0  0  0  0  0  0  0  0  0  0  0
    3.8556   15.6323   -1.8060 H   0  0  0  0  0  0  0  0  0  0  0  0
    0.1275   14.8653    0.0855 H   0  0  0  0  0  0  0  0  0  0  0  0
    2.0734   13.7188    1.3239 H   0  0  0  0  0  0  0  0  0  0  0  0
    0.4719   12.8517    1.0559 H   0  0  0  0  0  0  0  0  0  0  0  0
    2.6510   11.4145    0.6962 H   0  0  0  0  0  0  0  0  0  0  0  0
    2.0089   13.1198   -2.9052 H   0  0  0  0  0  0  0  0  0  0  0  0
   -0.2296   11.0169   -2.6469 H   0  0  0  0  0  0  0  0  0  0  0  0
    0.0479   12.1501   -4.0427 H   0  0  0  0  0  0  0  0  0  0  0  0
    0.8418    9.8562   -4.5264 H   0  0  0  0  0  0  0  0  0  0  0  0
    2.1723   11.0791   -4.5295 H   0  0  0  0  0  0  0  0  0  0  0  0
    2.9386    9.1097   -3.3936 H   0  0  0  0  0  0  0  0  0  0  0  0
    1.7590    8.1630   -1.7700 H   0  0  0  0  0  0  0  0  0  0  0  0
    4.9193   11.6453   -1.8495 H   0  0  0  0  0  0  0  0  0  0  0  0
    4.7014   10.5073   -3.2221 H   0  0  0  0  0  0  0  0  0  0  0  0
    3.8485   12.0882   -3.2221 H   0  0  0  0  0  0  0  0  0  0  0  0
    3.3532   10.0667    0.2200 H   0  0  0  0  0  0  0  0  0  0  0  0
    3.1880    8.6662   -0.8926 H   0  0  0  0  0  0  0  0  0  0  0  0
    4.6974    9.6401   -0.8926 H   0  0  0  0  0  0  0  0  0  0  0  0
   -1.1151   13.0214   -0.2185 H   0  0  0  0  0  0  0  0  0  0  0  0
   -1.8454   13.6797   -1.7218 H   0  0  0  0  0  0  0  0  0  0  0  0
   -1.1159   12.0382   -1.7218 H   0  0  0  0  0  0  0  0  0  0  0  0
    0.0104   14.2105   -3.7977 H   0  0  0  0  0  0  0  0  0  0  0  0
   -0.9009   15.2127   -2.5329 H   0  0  0  0  0  0  0  0  0  0  0  0
    1.9900   15.5086   -3.3932 H   0  0  0  0  0  0  0  0  0  0  0  0
    0.6176   16.6601   -3.6330 H   0  0  0  0  0  0  0  0  0  0  0  0
    0.0100   17.1405    0.0269 H   0  0  0  0  0  0  0  0  0  0  0  0
   -0.1038   18.1787   -1.4345 H   0  0  0  0  0  0  0  0  0  0  0  0
   -0.8470   16.5434   -1.4345 H   0  0  0  0  0  0  0  0  0  0  0  0
  1  2  1  0
  2  3  1  0
  3  4  1  0
  4  5  1  0
  5  6  1  0
  6  7  1  0
  7  8  1  0
  7  9  1  0
  2 10  1  0
 10 11  1  0
 11 12  1  0
 12 13  1  0
 13 14  1  6
 13 15  1  0
 15 16  1  0
 16 17  1  0
 17 18  2  0
 18 19  1  0
 19 20  1  0
 20 21  1  0
 21 22  1  0
 22 23  1  0
 22 24  1  0
 24 25  1  0
 24 26  1  0
 19 27  1  0
 27 28  1  1
 27 29  1  0
 29 30  1  0
 30 31  1  0
 31 32  1  1
  7  5  1  0
 31 10  1  0
 31 13  1  0
 27 15  1  0
 24 18  1  0
  1 33  1  0
  1 34  1  0
  1 35  1  0
  2 36  1  6
  3 37  1  0
  3 38  1  0
  4 39  1  0
  4 40  1  0
  5 41  1  6
  8 42  1  0
  8 43  1  0
  8 44  1  0
  9 45  1  0
  9 46  1  0
  9 47  1  0
 10 48  1  6
 11 49  1  0
 11 50  1  0
 12 51  1  0
 12 52  1  0
 14 53  1  0
 14 54  1  0
 14 55  1  0
 15 56  1  1
 16 57  1  0
 16 58  1  0
 17 59  1  0
 19 60  1  6
 20 61  1  0
 20 62  1  0
 21 63  1  0
 21 64  1  0
 22 65  1  6
 23 66  1  0
 25 67  1  0
 25 68  1  0
 25 69  1  0
 26 70  1  0
 26 71  1  0
 26 72  1  0
 28 73  1  0
 28 74  1  0
 28 75  1  0
 29 76  1  0
 29 77  1  0
 30 78  1  0
 30 79  1  0
 32 80  1  0
 32 81  1  0
 32 82  1  0
M  END
>  <meeko>  (14) 
{"is_sidechain": [false], "intermolecular_energy": 2.731, "internal_energy": -0.839}

$$$$
EPH_relaxed_0001_pdb2pqr_Repair_355_r2_0001_out
     RDKit          3D

 82 86  0  0  0  0  0  0  0  0999 V2000
    0.6920   11.3200   -4.9730 C   0  0  0  0  0  0  0  0  0  0  0  0
    0.8740   10.6430   -3.6120 C   0  0  2  0  0  0  0  0  0  0  0  0
   -0.2620    9.6480   -3.3010 C   0  0  0  0  0  0  0  0  0  0  0  0
   -1.0460    9.9870   -2.0300 C   0  0  0  0  0  0  0  0  0  0  0  0
   -1.0230    8.8560   -1.0470 C   0  0  2  0  0  0  0  0  0  0  0  0
   -1.1580    9.2520    0.3240 O   0  0  0  0  0  0  0  0  0  0  0  0
    0.0920    8.6450   -0.0400 C   0  0  0  0  0  0  0  0  0  0  0  0
    1.2640    9.5730    0.0320 C   0  0  0  0  0  0  0  0  0  0  0  0
    0.2880    7.2760    0.5340 C   0  0  0  0  0  0  0  0  0  0  0  0
    0.9580   11.6980   -2.5140 C   0  0  1  0  0  0  0  0  0  0  0  0
    2.0340   11.3650   -1.4460 C   0  0  0  0  0  0  0  0  0  0  0  0
    2.6410   12.7150   -0.9880 C   0  0  0  0  0  0  0  0  0  0  0  0
    1.6790   13.7870   -1.5510 C   0  0  1  0  0  0  0  0  0  0  0  0
    0.4930   13.8330   -0.5380 C   0  0  0  0  0  0  0  0  0  0  0  0
    2.2900   15.2070   -1.7900 C   0  0  2  0  0  0  0  0  0  0  0  0
    2.8040   15.9170   -0.5250 C   0  0  0  0  0  0  0  0  0  0  0  0
    1.8030   16.7740    0.1760 C   0  0  0  0  0  0  0  0  0  0  0  0
    0.6330   17.1930   -0.3410 C   0  0  0  0  0  0  0  0  0  0  0  0
    0.2610   16.8870   -1.7970 C   0  0  1  0  0  0  0  0  0  0  0  0
   -0.2790   18.1730   -2.4750 C   0  0  0  0  0  0  0  0  0  0  0  0
   -1.4310   18.8050   -1.6990 C   0  0  0  0  0  0  0  0  0  0  0  0
   -1.0040   19.1490   -0.2740 C   0  0  2  0  0  0  0  0  0  0  0  0
   -0.0240   20.1900   -0.3250 O   0  0  0  0  0  0  0  0  0  0  0  0
   -0.4340   17.9310    0.5050 C   0  0  0  0  0  0  0  0  0  0  0  0
   -1.5760   16.9350    0.8230 C   0  0  0  0  0  0  0  0  0  0  0  0
    0.0890   18.4430    1.8750 C   0  0  0  0  0  0  0  0  0  0  0  0
    1.3810   16.1650   -2.6620 C   0  0  1  0  0  0  0  0  0  0  0  0
    2.3330   17.2270   -3.2940 C   0  0  0  0  0  0  0  0  0  0  0  0
    0.6980   15.4110   -3.8630 C   0  0  0  0  0  0  0  0  0  0  0  0
    0.2230   13.9690   -3.5990 C   0  0  0  0  0  0  0  0  0  0  0  0
    1.3300   13.1400   -2.9400 C   0  0  2  0  0  0  0  0  0  0  0  0
    2.5290   13.0570   -3.9460 C   0  0  0  0  0  0  0  0  0  0  0  0
    0.4091   12.3725   -4.8241 H   0  0  0  0  0  0  0  0  0  0  0  0
    1.6354   11.2701   -5.5364 H   0  0  0  0  0  0  0  0  0  0  0  0
   -0.0993   10.8038   -5.5364 H   0  0  0  0  0  0  0  0  0  0  0  0
    1.8123   10.0702   -3.6503 H   0  0  0  0  0  0  0  0  0  0  0  0
   -0.9617    9.6433   -4.1498 H   0  0  0  0  0  0  0  0  0  0  0  0
    0.2062    8.6661   -3.1378 H   0  0  0  0  0  0  0  0  0  0  0  0
   -0.5985   10.8759   -1.5614 H   0  0  0  0  0  0  0  0  0  0  0  0
   -2.0924   10.1752   -2.3122 H   0  0  0  0  0  0  0  0  0  0  0  0
   -1.4959    8.1816   -1.7761 H   0  0  0  0  0  0  0  0  0  0  0  0
    1.5120    9.7694    1.0855 H   0  0  0  0  0  0  0  0  0  0  0  0
    2.1282    9.1117   -0.4683 H   0  0  0  0  0  0  0  0  0  0  0  0
    1.0131   10.5200   -0.4683 H   0  0  0  0  0  0  0  0  0  0  0  0
    0.2797    7.3343    1.6324 H   0  0  0  0  0  0  0  0  0  0  0  0
   -0.5249    6.6167    0.1956 H   0  0  0  0  0  0  0  0  0  0  0  0
    1.2532    6.8713    0.1956 H   0  0  0  0  0  0  0  0  0  0  0  0
   -0.0800   11.6689   -2.1512 H   0  0  0  0  0  0  0  0  0  0  0  0
    1.5727   10.8477   -0.5918 H   0  0  0  0  0  0  0  0  0  0  0  0
    2.8093   10.7029   -1.8591 H   0  0  0  0  0  0  0  0  0  0  0  0
    2.6830   12.7692    0.1099 H   0  0  0  0  0  0  0  0  0  0  0  0
    3.6723   12.8512   -1.3457 H   0  0  0  0  0  0  0  0  0  0  0  0
    0.8871   13.8177    0.4889 H   0  0  0  0  0  0  0  0  0  0  0  0
   -0.0873   14.7543   -0.6944 H   0  0  0  0  0  0  0  0  0  0  0  0
   -0.1569   12.9594   -0.6944 H   0  0  0  0  0  0  0  0  0  0  0  0
    3.1839   14.9819   -2.3903 H   0  0  0  0  0  0  0  0  0  0  0  0
    3.1464   15.1468    0.1818 H   0  0  0  0  0  0  0  0  0  0  0  0
    3.6035   16.5943   -0.8596 H   0  0  0  0  0  0  0  0  0  0  0  0
    2.0417   17.0900    1.2022 H   0  0  0  0  0  0  0  0  0  0  0  0
   -0.5326   16.1265   -1.7543 H   0  0  0  0  0  0  0  0  0  0  0  0
    0.5400   18.9038   -2.5475 H   0  0  0  0  0  0  0  0  0  0  0  0
   -0.6602   17.8918   -3.4678 H   0  0  0  0  0  0  0  0  0  0  0  0
   -1.7488   19.7248   -2.2117 H   0  0  0  0  0  0  0  0  0  0  0  0
   -2.2609   18.0845   -1.6530 H   0  0  0  0  0  0  0  0  0  0  0  0
   -1.9022   19.4763    0.2701 H   0  0  0  0  0  0  0  0  0  0  0  0
    0.4870   20.1530    0.5010 H   0  0  0  0  0  0  0  0  0  0  0  0
   -1.6859   16.8391    1.9133 H   0  0  0  0  0  0  0  0  0  0  0  0
   -2.5170   17.3060    0.3908 H   0  0  0  0  0  0  0  0  0  0  0  0
   -1.3364   15.9523    0.3908 H   0  0  0  0  0  0  0  0  0  0  0  0
   -0.4412   17.9240    2.6871 H   0  0  0  0  0  0  0  0  0  0  0  0
    1.1676   18.2420    1.9541 H   0  0  0  0  0  0  0  0  0  0  0  0
   -0.0890   19.5256    1.9541 H   0  0  0  0  0  0  0  0  0  0  0  0
    2.8372   17.7895   -2.4944 H   0  0  0  0  0  0  0  0  0  0  0  0
    3.0853   16.7207   -3.9166 H   0  0  0  0  0  0  0  0  0  0  0  0
    1.7478   17.9197   -3.9166 H   0  0  0  0  0  0  0  0  0  0  0  0
   -0.1794   15.9994   -4.1694 H   0  0  0  0  0  0  0  0  0  0  0  0
    1.4825   15.3197   -4.6286 H   0  0  0  0  0  0  0  0  0  0  0  0
   -0.6524   13.9945   -2.9334 H   0  0  0  0  0  0  0  0  0  0  0  0
   -0.0387   13.5039   -4.5609 H   0  0  0  0  0  0  0  0  0  0  0  0
    3.4736   12.9916   -3.3861 H   0  0  0  0  0  0  0  0  0  0  0  0
    2.4154   12.1646   -4.5790 H   0  0  0  0  0  0  0  0  0  0  0  0
    2.5395   13.9566   -4.5790 H   0  0  0  0  0  0  0  0  0  0  0  0
  1  2  1  0
  2  3  1  0
  3  4  1  0
  4  5  1  0
  5  6  1  0
  6  7  1  0
  7  8  1  0
  7  9  1  0
  2 10  1  0
 10 11  1  0
 11 12  1  0
 12 13  1  0
 13 14  1  1
 13 15  1  0
 15 16  1  0
 16 17  1  0
 17 18  2  0
 18 19  1  0
 19 20  1  0
 20 21  1  0
 21 22  1  0
 22 23  1  0
 22 24  1  0
 24 25  1  0
 24 26  1  0
 19 27  1  0
 27 28  1  6
 27 29  1  0
 29 30  1  0
 30 31  1  0
 31 32  1  6
  7  5  1  0
 31 10  1  0
 31 13  1  0
 27 15  1  0
 24 18  1  0
  1 33  1  0
  1 34  1  0
  1 35  1  0
  2 36  1  6
  3 37  1  0
  3 38  1  0
  4 39  1  0
  4 40  1  0
  5 41  1  6
  8 42  1  0
  8 43  1  0
  8 44  1  0
  9 45  1  0
  9 46  1  0
  9 47  1  0
 10 48  1  1
 11 49  1  0
 11 50  1  0
 12 51  1  0
 12 52  1  0
 14 53  1  0
 14 54  1  0
 14 55  1  0
 15 56  1  6
 16 57  1  0
 16 58  1  0
 17 59  1  0
 19 60  1  1
 20 61  1  0
 20 62  1  0
 21 63  1  0
 21 64  1  0
 22 65  1  1
 23 66  1  0
 25 67  1  0
 25 68  1  0
 25 69  1  0
 26 70  1  0
 26 71  1  0
 26 72  1  0
 28 73  1  0
 28 74  1  0
 28 75  1  0
 29 76  1  0
 29 77  1  0
 30 78  1  0
 30 79  1  0
 32 80  1  0
 32 81  1  0
 32 82  1  0
M  END
>  <meeko>  (15) 
{"is_sidechain": [false], "intermolecular_energy": 2.731, "internal_energy": -0.839}

$$$$
EPH_relaxed_0001_pdb2pqr_Repair_355_r2_0001_out
     RDKit          3D

 82 86  0  0  0  0  0  0  0  0999 V2000
    2.6810   19.9210   -1.1360 C   0  0  0  0  0  0  0  0  0  0  0  0
    2.0530   19.0180   -0.0710 C   0  0  2  0  0  0  0  0  0  0  0  0
    2.3690   19.5010    1.3590 C   0  0  0  0  0  0  0  0  0  0  0  0
    3.8380   19.8780    1.5700 C   0  0  0  0  0  0  0  0  0  0  0  0
    4.3800   19.3050    2.8450 C   0  0  2  0  0  0  0  0  0  0  0  0
    5.2230   20.1940    3.5890 O   0  0  0  0  0  0  0  0  0  0  0  0
    5.8510   19.0100    3.0700 C   0  0  0  0  0  0  0  0  0  0  0  0
    6.8720   19.2790    2.0090 C   0  0  0  0  0  0  0  0  0  0  0  0
    6.2280   18.0160    4.1230 C   0  0  0  0  0  0  0  0  0  0  0  0
    2.5350   17.5840   -0.2550 C   0  0  1  0  0  0  0  0  0  0  0  0
    2.9290   16.9090    1.0850 C   0  0  0  0  0  0  0  0  0  0  0  0
    2.5380   15.4140    0.9650 C   0  0  0  0  0  0  0  0  0  0  0  0
    2.2430   15.2070   -0.5390 C   0  0  1  0  0  0  0  0  0  0  0  0
    3.6450   15.0240   -1.2010 C   0  0  0  0  0  0  0  0  0  0  0  0
    1.2770   14.0320   -0.8990 C   0  0  2  0  0  0  0  0  0  0  0  0
    1.7790   12.6310   -0.5090 C   0  0  0  0  0  0  0  0  0  0  0  0
    2.5750   11.9250   -1.5560 C   0  0  0  0  0  0  0  0  0  0  0  0
    2.6370   12.2680   -2.8560 C   0  0  0  0  0  0  0  0  0  0  0  0
    1.7780   13.4120   -3.4100 C   0  0  1  0  0  0  0  0  0  0  0  0
    1.1040   12.9610   -4.7320 C   0  0  0  0  0  0  0  0  0  0  0  0
    2.1100   12.4390   -5.7530 C   0  0  0  0  0  0  0  0  0  0  0  0
    2.9040   11.2650   -5.1860 C   0  0  2  0  0  0  0  0  0  0  0  0
    2.0170   10.1580   -4.9950 O   0  0  0  0  0  0  0  0  0  0  0  0
    3.6200   11.5990   -3.8480 C   0  0  0  0  0  0  0  0  0  0  0  0
    4.7870   12.5810   -4.1130 C   0  0  0  0  0  0  0  0  0  0  0  0
    4.2650   10.2920   -3.3130 C   0  0  0  0  0  0  0  0  0  0  0  0
    0.7470   14.0620   -2.3900 C   0  0  1  0  0  0  0  0  0  0  0  0
   -0.5910   13.2610   -2.4030 C   0  0  0  0  0  0  0  0  0  0  0  0
    0.3970   15.5200   -2.8710 C   0  0  0  0  0  0  0  0  0  0  0  0
    1.3200   16.6530   -2.3850 C   0  0  0  0  0  0  0  0  0  0  0  0
    1.5360   16.5720   -0.8700 C   0  0  2  0  0  0  0  0  0  0  0  0
    0.1460   16.7750   -0.1770 C   0  0  0  0  0  0  0  0  0  0  0  0
    3.2433   20.7295   -0.6460 H   0  0  0  0  0  0  0  0  0  0  0  0
    3.3628   19.3283   -1.7636 H   0  0  0  0  0  0  0  0  0  0  0  0
    1.8881   20.3539   -1.7636 H   0  0  0  0  0  0  0  0  0  0  0  0
    0.9616   19.0625   -0.2010 H   0  0  0  0  0  0  0  0  0  0  0  0
    1.7495   20.3846    1.5721 H   0  0  0  0  0  0  0  0  0  0  0  0
    2.1513   18.6628    2.0372 H   0  0  0  0  0  0  0  0  0  0  0  0
    4.4296   19.4929    0.7263 H   0  0  0  0  0  0  0  0  0  0  0  0
    3.9053   20.9742    1.6309 H   0  0  0  0  0  0  0  0  0  0  0  0
    3.4757   18.6942    2.9834 H   0  0  0  0  0  0  0  0  0  0  0  0
    7.8330   19.5322    2.4806 H   0  0  0  0  0  0  0  0  0  0  0  0
    6.9955   18.3827    1.3833 H   0  0  0  0  0  0  0  0  0  0  0  0
    6.5379   20.1198    1.3833 H   0  0  0  0  0  0  0  0  0  0  0  0
    6.0616   18.4548    5.1179 H   0  0  0  0  0  0  0  0  0  0  0  0
    5.6100   17.1127    4.0126 H   0  0  0  0  0  0  0  0  0  0  0  0
    7.2896   17.7497    4.0126 H   0  0  0  0  0  0  0  0  0  0  0  0
    3.3704   17.7581   -0.9492 H   0  0  0  0  0  0  0  0  0  0  0  0
    4.0118   17.0049    1.2534 H   0  0  0  0  0  0  0  0  0  0  0  0
    2.4146   17.3848    1.9330 H   0  0  0  0  0  0  0  0  0  0  0  0
    3.3671   14.7685    1.2905 H   0  0  0  0  0  0  0  0  0  0  0  0
    1.6763   15.1562    1.5983 H   0  0  0  0  0  0  0  0  0  0  0  0
    4.4103   14.9241   -0.4172 H   0  0  0  0  0  0  0  0  0  0  0  0
    3.6400   14.1189   -1.8261 H   0  0  0  0  0  0  0  0  0  0  0  0
    3.8725   15.9001   -1.8261 H   0  0  0  0  0  0  0  0  0  0  0  0
    0.4123   14.2306   -0.2488 H   0  0  0  0  0  0  0  0  0  0  0  0
    2.4097   12.7329    0.3865 H   0  0  0  0  0  0  0  0  0  0  0  0
    0.8792   12.0194   -0.3466 H   0  0  0  0  0  0  0  0  0  0  0  0
    3.1608   11.0499   -1.2380 H   0  0  0  0  0  0  0  0  0  0  0  0
    2.4709   14.2428   -3.6093 H   0  0  0  0  0  0  0  0  0  0  0  0
    0.3839   12.1609   -4.5056 H   0  0  0  0  0  0  0  0  0  0  0  0
    0.6083   13.8395   -5.1707 H   0  0  0  0  0  0  0  0  0  0  0  0
    1.5708   12.1078   -6.6527 H   0  0  0  0  0  0  0  0  0  0  0  0
    2.8110   13.2496   -6.0011 H   0  0  0  0  0  0  0  0  0  0  0  0
    3.6941   11.0199   -5.9110 H   0  0  0  0  0  0  0  0  0  0  0  0
    2.3040    9.6860   -4.1950 H   0  0  0  0  0  0  0  0  0  0  0  0
    5.1992   12.9279   -3.1540 H   0  0  0  0  0  0  0  0  0  0  0  0
    5.5738   12.0692   -4.6867 H   0  0  0  0  0  0  0  0  0  0  0  0
    4.4172   13.4437   -4.6867 H   0  0  0  0  0  0  0  0  0  0  0  0
    4.2592   10.3038   -2.2131 H   0  0  0  0  0  0  0  0  0  0  0  0
    3.6910    9.4256   -3.6734 H   0  0  0  0  0  0  0  0  0  0  0  0
    5.3018   10.2206   -3.6734 H   0  0  0  0  0  0  0  0  0  0  0  0
   -0.9130   13.0682   -1.3690 H   0  0  0  0  0  0  0  0  0  0  0  0
   -1.3632   13.8455   -2.9246 H   0  0  0  0  0  0  0  0  0  0  0  0
   -0.4406   12.3043   -2.9246 H   0  0  0  0  0  0  0  0  0  0  0  0
    0.4191   15.5217   -3.9708 H   0  0  0  0  0  0  0  0  0  0  0  0
   -0.5858   15.7403   -2.4287 H   0  0  0  0  0  0  0  0  0  0  0  0
    2.2923   16.5678   -2.8923 H   0  0  0  0  0  0  0  0  0  0  0  0
    0.8462   17.6173   -2.6209 H   0  0  0  0  0  0  0  0  0  0  0  0
    0.2746   16.7562    0.9153 H   0  0  0  0  0  0  0  0  0  0  0  0
   -0.2766   17.7444   -0.4798 H   0  0  0  0  0  0  0  0  0  0  0  0
   -0.5362   15.9670   -0.4798 H   0  0  0  0  0  0  0  0  0  0  0  0
  1  2  1  0
  2  3  1  0
  3  4  1  0
  4  5  1  0
  5  6  1  0
  6  7  1  0
  7  8  1  0
  7  9  1  0
  2 10  1  0
 10 11  1  0
 11 12  1  0
 12 13  1  0
 13 14  1  6
 13 15  1  0
 15 16  1  0
 16 17  1  0
 17 18  2  0
 18 19  1  0
 19 20  1  0
 20 21  1  0
 21 22  1  0
 22 23  1  0
 22 24  1  0
 24 25  1  0
 24 26  1  0
 19 27  1  0
 27 28  1  1
 27 29  1  0
 29 30  1  0
 30 31  1  0
 31 32  1  1
  7  5  1  0
 31 10  1  0
 31 13  1  0
 27 15  1  0
 24 18  1  0
  1 33  1  0
  1 34  1  0
  1 35  1  0
  2 36  1  6
  3 37  1  0
  3 38  1  0
  4 39  1  0
  4 40  1  0
  5 41  1  1
  8 42  1  0
  8 43  1  0
  8 44  1  0
  9 45  1  0
  9 46  1  0
  9 47  1  0
 10 48  1  6
 11 49  1  0
 11 50  1  0
 12 51  1  0
 12 52  1  0
 14 53  1  0
 14 54  1  0
 14 55  1  0
 15 56  1  1
 16 57  1  0
 16 58  1  0
 17 59  1  0
 19 60  1  6
 20 61  1  0
 20 62  1  0
 21 63  1  0
 21 64  1  0
 22 65  1  6
 23 66  1  0
 25 67  1  0
 25 68  1  0
 25 69  1  0
 26 70  1  0
 26 71  1  0
 26 72  1  0
 28 73  1  0
 28 74  1  0
 28 75  1  0
 29 76  1  0
 29 77  1  0
 30 78  1  0
 30 79  1  0
 32 80  1  0
 32 81  1  0
 32 82  1  0
M  END
>  <meeko>  (16) 
{"is_sidechain": [false], "intermolecular_energy": 2.731, "internal_energy": -0.839}

$$$$
EPH_relaxed_0001_pdb2pqr_Repair_355_r2_0001_out
     RDKit          3D

 82 86  0  0  0  0  0  0  0  0999 V2000
    3.1170   11.4500   -4.1570 C   0  0  0  0  0  0  0  0  0  0  0  0
    1.9610   12.0200   -4.9840 C   0  0  2  0  0  0  0  0  0  0  0  0
    2.4430   12.6150   -6.3220 C   0  0  0  0  0  0  0  0  0  0  0  0
    1.8300   13.9800   -6.6450 C   0  0  0  0  0  0  0  0  0  0  0  0
    2.3320   14.5190   -7.9500 C   0  0  2  0  0  0  0  0  0  0  0  0
    2.4860   15.9430   -7.9910 O   0  0  0  0  0  0  0  0  0  0  0  0
    1.4970   15.3870   -8.8730 C   0  0  0  0  0  0  0  0  0  0  0  0
    0.0910   15.7660   -8.5280 C   0  0  0  0  0  0  0  0  0  0  0  0
    1.8720   15.4590  -10.3210 C   0  0  0  0  0  0  0  0  0  0  0  0
    1.2200   13.0810   -4.1780 C   0  0  1  0  0  0  0  0  0  0  0  0
   -0.2660   12.7120   -3.9280 C   0  0  0  0  0  0  0  0  0  0  0  0
   -0.6320   13.2540   -2.5230 C   0  0  0  0  0  0  0  0  0  0  0  0
    0.5380   14.1970   -2.1520 C   0  0  1  0  0  0  0  0  0  0  0  0
    0.2220   15.5360   -2.8890 C   0  0  0  0  0  0  0  0  0  0  0  0
    0.7860   14.4230   -0.6250 C   0  0  2  0  0  0  0  0  0  0  0  0
   -0.3740   15.0920    0.1320 C   0  0  0  0  0  0  0  0  0  0  0  0
   -0.3230   16.5830    0.1890 C   0  0  0  0  0  0  0  0  0  0  0  0
    0.7530   17.3400   -0.0940 C   0  0  0  0  0  0  0  0  0  0  0  0
    2.1050   16.6940   -0.4250 C   0  0  1  0  0  0  0  0  0  0  0  0
    3.2290   17.4070    0.3730 C   0  0  0  0  0  0  0  0  0  0  0  0
    3.2340   18.9170    0.1540 C   0  0  0  0  0  0  0  0  0  0  0  0
    1.8930   19.5300    0.5480 C   0  0  2  0  0  0  0  0  0  0  0  0
    1.7240   19.3980    1.9630 O   0  0  0  0  0  0  0  0  0  0  0  0
    0.6840   18.8840   -0.1850 C   0  0  0  0  0  0  0  0  0  0  0  0
    0.7090   19.2850   -1.6810 C   0  0  0  0  0  0  0  0  0  0  0  0
   -0.6150   19.4940    0.4060 C   0  0  0  0  0  0  0  0  0  0  0  0
    2.1700   15.1120   -0.2890 C   0  0  1  0  0  0  0  0  0  0  0  0
    2.5180   14.7180    1.1800 C   0  0  0  0  0  0  0  0  0  0  0  0
    3.3440   14.5660   -1.1850 C   0  0  0  0  0  0  0  0  0  0  0  0
    3.0060   14.2490   -2.6540 C   0  0  0  0  0  0  0  0  0  0  0  0
    1.7440   13.3870   -2.7530 C   0  0  2  0  0  0  0  0  0  0  0  0
    2.0390   12.0240   -2.0390 C   0  0  0  0  0  0  0  0  0  0  0  0
    2.8915   11.5612   -3.0861 H   0  0  0  0  0  0  0  0  0  0  0  0
    3.2477   10.3841   -4.3954 H   0  0  0  0  0  0  0  0  0  0  0  0
    4.0421   11.9952   -4.3954 H   0  0  0  0  0  0  0  0  0  0  0  0
    1.2799   11.1888   -5.2192 H   0  0  0  0  0  0  0  0  0  0  0  0
    3.5364   12.7269   -6.2784 H   0  0  0  0  0  0  0  0  0  0  0  0
    2.1231   11.9232   -7.1152 H   0  0  0  0  0  0  0  0  0  0  0  0
    0.7363   13.8755   -6.6997 H   0  0  0  0  0  0  0  0  0  0  0  0
    2.1200   14.6826   -5.8499 H   0  0  0  0  0  0  0  0  0  0  0  0
    2.9204   13.6066   -8.1270 H   0  0  0  0  0  0  0  0  0  0  0  0
   -0.0226   15.7966   -7.4343 H   0  0  0  0  0  0  0  0  0  0  0  0
   -0.1352   16.7572   -8.9480 H   0  0  0  0  0  0  0  0  0  0  0  0
   -0.6027   15.0228   -8.9480 H   0  0  0  0  0  0  0  0  0  0  0  0
    2.9486   15.6657  -10.4111 H   0  0  0  0  0  0  0  0  0  0  0  0
    1.6408   14.5001  -10.8078 H   0  0  0  0  0  0  0  0  0  0  0  0
    1.3021   16.2641  -10.8078 H   0  0  0  0  0  0  0  0  0  0  0  0
    1.3779   13.9517   -4.8315 H   0  0  0  0  0  0  0  0  0  0  0  0
   -0.9056   13.1781   -4.6920 H   0  0  0  0  0  0  0  0  0  0  0  0
   -0.4169   11.6238   -3.9827 H   0  0  0  0  0  0  0  0  0  0  0  0
   -1.5819   13.8078   -2.5556 H   0  0  0  0  0  0  0  0  0  0  0  0
   -0.7678   12.4479   -1.7870 H   0  0  0  0  0  0  0  0  0  0  0  0
    0.0353   16.3272   -2.1480 H   0  0  0  0  0  0  0  0  0  0  0  0
    1.0781   15.8186   -3.5192 H   0  0  0  0  0  0  0  0  0  0  0  0
   -0.6701   15.4060   -3.5192 H   0  0  0  0  0  0  0  0  0  0  0  0
    0.8398   13.3943   -0.2392 H   0  0  0  0  0  0  0  0  0  0  0  0
   -1.3135   14.8027   -0.3615 H   0  0  0  0  0  0  0  0  0  0  0  0
   -0.2980   14.7450    1.1731 H   0  0  0  0  0  0  0  0  0  0  0  0
   -1.2428   17.1071    0.4876 H   0  0  0  0  0  0  0  0  0  0  0  0
    2.2583   16.8462   -1.5036 H   0  0  0  0  0  0  0  0  0  0  0  0
    3.0823   17.2065    1.4446 H   0  0  0  0  0  0  0  0  0  0  0  0
    4.1926   17.0145    0.0161 H   0  0  0  0  0  0  0  0  0  0  0  0
    4.0293   19.3669    0.7665 H   0  0  0  0  0  0  0  0  0  0  0  0
    3.4110   19.1163   -0.9132 H   0  0  0  0  0  0  0  0  0  0  0  0
    1.9130   20.5878    0.2468 H   0  0  0  0  0  0  0  0  0  0  0  0
    1.7320   18.4480    2.1730 H   0  0  0  0  0  0  0  0  0  0  0  0
    0.7772   20.3796   -1.7661 H   0  0  0  0  0  0  0  0  0  0  0  0
    1.5802   18.8242   -2.1696 H   0  0  0  0  0  0  0  0  0  0  0  0
   -0.2126   18.9360   -2.1696 H   0  0  0  0  0  0  0  0  0  0  0  0
   -0.5644   19.4702    1.5046 H   0  0  0  0  0  0  0  0  0  0  0  0
   -0.7189   20.5350    0.0661 H   0  0  0  0  0  0  0  0  0  0  0  0
   -1.4824   18.9091    0.0661 H   0  0  0  0  0  0  0  0  0  0  0  0
    1.9534   15.3573    1.8746 H   0  0  0  0  0  0  0  0  0  0  0  0
    2.2498   13.6649    1.3505 H   0  0  0  0  0  0  0  0  0  0  0  0
    3.5962   14.8540    1.3505 H   0  0  0  0  0  0  0  0  0  0  0  0
    4.1435   15.3215   -1.1829 H   0  0  0  0  0  0  0  0  0  0  0  0
    3.6220   13.6000   -0.7384 H   0  0  0  0  0  0  0  0  0  0  0  0
    2.8414   15.1915   -3.1967 H   0  0  0  0  0  0  0  0  0  0  0  0
    3.8462   13.6923   -3.0947 H   0  0  0  0  0  0  0  0  0  0  0  0
    2.0081   12.1670   -0.9488 H   0  0  0  0  0  0  0  0  0  0  0  0
    1.2802   11.2840   -2.3335 H   0  0  0  0  0  0  0  0  0  0  0  0
    3.0359   11.6640   -2.3335 H   0  0  0  0  0  0  0  0  0  0  0  0
  1  2  1  0
  2  3  1  0
  3  4  1  0
  4  5  1  0
  5  6  1  0
  6  7  1  0
  7  8  1  0
  7  9  1  0
  2 10  1  0
 10 11  1  0
 11 12  1  0
 12 13  1  0
 13 14  1  6
 13 15  1  0
 15 16  1  0
 16 17  1  0
 17 18  2  0
 18 19  1  0
 19 20  1  0
 20 21  1  0
 21 22  1  0
 22 23  1  0
 22 24  1  0
 24 25  1  0
 24 26  1  0
 19 27  1  0
 27 28  1  1
 27 29  1  0
 29 30  1  0
 30 31  1  0
 31 32  1  1
  7  5  1  0
 31 10  1  0
 31 13  1  0
 27 15  1  0
 24 18  1  0
  1 33  1  0
  1 34  1  0
  1 35  1  0
  2 36  1  6
  3 37  1  0
  3 38  1  0
  4 39  1  0
  4 40  1  0
  5 41  1  6
  8 42  1  0
  8 43  1  0
  8 44  1  0
  9 45  1  0
  9 46  1  0
  9 47  1  0
 10 48  1  6
 11 49  1  0
 11 50  1  0
 12 51  1  0
 12 52  1  0
 14 53  1  0
 14 54  1  0
 14 55  1  0
 15 56  1  1
 16 57  1  0
 16 58  1  0
 17 59  1  0
 19 60  1  6
 20 61  1  0
 20 62  1  0
 21 63  1  0
 21 64  1  0
 22 65  1  1
 23 66  1  0
 25 67  1  0
 25 68  1  0
 25 69  1  0
 26 70  1  0
 26 71  1  0
 26 72  1  0
 28 73  1  0
 28 74  1  0
 28 75  1  0
 29 76  1  0
 29 77  1  0
 30 78  1  0
 30 79  1  0
 32 80  1  0
 32 81  1  0
 32 82  1  0
M  END
>  <meeko>  (17) 
{"is_sidechain": [false], "intermolecular_energy": 2.731, "internal_energy": -0.839}

$$$$
EPH_relaxed_0001_pdb2pqr_Repair_355_r2_0001_out
     RDKit          3D

 82 86  0  0  0  0  0  0  0  0999 V2000
    3.7700   19.4590    0.8880 C   0  0  0  0  0  0  0  0  0  0  0  0
    2.6400   18.7800    0.1090 C   0  0  2  0  0  0  0  0  0  0  0  0
    1.2880   18.8780    0.8430 C   0  0  0  0  0  0  0  0  0  0  0  0
    0.5460   20.1940    0.5910 C   0  0  0  0  0  0  0  0  0  0  0  0
   -0.9400   20.0160    0.6700 C   0  0  2  0  0  0  0  0  0  0  0  0
   -1.4110   18.7250    0.2620 O   0  0  0  0  0  0  0  0  0  0  0  0
   -1.8270   19.8370   -0.5470 C   0  0  0  0  0  0  0  0  0  0  0  0
   -1.2590   19.8280   -1.9320 C   0  0  0  0  0  0  0  0  0  0  0  0
   -3.2840   20.1590   -0.4250 C   0  0  0  0  0  0  0  0  0  0  0  0
    2.9900   17.3180   -0.1450 C   0  0  1  0  0  0  0  0  0  0  0  0
    3.3410   16.5520    1.1590 C   0  0  0  0  0  0  0  0  0  0  0  0
    2.8160   15.1040    0.9820 C   0  0  0  0  0  0  0  0  0  0  0  0
    2.4830   14.9910   -0.5240 C   0  0  1  0  0  0  0  0  0  0  0  0
    3.8540   14.7130   -1.2180 C   0  0  0  0  0  0  0  0  0  0  0  0
    1.4110   13.9230   -0.9170 C   0  0  2  0  0  0  0  0  0  0  0  0
    1.7920   12.4670   -0.5950 C   0  0  0  0  0  0  0  0  0  0  0  0
    2.5070   11.7400   -1.6850 C   0  0  0  0  0  0  0  0  0  0  0  0
    2.5810   12.1330   -2.9700 C   0  0  0  0  0  0  0  0  0  0  0  0
    1.8210   13.3720   -3.4600 C   0  0  1  0  0  0  0  0  0  0  0  0
    1.0910   13.0410   -4.7880 C   0  0  0  0  0  0  0  0  0  0  0  0
    2.0320   12.4770   -5.8480 C   0  0  0  0  0  0  0  0  0  0  0  0
    2.7260   11.2130   -5.3460 C   0  0  2  0  0  0  0  0  0  0  0  0
    1.7460   10.1830   -5.1860 O   0  0  0  0  0  0  0  0  0  0  0  0
    3.4870   11.4230   -4.0070 C   0  0  0  0  0  0  0  0  0  0  0  0
    4.7340   12.3090   -4.2500 C   0  0  0  0  0  0  0  0  0  0  0  0
    4.0200   10.0420   -3.5390 C   0  0  0  0  0  0  0  0  0  0  0  0
    0.8660   14.0650   -2.3950 C   0  0  1  0  0  0  0  0  0  0  0  0
   -0.5380   13.3870   -2.4190 C   0  0  0  0  0  0  0  0  0  0  0  0
    0.6400   15.5680   -2.8080 C   0  0  0  0  0  0  0  0  0  0  0  0
    1.6680   16.5920   -2.2900 C   0  0  0  0  0  0  0  0  0  0  0  0
    1.8970   16.4260   -0.7850 C   0  0  2  0  0  0  0  0  0  0  0  0
    0.5400   16.7210   -0.0590 C   0  0  0  0  0  0  0  0  0  0  0  0
    3.5883   19.3498    1.9674 H   0  0  0  0  0  0  0  0  0  0  0  0
    4.7293   18.9876    0.6281 H   0  0  0  0  0  0  0  0  0  0  0  0
    3.8041   20.5273    0.6281 H   0  0  0  0  0  0  0  0  0  0  0  0
    2.5341   19.3093   -0.8494 H   0  0  0  0  0  0  0  0  0  0  0  0
    0.6488   18.0486    0.5061 H   0  0  0  0  0  0  0  0  0  0  0  0
    1.5026   18.8306    1.9208 H   0  0  0  0  0  0  0  0  0  0  0  0
    0.8577   20.9295    1.3472 H   0  0  0  0  0  0  0  0  0  0  0  0
    0.7966   20.5405   -0.4225 H   0  0  0  0  0  0  0  0  0  0  0  0
   -0.9991   20.6966    1.5321 H   0  0  0  0  0  0  0  0  0  0  0  0
   -0.1605   19.8106   -1.8777 H   0  0  0  0  0  0  0  0  0  0  0  0
   -1.6138   18.9354   -2.4680 H   0  0  0  0  0  0  0  0  0  0  0  0
   -1.5853   20.7314   -2.4680 H   0  0  0  0  0  0  0  0  0  0  0  0
   -3.5583   20.2196    0.6385 H   0  0  0  0  0  0  0  0  0  0  0  0
   -3.4883   21.1240   -0.9119 H   0  0  0  0  0  0  0  0  0  0  0  0
   -3.8759   19.3700   -0.9119 H   0  0  0  0  0  0  0  0  0  0  0  0
    3.8276   17.4482   -0.8460 H   0  0  0  0  0  0  0  0  0  0  0  0
    4.4303   16.5440    1.3121 H   0  0  0  0  0  0  0  0  0  0  0  0
    2.8833   17.0338    2.0356 H   0  0  0  0  0  0  0  0  0  0  0  0
    3.5884   14.3736    1.2648 H   0  0  0  0  0  0  0  0  0  0  0  0
    1.9436   14.8959    1.6188 H   0  0  0  0  0  0  0  0  0  0  0  0
    4.6276   14.5561   -0.4519 H   0  0  0  0  0  0  0  0  0  0  0  0
    3.7716   13.8133   -1.8455 H   0  0  0  0  0  0  0  0  0  0  0  0
    4.1285   15.5738   -1.8455 H   0  0  0  0  0  0  0  0  0  0  0  0
    0.5758   14.1686   -0.2446 H   0  0  0  0  0  0  0  0  0  0  0  0
    2.4419   12.4739    0.2924 H   0  0  0  0  0  0  0  0  0  0  0  0
    0.8439   11.9307   -0.4420 H   0  0  0  0  0  0  0  0  0  0  0  0
    3.0168   10.8034   -1.4150 H   0  0  0  0  0  0  0  0  0  0  0  0
    2.5827   14.1458   -3.6363 H   0  0  0  0  0  0  0  0  0  0  0  0
    0.3054   12.2988   -4.5830 H   0  0  0  0  0  0  0  0  0  0  0  0
    0.6699   13.9785   -5.1802 H   0  0  0  0  0  0  0  0  0  0  0  0
    1.4528   12.2349   -6.7512 H   0  0  0  0  0  0  0  0  0  0  0  0
    2.7992   13.2323   -6.0735 H   0  0  0  0  0  0  0  0  0  0  0  0
    3.4809   10.9307   -6.0946 H   0  0  0  0  0  0  0  0  0  0  0  0
    1.8860    9.7770   -4.3130 H   0  0  0  0  0  0  0  0  0  0  0  0
    5.1618   12.6130   -3.2833 H   0  0  0  0  0  0  0  0  0  0  0  0
    5.4831   11.7395   -4.8196 H   0  0  0  0  0  0  0  0  0  0  0  0
    4.4427   13.2038   -4.8196 H   0  0  0  0  0  0  0  0  0  0  0  0
    4.0333   10.0075   -2.4396 H   0  0  0  0  0  0  0  0  0  0  0  0
    3.3643    9.2466   -3.9229 H   0  0  0  0  0  0  0  0  0  0  0  0
    5.0401    9.8934   -3.9229 H   0  0  0  0  0  0  0  0  0  0  0  0
   -0.8825   13.2206   -1.3877 H   0  0  0  0  0  0  0  0  0  0  0  0
   -1.2515   14.0398   -2.9431 H   0  0  0  0  0  0  0  0  0  0  0  0
   -0.4704   12.4223   -2.9431 H   0  0  0  0  0  0  0  0  0  0  0  0
    0.6470   15.6160   -3.9069 H   0  0  0  0  0  0  0  0  0  0  0  0
   -0.3135   15.8551   -2.3405 H   0  0  0  0  0  0  0  0  0  0  0  0
    2.6216   16.4429   -2.8176 H   0  0  0  0  0  0  0  0  0  0  0  0
    1.2790   17.6040   -2.4759 H   0  0  0  0  0  0  0  0  0  0  0  0
    0.6920   16.6880    1.0299 H   0  0  0  0  0  0  0  0  0  0  0  0
    0.1785   17.7187   -0.3487 H   0  0  0  0  0  0  0  0  0  0  0  0
   -0.2031   15.9634   -0.3487 H   0  0  0  0  0  0  0  0  0  0  0  0
  1  2  1  0
  2  3  1  0
  3  4  1  0
  4  5  1  0
  5  6  1  0
  6  7  1  0
  7  8  1  0
  7  9  1  0
  2 10  1  0
 10 11  1  0
 11 12  1  0
 12 13  1  0
 13 14  1  6
 13 15  1  0
 15 16  1  0
 16 17  1  0
 17 18  2  0
 18 19  1  0
 19 20  1  0
 20 21  1  0
 21 22  1  0
 22 23  1  0
 22 24  1  0
 24 25  1  0
 24 26  1  0
 19 27  1  0
 27 28  1  1
 27 29  1  0
 29 30  1  0
 30 31  1  0
 31 32  1  1
  7  5  1  0
 31 10  1  0
 31 13  1  0
 27 15  1  0
 24 18  1  0
  1 33  1  0
  1 34  1  0
  1 35  1  0
  2 36  1  6
  3 37  1  0
  3 38  1  0
  4 39  1  0
  4 40  1  0
  5 41  1  1
  8 42  1  0
  8 43  1  0
  8 44  1  0
  9 45  1  0
  9 46  1  0
  9 47  1  0
 10 48  1  6
 11 49  1  0
 11 50  1  0
 12 51  1  0
 12 52  1  0
 14 53  1  0
 14 54  1  0
 14 55  1  0
 15 56  1  1
 16 57  1  0
 16 58  1  0
 17 59  1  0
 19 60  1  6
 20 61  1  0
 20 62  1  0
 21 63  1  0
 21 64  1  0
 22 65  1  6
 23 66  1  0
 25 67  1  0
 25 68  1  0
 25 69  1  0
 26 70  1  0
 26 71  1  0
 26 72  1  0
 28 73  1  0
 28 74  1  0
 28 75  1  0
 29 76  1  0
 29 77  1  0
 30 78  1  0
 30 79  1  0
 32 80  1  0
 32 81  1  0
 32 82  1  0
M  END
>  <meeko>  (18) 
{"is_sidechain": [false], "intermolecular_energy": 2.731, "internal_energy": -0.839}

$$$$
EPH_relaxed_0001_pdb2pqr_Repair_355_r2_0001_out
     RDKit          3D

 82 86  0  0  0  0  0  0  0  0999 V2000
    0.4020   10.2890   -4.0970 C   0  0  0  0  0  0  0  0  0  0  0  0
    1.8100   10.8900   -4.0660 C   0  0  2  0  0  0  0  0  0  0  0  0
    2.6290   10.3870   -2.8610 C   0  0  0  0  0  0  0  0  0  0  0  0
    1.8700    9.4030   -1.9680 C   0  0  0  0  0  0  0  0  0  0  0  0
    1.7460    9.9100   -0.5630 C   0  0  2  0  0  0  0  0  0  0  0  0
    1.3540    8.9210    0.3980 O   0  0  0  0  0  0  0  0  0  0  0  0
    0.4270    9.9970    0.1820 C   0  0  0  0  0  0  0  0  0  0  0  0
   -0.8590    9.5720   -0.4560 C   0  0  0  0  0  0  0  0  0  0  0  0
    0.3180   10.9420    1.3380 C   0  0  0  0  0  0  0  0  0  0  0  0
    1.7250   12.4120   -4.0390 C   0  0  1  0  0  0  0  0  0  0  0  0
    0.8470   12.9810   -5.1860 C   0  0  0  0  0  0  0  0  0  0  0  0
    0.1260   14.2310   -4.6180 C   0  0  0  0  0  0  0  0  0  0  0  0
    0.8560   14.5330   -3.2890 C   0  0  1  0  0  0  0  0  0  0  0  0
    2.1440   15.3090   -3.7050 C   0  0  0  0  0  0  0  0  0  0  0  0
    0.0350   15.3130   -2.2110 C   0  0  2  0  0  0  0  0  0  0  0  0
   -0.4060   16.7280   -2.6240 C   0  0  0  0  0  0  0  0  0  0  0  0
    0.5520   17.8200   -2.2800 C   0  0  0  0  0  0  0  0  0  0  0  0
    1.5800   17.7160   -1.4170 C   0  0  0  0  0  0  0  0  0  0  0  0
    1.8030   16.4310   -0.6090 C   0  0  1  0  0  0  0  0  0  0  0  0
    2.0750   16.7930    0.8740 C   0  0  0  0  0  0  0  0  0  0  0  0
    3.2200   17.7890    1.0330 C   0  0  0  0  0  0  0  0  0  0  0  0
    2.9350   19.0760    0.2630 C   0  0  2  0  0  0  0  0  0  0  0  0
    1.8250   19.7410    0.8740 O   0  0  0  0  0  0  0  0  0  0  0  0
    2.6360   18.8350   -1.2430 C   0  0  0  0  0  0  0  0  0  0  0  0
    3.9330   18.3960   -1.9670 C   0  0  0  0  0  0  0  0  0  0  0  0
    2.2270   20.1940   -1.8710 C   0  0  0  0  0  0  0  0  0  0  0  0
    0.6890   15.3090   -0.7700 C   0  0  1  0  0  0  0  0  0  0  0  0
   -0.4680   15.5600    0.2450 C   0  0  0  0  0  0  0  0  0  0  0  0
    1.3110   13.9110   -0.3980 C   0  0  0  0  0  0  0  0  0  0  0  0
    2.0040   13.1350   -1.5340 C   0  0  0  0  0  0  0  0  0  0  0  0
    1.1110   13.0680   -2.7770 C   0  0  2  0  0  0  0  0  0  0  0  0
   -0.1830   12.2730   -2.3940 C   0  0  0  0  0  0  0  0  0  0  0  0
    0.0455   10.1368   -3.0675 H   0  0  0  0  0  0  0  0  0  0  0  0
   -0.2781   10.9752   -4.6229 H   0  0  0  0  0  0  0  0  0  0  0  0
    0.4271    9.3232   -4.6229 H   0  0  0  0  0  0  0  0  0  0  0  0
    2.3299   10.5628   -4.9785 H   0  0  0  0  0  0  0  0  0  0  0  0
    3.5322    9.8863   -3.2399 H   0  0  0  0  0  0  0  0  0  0  0  0
    2.8639   11.2661   -2.2429 H   0  0  0  0  0  0  0  0  0  0  0  0
    0.8623    9.2505   -2.3820 H   0  0  0  0  0  0  0  0  0  0  0  0
    2.4335    8.4586   -1.9428 H   0  0  0  0  0  0  0  0  0  0  0  0
    2.5475   10.6441   -0.7323 H   0  0  0  0  0  0  0  0  0  0  0  0
   -1.5936    9.3292    0.3260 H   0  0  0  0  0  0  0  0  0  0  0  0
   -1.2460   10.3900   -1.0814 H   0  0  0  0  0  0  0  0  0  0  0  0
   -0.6823    8.6845   -1.0814 H   0  0  0  0  0  0  0  0  0  0  0  0
    0.3831   10.3779    2.2801 H   0  0  0  0  0  0  0  0  0  0  0  0
    1.1377   11.6741    1.2916 H   0  0  0  0  0  0  0  0  0  0  0  0
   -0.6468   11.4683    1.2916 H   0  0  0  0  0  0  0  0  0  0  0  0
    2.7949   12.6580   -4.1076 H   0  0  0  0  0  0  0  0  0  0  0  0
    1.4778   13.2635   -6.0417 H   0  0  0  0  0  0  0  0  0  0  0  0
    0.1221   12.2322   -5.5378 H   0  0  0  0  0  0  0  0  0  0  0  0
    0.2159   15.0798   -5.3119 H   0  0  0  0  0  0  0  0  0  0  0  0
   -0.9510   14.0609   -4.4727 H   0  0  0  0  0  0  0  0  0  0  0  0
    2.6836   15.6341   -2.8032 H   0  0  0  0  0  0  0  0  0  0  0  0
    2.7918   14.6507   -4.3025 H   0  0  0  0  0  0  0  0  0  0  0  0
    1.8648   16.1893   -4.3025 H   0  0  0  0  0  0  0  0  0  0  0  0
   -0.8890   14.7200   -2.1439 H   0  0  0  0  0  0  0  0  0  0  0  0
   -0.5512   16.7341   -3.7144 H   0  0  0  0  0  0  0  0  0  0  0  0
   -1.3243   16.9386   -2.0562 H   0  0  0  0  0  0  0  0  0  0  0  0
    0.4055   18.7921   -2.7735 H   0  0  0  0  0  0  0  0  0  0  0  0
    2.6906   15.9480   -1.0436 H   0  0  0  0  0  0  0  0  0  0  0  0
    1.1626   17.2334    1.3025 H   0  0  0  0  0  0  0  0  0  0  0  0
    2.3621   15.8683    1.3960 H   0  0  0  0  0  0  0  0  0  0  0  0
    3.3439   18.0277    2.0996 H   0  0  0  0  0  0  0  0  0  0  0  0
    4.1380   17.3355    0.6310 H   0  0  0  0  0  0  0  0  0  0  0  0
    3.8428   19.6957    0.3067 H   0  0  0  0  0  0  0  0  0  0  0  0
    2.0720   19.9450    1.7910 H   0  0  0  0  0  0  0  0  0  0  0  0
    4.6992   18.1367   -1.2216 H   0  0  0  0  0  0  0  0  0  0  0  0
    3.7225   17.5191   -2.5968 H   0  0  0  0  0  0  0  0  0  0  0  0
    4.2984   19.2205   -2.5968 H   0  0  0  0  0  0  0  0  0  0  0  0
    2.0094   20.9169   -1.0710 H   0  0  0  0  0  0  0  0  0  0  0  0
    3.0509   20.5730   -2.4936 H   0  0  0  0  0  0  0  0  0  0  0  0
    1.3308   20.0553   -2.4936 H   0  0  0  0  0  0  0  0  0  0  0  0
   -0.0804   15.4759    1.2710 H   0  0  0  0  0  0  0  0  0  0  0  0
   -0.8795   16.5683    0.0900 H   0  0  0  0  0  0  0  0  0  0  0  0
   -1.2603   14.8128    0.0900 H   0  0  0  0  0  0  0  0  0  0  0  0
    2.0562   14.0783    0.3936 H   0  0  0  0  0  0  0  0  0  0  0  0
    0.4563   13.2853   -0.1015 H   0  0  0  0  0  0  0  0  0  0  0  0
    2.9451   13.6418   -1.7940 H   0  0  0  0  0  0  0  0  0  0  0  0
    2.2014   12.1095   -1.1885 H   0  0  0  0  0  0  0  0  0  0  0  0
   -0.2698   12.2196   -1.2987 H   0  0  0  0  0  0  0  0  0  0  0  0
   -1.0641   12.7858   -2.8071 H   0  0  0  0  0  0  0  0  0  0  0  0
   -0.1238   11.2553   -2.8071 H   0  0  0  0  0  0  0  0  0  0  0  0
  1  2  1  0
  2  3  1  0
  3  4  1  0
  4  5  1  0
  5  6  1  0
  6  7  1  0
  7  8  1  0
  7  9  1  0
  2 10  1  0
 10 11  1  0
 11 12  1  0
 12 13  1  0
 13 14  1  6
 13 15  1  0
 15 16  1  0
 16 17  1  0
 17 18  2  0
 18 19  1  0
 19 20  1  0
 20 21  1  0
 21 22  1  0
 22 23  1  0
 22 24  1  0
 24 25  1  0
 24 26  1  0
 19 27  1  0
 27 28  1  1
 27 29  1  0
 29 30  1  0
 30 31  1  0
 31 32  1  1
  7  5  1  0
 31 10  1  0
 31 13  1  0
 27 15  1  0
 24 18  1  0
  1 33  1  0
  1 34  1  0
  1 35  1  0
  2 36  1  6
  3 37  1  0
  3 38  1  0
  4 39  1  0
  4 40  1  0
  5 41  1  1
  8 42  1  0
  8 43  1  0
  8 44  1  0
  9 45  1  0
  9 46  1  0
  9 47  1  0
 10 48  1  6
 11 49  1  0
 11 50  1  0
 12 51  1  0
 12 52  1  0
 14 53  1  0
 14 54  1  0
 14 55  1  0
 15 56  1  1
 16 57  1  0
 16 58  1  0
 17 59  1  0
 19 60  1  6
 20 61  1  0
 20 62  1  0
 21 63  1  0
 21 64  1  0
 22 65  1  6
 23 66  1  0
 25 67  1  0
 25 68  1  0
 25 69  1  0
 26 70  1  0
 26 71  1  0
 26 72  1  0
 28 73  1  0
 28 74  1  0
 28 75  1  0
 29 76  1  0
 29 77  1  0
 30 78  1  0
 30 79  1  0
 32 80  1  0
 32 81  1  0
 32 82  1  0
M  END
>  <meeko>  (19) 
{"is_sidechain": [false], "intermolecular_energy": 2.731, "internal_energy": -0.839}

$$$$
EPH_relaxed_0001_pdb2pqr_Repair_355_r2_0001_out
     RDKit          3D

 82 86  0  0  0  0  0  0  0  0999 V2000
    3.5480    9.5860   -0.2100 C   0  0  0  0  0  0  0  0  0  0  0  0
    2.1540   10.0580   -0.6340 C   0  0  2  0  0  0  0  0  0  0  0  0
    1.4450    9.0340   -1.5430 C   0  0  0  0  0  0  0  0  0  0  0  0
    0.2430    8.3530   -0.8820 C   0  0  0  0  0  0  0  0  0  0  0  0
   -0.8330    8.0410   -1.8770 C   0  0  2  0  0  0  0  0  0  0  0  0
   -1.4580    9.1910   -2.4640 O   0  0  0  0  0  0  0  0  0  0  0  0
   -2.3000    8.3580   -1.6500 C   0  0  0  0  0  0  0  0  0  0  0  0
   -2.7700    9.0140   -0.3900 C   0  0  0  0  0  0  0  0  0  0  0  0
   -3.3250    7.5940   -2.4290 C   0  0  0  0  0  0  0  0  0  0  0  0
    2.2550   11.4030   -1.3450 C   0  0  1  0  0  0  0  0  0  0  0  0
    1.9980   11.2920   -2.8710 C   0  0  0  0  0  0  0  0  0  0  0  0
    1.2700   12.5930   -3.2970 C   0  0  0  0  0  0  0  0  0  0  0  0
    1.4270   13.5420   -2.0870 C   0  0  1  0  0  0  0  0  0  0  0  0
    2.8580   14.1470   -2.2330 C   0  0  0  0  0  0  0  0  0  0  0  0
    0.3420   14.6580   -1.9380 C   0  0  2  0  0  0  0  0  0  0  0  0
    0.2870   15.6730   -3.0940 C   0  0  0  0  0  0  0  0  0  0  0  0
    1.1480   16.8800   -2.9250 C   0  0  0  0  0  0  0  0  0  0  0  0
    1.7140   17.2810   -1.7710 C   0  0  0  0  0  0  0  0  0  0  0  0
    1.4280   16.5460   -0.4560 C   0  0  1  0  0  0  0  0  0  0  0  0
    1.1150   17.5790    0.6580 C   0  0  0  0  0  0  0  0  0  0  0  0
    2.2100   18.6320    0.8040 C   0  0  0  0  0  0  0  0  0  0  0  0
    2.4240   19.3810   -0.5090 C   0  0  2  0  0  0  0  0  0  0  0  0
    1.2540   20.1530   -0.7960 O   0  0  0  0  0  0  0  0  0  0  0  0
    2.7380   18.4410   -1.7060 C   0  0  0  0  0  0  0  0  0  0  0  0
    4.1520   17.8330   -1.5350 C   0  0  0  0  0  0  0  0  0  0  0  0
    2.7920   19.3090   -2.9930 C   0  0  0  0  0  0  0  0  0  0  0  0
    0.3460   15.3840   -0.5320 C   0  0  1  0  0  0  0  0  0  0  0  0
   -1.0830   15.9740   -0.3310 C   0  0  0  0  0  0  0  0  0  0  0  0
    0.5840   14.3810    0.6580 C   0  0  0  0  0  0  0  0  0  0  0  0
    1.5770   13.2310    0.4090 C   0  0  0  0  0  0  0  0  0  0  0  0
    1.2670   12.5140   -0.9080 C   0  0  2  0  0  0  0  0  0  0  0  0
   -0.1580   11.8770   -0.7820 C   0  0  0  0  0  0  0  0  0  0  0  0
    3.6098    9.5651    0.8881 H   0  0  0  0  0  0  0  0  0  0  0  0
    3.7297    8.5763   -0.6068 H   0  0  0  0  0  0  0  0  0  0  0  0
    4.3057   10.2777   -0.6068 H   0  0  0  0  0  0  0  0  0  0  0  0
    1.5489   10.1636    0.2785 H   0  0  0  0  0  0  0  0  0  0  0  0
    1.0955    9.5550   -2.4465 H   0  0  0  0  0  0  0  0  0  0  0  0
    2.1768    8.2449   -1.7704 H   0  0  0  0  0  0  0  0  0  0  0  0
    0.5775    7.4159   -0.4130 H   0  0  0  0  0  0  0  0  0  0  0  0
   -0.1724    9.0424   -0.1323 H   0  0  0  0  0  0  0  0  0  0  0  0
   -0.3158    7.1196   -2.1827 H   0  0  0  0  0  0  0  0  0  0  0  0
   -2.3765    8.4648    0.4781 H   0  0  0  0  0  0  0  0  0  0  0  0
   -2.4094   10.0528   -0.3609 H   0  0  0  0  0  0  0  0  0  0  0  0
   -3.8696    9.0066   -0.3609 H   0  0  0  0  0  0  0  0  0  0  0  0
   -4.0087    7.0844   -1.7342 H   0  0  0  0  0  0  0  0  0  0  0  0
   -3.8965    8.2882   -3.0626 H   0  0  0  0  0  0  0  0  0  0  0  0
   -2.8230    6.8480   -3.0626 H   0  0  0  0  0  0  0  0  0  0  0  0
    3.2819   11.6826   -1.0671 H   0  0  0  0  0  0  0  0  0  0  0  0
    2.9522   11.1978   -3.4101 H   0  0  0  0  0  0  0  0  0  0  0  0
    1.3919   10.4047   -3.1063 H   0  0  0  0  0  0  0  0  0  0  0  0
    1.7396   13.0252   -4.1929 H   0  0  0  0  0  0  0  0  0  0  0  0
    0.2152   12.4157   -3.5539 H   0  0  0  0  0  0  0  0  0  0  0  0
    3.2836   14.3269   -1.2348 H   0  0  0  0  0  0  0  0  0  0  0  0
    3.4993   13.4430   -2.7836 H   0  0  0  0  0  0  0  0  0  0  0  0
    2.7998   15.0975   -2.7836 H   0  0  0  0  0  0  0  0  0  0  0  0
   -0.5948   14.0846   -1.9979 H   0  0  0  0  0  0  0  0  0  0  0  0
    0.6010   15.1578   -4.0137 H   0  0  0  0  0  0  0  0  0  0  0  0
   -0.7491   16.0409   -3.1264 H   0  0  0  0  0  0  0  0  0  0  0  0
    1.3361   17.4937   -3.8183 H   0  0  0  0  0  0  0  0  0  0  0  0
    2.3489   15.9978   -0.2083 H   0  0  0  0  0  0  0  0  0  0  0  0
    0.1693   18.0851    0.4140 H   0  0  0  0  0  0  0  0  0  0  0  0
    1.0478   17.0329    1.6105 H   0  0  0  0  0  0  0  0  0  0  0  0
    1.9176   19.3498    1.5846 H   0  0  0  0  0  0  0  0  0  0  0  0
    3.1484   18.1276    1.0779 H   0  0  0  0  0  0  0  0  0  0  0  0
    3.3040   20.0283   -0.3800 H   0  0  0  0  0  0  0  0  0  0  0  0
    1.1710   20.2120   -1.7630 H   0  0  0  0  0  0  0  0  0  0  0  0
    4.3816   17.7343   -0.4638 H   0  0  0  0  0  0  0  0  0  0  0  0
    4.1846   16.8413   -2.0099 H   0  0  0  0  0  0  0  0  0  0  0  0
    4.8942   18.4915   -2.0099 H   0  0  0  0  0  0  0  0  0  0  0  0
    2.8581   20.3715   -2.7161 H   0  0  0  0  0  0  0  0  0  0  0  0
    3.6745   19.0293   -3.5871 H   0  0  0  0  0  0  0  0  0  0  0  0
    1.8817   19.1408   -3.5871 H   0  0  0  0  0  0  0  0  0  0  0  0
   -1.2955   16.0617    0.7447 H   0  0  0  0  0  0  0  0  0  0  0  0
   -1.1381   16.9684   -0.7979 H   0  0  0  0  0  0  0  0  0  0  0  0
   -1.8236   15.3081   -0.7979 H   0  0  0  0  0  0  0  0  0  0  0  0
    0.9565   14.9628    1.5140 H   0  0  0  0  0  0  0  0  0  0  0  0
   -0.3877   13.8919    0.8207 H   0  0  0  0  0  0  0  0  0  0  0  0
    2.5972   13.6399    0.3645 H   0  0  0  0  0  0  0  0  0  0  0  0
    1.4878   12.5065    1.2319 H   0  0  0  0  0  0  0  0  0  0  0  0
   -0.4155   11.7619    0.2812 H   0  0  0  0  0  0  0  0  0  0  0  0
   -0.8963   12.5308   -1.2694 H   0  0  0  0  0  0  0  0  0  0  0  0
   -0.1632   10.8909   -1.2694 H   0  0  0  0  0  0  0  0  0  0  0  0
  1  2  1  0
  2  3  1  0
  3  4  1  0
  4  5  1  0
  5  6  1  0
  6  7  1  0
  7  8  1  0
  7  9  1  0
  2 10  1  0
 10 11  1  0
 11 12  1  0
 12 13  1  0
 13 14  1  6
 13 15  1  0
 15 16  1  0
 16 17  1  0
 17 18  2  0
 18 19  1  0
 19 20  1  0
 20 21  1  0
 21 22  1  0
 22 23  1  0
 22 24  1  0
 24 25  1  0
 24 26  1  0
 19 27  1  0
 27 28  1  1
 27 29  1  0
 29 30  1  0
 30 31  1  0
 31 32  1  1
  7  5  1  0
 31 10  1  0
 31 13  1  0
 27 15  1  0
 24 18  1  0
  1 33  1  0
  1 34  1  0
  1 35  1  0
  2 36  1  1
  3 37  1  0
  3 38  1  0
  4 39  1  0
  4 40  1  0
  5 41  1  6
  8 42  1  0
  8 43  1  0
  8 44  1  0
  9 45  1  0
  9 46  1  0
  9 47  1  0
 10 48  1  6
 11 49  1  0
 11 50  1  0
 12 51  1  0
 12 52  1  0
 14 53  1  0
 14 54  1  0
 14 55  1  0
 15 56  1  1
 16 57  1  0
 16 58  1  0
 17 59  1  0
 19 60  1  1
 20 61  1  0
 20 62  1  0
 21 63  1  0
 21 64  1  0
 22 65  1  1
 23 66  1  0
 25 67  1  0
 25 68  1  0
 25 69  1  0
 26 70  1  0
 26 71  1  0
 26 72  1  0
 28 73  1  0
 28 74  1  0
 28 75  1  0
 29 76  1  0
 29 77  1  0
 30 78  1  0
 30 79  1  0
 32 80  1  0
 32 81  1  0
 32 82  1  0
M  END
>  <meeko>  (20) 
{"is_sidechain": [false], "intermolecular_energy": 2.731, "internal_energy": -0.839}

$$$$
