EPH_relaxed_0001_pdb2pqr_Repair_225_r2_0001_out
     RDKit          3D

 82 86  0  0  0  0  0  0  0  0999 V2000
   -1.5920    8.5650   -1.8170 C   0  0  0  0  0  0  0  0  0  0  0  0
   -1.9990    9.1440   -0.4590 C   0  0  2  0  0  0  0  0  0  0  0  0
   -3.4880    9.5430   -0.4210 C   0  0  0  0  0  0  0  0  0  0  0  0
   -4.4420    8.3520   -0.2970 C   0  0  0  0  0  0  0  0  0  0  0  0
   -5.0770    8.0120   -1.6120 C   0  0  2  0  0  0  0  0  0  0  0  0
   -6.3410    8.6450   -1.8470 O   0  0  0  0  0  0  0  0  0  0  0  0
   -6.3610    7.2120   -1.7380 C   0  0  0  0  0  0  0  0  0  0  0  0
   -7.0850    6.7040   -0.5320 C   0  0  0  0  0  0  0  0  0  0  0  0
   -6.6430    6.5130   -3.0310 C   0  0  0  0  0  0  0  0  0  0  0  0
   -1.1280   10.3490   -0.1250 C   0  0  1  0  0  0  0  0  0  0  0  0
   -0.0540   10.0300    0.9490 C   0  0  0  0  0  0  0  0  0  0  0  0
    1.2020   10.8640    0.5870 C   0  0  0  0  0  0  0  0  0  0  0  0
    0.7060   11.8750   -0.4740 C   0  0  1  0  0  0  0  0  0  0  0  0
    0.0290   13.0180    0.3470 C   0  0  0  0  0  0  0  0  0  0  0  0
    1.7870   12.4330   -1.4560 C   0  0  2  0  0  0  0  0  0  0  0  0
    2.9160   13.2410   -0.7930 C   0  0  0  0  0  0  0  0  0  0  0  0
    2.6670   14.7090   -0.6790 C   0  0  0  0  0  0  0  0  0  0  0  0
    1.7170   15.3950   -1.3410 C   0  0  0  0  0  0  0  0  0  0  0  0
    0.8310   14.7040   -2.3870 C   0  0  1  0  0  0  0  0  0  0  0  0
    0.7530   15.5850   -3.6610 C   0  0  0  0  0  0  0  0  0  0  0  0
    0.2990   17.0100   -3.3610 C   0  0  0  0  0  0  0  0  0  0  0  0
    1.2370   17.6830   -2.3620 C   0  0  2  0  0  0  0  0  0  0  0  0
    2.5150   17.8620   -2.9790 O   0  0  0  0  0  0  0  0  0  0  0  0
    1.4020   16.8810   -1.0410 C   0  0  0  0  0  0  0  0  0  0  0  0
    0.0860   16.9440   -0.2260 C   0  0  0  0  0  0  0  0  0  0  0  0
    2.4800   17.5940   -0.1810 C   0  0  0  0  0  0  0  0  0  0  0  0
    1.1930   13.1910   -2.7110 C   0  0  1  0  0  0  0  0  0  0  0  0
    2.2830   13.1320   -3.8240 C   0  0  0  0  0  0  0  0  0  0  0  0
   -0.0790   12.4730   -3.2970 C   0  0  0  0  0  0  0  0  0  0  0  0
   -1.0490   11.8380   -2.2820 C   0  0  0  0  0  0  0  0  0  0  0  0
   -0.2930   10.9640   -1.2760 C   0  0  2  0  0  0  0  0  0  0  0  0
    0.3800    9.7930   -2.0690 C   0  0  0  0  0  0  0  0  0  0  0  0
   -0.9657    7.6740   -1.6628 H   0  0  0  0  0  0  0  0  0  0  0  0
   -2.4938    8.2861   -2.3818 H   0  0  0  0  0  0  0  0  0  0  0  0
   -1.0242    9.3191   -2.3818 H   0  0  0  0  0  0  0  0  0  0  0  0
   -1.8486    8.3570    0.2947 H   0  0  0  0  0  0  0  0  0  0  0  0
   -3.6476   10.2069    0.4414 H   0  0  0  0  0  0  0  0  0  0  0  0
   -3.7128   10.0363   -1.3781 H   0  0  0  0  0  0  0  0  0  0  0  0
   -3.8777    7.4790    0.0629 H   0  0  0  0  0  0  0  0  0  0  0  0
   -5.2401    8.6236    0.4096 H   0  0  0  0  0  0  0  0  0  0  0  0
   -4.0912    7.9051   -2.0882 H   0  0  0  0  0  0  0  0  0  0  0  0
   -6.5779    7.0598    0.3770 H   0  0  0  0  0  0  0  0  0  0  0  0
   -8.1207    7.0745   -0.5430 H   0  0  0  0  0  0  0  0  0  0  0  0
   -7.0889    5.6041   -0.5430 H   0  0  0  0  0  0  0  0  0  0  0  0
   -7.0473    5.5109   -2.8255 H   0  0  0  0  0  0  0  0  0  0  0  0
   -7.3774    7.0932   -3.6089 H   0  0  0  0  0  0  0  0  0  0  0  0
   -5.7116    6.4212   -3.6089 H   0  0  0  0  0  0  0  0  0  0  0  0
   -1.9070   11.0570    0.1941 H   0  0  0  0  0  0  0  0  0  0  0  0
   -0.4210   10.3116    1.9470 H   0  0  0  0  0  0  0  0  0  0  0  0
    0.1779    8.9549    0.9686 H   0  0  0  0  0  0  0  0  0  0  0  0
    1.5883   11.3890    1.4731 H   0  0  0  0  0  0  0  0  0  0  0  0
    2.0256   10.2376    0.2137 H   0  0  0  0  0  0  0  0  0  0  0  0
    0.1479   12.8173    1.4220 H   0  0  0  0  0  0  0  0  0  0  0  0
    0.5039   13.9786    0.0987 H   0  0  0  0  0  0  0  0  0  0  0  0
   -1.0416   13.0632    0.0987 H   0  0  0  0  0  0  0  0  0  0  0  0
    2.2598   11.5141   -1.8331 H   0  0  0  0  0  0  0  0  0  0  0  0
    3.0693   12.8424    0.2207 H   0  0  0  0  0  0  0  0  0  0  0  0
    3.7938   13.1309   -1.4468 H   0  0  0  0  0  0  0  0  0  0  0  0
    3.3150   15.2779    0.0040 H   0  0  0  0  0  0  0  0  0  0  0  0
   -0.1668   14.6167   -1.9322 H   0  0  0  0  0  0  0  0  0  0  0  0
    1.7497   15.6229   -4.1248 H   0  0  0  0  0  0  0  0  0  0  0  0
    0.0096   15.1329   -4.3341 H   0  0  0  0  0  0  0  0  0  0  0  0
    0.2925   17.5900   -4.2957 H   0  0  0  0  0  0  0  0  0  0  0  0
   -0.7100   16.9723   -2.9245 H   0  0  0  0  0  0  0  0  0  0  0  0
    0.7893   18.6497   -2.0880 H   0  0  0  0  0  0  0  0  0  0  0  0
    2.7140   18.8130   -2.9730 H   0  0  0  0  0  0  0  0  0  0  0  0
    0.3195   16.9328    0.8489 H   0  0  0  0  0  0  0  0  0  0  0  0
   -0.4550   17.8691   -0.4741 H   0  0  0  0  0  0  0  0  0  0  0  0
   -0.5409   16.0748   -0.4741 H   0  0  0  0  0  0  0  0  0  0  0  0
    2.2554   17.4455    0.8855 H   0  0  0  0  0  0  0  0  0  0  0  0
    3.4697   17.1718   -0.4096 H   0  0  0  0  0  0  0  0  0  0  0  0
    2.4787   18.6700   -0.4096 H   0  0  0  0  0  0  0  0  0  0  0  0
    3.2787   13.0781   -3.3596 H   0  0  0  0  0  0  0  0  0  0  0  0
    2.1212   12.2413   -4.4489 H   0  0  0  0  0  0  0  0  0  0  0  0
    2.2182   14.0350   -4.4489 H   0  0  0  0  0  0  0  0  0  0  0  0
   -0.6443   13.2181   -3.8760 H   0  0  0  0  0  0  0  0  0  0  0  0
    0.3124   11.6306   -3.8862 H   0  0  0  0  0  0  0  0  0  0  0  0
   -1.5767   12.6366   -1.7400 H   0  0  0  0  0  0  0  0  0  0  0  0
   -1.7649   11.2061   -2.8281 H   0  0  0  0  0  0  0  0  0  0  0  0
    0.7992    9.0636   -1.3603 H   0  0  0  0  0  0  0  0  0  0  0  0
   -0.3720    9.2990   -2.7018 H   0  0  0  0  0  0  0  0  0  0  0  0
    1.1854   10.1940   -2.7018 H   0  0  0  0  0  0  0  0  0  0  0  0
  1  2  1  0
  2  3  1  0
  3  4  1  0
  4  5  1  0
  5  6  1  0
  6  7  1  0
  7  8  1  0
  7  9  1  0
  2 10  1  0
 10 11  1  0
 11 12  1  0
 12 13  1  0
 13 14  1  1
 13 15  1  0
 15 16  1  0
 16 17  1  0
 17 18  2  0
 18 19  1  0
 19 20  1  0
 20 21  1  0
 21 22  1  0
 22 23  1  0
 22 24  1  0
 24 25  1  0
 24 26  1  0
 19 27  1  0
 27 28  1  6
 27 29  1  0
 29 30  1  0
 30 31  1  0
 31 32  1  6
  7  5  1  0
 31 10  1  0
 31 13  1  0
 27 15  1  0
 24 18  1  0
  1 33  1  0
  1 34  1  0
  1 35  1  0
  2 36  1  1
  3 37  1  0
  3 38  1  0
  4 39  1  0
  4 40  1  0
  5 41  1  6
  8 42  1  0
  8 43  1  0
  8 44  1  0
  9 45  1  0
  9 46  1  0
  9 47  1  0
 10 48  1  1
 11 49  1  0
 11 50  1  0
 12 51  1  0
 12 52  1  0
 14 53  1  0
 14 54  1  0
 14 55  1  0
 15 56  1  6
 16 57  1  0
 16 58  1  0
 17 59  1  0
 19 60  1  1
 20 61  1  0
 20 62  1  0
 21 63  1  0
 21 64  1  0
 22 65  1  1
 23 66  1  0
 25 67  1  0
 25 68  1  0
 25 69  1  0
 26 70  1  0
 26 71  1  0
 26 72  1  0
 28 73  1  0
 28 74  1  0
 28 75  1  0
 29 76  1  0
 29 77  1  0
 30 78  1  0
 30 79  1  0
 32 80  1  0
 32 81  1  0
 32 82  1  0
M  END
>  <meeko>  (1) 
{"is_sidechain": [false], "intermolecular_energy": 2.731, "internal_energy": -0.839}

$$$$
EPH_relaxed_0001_pdb2pqr_Repair_225_r2_0001_out
     RDKit          3D

 82 86  0  0  0  0  0  0  0  0999 V2000
    1.9740   19.6200   -0.6280 C   0  0  0  0  0  0  0  0  0  0  0  0
    2.3820   18.4020    0.2050 C   0  0  2  0  0  0  0  0  0  0  0  0
    3.8290   17.9560   -0.0880 C   0  0  0  0  0  0  0  0  0  0  0  0
    4.7920   18.1830    1.0800 C   0  0  0  0  0  0  0  0  0  0  0  0
    4.1470   18.9620    2.1870 C   0  0  2  0  0  0  0  0  0  0  0  0
    4.8670   20.1340    2.5910 O   0  0  0  0  0  0  0  0  0  0  0  0
    4.7440   19.0940    3.5750 C   0  0  0  0  0  0  0  0  0  0  0  0
    6.0410   18.4380    3.9320 C   0  0  0  0  0  0  0  0  0  0  0  0
    3.8380   19.4450    4.7140 C   0  0  0  0  0  0  0  0  0  0  0  0
    1.4190   17.2490   -0.0530 C   0  0  1  0  0  0  0  0  0  0  0  0
    0.1260   17.7030   -0.7830 C   0  0  0  0  0  0  0  0  0  0  0  0
   -0.2870   16.5430   -1.7250 C   0  0  0  0  0  0  0  0  0  0  0  0
    0.5780   15.3440   -1.2690 C   0  0  1  0  0  0  0  0  0  0  0  0
   -0.1650   14.7650   -0.0250 C   0  0  0  0  0  0  0  0  0  0  0  0
    0.8510   14.2420   -2.3440 C   0  0  2  0  0  0  0  0  0  0  0  0
   -0.4010   13.5130   -2.8640 C   0  0  0  0  0  0  0  0  0  0  0  0
   -0.7840   12.2850   -2.1080 C   0  0  0  0  0  0  0  0  0  0  0  0
    0.0010   11.6260   -1.2360 C   0  0  0  0  0  0  0  0  0  0  0  0
    1.4580   12.0520   -1.0100 C   0  0  1  0  0  0  0  0  0  0  0  0
    2.3740   10.8010   -1.0360 C   0  0  0  0  0  0  0  0  0  0  0  0
    1.9220    9.7240   -0.0540 C   0  0  0  0  0  0  0  0  0  0  0  0
    0.4900    9.2850   -0.3470 C   0  0  2  0  0  0  0  0  0  0  0  0
    0.4630    8.6170   -1.6120 O   0  0  0  0  0  0  0  0  0  0  0  0
   -0.5230   10.4640   -0.3570 C   0  0  0  0  0  0  0  0  0  0  0  0
   -0.7180   10.9950    1.0850 C   0  0  0  0  0  0  0  0  0  0  0  0
   -1.9010    9.9060   -0.8030 C   0  0  0  0  0  0  0  0  0  0  0  0
    1.9920   13.2190   -1.9470 C   0  0  1  0  0  0  0  0  0  0  0  0
    2.5380   12.6230   -3.2810 C   0  0  0  0  0  0  0  0  0  0  0  0
    3.2110   13.9260   -1.2450 C   0  0  0  0  0  0  0  0  0  0  0  0
    2.8830   15.0860   -0.2860 C   0  0  0  0  0  0  0  0  0  0  0  0
    1.9250   16.0850   -0.9420 C   0  0  2  0  0  0  0  0  0  0  0  0
    2.6530   16.7010   -2.1850 C   0  0  0  0  0  0  0  0  0  0  0  0
    1.6971   20.4468    0.0426 H   0  0  0  0  0  0  0  0  0  0  0  0
    2.8175   19.9295   -1.2626 H   0  0  0  0  0  0  0  0  0  0  0  0
    1.1143   19.3589   -1.2626 H   0  0  0  0  0  0  0  0  0  0  0  0
    2.3352   18.6952    1.2642 H   0  0  0  0  0  0  0  0  0  0  0  0
    3.8197   16.8822   -0.3266 H   0  0  0  0  0  0  0  0  0  0  0  0
    4.1907   18.5695   -0.9263 H   0  0  0  0  0  0  0  0  0  0  0  0
    5.1138   17.2068    1.4716 H   0  0  0  0  0  0  0  0  0  0  0  0
    5.6509   18.7614    0.7089 H   0  0  0  0  0  0  0  0  0  0  0  0
    3.1445   18.6709    1.8402 H   0  0  0  0  0  0  0  0  0  0  0  0
    6.1380   18.3889    5.0266 H   0  0  0  0  0  0  0  0  0  0  0  0
    6.0638   17.4200    3.5159 H   0  0  0  0  0  0  0  0  0  0  0  0
    6.8745   19.0229    3.5159 H   0  0  0  0  0  0  0  0  0  0  0  0
    4.3518   19.2459    5.6660 H   0  0  0  0  0  0  0  0  0  0  0  0
    3.5727   20.5110    4.6564 H   0  0  0  0  0  0  0  0  0  0  0  0
    2.9238   18.8360    4.6564 H   0  0  0  0  0  0  0  0  0  0  0  0
    1.2708   16.8978    0.9788 H   0  0  0  0  0  0  0  0  0  0  0  0
   -0.6722   17.8999   -0.0522 H   0  0  0  0  0  0  0  0  0  0  0  0
    0.2974   18.6300   -1.3499 H   0  0  0  0  0  0  0  0  0  0  0  0
   -1.3572   16.3145   -1.6137 H   0  0  0  0  0  0  0  0  0  0  0  0
   -0.1312   16.7907   -2.7854 H   0  0  0  0  0  0  0  0  0  0  0  0
    0.3126   15.1372    0.8934 H   0  0  0  0  0  0  0  0  0  0  0  0
   -1.2177   15.0833   -0.0457 H   0  0  0  0  0  0  0  0  0  0  0  0
   -0.1136   13.6664   -0.0457 H   0  0  0  0  0  0  0  0  0  0  0  0
    1.2291   14.8293   -3.1938 H   0  0  0  0  0  0  0  0  0  0  0  0
   -1.2460   14.2160   -2.8209 H   0  0  0  0  0  0  0  0  0  0  0  0
   -0.1571   13.1789   -3.8833 H   0  0  0  0  0  0  0  0  0  0  0  0
   -1.7942   11.8842   -2.2779 H   0  0  0  0  0  0  0  0  0  0  0  0
    1.4879   12.5150   -0.0126 H   0  0  0  0  0  0  0  0  0  0  0  0
    2.3649   10.3784   -2.0515 H   0  0  0  0  0  0  0  0  0  0  0  0
    3.3839   11.1205   -0.7394 H   0  0  0  0  0  0  0  0  0  0  0  0
    2.5900    8.8544   -0.1408 H   0  0  0  0  0  0  0  0  0  0  0  0
    1.9607   10.1386    0.9641 H   0  0  0  0  0  0  0  0  0  0  0  0
    0.1787    8.6116    0.4652 H   0  0  0  0  0  0  0  0  0  0  0  0
    0.5730    9.2910   -2.3030 H   0  0  0  0  0  0  0  0  0  0  0  0
   -0.4313   10.2144    1.8051 H   0  0  0  0  0  0  0  0  0  0  0  0
   -0.0875   11.8834    1.2370 H   0  0  0  0  0  0  0  0  0  0  0  0
   -1.7737   11.2642    1.2370 H   0  0  0  0  0  0  0  0  0  0  0  0
   -2.5027    9.6623    0.0850 H   0  0  0  0  0  0  0  0  0  0  0  0
   -2.4255   10.6626   -1.4050 H   0  0  0  0  0  0  0  0  0  0  0  0
   -1.7513    8.9976   -1.4050 H   0  0  0  0  0  0  0  0  0  0  0  0
    3.2655   11.8289   -3.0572 H   0  0  0  0  0  0  0  0  0  0  0  0
    1.7045   12.2032   -3.8633 H   0  0  0  0  0  0  0  0  0  0  0  0
    3.0290   13.4166   -3.8633 H   0  0  0  0  0  0  0  0  0  0  0  0
    3.7527   13.1612   -0.6691 H   0  0  0  0  0  0  0  0  0  0  0  0
    3.7885   14.3827   -2.0623 H   0  0  0  0  0  0  0  0  0  0  0  0
    2.4134   14.6803    0.6222 H   0  0  0  0  0  0  0  0  0  0  0  0
    3.8177   15.6090   -0.0353 H   0  0  0  0  0  0  0  0  0  0  0  0
    3.4515   17.3767   -1.8446 H   0  0  0  0  0  0  0  0  0  0  0  0
    3.0895   15.8938   -2.7916 H   0  0  0  0  0  0  0  0  0  0  0  0
    1.9292   17.2651   -2.7916 H   0  0  0  0  0  0  0  0  0  0  0  0
  1  2  1  0
  2  3  1  0
  3  4  1  0
  4  5  1  0
  5  6  1  0
  6  7  1  0
  7  8  1  0
  7  9  1  0
  2 10  1  0
 10 11  1  0
 11 12  1  0
 12 13  1  0
 13 14  1  1
 13 15  1  0
 15 16  1  0
 16 17  1  0
 17 18  2  0
 18 19  1  0
 19 20  1  0
 20 21  1  0
 21 22  1  0
 22 23  1  0
 22 24  1  0
 24 25  1  0
 24 26  1  0
 19 27  1  0
 27 28  1  6
 27 29  1  0
 29 30  1  0
 30 31  1  0
 31 32  1  6
  7  5  1  0
 31 10  1  0
 31 13  1  0
 27 15  1  0
 24 18  1  0
  1 33  1  0
  1 34  1  0
  1 35  1  0
  2 36  1  1
  3 37  1  0
  3 38  1  0
  4 39  1  0
  4 40  1  0
  5 41  1  1
  8 42  1  0
  8 43  1  0
  8 44  1  0
  9 45  1  0
  9 46  1  0
  9 47  1  0
 10 48  1  1
 11 49  1  0
 11 50  1  0
 12 51  1  0
 12 52  1  0
 14 53  1  0
 14 54  1  0
 14 55  1  0
 15 56  1  6
 16 57  1  0
 16 58  1  0
 17 59  1  0
 19 60  1  1
 20 61  1  0
 20 62  1  0
 21 63  1  0
 21 64  1  0
 22 65  1  1
 23 66  1  0
 25 67  1  0
 25 68  1  0
 25 69  1  0
 26 70  1  0
 26 71  1  0
 26 72  1  0
 28 73  1  0
 28 74  1  0
 28 75  1  0
 29 76  1  0
 29 77  1  0
 30 78  1  0
 30 79  1  0
 32 80  1  0
 32 81  1  0
 32 82  1  0
M  END
>  <meeko>  (2) 
{"is_sidechain": [false], "intermolecular_energy": 2.731, "internal_energy": -0.839}

$$$$
EPH_relaxed_0001_pdb2pqr_Repair_225_r2_0001_out
     RDKit          3D

 82 86  0  0  0  0  0  0  0  0999 V2000
    0.4510   18.4140    0.0420 C   0  0  0  0  0  0  0  0  0  0  0  0
    1.5350   17.3590   -0.2000 C   0  0  2  0  0  0  0  0  0  0  0  0
    2.7420   17.9330   -0.9690 C   0  0  0  0  0  0  0  0  0  0  0  0
    3.9780   18.1590   -0.0940 C   0  0  0  0  0  0  0  0  0  0  0  0
    3.6060   18.6170    1.2830 C   0  0  2  0  0  0  0  0  0  0  0  0
    3.8360   20.0100    1.5340 O   0  0  0  0  0  0  0  0  0  0  0  0
    4.6180   19.0880    2.3100 C   0  0  0  0  0  0  0  0  0  0  0  0
    6.0830   19.1230    2.0030 C   0  0  0  0  0  0  0  0  0  0  0  0
    4.2400   19.0480    3.7580 C   0  0  0  0  0  0  0  0  0  0  0  0
    0.9470   16.1760   -0.9600 C   0  0  1  0  0  0  0  0  0  0  0  0
    0.8010   16.4550   -2.4800 C   0  0  0  0  0  0  0  0  0  0  0  0
    1.0770   15.1150   -3.2100 C   0  0  0  0  0  0  0  0  0  0  0  0
    1.0440   14.0480   -2.0910 C   0  0  1  0  0  0  0  0  0  0  0  0
   -0.4720   13.7550   -1.8600 C   0  0  0  0  0  0  0  0  0  0  0  0
    1.8500   12.7360   -2.3630 C   0  0  2  0  0  0  0  0  0  0  0  0
    1.3630   11.9080   -3.5650 C   0  0  0  0  0  0  0  0  0  0  0  0
    0.3310   10.8760   -3.2520 C   0  0  0  0  0  0  0  0  0  0  0  0
    0.0220   10.4270   -2.0210 C   0  0  0  0  0  0  0  0  0  0  0  0
    0.8100   10.8960   -0.7910 C   0  0  1  0  0  0  0  0  0  0  0  0
    1.1710    9.6710    0.0900 C   0  0  0  0  0  0  0  0  0  0  0  0
   -0.0500    8.8370    0.4630 C   0  0  0  0  0  0  0  0  0  0  0  0
   -0.7730    8.3410   -0.7870 C   0  0  2  0  0  0  0  0  0  0  0  0
    0.0730    7.4100   -1.4690 O   0  0  0  0  0  0  0  0  0  0  0  0
   -1.1790    9.4860   -1.7560 C   0  0  0  0  0  0  0  0  0  0  0  0
   -2.3210   10.3210   -1.1250 C   0  0  0  0  0  0  0  0  0  0  0  0
   -1.7710    8.8400   -3.0370 C   0  0  0  0  0  0  0  0  0  0  0  0
    2.0630   11.8290   -1.0840 C   0  0  1  0  0  0  0  0  0  0  0  0
    3.3230   10.9540   -1.3620 C   0  0  0  0  0  0  0  0  0  0  0  0
    2.3850   12.6750    0.2040 C   0  0  0  0  0  0  0  0  0  0  0  0
    1.6450   14.0180    0.3560 C   0  0  0  0  0  0  0  0  0  0  0  0
    1.7410   14.8460   -0.9290 C   0  0  2  0  0  0  0  0  0  0  0  0
    3.2530   15.1740   -1.1750 C   0  0  0  0  0  0  0  0  0  0  0  0
    0.3089   18.5523    1.1240 H   0  0  0  0  0  0  0  0  0  0  0  0
    0.7592   19.3673   -0.4121 H   0  0  0  0  0  0  0  0  0  0  0  0
   -0.4936   18.0800   -0.4121 H   0  0  0  0  0  0  0  0  0  0  0  0
    1.8988   17.0255    0.7831 H   0  0  0  0  0  0  0  0  0  0  0  0
    3.0086   17.2298   -1.7718 H   0  0  0  0  0  0  0  0  0  0  0  0
    2.4381   18.9166   -1.3565 H   0  0  0  0  0  0  0  0  0  0  0  0
    4.5374   17.2151   -0.0167 H   0  0  0  0  0  0  0  0  0  0  0  0
    4.5908   18.9433   -0.5623 H   0  0  0  0  0  0  0  0  0  0  0  0
    2.7922   17.8786    1.3337 H   0  0  0  0  0  0  0  0  0  0  0  0
    6.6544   19.1366    2.9429 H   0  0  0  0  0  0  0  0  0  0  0  0
    6.3569   18.2311    1.4203 H   0  0  0  0  0  0  0  0  0  0  0  0
    6.3140   20.0269    1.4203 H   0  0  0  0  0  0  0  0  0  0  0  0
    5.1450   19.1438    4.3760 H   0  0  0  0  0  0  0  0  0  0  0  0
    3.5541   19.8786    3.9810 H   0  0  0  0  0  0  0  0  0  0  0  0
    3.7432   18.0923    3.9810 H   0  0  0  0  0  0  0  0  0  0  0  0
   -0.0023   16.0609   -0.4164 H   0  0  0  0  0  0  0  0  0  0  0  0
   -0.2171   16.8059   -2.7045 H   0  0  0  0  0  0  0  0  0  0  0  0
    1.5041   17.2350   -2.8075 H   0  0  0  0  0  0  0  0  0  0  0  0
    0.2988   14.9144   -3.9611 H   0  0  0  0  0  0  0  0  0  0  0  0
    2.0351   15.1237   -3.7504 H   0  0  0  0  0  0  0  0  0  0  0  0
   -0.6774   13.7153   -0.7801 H   0  0  0  0  0  0  0  0  0  0  0  0
   -1.0738   14.5535   -2.3186 H   0  0  0  0  0  0  0  0  0  0  0  0
   -0.7329   12.7898   -2.3186 H   0  0  0  0  0  0  0  0  0  0  0  0
    2.8396   13.1223   -2.6483 H   0  0  0  0  0  0  0  0  0  0  0  0
    0.9369   12.6013   -4.3051 H   0  0  0  0  0  0  0  0  0  0  0  0
    2.2421   11.3579   -3.9318 H   0  0  0  0  0  0  0  0  0  0  0  0
   -0.2240   10.4460   -4.0988 H   0  0  0  0  0  0  0  0  0  0  0  0
    0.1384   11.5687   -0.2375 H   0  0  0  0  0  0  0  0  0  0  0  0
    1.8767    9.0344   -0.4638 H   0  0  0  0  0  0  0  0  0  0  0  0
    1.6132   10.0503    1.0231 H   0  0  0  0  0  0  0  0  0  0  0  0
    0.2737    7.9712    1.0594 H   0  0  0  0  0  0  0  0  0  0  0  0
   -0.7415    9.4658    1.0430 H   0  0  0  0  0  0  0  0  0  0  0  0
   -1.7079    7.8627   -0.4595 H   0  0  0  0  0  0  0  0  0  0  0  0
    0.7930    7.1680   -0.8630 H   0  0  0  0  0  0  0  0  0  0  0  0
   -2.2503   10.2693   -0.0285 H   0  0  0  0  0  0  0  0  0  0  0  0
   -2.2317   11.3683   -1.4492 H   0  0  0  0  0  0  0  0  0  0  0  0
   -3.2919    9.9183   -1.4492 H   0  0  0  0  0  0  0  0  0  0  0  0
   -2.4892    8.0563   -2.7541 H   0  0  0  0  0  0  0  0  0  0  0  0
   -2.2839    9.6097   -3.6324 H   0  0  0  0  0  0  0  0  0  0  0  0
   -0.9595    8.3961   -3.6324 H   0  0  0  0  0  0  0  0  0  0  0  0
    3.7712   10.6427   -0.4069 H   0  0  0  0  0  0  0  0  0  0  0  0
    3.0311   10.0632   -1.9376 H   0  0  0  0  0  0  0  0  0  0  0  0
    4.0557   11.5387   -1.9376 H   0  0  0  0  0  0  0  0  0  0  0  0
    2.1358   12.0568    1.0791 H   0  0  0  0  0  0  0  0  0  0  0  0
    3.4487   12.9409    0.1153 H   0  0  0  0  0  0  0  0  0  0  0  0
    0.5859   13.8219    0.5793 H   0  0  0  0  0  0  0  0  0  0  0  0
    2.1127   14.5852    1.1742 H   0  0  0  0  0  0  0  0  0  0  0  0
    3.7660   15.2853   -0.2084 H   0  0  0  0  0  0  0  0  0  0  0  0
    3.7177   14.3558   -1.7447 H   0  0  0  0  0  0  0  0  0  0  0  0
    3.3369   16.1112   -1.7447 H   0  0  0  0  0  0  0  0  0  0  0  0
  1  2  1  0
  2  3  1  0
  3  4  1  0
  4  5  1  0
  5  6  1  0
  6  7  1  0
  7  8  1  0
  7  9  1  0
  2 10  1  0
 10 11  1  0
 11 12  1  0
 12 13  1  0
 13 14  1  1
 13 15  1  0
 15 16  1  0
 16 17  1  0
 17 18  2  0
 18 19  1  0
 19 20  1  0
 20 21  1  0
 21 22  1  0
 22 23  1  0
 22 24  1  0
 24 25  1  0
 24 26  1  0
 19 27  1  0
 27 28  1  6
 27 29  1  0
 29 30  1  0
 30 31  1  0
 31 32  1  6
  7  5  1  0
 31 10  1  0
 31 13  1  0
 27 15  1  0
 24 18  1  0
  1 33  1  0
  1 34  1  0
  1 35  1  0
  2 36  1  1
  3 37  1  0
  3 38  1  0
  4 39  1  0
  4 40  1  0
  5 41  1  1
  8 42  1  0
  8 43  1  0
  8 44  1  0
  9 45  1  0
  9 46  1  0
  9 47  1  0
 10 48  1  1
 11 49  1  0
 11 50  1  0
 12 51  1  0
 12 52  1  0
 14 53  1  0
 14 54  1  0
 14 55  1  0
 15 56  1  6
 16 57  1  0
 16 58  1  0
 17 59  1  0
 19 60  1  1
 20 61  1  0
 20 62  1  0
 21 63  1  0
 21 64  1  0
 22 65  1  1
 23 66  1  0
 25 67  1  0
 25 68  1  0
 25 69  1  0
 26 70  1  0
 26 71  1  0
 26 72  1  0
 28 73  1  0
 28 74  1  0
 28 75  1  0
 29 76  1  0
 29 77  1  0
 30 78  1  0
 30 79  1  0
 32 80  1  0
 32 81  1  0
 32 82  1  0
M  END
>  <meeko>  (3) 
{"is_sidechain": [false], "intermolecular_energy": 2.731, "internal_energy": -0.839}

$$$$
EPH_relaxed_0001_pdb2pqr_Repair_225_r2_0001_out
     RDKit          3D

 82 86  0  0  0  0  0  0  0  0999 V2000
    2.4050   17.9710   -2.6650 C   0  0  0  0  0  0  0  0  0  0  0  0
    1.0740   17.6190   -1.9950 C   0  0  2  0  0  0  0  0  0  0  0  0
    1.1590   17.6960   -0.4570 C   0  0  0  0  0  0  0  0  0  0  0  0
    0.8110   19.0750    0.1090 C   0  0  0  0  0  0  0  0  0  0  0  0
   -0.6300   19.1620    0.5120 C   0  0  2  0  0  0  0  0  0  0  0  0
   -1.5040   18.2720   -0.1960 O   0  0  0  0  0  0  0  0  0  0  0  0
   -1.7250   19.6770   -0.4040 C   0  0  0  0  0  0  0  0  0  0  0  0
   -1.4250   20.1400   -1.7950 C   0  0  0  0  0  0  0  0  0  0  0  0
   -2.9920   20.1850    0.2100 C   0  0  0  0  0  0  0  0  0  0  0  0
    0.6290   16.2250   -2.4230 C   0  0  1  0  0  0  0  0  0  0  0  0
    0.7140   16.0160   -3.9580 C   0  0  0  0  0  0  0  0  0  0  0  0
    1.1200   14.5370   -4.1870 C   0  0  0  0  0  0  0  0  0  0  0  0
    0.9330   13.8640   -2.8070 C   0  0  1  0  0  0  0  0  0  0  0  0
   -0.5950   13.5600   -2.7130 C   0  0  0  0  0  0  0  0  0  0  0  0
    1.7930   12.5850   -2.5400 C   0  0  2  0  0  0  0  0  0  0  0  0
    1.5100   11.4000   -3.4790 C   0  0  0  0  0  0  0  0  0  0  0  0
    0.4590   10.4500   -3.0080 C   0  0  0  0  0  0  0  0  0  0  0  0
   -0.0280   10.3810   -1.7560 C   0  0  0  0  0  0  0  0  0  0  0  0
    0.5530   11.2520   -0.6350 C   0  0  1  0  0  0  0  0  0  0  0  0
    0.7950   10.3820    0.6260 C   0  0  0  0  0  0  0  0  0  0  0  0
   -0.4550    9.6260    1.0640 C   0  0  0  0  0  0  0  0  0  0  0  0
   -0.9700    8.7260   -0.0570 C   0  0  2  0  0  0  0  0  0  0  0  0
   -0.0140    7.6870   -0.2890 O   0  0  0  0  0  0  0  0  0  0  0  0
   -1.2400    9.4920   -1.3820 C   0  0  0  0  0  0  0  0  0  0  0  0
   -2.4790   10.4060   -1.2110 C   0  0  0  0  0  0  0  0  0  0  0  0
   -1.6180    8.4490   -2.4680 C   0  0  0  0  0  0  0  0  0  0  0  0
    1.8210   12.1280   -1.0250 C   0  0  1  0  0  0  0  0  0  0  0  0
    3.1230   11.2920   -0.8360 C   0  0  0  0  0  0  0  0  0  0  0  0
    1.9280   13.3470   -0.0340 C   0  0  0  0  0  0  0  0  0  0  0  0
    1.1520   14.6220   -0.4140 C   0  0  0  0  0  0  0  0  0  0  0  0
    1.4310   15.0210   -1.8660 C   0  0  2  0  0  0  0  0  0  0  0  0
    2.9570   15.3540   -1.9870 C   0  0  0  0  0  0  0  0  0  0  0  0
    3.1625   18.1713   -1.8929 H   0  0  0  0  0  0  0  0  0  0  0  0
    2.7340   17.1290   -3.2917 H   0  0  0  0  0  0  0  0  0  0  0  0
    2.2747   18.8656   -3.2917 H   0  0  0  0  0  0  0  0  0  0  0  0
    0.3325   18.3628   -2.3220 H   0  0  0  0  0  0  0  0  0  0  0  0
    0.4601   16.9599   -0.0331 H   0  0  0  0  0  0  0  0  0  0  0  0
    2.2036   17.4891   -0.1815 H   0  0  0  0  0  0  0  0  0  0  0  0
    1.4399   19.2674    0.9908 H   0  0  0  0  0  0  0  0  0  0  0  0
    0.9930   19.8235   -0.6762 H   0  0  0  0  0  0  0  0  0  0  0  0
   -0.3507   19.4184    1.5446 H   0  0  0  0  0  0  0  0  0  0  0  0
   -0.8273   21.0625   -1.7535 H   0  0  0  0  0  0  0  0  0  0  0  0
   -0.8599   19.3605   -2.3270 H   0  0  0  0  0  0  0  0  0  0  0  0
   -2.3674   20.3373   -2.3270 H   0  0  0  0  0  0  0  0  0  0  0  0
   -2.9075   20.1511    1.3062 H   0  0  0  0  0  0  0  0  0  0  0  0
   -3.1656   21.2222   -0.1125 H   0  0  0  0  0  0  0  0  0  0  0  0
   -3.8341   19.5550   -0.1125 H   0  0  0  0  0  0  0  0  0  0  0  0
   -0.3908   16.2215   -2.0107 H   0  0  0  0  0  0  0  0  0  0  0  0
   -0.2628   16.2168   -4.4222 H   0  0  0  0  0  0  0  0  0  0  0  0
    1.4468   16.7009   -4.4096 H   0  0  0  0  0  0  0  0  0  0  0  0
    0.4694   14.0676   -4.9395 H   0  0  0  0  0  0  0  0  0  0  0  0
    2.1492   14.4399   -4.5629 H   0  0  0  0  0  0  0  0  0  0  0  0
   -0.8927   13.5008   -1.6557 H   0  0  0  0  0  0  0  0  0  0  0  0
   -1.1599   14.3634   -3.2085 H   0  0  0  0  0  0  0  0  0  0  0  0
   -0.8093   12.6016   -3.2085 H   0  0  0  0  0  0  0  0  0  0  0  0
    2.8081   12.9273   -2.7896 H   0  0  0  0  0  0  0  0  0  0  0  0
    1.1913   11.8050   -4.4508 H   0  0  0  0  0  0  0  0  0  0  0  0
    2.4439   10.8208   -3.5280 H   0  0  0  0  0  0  0  0  0  0  0  0
    0.0481    9.7469   -3.7474 H   0  0  0  0  0  0  0  0  0  0  0  0
   -0.2078   12.0166   -0.4191 H   0  0  0  0  0  0  0  0  0  0  0  0
    1.5884    9.6530    0.4044 H   0  0  0  0  0  0  0  0  0  0  0  0
    1.0820   11.0561    1.4465 H   0  0  0  0  0  0  0  0  0  0  0  0
   -0.2125    9.0066    1.9401 H   0  0  0  0  0  0  0  0  0  0  0  0
   -1.2376   10.3573    1.3144 H   0  0  0  0  0  0  0  0  0  0  0  0
   -1.9358    8.3125    0.2689 H   0  0  0  0  0  0  0  0  0  0  0  0
    0.8720    8.0710   -0.1770 H   0  0  0  0  0  0  0  0  0  0  0  0
   -2.6801   10.5544   -0.1398 H   0  0  0  0  0  0  0  0  0  0  0  0
   -2.2852   11.3791   -1.6859 H   0  0  0  0  0  0  0  0  0  0  0  0
   -3.3515    9.9336   -1.6859 H   0  0  0  0  0  0  0  0  0  0  0  0
   -1.9545    7.5206   -1.9834 H   0  0  0  0  0  0  0  0  0  0  0  0
   -2.4281    8.8497   -3.0950 H   0  0  0  0  0  0  0  0  0  0  0  0
   -0.7393    8.2377   -3.0950 H   0  0  0  0  0  0  0  0  0  0  0  0
    3.3234   11.1633    0.2379 H   0  0  0  0  0  0  0  0  0  0  0  0
    2.9969   10.3056   -1.3063 H   0  0  0  0  0  0  0  0  0  0  0  0
    3.9674   11.8171   -1.3063 H   0  0  0  0  0  0  0  0  0  0  0  0
    1.5580   13.0122    0.9463 H   0  0  0  0  0  0  0  0  0  0  0  0
    2.9882   13.6397   -0.0517 H   0  0  0  0  0  0  0  0  0  0  0  0
    0.0745   14.4372   -0.2923 H   0  0  0  0  0  0  0  0  0  0  0  0
    1.4789   15.4408    0.2438 H   0  0  0  0  0  0  0  0  0  0  0  0
    3.3924   15.4490   -0.9813 H   0  0  0  0  0  0  0  0  0  0  0  0
    3.4665   14.5459   -2.5323 H   0  0  0  0  0  0  0  0  0  0  0  0
    3.0836   16.3009   -2.5323 H   0  0  0  0  0  0  0  0  0  0  0  0
  1  2  1  0
  2  3  1  0
  3  4  1  0
  4  5  1  0
  5  6  1  0
  6  7  1  0
  7  8  1  0
  7  9  1  0
  2 10  1  0
 10 11  1  0
 11 12  1  0
 12 13  1  0
 13 14  1  1
 13 15  1  0
 15 16  1  0
 16 17  1  0
 17 18  2  0
 18 19  1  0
 19 20  1  0
 20 21  1  0
 21 22  1  0
 22 23  1  0
 22 24  1  0
 24 25  1  0
 24 26  1  0
 19 27  1  0
 27 28  1  6
 27 29  1  0
 29 30  1  0
 30 31  1  0
 31 32  1  1
  7  5  1  0
 31 10  1  0
 31 13  1  0
 27 15  1  0
 24 18  1  0
  1 33  1  0
  1 34  1  0
  1 35  1  0
  2 36  1  6
  3 37  1  0
  3 38  1  0
  4 39  1  0
  4 40  1  0
  5 41  1  1
  8 42  1  0
  8 43  1  0
  8 44  1  0
  9 45  1  0
  9 46  1  0
  9 47  1  0
 10 48  1  1
 11 49  1  0
 11 50  1  0
 12 51  1  0
 12 52  1  0
 14 53  1  0
 14 54  1  0
 14 55  1  0
 15 56  1  6
 16 57  1  0
 16 58  1  0
 17 59  1  0
 19 60  1  1
 20 61  1  0
 20 62  1  0
 21 63  1  0
 21 64  1  0
 22 65  1  1
 23 66  1  0
 25 67  1  0
 25 68  1  0
 25 69  1  0
 26 70  1  0
 26 71  1  0
 26 72  1  0
 28 73  1  0
 28 74  1  0
 28 75  1  0
 29 76  1  0
 29 77  1  0
 30 78  1  0
 30 79  1  0
 32 80  1  0
 32 81  1  0
 32 82  1  0
M  END
>  <meeko>  (4) 
{"is_sidechain": [false], "intermolecular_energy": 2.731, "internal_energy": -0.839}

$$$$
EPH_relaxed_0001_pdb2pqr_Repair_225_r2_0001_out
     RDKit          3D

 82 86  0  0  0  0  0  0  0  0999 V2000
    3.7890   17.5940    0.4290 C   0  0  0  0  0  0  0  0  0  0  0  0
    2.8320   17.9060   -0.7250 C   0  0  2  0  0  0  0  0  0  0  0  0
    2.1880   19.3000   -0.5840 C   0  0  0  0  0  0  0  0  0  0  0  0
    1.3520   19.4670    0.6870 C   0  0  0  0  0  0  0  0  0  0  0  0
    0.0200   20.0910    0.3980 C   0  0  2  0  0  0  0  0  0  0  0  0
   -0.8520   20.1930    1.5310 O   0  0  0  0  0  0  0  0  0  0  0  0
   -1.2920   19.3330    0.4680 C   0  0  0  0  0  0  0  0  0  0  0  0
   -1.3370   17.8830    0.8380 C   0  0  0  0  0  0  0  0  0  0  0  0
   -2.4680   19.8650   -0.2910 C   0  0  0  0  0  0  0  0  0  0  0  0
    1.7480   16.8370   -0.8050 C   0  0  1  0  0  0  0  0  0  0  0  0
    0.4830   17.3250   -1.5600 C   0  0  0  0  0  0  0  0  0  0  0  0
   -0.0780   16.1010   -2.3290 C   0  0  0  0  0  0  0  0  0  0  0  0
    0.6760   14.8880   -1.7350 C   0  0  1  0  0  0  0  0  0  0  0  0
   -0.0770   14.5580   -0.4080 C   0  0  0  0  0  0  0  0  0  0  0  0
    0.7970   13.6320   -2.6580 C   0  0  2  0  0  0  0  0  0  0  0  0
   -0.5390   12.9770   -3.0480 C   0  0  0  0  0  0  0  0  0  0  0  0
   -1.0180   11.9050   -2.1250 C   0  0  0  0  0  0  0  0  0  0  0  0
   -0.2720   11.2880   -1.1910 C   0  0  0  0  0  0  0  0  0  0  0  0
    1.2270   11.5850   -1.0560 C   0  0  1  0  0  0  0  0  0  0  0  0
    2.0100   10.2510   -0.9340 C   0  0  0  0  0  0  0  0  0  0  0  0
    1.4870    9.3670    0.1940 C   0  0  0  0  0  0  0  0  0  0  0  0
    0.0080    9.0450   -0.0070 C   0  0  2  0  0  0  0  0  0  0  0  0
   -0.1310    8.2230   -1.1700 O   0  0  0  0  0  0  0  0  0  0  0  0
   -0.8800   10.3130   -0.1520 C   0  0  0  0  0  0  0  0  0  0  0  0
   -0.9680   11.0450    1.2090 C   0  0  0  0  0  0  0  0  0  0  0  0
   -2.3220    9.8480   -0.4900 C   0  0  0  0  0  0  0  0  0  0  0  0
    1.8420   12.5560   -2.1530 C   0  0  1  0  0  0  0  0  0  0  0  0
    2.2770   11.7360   -3.4060 C   0  0  0  0  0  0  0  0  0  0  0  0
    3.1510   13.2170   -1.5790 C   0  0  0  0  0  0  0  0  0  0  0  0
    2.9770   14.5210   -0.7780 C   0  0  0  0  0  0  0  0  0  0  0  0
    2.1020   15.5200   -1.5400 C   0  0  2  0  0  0  0  0  0  0  0  0
    2.8440   15.8880   -2.8700 C   0  0  0  0  0  0  0  0  0  0  0  0
    3.2751   17.7615    1.3870 H   0  0  0  0  0  0  0  0  0  0  0  0
    4.1113   16.5443    0.3645 H   0  0  0  0  0  0  0  0  0  0  0  0
    4.6681   18.2521    0.3645 H   0  0  0  0  0  0  0  0  0  0  0  0
    3.4220   17.9071   -1.6534 H   0  0  0  0  0  0  0  0  0  0  0  0
    2.9896   20.0532   -0.5736 H   0  0  0  0  0  0  0  0  0  0  0  0
    1.5044   19.4255   -1.4366 H   0  0  0  0  0  0  0  0  0  0  0  0
    1.1911   18.4777    1.1401 H   0  0  0  0  0  0  0  0  0  0  0  0
    1.8996   20.1308    1.3722 H   0  0  0  0  0  0  0  0  0  0  0  0
    0.4623   20.7300   -0.3806 H   0  0  0  0  0  0  0  0  0  0  0  0
   -1.3401   17.7841    1.9335 H   0  0  0  0  0  0  0  0  0  0  0  0
   -2.2497   17.4276    0.4262 H   0  0  0  0  0  0  0  0  0  0  0  0
   -0.4543   17.3719    0.4262 H   0  0  0  0  0  0  0  0  0  0  0  0
   -3.2349   20.2119    0.4171 H   0  0  0  0  0  0  0  0  0  0  0  0
   -2.1463   20.7052   -0.9239 H   0  0  0  0  0  0  0  0  0  0  0  0
   -2.8867   19.0686   -0.9239 H   0  0  0  0  0  0  0  0  0  0  0  0
    1.6011   16.6416    0.2675 H   0  0  0  0  0  0  0  0  0  0  0  0
   -0.2647   17.6984   -0.8448 H   0  0  0  0  0  0  0  0  0  0  0  0
    0.7265   18.1471   -2.2491 H   0  0  0  0  0  0  0  0  0  0  0  0
   -1.1613   16.0029   -2.1655 H   0  0  0  0  0  0  0  0  0  0  0  0
    0.0653   16.1898   -3.4160 H   0  0  0  0  0  0  0  0  0  0  0  0
    0.5536   14.8344    0.4499 H   0  0  0  0  0  0  0  0  0  0  0  0
   -1.0181   15.1262   -0.3694 H   0  0  0  0  0  0  0  0  0  0  0  0
   -0.2971   13.4809   -0.3694 H   0  0  0  0  0  0  0  0  0  0  0  0
    1.2016   14.0601   -3.5870 H   0  0  0  0  0  0  0  0  0  0  0  0
   -1.3064   13.7644   -3.0816 H   0  0  0  0  0  0  0  0  0  0  0  0
   -0.3662   12.4881   -4.0181 H   0  0  0  0  0  0  0  0  0  0  0  0
   -2.0691   11.5939   -2.2166 H   0  0  0  0  0  0  0  0  0  0  0  0
    1.3399   12.1695   -0.1310 H   0  0  0  0  0  0  0  0  0  0  0  0
    1.9208    9.7017   -1.8828 H   0  0  0  0  0  0  0  0  0  0  0  0
    3.0574   10.4981   -0.7064 H   0  0  0  0  0  0  0  0  0  0  0  0
    2.0607    8.4286    0.2116 H   0  0  0  0  0  0  0  0  0  0  0  0
    1.6030    9.9063    1.1457 H   0  0  0  0  0  0  0  0  0  0  0  0
   -0.3414    8.5192    0.8938 H   0  0  0  0  0  0  0  0  0  0  0  0
   -0.1730    8.8120   -1.9420 H   0  0  0  0  0  0  0  0  0  0  0  0
   -0.8800   10.3130    2.0254 H   0  0  0  0  0  0  0  0  0  0  0  0
   -0.1515   11.7783    1.2844 H   0  0  0  0  0  0  0  0  0  0  0  0
   -1.9350   11.5639    1.2844 H   0  0  0  0  0  0  0  0  0  0  0  0
   -2.8775    9.6689    0.4424 H   0  0  0  0  0  0  0  0  0  0  0  0
   -2.8308   10.6276   -1.0759 H   0  0  0  0  0  0  0  0  0  0  0  0
   -2.2795    8.9180   -1.0759 H   0  0  0  0  0  0  0  0  0  0  0  0
    2.7698   10.8070   -3.0833 H   0  0  0  0  0  0  0  0  0  0  0  0
    1.3906   11.4904   -4.0093 H   0  0  0  0  0  0  0  0  0  0  0  0
    2.9774   12.3322   -4.0093 H   0  0  0  0  0  0  0  0  0  0  0  0
    3.6324   12.4818   -0.9174 H   0  0  0  0  0  0  0  0  0  0  0  0
    3.7423   13.4989   -2.4627 H   0  0  0  0  0  0  0  0  0  0  0  0
    2.5023   14.2899    0.1870 H   0  0  0  0  0  0  0  0  0  0  0  0
    3.9683   14.9713   -0.6215 H   0  0  0  0  0  0  0  0  0  0  0  0
    3.8063   16.3653   -2.6330 H   0  0  0  0  0  0  0  0  0  0  0  0
    3.0224   14.9739   -3.4554 H   0  0  0  0  0  0  0  0  0  0  0  0
    2.2242   16.5832   -3.4554 H   0  0  0  0  0  0  0  0  0  0  0  0
  1  2  1  0
  2  3  1  0
  3  4  1  0
  4  5  1  0
  5  6  1  0
  6  7  1  0
  7  8  1  0
  7  9  1  0
  2 10  1  0
 10 11  1  0
 11 12  1  0
 12 13  1  0
 13 14  1  1
 13 15  1  0
 15 16  1  0
 16 17  1  0
 17 18  2  0
 18 19  1  0
 19 20  1  0
 20 21  1  0
 21 22  1  0
 22 23  1  0
 22 24  1  0
 24 25  1  0
 24 26  1  0
 19 27  1  0
 27 28  1  6
 27 29  1  0
 29 30  1  0
 30 31  1  0
 31 32  1  6
  7  5  1  0
 31 10  1  0
 31 13  1  0
 27 15  1  0
 24 18  1  0
  1 33  1  0
  1 34  1  0
  1 35  1  0
  2 36  1  6
  3 37  1  0
  3 38  1  0
  4 39  1  0
  4 40  1  0
  5 41  1  6
  8 42  1  0
  8 43  1  0
  8 44  1  0
  9 45  1  0
  9 46  1  0
  9 47  1  0
 10 48  1  1
 11 49  1  0
 11 50  1  0
 12 51  1  0
 12 52  1  0
 14 53  1  0
 14 54  1  0
 14 55  1  0
 15 56  1  6
 16 57  1  0
 16 58  1  0
 17 59  1  0
 19 60  1  1
 20 61  1  0
 20 62  1  0
 21 63  1  0
 21 64  1  0
 22 65  1  1
 23 66  1  0
 25 67  1  0
 25 68  1  0
 25 69  1  0
 26 70  1  0
 26 71  1  0
 26 72  1  0
 28 73  1  0
 28 74  1  0
 28 75  1  0
 29 76  1  0
 29 77  1  0
 30 78  1  0
 30 79  1  0
 32 80  1  0
 32 81  1  0
 32 82  1  0
M  END
>  <meeko>  (5) 
{"is_sidechain": [false], "intermolecular_energy": 2.731, "internal_energy": -0.839}

$$$$
EPH_relaxed_0001_pdb2pqr_Repair_225_r2_0001_out
     RDKit          3D

 82 86  0  0  0  0  0  0  0  0999 V2000
   -5.2060    5.8010   -1.5460 C   0  0  0  0  0  0  0  0  0  0  0  0
   -5.4450    7.3030   -1.7270 C   0  0  2  0  0  0  0  0  0  0  0  0
   -5.1860    8.0920   -0.4280 C   0  0  0  0  0  0  0  0  0  0  0  0
   -4.1580    9.2150   -0.5850 C   0  0  0  0  0  0  0  0  0  0  0  0
   -2.7870    8.6770   -0.8620 C   0  0  2  0  0  0  0  0  0  0  0  0
   -1.8100    8.9810    0.1420 O   0  0  0  0  0  0  0  0  0  0  0  0
   -1.5860    9.5570   -1.1550 C   0  0  0  0  0  0  0  0  0  0  0  0
   -1.7010   11.0490   -1.1860 C   0  0  0  0  0  0  0  0  0  0  0  0
   -0.4240    8.9610   -1.8860 C   0  0  0  0  0  0  0  0  0  0  0  0
   -6.8700    7.5480   -2.2100 C   0  0  1  0  0  0  0  0  0  0  0  0
   -7.1630    6.8700   -3.5740 C   0  0  0  0  0  0  0  0  0  0  0  0
   -8.6430    6.4100   -3.5370 C   0  0  0  0  0  0  0  0  0  0  0  0
   -9.2420    7.1230   -2.3020 C   0  0  1  0  0  0  0  0  0  0  0  0
   -9.5720    8.5680   -2.7950 C   0  0  0  0  0  0  0  0  0  0  0  0
  -10.4850    6.4400   -1.6450 C   0  0  2  0  0  0  0  0  0  0  0  0
  -11.7270    6.3360   -2.5480 C   0  0  0  0  0  0  0  0  0  0  0  0
  -12.6710    7.4890   -2.4690 C   0  0  0  0  0  0  0  0  0  0  0  0
  -12.6800    8.4280   -1.5040 C   0  0  0  0  0  0  0  0  0  0  0  0
  -11.7350    8.3290   -0.3000 C   0  0  1  0  0  0  0  0  0  0  0  0
  -12.5290    8.6020    1.0050 C   0  0  0  0  0  0  0  0  0  0  0  0
  -13.2850    9.9260    0.9640 C   0  0  0  0  0  0  0  0  0  0  0  0
  -14.2570    9.9630   -0.2130 C   0  0  2  0  0  0  0  0  0  0  0  0
  -15.2870    8.9950    0.0100 O   0  0  0  0  0  0  0  0  0  0  0  0
  -13.5720    9.6920   -1.5810 C   0  0  0  0  0  0  0  0  0  0  0  0
  -12.6760   10.8960   -1.9630 C   0  0  0  0  0  0  0  0  0  0  0  0
  -14.6820    9.6170   -2.6640 C   0  0  0  0  0  0  0  0  0  0  0  0
  -10.8560    7.0080   -0.2150 C   0  0  1  0  0  0  0  0  0  0  0  0
  -11.6530    5.8850    0.5170 C   0  0  0  0  0  0  0  0  0  0  0  0
   -9.5820    7.2940    0.6640 C   0  0  0  0  0  0  0  0  0  0  0  0
   -8.3470    7.8560   -0.0640 C   0  0  0  0  0  0  0  0  0  0  0  0
   -8.0240    7.0310   -1.3130 C   0  0  2  0  0  0  0  0  0  0  0  0
   -7.6660    5.5780   -0.8480 C   0  0  0  0  0  0  0  0  0  0  0  0
   -5.1680    5.5625   -0.4728 H   0  0  0  0  0  0  0  0  0  0  0  0
   -6.0261    5.2398   -2.0176 H   0  0  0  0  0  0  0  0  0  0  0  0
   -4.2522    5.5220   -2.0176 H   0  0  0  0  0  0  0  0  0  0  0  0
   -4.7299    7.6639   -2.4809 H   0  0  0  0  0  0  0  0  0  0  0  0
   -6.1363    8.5351   -0.0954 H   0  0  0  0  0  0  0  0  0  0  0  0
   -4.7758    7.3806    0.3039 H   0  0  0  0  0  0  0  0  0  0  0  0
   -4.4623    9.8626   -1.4205 H   0  0  0  0  0  0  0  0  0  0  0  0
   -4.1205    9.7798    0.3582 H   0  0  0  0  0  0  0  0  0  0  0  0
   -3.2091    7.8065   -1.3855 H   0  0  0  0  0  0  0  0  0  0  0  0
   -1.7308   11.4359   -0.1567 H   0  0  0  0  0  0  0  0  0  0  0  0
   -0.8329   11.4728   -1.7120 H   0  0  0  0  0  0  0  0  0  0  0  0
   -2.6238   11.3348   -1.7120 H   0  0  0  0  0  0  0  0  0  0  0  0
    0.3114    8.5838   -1.1601 H   0  0  0  0  0  0  0  0  0  0  0  0
   -0.7746    8.1314   -2.5176 H   0  0  0  0  0  0  0  0  0  0  0  0
    0.0452    9.7297   -2.5176 H   0  0  0  0  0  0  0  0  0  0  0  0
   -6.8718    8.6478   -2.2290 H   0  0  0  0  0  0  0  0  0  0  0  0
   -7.0097    7.5871   -4.3940 H   0  0  0  0  0  0  0  0  0  0  0  0
   -6.4889    6.0175   -3.7438 H   0  0  0  0  0  0  0  0  0  0  0  0
   -9.1677    6.7154   -4.4543 H   0  0  0  0  0  0  0  0  0  0  0  0
   -8.7385    5.3159   -3.4743 H   0  0  0  0  0  0  0  0  0  0  0  0
   -9.7223    9.2263   -1.9266 H   0  0  0  0  0  0  0  0  0  0  0  0
   -8.7374    8.9476   -3.4028 H   0  0  0  0  0  0  0  0  0  0  0  0
  -10.4886    8.5477   -3.4028 H   0  0  0  0  0  0  0  0  0  0  0  0
  -10.1359    5.4072   -1.4981 H   0  0  0  0  0  0  0  0  0  0  0  0
  -11.3837    6.2486   -3.5894 H   0  0  0  0  0  0  0  0  0  0  0  0
  -12.2880    5.4586   -2.1939 H   0  0  0  0  0  0  0  0  0  0  0  0
  -13.4231    7.5795   -3.2666 H   0  0  0  0  0  0  0  0  0  0  0  0
  -10.9748    9.1107   -0.4448 H   0  0  0  0  0  0  0  0  0  0  0  0
  -13.2528    7.7872    1.1543 H   0  0  0  0  0  0  0  0  0  0  0  0
  -11.8047    8.6568    1.8310 H   0  0  0  0  0  0  0  0  0  0  0  0
  -13.8489   10.0477    1.9006 H   0  0  0  0  0  0  0  0  0  0  0  0
  -12.5574   10.7423    0.8443 H   0  0  0  0  0  0  0  0  0  0  0  0
  -14.6727   10.9800   -0.2667 H   0  0  0  0  0  0  0  0  0  0  0  0
  -14.8570    8.1610    0.2630 H   0  0  0  0  0  0  0  0  0  0  0  0
  -12.3111   11.3863   -1.0484 H   0  0  0  0  0  0  0  0  0  0  0  0
  -11.8197   10.5423   -2.5560 H   0  0  0  0  0  0  0  0  0  0  0  0
  -13.2607   11.6147   -2.5560 H   0  0  0  0  0  0  0  0  0  0  0  0
  -15.6659    9.5505   -2.1766 H   0  0  0  0  0  0  0  0  0  0  0  0
  -14.6438   10.5198   -3.2913 H   0  0  0  0  0  0  0  0  0  0  0  0
  -14.5227    8.7276   -3.2913 H   0  0  0  0  0  0  0  0  0  0  0  0
  -11.5587    6.0179    1.6049 H   0  0  0  0  0  0  0  0  0  0  0  0
  -12.7137    5.9423    0.2312 H   0  0  0  0  0  0  0  0  0  0  0  0
  -11.2488    4.9027    0.2312 H   0  0  0  0  0  0  0  0  0  0  0  0
   -9.8692    8.0189    1.4399 H   0  0  0  0  0  0  0  0  0  0  0  0
   -9.2686    6.3106    1.0444 H   0  0  0  0  0  0  0  0  0  0  0  0
   -8.5470    8.8959   -0.3615 H   0  0  0  0  0  0  0  0  0  0  0  0
   -7.4861    7.8096    0.6191 H   0  0  0  0  0  0  0  0  0  0  0  0
   -7.6559    5.5368    0.2512 H   0  0  0  0  0  0  0  0  0  0  0  0
   -8.4175    4.8737   -1.2344 H   0  0  0  0  0  0  0  0  0  0  0  0
   -6.6734    5.3035   -1.2344 H   0  0  0  0  0  0  0  0  0  0  0  0
  1  2  1  0
  2  3  1  0
  3  4  1  0
  4  5  1  0
  5  6  1  0
  6  7  1  0
  7  8  1  0
  7  9  1  0
  2 10  1  0
 10 11  1  0
 11 12  1  0
 12 13  1  0
 13 14  1  6
 13 15  1  0
 15 16  1  0
 16 17  1  0
 17 18  2  0
 18 19  1  0
 19 20  1  0
 20 21  1  0
 21 22  1  0
 22 23  1  0
 22 24  1  0
 24 25  1  0
 24 26  1  0
 19 27  1  0
 27 28  1  1
 27 29  1  0
 29 30  1  0
 30 31  1  0
 31 32  1  1
  7  5  1  0
 31 10  1  0
 31 13  1  0
 27 15  1  0
 24 18  1  0
  1 33  1  0
  1 34  1  0
  1 35  1  0
  2 36  1  6
  3 37  1  0
  3 38  1  0
  4 39  1  0
  4 40  1  0
  5 41  1  6
  8 42  1  0
  8 43  1  0
  8 44  1  0
  9 45  1  0
  9 46  1  0
  9 47  1  0
 10 48  1  6
 11 49  1  0
 11 50  1  0
 12 51  1  0
 12 52  1  0
 14 53  1  0
 14 54  1  0
 14 55  1  0
 15 56  1  1
 16 57  1  0
 16 58  1  0
 17 59  1  0
 19 60  1  6
 20 61  1  0
 20 62  1  0
 21 63  1  0
 21 64  1  0
 22 65  1  6
 23 66  1  0
 25 67  1  0
 25 68  1  0
 25 69  1  0
 26 70  1  0
 26 71  1  0
 26 72  1  0
 28 73  1  0
 28 74  1  0
 28 75  1  0
 29 76  1  0
 29 77  1  0
 30 78  1  0
 30 79  1  0
 32 80  1  0
 32 81  1  0
 32 82  1  0
M  END
>  <meeko>  (6) 
{"is_sidechain": [false], "intermolecular_energy": 2.731, "internal_energy": -0.839}

$$$$
EPH_relaxed_0001_pdb2pqr_Repair_225_r2_0001_out
     RDKit          3D

 82 86  0  0  0  0  0  0  0  0999 V2000
    3.6090   17.3990    0.4890 C   0  0  0  0  0  0  0  0  0  0  0  0
    3.3880   16.5260   -0.7500 C   0  0  2  0  0  0  0  0  0  0  0  0
    3.1440   17.3690   -2.0180 C   0  0  0  0  0  0  0  0  0  0  0  0
    2.6100   18.7750   -1.7300 C   0  0  0  0  0  0  0  0  0  0  0  0
    1.1220   18.8470   -1.8970 C   0  0  2  0  0  0  0  0  0  0  0  0
    0.5950   20.1770   -1.9940 O   0  0  0  0  0  0  0  0  0  0  0  0
    0.1890   19.4160   -0.8450 C   0  0  0  0  0  0  0  0  0  0  0  0
    0.7090   19.9500    0.4530 C   0  0  0  0  0  0  0  0  0  0  0  0
   -1.2510   19.0080   -0.8700 C   0  0  0  0  0  0  0  0  0  0  0  0
    2.2140   15.5820   -0.5180 C   0  0  1  0  0  0  0  0  0  0  0  0
    0.8850   16.3370   -0.2480 C   0  0  0  0  0  0  0  0  0  0  0  0
   -0.2470   15.4920   -0.8870 C   0  0  0  0  0  0  0  0  0  0  0  0
    0.4150   14.1320   -1.2090 C   0  0  1  0  0  0  0  0  0  0  0  0
    0.4060   13.3520    0.1430 C   0  0  0  0  0  0  0  0  0  0  0  0
   -0.2380   13.3010   -2.3600 C   0  0  2  0  0  0  0  0  0  0  0  0
   -1.6900   12.8600   -2.1040 C   0  0  0  0  0  0  0  0  0  0  0  0
   -1.8460   11.5340   -1.4380 C   0  0  0  0  0  0  0  0  0  0  0  0
   -0.8830   10.6020   -1.3150 C   0  0  0  0  0  0  0  0  0  0  0  0
    0.4920   10.8000   -1.9660 C   0  0  1  0  0  0  0  0  0  0  0  0
    0.9090    9.5010   -2.7040 C   0  0  0  0  0  0  0  0  0  0  0  0
    0.8630    8.2740   -1.7980 C   0  0  0  0  0  0  0  0  0  0  0  0
   -0.5340    8.0760   -1.2170 C   0  0  2  0  0  0  0  0  0  0  0  0
   -1.4330    7.7420   -2.2800 O   0  0  0  0  0  0  0  0  0  0  0  0
   -1.0640    9.3250   -0.4580 C   0  0  0  0  0  0  0  0  0  0  0  0
   -0.2720    9.5080    0.8600 C   0  0  0  0  0  0  0  0  0  0  0  0
   -2.5350    9.0440   -0.0450 C   0  0  0  0  0  0  0  0  0  0  0  0
    0.6490   12.0950   -2.8740 C   0  0  1  0  0  0  0  0  0  0  0  0
    0.1810   11.7850   -4.3280 C   0  0  0  0  0  0  0  0  0  0  0  0
    2.1750   12.4740   -2.9700 C   0  0  0  0  0  0  0  0  0  0  0  0
    2.7330   13.3950   -1.8690 C   0  0  0  0  0  0  0  0  0  0  0  0
    1.8360   14.6210   -1.6730 C   0  0  2  0  0  0  0  0  0  0  0  0
    1.8440   15.4380   -3.0100 C   0  0  0  0  0  0  0  0  0  0  0  0
    3.4560   16.7947    1.3953 H   0  0  0  0  0  0  0  0  0  0  0  0
    4.6355   17.7942    0.4807 H   0  0  0  0  0  0  0  0  0  0  0  0
    2.8942   18.2350    0.4807 H   0  0  0  0  0  0  0  0  0  0  0  0
    4.3067   15.9434   -0.9127 H   0  0  0  0  0  0  0  0  0  0  0  0
    4.0962   17.4637   -2.5605 H   0  0  0  0  0  0  0  0  0  0  0  0
    2.3750   16.8478   -2.6071 H   0  0  0  0  0  0  0  0  0  0  0  0
    2.8665   19.0491   -0.6960 H   0  0  0  0  0  0  0  0  0  0  0  0
    3.0700   19.4705   -2.4474 H   0  0  0  0  0  0  0  0  0  0  0  0
    1.1144   17.8987   -2.4543 H   0  0  0  0  0  0  0  0  0  0  0  0
    0.2089   19.4365    1.2874 H   0  0  0  0  0  0  0  0  0  0  0  0
    1.7936   19.7764    0.5128 H   0  0  0  0  0  0  0  0  0  0  0  0
    0.5066   21.0296    0.5128 H   0  0  0  0  0  0  0  0  0  0  0  0
   -1.6204   18.9033    0.1608 H   0  0  0  0  0  0  0  0  0  0  0  0
   -1.8402   19.7745   -1.3946 H   0  0  0  0  0  0  0  0  0  0  0  0
   -1.3506   18.0463   -1.3946 H   0  0  0  0  0  0  0  0  0  0  0  0
    2.6035   15.0089    0.3363 H   0  0  0  0  0  0  0  0  0  0  0  0
    0.7188   16.4359    0.8349 H   0  0  0  0  0  0  0  0  0  0  0  0
    0.9119   17.3498   -0.6765 H   0  0  0  0  0  0  0  0  0  0  0  0
   -1.0797   15.3608   -0.1803 H   0  0  0  0  0  0  0  0  0  0  0  0
   -0.6710   15.9715   -1.7816 H   0  0  0  0  0  0  0  0  0  0  0  0
    0.4143   14.0670    0.9789 H   0  0  0  0  0  0  0  0  0  0  0  0
   -0.4994   12.7300    0.2015 H   0  0  0  0  0  0  0  0  0  0  0  0
    1.2968   12.7093    0.2015 H   0  0  0  0  0  0  0  0  0  0  0  0
   -0.2873   14.0332   -3.1794 H   0  0  0  0  0  0  0  0  0  0  0  0
   -2.1682   13.6186   -1.4669 H   0  0  0  0  0  0  0  0  0  0  0  0
   -2.1563   12.7591   -3.0951 H   0  0  0  0  0  0  0  0  0  0  0  0
   -2.8320   11.2981   -1.0112 H   0  0  0  0  0  0  0  0  0  0  0  0
    1.1919   11.0009   -1.1415 H   0  0  0  0  0  0  0  0  0  0  0  0
    0.2246    9.3407   -3.5501 H   0  0  0  0  0  0  0  0  0  0  0  0
    1.9478    9.6277   -3.0427 H   0  0  0  0  0  0  0  0  0  0  0  0
    1.1388    7.3842   -2.3830 H   0  0  0  0  0  0  0  0  0  0  0  0
    1.5698    8.4238   -0.9685 H   0  0  0  0  0  0  0  0  0  0  0  0
   -0.4720    7.2627   -0.4790 H   0  0  0  0  0  0  0  0  0  0  0  0
   -2.2130    8.3160   -2.1970 H   0  0  0  0  0  0  0  0  0  0  0  0
   -0.9445    9.3526    1.7165 H   0  0  0  0  0  0  0  0  0  0  0  0
    0.5478    8.7756    0.8999 H   0  0  0  0  0  0  0  0  0  0  0  0
    0.1434   10.5258    0.8999 H   0  0  0  0  0  0  0  0  0  0  0  0
   -2.6114    9.0294    1.0522 H   0  0  0  0  0  0  0  0  0  0  0  0
   -3.1861    9.8340   -0.4474 H   0  0  0  0  0  0  0  0  0  0  0  0
   -2.8491    8.0696   -0.4474 H   0  0  0  0  0  0  0  0  0  0  0  0
   -0.7357   11.1778   -4.2965 H   0  0  0  0  0  0  0  0  0  0  0  0
   -0.0218   12.7280   -4.8568 H   0  0  0  0  0  0  0  0  0  0  0  0
    0.9702   11.2304   -4.8568 H   0  0  0  0  0  0  0  0  0  0  0  0
    2.7524   11.5381   -2.9450 H   0  0  0  0  0  0  0  0  0  0  0  0
    2.2701   13.0500   -3.9023 H   0  0  0  0  0  0  0  0  0  0  0  0
    2.7875   12.8343   -0.9242 H   0  0  0  0  0  0  0  0  0  0  0  0
    3.7335   13.7373   -2.1719 H   0  0  0  0  0  0  0  0  0  0  0  0
    1.8545   16.5141   -2.7821 H   0  0  0  0  0  0  0  0  0  0  0  0
    2.7396   15.1779   -3.5933 H   0  0  0  0  0  0  0  0  0  0  0  0
    0.9434   15.1955   -3.5933 H   0  0  0  0  0  0  0  0  0  0  0  0
  1  2  1  0
  2  3  1  0
  3  4  1  0
  4  5  1  0
  5  6  1  0
  6  7  1  0
  7  8  1  0
  7  9  1  0
  2 10  1  0
 10 11  1  0
 11 12  1  0
 12 13  1  0
 13 14  1  1
 13 15  1  0
 15 16  1  0
 16 17  1  0
 17 18  2  0
 18 19  1  0
 19 20  1  0
 20 21  1  0
 21 22  1  0
 22 23  1  0
 22 24  1  0
 24 25  1  0
 24 26  1  0
 19 27  1  0
 27 28  1  6
 27 29  1  0
 29 30  1  0
 30 31  1  0
 31 32  1  6
  7  5  1  0
 31 10  1  0
 31 13  1  0
 27 15  1  0
 24 18  1  0
  1 33  1  0
  1 34  1  0
  1 35  1  0
  2 36  1  6
  3 37  1  0
  3 38  1  0
  4 39  1  0
  4 40  1  0
  5 41  1  6
  8 42  1  0
  8 43  1  0
  8 44  1  0
  9 45  1  0
  9 46  1  0
  9 47  1  0
 10 48  1  1
 11 49  1  0
 11 50  1  0
 12 51  1  0
 12 52  1  0
 14 53  1  0
 14 54  1  0
 14 55  1  0
 15 56  1  6
 16 57  1  0
 16 58  1  0
 17 59  1  0
 19 60  1  1
 20 61  1  0
 20 62  1  0
 21 63  1  0
 21 64  1  0
 22 65  1  1
 23 66  1  0
 25 67  1  0
 25 68  1  0
 25 69  1  0
 26 70  1  0
 26 71  1  0
 26 72  1  0
 28 73  1  0
 28 74  1  0
 28 75  1  0
 29 76  1  0
 29 77  1  0
 30 78  1  0
 30 79  1  0
 32 80  1  0
 32 81  1  0
 32 82  1  0
M  END
>  <meeko>  (7) 
{"is_sidechain": [false], "intermolecular_energy": 2.731, "internal_energy": -0.839}

$$$$
EPH_relaxed_0001_pdb2pqr_Repair_225_r2_0001_out
     RDKit          3D

 82 86  0  0  0  0  0  0  0  0999 V2000
    0.3750    8.8100   -2.3440 C   0  0  0  0  0  0  0  0  0  0  0  0
    1.1150    9.9440   -3.0580 C   0  0  2  0  0  0  0  0  0  0  0  0
    2.6200    9.9580   -2.7230 C   0  0  0  0  0  0  0  0  0  0  0  0
    3.4900   10.5680   -3.8240 C   0  0  0  0  0  0  0  0  0  0  0  0
    4.8870   10.8300   -3.3460 C   0  0  2  0  0  0  0  0  0  0  0  0
    5.4790   12.0310   -3.8570 O   0  0  0  0  0  0  0  0  0  0  0  0
    6.1010   10.7990   -4.2550 C   0  0  0  0  0  0  0  0  0  0  0  0
    5.9760   10.4970   -5.7150 C   0  0  0  0  0  0  0  0  0  0  0  0
    7.4490   10.5780   -3.6400 C   0  0  0  0  0  0  0  0  0  0  0  0
    0.4880   11.2850   -2.6930 C   0  0  1  0  0  0  0  0  0  0  0  0
   -0.8870   11.1290   -1.9890 C   0  0  0  0  0  0  0  0  0  0  0  0
   -0.9890   12.2730   -0.9480 C   0  0  0  0  0  0  0  0  0  0  0  0
    0.1670   13.2350   -1.3120 C   0  0  1  0  0  0  0  0  0  0  0  0
   -0.3820   14.0930   -2.4950 C   0  0  0  0  0  0  0  0  0  0  0  0
    0.7100   14.1320   -0.1520 C   0  0  2  0  0  0  0  0  0  0  0  0
   -0.3110   15.1190    0.4420 C   0  0  0  0  0  0  0  0  0  0  0  0
   -0.3470   16.4640   -0.2040 C   0  0  0  0  0  0  0  0  0  0  0  0
    0.5940   16.9630   -1.0260 C   0  0  0  0  0  0  0  0  0  0  0  0
    1.8890   16.1870   -1.3040 C   0  0  1  0  0  0  0  0  0  0  0  0
    3.1030   17.1450   -1.1830 C   0  0  0  0  0  0  0  0  0  0  0  0
    2.9620   18.3810   -2.0670 C   0  0  0  0  0  0  0  0  0  0  0  0
    1.6940   19.1580   -1.7210 C   0  0  2  0  0  0  0  0  0  0  0  0
    1.8310   19.7010   -0.4040 O   0  0  0  0  0  0  0  0  0  0  0  0
    0.4060   18.2920   -1.7990 C   0  0  0  0  0  0  0  0  0  0  0  0
    0.0940   17.9540   -3.2780 C   0  0  0  0  0  0  0  0  0  0  0  0
   -0.7810   19.1550   -1.2910 C   0  0  0  0  0  0  0  0  0  0  0  0
    2.0850   14.8460   -0.4740 C   0  0  1  0  0  0  0  0  0  0  0  0
    2.7540   15.1630    0.8990 C   0  0  0  0  0  0  0  0  0  0  0  0
    3.0810   13.9040   -1.2470 C   0  0  0  0  0  0  0  0  0  0  0  0
    2.4690   12.9560   -2.2960 C   0  0  0  0  0  0  0  0  0  0  0  0
    1.2740   12.1950   -1.7150 C   0  0  2  0  0  0  0  0  0  0  0  0
    1.7990   11.3060   -0.5370 C   0  0  0  0  0  0  0  0  0  0  0  0
    0.4621    8.9435   -1.2556 H   0  0  0  0  0  0  0  0  0  0  0  0
   -0.6866    8.8267   -2.6317 H   0  0  0  0  0  0  0  0  0  0  0  0
    0.8177    7.8450   -2.6317 H   0  0  0  0  0  0  0  0  0  0  0  0
    1.0195    9.7707   -4.1401 H   0  0  0  0  0  0  0  0  0  0  0  0
    2.7653   10.5419   -1.8022 H   0  0  0  0  0  0  0  0  0  0  0  0
    2.9336    8.9098   -2.6095 H   0  0  0  0  0  0  0  0  0  0  0  0
    3.5290    9.8714   -4.6745 H   0  0  0  0  0  0  0  0  0  0  0  0
    3.0435   11.5284   -4.1211 H   0  0  0  0  0  0  0  0  0  0  0  0
    4.6740   10.3440   -2.3824 H   0  0  0  0  0  0  0  0  0  0  0  0
    5.5583    9.4879   -5.8462 H   0  0  0  0  0  0  0  0  0  0  0  0
    5.3090   11.2340   -6.1861 H   0  0  0  0  0  0  0  0  0  0  0  0
    6.9688   10.5471   -6.1861 H   0  0  0  0  0  0  0  0  0  0  0  0
    7.3588   10.5928   -2.5438 H   0  0  0  0  0  0  0  0  0  0  0  0
    7.8437    9.6032   -3.9623 H   0  0  0  0  0  0  0  0  0  0  0  0
    8.1343   11.3758   -3.9623 H   0  0  0  0  0  0  0  0  0  0  0  0
    0.4494   11.7485   -3.6898 H   0  0  0  0  0  0  0  0  0  0  0  0
   -1.7007   11.2125   -2.7245 H   0  0  0  0  0  0  0  0  0  0  0  0
   -0.9731   10.1453   -1.5044 H   0  0  0  0  0  0  0  0  0  0  0  0
   -1.9596   12.7846   -1.0269 H   0  0  0  0  0  0  0  0  0  0  0  0
   -0.9156   11.9045    0.0858 H   0  0  0  0  0  0  0  0  0  0  0  0
   -0.9345   14.9565   -2.0962 H   0  0  0  0  0  0  0  0  0  0  0  0
    0.4574   14.4476   -3.1112 H   0  0  0  0  0  0  0  0  0  0  0  0
   -1.0557   13.4795   -3.1112 H   0  0  0  0  0  0  0  0  0  0  0  0
    0.9108   13.3966    0.6410 H   0  0  0  0  0  0  0  0  0  0  0  0
   -1.3111   14.6704    0.3494 H   0  0  0  0  0  0  0  0  0  0  0  0
    0.0004   15.2894    1.4832 H   0  0  0  0  0  0  0  0  0  0  0  0
   -1.2172   17.1018    0.0103 H   0  0  0  0  0  0  0  0  0  0  0  0
    1.8066   15.8178   -2.3369 H   0  0  0  0  0  0  0  0  0  0  0  0
    3.1939   17.4688   -0.1357 H   0  0  0  0  0  0  0  0  0  0  0  0
    3.9965   16.5962   -1.5155 H   0  0  0  0  0  0  0  0  0  0  0  0
    3.8356   19.0324   -1.9169 H   0  0  0  0  0  0  0  0  0  0  0  0
    2.8996   18.0567   -3.1163 H   0  0  0  0  0  0  0  0  0  0  0  0
    1.5808   19.9564   -2.4691 H   0  0  0  0  0  0  0  0  0  0  0  0
    2.7380   19.5220   -0.1050 H   0  0  0  0  0  0  0  0  0  0  0  0
   -0.6516   17.1463   -3.3201 H   0  0  0  0  0  0  0  0  0  0  0  0
   -0.3040   18.8470   -3.7821 H   0  0  0  0  0  0  0  0  0  0  0  0
    1.0160   17.6286   -3.7821 H   0  0  0  0  0  0  0  0  0  0  0  0
   -0.7869   19.1593   -0.1910 H   0  0  0  0  0  0  0  0  0  0  0  0
   -0.6703   20.1849   -1.6611 H   0  0  0  0  0  0  0  0  0  0  0  0
   -1.7266   18.7321   -1.6611 H   0  0  0  0  0  0  0  0  0  0  0  0
    2.0863   14.8466    1.7139 H   0  0  0  0  0  0  0  0  0  0  0  0
    3.7083   14.6213    0.9756 H   0  0  0  0  0  0  0  0  0  0  0  0
    2.9391   16.2446    0.9756 H   0  0  0  0  0  0  0  0  0  0  0  0
    3.8115   14.5442   -1.7632 H   0  0  0  0  0  0  0  0  0  0  0  0
    3.5083   13.2441   -0.4776 H   0  0  0  0  0  0  0  0  0  0  0  0
    2.1337   13.5457   -3.1620 H   0  0  0  0  0  0  0  0  0  0  0  0
    3.2350   12.2274   -2.6000 H   0  0  0  0  0  0  0  0  0  0  0  0
    1.5253   11.7695    0.4223 H   0  0  0  0  0  0  0  0  0  0  0  0
    1.3468   10.3054   -0.6030 H   0  0  0  0  0  0  0  0  0  0  0  0
    2.8936   11.2188   -0.6030 H   0  0  0  0  0  0  0  0  0  0  0  0
  1  2  1  0
  2  3  1  0
  3  4  1  0
  4  5  1  0
  5  6  1  0
  6  7  1  0
  7  8  1  0
  7  9  1  0
  2 10  1  0
 10 11  1  0
 11 12  1  0
 12 13  1  0
 13 14  1  6
 13 15  1  0
 15 16  1  0
 16 17  1  0
 17 18  2  0
 18 19  1  0
 19 20  1  0
 20 21  1  0
 21 22  1  0
 22 23  1  0
 22 24  1  0
 24 25  1  0
 24 26  1  0
 19 27  1  0
 27 28  1  1
 27 29  1  0
 29 30  1  0
 30 31  1  0
 31 32  1  1
  7  5  1  0
 31 10  1  0
 31 13  1  0
 27 15  1  0
 24 18  1  0
  1 33  1  0
  1 34  1  0
  1 35  1  0
  2 36  1  6
  3 37  1  0
  3 38  1  0
  4 39  1  0
  4 40  1  0
  5 41  1  1
  8 42  1  0
  8 43  1  0
  8 44  1  0
  9 45  1  0
  9 46  1  0
  9 47  1  0
 10 48  1  6
 11 49  1  0
 11 50  1  0
 12 51  1  0
 12 52  1  0
 14 53  1  0
 14 54  1  0
 14 55  1  0
 15 56  1  1
 16 57  1  0
 16 58  1  0
 17 59  1  0
 19 60  1  6
 20 61  1  0
 20 62  1  0
 21 63  1  0
 21 64  1  0
 22 65  1  6
 23 66  1  0
 25 67  1  0
 25 68  1  0
 25 69  1  0
 26 70  1  0
 26 71  1  0
 26 72  1  0
 28 73  1  0
 28 74  1  0
 28 75  1  0
 29 76  1  0
 29 77  1  0
 30 78  1  0
 30 79  1  0
 32 80  1  0
 32 81  1  0
 32 82  1  0
M  END
>  <meeko>  (8) 
{"is_sidechain": [false], "intermolecular_energy": 2.731, "internal_energy": -0.839}

$$$$
EPH_relaxed_0001_pdb2pqr_Repair_225_r2_0001_out
     RDKit          3D

 82 86  0  0  0  0  0  0  0  0999 V2000
    3.0150   18.8590   -1.0650 C   0  0  0  0  0  0  0  0  0  0  0  0
    2.6780   17.8240   -2.1410 C   0  0  2  0  0  0  0  0  0  0  0  0
    1.2800   18.0540   -2.7510 C   0  0  0  0  0  0  0  0  0  0  0  0
    0.5930   19.3280   -2.2510 C   0  0  0  0  0  0  0  0  0  0  0  0
   -0.7550   19.0370   -1.6650 C   0  0  2  0  0  0  0  0  0  0  0  0
   -1.5660   20.1940   -1.4230 O   0  0  0  0  0  0  0  0  0  0  0  0
   -1.1640   19.4480   -0.2630 C   0  0  0  0  0  0  0  0  0  0  0  0
   -0.2250   20.1860    0.6400 C   0  0  0  0  0  0  0  0  0  0  0  0
   -2.2880   18.7130    0.4000 C   0  0  0  0  0  0  0  0  0  0  0  0
    2.7660   16.4190   -1.5570 C   0  0  1  0  0  0  0  0  0  0  0  0
    3.3440   16.4070   -0.1160 C   0  0  0  0  0  0  0  0  0  0  0  0
    2.6160   15.2710    0.6480 C   0  0  0  0  0  0  0  0  0  0  0  0
    1.8940   14.4600   -0.4540 C   0  0  1  0  0  0  0  0  0  0  0  0
    2.9930   13.5250   -1.0490 C   0  0  0  0  0  0  0  0  0  0  0  0
    0.6330   13.6530   -0.0040 C   0  0  2  0  0  0  0  0  0  0  0  0
    0.9000   12.5510    1.0370 C   0  0  0  0  0  0  0  0  0  0  0  0
    1.2140   11.2050    0.4730 C   0  0  0  0  0  0  0  0  0  0  0  0
    1.0010   10.8200   -0.7990 C   0  0  0  0  0  0  0  0  0  0  0  0
    0.3000   11.7510   -1.7960 C   0  0  1  0  0  0  0  0  0  0  0  0
   -0.7840   10.9570   -2.5720 C   0  0  0  0  0  0  0  0  0  0  0  0
   -0.2250    9.7030   -3.2380 C   0  0  0  0  0  0  0  0  0  0  0  0
    0.4120    8.7760   -2.2060 C   0  0  2  0  0  0  0  0  0  0  0  0
   -0.6130    8.2700   -1.3450 O   0  0  0  0  0  0  0  0  0  0  0  0
    1.5130    9.4690   -1.3570 C   0  0  0  0  0  0  0  0  0  0  0  0
    2.7550    9.7470   -2.2400 C   0  0  0  0  0  0  0  0  0  0  0  0
    1.9740    8.4680   -0.2630 C   0  0  0  0  0  0  0  0  0  0  0  0
   -0.2540   13.1160   -1.1990 C   0  0  1  0  0  0  0  0  0  0  0  0
   -1.6900   12.9030   -0.6280 C   0  0  0  0  0  0  0  0  0  0  0  0
   -0.3910   14.1680   -2.3630 C   0  0  0  0  0  0  0  0  0  0  0  0
    0.8550   15.0180   -2.6800 C   0  0  0  0  0  0  0  0  0  0  0  0
    1.4420   15.6280   -1.4040 C   0  0  2  0  0  0  0  0  0  0  0  0
    0.3670   16.5900   -0.7940 C   0  0  0  0  0  0  0  0  0  0  0  0
    2.8700   18.4137   -0.0697 H   0  0  0  0  0  0  0  0  0  0  0  0
    4.0626   19.1755   -1.1760 H   0  0  0  0  0  0  0  0  0  0  0  0
    2.3546   19.7317   -1.1760 H   0  0  0  0  0  0  0  0  0  0  0  0
    3.4143   17.9371   -2.9504 H   0  0  0  0  0  0  0  0  0  0  0  0
    1.3847   18.1218   -3.8439 H   0  0  0  0  0  0  0  0  0  0  0  0
    0.6506   17.2065   -2.4418 H   0  0  0  0  0  0  0  0  0  0  0  0
    1.2239   19.7941   -1.4798 H   0  0  0  0  0  0  0  0  0  0  0  0
    0.4557   20.0029   -3.1087 H   0  0  0  0  0  0  0  0  0  0  0  0
   -0.8036   18.0748   -2.1958 H   0  0  0  0  0  0  0  0  0  0  0  0
   -0.4868   19.9802    1.6884 H   0  0  0  0  0  0  0  0  0  0  0  0
    0.8058   19.8538    0.4475 H   0  0  0  0  0  0  0  0  0  0  0  0
   -0.3042   21.2661    0.4475 H   0  0  0  0  0  0  0  0  0  0  0  0
   -2.1789   18.7843    1.4923 H   0  0  0  0  0  0  0  0  0  0  0  0
   -3.2468   19.1591    0.0973 H   0  0  0  0  0  0  0  0  0  0  0  0
   -2.2637   17.6557    0.0973 H   0  0  0  0  0  0  0  0  0  0  0  0
    3.4030   15.9424   -2.3167 H   0  0  0  0  0  0  0  0  0  0  0  0
    4.4262   16.2121   -0.1435 H   0  0  0  0  0  0  0  0  0  0  0  0
    3.1912   17.3773    0.3792 H   0  0  0  0  0  0  0  0  0  0  0  0
    3.3387   14.6389    1.1849 H   0  0  0  0  0  0  0  0  0  0  0  0
    1.9188   15.6580    1.4057 H   0  0  0  0  0  0  0  0  0  0  0  0
    3.5523   13.0492   -0.2300 H   0  0  0  0  0  0  0  0  0  0  0  0
    2.5186   12.7494   -1.6682 H   0  0  0  0  0  0  0  0  0  0  0  0
    3.6826   14.1175   -1.6682 H   0  0  0  0  0  0  0  0  0  0  0  0
    0.0379   14.4178    0.5165 H   0  0  0  0  0  0  0  0  0  0  0  0
    1.7522   12.8675    1.6563 H   0  0  0  0  0  0  0  0  0  0  0  0
   -0.0357   12.4334    1.6032 H   0  0  0  0  0  0  0  0  0  0  0  0
    1.6573   10.4646    1.1552 H   0  0  0  0  0  0  0  0  0  0  0  0
    1.0803   12.0948   -2.4910 H   0  0  0  0  0  0  0  0  0  0  0  0
   -1.5752   10.6597   -1.8680 H   0  0  0  0  0  0  0  0  0  0  0  0
   -1.1738   11.6115   -3.3655 H   0  0  0  0  0  0  0  0  0  0  0  0
   -1.0425    9.1697   -3.7452 H   0  0  0  0  0  0  0  0  0  0  0  0
    0.5455   10.0039   -3.9631 H   0  0  0  0  0  0  0  0  0  0  0  0
    0.9065    7.9614   -2.7555 H   0  0  0  0  0  0  0  0  0  0  0  0
   -1.3060    7.8840   -1.9080 H   0  0  0  0  0  0  0  0  0  0  0  0
    3.6259    9.9419   -1.5969 H   0  0  0  0  0  0  0  0  0  0  0  0
    2.9567    8.8718   -2.8751 H   0  0  0  0  0  0  0  0  0  0  0  0
    2.5644   10.6247   -2.8751 H   0  0  0  0  0  0  0  0  0  0  0  0
    1.7772    8.8953    0.7313 H   0  0  0  0  0  0  0  0  0  0  0  0
    1.4199    7.5241   -0.3727 H   0  0  0  0  0  0  0  0  0  0  0  0
    3.0515    8.2755   -0.3727 H   0  0  0  0  0  0  0  0  0  0  0  0
   -1.6520   12.9086    0.4713 H   0  0  0  0  0  0  0  0  0  0  0  0
   -2.3471   13.7135   -0.9763 H   0  0  0  0  0  0  0  0  0  0  0  0
   -2.0835   11.9367   -0.9763 H   0  0  0  0  0  0  0  0  0  0  0  0
   -0.6615   13.6196   -3.2774 H   0  0  0  0  0  0  0  0  0  0  0  0
   -1.1488   14.8856   -2.0155 H   0  0  0  0  0  0  0  0  0  0  0  0
    1.6142   14.3800   -3.1560 H   0  0  0  0  0  0  0  0  0  0  0  0
    0.5598   15.8346   -3.3553 H   0  0  0  0  0  0  0  0  0  0  0  0
    0.4163   16.5459    0.3040 H   0  0  0  0  0  0  0  0  0  0  0  0
    0.5638   17.6192   -1.1288 H   0  0  0  0  0  0  0  0  0  0  0  0
   -0.6341   16.2806   -1.1288 H   0  0  0  0  0  0  0  0  0  0  0  0
  1  2  1  0
  2  3  1  0
  3  4  1  0
  4  5  1  0
  5  6  1  0
  6  7  1  0
  7  8  1  0
  7  9  1  0
  2 10  1  0
 10 11  1  0
 11 12  1  0
 12 13  1  0
 13 14  1  6
 13 15  1  0
 15 16  1  0
 16 17  1  0
 17 18  2  0
 18 19  1  0
 19 20  1  0
 20 21  1  0
 21 22  1  0
 22 23  1  0
 22 24  1  0
 24 25  1  0
 24 26  1  0
 19 27  1  0
 27 28  1  1
 27 29  1  0
 29 30  1  0
 30 31  1  0
 31 32  1  1
  7  5  1  0
 31 10  1  0
 31 13  1  0
 27 15  1  0
 24 18  1  0
  1 33  1  0
  1 34  1  0
  1 35  1  0
  2 36  1  6
  3 37  1  0
  3 38  1  0
  4 39  1  0
  4 40  1  0
  5 41  1  6
  8 42  1  0
  8 43  1  0
  8 44  1  0
  9 45  1  0
  9 46  1  0
  9 47  1  0
 10 48  1  6
 11 49  1  0
 11 50  1  0
 12 51  1  0
 12 52  1  0
 14 53  1  0
 14 54  1  0
 14 55  1  0
 15 56  1  1
 16 57  1  0
 16 58  1  0
 17 59  1  0
 19 60  1  6
 20 61  1  0
 20 62  1  0
 21 63  1  0
 21 64  1  0
 22 65  1  6
 23 66  1  0
 25 67  1  0
 25 68  1  0
 25 69  1  0
 26 70  1  0
 26 71  1  0
 26 72  1  0
 28 73  1  0
 28 74  1  0
 28 75  1  0
 29 76  1  0
 29 77  1  0
 30 78  1  0
 30 79  1  0
 32 80  1  0
 32 81  1  0
 32 82  1  0
M  END
>  <meeko>  (9) 
{"is_sidechain": [false], "intermolecular_energy": 2.731, "internal_energy": -0.839}

$$$$
EPH_relaxed_0001_pdb2pqr_Repair_225_r2_0001_out
     RDKit          3D

 82 86  0  0  0  0  0  0  0  0999 V2000
   -0.9620   16.4000   -5.9050 C   0  0  0  0  0  0  0  0  0  0  0  0
    0.1540   15.7140   -6.6980 C   0  0  2  0  0  0  0  0  0  0  0  0
   -0.2230   15.5170   -8.1800 C   0  0  0  0  0  0  0  0  0  0  0  0
    0.4340   16.5290   -9.1220 C   0  0  0  0  0  0  0  0  0  0  0  0
    1.8390   16.1370   -9.4650 C   0  0  2  0  0  0  0  0  0  0  0  0
    2.3310   16.6860  -10.6940 O   0  0  0  0  0  0  0  0  0  0  0  0
    2.1970   15.2560  -10.6480 C   0  0  0  0  0  0  0  0  0  0  0  0
    1.1440   14.7140  -11.5640 C   0  0  0  0  0  0  0  0  0  0  0  0
    3.5040   14.5280  -10.6290 C   0  0  0  0  0  0  0  0  0  0  0  0
    0.4930   14.3700   -6.0630 C   0  0  1  0  0  0  0  0  0  0  0  0
    1.7200   13.6890   -6.7260 C   0  0  0  0  0  0  0  0  0  0  0  0
    2.4780   12.9400   -5.6000 C   0  0  0  0  0  0  0  0  0  0  0  0
    1.4960   12.9350   -4.4050 C   0  0  1  0  0  0  0  0  0  0  0  0
    0.5120   11.7590   -4.6980 C   0  0  0  0  0  0  0  0  0  0  0  0
    2.1370   12.8110   -2.9840 C   0  0  2  0  0  0  0  0  0  0  0  0
    2.9080   11.5040   -2.7280 C   0  0  0  0  0  0  0  0  0  0  0  0
    2.0990   10.3890   -2.1530 C   0  0  0  0  0  0  0  0  0  0  0  0
    0.8830   10.5150   -1.5890 C   0  0  0  0  0  0  0  0  0  0  0  0
    0.2410   11.8950   -1.4010 C   0  0  1  0  0  0  0  0  0  0  0  0
   -0.3340   12.0070    0.0360 C   0  0  0  0  0  0  0  0  0  0  0  0
   -1.2900   10.8670    0.3730 C   0  0  0  0  0  0  0  0  0  0  0  0
   -0.5980    9.5140    0.2310 C   0  0  2  0  0  0  0  0  0  0  0  0
    0.4170    9.4080    1.2330 O   0  0  0  0  0  0  0  0  0  0  0  0
    0.0280    9.2920   -1.1740 C   0  0  0  0  0  0  0  0  0  0  0  0
   -1.0960    9.1070   -2.2230 C   0  0  0  0  0  0  0  0  0  0  0  0
    0.8150    7.9540   -1.1400 C   0  0  0  0  0  0  0  0  0  0  0  0
    1.1460   13.1400   -1.7950 C   0  0  1  0  0  0  0  0  0  0  0  0
    2.0310   13.5600   -0.5810 C   0  0  0  0  0  0  0  0  0  0  0  0
    0.2170   14.3710   -2.1130 C   0  0  0  0  0  0  0  0  0  0  0  0
   -0.2870   14.5040   -3.5630 C   0  0  0  0  0  0  0  0  0  0  0  0
    0.8680   14.3680   -4.5600 C   0  0  2  0  0  0  0  0  0  0  0  0
    1.8630   15.5510   -4.3040 C   0  0  0  0  0  0  0  0  0  0  0  0
   -0.7717   16.2830   -4.8279 H   0  0  0  0  0  0  0  0  0  0  0  0
   -0.9877   17.4700   -6.1587 H   0  0  0  0  0  0  0  0  0  0  0  0
   -1.9283   15.9397   -6.1587 H   0  0  0  0  0  0  0  0  0  0  0  0
    1.0347   16.3723   -6.6665 H   0  0  0  0  0  0  0  0  0  0  0  0
    0.0862   14.5066   -8.4856 H   0  0  0  0  0  0  0  0  0  0  0  0
   -1.3103   15.6647   -8.2574 H   0  0  0  0  0  0  0  0  0  0  0  0
   -0.1557   16.5883  -10.0487 H   0  0  0  0  0  0  0  0  0  0  0  0
    0.4650   17.5026   -8.6111 H   0  0  0  0  0  0  0  0  0  0  0  0
    2.1101   16.0884   -8.4000 H   0  0  0  0  0  0  0  0  0  0  0  0
    0.3220   14.2909  -10.9680 H   0  0  0  0  0  0  0  0  0  0  0  0
    0.7572   15.5250  -12.1985 H   0  0  0  0  0  0  0  0  0  0  0  0
    1.5792   13.9279  -12.1985 H   0  0  0  0  0  0  0  0  0  0  0  0
    3.8128   14.3560   -9.5873 H   0  0  0  0  0  0  0  0  0  0  0  0
    3.3930   13.5617  -11.1428 H   0  0  0  0  0  0  0  0  0  0  0  0
    4.2671   15.1310  -11.1428 H   0  0  0  0  0  0  0  0  0  0  0  0
   -0.4640   13.8486   -6.2125 H   0  0  0  0  0  0  0  0  0  0  0  0
    1.3881   12.9781   -7.4970 H   0  0  0  0  0  0  0  0  0  0  0  0
    2.3690   14.4318   -7.2128 H   0  0  0  0  0  0  0  0  0  0  0  0
    2.7174   11.9122   -5.9102 H   0  0  0  0  0  0  0  0  0  0  0  0
    3.4357   13.4203   -5.3509 H   0  0  0  0  0  0  0  0  0  0  0  0
    0.1560   11.3335   -3.7482 H   0  0  0  0  0  0  0  0  0  0  0  0
   -0.3455   12.1338   -5.2761 H   0  0  0  0  0  0  0  0  0  0  0  0
    1.0322   10.9811   -5.2761 H   0  0  0  0  0  0  0  0  0  0  0  0
    2.8954   13.6076   -2.9968 H   0  0  0  0  0  0  0  0  0  0  0  0
    3.3252   11.1621   -3.6867 H   0  0  0  0  0  0  0  0  0  0  0  0
    3.6733   11.7444   -1.9754 H   0  0  0  0  0  0  0  0  0  0  0  0
    2.5330    9.3791   -2.1935 H   0  0  0  0  0  0  0  0  0  0  0  0
   -0.5758   11.9533   -2.1355 H   0  0  0  0  0  0  0  0  0  0  0  0
    0.5007   11.9908    0.7522 H   0  0  0  0  0  0  0  0  0  0  0  0
   -0.9009   12.9477    0.0969 H   0  0  0  0  0  0  0  0  0  0  0  0
   -1.6400   10.9852    1.4091 H   0  0  0  0  0  0  0  0  0  0  0  0
   -2.1384   10.9023   -0.3263 H   0  0  0  0  0  0  0  0  0  0  0  0
   -1.3645    8.7355    0.3594 H   0  0  0  0  0  0  0  0  0  0  0  0
    1.1670    8.9280    0.8420 H   0  0  0  0  0  0  0  0  0  0  0  0
   -2.0553    8.9491   -1.7085 H   0  0  0  0  0  0  0  0  0  0  0  0
   -1.1614   10.0065   -2.8528 H   0  0  0  0  0  0  0  0  0  0  0  0
   -0.8697    8.2340   -2.8528 H   0  0  0  0  0  0  0  0  0  0  0  0
    0.9893    7.6576   -0.0951 H   0  0  0  0  0  0  0  0  0  0  0  0
    0.2325    7.1729   -1.6504 H   0  0  0  0  0  0  0  0  0  0  0  0
    1.7808    8.0836   -1.6504 H   0  0  0  0  0  0  0  0  0  0  0  0
    1.5099   13.3127    0.3556 H   0  0  0  0  0  0  0  0  0  0  0  0
    2.9887   13.0203   -0.6213 H   0  0  0  0  0  0  0  0  0  0  0  0
    2.2185   14.6431   -0.6213 H   0  0  0  0  0  0  0  0  0  0  0  0
   -0.6648   14.3002   -1.4592 H   0  0  0  0  0  0  0  0  0  0  0  0
    0.8457   15.2577   -1.9441 H   0  0  0  0  0  0  0  0  0  0  0  0
   -1.0274   13.7148   -3.7603 H   0  0  0  0  0  0  0  0  0  0  0  0
   -0.7414   15.4981   -3.6864 H   0  0  0  0  0  0  0  0  0  0  0  0
    1.9868   15.6982   -3.2209 H   0  0  0  0  0  0  0  0  0  0  0  0
    2.8377   15.3146   -4.7557 H   0  0  0  0  0  0  0  0  0  0  0  0
    1.4630   16.4708   -4.7557 H   0  0  0  0  0  0  0  0  0  0  0  0
  1  2  1  0
  2  3  1  0
  3  4  1  0
  4  5  1  0
  5  6  1  0
  6  7  1  0
  7  8  1  0
  7  9  1  0
  2 10  1  0
 10 11  1  0
 11 12  1  0
 12 13  1  0
 13 14  1  6
 13 15  1  0
 15 16  1  0
 16 17  1  0
 17 18  2  0
 18 19  1  0
 19 20  1  0
 20 21  1  0
 21 22  1  0
 22 23  1  0
 22 24  1  0
 24 25  1  0
 24 26  1  0
 19 27  1  0
 27 28  1  1
 27 29  1  0
 29 30  1  0
 30 31  1  0
 31 32  1  6
  7  5  1  0
 31 10  1  0
 31 13  1  0
 27 15  1  0
 24 18  1  0
  1 33  1  0
  1 34  1  0
  1 35  1  0
  2 36  1  6
  3 37  1  0
  3 38  1  0
  4 39  1  0
  4 40  1  0
  5 41  1  1
  8 42  1  0
  8 43  1  0
  8 44  1  0
  9 45  1  0
  9 46  1  0
  9 47  1  0
 10 48  1  1
 11 49  1  0
 11 50  1  0
 12 51  1  0
 12 52  1  0
 14 53  1  0
 14 54  1  0
 14 55  1  0
 15 56  1  6
 16 57  1  0
 16 58  1  0
 17 59  1  0
 19 60  1  6
 20 61  1  0
 20 62  1  0
 21 63  1  0
 21 64  1  0
 22 65  1  1
 23 66  1  0
 25 67  1  0
 25 68  1  0
 25 69  1  0
 26 70  1  0
 26 71  1  0
 26 72  1  0
 28 73  1  0
 28 74  1  0
 28 75  1  0
 29 76  1  0
 29 77  1  0
 30 78  1  0
 30 79  1  0
 32 80  1  0
 32 81  1  0
 32 82  1  0
M  END
>  <meeko>  (10) 
{"is_sidechain": [false], "intermolecular_energy": 2.731, "internal_energy": -0.839}

$$$$
EPH_relaxed_0001_pdb2pqr_Repair_225_r2_0001_out
     RDKit          3D

 82 86  0  0  0  0  0  0  0  0999 V2000
    2.7430   19.0050   -2.2990 C   0  0  0  0  0  0  0  0  0  0  0  0
    1.3900   18.9990   -1.5810 C   0  0  2  0  0  0  0  0  0  0  0  0
    1.3390   20.0220   -0.4290 C   0  0  0  0  0  0  0  0  0  0  0  0
    1.4050   19.3870    0.9620 C   0  0  0  0  0  0  0  0  0  0  0  0
    2.6230   19.8280    1.7160 C   0  0  2  0  0  0  0  0  0  0  0  0
    3.7370   20.1940    0.8920 O   0  0  0  0  0  0  0  0  0  0  0  0
    3.9230   19.0460    1.7360 C   0  0  0  0  0  0  0  0  0  0  0  0
    4.0710   17.7590    0.9870 C   0  0  0  0  0  0  0  0  0  0  0  0
    4.8790   19.2760    2.8640 C   0  0  0  0  0  0  0  0  0  0  0  0
    1.0900   17.6020   -1.0500 C   0  0  1  0  0  0  0  0  0  0  0  0
   -0.1700   17.5650   -0.1440 C   0  0  0  0  0  0  0  0  0  0  0  0
   -0.8630   16.2020   -0.3970 C   0  0  0  0  0  0  0  0  0  0  0  0
    0.1820   15.3710   -1.1780 C   0  0  1  0  0  0  0  0  0  0  0  0
    1.1510   14.8180   -0.0860 C   0  0  0  0  0  0  0  0  0  0  0  0
   -0.3800   14.2280   -2.0840 C   0  0  2  0  0  0  0  0  0  0  0  0
   -1.1330   13.1130   -1.3360 C   0  0  0  0  0  0  0  0  0  0  0  0
   -0.2920   11.9640   -0.8900 C   0  0  0  0  0  0  0  0  0  0  0  0
    0.9530   11.6910   -1.3230 C   0  0  0  0  0  0  0  0  0  0  0  0
    1.6010   12.5270   -2.4340 C   0  0  1  0  0  0  0  0  0  0  0  0
    2.2530   11.5840   -3.4790 C   0  0  0  0  0  0  0  0  0  0  0  0
    3.2290   10.5970   -2.8470 C   0  0  0  0  0  0  0  0  0  0  0  0
    2.5340    9.7440   -1.7890 C   0  0  2  0  0  0  0  0  0  0  0  0
    1.5750    8.9000   -2.4340 O   0  0  0  0  0  0  0  0  0  0  0  0
    1.8320   10.5860   -0.6870 C   0  0  0  0  0  0  0  0  0  0  0  0
    2.8980   11.2670    0.2060 C   0  0  0  0  0  0  0  0  0  0  0  0
    1.0520    9.6100    0.2350 C   0  0  0  0  0  0  0  0  0  0  0  0
    0.6730   13.6300   -3.1030 C   0  0  1  0  0  0  0  0  0  0  0  0
   -0.1450   13.0000   -4.2710 C   0  0  0  0  0  0  0  0  0  0  0  0
    1.5800   14.7440   -3.7470 C   0  0  0  0  0  0  0  0  0  0  0  0
    2.0050   15.9100   -2.8330 C   0  0  0  0  0  0  0  0  0  0  0  0
    0.7970   16.4930   -2.0920 C   0  0  2  0  0  0  0  0  0  0  0  0
   -0.1850   17.0770   -3.1640 C   0  0  0  0  0  0  0  0  0  0  0  0
    3.5530   19.0086   -1.5548 H   0  0  0  0  0  0  0  0  0  0  0  0
    2.8278   18.1072   -2.9289 H   0  0  0  0  0  0  0  0  0  0  0  0
    2.8198   19.9035   -2.9289 H   0  0  0  0  0  0  0  0  0  0  0  0
    0.6246   19.2906   -2.3153 H   0  0  0  0  0  0  0  0  0  0  0  0
    2.1907   20.7097   -0.5374 H   0  0  0  0  0  0  0  0  0  0  0  0
    0.3704   20.5384   -0.5007 H   0  0  0  0  0  0  0  0  0  0  0  0
    0.5092   19.6788    1.5299 H   0  0  0  0  0  0  0  0  0  0  0  0
    1.4552   18.2951    0.8382 H   0  0  0  0  0  0  0  0  0  0  0  0
    2.0018   20.2471    2.5212 H   0  0  0  0  0  0  0  0  0  0  0  0
    4.1666   16.9280    1.7013 H   0  0  0  0  0  0  0  0  0  0  0  0
    3.1853   17.5989    0.3546 H   0  0  0  0  0  0  0  0  0  0  0  0
    4.9699   17.8041    0.3546 H   0  0  0  0  0  0  0  0  0  0  0  0
    4.3532   19.1495    3.8219 H   0  0  0  0  0  0  0  0  0  0  0  0
    5.7034   18.5506    2.7997 H   0  0  0  0  0  0  0  0  0  0  0  0
    5.2832   20.2970    2.7997 H   0  0  0  0  0  0  0  0  0  0  0  0
    2.0388   17.3931   -0.5341 H   0  0  0  0  0  0  0  0  0  0  0  0
    0.1210   17.6515    0.9133 H   0  0  0  0  0  0  0  0  0  0  0  0
   -0.8468   18.4009   -0.3745 H   0  0  0  0  0  0  0  0  0  0  0  0
   -1.1155   15.7123    0.5551 H   0  0  0  0  0  0  0  0  0  0  0  0
   -1.8072   16.3109   -0.9507 H   0  0  0  0  0  0  0  0  0  0  0  0
    0.7485   15.0477    0.9116 H   0  0  0  0  0  0  0  0  0  0  0  0
    1.2484   13.7283   -0.2001 H   0  0  0  0  0  0  0  0  0  0  0  0
    2.1388   15.2884   -0.2001 H   0  0  0  0  0  0  0  0  0  0  0  0
   -1.1393   14.7537   -2.6816 H   0  0  0  0  0  0  0  0  0  0  0  0
   -1.6011   13.5575   -0.4453 H   0  0  0  0  0  0  0  0  0  0  0  0
   -1.8564   12.6997   -2.0542 H   0  0  0  0  0  0  0  0  0  0  0  0
   -0.7262   11.2821   -0.1440 H   0  0  0  0  0  0  0  0  0  0  0  0
    2.3765   13.1340   -1.9439 H   0  0  0  0  0  0  0  0  0  0  0  0
    1.4586   11.0179   -3.9874 H   0  0  0  0  0  0  0  0  0  0  0  0
    2.8199   12.2087   -4.1849 H   0  0  0  0  0  0  0  0  0  0  0  0
    3.6339    9.9395   -3.6304 H   0  0  0  0  0  0  0  0  0  0  0  0
    4.0386   11.1642   -2.3644 H   0  0  0  0  0  0  0  0  0  0  0  0
    3.3093    9.1498   -1.2831 H   0  0  0  0  0  0  0  0  0  0  0  0
    0.8940    8.6730   -1.7780 H   0  0  0  0  0  0  0  0  0  0  0  0
    2.6464   11.1063    1.2647 H   0  0  0  0  0  0  0  0  0  0  0  0
    3.8860   10.8324   -0.0062 H   0  0  0  0  0  0  0  0  0  0  0  0
    2.9189   12.3461   -0.0062 H   0  0  0  0  0  0  0  0  0  0  0  0
    1.2523    9.8606    1.2872 H   0  0  0  0  0  0  0  0  0  0  0  0
   -0.0260    9.6997    0.0355 H   0  0  0  0  0  0  0  0  0  0  0  0
    1.3772    8.5783    0.0355 H   0  0  0  0  0  0  0  0  0  0  0  0
   -0.9530   12.3777   -3.8588 H   0  0  0  0  0  0  0  0  0  0  0  0
   -0.5776   13.8004   -4.8892 H   0  0  0  0  0  0  0  0  0  0  0  0
    0.5184   12.3773   -4.8892 H   0  0  0  0  0  0  0  0  0  0  0  0
    2.4961   14.2569   -4.1124 H   0  0  0  0  0  0  0  0  0  0  0  0
    0.9583   15.2040   -4.5293 H   0  0  0  0  0  0  0  0  0  0  0  0
    2.7358   15.5429   -2.0974 H   0  0  0  0  0  0  0  0  0  0  0  0
    2.4499   16.7002   -3.4556 H   0  0  0  0  0  0  0  0  0  0  0  0
   -1.0247   17.5764   -2.6586 H   0  0  0  0  0  0  0  0  0  0  0  0
    0.3492   17.8043   -3.7930 H   0  0  0  0  0  0  0  0  0  0  0  0
   -0.5690   16.2604   -3.7930 H   0  0  0  0  0  0  0  0  0  0  0  0
  1  2  1  0
  2  3  1  0
  3  4  1  0
  4  5  1  0
  5  6  1  0
  6  7  1  0
  7  8  1  0
  7  9  1  0
  2 10  1  0
 10 11  1  0
 11 12  1  0
 12 13  1  0
 13 14  1  1
 13 15  1  0
 15 16  1  0
 16 17  1  0
 17 18  2  0
 18 19  1  0
 19 20  1  0
 20 21  1  0
 21 22  1  0
 22 23  1  0
 22 24  1  0
 24 25  1  0
 24 26  1  0
 19 27  1  0
 27 28  1  6
 27 29  1  0
 29 30  1  0
 30 31  1  0
 31 32  1  6
  7  5  1  0
 31 10  1  0
 31 13  1  0
 27 15  1  0
 24 18  1  0
  1 33  1  0
  1 34  1  0
  1 35  1  0
  2 36  1  6
  3 37  1  0
  3 38  1  0
  4 39  1  0
  4 40  1  0
  5 41  1  1
  8 42  1  0
  8 43  1  0
  8 44  1  0
  9 45  1  0
  9 46  1  0
  9 47  1  0
 10 48  1  1
 11 49  1  0
 11 50  1  0
 12 51  1  0
 12 52  1  0
 14 53  1  0
 14 54  1  0
 14 55  1  0
 15 56  1  6
 16 57  1  0
 16 58  1  0
 17 59  1  0
 19 60  1  1
 20 61  1  0
 20 62  1  0
 21 63  1  0
 21 64  1  0
 22 65  1  1
 23 66  1  0
 25 67  1  0
 25 68  1  0
 25 69  1  0
 26 70  1  0
 26 71  1  0
 26 72  1  0
 28 73  1  0
 28 74  1  0
 28 75  1  0
 29 76  1  0
 29 77  1  0
 30 78  1  0
 30 79  1  0
 32 80  1  0
 32 81  1  0
 32 82  1  0
M  END
>  <meeko>  (11) 
{"is_sidechain": [false], "intermolecular_energy": 2.731, "internal_energy": -0.839}

$$$$
EPH_relaxed_0001_pdb2pqr_Repair_225_r2_0001_out
     RDKit          3D

 82 86  0  0  0  0  0  0  0  0999 V2000
   -4.0450    7.3620   -3.5810 C   0  0  0  0  0  0  0  0  0  0  0  0
   -3.6860    7.2670   -2.0960 C   0  0  2  0  0  0  0  0  0  0  0  0
   -4.8830    6.8110   -1.2380 C   0  0  0  0  0  0  0  0  0  0  0  0
   -6.1600    6.5630   -2.0450 C   0  0  0  0  0  0  0  0  0  0  0  0
   -7.3500    6.3650   -1.1540 C   0  0  2  0  0  0  0  0  0  0  0  0
   -8.4200    5.6150   -1.7430 O   0  0  0  0  0  0  0  0  0  0  0  0
   -8.7080    6.9860   -1.4230 C   0  0  0  0  0  0  0  0  0  0  0  0
   -8.9480    7.8520   -2.6190 C   0  0  0  0  0  0  0  0  0  0  0  0
   -9.6580    7.1500   -0.2780 C   0  0  0  0  0  0  0  0  0  0  0  0
   -3.1720    8.6130   -1.5980 C   0  0  1  0  0  0  0  0  0  0  0  0
   -3.8370    9.0520   -0.2660 C   0  0  0  0  0  0  0  0  0  0  0  0
   -2.7550    9.8080    0.5470 C   0  0  0  0  0  0  0  0  0  0  0  0
   -1.6170   10.0680   -0.4680 C   0  0  1  0  0  0  0  0  0  0  0  0
   -2.0740   11.3280   -1.2690 C   0  0  0  0  0  0  0  0  0  0  0  0
   -0.1850   10.2550    0.1330 C   0  0  2  0  0  0  0  0  0  0  0  0
   -0.0220   11.4670    1.0670 C   0  0  0  0  0  0  0  0  0  0  0  0
    0.3980   12.7340    0.3990 C   0  0  0  0  0  0  0  0  0  0  0  0
    0.9100   12.8320   -0.8420 C   0  0  0  0  0  0  0  0  0  0  0  0
    1.2020   11.5770   -1.6750 C   0  0  1  0  0  0  0  0  0  0  0  0
    2.6120   11.6950   -2.3110 C   0  0  0  0  0  0  0  0  0  0  0  0
    2.7870   12.9810   -3.1130 C   0  0  0  0  0  0  0  0  0  0  0  0
    2.5450   14.2070   -2.2360 C   0  0  2  0  0  0  0  0  0  0  0  0
    3.5810   14.2830   -1.2530 O   0  0  0  0  0  0  0  0  0  0  0  0
    1.1580   14.1950   -1.5350 C   0  0  0  0  0  0  0  0  0  0  0  0
    0.0410   14.4170   -2.5840 C   0  0  0  0  0  0  0  0  0  0  0  0
    1.0980   15.4130   -0.5730 C   0  0  0  0  0  0  0  0  0  0  0  0
    0.9800   10.1880   -0.9360 C   0  0  1  0  0  0  0  0  0  0  0  0
    2.2720    9.7840   -0.1610 C   0  0  0  0  0  0  0  0  0  0  0  0
    0.7390    9.0650   -2.0140 C   0  0  0  0  0  0  0  0  0  0  0  0
   -0.7130    8.8490   -2.4790 C   0  0  0  0  0  0  0  0  0  0  0  0
   -1.6600    8.7240   -1.2810 C   0  0  2  0  0  0  0  0  0  0  0  0
   -1.2380    7.4520   -0.4680 C   0  0  0  0  0  0  0  0  0  0  0  0
   -5.1036    7.6421   -3.6851 H   0  0  0  0  0  0  0  0  0  0  0  0
   -3.4149    8.1243   -4.0625 H   0  0  0  0  0  0  0  0  0  0  0  0
   -3.8744    6.3878   -4.0625 H   0  0  0  0  0  0  0  0  0  0  0  0
   -2.8973    6.5070   -1.9942 H   0  0  0  0  0  0  0  0  0  0  0  0
   -4.6080    5.8764   -0.7272 H   0  0  0  0  0  0  0  0  0  0  0  0
   -5.1019    7.6263   -0.5327 H   0  0  0  0  0  0  0  0  0  0  0  0
   -6.3434    7.4296   -2.6972 H   0  0  0  0  0  0  0  0  0  0  0  0
   -6.0188    5.6467   -2.6370 H   0  0  0  0  0  0  0  0  0  0  0  0
   -6.7089    6.3514   -0.2602 H   0  0  0  0  0  0  0  0  0  0  0  0
   -9.2283    8.8633   -2.2892 H   0  0  0  0  0  0  0  0  0  0  0  0
   -8.0306    7.9046   -3.2236 H   0  0  0  0  0  0  0  0  0  0  0  0
   -9.7616    7.4249   -3.2236 H   0  0  0  0  0  0  0  0  0  0  0  0
   -9.1089    7.0552    0.6704 H   0  0  0  0  0  0  0  0  0  0  0  0
  -10.1288    8.1427   -0.3315 H   0  0  0  0  0  0  0  0  0  0  0  0
  -10.4344    6.3726   -0.3315 H   0  0  0  0  0  0  0  0  0  0  0  0
   -3.4210    9.2378   -2.4684 H   0  0  0  0  0  0  0  0  0  0  0  0
   -4.6903    9.7156   -0.4695 H   0  0  0  0  0  0  0  0  0  0  0  0
   -4.2143    8.1824    0.2921 H   0  0  0  0  0  0  0  0  0  0  0  0
   -3.1533   10.7568    0.9357 H   0  0  0  0  0  0  0  0  0  0  0  0
   -2.4124    9.2344    1.4208 H   0  0  0  0  0  0  0  0  0  0  0  0
   -2.3627   12.1240   -0.5669 H   0  0  0  0  0  0  0  0  0  0  0  0
   -1.2463   11.6801   -1.9022 H   0  0  0  0  0  0  0  0  0  0  0  0
   -2.9349   11.0676   -1.9022 H   0  0  0  0  0  0  0  0  0  0  0  0
   -0.0809    9.3678    0.7749 H   0  0  0  0  0  0  0  0  0  0  0  0
   -0.9878   11.6474    1.5616 H   0  0  0  0  0  0  0  0  0  0  0  0
    0.7881   11.2073    1.7644 H   0  0  0  0  0  0  0  0  0  0  0  0
    0.2790   13.6670    0.9694 H   0  0  0  0  0  0  0  0  0  0  0  0
    0.4371   11.5508   -2.4651 H   0  0  0  0  0  0  0  0  0  0  0  0
    3.3636   11.6753   -1.5081 H   0  0  0  0  0  0  0  0  0  0  0  0
    2.7371   10.8500   -3.0040 H   0  0  0  0  0  0  0  0  0  0  0  0
    3.8114   13.0201   -3.5120 H   0  0  0  0  0  0  0  0  0  0  0  0
    2.0546   12.9858   -3.9337 H   0  0  0  0  0  0  0  0  0  0  0  0
    2.5561   15.0893   -2.8928 H   0  0  0  0  0  0  0  0  0  0  0  0
    3.2190   14.7470   -0.4790 H   0  0  0  0  0  0  0  0  0  0  0  0
   -0.9127   14.6065   -2.0696 H   0  0  0  0  0  0  0  0  0  0  0  0
    0.2961   15.2820   -3.2138 H   0  0  0  0  0  0  0  0  0  0  0  0
   -0.0540   13.5202   -3.2138 H   0  0  0  0  0  0  0  0  0  0  0  0
    1.1154   15.0590    0.4683 H   0  0  0  0  0  0  0  0  0  0  0  0
    1.9651   16.0655   -0.7530 H   0  0  0  0  0  0  0  0  0  0  0  0
    0.1710   15.9771   -0.7530 H   0  0  0  0  0  0  0  0  0  0  0  0
    2.0839    9.8428    0.9212 H   0  0  0  0  0  0  0  0  0  0  0  0
    2.5536    8.7549   -0.4288 H   0  0  0  0  0  0  0  0  0  0  0  0
    3.0896   10.4694   -0.4288 H   0  0  0  0  0  0  0  0  0  0  0  0
    1.3378    9.3208   -2.9006 H   0  0  0  0  0  0  0  0  0  0  0  0
    1.0257    8.1251   -1.5195 H   0  0  0  0  0  0  0  0  0  0  0  0
   -1.0243    9.7049   -3.0959 H   0  0  0  0  0  0  0  0  0  0  0  0
   -0.7596    7.9171   -3.0615 H   0  0  0  0  0  0  0  0  0  0  0  0
   -1.3087    7.6650    0.6089 H   0  0  0  0  0  0  0  0  0  0  0  0
   -1.9071    6.6164   -0.7212 H   0  0  0  0  0  0  0  0  0  0  0  0
   -0.2021    7.1820   -0.7212 H   0  0  0  0  0  0  0  0  0  0  0  0
  1  2  1  0
  2  3  1  0
  3  4  1  0
  4  5  1  0
  5  6  1  0
  6  7  1  0
  7  8  1  0
  7  9  1  0
  2 10  1  0
 10 11  1  0
 11 12  1  0
 12 13  1  0
 13 14  1  6
 13 15  1  0
 15 16  1  0
 16 17  1  0
 17 18  2  0
 18 19  1  0
 19 20  1  0
 20 21  1  0
 21 22  1  0
 22 23  1  0
 22 24  1  0
 24 25  1  0
 24 26  1  0
 19 27  1  0
 27 28  1  1
 27 29  1  0
 29 30  1  0
 30 31  1  0
 31 32  1  1
  7  5  1  0
 31 10  1  0
 31 13  1  0
 27 15  1  0
 24 18  1  0
  1 33  1  0
  1 34  1  0
  1 35  1  0
  2 36  1  6
  3 37  1  0
  3 38  1  0
  4 39  1  0
  4 40  1  0
  5 41  1  1
  8 42  1  0
  8 43  1  0
  8 44  1  0
  9 45  1  0
  9 46  1  0
  9 47  1  0
 10 48  1  6
 11 49  1  0
 11 50  1  0
 12 51  1  0
 12 52  1  0
 14 53  1  0
 14 54  1  0
 14 55  1  0
 15 56  1  1
 16 57  1  0
 16 58  1  0
 17 59  1  0
 19 60  1  6
 20 61  1  0
 20 62  1  0
 21 63  1  0
 21 64  1  0
 22 65  1  6
 23 66  1  0
 25 67  1  0
 25 68  1  0
 25 69  1  0
 26 70  1  0
 26 71  1  0
 26 72  1  0
 28 73  1  0
 28 74  1  0
 28 75  1  0
 29 76  1  0
 29 77  1  0
 30 78  1  0
 30 79  1  0
 32 80  1  0
 32 81  1  0
 32 82  1  0
M  END
>  <meeko>  (12) 
{"is_sidechain": [false], "intermolecular_energy": 2.731, "internal_energy": -0.839}

$$$$
EPH_relaxed_0001_pdb2pqr_Repair_225_r2_0001_out
     RDKit          3D

 82 86  0  0  0  0  0  0  0  0999 V2000
   -2.1130    7.8410   -2.1180 C   0  0  0  0  0  0  0  0  0  0  0  0
   -2.1710    8.4950   -0.7340 C   0  0  2  0  0  0  0  0  0  0  0  0
   -3.6010    8.5070   -0.1570 C   0  0  0  0  0  0  0  0  0  0  0  0
   -4.6960    8.5130   -1.2260 C   0  0  0  0  0  0  0  0  0  0  0  0
   -5.5170    7.2590   -1.1870 C   0  0  2  0  0  0  0  0  0  0  0  0
   -5.7630    6.6640   -2.4680 O   0  0  0  0  0  0  0  0  0  0  0  0
   -6.9160    7.1560   -1.7650 C   0  0  0  0  0  0  0  0  0  0  0  0
   -7.5760    8.3270   -2.4230 C   0  0  0  0  0  0  0  0  0  0  0  0
   -7.8210    6.0750   -1.2600 C   0  0  0  0  0  0  0  0  0  0  0  0
   -1.6270    9.9170   -0.8080 C   0  0  1  0  0  0  0  0  0  0  0  0
   -1.1410   10.4420    0.5690 C   0  0  0  0  0  0  0  0  0  0  0  0
    0.0860   11.3500    0.2930 C   0  0  0  0  0  0  0  0  0  0  0  0
    0.0620   11.5830   -1.2360 C   0  0  1  0  0  0  0  0  0  0  0  0
   -0.9860   12.7190   -1.4520 C   0  0  0  0  0  0  0  0  0  0  0  0
    1.4330   11.9280   -1.9040 C   0  0  2  0  0  0  0  0  0  0  0  0
    2.0820   13.2380   -1.4230 C   0  0  0  0  0  0  0  0  0  0  0  0
    1.7140   14.4560   -2.2030 C   0  0  0  0  0  0  0  0  0  0  0  0
    1.1270   14.4610   -3.4140 C   0  0  0  0  0  0  0  0  0  0  0  0
    0.8600   13.1510   -4.1660 C   0  0  1  0  0  0  0  0  0  0  0  0
    1.3140   13.2990   -5.6420 C   0  0  0  0  0  0  0  0  0  0  0  0
    0.6810   14.5050   -6.3300 C   0  0  0  0  0  0  0  0  0  0  0  0
    1.0170   15.7950   -5.5860 C   0  0  2  0  0  0  0  0  0  0  0  0
    2.4220   16.0420   -5.7020 O   0  0  0  0  0  0  0  0  0  0  0  0
    0.6150   15.7600   -4.0850 C   0  0  0  0  0  0  0  0  0  0  0  0
   -0.9290   15.7960   -3.9590 C   0  0  0  0  0  0  0  0  0  0  0  0
    1.1350   17.0630   -3.4200 C   0  0  0  0  0  0  0  0  0  0  0  0
    1.4270   11.8320   -3.4830 C   0  0  1  0  0  0  0  0  0  0  0  0
    2.9060   11.6000   -3.9210 C   0  0  0  0  0  0  0  0  0  0  0  0
    0.6100   10.5920   -4.0040 C   0  0  0  0  0  0  0  0  0  0  0  0
   -0.6720   10.2290   -3.2300 C   0  0  0  0  0  0  0  0  0  0  0  0
   -0.4020   10.1630   -1.7240 C   0  0  2  0  0  0  0  0  0  0  0  0
    0.6330    9.0130   -1.4730 C   0  0  0  0  0  0  0  0  0  0  0  0
   -2.0163    6.7511   -2.0048 H   0  0  0  0  0  0  0  0  0  0  0  0
   -3.0351    8.0718   -2.6715 H   0  0  0  0  0  0  0  0  0  0  0  0
   -1.2459    8.2305   -2.6715 H   0  0  0  0  0  0  0  0  0  0  0  0
   -1.5470    7.8931   -0.0570 H   0  0  0  0  0  0  0  0  0  0  0  0
   -3.7308    7.6111    0.4680 H   0  0  0  0  0  0  0  0  0  0  0  0
   -3.7078    9.4389    0.4176 H   0  0  0  0  0  0  0  0  0  0  0  0
   -5.3559    9.3764   -1.0553 H   0  0  0  0  0  0  0  0  0  0  0  0
   -4.2120    8.5751   -2.2118 H   0  0  0  0  0  0  0  0  0  0  0  0
   -5.1039    6.9916   -0.2032 H   0  0  0  0  0  0  0  0  0  0  0  0
   -7.9616    9.0111   -1.6527 H   0  0  0  0  0  0  0  0  0  0  0  0
   -6.8433    8.8563   -3.0499 H   0  0  0  0  0  0  0  0  0  0  0  0
   -8.4082    7.9743   -3.0499 H   0  0  0  0  0  0  0  0  0  0  0  0
   -7.8181    6.0785   -0.1600 H   0  0  0  0  0  0  0  0  0  0  0  0
   -8.8435    6.2528   -1.6245 H   0  0  0  0  0  0  0  0  0  0  0  0
   -7.4662    5.0997   -1.6245 H   0  0  0  0  0  0  0  0  0  0  0  0
   -2.5096   10.4319   -1.2153 H   0  0  0  0  0  0  0  0  0  0  0  0
   -1.9389   11.0211    1.0569 H   0  0  0  0  0  0  0  0  0  0  0  0
   -0.8748    9.6102    1.2377 H   0  0  0  0  0  0  0  0  0  0  0  0
   -0.0074   12.3039    0.8328 H   0  0  0  0  0  0  0  0  0  0  0  0
    1.0278   10.8931    0.6309 H   0  0  0  0  0  0  0  0  0  0  0  0
   -1.3296   13.0914   -0.4756 H   0  0  0  0  0  0  0  0  0  0  0  0
   -0.5234   13.5422   -2.0163 H   0  0  0  0  0  0  0  0  0  0  0  0
   -1.8437   12.3242   -2.0163 H   0  0  0  0  0  0  0  0  0  0  0  0
    2.0836   11.1202   -1.5377 H   0  0  0  0  0  0  0  0  0  0  0  0
    1.7833   13.4012   -0.3770 H   0  0  0  0  0  0  0  0  0  0  0  0
    3.1660   13.1073   -1.5565 H   0  0  0  0  0  0  0  0  0  0  0  0
    1.9418   15.4321   -1.7498 H   0  0  0  0  0  0  0  0  0  0  0  0
   -0.2278   12.9927   -4.1242 H   0  0  0  0  0  0  0  0  0  0  0  0
    2.4078   13.4137   -5.6648 H   0  0  0  0  0  0  0  0  0  0  0  0
    0.9905   12.3976   -6.1832 H   0  0  0  0  0  0  0  0  0  0  0  0
    1.0621   14.5733   -7.3596 H   0  0  0  0  0  0  0  0  0  0  0  0
   -0.4113   14.3750   -6.3325 H   0  0  0  0  0  0  0  0  0  0  0  0
    0.4318   16.6036   -6.0483 H   0  0  0  0  0  0  0  0  0  0  0  0
    2.7370   15.5810   -6.4970 H   0  0  0  0  0  0  0  0  0  0  0  0
   -1.2100   15.8026   -2.8955 H   0  0  0  0  0  0  0  0  0  0  0  0
   -1.3156   16.7034   -4.4460 H   0  0  0  0  0  0  0  0  0  0  0  0
   -1.3574   14.9076   -4.4460 H   0  0  0  0  0  0  0  0  0  0  0  0
    1.0932   16.9582   -2.3258 H   0  0  0  0  0  0  0  0  0  0  0  0
    2.1743   17.2441   -3.7315 H   0  0  0  0  0  0  0  0  0  0  0  0
    0.5060   17.9099   -3.7315 H   0  0  0  0  0  0  0  0  0  0  0  0
    3.5414   11.5003   -3.0286 H   0  0  0  0  0  0  0  0  0  0  0  0
    2.9706   10.6807   -4.5216 H   0  0  0  0  0  0  0  0  0  0  0  0
    3.2490   12.4553   -4.5216 H   0  0  0  0  0  0  0  0  0  0  0  0
    0.3228   10.7968   -5.0459 H   0  0  0  0  0  0  0  0  0  0  0  0
    1.2800    9.7298   -3.8711 H   0  0  0  0  0  0  0  0  0  0  0  0
   -1.4388   10.9931   -3.4251 H   0  0  0  0  0  0  0  0  0  0  0  0
   -1.0184    9.2413   -3.5682 H   0  0  0  0  0  0  0  0  0  0  0  0
    0.7640    8.8674   -0.3906 H   0  0  0  0  0  0  0  0  0  0  0  0
    0.2631    8.0814   -1.9261 H   0  0  0  0  0  0  0  0  0  0  0  0
    1.5983    9.2831   -1.9261 H   0  0  0  0  0  0  0  0  0  0  0  0
  1  2  1  0
  2  3  1  0
  3  4  1  0
  4  5  1  0
  5  6  1  0
  6  7  1  0
  7  8  1  0
  7  9  1  0
  2 10  1  0
 10 11  1  0
 11 12  1  0
 12 13  1  0
 13 14  1  1
 13 15  1  0
 15 16  1  0
 16 17  1  0
 17 18  2  0
 18 19  1  0
 19 20  1  0
 20 21  1  0
 21 22  1  0
 22 23  1  0
 22 24  1  0
 24 25  1  0
 24 26  1  0
 19 27  1  0
 27 28  1  6
 27 29  1  0
 29 30  1  0
 30 31  1  0
 31 32  1  6
  7  5  1  0
 31 10  1  0
 31 13  1  0
 27 15  1  0
 24 18  1  0
  1 33  1  0
  1 34  1  0
  1 35  1  0
  2 36  1  1
  3 37  1  0
  3 38  1  0
  4 39  1  0
  4 40  1  0
  5 41  1  1
  8 42  1  0
  8 43  1  0
  8 44  1  0
  9 45  1  0
  9 46  1  0
  9 47  1  0
 10 48  1  6
 11 49  1  0
 11 50  1  0
 12 51  1  0
 12 52  1  0
 14 53  1  0
 14 54  1  0
 14 55  1  0
 15 56  1  1
 16 57  1  0
 16 58  1  0
 17 59  1  0
 19 60  1  6
 20 61  1  0
 20 62  1  0
 21 63  1  0
 21 64  1  0
 22 65  1  6
 23 66  1  0
 25 67  1  0
 25 68  1  0
 25 69  1  0
 26 70  1  0
 26 71  1  0
 26 72  1  0
 28 73  1  0
 28 74  1  0
 28 75  1  0
 29 76  1  0
 29 77  1  0
 30 78  1  0
 30 79  1  0
 32 80  1  0
 32 81  1  0
 32 82  1  0
M  END
>  <meeko>  (13) 
{"is_sidechain": [false], "intermolecular_energy": 2.731, "internal_energy": -0.839}

$$$$
EPH_relaxed_0001_pdb2pqr_Repair_225_r2_0001_out
     RDKit          3D

 82 86  0  0  0  0  0  0  0  0999 V2000
    0.2450    9.8880   -4.6170 C   0  0  0  0  0  0  0  0  0  0  0  0
    1.3240   10.6140   -3.8090 C   0  0  2  0  0  0  0  0  0  0  0  0
    1.7820    9.7970   -2.5850 C   0  0  0  0  0  0  0  0  0  0  0  0
    0.7810    8.7210   -2.1540 C   0  0  0  0  0  0  0  0  0  0  0  0
   -0.1200    9.2080   -1.0600 C   0  0  2  0  0  0  0  0  0  0  0  0
   -0.6820    8.1740   -0.2420 O   0  0  0  0  0  0  0  0  0  0  0  0
   -1.6130    8.9400   -1.0240 C   0  0  0  0  0  0  0  0  0  0  0  0
   -2.2910    8.1560   -2.1030 C   0  0  0  0  0  0  0  0  0  0  0  0
   -2.4830    9.8450   -0.2080 C   0  0  0  0  0  0  0  0  0  0  0  0
    0.8090   11.9770   -3.3630 C   0  0  1  0  0  0  0  0  0  0  0  0
   -0.7030   11.9600   -3.0160 C   0  0  0  0  0  0  0  0  0  0  0  0
   -0.9040   12.9500   -1.8400 C   0  0  0  0  0  0  0  0  0  0  0  0
    0.4210   13.7440   -1.7680 C   0  0  1  0  0  0  0  0  0  0  0  0
    0.2950   14.8370   -2.8750 C   0  0  0  0  0  0  0  0  0  0  0  0
    0.7790   14.3680   -0.3800 C   0  0  2  0  0  0  0  0  0  0  0  0
   -0.2160   15.4210    0.1390 C   0  0  0  0  0  0  0  0  0  0  0  0
    0.0830   16.8290   -0.2560 C   0  0  0  0  0  0  0  0  0  0  0  0
    1.2540   17.2710   -0.7520 C   0  0  0  0  0  0  0  0  0  0  0  0
    2.4630   16.3340   -0.8700 C   0  0  1  0  0  0  0  0  0  0  0  0
    3.7260   17.0470   -0.3210 C   0  0  0  0  0  0  0  0  0  0  0  0
    3.9690   18.3990   -0.9850 C   0  0  0  0  0  0  0  0  0  0  0  0
    2.7690   19.3230   -0.7960 C   0  0  2  0  0  0  0  0  0  0  0  0
    2.6510   19.6480    0.5920 O   0  0  0  0  0  0  0  0  0  0  0  0
    1.4350   18.7060   -1.3040 C   0  0  0  0  0  0  0  0  0  0  0  0
    1.4510   18.6340   -2.8510 C   0  0  0  0  0  0  0  0  0  0  0  0
    0.2850   19.6780   -0.9260 C   0  0  0  0  0  0  0  0  0  0  0  0
    2.2730   14.8770   -0.2630 C   0  0  1  0  0  0  0  0  0  0  0  0
    2.6240   14.8830    1.2560 C   0  0  0  0  0  0  0  0  0  0  0  0
    3.2950   13.8960   -0.9510 C   0  0  0  0  0  0  0  0  0  0  0  0
    2.8370   13.2200   -2.2570 C   0  0  0  0  0  0  0  0  0  0  0  0
    1.4470   12.5980   -2.0940 C   0  0  2  0  0  0  0  0  0  0  0  0
    1.5480   11.4790   -1.0020 C   0  0  0  0  0  0  0  0  0  0  0  0
   -0.4675    9.4086   -3.9296 H   0  0  0  0  0  0  0  0  0  0  0  0
   -0.2877   10.6121   -5.2510 H   0  0  0  0  0  0  0  0  0  0  0  0
    0.7150    9.1217   -5.2510 H   0  0  0  0  0  0  0  0  0  0  0  0
    2.1980   10.7427   -4.4644 H   0  0  0  0  0  0  0  0  0  0  0  0
    2.7349    9.3060   -2.8319 H   0  0  0  0  0  0  0  0  0  0  0  0
    1.8782   10.5015   -1.7457 H   0  0  0  0  0  0  0  0  0  0  0  0
    0.1671    8.4373   -3.0215 H   0  0  0  0  0  0  0  0  0  0  0  0
    1.3477    7.8586   -1.7729 H   0  0  0  0  0  0  0  0  0  0  0  0
    0.4662   10.1332   -0.9575 H   0  0  0  0  0  0  0  0  0  0  0  0
   -2.9464    7.3982   -1.6490 H   0  0  0  0  0  0  0  0  0  0  0  0
   -2.8919    8.8342   -2.7267 H   0  0  0  0  0  0  0  0  0  0  0  0
   -1.5332    7.6592   -2.7267 H   0  0  0  0  0  0  0  0  0  0  0  0
   -2.3043    9.6592    0.8614 H   0  0  0  0  0  0  0  0  0  0  0  0
   -2.2444   10.8928   -0.4429 H   0  0  0  0  0  0  0  0  0  0  0  0
   -3.5394    9.6479   -0.4429 H   0  0  0  0  0  0  0  0  0  0  0  0
    1.0748   12.5733   -4.2483 H   0  0  0  0  0  0  0  0  0  0  0  0
   -1.2948   12.2804   -3.8861 H   0  0  0  0  0  0  0  0  0  0  0  0
   -1.0333   10.9476   -2.7404 H   0  0  0  0  0  0  0  0  0  0  0  0
   -1.7502   13.6238   -2.0399 H   0  0  0  0  0  0  0  0  0  0  0  0
   -1.1336   12.4349   -0.8956 H   0  0  0  0  0  0  0  0  0  0  0  0
    0.1812   15.8245   -2.4040 H   0  0  0  0  0  0  0  0  0  0  0  0
    1.1998   14.8313   -3.5006 H   0  0  0  0  0  0  0  0  0  0  0  0
   -0.5847   14.6256   -3.5006 H   0  0  0  0  0  0  0  0  0  0  0  0
    0.6818   13.5064    0.2969 H   0  0  0  0  0  0  0  0  0  0  0  0
   -1.2141   15.1645   -0.2458 H   0  0  0  0  0  0  0  0  0  0  0  0
   -0.1463   15.3911    1.2364 H   0  0  0  0  0  0  0  0  0  0  0  0
   -0.7218   17.5684   -0.1312 H   0  0  0  0  0  0  0  0  0  0  0  0
    2.5861   16.1304   -1.9440 H   0  0  0  0  0  0  0  0  0  0  0  0
    3.6010   17.2027    0.7607 H   0  0  0  0  0  0  0  0  0  0  0  0
    4.5931   16.4065   -0.5400 H   0  0  0  0  0  0  0  0  0  0  0  0
    4.8575   18.8663   -0.5355 H   0  0  0  0  0  0  0  0  0  0  0  0
    4.1223   18.2385   -2.0624 H   0  0  0  0  0  0  0  0  0  0  0  0
    2.9482   20.2243   -1.4006 H   0  0  0  0  0  0  0  0  0  0  0  0
    3.5500   19.7140    0.9560 H   0  0  0  0  0  0  0  0  0  0  0  0
    1.6795   17.6057   -3.1679 H   0  0  0  0  0  0  0  0  0  0  0  0
    0.4657   18.9277   -3.2419 H   0  0  0  0  0  0  0  0  0  0  0  0
    2.2192   19.3174   -3.2419 H   0  0  0  0  0  0  0  0  0  0  0  0
    0.2062   19.7446    0.1692 H   0  0  0  0  0  0  0  0  0  0  0  0
    0.4967   20.6750   -1.3397 H   0  0  0  0  0  0  0  0  0  0  0  0
   -0.6628   19.3031   -1.3397 H   0  0  0  0  0  0  0  0  0  0  0  0
    1.6962   14.8671    1.8468 H   0  0  0  0  0  0  0  0  0  0  0  0
    3.2271   13.9950    1.4965 H   0  0  0  0  0  0  0  0  0  0  0  0
    3.1964   15.7911    1.4965 H   0  0  0  0  0  0  0  0  0  0  0  0
    4.2070   14.4689   -1.1749 H   0  0  0  0  0  0  0  0  0  0  0  0
    3.4318   13.0734   -0.2337 H   0  0  0  0  0  0  0  0  0  0  0  0
    2.8028   13.9723   -3.0588 H   0  0  0  0  0  0  0  0  0  0  0  0
    3.5512   12.4219   -2.5080 H   0  0  0  0  0  0  0  0  0  0  0  0
    1.5067   11.9370   -0.0027 H   0  0  0  0  0  0  0  0  0  0  0  0
    0.7096   10.7764   -1.1183 H   0  0  0  0  0  0  0  0  0  0  0  0
    2.4986   10.9379   -1.1183 H   0  0  0  0  0  0  0  0  0  0  0  0
  1  2  1  0
  2  3  1  0
  3  4  1  0
  4  5  1  0
  5  6  1  0
  6  7  1  0
  7  8  1  0
  7  9  1  0
  2 10  1  0
 10 11  1  0
 11 12  1  0
 12 13  1  0
 13 14  1  6
 13 15  1  0
 15 16  1  0
 16 17  1  0
 17 18  2  0
 18 19  1  0
 19 20  1  0
 20 21  1  0
 21 22  1  0
 22 23  1  0
 22 24  1  0
 24 25  1  0
 24 26  1  0
 19 27  1  0
 27 28  1  1
 27 29  1  0
 29 30  1  0
 30 31  1  0
 31 32  1  1
  7  5  1  0
 31 10  1  0
 31 13  1  0
 27 15  1  0
 24 18  1  0
  1 33  1  0
  1 34  1  0
  1 35  1  0
  2 36  1  6
  3 37  1  0
  3 38  1  0
  4 39  1  0
  4 40  1  0
  5 41  1  1
  8 42  1  0
  8 43  1  0
  8 44  1  0
  9 45  1  0
  9 46  1  0
  9 47  1  0
 10 48  1  6
 11 49  1  0
 11 50  1  0
 12 51  1  0
 12 52  1  0
 14 53  1  0
 14 54  1  0
 14 55  1  0
 15 56  1  1
 16 57  1  0
 16 58  1  0
 17 59  1  0
 19 60  1  6
 20 61  1  0
 20 62  1  0
 21 63  1  0
 21 64  1  0
 22 65  1  6
 23 66  1  0
 25 67  1  0
 25 68  1  0
 25 69  1  0
 26 70  1  0
 26 71  1  0
 26 72  1  0
 28 73  1  0
 28 74  1  0
 28 75  1  0
 29 76  1  0
 29 77  1  0
 30 78  1  0
 30 79  1  0
 32 80  1  0
 32 81  1  0
 32 82  1  0
M  END
>  <meeko>  (14) 
{"is_sidechain": [false], "intermolecular_energy": 2.731, "internal_energy": -0.839}

$$$$
EPH_relaxed_0001_pdb2pqr_Repair_225_r2_0001_out
     RDKit          3D

 82 86  0  0  0  0  0  0  0  0999 V2000
    0.9610   14.9610   -2.6850 C   0  0  0  0  0  0  0  0  0  0  0  0
    1.1980   14.2860   -4.0380 C   0  0  2  0  0  0  0  0  0  0  0  0
    0.4650   15.0110   -5.1850 C   0  0  0  0  0  0  0  0  0  0  0  0
    0.9700   14.6270   -6.5780 C   0  0  0  0  0  0  0  0  0  0  0  0
    0.7740   15.7390   -7.5640 C   0  0  2  0  0  0  0  0  0  0  0  0
    0.3980   15.3130   -8.8800 O   0  0  0  0  0  0  0  0  0  0  0  0
    1.6750   15.9600   -8.7650 C   0  0  0  0  0  0  0  0  0  0  0  0
    2.8390   15.0620   -9.0430 C   0  0  0  0  0  0  0  0  0  0  0  0
    1.7190   17.3220   -9.3850 C   0  0  0  0  0  0  0  0  0  0  0  0
    0.7550   12.8280   -3.9770 C   0  0  1  0  0  0  0  0  0  0  0  0
    1.8870   11.8430   -4.3750 C   0  0  0  0  0  0  0  0  0  0  0  0
    1.7070   10.5780   -3.4980 C   0  0  0  0  0  0  0  0  0  0  0  0
    0.3030   10.7340   -2.8710 C   0  0  1  0  0  0  0  0  0  0  0  0
   -0.6880   10.2590   -3.9800 C   0  0  0  0  0  0  0  0  0  0  0  0
    0.0610    9.9820   -1.5210 C   0  0  2  0  0  0  0  0  0  0  0  0
    0.1730    8.4500   -1.5990 C   0  0  0  0  0  0  0  0  0  0  0  0
   -1.1010    7.7320   -1.9030 C   0  0  0  0  0  0  0  0  0  0  0  0
   -2.3350    8.2630   -1.8240 C   0  0  0  0  0  0  0  0  0  0  0  0
   -2.5480    9.6890   -1.3010 C   0  0  1  0  0  0  0  0  0  0  0  0
   -3.7120    9.6970   -0.2760 C   0  0  0  0  0  0  0  0  0  0  0  0
   -4.9920    9.0850   -0.8400 C   0  0  0  0  0  0  0  0  0  0  0  0
   -4.7540    7.6480   -1.2960 C   0  0  2  0  0  0  0  0  0  0  0  0
   -4.4750    6.8410   -0.1480 O   0  0  0  0  0  0  0  0  0  0  0  0
   -3.5960    7.5140   -2.3230 C   0  0  0  0  0  0  0  0  0  0  0  0
   -4.0260    8.1350   -3.6760 C   0  0  0  0  0  0  0  0  0  0  0  0
   -3.3680    6.0020   -2.5920 C   0  0  0  0  0  0  0  0  0  0  0  0
   -1.2500   10.4280   -0.7560 C   0  0  1  0  0  0  0  0  0  0  0  0
   -1.0300   10.0770    0.7470 C   0  0  0  0  0  0  0  0  0  0  0  0
   -1.4800   11.9840   -0.8200 C   0  0  0  0  0  0  0  0  0  0  0  0
   -1.1110   12.6880   -2.1400 C   0  0  0  0  0  0  0  0  0  0  0  0
    0.2920   12.2830   -2.6030 C   0  0  2  0  0  0  0  0  0  0  0  0
    1.3120   12.7680   -1.5170 C   0  0  0  0  0  0  0  0  0  0  0  0
    1.2079   14.2577   -1.8761 H   0  0  0  0  0  0  0  0  0  0  0  0
    1.5998   15.8528   -2.6032 H   0  0  0  0  0  0  0  0  0  0  0  0
   -0.0951   15.2577   -2.6032 H   0  0  0  0  0  0  0  0  0  0  0  0
    2.2763   14.3386   -4.2492 H   0  0  0  0  0  0  0  0  0  0  0  0
   -0.6053   14.7647   -5.1236 H   0  0  0  0  0  0  0  0  0  0  0  0
    0.6561   16.0869   -5.0592 H   0  0  0  0  0  0  0  0  0  0  0  0
    2.0425   14.3904   -6.5158 H   0  0  0  0  0  0  0  0  0  0  0  0
    0.3940   13.7561   -6.9239 H   0  0  0  0  0  0  0  0  0  0  0  0
    0.4247   16.4143   -6.7690 H   0  0  0  0  0  0  0  0  0  0  0  0
    3.2768   14.7242   -8.0921 H   0  0  0  0  0  0  0  0  0  0  0  0
    2.4994   14.1897   -9.6206 H   0  0  0  0  0  0  0  0  0  0  0  0
    3.5966   15.6119   -9.6206 H   0  0  0  0  0  0  0  0  0  0  0  0
    1.7436   18.0848   -8.5929 H   0  0  0  0  0  0  0  0  0  0  0  0
    2.6205   17.4119  -10.0088 H   0  0  0  0  0  0  0  0  0  0  0  0
    0.8252   17.4699  -10.0088 H   0  0  0  0  0  0  0  0  0  0  0  0
   -0.0953   12.8637   -4.6739 H   0  0  0  0  0  0  0  0  0  0  0  0
    1.8039   11.5807   -5.4400 H   0  0  0  0  0  0  0  0  0  0  0  0
    2.8775   12.2950   -4.2180 H   0  0  0  0  0  0  0  0  0  0  0  0
    1.7582    9.6681   -4.1140 H   0  0  0  0  0  0  0  0  0  0  0  0
    2.4953   10.4829   -2.7367 H   0  0  0  0  0  0  0  0  0  0  0  0
   -1.5850    9.8290   -3.5105 H   0  0  0  0  0  0  0  0  0  0  0  0
   -0.9768   11.1166   -4.6054 H   0  0  0  0  0  0  0  0  0  0  0  0
   -0.2004    9.4967   -4.6054 H   0  0  0  0  0  0  0  0  0  0  0  0
    0.9140   10.3131   -0.9105 H   0  0  0  0  0  0  0  0  0  0  0  0
    0.8994    8.2019   -2.3870 H   0  0  0  0  0  0  0  0  0  0  0  0
    0.4791    8.1157   -0.5967 H   0  0  0  0  0  0  0  0  0  0  0  0
   -1.0241    6.6809   -2.2179 H   0  0  0  0  0  0  0  0  0  0  0  0
   -2.8187   10.2968   -2.1770 H   0  0  0  0  0  0  0  0  0  0  0  0
   -3.4060    9.1209    0.6097 H   0  0  0  0  0  0  0  0  0  0  0  0
   -3.9266   10.7456   -0.0221 H   0  0  0  0  0  0  0  0  0  0  0  0
   -5.7681    9.0916   -0.0605 H   0  0  0  0  0  0  0  0  0  0  0  0
   -5.3134    9.6802   -1.7074 H   0  0  0  0  0  0  0  0  0  0  0  0
   -5.6667    7.3092   -1.8081 H   0  0  0  0  0  0  0  0  0  0  0  0
   -4.9420    5.9960   -0.2610 H   0  0  0  0  0  0  0  0  0  0  0  0
   -4.6432    9.0264   -3.4906 H   0  0  0  0  0  0  0  0  0  0  0  0
   -3.1316    8.4210   -4.2489 H   0  0  0  0  0  0  0  0  0  0  0  0
   -4.6084    7.3984   -4.2489 H   0  0  0  0  0  0  0  0  0  0  0  0
   -3.2874    5.4672   -1.6341 H   0  0  0  0  0  0  0  0  0  0  0  0
   -4.2157    5.5998   -3.1662 H   0  0  0  0  0  0  0  0  0  0  0  0
   -2.4394    5.8677   -3.1662 H   0  0  0  0  0  0  0  0  0  0  0  0
   -1.5092   10.8416    1.3760 H   0  0  0  0  0  0  0  0  0  0  0  0
   -1.4738    9.0939    0.9627 H   0  0  0  0  0  0  0  0  0  0  0  0
    0.0482   10.0479    0.9627 H   0  0  0  0  0  0  0  0  0  0  0  0
   -2.5474   12.1705   -0.6307 H   0  0  0  0  0  0  0  0  0  0  0  0
   -0.7972   12.4066   -0.0682 H   0  0  0  0  0  0  0  0  0  0  0  0
   -1.8405   12.4072   -2.9139 H   0  0  0  0  0  0  0  0  0  0  0  0
   -1.1257   13.7753   -1.9740 H   0  0  0  0  0  0  0  0  0  0  0  0
    0.9015   12.5728   -0.5153 H   0  0  0  0  0  0  0  0  0  0  0  0
    2.2610   12.2247   -1.6366 H   0  0  0  0  0  0  0  0  0  0  0  0
    1.4896   13.8470   -1.6366 H   0  0  0  0  0  0  0  0  0  0  0  0
  1  2  1  0
  2  3  1  0
  3  4  1  0
  4  5  1  0
  5  6  1  0
  6  7  1  0
  7  8  1  0
  7  9  1  0
  2 10  1  0
 10 11  1  0
 11 12  1  0
 12 13  1  0
 13 14  1  6
 13 15  1  0
 15 16  1  0
 16 17  1  0
 17 18  2  0
 18 19  1  0
 19 20  1  0
 20 21  1  0
 21 22  1  0
 22 23  1  0
 22 24  1  0
 24 25  1  0
 24 26  1  0
 19 27  1  0
 27 28  1  1
 27 29  1  0
 29 30  1  0
 30 31  1  0
 31 32  1  1
  7  5  1  0
 31 10  1  0
 31 13  1  0
 27 15  1  0
 24 18  1  0
  1 33  1  0
  1 34  1  0
  1 35  1  0
  2 36  1  6
  3 37  1  0
  3 38  1  0
  4 39  1  0
  4 40  1  0
  5 41  1  1
  8 42  1  0
  8 43  1  0
  8 44  1  0
  9 45  1  0
  9 46  1  0
  9 47  1  0
 10 48  1  6
 11 49  1  0
 11 50  1  0
 12 51  1  0
 12 52  1  0
 14 53  1  0
 14 54  1  0
 14 55  1  0
 15 56  1  1
 16 57  1  0
 16 58  1  0
 17 59  1  0
 19 60  1  6
 20 61  1  0
 20 62  1  0
 21 63  1  0
 21 64  1  0
 22 65  1  6
 23 66  1  0
 25 67  1  0
 25 68  1  0
 25 69  1  0
 26 70  1  0
 26 71  1  0
 26 72  1  0
 28 73  1  0
 28 74  1  0
 28 75  1  0
 29 76  1  0
 29 77  1  0
 30 78  1  0
 30 79  1  0
 32 80  1  0
 32 81  1  0
 32 82  1  0
M  END
>  <meeko>  (15) 
{"is_sidechain": [false], "intermolecular_energy": 2.731, "internal_energy": -0.839}

$$$$
EPH_relaxed_0001_pdb2pqr_Repair_225_r2_0001_out
     RDKit          3D

 82 86  0  0  0  0  0  0  0  0999 V2000
   -1.7550   14.8000    0.4200 C   0  0  0  0  0  0  0  0  0  0  0  0
   -0.4060   15.5050    0.2470 C   0  0  2  0  0  0  0  0  0  0  0  0
   -0.4350   16.5420   -0.8930 C   0  0  0  0  0  0  0  0  0  0  0  0
   -0.0470   17.9550   -0.4500 C   0  0  0  0  0  0  0  0  0  0  0  0
    1.3800   18.0220    0.0040 C   0  0  2  0  0  0  0  0  0  0  0  0
    2.0530   19.2460   -0.3170 O   0  0  0  0  0  0  0  0  0  0  0  0
    2.5600   18.0590   -0.9490 C   0  0  0  0  0  0  0  0  0  0  0  0
    2.3660   18.0300   -2.4330 C   0  0  0  0  0  0  0  0  0  0  0  0
    3.9020   17.6320   -0.4430 C   0  0  0  0  0  0  0  0  0  0  0  0
    0.6880   14.4760   -0.0110 C   0  0  1  0  0  0  0  0  0  0  0  0
    0.8180   13.4400    1.1370 C   0  0  0  0  0  0  0  0  0  0  0  0
    1.2010   12.0890    0.4800 C   0  0  0  0  0  0  0  0  0  0  0  0
    1.6010   12.4590   -0.9670 C   0  0  1  0  0  0  0  0  0  0  0  0
    3.0730   12.9670   -0.8590 C   0  0  0  0  0  0  0  0  0  0  0  0
    1.4580   11.3260   -2.0350 C   0  0  2  0  0  0  0  0  0  0  0  0
    2.3450   10.0910   -1.7970 C   0  0  0  0  0  0  0  0  0  0  0  0
    3.6920   10.1400   -2.4390 C   0  0  0  0  0  0  0  0  0  0  0  0
    4.0670   10.9980   -3.4060 C   0  0  0  0  0  0  0  0  0  0  0  0
    3.0610   11.9810   -4.0200 C   0  0  1  0  0  0  0  0  0  0  0  0
    3.1920   11.9570   -5.5650 C   0  0  0  0  0  0  0  0  0  0  0  0
    4.6200   12.2130   -6.0360 C   0  0  0  0  0  0  0  0  0  0  0  0
    5.5810   11.1810   -5.4510 C   0  0  2  0  0  0  0  0  0  0  0  0
    5.2710    9.8980   -6.0030 O   0  0  0  0  0  0  0  0  0  0  0  0
    5.5310   11.1080   -3.8990 C   0  0  0  0  0  0  0  0  0  0  0  0
    6.1510   12.3920   -3.2970 C   0  0  0  0  0  0  0  0  0  0  0  0
    6.4400    9.9330   -3.4470 C   0  0  0  0  0  0  0  0  0  0  0  0
    1.5570   11.8290   -3.5320 C   0  0  1  0  0  0  0  0  0  0  0  0
    0.8180   10.7700   -4.4070 C   0  0  0  0  0  0  0  0  0  0  0  0
    0.8030   13.1930   -3.7550 C   0  0  0  0  0  0  0  0  0  0  0  0
    0.8820   14.2250   -2.6140 C   0  0  0  0  0  0  0  0  0  0  0  0
    0.5410   13.5810   -1.2670 C   0  0  2  0  0  0  0  0  0  0  0  0
   -0.9420   13.0810   -1.3380 C   0  0  0  0  0  0  0  0  0  0  0  0
   -1.9741   14.6855    1.4919 H   0  0  0  0  0  0  0  0  0  0  0  0
   -2.5458   15.4001   -0.0538 H   0  0  0  0  0  0  0  0  0  0  0  0
   -1.7138   13.8081   -0.0538 H   0  0  0  0  0  0  0  0  0  0  0  0
   -0.1932   16.0474    1.1801 H   0  0  0  0  0  0  0  0  0  0  0  0
    0.2676   16.2181   -1.6750 H   0  0  0  0  0  0  0  0  0  0  0  0
   -1.4724   16.5923   -1.2553 H   0  0  0  0  0  0  0  0  0  0  0  0
   -0.1845   18.6442   -1.2963 H   0  0  0  0  0  0  0  0  0  0  0  0
   -0.6897   18.2372    0.3970 H   0  0  0  0  0  0  0  0  0  0  0  0
    1.1567   17.3916    0.8773 H   0  0  0  0  0  0  0  0  0  0  0  0
    1.3016   17.8709   -2.6606 H   0  0  0  0  0  0  0  0  0  0  0  0
    2.6941   18.9872   -2.8645 H   0  0  0  0  0  0  0  0  0  0  0  0
    2.9597   17.2106   -2.8645 H   0  0  0  0  0  0  0  0  0  0  0  0
    3.8967   17.6337    0.6570 H   0  0  0  0  0  0  0  0  0  0  0  0
    4.1256   16.6183   -0.8070 H   0  0  0  0  0  0  0  0  0  0  0  0
    4.6702   18.3301   -0.8070 H   0  0  0  0  0  0  0  0  0  0  0  0
    1.5497   15.1498   -0.1273 H   0  0  0  0  0  0  0  0  0  0  0  0
    1.6013   13.7533    1.8429 H   0  0  0  0  0  0  0  0  0  0  0  0
   -0.1239   13.3528    1.6985 H   0  0  0  0  0  0  0  0  0  0  0  0
    2.0459   11.6251    1.0100 H   0  0  0  0  0  0  0  0  0  0  0  0
    0.3770   11.3610    0.5120 H   0  0  0  0  0  0  0  0  0  0  0  0
    3.3509   13.0629    0.2010 H   0  0  0  0  0  0  0  0  0  0  0  0
    3.7457   12.2490   -1.3509 H   0  0  0  0  0  0  0  0  0  0  0  0
    3.1597   13.9470   -1.3509 H   0  0  0  0  0  0  0  0  0  0  0  0
    0.4232   10.9859   -1.8815 H   0  0  0  0  0  0  0  0  0  0  0  0
    2.4894    9.9802   -0.7122 H   0  0  0  0  0  0  0  0  0  0  0  0
    1.8178    9.2439   -2.2601 H   0  0  0  0  0  0  0  0  0  0  0  0
    4.4415    9.4133   -2.0924 H   0  0  0  0  0  0  0  0  0  0  0  0
    3.3346   12.9754   -3.6376 H   0  0  0  0  0  0  0  0  0  0  0  0
    2.8719   10.9701   -5.9305 H   0  0  0  0  0  0  0  0  0  0  0  0
    2.5592   12.7626   -5.9658 H   0  0  0  0  0  0  0  0  0  0  0  0
    4.6530   12.1538   -7.1339 H   0  0  0  0  0  0  0  0  0  0  0  0
    4.9282   13.2124   -5.6951 H   0  0  0  0  0  0  0  0  0  0  0  0
    6.6018   11.4922   -5.7176 H   0  0  0  0  0  0  0  0  0  0  0  0
    5.7710    9.2330   -5.5010 H   0  0  0  0  0  0  0  0  0  0  0  0
    6.1225   12.3329   -2.1990 H   0  0  0  0  0  0  0  0  0  0  0  0
    7.1944   12.4873   -3.6321 H   0  0  0  0  0  0  0  0  0  0  0  0
    5.5768   13.2684   -3.6321 H   0  0  0  0  0  0  0  0  0  0  0  0
    6.4699    9.8943   -2.3481 H   0  0  0  0  0  0  0  0  0  0  0  0
    6.0366    8.9866   -3.8364 H   0  0  0  0  0  0  0  0  0  0  0  0
    7.4574   10.0857   -3.8364 H   0  0  0  0  0  0  0  0  0  0  0  0
    0.3114   10.0440   -3.7541 H   0  0  0  0  0  0  0  0  0  0  0  0
    0.0742   11.2736   -5.0420 H   0  0  0  0  0  0  0  0  0  0  0  0
    1.5473   10.2456   -5.0420 H   0  0  0  0  0  0  0  0  0  0  0  0
    1.2229   13.6617   -4.6573 H   0  0  0  0  0  0  0  0  0  0  0  0
   -0.2614   12.9250   -3.8275 H   0  0  0  0  0  0  0  0  0  0  0  0
    1.9020   14.6343   -2.5691 H   0  0  0  0  0  0  0  0  0  0  0  0
    0.1542   15.0252   -2.8142 H   0  0  0  0  0  0  0  0  0  0  0  0
   -1.3336   12.9490   -0.3186 H   0  0  0  0  0  0  0  0  0  0  0  0
   -1.5538   13.8226   -1.8726 H   0  0  0  0  0  0  0  0  0  0  0  0
   -0.9799   12.1204   -1.8726 H   0  0  0  0  0  0  0  0  0  0  0  0
  1  2  1  0
  2  3  1  0
  3  4  1  0
  4  5  1  0
  5  6  1  0
  6  7  1  0
  7  8  1  0
  7  9  1  0
  2 10  1  0
 10 11  1  0
 11 12  1  0
 12 13  1  0
 13 14  1  1
 13 15  1  0
 15 16  1  0
 16 17  1  0
 17 18  2  0
 18 19  1  0
 19 20  1  0
 20 21  1  0
 21 22  1  0
 22 23  1  0
 22 24  1  0
 24 25  1  0
 24 26  1  0
 19 27  1  0
 27 28  1  6
 27 29  1  0
 29 30  1  0
 30 31  1  0
 31 32  1  6
  7  5  1  0
 31 10  1  0
 31 13  1  0
 27 15  1  0
 24 18  1  0
  1 33  1  0
  1 34  1  0
  1 35  1  0
  2 36  1  1
  3 37  1  0
  3 38  1  0
  4 39  1  0
  4 40  1  0
  5 41  1  1
  8 42  1  0
  8 43  1  0
  8 44  1  0
  9 45  1  0
  9 46  1  0
  9 47  1  0
 10 48  1  6
 11 49  1  0
 11 50  1  0
 12 51  1  0
 12 52  1  0
 14 53  1  0
 14 54  1  0
 14 55  1  0
 15 56  1  6
 16 57  1  0
 16 58  1  0
 17 59  1  0
 19 60  1  1
 20 61  1  0
 20 62  1  0
 21 63  1  0
 21 64  1  0
 22 65  1  1
 23 66  1  0
 25 67  1  0
 25 68  1  0
 25 69  1  0
 26 70  1  0
 26 71  1  0
 26 72  1  0
 28 73  1  0
 28 74  1  0
 28 75  1  0
 29 76  1  0
 29 77  1  0
 30 78  1  0
 30 79  1  0
 32 80  1  0
 32 81  1  0
 32 82  1  0
M  END
>  <meeko>  (16) 
{"is_sidechain": [false], "intermolecular_energy": 2.731, "internal_energy": -0.839}

$$$$
EPH_relaxed_0001_pdb2pqr_Repair_225_r2_0001_out
     RDKit          3D

 82 86  0  0  0  0  0  0  0  0999 V2000
    3.1160   14.8360   -7.5400 C   0  0  0  0  0  0  0  0  0  0  0  0
    1.5920   14.8720   -7.3960 C   0  0  2  0  0  0  0  0  0  0  0  0
    0.9750   16.1140   -8.0700 C   0  0  0  0  0  0  0  0  0  0  0  0
    1.9030   16.7900   -9.0820 C   0  0  0  0  0  0  0  0  0  0  0  0
    1.5800   16.3830  -10.4880 C   0  0  2  0  0  0  0  0  0  0  0  0
    1.0030   15.0770  -10.6160 O   0  0  0  0  0  0  0  0  0  0  0  0
    2.2940   15.2610  -11.2190 C   0  0  0  0  0  0  0  0  0  0  0  0
    3.3890   14.4770  -10.5660 C   0  0  0  0  0  0  0  0  0  0  0  0
    2.2670   15.2510  -12.7160 C   0  0  0  0  0  0  0  0  0  0  0  0
    1.2080   14.8340   -5.9220 C   0  0  1  0  0  0  0  0  0  0  0  0
   -0.0490   15.6890   -5.6100 C   0  0  0  0  0  0  0  0  0  0  0  0
   -0.8260   14.9500   -4.4890 C   0  0  0  0  0  0  0  0  0  0  0  0
    0.1650   13.8840   -3.9660 C   0  0  1  0  0  0  0  0  0  0  0  0
    1.1010   14.6550   -2.9820 C   0  0  0  0  0  0  0  0  0  0  0  0
   -0.4680   12.6240   -3.2910 C   0  0  2  0  0  0  0  0  0  0  0  0
   -1.2860   12.9070   -2.0190 C   0  0  0  0  0  0  0  0  0  0  0  0
   -0.5150   12.8560   -0.7410 C   0  0  0  0  0  0  0  0  0  0  0  0
    0.7090   12.3190   -0.5870 C   0  0  0  0  0  0  0  0  0  0  0  0
    1.4050   11.5980   -1.7490 C   0  0  1  0  0  0  0  0  0  0  0  0
    1.9960   10.2550   -1.2450 C   0  0  0  0  0  0  0  0  0  0  0  0
    2.9110   10.4350   -0.0370 C   0  0  0  0  0  0  0  0  0  0  0  0
    2.1670   11.1020    1.1160 C   0  0  2  0  0  0  0  0  0  0  0  0
    1.1570   10.2080    1.5920 O   0  0  0  0  0  0  0  0  0  0  0  0
    1.5210   12.4600    0.7250 C   0  0  0  0  0  0  0  0  0  0  0  0
    2.6290   13.5190    0.5000 C   0  0  0  0  0  0  0  0  0  0  0  0
    0.6850   12.9580    1.9350 C   0  0  0  0  0  0  0  0  0  0  0  0
    0.5440   11.4270   -3.0740 C   0  0  1  0  0  0  0  0  0  0  0  0
   -0.3140   10.1280   -2.9870 C   0  0  0  0  0  0  0  0  0  0  0  0
    1.5170   11.2370   -4.2970 C   0  0  0  0  0  0  0  0  0  0  0  0
    2.0130   12.5160   -4.9960 C   0  0  0  0  0  0  0  0  0  0  0  0
    0.8460   13.4550   -5.3160 C   0  0  2  0  0  0  0  0  0  0  0  0
   -0.1010   12.7150   -6.3210 C   0  0  0  0  0  0  0  0  0  0  0  0
    3.5784   14.8251   -6.5420 H   0  0  0  0  0  0  0  0  0  0  0  0
    3.4110   13.9306   -8.0907 H   0  0  0  0  0  0  0  0  0  0  0  0
    3.4534   15.7264   -8.0907 H   0  0  0  0  0  0  0  0  0  0  0  0
    1.1899   13.9849   -7.9072 H   0  0  0  0  0  0  0  0  0  0  0  0
    0.0573   15.8057   -8.5923 H   0  0  0  0  0  0  0  0  0  0  0  0
    0.7788   16.8474   -7.2740 H   0  0  0  0  0  0  0  0  0  0  0  0
    1.7938   17.8809   -8.9926 H   0  0  0  0  0  0  0  0  0  0  0  0
    2.9348   16.4780   -8.8630 H   0  0  0  0  0  0  0  0  0  0  0  0
    1.3657   17.4256  -10.7655 H   0  0  0  0  0  0  0  0  0  0  0  0
    3.2894   14.5483   -9.4728 H   0  0  0  0  0  0  0  0  0  0  0  0
    3.3184   13.4230  -10.8726 H   0  0  0  0  0  0  0  0  0  0  0  0
    4.3641   14.8835  -10.8726 H   0  0  0  0  0  0  0  0  0  0  0  0
    1.2880   14.8884  -13.0627 H   0  0  0  0  0  0  0  0  0  0  0  0
    2.4346   16.2708  -13.0926 H   0  0  0  0  0  0  0  0  0  0  0  0
    3.0585   14.5864  -13.0926 H   0  0  0  0  0  0  0  0  0  0  0  0
    2.1436   15.2055   -5.4786 H   0  0  0  0  0  0  0  0  0  0  0  0
    0.2497   16.6905   -5.2669 H   0  0  0  0  0  0  0  0  0  0  0  0
   -0.6737   15.8147   -6.5067 H   0  0  0  0  0  0  0  0  0  0  0  0
   -1.1060   15.6474   -3.6857 H   0  0  0  0  0  0  0  0  0  0  0  0
   -1.7633   14.5050   -4.8543 H   0  0  0  0  0  0  0  0  0  0  0  0
    0.8164   14.4206   -1.9456 H   0  0  0  0  0  0  0  0  0  0  0  0
    2.1440   14.3505   -3.1536 H   0  0  0  0  0  0  0  0  0  0  0  0
    1.0019   15.7370   -3.1536 H   0  0  0  0  0  0  0  0  0  0  0  0
   -1.1958   12.2926   -4.0463 H   0  0  0  0  0  0  0  0  0  0  0  0
   -1.7232   13.9121   -2.1125 H   0  0  0  0  0  0  0  0  0  0  0  0
   -2.0360   12.1050   -1.9545 H   0  0  0  0  0  0  0  0  0  0  0  0
   -0.9879   13.2947    0.1500 H   0  0  0  0  0  0  0  0  0  0  0  0
    2.2171   12.2633   -2.0775 H   0  0  0  0  0  0  0  0  0  0  0  0
    1.1673    9.5886   -0.9635 H   0  0  0  0  0  0  0  0  0  0  0  0
    2.5992    9.8288   -2.0602 H   0  0  0  0  0  0  0  0  0  0  0  0
    3.2730    9.4492    0.2905 H   0  0  0  0  0  0  0  0  0  0  0  0
    3.7551   11.0773   -0.3285 H   0  0  0  0  0  0  0  0  0  0  0  0
    2.9054   11.3211    1.9013 H   0  0  0  0  0  0  0  0  0  0  0  0
    0.5350   10.0500    0.8620 H   0  0  0  0  0  0  0  0  0  0  0  0
    3.0001   13.8737    1.4728 H   0  0  0  0  0  0  0  0  0  0  0  0
    3.4574   13.0683   -0.0663 H   0  0  0  0  0  0  0  0  0  0  0  0
    2.2162   14.3669   -0.0663 H   0  0  0  0  0  0  0  0  0  0  0  0
    1.1819   12.6620    2.8707 H   0  0  0  0  0  0  0  0  0  0  0  0
    0.6001   14.0540    1.8958 H   0  0  0  0  0  0  0  0  0  0  0  0
   -0.3192   12.5108    1.8958 H   0  0  0  0  0  0  0  0  0  0  0  0
   -0.4839    9.8708   -1.9311 H   0  0  0  0  0  0  0  0  0  0  0  0
   -1.2811   10.2934   -3.4843 H   0  0  0  0  0  0  0  0  0  0  0  0
    0.2177    9.3034   -3.4843 H   0  0  0  0  0  0  0  0  0  0  0  0
    2.4012   10.6906   -3.9368 H   0  0  0  0  0  0  0  0  0  0  0  0
    0.9240   10.7061   -5.0563 H   0  0  0  0  0  0  0  0  0  0  0  0
    2.7217   13.0356   -4.3344 H   0  0  0  0  0  0  0  0  0  0  0  0
    2.5029   12.2322   -5.9391 H   0  0  0  0  0  0  0  0  0  0  0  0
   -0.8469   12.1322   -5.7606 H   0  0  0  0  0  0  0  0  0  0  0  0
   -0.6135   13.4543   -6.9540 H   0  0  0  0  0  0  0  0  0  0  0  0
    0.4925   12.0389   -6.9540 H   0  0  0  0  0  0  0  0  0  0  0  0
  1  2  1  0
  2  3  1  0
  3  4  1  0
  4  5  1  0
  5  6  1  0
  6  7  1  0
  7  8  1  0
  7  9  1  0
  2 10  1  0
 10 11  1  0
 11 12  1  0
 12 13  1  0
 13 14  1  1
 13 15  1  0
 15 16  1  0
 16 17  1  0
 17 18  2  0
 18 19  1  0
 19 20  1  0
 20 21  1  0
 21 22  1  0
 22 23  1  0
 22 24  1  0
 24 25  1  0
 24 26  1  0
 19 27  1  0
 27 28  1  1
 27 29  1  0
 29 30  1  0
 30 31  1  0
 31 32  1  6
  7  5  1  0
 31 10  1  0
 31 13  1  0
 27 15  1  0
 24 18  1  0
  1 33  1  0
  1 34  1  0
  1 35  1  0
  2 36  1  6
  3 37  1  0
  3 38  1  0
  4 39  1  0
  4 40  1  0
  5 41  1  6
  8 42  1  0
  8 43  1  0
  8 44  1  0
  9 45  1  0
  9 46  1  0
  9 47  1  0
 10 48  1  1
 11 49  1  0
 11 50  1  0
 12 51  1  0
 12 52  1  0
 14 53  1  0
 14 54  1  0
 14 55  1  0
 15 56  1  6
 16 57  1  0
 16 58  1  0
 17 59  1  0
 19 60  1  6
 20 61  1  0
 20 62  1  0
 21 63  1  0
 21 64  1  0
 22 65  1  1
 23 66  1  0
 25 67  1  0
 25 68  1  0
 25 69  1  0
 26 70  1  0
 26 71  1  0
 26 72  1  0
 28 73  1  0
 28 74  1  0
 28 75  1  0
 29 76  1  0
 29 77  1  0
 30 78  1  0
 30 79  1  0
 32 80  1  0
 32 81  1  0
 32 82  1  0
M  END
>  <meeko>  (17) 
{"is_sidechain": [false], "intermolecular_energy": 2.731, "internal_energy": -0.839}

$$$$
EPH_relaxed_0001_pdb2pqr_Repair_225_r2_0001_out
     RDKit          3D

 82 86  0  0  0  0  0  0  0  0999 V2000
   -2.4740    7.7750   -0.1320 C   0  0  0  0  0  0  0  0  0  0  0  0
   -3.0720    9.1840   -0.1000 C   0  0  2  0  0  0  0  0  0  0  0  0
   -4.5670    9.1890   -0.4770 C   0  0  0  0  0  0  0  0  0  0  0  0
   -5.2070    7.7980   -0.4750 C   0  0  0  0  0  0  0  0  0  0  0  0
   -5.9010    7.5060   -1.7710 C   0  0  2  0  0  0  0  0  0  0  0  0
   -6.8540    8.4970   -2.1770 O   0  0  0  0  0  0  0  0  0  0  0  0
   -7.3830    7.1960   -1.8750 C   0  0  0  0  0  0  0  0  0  0  0  0
   -8.2600    7.1620   -0.6630 C   0  0  0  0  0  0  0  0  0  0  0  0
   -7.8750    6.4510   -3.0770 C   0  0  0  0  0  0  0  0  0  0  0  0
   -2.2950   10.1000   -1.0380 C   0  0  1  0  0  0  0  0  0  0  0  0
   -2.9290   11.5120   -1.1550 C   0  0  0  0  0  0  0  0  0  0  0  0
   -1.7580   12.5160   -1.3140 C   0  0  0  0  0  0  0  0  0  0  0  0
   -0.5250   11.6330   -1.6150 C   0  0  1  0  0  0  0  0  0  0  0  0
   -0.6240   11.3130   -3.1400 C   0  0  0  0  0  0  0  0  0  0  0  0
    0.8670   12.2380   -1.2410 C   0  0  2  0  0  0  0  0  0  0  0  0
    1.2430   13.5250   -1.9970 C   0  0  0  0  0  0  0  0  0  0  0  0
    1.9890   13.3200   -3.2730 C   0  0  0  0  0  0  0  0  0  0  0  0
    2.5920   12.1770   -3.6530 C   0  0  0  0  0  0  0  0  0  0  0  0
    2.6410   10.9640   -2.7150 C   0  0  1  0  0  0  0  0  0  0  0  0
    4.0790   10.3840   -2.6950 C   0  0  0  0  0  0  0  0  0  0  0  0
    4.6000   10.0620   -4.0920 C   0  0  0  0  0  0  0  0  0  0  0  0
    4.5900   11.3060   -4.9770 C   0  0  2  0  0  0  0  0  0  0  0  0
    5.5470   12.2410   -4.4700 O   0  0  0  0  0  0  0  0  0  0  0  0
    3.1940   11.9840   -5.0660 C   0  0  0  0  0  0  0  0  0  0  0  0
    2.2320   11.0890   -5.8860 C   0  0  0  0  0  0  0  0  0  0  0  0
    3.3540   13.3020   -5.8710 C   0  0  0  0  0  0  0  0  0  0  0  0
    2.0540   11.1920   -1.2550 C   0  0  1  0  0  0  0  0  0  0  0  0
    3.1630   11.7630   -0.3190 C   0  0  0  0  0  0  0  0  0  0  0  0
    1.6330    9.8010   -0.6480 C   0  0  0  0  0  0  0  0  0  0  0  0
    0.2050    9.3130   -0.9540 C   0  0  0  0  0  0  0  0  0  0  0  0
   -0.8230   10.4120   -0.6700 C   0  0  2  0  0  0  0  0  0  0  0  0
   -0.7630   10.7390    0.8610 C   0  0  0  0  0  0  0  0  0  0  0  0
   -2.3223    7.4176    0.8972 H   0  0  0  0  0  0  0  0  0  0  0  0
   -3.1618    7.0966   -0.6581 H   0  0  0  0  0  0  0  0  0  0  0  0
   -1.5082    7.7984   -0.6581 H   0  0  0  0  0  0  0  0  0  0  0  0
   -2.9909    9.5545    0.9326 H   0  0  0  0  0  0  0  0  0  0  0  0
   -5.1053    9.8199    0.2456 H   0  0  0  0  0  0  0  0  0  0  0  0
   -4.6380    9.5740   -1.5050 H   0  0  0  0  0  0  0  0  0  0  0  0
   -4.4221    7.0445   -0.3131 H   0  0  0  0  0  0  0  0  0  0  0  0
   -5.9558    7.7659    0.3301 H   0  0  0  0  0  0  0  0  0  0  0  0
   -5.0101    6.9904   -2.1589 H   0  0  0  0  0  0  0  0  0  0  0  0
   -7.6355    7.1862    0.2422 H   0  0  0  0  0  0  0  0  0  0  0  0
   -8.9294    8.0349   -0.6702 H   0  0  0  0  0  0  0  0  0  0  0  0
   -8.8598    6.2399   -0.6702 H   0  0  0  0  0  0  0  0  0  0  0  0
   -8.4543    5.5738   -2.7530 H   0  0  0  0  0  0  0  0  0  0  0  0
   -8.5155    7.1109   -3.6805 H   0  0  0  0  0  0  0  0  0  0  0  0
   -7.0166    6.1210   -3.6805 H   0  0  0  0  0  0  0  0  0  0  0  0
   -2.3328    9.4971   -1.9573 H   0  0  0  0  0  0  0  0  0  0  0  0
   -3.5901   11.5589   -2.0329 H   0  0  0  0  0  0  0  0  0  0  0  0
   -3.5342   11.7482   -0.2673 H   0  0  0  0  0  0  0  0  0  0  0  0
   -1.9513   13.2095   -2.1457 H   0  0  0  0  0  0  0  0  0  0  0  0
   -1.6170   13.1376   -0.4175 H   0  0  0  0  0  0  0  0  0  0  0  0
   -0.9466   10.2702   -3.2756 H   0  0  0  0  0  0  0  0  0  0  0  0
   -1.3556   11.9871   -3.6094 H   0  0  0  0  0  0  0  0  0  0  0  0
    0.3605   11.4562   -3.6094 H   0  0  0  0  0  0  0  0  0  0  0  0
    0.7196   12.5385   -0.1932 H   0  0  0  0  0  0  0  0  0  0  0  0
    0.3140   14.0662   -2.2296 H   0  0  0  0  0  0  0  0  0  0  0  0
    1.9221   14.0803   -1.3334 H   0  0  0  0  0  0  0  0  0  0  0  0
    2.0519   14.1752   -3.9620 H   0  0  0  0  0  0  0  0  0  0  0  0
    1.9456   10.2239   -3.1375 H   0  0  0  0  0  0  0  0  0  0  0  0
    4.7500   11.1211   -2.2298 H   0  0  0  0  0  0  0  0  0  0  0  0
    4.0517    9.4440   -2.1243 H   0  0  0  0  0  0  0  0  0  0  0  0
    5.6300    9.6837   -4.0140 H   0  0  0  0  0  0  0  0  0  0  0  0
    3.9453    9.3029   -4.5451 H   0  0  0  0  0  0  0  0  0  0  0  0
    4.8490   10.9862   -5.9971 H   0  0  0  0  0  0  0  0  0  0  0  0
    5.4490   12.2670   -3.5030 H   0  0  0  0  0  0  0  0  0  0  0  0
    1.6023   10.5031   -5.2003 H   0  0  0  0  0  0  0  0  0  0  0  0
    1.5935   11.7217   -6.5200 H   0  0  0  0  0  0  0  0  0  0  0  0
    2.8170   10.4065   -6.5200 H   0  0  0  0  0  0  0  0  0  0  0  0
    3.4566   14.1470   -5.1743 H   0  0  0  0  0  0  0  0  0  0  0  0
    4.2510   13.2381   -6.5045 H   0  0  0  0  0  0  0  0  0  0  0  0
    2.4678   13.4546   -6.5045 H   0  0  0  0  0  0  0  0  0  0  0  0
    2.8703   11.6123    0.7306 H   0  0  0  0  0  0  0  0  0  0  0  0
    4.1116   11.2412   -0.5137 H   0  0  0  0  0  0  0  0  0  0  0  0
    3.2893   12.8382   -0.5137 H   0  0  0  0  0  0  0  0  0  0  0  0
    2.3327    9.0446   -1.0330 H   0  0  0  0  0  0  0  0  0  0  0  0
    1.6610    9.9427    0.4425 H   0  0  0  0  0  0  0  0  0  0  0  0
    0.1421    9.0268   -2.0143 H   0  0  0  0  0  0  0  0  0  0  0  0
   -0.0166    8.4504   -0.3083 H   0  0  0  0  0  0  0  0  0  0  0  0
   -0.9319    9.8187    1.4394 H   0  0  0  0  0  0  0  0  0  0  0  0
    0.2259   11.1519    1.1093 H   0  0  0  0  0  0  0  0  0  0  0  0
   -1.5409   11.4760    1.1093 H   0  0  0  0  0  0  0  0  0  0  0  0
  1  2  1  0
  2  3  1  0
  3  4  1  0
  4  5  1  0
  5  6  1  0
  6  7  1  0
  7  8  1  0
  7  9  1  0
  2 10  1  0
 10 11  1  0
 11 12  1  0
 12 13  1  0
 13 14  1  6
 13 15  1  0
 15 16  1  0
 16 17  1  0
 17 18  2  0
 18 19  1  0
 19 20  1  0
 20 21  1  0
 21 22  1  0
 22 23  1  0
 22 24  1  0
 24 25  1  0
 24 26  1  0
 19 27  1  0
 27 28  1  1
 27 29  1  0
 29 30  1  0
 30 31  1  0
 31 32  1  1
  7  5  1  0
 31 10  1  0
 31 13  1  0
 27 15  1  0
 24 18  1  0
  1 33  1  0
  1 34  1  0
  1 35  1  0
  2 36  1  1
  3 37  1  0
  3 38  1  0
  4 39  1  0
  4 40  1  0
  5 41  1  6
  8 42  1  0
  8 43  1  0
  8 44  1  0
  9 45  1  0
  9 46  1  0
  9 47  1  0
 10 48  1  6
 11 49  1  0
 11 50  1  0
 12 51  1  0
 12 52  1  0
 14 53  1  0
 14 54  1  0
 14 55  1  0
 15 56  1  1
 16 57  1  0
 16 58  1  0
 17 59  1  0
 19 60  1  6
 20 61  1  0
 20 62  1  0
 21 63  1  0
 21 64  1  0
 22 65  1  6
 23 66  1  0
 25 67  1  0
 25 68  1  0
 25 69  1  0
 26 70  1  0
 26 71  1  0
 26 72  1  0
 28 73  1  0
 28 74  1  0
 28 75  1  0
 29 76  1  0
 29 77  1  0
 30 78  1  0
 30 79  1  0
 32 80  1  0
 32 81  1  0
 32 82  1  0
M  END
>  <meeko>  (18) 
{"is_sidechain": [false], "intermolecular_energy": 2.731, "internal_energy": -0.839}

$$$$
