EPH_relaxed_0001_pdb2pqr_Repair_195_r2_0001_out
     RDKit          3D

 82 86  0  0  0  0  0  0  0  0999 V2000
   -1.0940    8.2420   -1.1640 C   0  0  0  0  0  0  0  0  0  0  0  0
   -1.7020    9.0950   -0.0470 C   0  0  2  0  0  0  0  0  0  0  0  0
   -3.1950    9.3920   -0.2920 C   0  0  0  0  0  0  0  0  0  0  0  0
   -3.8770    8.3930   -1.2300 C   0  0  0  0  0  0  0  0  0  0  0  0
   -5.2840    8.1010   -0.8030 C   0  0  2  0  0  0  0  0  0  0  0  0
   -5.5630    6.7150   -0.5660 O   0  0  0  0  0  0  0  0  0  0  0  0
   -6.2730    7.3280   -1.6540 C   0  0  0  0  0  0  0  0  0  0  0  0
   -5.8960    6.7980   -3.0020 C   0  0  0  0  0  0  0  0  0  0  0  0
   -7.7360    7.5090   -1.3930 C   0  0  0  0  0  0  0  0  0  0  0  0
   -0.9270   10.4000    0.0910 C   0  0  1  0  0  0  0  0  0  0  0  0
    0.1050   10.3610    1.2500 C   0  0  0  0  0  0  0  0  0  0  0  0
    1.3240   11.2010    0.7910 C   0  0  0  0  0  0  0  0  0  0  0  0
    0.8250   11.9620   -0.4600 C   0  0  1  0  0  0  0  0  0  0  0  0
    0.0350   13.1850    0.1020 C   0  0  0  0  0  0  0  0  0  0  0  0
    1.9220   12.4040   -1.4830 C   0  0  2  0  0  0  0  0  0  0  0  0
    2.9610   13.3990   -0.9370 C   0  0  0  0  0  0  0  0  0  0  0  0
    2.6160   14.8410   -1.1110 C   0  0  0  0  0  0  0  0  0  0  0  0
    1.6620   15.3240   -1.9290 C   0  0  0  0  0  0  0  0  0  0  0  0
    0.8800   14.3910   -2.8630 C   0  0  1  0  0  0  0  0  0  0  0  0
    0.8170   15.0140   -4.2830 C   0  0  0  0  0  0  0  0  0  0  0  0
    0.2590   16.4340   -4.2750 C   0  0  0  0  0  0  0  0  0  0  0  0
    1.0980   17.3440   -3.3810 C   0  0  2  0  0  0  0  0  0  0  0  0
    2.3950   17.4970   -3.9660 O   0  0  0  0  0  0  0  0  0  0  0  0
    1.2400   16.8130   -1.9270 C   0  0  0  0  0  0  0  0  0  0  0  0
   -0.1190   16.9320   -1.1950 C   0  0  0  0  0  0  0  0  0  0  0  0
    2.2230   17.7480   -1.1720 C   0  0  0  0  0  0  0  0  0  0  0  0
    1.3520   12.8740   -2.8820 C   0  0  1  0  0  0  0  0  0  0  0  0
    2.5030   12.6880   -3.9180 C   0  0  0  0  0  0  0  0  0  0  0  0
    0.1600   11.9710   -3.3760 C   0  0  0  0  0  0  0  0  0  0  0  0
   -0.8220   11.4670   -2.3020 C   0  0  0  0  0  0  0  0  0  0  0  0
   -0.0700   10.8500   -1.1180 C   0  0  2  0  0  0  0  0  0  0  0  0
    0.7170    9.6030   -1.6490 C   0  0  0  0  0  0  0  0  0  0  0  0
   -0.5093    7.4217   -0.7220 H   0  0  0  0  0  0  0  0  0  0  0  0
   -1.8993    7.8245   -1.7862 H   0  0  0  0  0  0  0  0  0  0  0  0
   -0.4366    8.8671   -1.7862 H   0  0  0  0  0  0  0  0  0  0  0  0
   -1.6285    8.5190    0.8872 H   0  0  0  0  0  0  0  0  0  0  0  0
   -3.7165    9.3704    0.6763 H   0  0  0  0  0  0  0  0  0  0  0  0
   -3.2505   10.3774   -0.7778 H   0  0  0  0  0  0  0  0  0  0  0  0
   -3.8931    8.8127   -2.2466 H   0  0  0  0  0  0  0  0  0  0  0  0
   -3.3080    7.4521   -1.2002 H   0  0  0  0  0  0  0  0  0  0  0  0
   -5.3534    9.0706   -0.2881 H   0  0  0  0  0  0  0  0  0  0  0  0
   -5.2622    5.9070   -2.8816 H   0  0  0  0  0  0  0  0  0  0  0  0
   -6.8062    6.5281   -3.5576 H   0  0  0  0  0  0  0  0  0  0  0  0
   -5.3425    7.5693   -3.5576 H   0  0  0  0  0  0  0  0  0  0  0  0
   -7.9149    7.5311   -0.3079 H   0  0  0  0  0  0  0  0  0  0  0  0
   -8.0738    8.4558   -1.8397 H   0  0  0  0  0  0  0  0  0  0  0  0
   -8.2943    6.6731   -1.8397 H   0  0  0  0  0  0  0  0  0  0  0  0
   -1.7648   11.0975    0.2381 H   0  0  0  0  0  0  0  0  0  0  0  0
   -0.3323   10.7946    2.1615 H   0  0  0  0  0  0  0  0  0  0  0  0
    0.4017    9.3271    1.4803 H   0  0  0  0  0  0  0  0  0  0  0  0
    1.6284   11.9060    1.5786 H   0  0  0  0  0  0  0  0  0  0  0  0
    2.2036   10.5765    0.5760 H   0  0  0  0  0  0  0  0  0  0  0  0
    0.0520   13.1586    1.2016 H   0  0  0  0  0  0  0  0  0  0  0  0
    0.5025   14.1165   -0.2497 H   0  0  0  0  0  0  0  0  0  0  0  0
   -1.0064   13.1419   -0.2497 H   0  0  0  0  0  0  0  0  0  0  0  0
    2.4700   11.4668   -1.6599 H   0  0  0  0  0  0  0  0  0  0  0  0
    3.0834   13.2063    0.1390 H   0  0  0  0  0  0  0  0  0  0  0  0
    3.8779   13.2328   -1.5215 H   0  0  0  0  0  0  0  0  0  0  0  0
    3.1899   15.5707   -0.5209 H   0  0  0  0  0  0  0  0  0  0  0  0
   -0.1336   14.3186   -2.4419 H   0  0  0  0  0  0  0  0  0  0  0  0
    1.8333   15.0369   -4.7033 H   0  0  0  0  0  0  0  0  0  0  0  0
    0.1415   14.3934   -4.8901 H   0  0  0  0  0  0  0  0  0  0  0  0
    0.2674   16.8301   -5.3012 H   0  0  0  0  0  0  0  0  0  0  0  0
   -0.7682   16.4058   -3.8825 H   0  0  0  0  0  0  0  0  0  0  0  0
    0.5767   18.3102   -3.3125 H   0  0  0  0  0  0  0  0  0  0  0  0
    2.8260   16.6250   -3.9570 H   0  0  0  0  0  0  0  0  0  0  0  0
    0.0476   16.9174   -0.1078 H   0  0  0  0  0  0  0  0  0  0  0  0
   -0.6068   17.8763   -1.4786 H   0  0  0  0  0  0  0  0  0  0  0  0
   -0.7634   16.0868   -1.4786 H   0  0  0  0  0  0  0  0  0  0  0  0
    2.0897   17.6212   -0.0875 H   0  0  0  0  0  0  0  0  0  0  0  0
    3.2569   17.4918   -1.4468 H   0  0  0  0  0  0  0  0  0  0  0  0
    2.0189   18.7934   -1.4468 H   0  0  0  0  0  0  0  0  0  0  0  0
    3.4536   12.5344   -3.3863 H   0  0  0  0  0  0  0  0  0  0  0  0
    2.2903   11.8126   -4.5492 H   0  0  0  0  0  0  0  0  0  0  0  0
    2.5768   13.5859   -4.5492 H   0  0  0  0  0  0  0  0  0  0  0  0
   -0.4181   12.5544   -4.1077 H   0  0  0  0  0  0  0  0  0  0  0  0
    0.6344   11.0644   -3.7798 H   0  0  0  0  0  0  0  0  0  0  0  0
   -1.4274   12.3123   -1.9428 H   0  0  0  0  0  0  0  0  0  0  0  0
   -1.4656   10.6953   -2.7495 H   0  0  0  0  0  0  0  0  0  0  0  0
    1.0886    9.0141   -0.7975 H   0  0  0  0  0  0  0  0  0  0  0  0
    0.0478    8.9805   -2.2611 H   0  0  0  0  0  0  0  0  0  0  0  0
    1.5669    9.9392   -2.2611 H   0  0  0  0  0  0  0  0  0  0  0  0
  1  2  1  0
  2  3  1  0
  3  4  1  0
  4  5  1  0
  5  6  1  0
  6  7  1  0
  7  8  1  0
  7  9  1  0
  2 10  1  0
 10 11  1  0
 11 12  1  0
 12 13  1  0
 13 14  1  1
 13 15  1  0
 15 16  1  0
 16 17  1  0
 17 18  2  0
 18 19  1  0
 19 20  1  0
 20 21  1  0
 21 22  1  0
 22 23  1  0
 22 24  1  0
 24 25  1  0
 24 26  1  0
 19 27  1  0
 27 28  1  6
 27 29  1  0
 29 30  1  0
 30 31  1  0
 31 32  1  6
  7  5  1  0
 31 10  1  0
 31 13  1  0
 27 15  1  0
 24 18  1  0
  1 33  1  0
  1 34  1  0
  1 35  1  0
  2 36  1  1
  3 37  1  0
  3 38  1  0
  4 39  1  0
  4 40  1  0
  5 41  1  1
  8 42  1  0
  8 43  1  0
  8 44  1  0
  9 45  1  0
  9 46  1  0
  9 47  1  0
 10 48  1  1
 11 49  1  0
 11 50  1  0
 12 51  1  0
 12 52  1  0
 14 53  1  0
 14 54  1  0
 14 55  1  0
 15 56  1  6
 16 57  1  0
 16 58  1  0
 17 59  1  0
 19 60  1  1
 20 61  1  0
 20 62  1  0
 21 63  1  0
 21 64  1  0
 22 65  1  1
 23 66  1  0
 25 67  1  0
 25 68  1  0
 25 69  1  0
 26 70  1  0
 26 71  1  0
 26 72  1  0
 28 73  1  0
 28 74  1  0
 28 75  1  0
 29 76  1  0
 29 77  1  0
 30 78  1  0
 30 79  1  0
 32 80  1  0
 32 81  1  0
 32 82  1  0
M  END
>  <meeko>  (1) 
{"is_sidechain": [false], "intermolecular_energy": 2.731, "internal_energy": -0.839}

$$$$
EPH_relaxed_0001_pdb2pqr_Repair_195_r2_0001_out
     RDKit          3D

 82 86  0  0  0  0  0  0  0  0999 V2000
   -5.1590    5.8450   -1.7100 C   0  0  0  0  0  0  0  0  0  0  0  0
   -5.4550    7.3460   -1.7790 C   0  0  2  0  0  0  0  0  0  0  0  0
   -5.2300    8.0450   -0.4220 C   0  0  0  0  0  0  0  0  0  0  0  0
   -4.2040    9.1790   -0.4770 C   0  0  0  0  0  0  0  0  0  0  0  0
   -2.8160    8.6610   -0.7050 C   0  0  2  0  0  0  0  0  0  0  0  0
   -1.8530    9.0780    0.2720 O   0  0  0  0  0  0  0  0  0  0  0  0
   -1.6410    9.5500   -1.0690 C   0  0  0  0  0  0  0  0  0  0  0  0
   -1.8000   11.0290   -1.2260 C   0  0  0  0  0  0  0  0  0  0  0  0
   -0.4580    8.9300   -1.7450 C   0  0  0  0  0  0  0  0  0  0  0  0
   -6.8860    7.5730   -2.2500 C   0  0  1  0  0  0  0  0  0  0  0  0
   -7.1900    6.8670   -3.5980 C   0  0  0  0  0  0  0  0  0  0  0  0
   -8.6670    6.3990   -3.5350 C   0  0  0  0  0  0  0  0  0  0  0  0
   -9.2570    7.1330   -2.3080 C   0  0  1  0  0  0  0  0  0  0  0  0
   -9.6010    8.5650   -2.8250 C   0  0  0  0  0  0  0  0  0  0  0  0
  -10.4880    6.4550   -1.6230 C   0  0  2  0  0  0  0  0  0  0  0  0
  -11.7380    6.3260   -2.5100 C   0  0  0  0  0  0  0  0  0  0  0  0
  -12.6890    7.4750   -2.4430 C   0  0  0  0  0  0  0  0  0  0  0  0
  -12.6940    8.4320   -1.4970 C   0  0  0  0  0  0  0  0  0  0  0  0
  -11.7340    8.3620   -0.3010 C   0  0  1  0  0  0  0  0  0  0  0  0
  -12.5150    8.6550    1.0070 C   0  0  0  0  0  0  0  0  0  0  0  0
  -13.2800    9.9740    0.9490 C   0  0  0  0  0  0  0  0  0  0  0  0
  -14.2650    9.9820   -0.2170 C   0  0  2  0  0  0  0  0  0  0  0  0
  -15.2870    9.0130    0.0350 O   0  0  0  0  0  0  0  0  0  0  0  0
  -13.5940    9.6890   -1.5880 C   0  0  0  0  0  0  0  0  0  0  0  0
  -12.7100   10.8910   -2.0030 C   0  0  0  0  0  0  0  0  0  0  0  0
  -14.7160    9.5860   -2.6570 C   0  0  0  0  0  0  0  0  0  0  0  0
  -10.8460    7.0480   -0.2010 C   0  0  1  0  0  0  0  0  0  0  0  0
  -11.6280    5.9350    0.5620 C   0  0  0  0  0  0  0  0  0  0  0  0
   -9.5640    7.3590    0.6580 C   0  0  0  0  0  0  0  0  0  0  0  0
   -8.3410    7.9150   -0.0950 C   0  0  0  0  0  0  0  0  0  0  0  0
   -8.0260    7.0670   -1.3310 C   0  0  2  0  0  0  0  0  0  0  0  0
   -7.6550    5.6260   -0.8420 C   0  0  0  0  0  0  0  0  0  0  0  0
   -5.0972    5.5315   -0.6574 H   0  0  0  0  0  0  0  0  0  0  0  0
   -5.9648    5.2889   -2.2115 H   0  0  0  0  0  0  0  0  0  0  0  0
   -4.2024    5.6365   -2.2115 H   0  0  0  0  0  0  0  0  0  0  0  0
   -4.7520    7.7889   -2.4999 H   0  0  0  0  0  0  0  0  0  0  0  0
   -6.1899    8.4613   -0.0824 H   0  0  0  0  0  0  0  0  0  0  0  0
   -4.8338    7.2862    0.2688 H   0  0  0  0  0  0  0  0  0  0  0  0
   -4.4696    9.8603   -1.2987 H   0  0  0  0  0  0  0  0  0  0  0  0
   -4.2198    9.7026    0.4903 H   0  0  0  0  0  0  0  0  0  0  0  0
   -3.2091    7.7369   -1.1539 H   0  0  0  0  0  0  0  0  0  0  0  0
   -1.8506   11.4998   -0.2331 H   0  0  0  0  0  0  0  0  0  0  0  0
   -0.9402   11.4334   -1.7802 H   0  0  0  0  0  0  0  0  0  0  0  0
   -2.7262   11.2414   -1.7802 H   0  0  0  0  0  0  0  0  0  0  0  0
    0.2466    8.5607   -0.9853 H   0  0  0  0  0  0  0  0  0  0  0  0
   -0.7926    8.0913   -2.3732 H   0  0  0  0  0  0  0  0  0  0  0  0
    0.0413    9.6823   -2.3732 H   0  0  0  0  0  0  0  0  0  0  0  0
   -6.8949    8.6722   -2.2897 H   0  0  0  0  0  0  0  0  0  0  0  0
   -7.0504    7.5691   -4.4332 H   0  0  0  0  0  0  0  0  0  0  0  0
   -6.5125    6.0155   -3.7594 H   0  0  0  0  0  0  0  0  0  0  0  0
   -9.2037    6.6827   -4.4523 H   0  0  0  0  0  0  0  0  0  0  0  0
   -8.7549    5.3059   -3.4491 H   0  0  0  0  0  0  0  0  0  0  0  0
   -9.7620    9.2354   -1.9679 H   0  0  0  0  0  0  0  0  0  0  0  0
   -8.7684    8.9442   -3.4357 H   0  0  0  0  0  0  0  0  0  0  0  0
  -10.5150    8.5246   -3.4357 H   0  0  0  0  0  0  0  0  0  0  0  0
  -10.1312    5.4275   -1.4588 H   0  0  0  0  0  0  0  0  0  0  0  0
  -11.4051    6.2207   -3.5531 H   0  0  0  0  0  0  0  0  0  0  0  0
  -12.2896    5.4521   -2.1331 H   0  0  0  0  0  0  0  0  0  0  0  0
  -13.4501    7.5452   -3.2340 H   0  0  0  0  0  0  0  0  0  0  0  0
  -10.9803    9.1454   -0.4690 H   0  0  0  0  0  0  0  0  0  0  0  0
  -13.2320    7.8389    1.1799 H   0  0  0  0  0  0  0  0  0  0  0  0
  -11.7820    8.7299    1.8238 H   0  0  0  0  0  0  0  0  0  0  0  0
  -13.8341   10.1105    1.8894 H   0  0  0  0  0  0  0  0  0  0  0  0
  -12.5590   10.7922    0.8054 H   0  0  0  0  0  0  0  0  0  0  0  0
  -14.6871   10.9956   -0.2844 H   0  0  0  0  0  0  0  0  0  0  0  0
  -14.8530    8.2050    0.3580 H   0  0  0  0  0  0  0  0  0  0  0  0
  -12.3361   11.3995   -1.1021 H   0  0  0  0  0  0  0  0  0  0  0  0
  -11.8595   10.5315   -2.6008 H   0  0  0  0  0  0  0  0  0  0  0  0
  -13.3066   11.5958   -2.6008 H   0  0  0  0  0  0  0  0  0  0  0  0
  -15.6917    9.4964   -2.1570 H   0  0  0  0  0  0  0  0  0  0  0  0
  -14.7076   10.4887   -3.2855 H   0  0  0  0  0  0  0  0  0  0  0  0
  -14.5434    8.6999   -3.2855 H   0  0  0  0  0  0  0  0  0  0  0  0
  -11.5202    6.0885    1.6459 H   0  0  0  0  0  0  0  0  0  0  0  0
  -12.6926    5.9821    0.2891 H   0  0  0  0  0  0  0  0  0  0  0  0
  -11.2228    4.9494    0.2891 H   0  0  0  0  0  0  0  0  0  0  0  0
   -9.8472    8.0968    1.4232 H   0  0  0  0  0  0  0  0  0  0  0  0
   -9.2398    6.3852    1.0537 H   0  0  0  0  0  0  0  0  0  0  0  0
   -8.5518    8.9473   -0.4111 H   0  0  0  0  0  0  0  0  0  0  0  0
   -7.4722    7.8885    0.5792 H   0  0  0  0  0  0  0  0  0  0  0  0
   -7.6489    5.6022    0.2577 H   0  0  0  0  0  0  0  0  0  0  0  0
   -8.3976    4.9079   -1.2202 H   0  0  0  0  0  0  0  0  0  0  0  0
   -6.6580    5.3558   -1.2202 H   0  0  0  0  0  0  0  0  0  0  0  0
  1  2  1  0
  2  3  1  0
  3  4  1  0
  4  5  1  0
  5  6  1  0
  6  7  1  0
  7  8  1  0
  7  9  1  0
  2 10  1  0
 10 11  1  0
 11 12  1  0
 12 13  1  0
 13 14  1  6
 13 15  1  0
 15 16  1  0
 16 17  1  0
 17 18  2  0
 18 19  1  0
 19 20  1  0
 20 21  1  0
 21 22  1  0
 22 23  1  0
 22 24  1  0
 24 25  1  0
 24 26  1  0
 19 27  1  0
 27 28  1  1
 27 29  1  0
 29 30  1  0
 30 31  1  0
 31 32  1  1
  7  5  1  0
 31 10  1  0
 31 13  1  0
 27 15  1  0
 24 18  1  0
  1 33  1  0
  1 34  1  0
  1 35  1  0
  2 36  1  6
  3 37  1  0
  3 38  1  0
  4 39  1  0
  4 40  1  0
  5 41  1  6
  8 42  1  0
  8 43  1  0
  8 44  1  0
  9 45  1  0
  9 46  1  0
  9 47  1  0
 10 48  1  6
 11 49  1  0
 11 50  1  0
 12 51  1  0
 12 52  1  0
 14 53  1  0
 14 54  1  0
 14 55  1  0
 15 56  1  1
 16 57  1  0
 16 58  1  0
 17 59  1  0
 19 60  1  6
 20 61  1  0
 20 62  1  0
 21 63  1  0
 21 64  1  0
 22 65  1  6
 23 66  1  0
 25 67  1  0
 25 68  1  0
 25 69  1  0
 26 70  1  0
 26 71  1  0
 26 72  1  0
 28 73  1  0
 28 74  1  0
 28 75  1  0
 29 76  1  0
 29 77  1  0
 30 78  1  0
 30 79  1  0
 32 80  1  0
 32 81  1  0
 32 82  1  0
M  END
>  <meeko>  (2) 
{"is_sidechain": [false], "intermolecular_energy": 2.731, "internal_energy": -0.839}

$$$$
EPH_relaxed_0001_pdb2pqr_Repair_195_r2_0001_out
     RDKit          3D

 82 86  0  0  0  0  0  0  0  0999 V2000
    2.0780   17.4590   -1.3570 C   0  0  0  0  0  0  0  0  0  0  0  0
    1.3590   17.4460   -2.7090 C   0  0  2  0  0  0  0  0  0  0  0  0
    0.2370   18.5010   -2.7810 C   0  0  0  0  0  0  0  0  0  0  0  0
    0.3990   19.6410   -1.7720 C   0  0  0  0  0  0  0  0  0  0  0  0
   -0.6150   19.5540   -0.6710 C   0  0  2  0  0  0  0  0  0  0  0  0
   -1.5620   18.4870   -0.8120 O   0  0  0  0  0  0  0  0  0  0  0  0
   -2.0950   19.8200   -0.8740 C   0  0  0  0  0  0  0  0  0  0  0  0
   -2.6440   20.1940   -2.2150 C   0  0  0  0  0  0  0  0  0  0  0  0
   -2.9240   20.1940    0.3150 C   0  0  0  0  0  0  0  0  0  0  0  0
    0.7880   16.0590   -2.9800 C   0  0  1  0  0  0  0  0  0  0  0  0
    0.7180   15.7270   -4.4940 C   0  0  0  0  0  0  0  0  0  0  0  0
    1.0050   14.2090   -4.6330 C   0  0  0  0  0  0  0  0  0  0  0  0
    0.9010   13.6590   -3.1910 C   0  0  1  0  0  0  0  0  0  0  0  0
   -0.6290   13.4750   -2.9410 C   0  0  0  0  0  0  0  0  0  0  0  0
    1.6960   12.3470   -2.8940 C   0  0  2  0  0  0  0  0  0  0  0  0
    1.2520   11.1160   -3.7040 C   0  0  0  0  0  0  0  0  0  0  0  0
    0.1890   10.2830   -3.0670 C   0  0  0  0  0  0  0  0  0  0  0  0
   -0.1850   10.3460   -1.7760 C   0  0  0  0  0  0  0  0  0  0  0  0
    0.5520   11.2570   -0.7860 C   0  0  1  0  0  0  0  0  0  0  0  0
    0.8510   10.4710    0.5170 C   0  0  0  0  0  0  0  0  0  0  0  0
   -0.4010    9.8430    1.1230 C   0  0  0  0  0  0  0  0  0  0  0  0
   -1.0730    8.8990    0.1290 C   0  0  2  0  0  0  0  0  0  0  0  0
   -0.2120    7.7790   -0.0970 O   0  0  0  0  0  0  0  0  0  0  0  0
   -1.4130    9.5790   -1.2270 C   0  0  0  0  0  0  0  0  0  0  0  0
   -2.5680   10.5900   -1.0270 C   0  0  0  0  0  0  0  0  0  0  0  0
   -1.9550    8.4850   -2.1870 C   0  0  0  0  0  0  0  0  0  0  0  0
    1.8330   12.0060   -1.3540 C   0  0  1  0  0  0  0  0  0  0  0  0
    3.0900   11.0950   -1.2100 C   0  0  0  0  0  0  0  0  0  0  0  0
    2.1100   13.2870   -0.4810 C   0  0  0  0  0  0  0  0  0  0  0  0
    1.3860   14.5820   -0.8970 C   0  0  0  0  0  0  0  0  0  0  0  0
    1.5570   14.8470   -2.3960 C   0  0  2  0  0  0  0  0  0  0  0  0
    3.0840   15.0580   -2.6750 C   0  0  0  0  0  0  0  0  0  0  0  0
    1.3347   17.4456   -0.5463 H   0  0  0  0  0  0  0  0  0  0  0  0
    2.7241   16.5724   -1.2768 H   0  0  0  0  0  0  0  0  0  0  0  0
    2.6917   18.3684   -1.2768 H   0  0  0  0  0  0  0  0  0  0  0  0
    2.1006   17.7005   -3.4805 H   0  0  0  0  0  0  0  0  0  0  0  0
    0.2295   18.9315   -3.7932 H   0  0  0  0  0  0  0  0  0  0  0  0
   -0.7042   17.9867   -2.5368 H   0  0  0  0  0  0  0  0  0  0  0  0
    1.4066   19.5890   -1.3338 H   0  0  0  0  0  0  0  0  0  0  0  0
    0.2490   20.5929   -2.3025 H   0  0  0  0  0  0  0  0  0  0  0  0
    0.1107   19.9404    0.0598 H   0  0  0  0  0  0  0  0  0  0  0  0
   -3.5465   20.8089   -2.0832 H   0  0  0  0  0  0  0  0  0  0  0  0
   -1.8888   20.7663   -2.7737 H   0  0  0  0  0  0  0  0  0  0  0  0
   -2.9002   19.2818   -2.7737 H   0  0  0  0  0  0  0  0  0  0  0  0
   -2.3762   19.9469    1.2363 H   0  0  0  0  0  0  0  0  0  0  0  0
   -3.1331   21.2737    0.2912 H   0  0  0  0  0  0  0  0  0  0  0  0
   -3.8718   19.6363    0.2912 H   0  0  0  0  0  0  0  0  0  0  0  0
   -0.1877   16.1608   -2.4824 H   0  0  0  0  0  0  0  0  0  0  0  0
   -0.2823   15.9609   -4.8872 H   0  0  0  0  0  0  0  0  0  0  0  0
    1.4487   16.3208   -5.0627 H   0  0  0  0  0  0  0  0  0  0  0  0
    0.2597   13.7310   -5.2857 H   0  0  0  0  0  0  0  0  0  0  0  0
    1.9875   14.0098   -5.0858 H   0  0  0  0  0  0  0  0  0  0  0  0
   -0.8235   13.4516   -1.8586 H   0  0  0  0  0  0  0  0  0  0  0  0
   -1.1780   14.3136   -3.3941 H   0  0  0  0  0  0  0  0  0  0  0  0
   -0.9636   12.5302   -3.3941 H   0  0  0  0  0  0  0  0  0  0  0  0
    2.7039   12.5960   -3.2575 H   0  0  0  0  0  0  0  0  0  0  0  0
    0.8726   11.4668   -4.6751 H   0  0  0  0  0  0  0  0  0  0  0  0
    2.1380   10.4691   -3.7849 H   0  0  0  0  0  0  0  0  0  0  0  0
   -0.3325    9.5563   -3.7073 H   0  0  0  0  0  0  0  0  0  0  0  0
   -0.1340   12.0895   -0.5708 H   0  0  0  0  0  0  0  0  0  0  0  0
    1.5713    9.6715    0.2889 H   0  0  0  0  0  0  0  0  0  0  0  0
    1.2554   11.1836    1.2510 H   0  0  0  0  0  0  0  0  0  0  0  0
   -0.1202    9.2772    2.0236 H   0  0  0  0  0  0  0  0  0  0  0  0
   -1.1083   10.6458    1.3784 H   0  0  0  0  0  0  0  0  0  0  0  0
   -2.0297    8.5819    0.5696 H   0  0  0  0  0  0  0  0  0  0  0  0
   -0.2990    7.5240   -1.0320 H   0  0  0  0  0  0  0  0  0  0  0  0
   -2.7408   10.7412    0.0488 H   0  0  0  0  0  0  0  0  0  0  0  0
   -2.3004   11.5494   -1.4938 H   0  0  0  0  0  0  0  0  0  0  0  0
   -3.4836   10.1978   -1.4938 H   0  0  0  0  0  0  0  0  0  0  0  0
   -2.3675    7.6523   -1.5984 H   0  0  0  0  0  0  0  0  0  0  0  0
   -2.7455    8.9126   -2.8213 H   0  0  0  0  0  0  0  0  0  0  0  0
   -1.1359    8.1152   -2.8213 H   0  0  0  0  0  0  0  0  0  0  0  0
    3.3081   10.9370   -0.1435 H   0  0  0  0  0  0  0  0  0  0  0  0
    2.8973   10.1254   -1.6925 H   0  0  0  0  0  0  0  0  0  0  0  0
    3.9515   11.5799   -1.6925 H   0  0  0  0  0  0  0  0  0  0  0  0
    1.8115   13.0563    0.5523 H   0  0  0  0  0  0  0  0  0  0  0  0
    3.1807   13.5004   -0.6153 H   0  0  0  0  0  0  0  0  0  0  0  0
    0.3144   14.4847   -0.6685 H   0  0  0  0  0  0  0  0  0  0  0  0
    1.8231   15.4234   -0.3394 H   0  0  0  0  0  0  0  0  0  0  0  0
    3.6244   15.1327   -1.7198 H   0  0  0  0  0  0  0  0  0  0  0  0
    3.4729   14.2051   -3.2506 H   0  0  0  0  0  0  0  0  0  0  0  0
    3.2270   15.9844   -3.2506 H   0  0  0  0  0  0  0  0  0  0  0  0
  1  2  1  0
  2  3  1  0
  3  4  1  0
  4  5  1  0
  5  6  1  0
  6  7  1  0
  7  8  1  0
  7  9  1  0
  2 10  1  0
 10 11  1  0
 11 12  1  0
 12 13  1  0
 13 14  1  1
 13 15  1  0
 15 16  1  0
 16 17  1  0
 17 18  2  0
 18 19  1  0
 19 20  1  0
 20 21  1  0
 21 22  1  0
 22 23  1  0
 22 24  1  0
 24 25  1  0
 24 26  1  0
 19 27  1  0
 27 28  1  6
 27 29  1  0
 29 30  1  0
 30 31  1  0
 31 32  1  1
  7  5  1  0
 31 10  1  0
 31 13  1  0
 27 15  1  0
 24 18  1  0
  1 33  1  0
  1 34  1  0
  1 35  1  0
  2 36  1  6
  3 37  1  0
  3 38  1  0
  4 39  1  0
  4 40  1  0
  5 41  1  1
  8 42  1  0
  8 43  1  0
  8 44  1  0
  9 45  1  0
  9 46  1  0
  9 47  1  0
 10 48  1  1
 11 49  1  0
 11 50  1  0
 12 51  1  0
 12 52  1  0
 14 53  1  0
 14 54  1  0
 14 55  1  0
 15 56  1  6
 16 57  1  0
 16 58  1  0
 17 59  1  0
 19 60  1  1
 20 61  1  0
 20 62  1  0
 21 63  1  0
 21 64  1  0
 22 65  1  1
 23 66  1  0
 25 67  1  0
 25 68  1  0
 25 69  1  0
 26 70  1  0
 26 71  1  0
 26 72  1  0
 28 73  1  0
 28 74  1  0
 28 75  1  0
 29 76  1  0
 29 77  1  0
 30 78  1  0
 30 79  1  0
 32 80  1  0
 32 81  1  0
 32 82  1  0
M  END
>  <meeko>  (3) 
{"is_sidechain": [false], "intermolecular_energy": 2.731, "internal_energy": -0.839}

$$$$
EPH_relaxed_0001_pdb2pqr_Repair_195_r2_0001_out
     RDKit          3D

 82 86  0  0  0  0  0  0  0  0999 V2000
   -1.2800   16.4830   -5.8530 C   0  0  0  0  0  0  0  0  0  0  0  0
   -0.0430   15.7670   -6.4050 C   0  0  2  0  0  0  0  0  0  0  0  0
   -0.2120   15.3760   -7.8860 C   0  0  0  0  0  0  0  0  0  0  0  0
    0.3540   16.4090   -8.8640 C   0  0  0  0  0  0  0  0  0  0  0  0
    1.7640   16.0860   -9.2570 C   0  0  2  0  0  0  0  0  0  0  0  0
    2.2130   16.7280  -10.4580 O   0  0  0  0  0  0  0  0  0  0  0  0
    2.1260   15.2940  -10.5000 C   0  0  0  0  0  0  0  0  0  0  0  0
    1.0730   14.7750  -11.4290 C   0  0  0  0  0  0  0  0  0  0  0  0
    3.4560   14.6110  -10.5510 C   0  0  0  0  0  0  0  0  0  0  0  0
    0.2560   14.5280   -5.5690 C   0  0  1  0  0  0  0  0  0  0  0  0
    1.2100   13.5390   -6.2890 C   0  0  0  0  0  0  0  0  0  0  0  0
    2.0980   12.8960   -5.1920 C   0  0  0  0  0  0  0  0  0  0  0  0
    1.4120   13.2800   -3.8600 C   0  0  1  0  0  0  0  0  0  0  0  0
    0.2490   12.2520   -3.6980 C   0  0  0  0  0  0  0  0  0  0  0  0
    2.3300   13.3170   -2.5950 C   0  0  2  0  0  0  0  0  0  0  0  0
    2.9690   11.9700   -2.2130 C   0  0  0  0  0  0  0  0  0  0  0  0
    2.1740   11.1340   -1.2650 C   0  0  0  0  0  0  0  0  0  0  0  0
    1.1380   11.5650   -0.5220 C   0  0  0  0  0  0  0  0  0  0  0  0
    0.7310   13.0440   -0.5200 C   0  0  1  0  0  0  0  0  0  0  0  0
    0.5070   13.5170    0.9410 C   0  0  0  0  0  0  0  0  0  0  0  0
   -0.4870   12.6380    1.6940 C   0  0  0  0  0  0  0  0  0  0  0  0
   -0.0190   11.1850    1.7200 C   0  0  2  0  0  0  0  0  0  0  0  0
    1.1710   11.0980    2.5100 O   0  0  0  0  0  0  0  0  0  0  0  0
    0.2490   10.6030    0.3040 C   0  0  0  0  0  0  0  0  0  0  0  0
   -1.0930   10.4170   -0.4450 C   0  0  0  0  0  0  0  0  0  0  0  0
    0.8500    9.1810    0.4790 C   0  0  0  0  0  0  0  0  0  0  0  0
    1.6760   14.0240   -1.3400 C   0  0  1  0  0  0  0  0  0  0  0  0
    2.8530   14.5080   -0.4380 C   0  0  0  0  0  0  0  0  0  0  0  0
    0.8620   15.3120   -1.7360 C   0  0  0  0  0  0  0  0  0  0  0  0
    0.0700   15.2550   -3.0560 C   0  0  0  0  0  0  0  0  0  0  0  0
    0.9500   14.7440   -4.2010 C   0  0  2  0  0  0  0  0  0  0  0  0
    2.1170   15.7690   -4.4030 C   0  0  0  0  0  0  0  0  0  0  0  0
   -1.2527   16.4672   -4.7535 H   0  0  0  0  0  0  0  0  0  0  0  0
   -1.2878   17.5253   -6.2046 H   0  0  0  0  0  0  0  0  0  0  0  0
   -2.1876   15.9706   -6.2046 H   0  0  0  0  0  0  0  0  0  0  0  0
    0.8016   16.4691   -6.3437 H   0  0  0  0  0  0  0  0  0  0  0  0
    0.3047   14.4195   -8.0537 H   0  0  0  0  0  0  0  0  0  0  0  0
   -1.2928   15.3089   -8.0793 H   0  0  0  0  0  0  0  0  0  0  0  0
   -0.2731   16.4254   -9.7676 H   0  0  0  0  0  0  0  0  0  0  0  0
    0.3530   17.3896   -8.3656 H   0  0  0  0  0  0  0  0  0  0  0  0
    2.0582   15.9791   -8.2025 H   0  0  0  0  0  0  0  0  0  0  0  0
    0.2378   14.3634  -10.8433 H   0  0  0  0  0  0  0  0  0  0  0  0
    0.7067   15.5957  -12.0632 H   0  0  0  0  0  0  0  0  0  0  0  0
    1.5008   13.9845  -12.0632 H   0  0  0  0  0  0  0  0  0  0  0  0
    3.8134   14.4274   -9.5270 H   0  0  0  0  0  0  0  0  0  0  0  0
    3.3560   13.6527  -11.0817 H   0  0  0  0  0  0  0  0  0  0  0  0
    4.1765   15.2506  -11.0817 H   0  0  0  0  0  0  0  0  0  0  0  0
   -0.7679   14.1562   -5.4161 H   0  0  0  0  0  0  0  0  0  0  0  0
    0.6292   12.7631   -6.8093 H   0  0  0  0  0  0  0  0  0  0  0  0
    1.8235   14.0578   -7.0402 H   0  0  0  0  0  0  0  0  0  0  0  0
    2.1313   11.8029   -5.3106 H   0  0  0  0  0  0  0  0  0  0  0  0
    3.1398   13.2456   -5.2406 H   0  0  0  0  0  0  0  0  0  0  0  0
    0.0564   12.0818   -2.6285 H   0  0  0  0  0  0  0  0  0  0  0  0
   -0.6594   12.6478   -4.1757 H   0  0  0  0  0  0  0  0  0  0  0  0
    0.5303   11.3019   -4.1757 H   0  0  0  0  0  0  0  0  0  0  0  0
    3.1606   13.9583   -2.9248 H   0  0  0  0  0  0  0  0  0  0  0  0
    3.1172   11.3900   -3.1359 H   0  0  0  0  0  0  0  0  0  0  0  0
    3.9062   12.2143   -1.6915 H   0  0  0  0  0  0  0  0  0  0  0  0
    2.4593   10.0763   -1.1655 H   0  0  0  0  0  0  0  0  0  0  0  0
   -0.2140   13.1004   -1.0801 H   0  0  0  0  0  0  0  0  0  0  0  0
    1.4706   13.4936    1.4710 H   0  0  0  0  0  0  0  0  0  0  0  0
    0.0910   14.5346    0.9027 H   0  0  0  0  0  0  0  0  0  0  0  0
   -0.5813   13.0045    2.7269 H   0  0  0  0  0  0  0  0  0  0  0  0
   -1.4580   12.6852    1.1792 H   0  0  0  0  0  0  0  0  0  0  0  0
   -0.8302   10.5844    2.1573 H   0  0  0  0  0  0  0  0  0  0  0  0
    1.9300   11.1550    1.9050 H   0  0  0  0  0  0  0  0  0  0  0  0
   -1.9079   10.3041    0.2852 H   0  0  0  0  0  0  0  0  0  0  0  0
   -1.2857   11.2970   -1.0762 H   0  0  0  0  0  0  0  0  0  0  0  0
   -1.0390    9.5177   -1.0762 H   0  0  0  0  0  0  0  0  0  0  0  0
    0.9464    8.9530    1.5508 H   0  0  0  0  0  0  0  0  0  0  0  0
    0.1873    8.4420    0.0051 H   0  0  0  0  0  0  0  0  0  0  0  0
    1.8419    9.1413    0.0051 H   0  0  0  0  0  0  0  0  0  0  0  0
    2.5750   14.3937    0.6201 H   0  0  0  0  0  0  0  0  0  0  0  0
    3.7486   13.9052   -0.6490 H   0  0  0  0  0  0  0  0  0  0  0  0
    3.0654   15.5665   -0.6490 H   0  0  0  0  0  0  0  0  0  0  0  0
    0.1453   15.5146   -0.9265 H   0  0  0  0  0  0  0  0  0  0  0  0
    1.6192   16.0953   -1.8884 H   0  0  0  0  0  0  0  0  0  0  0  0
   -0.7882   14.5782   -2.9319 H   0  0  0  0  0  0  0  0  0  0  0  0
   -0.2734   16.2703   -3.3034 H   0  0  0  0  0  0  0  0  0  0  0  0
    2.4907   16.0972   -3.4219 H   0  0  0  0  0  0  0  0  0  0  0  0
    2.9326   15.2900   -4.9645 H   0  0  0  0  0  0  0  0  0  0  0  0
    1.7472   16.6396   -4.9645 H   0  0  0  0  0  0  0  0  0  0  0  0
  1  2  1  0
  2  3  1  0
  3  4  1  0
  4  5  1  0
  5  6  1  0
  6  7  1  0
  7  8  1  0
  7  9  1  0
  2 10  1  0
 10 11  1  0
 11 12  1  0
 12 13  1  0
 13 14  1  1
 13 15  1  0
 15 16  1  0
 16 17  1  0
 17 18  2  0
 18 19  1  0
 19 20  1  0
 20 21  1  0
 21 22  1  0
 22 23  1  0
 22 24  1  0
 24 25  1  0
 24 26  1  0
 19 27  1  0
 27 28  1  1
 27 29  1  0
 29 30  1  0
 30 31  1  0
 31 32  1  6
  7  5  1  0
 31 10  1  0
 31 13  1  0
 27 15  1  0
 24 18  1  0
  1 33  1  0
  1 34  1  0
  1 35  1  0
  2 36  1  6
  3 37  1  0
  3 38  1  0
  4 39  1  0
  4 40  1  0
  5 41  1  1
  8 42  1  0
  8 43  1  0
  8 44  1  0
  9 45  1  0
  9 46  1  0
  9 47  1  0
 10 48  1  1
 11 49  1  0
 11 50  1  0
 12 51  1  0
 12 52  1  0
 14 53  1  0
 14 54  1  0
 14 55  1  0
 15 56  1  6
 16 57  1  0
 16 58  1  0
 17 59  1  0
 19 60  1  6
 20 61  1  0
 20 62  1  0
 21 63  1  0
 21 64  1  0
 22 65  1  1
 23 66  1  0
 25 67  1  0
 25 68  1  0
 25 69  1  0
 26 70  1  0
 26 71  1  0
 26 72  1  0
 28 73  1  0
 28 74  1  0
 28 75  1  0
 29 76  1  0
 29 77  1  0
 30 78  1  0
 30 79  1  0
 32 80  1  0
 32 81  1  0
 32 82  1  0
M  END
>  <meeko>  (4) 
{"is_sidechain": [false], "intermolecular_energy": 2.731, "internal_energy": -0.839}

$$$$
EPH_relaxed_0001_pdb2pqr_Repair_195_r2_0001_out
     RDKit          3D

 82 86  0  0  0  0  0  0  0  0999 V2000
   -0.2930   15.1100   -7.6150 C   0  0  0  0  0  0  0  0  0  0  0  0
    1.0860   15.0810   -6.9510 C   0  0  2  0  0  0  0  0  0  0  0  0
    2.2290   15.1610   -7.9820 C   0  0  0  0  0  0  0  0  0  0  0  0
    2.2640   16.4780   -8.7620 C   0  0  0  0  0  0  0  0  0  0  0  0
    1.8620   16.2860  -10.1930 C   0  0  2  0  0  0  0  0  0  0  0  0
    1.1980   15.0450  -10.4670 O   0  0  0  0  0  0  0  0  0  0  0  0
    2.4740   15.2330  -11.0990 C   0  0  0  0  0  0  0  0  0  0  0  0
    3.5390   14.3040  -10.6080 C   0  0  0  0  0  0  0  0  0  0  0  0
    2.3900   15.4290  -12.5810 C   0  0  0  0  0  0  0  0  0  0  0  0
    1.2300   13.8180   -6.1090 C   0  0  1  0  0  0  0  0  0  0  0  0
    2.6620   13.2220   -6.1680 C   0  0  0  0  0  0  0  0  0  0  0  0
    2.9540   12.6210   -4.7690 C   0  0  0  0  0  0  0  0  0  0  0  0
    1.5790   12.5920   -4.0620 C   0  0  1  0  0  0  0  0  0  0  0  0
    0.8750   11.3090   -4.6060 C   0  0  0  0  0  0  0  0  0  0  0  0
    1.6040   12.6180   -2.4990 C   0  0  2  0  0  0  0  0  0  0  0  0
    2.2930   11.4120   -1.8380 C   0  0  0  0  0  0  0  0  0  0  0  0
    1.3980   10.2590   -1.5240 C   0  0  0  0  0  0  0  0  0  0  0  0
    0.0530   10.2980   -1.4990 C   0  0  0  0  0  0  0  0  0  0  0  0
   -0.7020   11.6170   -1.7110 C   0  0  1  0  0  0  0  0  0  0  0  0
   -1.8090   11.7580   -0.6340 C   0  0  0  0  0  0  0  0  0  0  0  0
   -2.7430   10.5520   -0.5940 C   0  0  0  0  0  0  0  0  0  0  0  0
   -1.9630    9.2680   -0.3240 C   0  0  2  0  0  0  0  0  0  0  0  0
   -1.4290    9.3230    1.0030 O   0  0  0  0  0  0  0  0  0  0  0  0
   -0.8130    9.0240   -1.3400 C   0  0  0  0  0  0  0  0  0  0  0  0
   -1.4090    8.6650   -2.7240 C   0  0  0  0  0  0  0  0  0  0  0  0
   -0.0190    7.7740   -0.8720 C   0  0  0  0  0  0  0  0  0  0  0  0
    0.2010   12.9190   -1.8330 C   0  0  1  0  0  0  0  0  0  0  0  0
    0.4960   13.4970   -0.4150 C   0  0  0  0  0  0  0  0  0  0  0  0
   -0.6030   14.0310   -2.6070 C   0  0  0  0  0  0  0  0  0  0  0  0
   -0.4920   14.0250   -4.1430 C   0  0  0  0  0  0  0  0  0  0  0  0
    0.9720   13.9440   -4.5870 C   0  0  2  0  0  0  0  0  0  0  0  0
    1.7000   15.2330   -4.0740 C   0  0  0  0  0  0  0  0  0  0  0  0
   -1.0730   15.1264   -6.8396 H   0  0  0  0  0  0  0  0  0  0  0  0
   -0.3796   16.0102   -8.2413 H   0  0  0  0  0  0  0  0  0  0  0  0
   -0.4173   14.2143   -8.2413 H   0  0  0  0  0  0  0  0  0  0  0  0
    1.1620   15.9687   -6.3059 H   0  0  0  0  0  0  0  0  0  0  0  0
    3.1850   15.0471   -7.4500 H   0  0  0  0  0  0  0  0  0  0  0  0
    2.0577   14.3584   -8.7144 H   0  0  0  0  0  0  0  0  0  0  0  0
    1.5716   17.1904   -8.2898 H   0  0  0  0  0  0  0  0  0  0  0  0
    3.2955   16.8597   -8.7440 H   0  0  0  0  0  0  0  0  0  0  0  0
    1.7046   17.3674  -10.3191 H   0  0  0  0  0  0  0  0  0  0  0  0
    3.5435   14.3001   -9.5080 H   0  0  0  0  0  0  0  0  0  0  0  0
    3.3379   13.2876  -10.9775 H   0  0  0  0  0  0  0  0  0  0  0  0
    4.5187   14.6413  -10.9775 H   0  0  0  0  0  0  0  0  0  0  0  0
    1.9651   16.4205  -12.7962 H   0  0  0  0  0  0  0  0  0  0  0  0
    3.3971   15.3590  -13.0178 H   0  0  0  0  0  0  0  0  0  0  0  0
    1.7461   14.6514  -13.0178 H   0  0  0  0  0  0  0  0  0  0  0  0
    0.4489   13.1973   -6.5723 H   0  0  0  0  0  0  0  0  0  0  0  0
    2.7140   12.4364   -6.9362 H   0  0  0  0  0  0  0  0  0  0  0  0
    3.4009   13.9942   -6.4283 H   0  0  0  0  0  0  0  0  0  0  0  0
    3.3648   11.6048   -4.8610 H   0  0  0  0  0  0  0  0  0  0  0  0
    3.6981   13.2075   -4.2101 H   0  0  0  0  0  0  0  0  0  0  0  0
    0.5358   10.6909   -3.7617 H   0  0  0  0  0  0  0  0  0  0  0  0
    0.0092   11.5981   -5.2198 H   0  0  0  0  0  0  0  0  0  0  0  0
    1.5840   10.7340   -5.2198 H   0  0  0  0  0  0  0  0  0  0  0  0
    2.2491   13.4835   -2.2877 H   0  0  0  0  0  0  0  0  0  0  0  0
    3.0804   11.0555   -2.5184 H   0  0  0  0  0  0  0  0  0  0  0  0
    2.6754   11.7722   -0.8716 H   0  0  0  0  0  0  0  0  0  0  0  0
    1.8784    9.2966   -1.2937 H   0  0  0  0  0  0  0  0  0  0  0  0
   -1.1595   11.5501   -2.7091 H   0  0  0  0  0  0  0  0  0  0  0  0
   -1.3311   11.8668    0.3508 H   0  0  0  0  0  0  0  0  0  0  0  0
   -2.4137   12.6405   -0.8901 H   0  0  0  0  0  0  0  0  0  0  0  0
   -3.4850   10.6974    0.2049 H   0  0  0  0  0  0  0  0  0  0  0  0
   -3.2422   10.4614   -1.5700 H   0  0  0  0  0  0  0  0  0  0  0  0
   -2.6636    8.4274   -0.4360 H   0  0  0  0  0  0  0  0  0  0  0  0
   -1.3570    8.4100    1.3290 H   0  0  0  0  0  0  0  0  0  0  0  0
   -2.3438    8.1019   -2.5858 H   0  0  0  0  0  0  0  0  0  0  0  0
   -1.6166    9.5884   -3.2845 H   0  0  0  0  0  0  0  0  0  0  0  0
   -0.6898    8.0497   -3.2845 H   0  0  0  0  0  0  0  0  0  0  0  0
    0.0009    7.7427    0.2274 H   0  0  0  0  0  0  0  0  0  0  0  0
   -0.5059    6.8654   -1.2559 H   0  0  0  0  0  0  0  0  0  0  0  0
    1.0104    7.8285   -1.2559 H   0  0  0  0  0  0  0  0  0  0  0  0
    0.1367   12.7929    0.3500 H   0  0  0  0  0  0  0  0  0  0  0  0
    1.5797   13.6446   -0.2974 H   0  0  0  0  0  0  0  0  0  0  0  0
   -0.0203   14.4612   -0.2974 H   0  0  0  0  0  0  0  0  0  0  0  0
   -1.6660   13.9133   -2.3496 H   0  0  0  0  0  0  0  0  0  0  0  0
   -0.1550   14.9841   -2.2895 H   0  0  0  0  0  0  0  0  0  0  0  0
   -1.0369   13.1557   -4.5397 H   0  0  0  0  0  0  0  0  0  0  0  0
   -0.9243   14.9598   -4.5294 H   0  0  0  0  0  0  0  0  0  0  0  0
    1.7034   15.2390   -2.9740 H   0  0  0  0  0  0  0  0  0  0  0  0
    2.7359   15.2408   -4.4439 H   0  0  0  0  0  0  0  0  0  0  0  0
    1.1718   16.1242   -4.4439 H   0  0  0  0  0  0  0  0  0  0  0  0
  1  2  1  0
  2  3  1  0
  3  4  1  0
  4  5  1  0
  5  6  1  0
  6  7  1  0
  7  8  1  0
  7  9  1  0
  2 10  1  0
 10 11  1  0
 11 12  1  0
 12 13  1  0
 13 14  1  1
 13 15  1  0
 15 16  1  0
 16 17  1  0
 17 18  2  0
 18 19  1  0
 19 20  1  0
 20 21  1  0
 21 22  1  0
 22 23  1  0
 22 24  1  0
 24 25  1  0
 24 26  1  0
 19 27  1  0
 27 28  1  1
 27 29  1  0
 29 30  1  0
 30 31  1  0
 31 32  1  1
  7  5  1  0
 31 10  1  0
 31 13  1  0
 27 15  1  0
 24 18  1  0
  1 33  1  0
  1 34  1  0
  1 35  1  0
  2 36  1  1
  3 37  1  0
  3 38  1  0
  4 39  1  0
  4 40  1  0
  5 41  1  6
  8 42  1  0
  8 43  1  0
  8 44  1  0
  9 45  1  0
  9 46  1  0
  9 47  1  0
 10 48  1  6
 11 49  1  0
 11 50  1  0
 12 51  1  0
 12 52  1  0
 14 53  1  0
 14 54  1  0
 14 55  1  0
 15 56  1  6
 16 57  1  0
 16 58  1  0
 17 59  1  0
 19 60  1  6
 20 61  1  0
 20 62  1  0
 21 63  1  0
 21 64  1  0
 22 65  1  1
 23 66  1  0
 25 67  1  0
 25 68  1  0
 25 69  1  0
 26 70  1  0
 26 71  1  0
 26 72  1  0
 28 73  1  0
 28 74  1  0
 28 75  1  0
 29 76  1  0
 29 77  1  0
 30 78  1  0
 30 79  1  0
 32 80  1  0
 32 81  1  0
 32 82  1  0
M  END
>  <meeko>  (5) 
{"is_sidechain": [false], "intermolecular_energy": 2.731, "internal_energy": -0.839}

$$$$
EPH_relaxed_0001_pdb2pqr_Repair_195_r2_0001_out
     RDKit          3D

 82 86  0  0  0  0  0  0  0  0999 V2000
   -3.9000    7.1120   -3.3110 C   0  0  0  0  0  0  0  0  0  0  0  0
   -3.9150    7.2730   -1.7880 C   0  0  2  0  0  0  0  0  0  0  0  0
   -5.3360    7.1420   -1.2040 C   0  0  0  0  0  0  0  0  0  0  0  0
   -6.4470    7.3440   -2.2380 C   0  0  0  0  0  0  0  0  0  0  0  0
   -7.7840    7.5240   -1.5860 C   0  0  2  0  0  0  0  0  0  0  0  0
   -8.3670    6.3200   -1.0710 O   0  0  0  0  0  0  0  0  0  0  0  0
   -9.0730    6.9550   -2.1490 C   0  0  0  0  0  0  0  0  0  0  0  0
   -9.0870    6.1630   -3.4190 C   0  0  0  0  0  0  0  0  0  0  0  0
  -10.3710    7.5770   -1.7360 C   0  0  0  0  0  0  0  0  0  0  0  0
   -3.3160    8.6210   -1.4030 C   0  0  1  0  0  0  0  0  0  0  0  0
   -3.9070    9.1810   -0.0820 C   0  0  0  0  0  0  0  0  0  0  0  0
   -2.7580    9.9330    0.6390 C   0  0  0  0  0  0  0  0  0  0  0  0
   -1.6480   10.0660   -0.4300 C   0  0  1  0  0  0  0  0  0  0  0  0
   -2.0730   11.2910   -1.3000 C   0  0  0  0  0  0  0  0  0  0  0  0
   -0.1870   10.2170    0.1050 C   0  0  2  0  0  0  0  0  0  0  0  0
    0.0720   11.4790    0.9470 C   0  0  0  0  0  0  0  0  0  0  0  0
    0.5280   12.6750    0.1800 C   0  0  0  0  0  0  0  0  0  0  0  0
    0.9960   12.6630   -1.0820 C   0  0  0  0  0  0  0  0  0  0  0  0
    1.1940   11.3420   -1.8360 C   0  0  1  0  0  0  0  0  0  0  0  0
    2.5820   11.3430   -2.5280 C   0  0  0  0  0  0  0  0  0  0  0  0
    2.7890   12.5620   -3.4220 C   0  0  0  0  0  0  0  0  0  0  0  0
    2.6420   13.8550   -2.6240 C   0  0  2  0  0  0  0  0  0  0  0  0
    3.7180   13.9420   -1.6850 O   0  0  0  0  0  0  0  0  0  0  0  0
    1.2840   13.9620   -1.8750 C   0  0  0  0  0  0  0  0  0  0  0  0
    0.1400   14.1710   -2.8980 C   0  0  0  0  0  0  0  0  0  0  0  0
    1.3220   15.2420   -0.9980 C   0  0  0  0  0  0  0  0  0  0  0  0
    0.9310   10.0180   -0.9970 C   0  0  1  0  0  0  0  0  0  0  0  0
    2.2310    9.6010   -0.2420 C   0  0  0  0  0  0  0  0  0  0  0  0
    0.5940    8.8400   -1.9850 C   0  0  0  0  0  0  0  0  0  0  0  0
   -0.8840    8.6690   -2.3830 C   0  0  0  0  0  0  0  0  0  0  0  0
   -1.7890    8.6740   -1.1470 C   0  0  2  0  0  0  0  0  0  0  0  0
   -1.3990    7.4390   -0.2650 C   0  0  0  0  0  0  0  0  0  0  0  0
   -3.8007    6.0466   -3.5661 H   0  0  0  0  0  0  0  0  0  0  0  0
   -4.8385    7.5036   -3.7304 H   0  0  0  0  0  0  0  0  0  0  0  0
   -3.0500    7.6702   -3.7304 H   0  0  0  0  0  0  0  0  0  0  0  0
   -3.3076    6.4604   -1.3629 H   0  0  0  0  0  0  0  0  0  0  0  0
   -5.4425    6.1361   -0.7717 H   0  0  0  0  0  0  0  0  0  0  0  0
   -5.4489    7.9362   -0.4513 H   0  0  0  0  0  0  0  0  0  0  0  0
   -6.2188    8.2383   -2.8365 H   0  0  0  0  0  0  0  0  0  0  0  0
   -6.4926    6.4466   -2.8724 H   0  0  0  0  0  0  0  0  0  0  0  0
   -7.5087    8.5339   -1.2479 H   0  0  0  0  0  0  0  0  0  0  0  0
   -9.1060    5.0892   -3.1813 H   0  0  0  0  0  0  0  0  0  0  0  0
   -9.9807    6.4248   -4.0045 H   0  0  0  0  0  0  0  0  0  0  0  0
   -8.1846    6.3930   -4.0045 H   0  0  0  0  0  0  0  0  0  0  0  0
  -10.4309    7.6057   -0.6380 H   0  0  0  0  0  0  0  0  0  0  0  0
  -10.4297    8.6011   -2.1333 H   0  0  0  0  0  0  0  0  0  0  0  0
  -11.2059    6.9812   -2.1333 H   0  0  0  0  0  0  0  0  0  0  0  0
   -3.5662    9.1986   -2.3051 H   0  0  0  0  0  0  0  0  0  0  0  0
   -4.7340    9.8727   -0.3003 H   0  0  0  0  0  0  0  0  0  0  0  0
   -4.3049    8.3712    0.5472 H   0  0  0  0  0  0  0  0  0  0  0  0
   -3.0940   10.9249    0.9754 H   0  0  0  0  0  0  0  0  0  0  0  0
   -2.4107    9.4016    1.5373 H   0  0  0  0  0  0  0  0  0  0  0  0
   -2.3622   12.1246   -0.6431 H   0  0  0  0  0  0  0  0  0  0  0  0
   -1.2296   11.6001   -1.9349 H   0  0  0  0  0  0  0  0  0  0  0  0
   -2.9266   11.0113   -1.9349 H   0  0  0  0  0  0  0  0  0  0  0  0
   -0.1022    9.3700    0.8017 H   0  0  0  0  0  0  0  0  0  0  0  0
   -0.8638   11.7420    1.4618 H   0  0  0  0  0  0  0  0  0  0  0  0
    0.8949   11.2245    1.6311 H   0  0  0  0  0  0  0  0  0  0  0  0
    0.4774   13.6489    0.6890 H   0  0  0  0  0  0  0  0  0  0  0  0
    0.3989   11.3038   -2.5952 H   0  0  0  0  0  0  0  0  0  0  0  0
    3.3625   11.3375   -1.7529 H   0  0  0  0  0  0  0  0  0  0  0  0
    2.6381   10.4481   -3.1652 H   0  0  0  0  0  0  0  0  0  0  0  0
    3.7978   12.5211   -3.8586 H   0  0  0  0  0  0  0  0  0  0  0  0
    2.0262   12.5498   -4.2145 H   0  0  0  0  0  0  0  0  0  0  0  0
    2.6713   14.6896   -3.3399 H   0  0  0  0  0  0  0  0  0  0  0  0
    4.3110   14.6530   -1.9820 H   0  0  0  0  0  0  0  0  0  0  0  0
   -0.8047   14.3436   -2.3615 H   0  0  0  0  0  0  0  0  0  0  0  0
    0.3675   15.0424   -3.5295 H   0  0  0  0  0  0  0  0  0  0  0  0
    0.0447   13.2754   -3.5295 H   0  0  0  0  0  0  0  0  0  0  0  0
    1.3136   14.9586    0.0648 H   0  0  0  0  0  0  0  0  0  0  0  0
    2.2374   15.8106   -1.2186 H   0  0  0  0  0  0  0  0  0  0  0  0
    0.4419   15.8639   -1.2186 H   0  0  0  0  0  0  0  0  0  0  0  0
    2.0586    9.6563    0.8430 H   0  0  0  0  0  0  0  0  0  0  0  0
    2.5012    8.5711   -0.5183 H   0  0  0  0  0  0  0  0  0  0  0  0
    3.0498   10.2816   -0.5183 H   0  0  0  0  0  0  0  0  0  0  0  0
    1.1702    9.0042   -2.9075 H   0  0  0  0  0  0  0  0  0  0  0  0
    0.8527    7.9219   -1.4372 H   0  0  0  0  0  0  0  0  0  0  0  0
   -1.1761    9.4966   -3.0462 H   0  0  0  0  0  0  0  0  0  0  0  0
   -0.9991    7.7038   -2.8979 H   0  0  0  0  0  0  0  0  0  0  0  0
   -1.4835    7.7067    0.7986 H   0  0  0  0  0  0  0  0  0  0  0  0
   -2.0763    6.6012   -0.4872 H   0  0  0  0  0  0  0  0  0  0  0  0
   -0.3634    7.1421   -0.4872 H   0  0  0  0  0  0  0  0  0  0  0  0
  1  2  1  0
  2  3  1  0
  3  4  1  0
  4  5  1  0
  5  6  1  0
  6  7  1  0
  7  8  1  0
  7  9  1  0
  2 10  1  0
 10 11  1  0
 11 12  1  0
 12 13  1  0
 13 14  1  6
 13 15  1  0
 15 16  1  0
 16 17  1  0
 17 18  2  0
 18 19  1  0
 19 20  1  0
 20 21  1  0
 21 22  1  0
 22 23  1  0
 22 24  1  0
 24 25  1  0
 24 26  1  0
 19 27  1  0
 27 28  1  1
 27 29  1  0
 29 30  1  0
 30 31  1  0
 31 32  1  1
  7  5  1  0
 31 10  1  0
 31 13  1  0
 27 15  1  0
 24 18  1  0
  1 33  1  0
  1 34  1  0
  1 35  1  0
  2 36  1  1
  3 37  1  0
  3 38  1  0
  4 39  1  0
  4 40  1  0
  5 41  1  1
  8 42  1  0
  8 43  1  0
  8 44  1  0
  9 45  1  0
  9 46  1  0
  9 47  1  0
 10 48  1  6
 11 49  1  0
 11 50  1  0
 12 51  1  0
 12 52  1  0
 14 53  1  0
 14 54  1  0
 14 55  1  0
 15 56  1  1
 16 57  1  0
 16 58  1  0
 17 59  1  0
 19 60  1  6
 20 61  1  0
 20 62  1  0
 21 63  1  0
 21 64  1  0
 22 65  1  6
 23 66  1  0
 25 67  1  0
 25 68  1  0
 25 69  1  0
 26 70  1  0
 26 71  1  0
 26 72  1  0
 28 73  1  0
 28 74  1  0
 28 75  1  0
 29 76  1  0
 29 77  1  0
 30 78  1  0
 30 79  1  0
 32 80  1  0
 32 81  1  0
 32 82  1  0
M  END
>  <meeko>  (6) 
{"is_sidechain": [false], "intermolecular_energy": 2.731, "internal_energy": -0.839}

$$$$
EPH_relaxed_0001_pdb2pqr_Repair_195_r2_0001_out
     RDKit          3D

 82 86  0  0  0  0  0  0  0  0999 V2000
   -2.2910    7.8490   -2.1270 C   0  0  0  0  0  0  0  0  0  0  0  0
   -2.2300    8.4560   -0.7230 C   0  0  2  0  0  0  0  0  0  0  0  0
   -3.6040    8.4400   -0.0230 C   0  0  0  0  0  0  0  0  0  0  0  0
   -4.7880    8.5410   -0.9880 C   0  0  0  0  0  0  0  0  0  0  0  0
   -5.5320    7.2440   -1.0910 C   0  0  2  0  0  0  0  0  0  0  0  0
   -5.6730    6.7390   -2.4250 O   0  0  0  0  0  0  0  0  0  0  0  0
   -6.8890    7.1080   -1.7550 C   0  0  0  0  0  0  0  0  0  0  0  0
   -7.5830    8.2880   -2.3590 C   0  0  0  0  0  0  0  0  0  0  0  0
   -7.7530    5.9420   -1.3860 C   0  0  0  0  0  0  0  0  0  0  0  0
   -1.7000    9.8840   -0.7970 C   0  0  1  0  0  0  0  0  0  0  0  0
   -1.2610   10.4310    0.5880 C   0  0  0  0  0  0  0  0  0  0  0  0
   -0.0380   11.3500    0.3380 C   0  0  0  0  0  0  0  0  0  0  0  0
   -0.0180   11.5650   -1.1930 C   0  0  1  0  0  0  0  0  0  0  0  0
   -1.0720   12.6870   -1.4540 C   0  0  0  0  0  0  0  0  0  0  0  0
    1.3680   11.9190   -1.8230 C   0  0  2  0  0  0  0  0  0  0  0  0
    1.9870   13.2410   -1.3380 C   0  0  0  0  0  0  0  0  0  0  0  0
    1.6300   14.4460   -2.1430 C   0  0  0  0  0  0  0  0  0  0  0  0
    1.0790   14.4310   -3.3720 C   0  0  0  0  0  0  0  0  0  0  0  0
    0.8500   13.1090   -4.1160 C   0  0  1  0  0  0  0  0  0  0  0  0
    1.3460   13.2460   -5.5790 C   0  0  0  0  0  0  0  0  0  0  0  0
    0.7210   14.4370   -6.3000 C   0  0  0  0  0  0  0  0  0  0  0  0
    1.0190   15.7390   -5.5610 C   0  0  2  0  0  0  0  0  0  0  0  0
    2.4240   16.0010   -5.6370 O   0  0  0  0  0  0  0  0  0  0  0  0
    0.5720   15.7160   -4.0720 C   0  0  0  0  0  0  0  0  0  0  0  0
   -0.9740   15.7350   -3.9930 C   0  0  0  0  0  0  0  0  0  0  0  0
    1.0580   17.0320   -3.4070 C   0  0  0  0  0  0  0  0  0  0  0  0
    1.4110   11.8050   -3.4010 C   0  0  1  0  0  0  0  0  0  0  0  0
    2.9050   11.5850   -3.7910 C   0  0  0  0  0  0  0  0  0  0  0  0
    0.6240   10.5490   -3.9320 C   0  0  0  0  0  0  0  0  0  0  0  0
   -0.6760   10.1800   -3.1920 C   0  0  0  0  0  0  0  0  0  0  0  0
   -0.4510   10.1340   -1.6780 C   0  0  2  0  0  0  0  0  0  0  0  0
    0.5890    9.0000   -1.3830 C   0  0  0  0  0  0  0  0  0  0  0  0
   -2.4007    6.7572   -2.0500 H   0  0  0  0  0  0  0  0  0  0  0  0
   -3.1517    8.2666   -2.6699 H   0  0  0  0  0  0  0  0  0  0  0  0
   -1.3644    8.0870   -2.6699 H   0  0  0  0  0  0  0  0  0  0  0  0
   -1.5470    7.8360   -0.1238 H   0  0  0  0  0  0  0  0  0  0  0  0
   -3.6952    7.5002    0.5413 H   0  0  0  0  0  0  0  0  0  0  0  0
   -3.6434    9.3261    0.6277 H   0  0  0  0  0  0  0  0  0  0  0  0
   -5.4766    9.3192   -0.6270 H   0  0  0  0  0  0  0  0  0  0  0  0
   -4.3970    8.7919   -1.9851 H   0  0  0  0  0  0  0  0  0  0  0  0
   -5.1564    6.9238   -0.1080 H   0  0  0  0  0  0  0  0  0  0  0  0
   -7.9653    8.9380   -1.5582 H   0  0  0  0  0  0  0  0  0  0  0  0
   -6.8728    8.8521   -2.9814 H   0  0  0  0  0  0  0  0  0  0  0  0
   -8.4211    7.9414   -2.9814 H   0  0  0  0  0  0  0  0  0  0  0  0
   -7.8124    5.8618   -0.2905 H   0  0  0  0  0  0  0  0  0  0  0  0
   -8.7623    6.0885   -1.7982 H   0  0  0  0  0  0  0  0  0  0  0  0
   -7.3190    5.0191   -1.7982 H   0  0  0  0  0  0  0  0  0  0  0  0
   -2.5762   10.3833   -1.2363 H   0  0  0  0  0  0  0  0  0  0  0  0
   -2.0798   11.0059    1.0452 H   0  0  0  0  0  0  0  0  0  0  0  0
   -1.0048    9.6101    1.2740 H   0  0  0  0  0  0  0  0  0  0  0  0
   -0.1590   12.3089    0.8632 H   0  0  0  0  0  0  0  0  0  0  0  0
    0.8985   10.9083    0.7094 H   0  0  0  0  0  0  0  0  0  0  0  0
   -1.4382   13.0768   -0.4928 H   0  0  0  0  0  0  0  0  0  0  0  0
   -0.6056   13.5022   -2.0265 H   0  0  0  0  0  0  0  0  0  0  0  0
   -1.9148   12.2724   -2.0265 H   0  0  0  0  0  0  0  0  0  0  0  0
    2.0165   11.1233   -1.4277 H   0  0  0  0  0  0  0  0  0  0  0  0
    1.6543   13.4126   -0.3036 H   0  0  0  0  0  0  0  0  0  0  0  0
    3.0760   13.1211   -1.4368 H   0  0  0  0  0  0  0  0  0  0  0  0
    1.8341   15.4296   -1.6947 H   0  0  0  0  0  0  0  0  0  0  0  0
   -0.2365   12.9377   -4.1047 H   0  0  0  0  0  0  0  0  0  0  0  0
    2.4386   13.3728   -5.5704 H   0  0  0  0  0  0  0  0  0  0  0  0
    1.0482   12.3351   -6.1191 H   0  0  0  0  0  0  0  0  0  0  0  0
    1.1330   14.4983   -7.3181 H   0  0  0  0  0  0  0  0  0  0  0  0
   -0.3691   14.2942   -6.3346 H   0  0  0  0  0  0  0  0  0  0  0  0
    0.4387   16.5353   -6.0500 H   0  0  0  0  0  0  0  0  0  0  0  0
    2.5360   16.9230   -5.9270 H   0  0  0  0  0  0  0  0  0  0  0  0
   -1.2872   15.7388   -2.9385 H   0  0  0  0  0  0  0  0  0  0  0  0
   -1.3556   16.6379   -4.4922 H   0  0  0  0  0  0  0  0  0  0  0  0
   -1.3777   14.8417   -4.4922 H   0  0  0  0  0  0  0  0  0  0  0  0
    1.0189   16.9261   -2.3128 H   0  0  0  0  0  0  0  0  0  0  0  0
    2.0923   17.2400   -3.7185 H   0  0  0  0  0  0  0  0  0  0  0  0
    0.4072   17.8623   -3.7185 H   0  0  0  0  0  0  0  0  0  0  0  0
    3.5128   11.4955   -2.8785 H   0  0  0  0  0  0  0  0  0  0  0  0
    2.9971   10.6636   -4.3848 H   0  0  0  0  0  0  0  0  0  0  0  0
    3.2588   12.4407   -4.3848 H   0  0  0  0  0  0  0  0  0  0  0  0
    0.3656   10.7386   -4.9843 H   0  0  0  0  0  0  0  0  0  0  0  0
    1.2996    9.6962   -3.7697 H   0  0  0  0  0  0  0  0  0  0  0  0
   -1.4452   10.9330   -3.4187 H   0  0  0  0  0  0  0  0  0  0  0  0
   -1.0006    9.1844   -3.5287 H   0  0  0  0  0  0  0  0  0  0  0  0
    0.7004    8.8785   -0.2954 H   0  0  0  0  0  0  0  0  0  0  0  0
    0.2365    8.0556   -1.8232 H   0  0  0  0  0  0  0  0  0  0  0  0
    1.5603    9.2697   -1.8232 H   0  0  0  0  0  0  0  0  0  0  0  0
  1  2  1  0
  2  3  1  0
  3  4  1  0
  4  5  1  0
  5  6  1  0
  6  7  1  0
  7  8  1  0
  7  9  1  0
  2 10  1  0
 10 11  1  0
 11 12  1  0
 12 13  1  0
 13 14  1  1
 13 15  1  0
 15 16  1  0
 16 17  1  0
 17 18  2  0
 18 19  1  0
 19 20  1  0
 20 21  1  0
 21 22  1  0
 22 23  1  0
 22 24  1  0
 24 25  1  0
 24 26  1  0
 19 27  1  0
 27 28  1  6
 27 29  1  0
 29 30  1  0
 30 31  1  0
 31 32  1  6
  7  5  1  0
 31 10  1  0
 31 13  1  0
 27 15  1  0
 24 18  1  0
  1 33  1  0
  1 34  1  0
  1 35  1  0
  2 36  1  1
  3 37  1  0
  3 38  1  0
  4 39  1  0
  4 40  1  0
  5 41  1  1
  8 42  1  0
  8 43  1  0
  8 44  1  0
  9 45  1  0
  9 46  1  0
  9 47  1  0
 10 48  1  6
 11 49  1  0
 11 50  1  0
 12 51  1  0
 12 52  1  0
 14 53  1  0
 14 54  1  0
 14 55  1  0
 15 56  1  1
 16 57  1  0
 16 58  1  0
 17 59  1  0
 19 60  1  6
 20 61  1  0
 20 62  1  0
 21 63  1  0
 21 64  1  0
 22 65  1  6
 23 66  1  0
 25 67  1  0
 25 68  1  0
 25 69  1  0
 26 70  1  0
 26 71  1  0
 26 72  1  0
 28 73  1  0
 28 74  1  0
 28 75  1  0
 29 76  1  0
 29 77  1  0
 30 78  1  0
 30 79  1  0
 32 80  1  0
 32 81  1  0
 32 82  1  0
M  END
>  <meeko>  (7) 
{"is_sidechain": [false], "intermolecular_energy": 2.731, "internal_energy": -0.839}

$$$$
EPH_relaxed_0001_pdb2pqr_Repair_195_r2_0001_out
     RDKit          3D

 82 86  0  0  0  0  0  0  0  0999 V2000
    1.3850   18.7510   -2.4160 C   0  0  0  0  0  0  0  0  0  0  0  0
    1.6470   17.6310   -1.4050 C   0  0  2  0  0  0  0  0  0  0  0  0
    3.1460   17.4870   -1.0750 C   0  0  0  0  0  0  0  0  0  0  0  0
    3.7550   18.7300   -0.4210 C   0  0  0  0  0  0  0  0  0  0  0  0
    5.0490   18.4170    0.2680 C   0  0  2  0  0  0  0  0  0  0  0  0
    4.9080   17.8200    1.5630 O   0  0  0  0  0  0  0  0  0  0  0  0
    5.5180   19.1200    1.5270 C   0  0  0  0  0  0  0  0  0  0  0  0
    4.6990   20.1940    2.1720 C   0  0  0  0  0  0  0  0  0  0  0  0
    6.9800   19.1100    1.8510 C   0  0  0  0  0  0  0  0  0  0  0  0
    1.1010   16.3120   -1.9380 C   0  0  1  0  0  0  0  0  0  0  0  0
    1.1910   16.2090   -3.4840 C   0  0  0  0  0  0  0  0  0  0  0  0
    1.4840   14.7230   -3.8180 C   0  0  0  0  0  0  0  0  0  0  0  0
    1.2250   13.9680   -2.4930 C   0  0  1  0  0  0  0  0  0  0  0  0
   -0.3230   13.7800   -2.4340 C   0  0  0  0  0  0  0  0  0  0  0  0
    1.9790   12.6100   -2.3130 C   0  0  2  0  0  0  0  0  0  0  0  0
    1.6170   11.5230   -3.3400 C   0  0  0  0  0  0  0  0  0  0  0  0
    0.4890   10.6260   -2.9490 C   0  0  0  0  0  0  0  0  0  0  0  0
   -0.0200   10.5050   -1.7090 C   0  0  0  0  0  0  0  0  0  0  0  0
    0.6120   11.2440   -0.5220 C   0  0  1  0  0  0  0  0  0  0  0  0
    0.7680   10.2670    0.6730 C   0  0  0  0  0  0  0  0  0  0  0  0
   -0.5440    9.5830    1.0440 C   0  0  0  0  0  0  0  0  0  0  0  0
   -1.1110    8.8100   -0.1450 C   0  0  2  0  0  0  0  0  0  0  0  0
   -0.2360    7.7180   -0.4440 O   0  0  0  0  0  0  0  0  0  0  0  0
   -1.3020    9.6900   -1.4120 C   0  0  0  0  0  0  0  0  0  0  0  0
   -2.4680   10.6840   -1.1840 C   0  0  0  0  0  0  0  0  0  0  0  0
   -1.7450    8.7610   -2.5750 C   0  0  0  0  0  0  0  0  0  0  0  0
    1.9500   12.0430   -0.8360 C   0  0  1  0  0  0  0  0  0  0  0  0
    3.1810   11.0950   -0.6990 C   0  0  0  0  0  0  0  0  0  0  0  0
    2.1380   13.1740    0.2430 C   0  0  0  0  0  0  0  0  0  0  0  0
    1.4690   14.5310   -0.0490 C   0  0  0  0  0  0  0  0  0  0  0  0
    1.7980   15.0110   -1.4660 C   0  0  2  0  0  0  0  0  0  0  0  0
    3.3470   15.2300   -1.5490 C   0  0  0  0  0  0  0  0  0  0  0  0
    1.1663   19.6858   -1.8791 H   0  0  0  0  0  0  0  0  0  0  0  0
    2.2748   18.8904   -3.0476 H   0  0  0  0  0  0  0  0  0  0  0  0
    0.5257   18.4813   -3.0476 H   0  0  0  0  0  0  0  0  0  0  0  0
    1.1280   17.8977   -0.4725 H   0  0  0  0  0  0  0  0  0  0  0  0
    3.2701   16.6371   -0.3878 H   0  0  0  0  0  0  0  0  0  0  0  0
    3.6719   17.3359   -2.0293 H   0  0  0  0  0  0  0  0  0  0  0  0
    3.9387   19.4874   -1.1973 H   0  0  0  0  0  0  0  0  0  0  0  0
    3.0464   19.1023    0.3335 H   0  0  0  0  0  0  0  0  0  0  0  0
    5.5424   18.2235   -0.6959 H   0  0  0  0  0  0  0  0  0  0  0  0
    4.7694   20.1017    3.2659 H   0  0  0  0  0  0  0  0  0  0  0  0
    5.0770   21.1794    1.8621 H   0  0  0  0  0  0  0  0  0  0  0  0
    3.6487   20.0902    1.8621 H   0  0  0  0  0  0  0  0  0  0  0  0
    7.1136   19.1091    2.9429 H   0  0  0  0  0  0  0  0  0  0  0  0
    7.4440   18.2087    1.4241 H   0  0  0  0  0  0  0  0  0  0  0  0
    7.4563   20.0049    1.4241 H   0  0  0  0  0  0  0  0  0  0  0  0
    0.0787   16.3596   -1.5347 H   0  0  0  0  0  0  0  0  0  0  0  0
    0.2393   16.5191   -3.9402 H   0  0  0  0  0  0  0  0  0  0  0  0
    1.9811   16.8652   -3.8779 H   0  0  0  0  0  0  0  0  0  0  0  0
    0.8099   14.3623   -4.6088 H   0  0  0  0  0  0  0  0  0  0  0  0
    2.5079   14.5729   -4.1909 H   0  0  0  0  0  0  0  0  0  0  0  0
   -0.6478   13.7406   -1.3838 H   0  0  0  0  0  0  0  0  0  0  0  0
   -0.8145   14.6251   -2.9383 H   0  0  0  0  0  0  0  0  0  0  0  0
   -0.5979   12.8419   -2.9383 H   0  0  0  0  0  0  0  0  0  0  0  0
    3.0216   12.8882   -2.5267 H   0  0  0  0  0  0  0  0  0  0  0  0
    1.3436   12.0223   -4.2812 H   0  0  0  0  0  0  0  0  0  0  0  0
    2.5036   10.8774   -3.4250 H   0  0  0  0  0  0  0  0  0  0  0  0
    0.0358   10.0123   -3.7414 H   0  0  0  0  0  0  0  0  0  0  0  0
   -0.0892   12.0489   -0.2565 H   0  0  0  0  0  0  0  0  0  0  0  0
    1.5042    9.4953    0.4038 H   0  0  0  0  0  0  0  0  0  0  0  0
    1.0966   10.8538    1.5435 H   0  0  0  0  0  0  0  0  0  0  0  0
   -0.3638    8.8847    1.8746 H   0  0  0  0  0  0  0  0  0  0  0  0
   -1.2705   10.3538    1.3407 H   0  0  0  0  0  0  0  0  0  0  0  0
   -2.1107    8.4506    0.1405 H   0  0  0  0  0  0  0  0  0  0  0  0
    0.2320    7.9340   -1.2680 H   0  0  0  0  0  0  0  0  0  0  0  0
   -2.6278   10.8203   -0.1042 H   0  0  0  0  0  0  0  0  0  0  0  0
   -2.2194   11.6523   -1.6429 H   0  0  0  0  0  0  0  0  0  0  0  0
   -3.3847   10.2853   -1.6429 H   0  0  0  0  0  0  0  0  0  0  0  0
   -2.1839    7.8406   -2.1623 H   0  0  0  0  0  0  0  0  0  0  0  0
   -2.4931    9.2788   -3.1932 H   0  0  0  0  0  0  0  0  0  0  0  0
   -0.8718    8.5056   -3.1932 H   0  0  0  0  0  0  0  0  0  0  0  0
    3.3982   10.9277    0.3663 H   0  0  0  0  0  0  0  0  0  0  0  0
    2.9585   10.1328   -1.1833 H   0  0  0  0  0  0  0  0  0  0  0  0
    4.0545   11.5559   -1.1833 H   0  0  0  0  0  0  0  0  0  0  0  0
    1.7292   12.7990    1.1929 H   0  0  0  0  0  0  0  0  0  0  0  0
    3.2180   13.3825    0.2562 H   0  0  0  0  0  0  0  0  0  0  0  0
    0.3788   14.4235    0.0504 H   0  0  0  0  0  0  0  0  0  0  0  0
    1.8501   15.2717    0.6695 H   0  0  0  0  0  0  0  0  0  0  0  0
    3.7639   15.2889   -0.5328 H   0  0  0  0  0  0  0  0  0  0  0  0
    3.8081   14.3881   -2.0862 H   0  0  0  0  0  0  0  0  0  0  0  0
    3.5566   16.1667   -2.0862 H   0  0  0  0  0  0  0  0  0  0  0  0
  1  2  1  0
  2  3  1  0
  3  4  1  0
  4  5  1  0
  5  6  1  0
  6  7  1  0
  7  8  1  0
  7  9  1  0
  2 10  1  0
 10 11  1  0
 11 12  1  0
 12 13  1  0
 13 14  1  1
 13 15  1  0
 15 16  1  0
 16 17  1  0
 17 18  2  0
 18 19  1  0
 19 20  1  0
 20 21  1  0
 21 22  1  0
 22 23  1  0
 22 24  1  0
 24 25  1  0
 24 26  1  0
 19 27  1  0
 27 28  1  6
 27 29  1  0
 29 30  1  0
 30 31  1  0
 31 32  1  1
  7  5  1  0
 31 10  1  0
 31 13  1  0
 27 15  1  0
 24 18  1  0
  1 33  1  0
  1 34  1  0
  1 35  1  0
  2 36  1  1
  3 37  1  0
  3 38  1  0
  4 39  1  0
  4 40  1  0
  5 41  1  6
  8 42  1  0
  8 43  1  0
  8 44  1  0
  9 45  1  0
  9 46  1  0
  9 47  1  0
 10 48  1  6
 11 49  1  0
 11 50  1  0
 12 51  1  0
 12 52  1  0
 14 53  1  0
 14 54  1  0
 14 55  1  0
 15 56  1  6
 16 57  1  0
 16 58  1  0
 17 59  1  0
 19 60  1  1
 20 61  1  0
 20 62  1  0
 21 63  1  0
 21 64  1  0
 22 65  1  1
 23 66  1  0
 25 67  1  0
 25 68  1  0
 25 69  1  0
 26 70  1  0
 26 71  1  0
 26 72  1  0
 28 73  1  0
 28 74  1  0
 28 75  1  0
 29 76  1  0
 29 77  1  0
 30 78  1  0
 30 79  1  0
 32 80  1  0
 32 81  1  0
 32 82  1  0
M  END
>  <meeko>  (8) 
{"is_sidechain": [false], "intermolecular_energy": 2.731, "internal_energy": -0.839}

$$$$
EPH_relaxed_0001_pdb2pqr_Repair_195_r2_0001_out
     RDKit          3D

 82 86  0  0  0  0  0  0  0  0999 V2000
    3.0200   18.3200   -2.4370 C   0  0  0  0  0  0  0  0  0  0  0  0
    2.8680   17.8360   -0.9920 C   0  0  2  0  0  0  0  0  0  0  0  0
    4.1930   17.2920   -0.4200 C   0  0  0  0  0  0  0  0  0  0  0  0
    5.1220   18.3800    0.1240 C   0  0  0  0  0  0  0  0  0  0  0  0
    4.8710   18.6480    1.5770 C   0  0  2  0  0  0  0  0  0  0  0  0
    5.1560   19.9890    1.9970 O   0  0  0  0  0  0  0  0  0  0  0  0
    5.9720   18.9570    2.5740 C   0  0  0  0  0  0  0  0  0  0  0  0
    7.4090   19.0130    2.1570 C   0  0  0  0  0  0  0  0  0  0  0  0
    5.7080   18.7220    4.0280 C   0  0  0  0  0  0  0  0  0  0  0  0
    1.7870   16.7640   -0.9130 C   0  0  1  0  0  0  0  0  0  0  0  0
    0.4110   17.2650   -1.4260 C   0  0  0  0  0  0  0  0  0  0  0  0
   -0.2740   16.0600   -2.1200 C   0  0  0  0  0  0  0  0  0  0  0  0
    0.5710   14.8350   -1.6980 C   0  0  1  0  0  0  0  0  0  0  0  0
    0.0580   14.4670   -0.2700 C   0  0  0  0  0  0  0  0  0  0  0  0
    0.5330   13.6040   -2.6610 C   0  0  2  0  0  0  0  0  0  0  0  0
   -0.8500   12.9530   -2.8330 C   0  0  0  0  0  0  0  0  0  0  0  0
   -1.1630   11.8550   -1.8710 C   0  0  0  0  0  0  0  0  0  0  0  0
   -0.2680   11.2170   -1.0950 C   0  0  0  0  0  0  0  0  0  0  0  0
    1.2320   11.5180   -1.2120 C   0  0  1  0  0  0  0  0  0  0  0  0
    2.0250   10.1850   -1.2620 C   0  0  0  0  0  0  0  0  0  0  0  0
    1.7040    9.2690   -0.0850 C   0  0  0  0  0  0  0  0  0  0  0  0
    0.2130    8.9460   -0.0370 C   0  0  2  0  0  0  0  0  0  0  0  0
   -0.1250    8.1540   -1.1800 O   0  0  0  0  0  0  0  0  0  0  0  0
   -0.6880   10.2120    0.0060 C   0  0  0  0  0  0  0  0  0  0  0  0
   -0.5410   10.9080    1.3820 C   0  0  0  0  0  0  0  0  0  0  0  0
   -2.1670    9.7500   -0.0910 C   0  0  0  0  0  0  0  0  0  0  0  0
    1.6500   12.5200   -2.3720 C   0  0  1  0  0  0  0  0  0  0  0  0
    1.8630   11.7360   -3.7020 C   0  0  0  0  0  0  0  0  0  0  0  0
    3.0370   13.1720   -2.0130 C   0  0  0  0  0  0  0  0  0  0  0  0
    3.0030   14.4540   -1.1590 C   0  0  0  0  0  0  0  0  0  0  0  0
    2.0100   15.4690   -1.7330 C   0  0  2  0  0  0  0  0  0  0  0  0
    2.5120   15.8750   -3.1610 C   0  0  0  0  0  0  0  0  0  0  0  0
    3.3496   19.3695   -2.4394 H   0  0  0  0  0  0  0  0  0  0  0  0
    3.7667   17.7000   -2.9547 H   0  0  0  0  0  0  0  0  0  0  0  0
    2.0529   18.2382   -2.9547 H   0  0  0  0  0  0  0  0  0  0  0  0
    2.5759   18.7032   -0.3815 H   0  0  0  0  0  0  0  0  0  0  0  0
    3.9578   16.5954    0.3982 H   0  0  0  0  0  0  0  0  0  0  0  0
    4.7237   16.8019   -1.2496 H   0  0  0  0  0  0  0  0  0  0  0  0
    6.1650   18.0546   -0.0034 H   0  0  0  0  0  0  0  0  0  0  0  0
    4.9273   19.3076   -0.4343 H   0  0  0  0  0  0  0  0  0  0  0  0
    4.0450   17.9217    1.5917 H   0  0  0  0  0  0  0  0  0  0  0  0
    8.0495   19.0380    3.0509 H   0  0  0  0  0  0  0  0  0  0  0  0
    7.6516   18.1236    1.5569 H   0  0  0  0  0  0  0  0  0  0  0  0
    7.5816   19.9186    1.5569 H   0  0  0  0  0  0  0  0  0  0  0  0
    6.3960   19.3345    4.6293 H   0  0  0  0  0  0  0  0  0  0  0  0
    4.6698   19.0003    4.2618 H   0  0  0  0  0  0  0  0  0  0  0  0
    5.8641   17.6585    4.2618 H   0  0  0  0  0  0  0  0  0  0  0  0
    1.8268   16.5397    0.1632 H   0  0  0  0  0  0  0  0  0  0  0  0
   -0.2027   17.6155   -0.5831 H   0  0  0  0  0  0  0  0  0  0  0  0
    0.5326   18.1060   -2.1246 H   0  0  0  0  0  0  0  0  0  0  0  0
   -1.3130   15.9525   -1.7752 H   0  0  0  0  0  0  0  0  0  0  0  0
   -0.3201   16.1787   -3.2126 H   0  0  0  0  0  0  0  0  0  0  0  0
    0.7083   14.9335    0.4847 H   0  0  0  0  0  0  0  0  0  0  0  0
   -0.9714   14.8339   -0.1443 H   0  0  0  0  0  0  0  0  0  0  0  0
    0.0757   13.3743   -0.1443 H   0  0  0  0  0  0  0  0  0  0  0  0
    0.7727   14.0581   -3.6338 H   0  0  0  0  0  0  0  0  0  0  0  0
   -1.6119   13.7373   -2.7130 H   0  0  0  0  0  0  0  0  0  0  0  0
   -0.8463   12.4907   -3.8311 H   0  0  0  0  0  0  0  0  0  0  0  0
   -2.2141   11.5411   -1.7898 H   0  0  0  0  0  0  0  0  0  0  0  0
    1.5010   12.0792   -0.3050 H   0  0  0  0  0  0  0  0  0  0  0  0
    1.7743    9.6604   -2.1958 H   0  0  0  0  0  0  0  0  0  0  0  0
    3.0958   10.4314   -1.2111 H   0  0  0  0  0  0  0  0  0  0  0  0
    2.2720    8.3331   -0.1917 H   0  0  0  0  0  0  0  0  0  0  0  0
    1.9823    9.7833    0.8467 H   0  0  0  0  0  0  0  0  0  0  0  0
    0.0256    8.3960    0.8970 H   0  0  0  0  0  0  0  0  0  0  0  0
    0.6940    7.9920   -1.6780 H   0  0  0  0  0  0  0  0  0  0  0  0
   -0.6966   10.1714    2.1840 H   0  0  0  0  0  0  0  0  0  0  0  0
    0.4677   11.3378    1.4696 H   0  0  0  0  0  0  0  0  0  0  0  0
   -1.2898   11.7090    1.4696 H   0  0  0  0  0  0  0  0  0  0  0  0
   -2.5782    9.6216    0.9212 H   0  0  0  0  0  0  0  0  0  0  0  0
   -2.7532   10.5078   -0.6314 H   0  0  0  0  0  0  0  0  0  0  0  0
   -2.2176    8.7933   -0.6314 H   0  0  0  0  0  0  0  0  0  0  0  0
    2.1452   10.6975   -3.4743 H   0  0  0  0  0  0  0  0  0  0  0  0
    0.9304   11.7431   -4.2852 H   0  0  0  0  0  0  0  0  0  0  0  0
    2.6638   12.2141   -4.2852 H   0  0  0  0  0  0  0  0  0  0  0  0
    3.6248   12.4219   -1.4636 H   0  0  0  0  0  0  0  0  0  0  0  0
    3.4677   13.4803   -2.9771 H   0  0  0  0  0  0  0  0  0  0  0  0
    2.7007   14.1953   -0.1335 H   0  0  0  0  0  0  0  0  0  0  0  0
    4.0065   14.9045   -1.1626 H   0  0  0  0  0  0  0  0  0  0  0  0
    3.3642   16.5642   -3.0678 H   0  0  0  0  0  0  0  0  0  0  0  0
    2.8269   14.9745   -3.7087 H   0  0  0  0  0  0  0  0  0  0  0  0
    1.6973   16.3712   -3.7087 H   0  0  0  0  0  0  0  0  0  0  0  0
  1  2  1  0
  2  3  1  0
  3  4  1  0
  4  5  1  0
  5  6  1  0
  6  7  1  0
  7  8  1  0
  7  9  1  0
  2 10  1  0
 10 11  1  0
 11 12  1  0
 12 13  1  0
 13 14  1  1
 13 15  1  0
 15 16  1  0
 16 17  1  0
 17 18  2  0
 18 19  1  0
 19 20  1  0
 20 21  1  0
 21 22  1  0
 22 23  1  0
 22 24  1  0
 24 25  1  0
 24 26  1  0
 19 27  1  0
 27 28  1  6
 27 29  1  0
 29 30  1  0
 30 31  1  0
 31 32  1  6
  7  5  1  0
 31 10  1  0
 31 13  1  0
 27 15  1  0
 24 18  1  0
  1 33  1  0
  1 34  1  0
  1 35  1  0
  2 36  1  1
  3 37  1  0
  3 38  1  0
  4 39  1  0
  4 40  1  0
  5 41  1  1
  8 42  1  0
  8 43  1  0
  8 44  1  0
  9 45  1  0
  9 46  1  0
  9 47  1  0
 10 48  1  1
 11 49  1  0
 11 50  1  0
 12 51  1  0
 12 52  1  0
 14 53  1  0
 14 54  1  0
 14 55  1  0
 15 56  1  6
 16 57  1  0
 16 58  1  0
 17 59  1  0
 19 60  1  1
 20 61  1  0
 20 62  1  0
 21 63  1  0
 21 64  1  0
 22 65  1  1
 23 66  1  0
 25 67  1  0
 25 68  1  0
 25 69  1  0
 26 70  1  0
 26 71  1  0
 26 72  1  0
 28 73  1  0
 28 74  1  0
 28 75  1  0
 29 76  1  0
 29 77  1  0
 30 78  1  0
 30 79  1  0
 32 80  1  0
 32 81  1  0
 32 82  1  0
M  END
>  <meeko>  (9) 
{"is_sidechain": [false], "intermolecular_energy": 2.731, "internal_energy": -0.839}

$$$$
EPH_relaxed_0001_pdb2pqr_Repair_195_r2_0001_out
     RDKit          3D

 82 86  0  0  0  0  0  0  0  0999 V2000
    3.0940   14.8420   -7.5650 C   0  0  0  0  0  0  0  0  0  0  0  0
    1.5710   14.8690   -7.4140 C   0  0  2  0  0  0  0  0  0  0  0  0
    0.9390   16.0890   -8.1130 C   0  0  0  0  0  0  0  0  0  0  0  0
    1.8720   16.7750   -9.1150 C   0  0  0  0  0  0  0  0  0  0  0  0
    1.5640   16.3720  -10.5250 C   0  0  2  0  0  0  0  0  0  0  0  0
    1.0030   15.0600  -10.6640 O   0  0  0  0  0  0  0  0  0  0  0  0
    2.2950   15.2630  -11.2570 C   0  0  0  0  0  0  0  0  0  0  0  0
    3.3940   14.4870  -10.6000 C   0  0  0  0  0  0  0  0  0  0  0  0
    2.2790   15.2610  -12.7540 C   0  0  0  0  0  0  0  0  0  0  0  0
    1.1950   14.8620   -5.9370 C   0  0  1  0  0  0  0  0  0  0  0  0
   -0.0590   15.7260   -5.6350 C   0  0  0  0  0  0  0  0  0  0  0  0
   -0.8310   15.0130   -4.4960 C   0  0  0  0  0  0  0  0  0  0  0  0
    0.1610   13.9550   -3.9560 C   0  0  1  0  0  0  0  0  0  0  0  0
    1.1040   14.7440   -2.9940 C   0  0  0  0  0  0  0  0  0  0  0  0
   -0.4720   12.7110   -3.2520 C   0  0  2  0  0  0  0  0  0  0  0  0
   -1.2820   13.0220   -1.9810 C   0  0  0  0  0  0  0  0  0  0  0  0
   -0.5050   12.9960   -0.7070 C   0  0  0  0  0  0  0  0  0  0  0  0
    0.7190   12.4590   -0.5490 C   0  0  0  0  0  0  0  0  0  0  0  0
    1.4070   11.7120   -1.6990 C   0  0  1  0  0  0  0  0  0  0  0  0
    1.9970   10.3780   -1.1710 C   0  0  0  0  0  0  0  0  0  0  0  0
    2.9190   10.5800    0.0270 C   0  0  0  0  0  0  0  0  0  0  0  0
    2.1830   11.2730    1.1710 C   0  0  2  0  0  0  0  0  0  0  0  0
    1.1730   10.3910    1.6710 O   0  0  0  0  0  0  0  0  0  0  0  0
    1.5380   12.6250    0.7550 C   0  0  0  0  0  0  0  0  0  0  0  0
    2.6470   13.6750    0.5030 C   0  0  0  0  0  0  0  0  0  0  0  0
    0.7100   13.1490    1.9590 C   0  0  0  0  0  0  0  0  0  0  0  0
    0.5380   11.5160   -3.0160 C   0  0  1  0  0  0  0  0  0  0  0  0
   -0.3230   10.2220   -2.8980 C   0  0  0  0  0  0  0  0  0  0  0  0
    1.5030   11.2980   -4.2400 C   0  0  0  0  0  0  0  0  0  0  0  0
    1.9990   12.5620   -4.9680 C   0  0  0  0  0  0  0  0  0  0  0  0
    0.8320   13.4960   -5.3010 C   0  0  2  0  0  0  0  0  0  0  0  0
   -0.1220   12.7380   -6.2850 C   0  0  0  0  0  0  0  0  0  0  0  0
    3.5611   14.8337   -6.5691 H   0  0  0  0  0  0  0  0  0  0  0  0
    3.3918   13.9384   -8.1172 H   0  0  0  0  0  0  0  0  0  0  0  0
    3.4236   15.7344   -8.1172 H   0  0  0  0  0  0  0  0  0  0  0  0
    1.1743   13.9670   -7.9030 H   0  0  0  0  0  0  0  0  0  0  0  0
    0.0388   15.7544   -8.6493 H   0  0  0  0  0  0  0  0  0  0  0  0
    0.7104   16.8262   -7.3293 H   0  0  0  0  0  0  0  0  0  0  0  0
    1.7554   17.8649   -9.0222 H   0  0  0  0  0  0  0  0  0  0  0  0
    2.9037   16.4681   -8.8883 H   0  0  0  0  0  0  0  0  0  0  0  0
    1.3400   17.4137  -10.7983 H   0  0  0  0  0  0  0  0  0  0  0  0
    3.2914   14.5595   -9.5072 H   0  0  0  0  0  0  0  0  0  0  0  0
    3.3310   13.4320  -10.9051 H   0  0  0  0  0  0  0  0  0  0  0  0
    4.3671   14.8994  -10.9051 H   0  0  0  0  0  0  0  0  0  0  0  0
    1.2461   15.1319  -13.1095 H   0  0  0  0  0  0  0  0  0  0  0  0
    2.6782   16.2160  -13.1262 H   0  0  0  0  0  0  0  0  0  0  0  0
    2.9010   14.4336  -13.1262 H   0  0  0  0  0  0  0  0  0  0  0  0
    2.1341   15.2402   -5.5069 H   0  0  0  0  0  0  0  0  0  0  0  0
    0.2438   16.7336   -5.3141 H   0  0  0  0  0  0  0  0  0  0  0  0
   -0.6885   15.8342   -6.5306 H   0  0  0  0  0  0  0  0  0  0  0  0
   -1.1051   15.7276   -3.7059 H   0  0  0  0  0  0  0  0  0  0  0  0
   -1.7713   14.5629   -4.8470 H   0  0  0  0  0  0  0  0  0  0  0  0
    0.8353   14.5192   -1.9513 H   0  0  0  0  0  0  0  0  0  0  0  0
    2.1469   14.4455   -3.1765 H   0  0  0  0  0  0  0  0  0  0  0  0
    0.9942   15.8232   -3.1765 H   0  0  0  0  0  0  0  0  0  0  0  0
   -1.2052   12.3668   -3.9963 H   0  0  0  0  0  0  0  0  0  0  0  0
   -1.7177   14.0258   -2.0929 H   0  0  0  0  0  0  0  0  0  0  0  0
   -2.0328   12.2226   -1.8957 H   0  0  0  0  0  0  0  0  0  0  0  0
   -0.9720   13.4543    0.1773 H   0  0  0  0  0  0  0  0  0  0  0  0
    2.2194   12.3680   -2.0448 H   0  0  0  0  0  0  0  0  0  0  0  0
    1.1681    9.7200   -0.8710 H   0  0  0  0  0  0  0  0  0  0  0  0
    2.5941    9.9333   -1.9807 H   0  0  0  0  0  0  0  0  0  0  0  0
    3.2802    9.6001    0.3725 H   0  0  0  0  0  0  0  0  0  0  0  0
    3.7631   11.2138   -0.2825 H   0  0  0  0  0  0  0  0  0  0  0  0
    2.9260   11.5064    1.9478 H   0  0  0  0  0  0  0  0  0  0  0  0
    1.1640   10.4730    2.6400 H   0  0  0  0  0  0  0  0  0  0  0  0
    3.0323   14.0398    1.4666 H   0  0  0  0  0  0  0  0  0  0  0  0
    3.4659   13.2135   -0.0683 H   0  0  0  0  0  0  0  0  0  0  0  0
    2.2309   14.5179   -0.0683 H   0  0  0  0  0  0  0  0  0  0  0  0
    1.1941   12.8426    2.8980 H   0  0  0  0  0  0  0  0  0  0  0  0
    0.6549   14.2468    1.9161 H   0  0  0  0  0  0  0  0  0  0  0  0
   -0.3057   12.7289    1.9161 H   0  0  0  0  0  0  0  0  0  0  0  0
   -0.4820    9.9830   -1.8361 H   0  0  0  0  0  0  0  0  0  0  0  0
   -1.2950   10.3825   -3.3873 H   0  0  0  0  0  0  0  0  0  0  0  0
    0.2005    9.3874   -3.3873 H   0  0  0  0  0  0  0  0  0  0  0  0
    2.3876   10.7563   -3.8739 H   0  0  0  0  0  0  0  0  0  0  0  0
    0.9042   10.7534   -4.9849 H   0  0  0  0  0  0  0  0  0  0  0  0
    2.7120   13.0936   -4.3207 H   0  0  0  0  0  0  0  0  0  0  0  0
    2.4843   12.2582   -5.9073 H   0  0  0  0  0  0  0  0  0  0  0  0
   -0.8555   12.1552   -5.7085 H   0  0  0  0  0  0  0  0  0  0  0  0
   -0.6490   13.4664   -6.9188 H   0  0  0  0  0  0  0  0  0  0  0  0
    0.4685   12.0600   -6.9188 H   0  0  0  0  0  0  0  0  0  0  0  0
  1  2  1  0
  2  3  1  0
  3  4  1  0
  4  5  1  0
  5  6  1  0
  6  7  1  0
  7  8  1  0
  7  9  1  0
  2 10  1  0
 10 11  1  0
 11 12  1  0
 12 13  1  0
 13 14  1  1
 13 15  1  0
 15 16  1  0
 16 17  1  0
 17 18  2  0
 18 19  1  0
 19 20  1  0
 20 21  1  0
 21 22  1  0
 22 23  1  0
 22 24  1  0
 24 25  1  0
 24 26  1  0
 19 27  1  0
 27 28  1  1
 27 29  1  0
 29 30  1  0
 30 31  1  0
 31 32  1  6
  7  5  1  0
 31 10  1  0
 31 13  1  0
 27 15  1  0
 24 18  1  0
  1 33  1  0
  1 34  1  0
  1 35  1  0
  2 36  1  6
  3 37  1  0
  3 38  1  0
  4 39  1  0
  4 40  1  0
  5 41  1  6
  8 42  1  0
  8 43  1  0
  8 44  1  0
  9 45  1  0
  9 46  1  0
  9 47  1  0
 10 48  1  1
 11 49  1  0
 11 50  1  0
 12 51  1  0
 12 52  1  0
 14 53  1  0
 14 54  1  0
 14 55  1  0
 15 56  1  6
 16 57  1  0
 16 58  1  0
 17 59  1  0
 19 60  1  6
 20 61  1  0
 20 62  1  0
 21 63  1  0
 21 64  1  0
 22 65  1  1
 23 66  1  0
 25 67  1  0
 25 68  1  0
 25 69  1  0
 26 70  1  0
 26 71  1  0
 26 72  1  0
 28 73  1  0
 28 74  1  0
 28 75  1  0
 29 76  1  0
 29 77  1  0
 30 78  1  0
 30 79  1  0
 32 80  1  0
 32 81  1  0
 32 82  1  0
M  END
>  <meeko>  (10) 
{"is_sidechain": [false], "intermolecular_energy": 2.731, "internal_energy": -0.839}

$$$$
EPH_relaxed_0001_pdb2pqr_Repair_195_r2_0001_out
     RDKit          3D

 82 86  0  0  0  0  0  0  0  0999 V2000
    0.9420   14.9250   -2.6410 C   0  0  0  0  0  0  0  0  0  0  0  0
    1.1790   14.2550   -3.9970 C   0  0  2  0  0  0  0  0  0  0  0  0
    0.4530   14.9900   -5.1420 C   0  0  0  0  0  0  0  0  0  0  0  0
    0.9480   14.5970   -6.5370 C   0  0  0  0  0  0  0  0  0  0  0  0
    0.7360   15.6990   -7.5310 C   0  0  2  0  0  0  0  0  0  0  0  0
    0.3810   15.2570   -8.8480 O   0  0  0  0  0  0  0  0  0  0  0  0
    1.6430   15.9340   -8.7250 C   0  0  0  0  0  0  0  0  0  0  0  0
    2.8300   15.0610   -8.9870 C   0  0  0  0  0  0  0  0  0  0  0  0
    1.6620   17.2920   -9.3530 C   0  0  0  0  0  0  0  0  0  0  0  0
    0.7280   12.8000   -3.9440 C   0  0  1  0  0  0  0  0  0  0  0  0
    1.8540   11.8110   -4.3480 C   0  0  0  0  0  0  0  0  0  0  0  0
    1.6660   10.5410   -3.4790 C   0  0  0  0  0  0  0  0  0  0  0  0
    0.2620   10.7020   -2.8500 C   0  0  1  0  0  0  0  0  0  0  0  0
   -0.7300   10.2400   -3.9630 C   0  0  0  0  0  0  0  0  0  0  0  0
    0.0160    9.9440   -1.5050 C   0  0  2  0  0  0  0  0  0  0  0  0
    0.1190    8.4110   -1.5920 C   0  0  0  0  0  0  0  0  0  0  0  0
   -1.1590    7.7030   -1.9000 C   0  0  0  0  0  0  0  0  0  0  0  0
   -2.3900    8.2410   -1.8190 C   0  0  0  0  0  0  0  0  0  0  0  0
   -2.5950    9.6650   -1.2880 C   0  0  1  0  0  0  0  0  0  0  0  0
   -3.7600    9.6740   -0.2630 C   0  0  0  0  0  0  0  0  0  0  0  0
   -5.0420    9.0730   -0.8310 C   0  0  0  0  0  0  0  0  0  0  0  0
   -4.8130    7.6370   -1.2950 C   0  0  2  0  0  0  0  0  0  0  0  0
   -4.5390    6.8220   -0.1510 O   0  0  0  0  0  0  0  0  0  0  0  0
   -3.6550    7.5030   -2.3230 C   0  0  0  0  0  0  0  0  0  0  0  0
   -4.0810    8.1330   -3.6720 C   0  0  0  0  0  0  0  0  0  0  0  0
   -3.4370    5.9910   -2.6000 C   0  0  0  0  0  0  0  0  0  0  0  0
   -1.2930   10.3930   -0.7380 C   0  0  1  0  0  0  0  0  0  0  0  0
   -1.0760   10.0330    0.7630 C   0  0  0  0  0  0  0  0  0  0  0  0
   -1.5140   11.9510   -0.7930 C   0  0  0  0  0  0  0  0  0  0  0  0
   -1.1400   12.6600   -2.1090 C   0  0  0  0  0  0  0  0  0  0  0  0
    0.2610   12.2500   -2.5730 C   0  0  2  0  0  0  0  0  0  0  0  0
    1.2840   12.7220   -1.4850 C   0  0  0  0  0  0  0  0  0  0  0  0
    1.1916   14.2195   -1.8348 H   0  0  0  0  0  0  0  0  0  0  0  0
    1.5788   15.8180   -2.5569 H   0  0  0  0  0  0  0  0  0  0  0  0
   -0.1147   15.2189   -2.5569 H   0  0  0  0  0  0  0  0  0  0  0  0
    2.2580   14.3023   -4.2055 H   0  0  0  0  0  0  0  0  0  0  0  0
   -0.6207   14.7598   -5.0768 H   0  0  0  0  0  0  0  0  0  0  0  0
    0.6603   16.0631   -5.0177 H   0  0  0  0  0  0  0  0  0  0  0  0
    2.0225   14.3677   -6.4826 H   0  0  0  0  0  0  0  0  0  0  0  0
    0.3743   13.7195   -6.8700 H   0  0  0  0  0  0  0  0  0  0  0  0
    0.3645   16.3707   -6.7431 H   0  0  0  0  0  0  0  0  0  0  0  0
    3.2671   14.7395   -8.0301 H   0  0  0  0  0  0  0  0  0  0  0  0
    2.5156   14.1774   -9.5617 H   0  0  0  0  0  0  0  0  0  0  0  0
    3.5798   15.6244   -9.5617 H   0  0  0  0  0  0  0  0  0  0  0  0
    1.6727   18.0600   -8.5656 H   0  0  0  0  0  0  0  0  0  0  0  0
    2.5617   17.3946   -9.9776 H   0  0  0  0  0  0  0  0  0  0  0  0
    0.7656   17.4197   -9.9776 H   0  0  0  0  0  0  0  0  0  0  0  0
   -0.1222   12.8444   -4.6406 H   0  0  0  0  0  0  0  0  0  0  0  0
    1.7697   11.5561   -5.4147 H   0  0  0  0  0  0  0  0  0  0  0  0
    2.8471   12.2560   -4.1878 H   0  0  0  0  0  0  0  0  0  0  0  0
    1.7111    9.6349   -4.1010 H   0  0  0  0  0  0  0  0  0  0  0  0
    2.4539   10.4358   -2.7186 H   0  0  0  0  0  0  0  0  0  0  0  0
   -1.6334    9.8193   -3.4974 H   0  0  0  0  0  0  0  0  0  0  0  0
   -1.0070   11.1018   -4.5880 H   0  0  0  0  0  0  0  0  0  0  0  0
   -0.2487    9.4734   -4.5880 H   0  0  0  0  0  0  0  0  0  0  0  0
    0.8709   10.2665   -0.8925 H   0  0  0  0  0  0  0  0  0  0  0  0
    0.8438    8.1632   -2.3815 H   0  0  0  0  0  0  0  0  0  0  0  0
    0.4233    8.0689   -0.5918 H   0  0  0  0  0  0  0  0  0  0  0  0
   -1.0884    6.6530   -2.2202 H   0  0  0  0  0  0  0  0  0  0  0  0
   -2.8618   10.2794   -2.1606 H   0  0  0  0  0  0  0  0  0  0  0  0
   -3.4579    9.0911    0.6196 H   0  0  0  0  0  0  0  0  0  0  0  0
   -3.9687   10.7223   -0.0031 H   0  0  0  0  0  0  0  0  0  0  0  0
   -5.8187    9.0800   -0.0521 H   0  0  0  0  0  0  0  0  0  0  0  0
   -5.3586    9.6748   -1.6956 H   0  0  0  0  0  0  0  0  0  0  0  0
   -5.7274    7.3056   -1.8088 H   0  0  0  0  0  0  0  0  0  0  0  0
   -4.2970    7.4140    0.5810 H   0  0  0  0  0  0  0  0  0  0  0  0
   -4.6879    9.0305   -3.4821 H   0  0  0  0  0  0  0  0  0  0  0  0
   -3.1848    8.4111   -4.2461 H   0  0  0  0  0  0  0  0  0  0  0  0
   -4.6729    7.4049   -4.2461 H   0  0  0  0  0  0  0  0  0  0  0  0
   -3.3591    5.4508   -1.6450 H   0  0  0  0  0  0  0  0  0  0  0  0
   -4.2877    5.5973   -3.1756 H   0  0  0  0  0  0  0  0  0  0  0  0
   -2.5098    5.8536   -3.1756 H   0  0  0  0  0  0  0  0  0  0  0  0
   -1.5405   10.8036    1.3957 H   0  0  0  0  0  0  0  0  0  0  0  0
   -1.5364    9.0570    0.9762 H   0  0  0  0  0  0  0  0  0  0  0  0
    0.0020    9.9843    0.9762 H   0  0  0  0  0  0  0  0  0  0  0  0
   -2.5804   12.1427   -0.6032 H   0  0  0  0  0  0  0  0  0  0  0  0
   -0.8295   12.3655   -0.0383 H   0  0  0  0  0  0  0  0  0  0  0  0
   -1.8704   12.3872   -2.8850 H   0  0  0  0  0  0  0  0  0  0  0  0
   -1.1489   13.7465   -1.9372 H   0  0  0  0  0  0  0  0  0  0  0  0
    0.8693   12.5307   -0.4843 H   0  0  0  0  0  0  0  0  0  0  0  0
    2.2268   12.1679   -1.6033 H   0  0  0  0  0  0  0  0  0  0  0  0
    1.4743   13.7989   -1.6033 H   0  0  0  0  0  0  0  0  0  0  0  0
  1  2  1  0
  2  3  1  0
  3  4  1  0
  4  5  1  0
  5  6  1  0
  6  7  1  0
  7  8  1  0
  7  9  1  0
  2 10  1  0
 10 11  1  0
 11 12  1  0
 12 13  1  0
 13 14  1  6
 13 15  1  0
 15 16  1  0
 16 17  1  0
 17 18  2  0
 18 19  1  0
 19 20  1  0
 20 21  1  0
 21 22  1  0
 22 23  1  0
 22 24  1  0
 24 25  1  0
 24 26  1  0
 19 27  1  0
 27 28  1  1
 27 29  1  0
 29 30  1  0
 30 31  1  0
 31 32  1  1
  7  5  1  0
 31 10  1  0
 31 13  1  0
 27 15  1  0
 24 18  1  0
  1 33  1  0
  1 34  1  0
  1 35  1  0
  2 36  1  6
  3 37  1  0
  3 38  1  0
  4 39  1  0
  4 40  1  0
  5 41  1  1
  8 42  1  0
  8 43  1  0
  8 44  1  0
  9 45  1  0
  9 46  1  0
  9 47  1  0
 10 48  1  6
 11 49  1  0
 11 50  1  0
 12 51  1  0
 12 52  1  0
 14 53  1  0
 14 54  1  0
 14 55  1  0
 15 56  1  1
 16 57  1  0
 16 58  1  0
 17 59  1  0
 19 60  1  6
 20 61  1  0
 20 62  1  0
 21 63  1  0
 21 64  1  0
 22 65  1  6
 23 66  1  0
 25 67  1  0
 25 68  1  0
 25 69  1  0
 26 70  1  0
 26 71  1  0
 26 72  1  0
 28 73  1  0
 28 74  1  0
 28 75  1  0
 29 76  1  0
 29 77  1  0
 30 78  1  0
 30 79  1  0
 32 80  1  0
 32 81  1  0
 32 82  1  0
M  END
>  <meeko>  (11) 
{"is_sidechain": [false], "intermolecular_energy": 2.731, "internal_energy": -0.839}

$$$$
EPH_relaxed_0001_pdb2pqr_Repair_195_r2_0001_out
     RDKit          3D

 82 86  0  0  0  0  0  0  0  0999 V2000
   -2.4320    7.7700   -0.0190 C   0  0  0  0  0  0  0  0  0  0  0  0
   -3.0860    9.1550   -0.0510 C   0  0  2  0  0  0  0  0  0  0  0  0
   -4.5680    9.0870   -0.4690 C   0  0  0  0  0  0  0  0  0  0  0  0
   -5.1130    7.6600   -0.5760 C   0  0  0  0  0  0  0  0  0  0  0  0
   -5.8880    7.4570   -1.8430 C   0  0  2  0  0  0  0  0  0  0  0  0
   -6.8330    8.4930   -2.1400 O   0  0  0  0  0  0  0  0  0  0  0  0
   -7.3810    7.1910   -1.8770 C   0  0  0  0  0  0  0  0  0  0  0  0
   -8.1890    7.1140   -0.6190 C   0  0  0  0  0  0  0  0  0  0  0  0
   -7.9630    6.5260   -3.0860 C   0  0  0  0  0  0  0  0  0  0  0  0
   -2.3180   10.0700   -0.9980 C   0  0  1  0  0  0  0  0  0  0  0  0
   -2.9670   11.4740   -1.1280 C   0  0  0  0  0  0  0  0  0  0  0  0
   -1.8080   12.4890   -1.2960 C   0  0  0  0  0  0  0  0  0  0  0  0
   -0.5650   11.6160   -1.5890 C   0  0  1  0  0  0  0  0  0  0  0  0
   -0.6590   11.2800   -3.1100 C   0  0  0  0  0  0  0  0  0  0  0  0
    0.8200   12.2400   -1.2210 C   0  0  2  0  0  0  0  0  0  0  0  0
    1.1820   13.5240   -1.9880 C   0  0  0  0  0  0  0  0  0  0  0  0
    1.9310   13.3150   -3.2630 C   0  0  0  0  0  0  0  0  0  0  0  0
    2.5470   12.1750   -3.6300 C   0  0  0  0  0  0  0  0  0  0  0  0
    2.6090   10.9720   -2.6810 C   0  0  1  0  0  0  0  0  0  0  0  0
    4.0540   10.4070   -2.6540 C   0  0  0  0  0  0  0  0  0  0  0  0
    4.5790   10.0780   -4.0490 C   0  0  0  0  0  0  0  0  0  0  0  0
    4.5550   11.3130   -4.9460 C   0  0  2  0  0  0  0  0  0  0  0  0
    5.5020   12.2630   -4.4470 O   0  0  0  0  0  0  0  0  0  0  0  0
    3.1520   11.9750   -5.0420 C   0  0  0  0  0  0  0  0  0  0  0  0
    2.2010   11.0610   -5.8530 C   0  0  0  0  0  0  0  0  0  0  0  0
    3.2970   13.2860   -5.8590 C   0  0  0  0  0  0  0  0  0  0  0  0
    2.0190   11.2070   -1.2240 C   0  0  1  0  0  0  0  0  0  0  0  0
    3.1210   11.8000   -0.2930 C   0  0  0  0  0  0  0  0  0  0  0  0
    1.6130    9.8180   -0.6030 C   0  0  0  0  0  0  0  0  0  0  0  0
    0.1900    9.3110   -0.9050 C   0  0  0  0  0  0  0  0  0  0  0  0
   -0.8500   10.4020   -0.6320 C   0  0  2  0  0  0  0  0  0  0  0  0
   -0.7940   10.7440    0.8960 C   0  0  0  0  0  0  0  0  0  0  0  0
   -2.2847    7.4581    1.0255 H   0  0  0  0  0  0  0  0  0  0  0  0
   -3.0830    7.0452   -0.5298 H   0  0  0  0  0  0  0  0  0  0  0  0
   -1.4587    7.8122   -0.5298 H   0  0  0  0  0  0  0  0  0  0  0  0
   -3.0499    9.5626    0.9700 H   0  0  0  0  0  0  0  0  0  0  0  0
   -5.1647    9.6315    0.2777 H   0  0  0  0  0  0  0  0  0  0  0  0
   -4.6399    9.5344   -1.4713 H   0  0  0  0  0  0  0  0  0  0  0  0
   -4.2698    6.9538   -0.5566 H   0  0  0  0  0  0  0  0  0  0  0  0
   -5.7911    7.4870    0.2727 H   0  0  0  0  0  0  0  0  0  0  0  0
   -5.0358    6.9404   -2.3087 H   0  0  0  0  0  0  0  0  0  0  0  0
   -7.5194    7.1778    0.2514 H   0  0  0  0  0  0  0  0  0  0  0  0
   -8.9059    7.9479   -0.5920 H   0  0  0  0  0  0  0  0  0  0  0  0
   -8.7354    6.1597   -0.5920 H   0  0  0  0  0  0  0  0  0  0  0  0
   -8.6569    5.7331   -2.7700 H   0  0  0  0  0  0  0  0  0  0  0  0
   -8.5057    7.2697   -3.6880 H   0  0  0  0  0  0  0  0  0  0  0  0
   -7.1539    6.0867   -3.6880 H   0  0  0  0  0  0  0  0  0  0  0  0
   -2.3485    9.4578   -1.9114 H   0  0  0  0  0  0  0  0  0  0  0  0
   -3.6284   11.5056   -2.0064 H   0  0  0  0  0  0  0  0  0  0  0  0
   -3.5746   11.7116   -0.2423 H   0  0  0  0  0  0  0  0  0  0  0  0
   -2.0088   13.1727   -2.1340 H   0  0  0  0  0  0  0  0  0  0  0  0
   -1.6739   13.1206   -0.4054 H   0  0  0  0  0  0  0  0  0  0  0  0
   -0.9534   10.2276   -3.2355 H   0  0  0  0  0  0  0  0  0  0  0  0
   -1.4099   11.9298   -3.5833 H   0  0  0  0  0  0  0  0  0  0  0  0
    0.3200   11.4458   -3.5833 H   0  0  0  0  0  0  0  0  0  0  0  0
    0.6684   12.5489   -0.1762 H   0  0  0  0  0  0  0  0  0  0  0  0
    0.2473   14.0531   -2.2255 H   0  0  0  0  0  0  0  0  0  0  0  0
    1.8547   14.0928   -1.3293 H   0  0  0  0  0  0  0  0  0  0  0  0
    1.9840   14.1635   -3.9610 H   0  0  0  0  0  0  0  0  0  0  0  0
    1.9221   10.2207   -3.0978 H   0  0  0  0  0  0  0  0  0  0  0  0
    4.7169   11.1553   -2.1950 H   0  0  0  0  0  0  0  0  0  0  0  0
    4.0367    9.4723   -2.0743 H   0  0  0  0  0  0  0  0  0  0  0  0
    5.6132    9.7123   -3.9675 H   0  0  0  0  0  0  0  0  0  0  0  0
    3.9327    9.3075   -4.4948 H   0  0  0  0  0  0  0  0  0  0  0  0
    4.8170   10.9865   -5.9632 H   0  0  0  0  0  0  0  0  0  0  0  0
    6.2430   12.2980   -5.0750 H   0  0  0  0  0  0  0  0  0  0  0  0
    1.5842   10.4682   -5.1616 H   0  0  0  0  0  0  0  0  0  0  0  0
    1.5493   11.6803   -6.4868 H   0  0  0  0  0  0  0  0  0  0  0  0
    2.7940   10.3852   -6.4868 H   0  0  0  0  0  0  0  0  0  0  0  0
    3.3913   14.1386   -5.1704 H   0  0  0  0  0  0  0  0  0  0  0  0
    4.1940   13.2257   -6.4929 H   0  0  0  0  0  0  0  0  0  0  0  0
    2.4085   13.4232   -6.4929 H   0  0  0  0  0  0  0  0  0  0  0  0
    2.8349   11.6461    0.7579 H   0  0  0  0  0  0  0  0  0  0  0  0
    4.0782   11.2952   -0.4902 H   0  0  0  0  0  0  0  0  0  0  0  0
    3.2270   12.8770   -0.4902 H   0  0  0  0  0  0  0  0  0  0  0  0
    2.3213    9.0654   -0.9797 H   0  0  0  0  0  0  0  0  0  0  0  0
    1.6387    9.9712    0.4860 H   0  0  0  0  0  0  0  0  0  0  0  0
    0.1307    9.0138   -1.9624 H   0  0  0  0  0  0  0  0  0  0  0  0
   -0.0226    8.4522   -0.2513 H   0  0  0  0  0  0  0  0  0  0  0  0
   -0.9443    9.8259    1.4830 H   0  0  0  0  0  0  0  0  0  0  0  0
    0.1872   11.1780    1.1389 H   0  0  0  0  0  0  0  0  0  0  0  0
   -1.5855   11.4682    1.1389 H   0  0  0  0  0  0  0  0  0  0  0  0
  1  2  1  0
  2  3  1  0
  3  4  1  0
  4  5  1  0
  5  6  1  0
  6  7  1  0
  7  8  1  0
  7  9  1  0
  2 10  1  0
 10 11  1  0
 11 12  1  0
 12 13  1  0
 13 14  1  6
 13 15  1  0
 15 16  1  0
 16 17  1  0
 17 18  2  0
 18 19  1  0
 19 20  1  0
 20 21  1  0
 21 22  1  0
 22 23  1  0
 22 24  1  0
 24 25  1  0
 24 26  1  0
 19 27  1  0
 27 28  1  1
 27 29  1  0
 29 30  1  0
 30 31  1  0
 31 32  1  1
  7  5  1  0
 31 10  1  0
 31 13  1  0
 27 15  1  0
 24 18  1  0
  1 33  1  0
  1 34  1  0
  1 35  1  0
  2 36  1  1
  3 37  1  0
  3 38  1  0
  4 39  1  0
  4 40  1  0
  5 41  1  6
  8 42  1  0
  8 43  1  0
  8 44  1  0
  9 45  1  0
  9 46  1  0
  9 47  1  0
 10 48  1  6
 11 49  1  0
 11 50  1  0
 12 51  1  0
 12 52  1  0
 14 53  1  0
 14 54  1  0
 14 55  1  0
 15 56  1  1
 16 57  1  0
 16 58  1  0
 17 59  1  0
 19 60  1  6
 20 61  1  0
 20 62  1  0
 21 63  1  0
 21 64  1  0
 22 65  1  6
 23 66  1  0
 25 67  1  0
 25 68  1  0
 25 69  1  0
 26 70  1  0
 26 71  1  0
 26 72  1  0
 28 73  1  0
 28 74  1  0
 28 75  1  0
 29 76  1  0
 29 77  1  0
 30 78  1  0
 30 79  1  0
 32 80  1  0
 32 81  1  0
 32 82  1  0
M  END
>  <meeko>  (12) 
{"is_sidechain": [false], "intermolecular_energy": 2.731, "internal_energy": -0.839}

$$$$
EPH_relaxed_0001_pdb2pqr_Repair_195_r2_0001_out
     RDKit          3D

 82 86  0  0  0  0  0  0  0  0999 V2000
    0.8620   14.7000   -4.9060 C   0  0  0  0  0  0  0  0  0  0  0  0
    0.5960   14.1730   -3.4930 C   0  0  2  0  0  0  0  0  0  0  0  0
    1.8060   14.3780   -2.5590 C   0  0  0  0  0  0  0  0  0  0  0  0
    1.5630   15.4090   -1.4540 C   0  0  0  0  0  0  0  0  0  0  0  0
    1.1620   16.7390   -2.0160 C   0  0  2  0  0  0  0  0  0  0  0  0
    2.0140   17.2310   -3.0590 O   0  0  0  0  0  0  0  0  0  0  0  0
    1.9860   18.0020   -1.8470 C   0  0  0  0  0  0  0  0  0  0  0  0
    3.2780   17.9950   -1.0920 C   0  0  0  0  0  0  0  0  0  0  0  0
    1.3040   19.3260   -1.9900 C   0  0  0  0  0  0  0  0  0  0  0  0
    0.2260   12.6950   -3.5500 C   0  0  1  0  0  0  0  0  0  0  0  0
    1.4430   11.7870   -3.8730 C   0  0  0  0  0  0  0  0  0  0  0  0
    1.2390   10.4690   -3.0830 C   0  0  0  0  0  0  0  0  0  0  0  0
   -0.2300   10.5250   -2.6020 C   0  0  1  0  0  0  0  0  0  0  0  0
   -1.0730   10.0660   -3.8320 C   0  0  0  0  0  0  0  0  0  0  0  0
   -0.5710    9.6910   -1.3240 C   0  0  2  0  0  0  0  0  0  0  0  0
   -0.3720    8.1720   -1.4650 C   0  0  0  0  0  0  0  0  0  0  0  0
   -1.5680    7.4130   -1.9370 C   0  0  0  0  0  0  0  0  0  0  0  0
   -2.8300    7.8810   -1.9650 C   0  0  0  0  0  0  0  0  0  0  0  0
   -3.1690    9.2660   -1.3980 C   0  0  1  0  0  0  0  0  0  0  0  0
   -4.4330    9.1630   -0.5040 C   0  0  0  0  0  0  0  0  0  0  0  0
   -5.6130    8.5240   -1.2300 C   0  0  0  0  0  0  0  0  0  0  0  0
   -5.2550    7.1260   -1.7270 C   0  0  2  0  0  0  0  0  0  0  0  0
   -5.0550    6.2720   -0.5970 O   0  0  0  0  0  0  0  0  0  0  0  0
   -3.9910    7.1030   -2.6310 C   0  0  0  0  0  0  0  0  0  0  0  0
   -4.3100    7.7750   -3.9900 C   0  0  0  0  0  0  0  0  0  0  0  0
   -3.6580    5.6200   -2.9480 C   0  0  0  0  0  0  0  0  0  0  0  0
   -1.9760   10.0340   -0.6830 C   0  0  1  0  0  0  0  0  0  0  0  0
   -1.8950    9.6130    0.8170 C   0  0  0  0  0  0  0  0  0  0  0  0
   -2.2790   11.5790   -0.6940 C   0  0  0  0  0  0  0  0  0  0  0  0
   -1.8110   12.3690   -1.9310 C   0  0  0  0  0  0  0  0  0  0  0  0
   -0.3480   12.0560   -2.2610 C   0  0  2  0  0  0  0  0  0  0  0  0
    0.5270   12.5280   -1.0500 C   0  0  0  0  0  0  0  0  0  0  0  0
    1.3569   15.6805   -4.8445 H   0  0  0  0  0  0  0  0  0  0  0  0
    1.5119   13.9943   -5.4442 H   0  0  0  0  0  0  0  0  0  0  0  0
   -0.0917   14.8037   -5.4442 H   0  0  0  0  0  0  0  0  0  0  0  0
   -0.2431   14.7503   -3.0774 H   0  0  0  0  0  0  0  0  0  0  0  0
    2.0479   13.4141   -2.0874 H   0  0  0  0  0  0  0  0  0  0  0  0
    2.6299   14.7602   -3.1796 H   0  0  0  0  0  0  0  0  0  0  0  0
    0.7611   15.0437   -0.7956 H   0  0  0  0  0  0  0  0  0  0  0  0
    2.5015   15.5413   -0.8957 H   0  0  0  0  0  0  0  0  0  0  0  0
    0.0993   16.5212   -1.8337 H   0  0  0  0  0  0  0  0  0  0  0  0
    3.0713   17.9961   -0.0116 H   0  0  0  0  0  0  0  0  0  0  0  0
    3.8513   17.0937   -1.3547 H   0  0  0  0  0  0  0  0  0  0  0  0
    3.8611   18.8900   -1.3547 H   0  0  0  0  0  0  0  0  0  0  0  0
    1.0915   19.7386   -0.9927 H   0  0  0  0  0  0  0  0  0  0  0  0
    1.9580   20.0177   -2.5412 H   0  0  0  0  0  0  0  0  0  0  0  0
    0.3611   19.1951   -2.5412 H   0  0  0  0  0  0  0  0  0  0  0  0
   -0.5483   12.7281   -4.3307 H   0  0  0  0  0  0  0  0  0  0  0  0
    1.4848   11.5792   -4.9524 H   0  0  0  0  0  0  0  0  0  0  0  0
    2.3869   12.2756   -3.5895 H   0  0  0  0  0  0  0  0  0  0  0  0
    1.4014    9.5972   -3.7338 H   0  0  0  0  0  0  0  0  0  0  0  0
    1.9477   10.3697   -2.2476 H   0  0  0  0  0  0  0  0  0  0  0  0
   -1.9892    9.5672   -3.4830 H   0  0  0  0  0  0  0  0  0  0  0  0
   -1.3416   10.9424   -4.4401 H   0  0  0  0  0  0  0  0  0  0  0  0
   -0.4826    9.3648   -4.4401 H   0  0  0  0  0  0  0  0  0  0  0  0
    0.1953   10.0271   -0.6101 H   0  0  0  0  0  0  0  0  0  0  0  0
    0.4439    8.0013   -2.1828 H   0  0  0  0  0  0  0  0  0  0  0  0
   -0.1544    7.7985   -0.4535 H   0  0  0  0  0  0  0  0  0  0  0  0
   -1.4042    6.3847   -2.2918 H   0  0  0  0  0  0  0  0  0  0  0  0
   -3.3769    9.9082   -2.2665 H   0  0  0  0  0  0  0  0  0  0  0  0
   -4.1912    8.5542    0.3797 H   0  0  0  0  0  0  0  0  0  0  0  0
   -4.7275   10.1850   -0.2234 H   0  0  0  0  0  0  0  0  0  0  0  0
   -6.4655    8.4530   -0.5385 H   0  0  0  0  0  0  0  0  0  0  0  0
   -5.8723    9.1493   -2.0970 H   0  0  0  0  0  0  0  0  0  0  0  0
   -6.0910    6.7722   -2.3482 H   0  0  0  0  0  0  0  0  0  0  0  0
   -5.9310    6.0440   -0.2420 H   0  0  0  0  0  0  0  0  0  0  0  0
   -4.7756    8.7559   -3.8137 H   0  0  0  0  0  0  0  0  0  0  0  0
   -3.3791    7.9083   -4.5606 H   0  0  0  0  0  0  0  0  0  0  0  0
   -5.0018    7.1380   -4.5606 H   0  0  0  0  0  0  0  0  0  0  0  0
   -3.5330    5.0632   -2.0076 H   0  0  0  0  0  0  0  0  0  0  0  0
   -4.4789    5.1763   -3.5305 H   0  0  0  0  0  0  0  0  0  0  0  0
   -2.7262    5.5698   -3.5305 H   0  0  0  0  0  0  0  0  0  0  0  0
   -2.0644   10.4933    1.4545 H   0  0  0  0  0  0  0  0  0  0  0  0
   -2.6637    8.8548    1.0270 H   0  0  0  0  0  0  0  0  0  0  0  0
   -0.8998    9.1941    1.0270 H   0  0  0  0  0  0  0  0  0  0  0  0
   -3.3686   11.7052   -0.6110 H   0  0  0  0  0  0  0  0  0  0  0  0
   -1.7022   11.9918    0.1468 H   0  0  0  0  0  0  0  0  0  0  0  0
   -2.4401   12.0963   -2.7912 H   0  0  0  0  0  0  0  0  0  0  0  0
   -1.8993   13.4439   -1.7145 H   0  0  0  0  0  0  0  0  0  0  0  0
    0.0263   12.2579   -0.1085 H   0  0  0  0  0  0  0  0  0  0  0  0
    1.5109   12.0383   -1.0956 H   0  0  0  0  0  0  0  0  0  0  0  0
    0.6581   13.6192   -1.0956 H   0  0  0  0  0  0  0  0  0  0  0  0
  1  2  1  0
  2  3  1  0
  3  4  1  0
  4  5  1  0
  5  6  1  0
  6  7  1  0
  7  8  1  0
  7  9  1  0
  2 10  1  0
 10 11  1  0
 11 12  1  0
 12 13  1  0
 13 14  1  6
 13 15  1  0
 15 16  1  0
 16 17  1  0
 17 18  2  0
 18 19  1  0
 19 20  1  0
 20 21  1  0
 21 22  1  0
 22 23  1  0
 22 24  1  0
 24 25  1  0
 24 26  1  0
 19 27  1  0
 27 28  1  1
 27 29  1  0
 29 30  1  0
 30 31  1  0
 31 32  1  1
  7  5  1  0
 31 10  1  0
 31 13  1  0
 27 15  1  0
 24 18  1  0
  1 33  1  0
  1 34  1  0
  1 35  1  0
  2 36  1  1
  3 37  1  0
  3 38  1  0
  4 39  1  0
  4 40  1  0
  5 41  1  6
  8 42  1  0
  8 43  1  0
  8 44  1  0
  9 45  1  0
  9 46  1  0
  9 47  1  0
 10 48  1  6
 11 49  1  0
 11 50  1  0
 12 51  1  0
 12 52  1  0
 14 53  1  0
 14 54  1  0
 14 55  1  0
 15 56  1  1
 16 57  1  0
 16 58  1  0
 17 59  1  0
 19 60  1  6
 20 61  1  0
 20 62  1  0
 21 63  1  0
 21 64  1  0
 22 65  1  6
 23 66  1  0
 25 67  1  0
 25 68  1  0
 25 69  1  0
 26 70  1  0
 26 71  1  0
 26 72  1  0
 28 73  1  0
 28 74  1  0
 28 75  1  0
 29 76  1  0
 29 77  1  0
 30 78  1  0
 30 79  1  0
 32 80  1  0
 32 81  1  0
 32 82  1  0
M  END
>  <meeko>  (13) 
{"is_sidechain": [false], "intermolecular_energy": 2.731, "internal_energy": -0.839}

$$$$
EPH_relaxed_0001_pdb2pqr_Repair_195_r2_0001_out
     RDKit          3D

 82 86  0  0  0  0  0  0  0  0999 V2000
    0.4450    8.5370   -2.2790 C   0  0  0  0  0  0  0  0  0  0  0  0
    1.1660    9.6280   -3.0760 C   0  0  2  0  0  0  0  0  0  0  0  0
    2.6710    9.6900   -2.7440 C   0  0  0  0  0  0  0  0  0  0  0  0
    3.5080   10.3960   -3.8130 C   0  0  0  0  0  0  0  0  0  0  0  0
    4.8950   10.6910   -3.3270 C   0  0  2  0  0  0  0  0  0  0  0  0
    5.4320   11.9430   -3.7720 O   0  0  0  0  0  0  0  0  0  0  0  0
    6.1040   10.7630   -4.2400 C   0  0  0  0  0  0  0  0  0  0  0  0
    5.9830   10.5380   -5.7150 C   0  0  0  0  0  0  0  0  0  0  0  0
    7.4630   10.5670   -3.6450 C   0  0  0  0  0  0  0  0  0  0  0  0
    0.5180   10.9810   -2.8090 C   0  0  1  0  0  0  0  0  0  0  0  0
   -0.8700   10.8540   -2.1260 C   0  0  0  0  0  0  0  0  0  0  0  0
   -1.0060   12.0610   -1.1620 C   0  0  0  0  0  0  0  0  0  0  0  0
    0.1470   13.0110   -1.5620 C   0  0  1  0  0  0  0  0  0  0  0  0
   -0.3860   13.7860   -2.8080 C   0  0  0  0  0  0  0  0  0  0  0  0
    0.6550   13.9860   -0.4510 C   0  0  2  0  0  0  0  0  0  0  0  0
   -0.3880   14.9970    0.0580 C   0  0  0  0  0  0  0  0  0  0  0  0
   -0.4240   16.2980   -0.6730 C   0  0  0  0  0  0  0  0  0  0  0  0
    0.5290   16.7540   -1.5060 C   0  0  0  0  0  0  0  0  0  0  0  0
    1.8370   15.9780   -1.7070 C   0  0  1  0  0  0  0  0  0  0  0  0
    3.0380   16.9560   -1.6220 C   0  0  0  0  0  0  0  0  0  0  0  0
    2.9040   18.1320   -2.5850 C   0  0  0  0  0  0  0  0  0  0  0  0
    1.6210   18.9130   -2.3160 C   0  0  2  0  0  0  0  0  0  0  0  0
    1.7230   19.5400   -1.0340 O   0  0  0  0  0  0  0  0  0  0  0  0
    0.3430   18.0290   -2.3650 C   0  0  0  0  0  0  0  0  0  0  0  0
    0.0660   17.5950   -3.8250 C   0  0  0  0  0  0  0  0  0  0  0  0
   -0.8630   18.9090   -1.9380 C   0  0  0  0  0  0  0  0  0  0  0  0
    2.0290   14.6950   -0.7890 C   0  0  1  0  0  0  0  0  0  0  0  0
    2.6660   15.1060    0.5740 C   0  0  0  0  0  0  0  0  0  0  0  0
    3.0520   13.7170   -1.4800 C   0  0  0  0  0  0  0  0  0  0  0  0
    2.4720   12.6980   -2.4790 C   0  0  0  0  0  0  0  0  0  0  0  0
    1.2730   11.9600   -1.8760 C   0  0  2  0  0  0  0  0  0  0  0  0
    1.7820   11.1540   -0.6330 C   0  0  0  0  0  0  0  0  0  0  0  0
    0.5700    8.7261   -1.2026 H   0  0  0  0  0  0  0  0  0  0  0  0
   -0.6257    8.5458   -2.5310 H   0  0  0  0  0  0  0  0  0  0  0  0
    0.8729    7.5555   -2.5310 H   0  0  0  0  0  0  0  0  0  0  0  0
    1.0727    9.3754   -4.1425 H   0  0  0  0  0  0  0  0  0  0  0  0
    2.7950   10.2295   -1.7934 H   0  0  0  0  0  0  0  0  0  0  0  0
    3.0308    8.6521   -2.6875 H   0  0  0  0  0  0  0  0  0  0  0  0
    3.5714    9.7493   -4.7005 H   0  0  0  0  0  0  0  0  0  0  0  0
    3.0194   11.3514   -4.0550 H   0  0  0  0  0  0  0  0  0  0  0  0
    4.7085   10.1431   -2.3915 H   0  0  0  0  0  0  0  0  0  0  0  0
    5.4694    9.5829   -5.8993 H   0  0  0  0  0  0  0  0  0  0  0  0
    5.4043   11.3583   -6.1648 H   0  0  0  0  0  0  0  0  0  0  0  0
    6.9864   10.5075   -6.1648 H   0  0  0  0  0  0  0  0  0  0  0  0
    7.3879   10.5778   -2.5476 H   0  0  0  0  0  0  0  0  0  0  0  0
    7.8719    9.6006   -3.9750 H   0  0  0  0  0  0  0  0  0  0  0  0
    8.1283   11.3785   -3.9750 H   0  0  0  0  0  0  0  0  0  0  0  0
    0.4962   11.3801   -3.8338 H   0  0  0  0  0  0  0  0  0  0  0  0
   -1.6683   10.8813   -2.8823 H   0  0  0  0  0  0  0  0  0  0  0  0
   -0.9569    9.9020   -1.5818 H   0  0  0  0  0  0  0  0  0  0  0  0
   -1.9799   12.5553   -1.2935 H   0  0  0  0  0  0  0  0  0  0  0  0
   -0.9509   11.7596   -0.1055 H   0  0  0  0  0  0  0  0  0  0  0  0
   -0.9802   14.6500   -2.4758 H   0  0  0  0  0  0  0  0  0  0  0  0
    0.4634   14.1360   -3.4131 H   0  0  0  0  0  0  0  0  0  0  0  0
   -1.0167   13.1181   -3.4131 H   0  0  0  0  0  0  0  0  0  0  0  0
    0.8457   13.3040    0.3907 H   0  0  0  0  0  0  0  0  0  0  0  0
   -1.3814   14.5321   -0.0262 H   0  0  0  0  0  0  0  0  0  0  0  0
   -0.1002   15.2367    1.0923 H   0  0  0  0  0  0  0  0  0  0  0  0
   -1.3047   16.9384   -0.5173 H   0  0  0  0  0  0  0  0  0  0  0  0
    1.7809   15.5432   -2.7159 H   0  0  0  0  0  0  0  0  0  0  0  0
    3.1030   17.3463   -0.5956 H   0  0  0  0  0  0  0  0  0  0  0  0
    3.9438   16.3976   -1.9008 H   0  0  0  0  0  0  0  0  0  0  0  0
    3.7669   18.8021   -2.4573 H   0  0  0  0  0  0  0  0  0  0  0  0
    2.8689   17.7421   -3.6130 H   0  0  0  0  0  0  0  0  0  0  0  0
    1.5162   19.6600   -3.1166 H   0  0  0  0  0  0  0  0  0  0  0  0
    1.0550   20.2460   -0.9970 H   0  0  0  0  0  0  0  0  0  0  0  0
   -0.5258   16.6678   -3.8259 H   0  0  0  0  0  0  0  0  0  0  0  0
   -0.4936   18.3876   -4.3433 H   0  0  0  0  0  0  0  0  0  0  0  0
    1.0206   17.4212   -4.3433 H   0  0  0  0  0  0  0  0  0  0  0  0
   -0.9174   18.9487   -0.8401 H   0  0  0  0  0  0  0  0  0  0  0  0
   -0.7336   19.9264   -2.3357 H   0  0  0  0  0  0  0  0  0  0  0  0
   -1.7924   18.4753   -2.3357 H   0  0  0  0  0  0  0  0  0  0  0  0
    2.0542   14.7112    1.3985 H   0  0  0  0  0  0  0  0  0  0  0  0
    3.6835   14.6936    0.6424 H   0  0  0  0  0  0  0  0  0  0  0  0
    2.7096   16.2030    0.6424 H   0  0  0  0  0  0  0  0  0  0  0  0
    3.7869   14.3316   -2.0205 H   0  0  0  0  0  0  0  0  0  0  0  0
    3.4698   13.1122   -0.6617 H   0  0  0  0  0  0  0  0  0  0  0  0
    2.1486   13.2283   -3.3869 H   0  0  0  0  0  0  0  0  0  0  0  0
    3.2520   11.9609   -2.7206 H   0  0  0  0  0  0  0  0  0  0  0  0
    1.4617   11.6612    0.2891 H   0  0  0  0  0  0  0  0  0  0  0  0
    1.3615   10.1379   -0.6576 H   0  0  0  0  0  0  0  0  0  0  0  0
    2.8802   11.0970   -0.6576 H   0  0  0  0  0  0  0  0  0  0  0  0
  1  2  1  0
  2  3  1  0
  3  4  1  0
  4  5  1  0
  5  6  1  0
  6  7  1  0
  7  8  1  0
  7  9  1  0
  2 10  1  0
 10 11  1  0
 11 12  1  0
 12 13  1  0
 13 14  1  6
 13 15  1  0
 15 16  1  0
 16 17  1  0
 17 18  2  0
 18 19  1  0
 19 20  1  0
 20 21  1  0
 21 22  1  0
 22 23  1  0
 22 24  1  0
 24 25  1  0
 24 26  1  0
 19 27  1  0
 27 28  1  1
 27 29  1  0
 29 30  1  0
 30 31  1  0
 31 32  1  1
  7  5  1  0
 31 10  1  0
 31 13  1  0
 27 15  1  0
 24 18  1  0
  1 33  1  0
  1 34  1  0
  1 35  1  0
  2 36  1  6
  3 37  1  0
  3 38  1  0
  4 39  1  0
  4 40  1  0
  5 41  1  1
  8 42  1  0
  8 43  1  0
  8 44  1  0
  9 45  1  0
  9 46  1  0
  9 47  1  0
 10 48  1  6
 11 49  1  0
 11 50  1  0
 12 51  1  0
 12 52  1  0
 14 53  1  0
 14 54  1  0
 14 55  1  0
 15 56  1  1
 16 57  1  0
 16 58  1  0
 17 59  1  0
 19 60  1  6
 20 61  1  0
 20 62  1  0
 21 63  1  0
 21 64  1  0
 22 65  1  6
 23 66  1  0
 25 67  1  0
 25 68  1  0
 25 69  1  0
 26 70  1  0
 26 71  1  0
 26 72  1  0
 28 73  1  0
 28 74  1  0
 28 75  1  0
 29 76  1  0
 29 77  1  0
 30 78  1  0
 30 79  1  0
 32 80  1  0
 32 81  1  0
 32 82  1  0
M  END
>  <meeko>  (14) 
{"is_sidechain": [false], "intermolecular_energy": 2.731, "internal_energy": -0.839}

$$$$
EPH_relaxed_0001_pdb2pqr_Repair_195_r2_0001_out
     RDKit          3D

 82 86  0  0  0  0  0  0  0  0999 V2000
    1.3020   16.4370   -4.1110 C   0  0  0  0  0  0  0  0  0  0  0  0
    1.1790   14.9130   -4.2050 C   0  0  2  0  0  0  0  0  0  0  0  0
    0.4610   14.4670   -5.4950 C   0  0  0  0  0  0  0  0  0  0  0  0
    1.3540   14.5000   -6.7390 C   0  0  0  0  0  0  0  0  0  0  0  0
    1.0570   15.6890   -7.6030 C   0  0  2  0  0  0  0  0  0  0  0  0
    0.4530   15.3760   -8.8650 O   0  0  0  0  0  0  0  0  0  0  0  0
    1.7630   15.9640   -8.9180 C   0  0  0  0  0  0  0  0  0  0  0  0
    2.8220   15.0460   -9.4420 C   0  0  0  0  0  0  0  0  0  0  0  0
    1.7730   17.3650   -9.4440 C   0  0  0  0  0  0  0  0  0  0  0  0
    0.4400   14.3750   -2.9860 C   0  0  1  0  0  0  0  0  0  0  0  0
   -0.9000   13.6840   -3.3560 C   0  0  0  0  0  0  0  0  0  0  0  0
   -1.0830   12.5060   -2.3650 C   0  0  0  0  0  0  0  0  0  0  0  0
   -0.0290   12.7560   -1.2610 C   0  0  1  0  0  0  0  0  0  0  0  0
   -0.6800   13.8160   -0.3180 C   0  0  0  0  0  0  0  0  0  0  0  0
    0.4540   11.4980   -0.4690 C   0  0  2  0  0  0  0  0  0  0  0  0
   -0.6390   10.7740    0.3360 C   0  0  0  0  0  0  0  0  0  0  0  0
   -0.8130   11.2450    1.7420 C   0  0  0  0  0  0  0  0  0  0  0  0
    0.0610   12.0080    2.4250 C   0  0  0  0  0  0  0  0  0  0  0  0
    1.4150   12.3940    1.8150 C   0  0  1  0  0  0  0  0  0  0  0  0
    2.5380   12.1660    2.8600 C   0  0  0  0  0  0  0  0  0  0  0  0
    2.2660   12.8850    4.1780 C   0  0  0  0  0  0  0  0  0  0  0  0
    0.9400   12.4310    4.7830 C   0  0  2  0  0  0  0  0  0  0  0  0
    1.0540   11.0580    5.1680 O   0  0  0  0  0  0  0  0  0  0  0  0
   -0.2660   12.6050    3.8170 C   0  0  0  0  0  0  0  0  0  0  0  0
   -0.5770   14.1110    3.6380 C   0  0  0  0  0  0  0  0  0  0  0  0
   -1.5150   11.9800    4.4950 C   0  0  0  0  0  0  0  0  0  0  0  0
    1.7510   11.7410    0.4050 C   0  0  1  0  0  0  0  0  0  0  0  0
    2.4180   10.3470    0.6100 C   0  0  0  0  0  0  0  0  0  0  0  0
    2.8130   12.6370   -0.3360 C   0  0  0  0  0  0  0  0  0  0  0  0
    2.2670   13.7910   -1.1980 C   0  0  0  0  0  0  0  0  0  0  0  0
    1.1600   13.2990   -2.1350 C   0  0  2  0  0  0  0  0  0  0  0  0
    1.7900   12.2480   -3.1110 C   0  0  0  0  0  0  0  0  0  0  0  0
    1.3263   16.7384   -3.0534 H   0  0  0  0  0  0  0  0  0  0  0  0
    2.2292   16.7613   -4.6061 H   0  0  0  0  0  0  0  0  0  0  0  0
    0.4388   16.9058   -4.6061 H   0  0  0  0  0  0  0  0  0  0  0  0
    2.1981   14.5001   -4.2342 H   0  0  0  0  0  0  0  0  0  0  0  0
    0.1003   13.4375   -5.3536 H   0  0  0  0  0  0  0  0  0  0  0  0
   -0.3594   15.1788   -5.6690 H   0  0  0  0  0  0  0  0  0  0  0  0
    2.4063   14.5439   -6.4215 H   0  0  0  0  0  0  0  0  0  0  0  0
    1.1574   13.5912   -7.3267 H   0  0  0  0  0  0  0  0  0  0  0  0
    0.8741   16.3164   -6.7182 H   0  0  0  0  0  0  0  0  0  0  0  0
    3.3560   14.5831   -8.5990 H   0  0  0  0  0  0  0  0  0  0  0  0
    2.3560   14.2613  -10.0561 H   0  0  0  0  0  0  0  0  0  0  0  0
    3.5326   15.6186  -10.0561 H   0  0  0  0  0  0  0  0  0  0  0  0
    1.7781   18.0728   -8.6020 H   0  0  0  0  0  0  0  0  0  0  0  0
    2.6723   17.5196  -10.0583 H   0  0  0  0  0  0  0  0  0  0  0  0
    0.8760   17.5324  -10.0583 H   0  0  0  0  0  0  0  0  0  0  0  0
    0.3376   15.3051   -2.4076 H   0  0  0  0  0  0  0  0  0  0  0  0
   -1.7332   14.3954   -3.2571 H   0  0  0  0  0  0  0  0  0  0  0  0
   -0.8868   13.3271   -4.3964 H   0  0  0  0  0  0  0  0  0  0  0  0
   -2.0979   12.5098   -1.9407 H   0  0  0  0  0  0  0  0  0  0  0  0
   -0.9528   11.5281   -2.8516 H   0  0  0  0  0  0  0  0  0  0  0  0
   -0.5050   13.5311    0.7300 H   0  0  0  0  0  0  0  0  0  0  0  0
   -0.2315   14.8020   -0.5097 H   0  0  0  0  0  0  0  0  0  0  0  0
   -1.7622   13.8619   -0.5097 H   0  0  0  0  0  0  0  0  0  0  0  0
    0.7377   10.8061   -1.2757 H   0  0  0  0  0  0  0  0  0  0  0  0
   -1.5956   10.9116   -0.1894 H   0  0  0  0  0  0  0  0  0  0  0  0
   -0.3211    9.7232    0.4042 H   0  0  0  0  0  0  0  0  0  0  0  0
   -1.7330   10.9431    2.2640 H   0  0  0  0  0  0  0  0  0  0  0  0
    1.3449   13.4643    1.5711 H   0  0  0  0  0  0  0  0  0  0  0  0
    2.6219   11.0872    3.0577 H   0  0  0  0  0  0  0  0  0  0  0  0
    3.4701   12.5750    2.4429 H   0  0  0  0  0  0  0  0  0  0  0  0
    3.0792   12.6620    4.8844 H   0  0  0  0  0  0  0  0  0  0  0  0
    2.2115   13.9663    3.9836 H   0  0  0  0  0  0  0  0  0  0  0  0
    0.7390   13.0718    5.6542 H   0  0  0  0  0  0  0  0  0  0  0  0
    0.6180   10.9570    6.0310 H   0  0  0  0  0  0  0  0  0  0  0  0
   -0.6749   14.5851    4.6257 H   0  0  0  0  0  0  0  0  0  0  0  0
    0.2411   14.5906    3.0805 H   0  0  0  0  0  0  0  0  0  0  0  0
   -1.5181   14.2273    3.0805 H   0  0  0  0  0  0  0  0  0  0  0  0
   -1.4050   12.0351    5.5881 H   0  0  0  0  0  0  0  0  0  0  0  0
   -2.4144   12.5342    4.1886 H   0  0  0  0  0  0  0  0  0  0  0  0
   -1.6106   10.9279    4.1886 H   0  0  0  0  0  0  0  0  0  0  0  0
    2.5160   10.1421    1.6863 H   0  0  0  0  0  0  0  0  0  0  0  0
    1.7941    9.5700    0.1442 H   0  0  0  0  0  0  0  0  0  0  0  0
    3.4145   10.3453    0.1442 H   0  0  0  0  0  0  0  0  0  0  0  0
    3.4706   13.0753    0.4291 H   0  0  0  0  0  0  0  0  0  0  0  0
    3.3160   11.9617   -1.0438 H   0  0  0  0  0  0  0  0  0  0  0  0
    1.8597   14.5714   -0.5384 H   0  0  0  0  0  0  0  0  0  0  0  0
    3.0896   14.1930   -1.8077 H   0  0  0  0  0  0  0  0  0  0  0  0
    2.2697   11.4478   -2.5282 H   0  0  0  0  0  0  0  0  0  0  0  0
    1.0010   11.8173   -3.7451 H   0  0  0  0  0  0  0  0  0  0  0  0
    2.5417   12.7409   -3.7451 H   0  0  0  0  0  0  0  0  0  0  0  0
  1  2  1  0
  2  3  1  0
  3  4  1  0
  4  5  1  0
  5  6  1  0
  6  7  1  0
  7  8  1  0
  7  9  1  0
  2 10  1  0
 10 11  1  0
 11 12  1  0
 12 13  1  0
 13 14  1  1
 13 15  1  0
 15 16  1  0
 16 17  1  0
 17 18  2  0
 18 19  1  0
 19 20  1  0
 20 21  1  0
 21 22  1  0
 22 23  1  0
 22 24  1  0
 24 25  1  0
 24 26  1  0
 19 27  1  0
 27 28  1  1
 27 29  1  0
 29 30  1  0
 30 31  1  0
 31 32  1  6
  7  5  1  0
 31 10  1  0
 31 13  1  0
 27 15  1  0
 24 18  1  0
  1 33  1  0
  1 34  1  0
  1 35  1  0
  2 36  1  6
  3 37  1  0
  3 38  1  0
  4 39  1  0
  4 40  1  0
  5 41  1  1
  8 42  1  0
  8 43  1  0
  8 44  1  0
  9 45  1  0
  9 46  1  0
  9 47  1  0
 10 48  1  1
 11 49  1  0
 11 50  1  0
 12 51  1  0
 12 52  1  0
 14 53  1  0
 14 54  1  0
 14 55  1  0
 15 56  1  6
 16 57  1  0
 16 58  1  0
 17 59  1  0
 19 60  1  6
 20 61  1  0
 20 62  1  0
 21 63  1  0
 21 64  1  0
 22 65  1  1
 23 66  1  0
 25 67  1  0
 25 68  1  0
 25 69  1  0
 26 70  1  0
 26 71  1  0
 26 72  1  0
 28 73  1  0
 28 74  1  0
 28 75  1  0
 29 76  1  0
 29 77  1  0
 30 78  1  0
 30 79  1  0
 32 80  1  0
 32 81  1  0
 32 82  1  0
M  END
>  <meeko>  (15) 
{"is_sidechain": [false], "intermolecular_energy": 2.731, "internal_energy": -0.839}

$$$$
EPH_relaxed_0001_pdb2pqr_Repair_195_r2_0001_out
     RDKit          3D

 82 86  0  0  0  0  0  0  0  0999 V2000
    1.7970   18.4680   -2.2740 C   0  0  0  0  0  0  0  0  0  0  0  0
    2.2060   17.3020   -3.1780 C   0  0  2  0  0  0  0  0  0  0  0  0
    1.1990   17.0740   -4.3230 C   0  0  0  0  0  0  0  0  0  0  0  0
    1.5840   15.9280   -5.2620 C   0  0  0  0  0  0  0  0  0  0  0  0
    0.5770   15.7450   -6.3570 C   0  0  2  0  0  0  0  0  0  0  0  0
    0.5970   14.4540   -6.9800 O   0  0  0  0  0  0  0  0  0  0  0  0
    0.9500   15.5680   -7.8160 C   0  0  0  0  0  0  0  0  0  0  0  0
    2.3790   15.5650   -8.2620 C   0  0  0  0  0  0  0  0  0  0  0  0
   -0.0740   15.8860   -8.8610 C   0  0  0  0  0  0  0  0  0  0  0  0
    2.3510   16.0300   -2.3510 C   0  0  1  0  0  0  0  0  0  0  0  0
    2.9950   16.2900   -0.9630 C   0  0  0  0  0  0  0  0  0  0  0  0
    2.3270   15.3050    0.0310 C   0  0  0  0  0  0  0  0  0  0  0  0
    1.5730   14.2960   -0.8670 C   0  0  1  0  0  0  0  0  0  0  0  0
    2.6650   13.2820   -1.3340 C   0  0  0  0  0  0  0  0  0  0  0  0
    0.3520   13.5690   -0.2150 C   0  0  2  0  0  0  0  0  0  0  0  0
    0.6900   12.6810    0.9950 C   0  0  0  0  0  0  0  0  0  0  0  0
    1.0070   11.2580    0.6730 C   0  0  0  0  0  0  0  0  0  0  0  0
    0.7450   10.6440   -0.4960 C   0  0  0  0  0  0  0  0  0  0  0  0
   -0.0210   11.3660   -1.6110 C   0  0  1  0  0  0  0  0  0  0  0  0
   -1.1220   10.4290   -2.1740 C   0  0  0  0  0  0  0  0  0  0  0  0
   -0.5680    9.0810   -2.6260 C   0  0  0  0  0  0  0  0  0  0  0  0
    0.1360    8.3680   -1.4740 C   0  0  2  0  0  0  0  0  0  0  0  0
   -0.8370    8.0160   -0.4860 O   0  0  0  0  0  0  0  0  0  0  0  0
    1.2600    9.2200   -0.8210 C   0  0  0  0  0  0  0  0  0  0  0  0
    2.4530    9.3460   -1.8000 C   0  0  0  0  0  0  0  0  0  0  0  0
    1.7920    8.4430    0.4140 C   0  0  0  0  0  0  0  0  0  0  0  0
   -0.5770   12.8100   -1.2480 C   0  0  1  0  0  0  0  0  0  0  0  0
   -1.9800   12.6880   -0.5780 C   0  0  0  0  0  0  0  0  0  0  0  0
   -0.7890   13.6290   -2.5760 C   0  0  0  0  0  0  0  0  0  0  0  0
    0.4220   14.4220   -3.1040 C   0  0  0  0  0  0  0  0  0  0  0  0
    1.0540   15.2630   -1.9910 C   0  0  2  0  0  0  0  0  0  0  0  0
   -0.0140   16.3070   -1.5160 C   0  0  0  0  0  0  0  0  0  0  0  0
    1.9017   18.1694   -1.2205 H   0  0  0  0  0  0  0  0  0  0  0  0
    2.4452   19.3335   -2.4760 H   0  0  0  0  0  0  0  0  0  0  0  0
    0.7502   18.7389   -2.4760 H   0  0  0  0  0  0  0  0  0  0  0  0
    3.1724   17.5607   -3.6353 H   0  0  0  0  0  0  0  0  0  0  0  0
    0.2173   16.8467   -3.8819 H   0  0  0  0  0  0  0  0  0  0  0  0
    1.1851   17.9934   -4.9267 H   0  0  0  0  0  0  0  0  0  0  0  0
    2.5631   16.1495   -5.7118 H   0  0  0  0  0  0  0  0  0  0  0  0
    1.6213   15.0001   -4.6725 H   0  0  0  0  0  0  0  0  0  0  0  0
   -0.1280   16.4223   -5.8529 H   0  0  0  0  0  0  0  0  0  0  0  0
    3.0380   15.5636   -7.3812 H   0  0  0  0  0  0  0  0  0  0  0  0
    2.5726   14.6664   -8.8662 H   0  0  0  0  0  0  0  0  0  0  0  0
    2.5764   16.4627   -8.8662 H   0  0  0  0  0  0  0  0  0  0  0  0
   -1.0160   16.1785   -8.3742 H   0  0  0  0  0  0  0  0  0  0  0  0
    0.2872   16.7143   -9.4883 H   0  0  0  0  0  0  0  0  0  0  0  0
   -0.2455   14.9988   -9.4883 H   0  0  0  0  0  0  0  0  0  0  0  0
    2.9626   15.4307   -3.0414 H   0  0  0  0  0  0  0  0  0  0  0  0
    4.0787   16.1065   -1.0077 H   0  0  0  0  0  0  0  0  0  0  0  0
    2.8450   17.3329   -0.6469 H   0  0  0  0  0  0  0  0  0  0  0  0
    3.0867   14.7917    0.6388 H   0  0  0  0  0  0  0  0  0  0  0  0
    1.6570   15.8161    0.7380 H   0  0  0  0  0  0  0  0  0  0  0  0
    3.1487   12.8329   -0.4540 H   0  0  0  0  0  0  0  0  0  0  0  0
    2.1966   12.4913   -1.9385 H   0  0  0  0  0  0  0  0  0  0  0  0
    3.4189   13.8076   -1.9385 H   0  0  0  0  0  0  0  0  0  0  0  0
   -0.2350   14.4082    0.1865 H   0  0  0  0  0  0  0  0  0  0  0  0
    1.5626   13.1170    1.5034 H   0  0  0  0  0  0  0  0  0  0  0  0
   -0.2164   12.6574    1.6178 H   0  0  0  0  0  0  0  0  0  0  0  0
    1.4958   10.6610    1.4570 H   0  0  0  0  0  0  0  0  0  0  0  0
    0.7192   11.5858   -2.3945 H   0  0  0  0  0  0  0  0  0  0  0  0
   -1.8732   10.2563   -1.3893 H   0  0  0  0  0  0  0  0  0  0  0  0
   -1.5617   10.9214   -3.0539 H   0  0  0  0  0  0  0  0  0  0  0  0
   -1.3966    8.4532   -2.9856 H   0  0  0  0  0  0  0  0  0  0  0  0
    0.1612    9.2527   -3.4315 H   0  0  0  0  0  0  0  0  0  0  0  0
    0.6225    7.4728   -1.8886 H   0  0  0  0  0  0  0  0  0  0  0  0
   -1.0030    7.0610   -0.5640 H   0  0  0  0  0  0  0  0  0  0  0  0
    3.3876    9.4447   -1.2283 H   0  0  0  0  0  0  0  0  0  0  0  0
    2.5038    8.4482   -2.4336 H   0  0  0  0  0  0  0  0  0  0  0  0
    2.3151   10.2346   -2.4336 H   0  0  0  0  0  0  0  0  0  0  0  0
    1.4517    8.9400    1.3344 H   0  0  0  0  0  0  0  0  0  0  0  0
    1.4095    7.4119    0.3912 H   0  0  0  0  0  0  0  0  0  0  0  0
    2.8916    8.4267    0.3912 H   0  0  0  0  0  0  0  0  0  0  0  0
   -1.8660   12.6979    0.5160 H   0  0  0  0  0  0  0  0  0  0  0  0
   -2.6096   13.5348   -0.8887 H   0  0  0  0  0  0  0  0  0  0  0  0
   -2.4540   11.7452   -0.8887 H   0  0  0  0  0  0  0  0  0  0  0  0
   -1.0895   12.9189   -3.3605 H   0  0  0  0  0  0  0  0  0  0  0  0
   -1.5447   14.3889   -2.3280 H   0  0  0  0  0  0  0  0  0  0  0  0
    1.1720   13.7173   -3.4925 H   0  0  0  0  0  0  0  0  0  0  0  0
    0.0784   15.0971   -3.9016 H   0  0  0  0  0  0  0  0  0  0  0  0
   -0.0391   16.3315   -0.4166 H   0  0  0  0  0  0  0  0  0  0  0  0
    0.2516   17.3034   -1.8990 H   0  0  0  0  0  0  0  0  0  0  0  0
   -1.0041   16.0189   -1.8990 H   0  0  0  0  0  0  0  0  0  0  0  0
  1  2  1  0
  2  3  1  0
  3  4  1  0
  4  5  1  0
  5  6  1  0
  6  7  1  0
  7  8  1  0
  7  9  1  0
  2 10  1  0
 10 11  1  0
 11 12  1  0
 12 13  1  0
 13 14  1  6
 13 15  1  0
 15 16  1  0
 16 17  1  0
 17 18  2  0
 18 19  1  0
 19 20  1  0
 20 21  1  0
 21 22  1  0
 22 23  1  0
 22 24  1  0
 24 25  1  0
 24 26  1  0
 19 27  1  0
 27 28  1  1
 27 29  1  0
 29 30  1  0
 30 31  1  0
 31 32  1  1
  7  5  1  0
 31 10  1  0
 31 13  1  0
 27 15  1  0
 24 18  1  0
  1 33  1  0
  1 34  1  0
  1 35  1  0
  2 36  1  6
  3 37  1  0
  3 38  1  0
  4 39  1  0
  4 40  1  0
  5 41  1  6
  8 42  1  0
  8 43  1  0
  8 44  1  0
  9 45  1  0
  9 46  1  0
  9 47  1  0
 10 48  1  6
 11 49  1  0
 11 50  1  0
 12 51  1  0
 12 52  1  0
 14 53  1  0
 14 54  1  0
 14 55  1  0
 15 56  1  1
 16 57  1  0
 16 58  1  0
 17 59  1  0
 19 60  1  6
 20 61  1  0
 20 62  1  0
 21 63  1  0
 21 64  1  0
 22 65  1  6
 23 66  1  0
 25 67  1  0
 25 68  1  0
 25 69  1  0
 26 70  1  0
 26 71  1  0
 26 72  1  0
 28 73  1  0
 28 74  1  0
 28 75  1  0
 29 76  1  0
 29 77  1  0
 30 78  1  0
 30 79  1  0
 32 80  1  0
 32 81  1  0
 32 82  1  0
M  END
>  <meeko>  (16) 
{"is_sidechain": [false], "intermolecular_energy": 2.731, "internal_energy": -0.839}

$$$$
EPH_relaxed_0001_pdb2pqr_Repair_195_r2_0001_out
     RDKit          3D

 82 86  0  0  0  0  0  0  0  0999 V2000
    0.0760    7.7910   -2.3140 C   0  0  0  0  0  0  0  0  0  0  0  0
   -1.2420    8.2850   -1.7120 C   0  0  2  0  0  0  0  0  0  0  0  0
   -2.4690    7.7000   -2.4400 C   0  0  0  0  0  0  0  0  0  0  0  0
   -3.7420    7.6900   -1.5890 C   0  0  0  0  0  0  0  0  0  0  0  0
   -4.7820    6.7740   -2.1600 C   0  0  2  0  0  0  0  0  0  0  0  0
   -5.4140    7.2550   -3.3530 O   0  0  0  0  0  0  0  0  0  0  0  0
   -6.2610    7.1100   -2.2020 C   0  0  0  0  0  0  0  0  0  0  0  0
   -6.7820    8.4050   -1.6630 C   0  0  0  0  0  0  0  0  0  0  0  0
   -7.2470    5.9890   -2.3160 C   0  0  0  0  0  0  0  0  0  0  0  0
   -1.2920    9.8080   -1.7490 C   0  0  1  0  0  0  0  0  0  0  0  0
   -2.7150   10.3660   -1.4780 C   0  0  0  0  0  0  0  0  0  0  0  0
   -2.5340   11.6900   -0.6920 C   0  0  0  0  0  0  0  0  0  0  0  0
   -1.0280   12.0200   -0.8240 C   0  0  1  0  0  0  0  0  0  0  0  0
   -0.8860   12.6870   -2.2280 C   0  0  0  0  0  0  0  0  0  0  0  0
   -0.4140   12.9120    0.3030 C   0  0  2  0  0  0  0  0  0  0  0  0
   -1.0100   14.3260    0.4140 C   0  0  0  0  0  0  0  0  0  0  0  0
   -0.3230   15.3730   -0.4000 C   0  0  0  0  0  0  0  0  0  0  0  0
    0.8930   15.2520   -0.9630 C   0  0  0  0  0  0  0  0  0  0  0  0
    1.7520   14.0040   -0.7230 C   0  0  1  0  0  0  0  0  0  0  0  0
    3.2040   14.4320   -0.3810 C   0  0  0  0  0  0  0  0  0  0  0  0
    3.8030   15.3600   -1.4340 C   0  0  0  0  0  0  0  0  0  0  0  0
    2.9530   16.6160   -1.6020 C   0  0  2  0  0  0  0  0  0  0  0  0
    3.0240   17.3860   -0.3980 O   0  0  0  0  0  0  0  0  0  0  0  0
    1.4670   16.3090   -1.9390 C   0  0  0  0  0  0  0  0  0  0  0  0
    1.3640   15.7470   -3.3780 C   0  0  0  0  0  0  0  0  0  0  0  0
    0.6900   17.6540   -1.9420 C   0  0  0  0  0  0  0  0  0  0  0  0
    1.1680   12.9490    0.3110 C   0  0  1  0  0  0  0  0  0  0  0  0
    1.5970   13.3310    1.7610 C   0  0  0  0  0  0  0  0  0  0  0  0
    1.8010   11.5370    0.0180 C   0  0  0  0  0  0  0  0  0  0  0  0
    1.0800   10.6540   -1.0180 C   0  0  0  0  0  0  0  0  0  0  0  0
   -0.4200   10.5740   -0.7220 C   0  0  2  0  0  0  0  0  0  0  0  0
   -0.5960    9.8860    0.6750 C   0  0  0  0  0  0  0  0  0  0  0  0
    0.7736    7.5295   -1.5046 H   0  0  0  0  0  0  0  0  0  0  0  0
   -0.1145    6.9032   -2.9350 H   0  0  0  0  0  0  0  0  0  0  0  0
    0.5160    8.5853   -2.9350 H   0  0  0  0  0  0  0  0  0  0  0  0
   -1.2800    7.9368   -0.6693 H   0  0  0  0  0  0  0  0  0  0  0  0
   -2.6581    8.3021   -3.3409 H   0  0  0  0  0  0  0  0  0  0  0  0
   -2.2327    6.6523   -2.6778 H   0  0  0  0  0  0  0  0  0  0  0  0
   -3.4891    7.3531   -0.5728 H   0  0  0  0  0  0  0  0  0  0  0  0
   -4.1534    8.7101   -1.5745 H   0  0  0  0  0  0  0  0  0  0  0  0
   -4.2360    5.8905   -1.7976 H   0  0  0  0  0  0  0  0  0  0  0  0
   -6.7702    8.3757   -0.5635 H   0  0  0  0  0  0  0  0  0  0  0  0
   -6.1461    9.2309   -2.0147 H   0  0  0  0  0  0  0  0  0  0  0  0
   -7.8126    8.5604   -2.0147 H   0  0  0  0  0  0  0  0  0  0  0  0
   -7.5406    5.6552   -1.3098 H   0  0  0  0  0  0  0  0  0  0  0  0
   -8.1368    6.3373   -2.8610 H   0  0  0  0  0  0  0  0  0  0  0  0
   -6.7880    5.1509   -2.8610 H   0  0  0  0  0  0  0  0  0  0  0  0
   -0.9124    9.9799   -2.7670 H   0  0  0  0  0  0  0  0  0  0  0  0
   -3.2341   10.5578   -2.4287 H   0  0  0  0  0  0  0  0  0  0  0  0
   -3.3191    9.6464   -0.9059 H   0  0  0  0  0  0  0  0  0  0  0  0
   -3.1469   12.4901   -1.1328 H   0  0  0  0  0  0  0  0  0  0  0  0
   -2.8504   11.5985    0.3575 H   0  0  0  0  0  0  0  0  0  0  0  0
   -0.6584   13.7561   -2.1047 H   0  0  0  0  0  0  0  0  0  0  0  0
   -0.0713   12.2005   -2.7844 H   0  0  0  0  0  0  0  0  0  0  0  0
   -1.8282   12.5745   -2.7844 H   0  0  0  0  0  0  0  0  0  0  0  0
   -0.7254   12.3845    1.2166 H   0  0  0  0  0  0  0  0  0  0  0  0
   -2.0603   14.2786    0.0905 H   0  0  0  0  0  0  0  0  0  0  0  0
   -0.8861   14.6271    1.4647 H   0  0  0  0  0  0  0  0  0  0  0  0
   -0.8561   16.3231   -0.5520 H   0  0  0  0  0  0  0  0  0  0  0  0
    1.7415   13.4417   -1.6683 H   0  0  0  0  0  0  0  0  0  0  0  0
    3.1992   14.9538    0.5874 H   0  0  0  0  0  0  0  0  0  0  0  0
    3.8214   13.5223   -0.3471 H   0  0  0  0  0  0  0  0  0  0  0  0
    4.8171   15.6508   -1.1224 H   0  0  0  0  0  0  0  0  0  0  0  0
    3.8338   14.8262   -2.3953 H   0  0  0  0  0  0  0  0  0  0  0  0
    3.3593   17.1772   -2.4564 H   0  0  0  0  0  0  0  0  0  0  0  0
    2.1150   17.5190   -0.0800 H   0  0  0  0  0  0  0  0  0  0  0  0
    1.1658   14.6658   -3.3361 H   0  0  0  0  0  0  0  0  0  0  0  0
    0.5431   16.2499   -3.9101 H   0  0  0  0  0  0  0  0  0  0  0  0
    2.3099   15.9260   -3.9101 H   0  0  0  0  0  0  0  0  0  0  0  0
    0.5056   17.9732   -0.9056 H   0  0  0  0  0  0  0  0  0  0  0  0
    1.2848   18.4199   -2.4613 H   0  0  0  0  0  0  0  0  0  0  0  0
   -0.2706   17.5214   -2.4613 H   0  0  0  0  0  0  0  0  0  0  0  0
    0.9778   12.7796    2.4839 H   0  0  0  0  0  0  0  0  0  0  0  0
    2.6552   13.0706    1.9109 H   0  0  0  0  0  0  0  0  0  0  0  0
    1.4606   14.4122    1.9109 H   0  0  0  0  0  0  0  0  0  0  0  0
    2.8277   11.7007   -0.3413 H   0  0  0  0  0  0  0  0  0  0  0  0
    1.7270   10.9859    0.9671 H   0  0  0  0  0  0  0  0  0  0  0  0
    1.2265   11.0829   -2.0203 H   0  0  0  0  0  0  0  0  0  0  0  0
    1.5017    9.6393   -0.9676 H   0  0  0  0  0  0  0  0  0  0  0  0
   -0.4081   10.6207    1.4718 H   0  0  0  0  0  0  0  0  0  0  0  0
   -1.6219    9.4998    0.7669 H   0  0  0  0  0  0  0  0  0  0  0  0
    0.1184    9.0546    0.7669 H   0  0  0  0  0  0  0  0  0  0  0  0
  1  2  1  0
  2  3  1  0
  3  4  1  0
  4  5  1  0
  5  6  1  0
  6  7  1  0
  7  8  1  0
  7  9  1  0
  2 10  1  0
 10 11  1  0
 11 12  1  0
 12 13  1  0
 13 14  1  6
 13 15  1  0
 15 16  1  0
 16 17  1  0
 17 18  2  0
 18 19  1  0
 19 20  1  0
 20 21  1  0
 21 22  1  0
 22 23  1  0
 22 24  1  0
 24 25  1  0
 24 26  1  0
 19 27  1  0
 27 28  1  1
 27 29  1  0
 29 30  1  0
 30 31  1  0
 31 32  1  1
  7  5  1  0
 31 10  1  0
 31 13  1  0
 27 15  1  0
 24 18  1  0
  1 33  1  0
  1 34  1  0
  1 35  1  0
  2 36  1  1
  3 37  1  0
  3 38  1  0
  4 39  1  0
  4 40  1  0
  5 41  1  6
  8 42  1  0
  8 43  1  0
  8 44  1  0
  9 45  1  0
  9 46  1  0
  9 47  1  0
 10 48  1  6
 11 49  1  0
 11 50  1  0
 12 51  1  0
 12 52  1  0
 14 53  1  0
 14 54  1  0
 14 55  1  0
 15 56  1  1
 16 57  1  0
 16 58  1  0
 17 59  1  0
 19 60  1  6
 20 61  1  0
 20 62  1  0
 21 63  1  0
 21 64  1  0
 22 65  1  6
 23 66  1  0
 25 67  1  0
 25 68  1  0
 25 69  1  0
 26 70  1  0
 26 71  1  0
 26 72  1  0
 28 73  1  0
 28 74  1  0
 28 75  1  0
 29 76  1  0
 29 77  1  0
 30 78  1  0
 30 79  1  0
 32 80  1  0
 32 81  1  0
 32 82  1  0
M  END
>  <meeko>  (17) 
{"is_sidechain": [false], "intermolecular_energy": 2.731, "internal_energy": -0.839}

$$$$
EPH_relaxed_0001_pdb2pqr_Repair_195_r2_0001_out
     RDKit          3D

 82 86  0  0  0  0  0  0  0  0999 V2000
  -14.9710    9.1600    0.8020 C   0  0  0  0  0  0  0  0  0  0  0  0
  -14.0960    9.2040   -0.4540 C   0  0  2  0  0  0  0  0  0  0  0  0
  -14.5160    8.1440   -1.4920 C   0  0  0  0  0  0  0  0  0  0  0  0
  -14.6200    8.6870   -2.9190 C   0  0  0  0  0  0  0  0  0  0  0  0
  -15.2870   10.0290   -2.9540 C   0  0  2  0  0  0  0  0  0  0  0  0
  -14.9690   10.8260   -4.1020 O   0  0  0  0  0  0  0  0  0  0  0  0
  -14.5360   11.3410   -2.8330 C   0  0  0  0  0  0  0  0  0  0  0  0
  -13.0490   11.3760   -2.6660 C   0  0  0  0  0  0  0  0  0  0  0  0
  -15.2860   12.5570   -2.3880 C   0  0  0  0  0  0  0  0  0  0  0  0
  -12.6320    9.0110   -0.0740 C   0  0  1  0  0  0  0  0  0  0  0  0
  -12.4250    8.8760    1.4580 C   0  0  0  0  0  0  0  0  0  0  0  0
  -11.2600    7.8750    1.6660 C   0  0  0  0  0  0  0  0  0  0  0  0
  -10.6210    7.7240    0.2650 C   0  0  1  0  0  0  0  0  0  0  0  0
   -9.6920    8.9690    0.1110 C   0  0  0  0  0  0  0  0  0  0  0  0
   -9.8500    6.3910   -0.0020 C   0  0  2  0  0  0  0  0  0  0  0  0
   -8.6260    6.1530    0.8990 C   0  0  0  0  0  0  0  0  0  0  0  0
   -7.3320    6.6800    0.3710 C   0  0  0  0  0  0  0  0  0  0  0  0
   -7.1050    7.0630   -0.8990 C   0  0  0  0  0  0  0  0  0  0  0  0
   -8.1820    6.8920   -1.9790 C   0  0  1  0  0  0  0  0  0  0  0  0
   -7.5460    6.2710   -3.2500 C   0  0  0  0  0  0  0  0  0  0  0  0
   -6.3410    7.0620   -3.7490 C   0  0  0  0  0  0  0  0  0  0  0  0
   -5.2680    7.1600   -2.6670 C   0  0  2  0  0  0  0  0  0  0  0  0
   -4.7350    5.8540   -2.4270 O   0  0  0  0  0  0  0  0  0  0  0  0
   -5.7940    7.7630   -1.3350 C   0  0  0  0  0  0  0  0  0  0  0  0
   -6.0900    9.2710   -1.5270 C   0  0  0  0  0  0  0  0  0  0  0  0
   -4.6520    7.6750   -0.2870 C   0  0  0  0  0  0  0  0  0  0  0  0
   -9.5040    6.1360   -1.5250 C   0  0  1  0  0  0  0  0  0  0  0  0
   -9.3190    4.5960   -1.6880 C   0  0  0  0  0  0  0  0  0  0  0  0
  -10.6840    6.5450   -2.4830 C   0  0  0  0  0  0  0  0  0  0  0  0
  -11.4850    7.8050   -2.1010 C   0  0  0  0  0  0  0  0  0  0  0  0
  -11.9130    7.7570   -0.6310 C   0  0  2  0  0  0  0  0  0  0  0  0
  -12.8670    6.5270   -0.4500 C   0  0  0  0  0  0  0  0  0  0  0  0
  -14.3310    9.1922    1.6961 H   0  0  0  0  0  0  0  0  0  0  0  0
  -15.6504   10.0251    0.8061 H   0  0  0  0  0  0  0  0  0  0  0  0
  -15.5602    8.2311    0.8061 H   0  0  0  0  0  0  0  0  0  0  0  0
  -14.2324   10.1918   -0.9184 H   0  0  0  0  0  0  0  0  0  0  0  0
  -13.7715    7.3343   -1.4821 H   0  0  0  0  0  0  0  0  0  0  0  0
  -15.5196    7.7953   -1.2070 H   0  0  0  0  0  0  0  0  0  0  0  0
  -13.6079    8.7808   -3.3394 H   0  0  0  0  0  0  0  0  0  0  0  0
  -15.2284    7.9860   -3.5093 H   0  0  0  0  0  0  0  0  0  0  0  0
  -16.1662    9.6311   -2.4260 H   0  0  0  0  0  0  0  0  0  0  0  0
  -12.8004   11.3819   -1.5945 H   0  0  0  0  0  0  0  0  0  0  0  0
  -12.6057   10.4880   -3.1404 H   0  0  0  0  0  0  0  0  0  0  0  0
  -12.6480   12.2838   -3.1404 H   0  0  0  0  0  0  0  0  0  0  0  0
  -15.3079   12.5925   -1.2888 H   0  0  0  0  0  0  0  0  0  0  0  0
  -14.7863   13.4577   -2.7740 H   0  0  0  0  0  0  0  0  0  0  0  0
  -16.3152   12.5147   -2.7740 H   0  0  0  0  0  0  0  0  0  0  0  0
  -12.2037    9.9203   -0.5210 H   0  0  0  0  0  0  0  0  0  0  0  0
  -12.1671    9.8529    1.8928 H   0  0  0  0  0  0  0  0  0  0  0  0
  -13.3425    8.5217    1.9505 H   0  0  0  0  0  0  0  0  0  0  0  0
  -10.5293    8.2734    2.3853 H   0  0  0  0  0  0  0  0  0  0  0  0
  -11.6041    6.9130    2.0736 H   0  0  0  0  0  0  0  0  0  0  0  0
   -9.4126    9.3434    1.1069 H   0  0  0  0  0  0  0  0  0  0  0  0
   -8.7845    8.6833   -0.4412 H   0  0  0  0  0  0  0  0  0  0  0  0
  -10.2242    9.7576   -0.4412 H   0  0  0  0  0  0  0  0  0  0  0  0
  -10.5884    5.6297    0.2898 H   0  0  0  0  0  0  0  0  0  0  0  0
   -8.8190    6.6353    1.8686 H   0  0  0  0  0  0  0  0  0  0  0  0
   -8.5052    5.0617    0.9656 H   0  0  0  0  0  0  0  0  0  0  0  0
   -6.4945    6.7619    1.0795 H   0  0  0  0  0  0  0  0  0  0  0  0
   -8.5521    7.9032   -2.2037 H   0  0  0  0  0  0  0  0  0  0  0  0
   -7.2226    5.2457   -3.0172 H   0  0  0  0  0  0  0  0  0  0  0  0
   -8.3066    6.2858   -4.0445 H   0  0  0  0  0  0  0  0  0  0  0  0
   -5.9187    6.5573   -4.6304 H   0  0  0  0  0  0  0  0  0  0  0  0
   -6.6711    8.0783   -4.0099 H   0  0  0  0  0  0  0  0  0  0  0  0
   -4.4900    7.8451   -3.0350 H   0  0  0  0  0  0  0  0  0  0  0  0
   -5.4830    5.2350   -2.3830 H   0  0  0  0  0  0  0  0  0  0  0  0
   -6.1848    9.7542   -0.5434 H   0  0  0  0  0  0  0  0  0  0  0  0
   -5.2664    9.7379   -2.0870 H   0  0  0  0  0  0  0  0  0  0  0  0
   -7.0290    9.3920   -2.0870 H   0  0  0  0  0  0  0  0  0  0  0  0
   -5.0803    7.7080    0.7257 H   0  0  0  0  0  0  0  0  0  0  0  0
   -4.1023    6.7318   -0.4221 H   0  0  0  0  0  0  0  0  0  0  0  0
   -3.9643    8.5228   -0.4221 H   0  0  0  0  0  0  0  0  0  0  0  0
   -9.2626    4.1263   -0.6949 H   0  0  0  0  0  0  0  0  0  0  0  0
  -10.1737    4.1806   -2.2420 H   0  0  0  0  0  0  0  0  0  0  0  0
   -8.3902    4.3949   -2.2420 H   0  0  0  0  0  0  0  0  0  0  0  0
  -10.2578    6.7123   -3.4832 H   0  0  0  0  0  0  0  0  0  0  0  0
  -11.4048    5.7164   -2.4214 H   0  0  0  0  0  0  0  0  0  0  0  0
  -10.8576    8.6937   -2.2644 H   0  0  0  0  0  0  0  0  0  0  0  0
  -12.3876    7.8507   -2.7281 H   0  0  0  0  0  0  0  0  0  0  0  0
  -13.0168    6.3339    0.6225 H   0  0  0  0  0  0  0  0  0  0  0  0
  -13.8366    6.7423   -0.9227 H   0  0  0  0  0  0  0  0  0  0  0  0
  -12.4172    5.6414   -0.9227 H   0  0  0  0  0  0  0  0  0  0  0  0
  1  2  1  0
  2  3  1  0
  3  4  1  0
  4  5  1  0
  5  6  1  0
  6  7  1  0
  7  8  1  0
  7  9  1  0
  2 10  1  0
 10 11  1  0
 11 12  1  0
 12 13  1  0
 13 14  1  6
 13 15  1  0
 15 16  1  0
 16 17  1  0
 17 18  2  0
 18 19  1  0
 19 20  1  0
 20 21  1  0
 21 22  1  0
 22 23  1  0
 22 24  1  0
 24 25  1  0
 24 26  1  0
 19 27  1  0
 27 28  1  1
 27 29  1  0
 29 30  1  0
 30 31  1  0
 31 32  1  6
  7  5  1  0
 31 10  1  0
 31 13  1  0
 27 15  1  0
 24 18  1  0
  1 33  1  0
  1 34  1  0
  1 35  1  0
  2 36  1  6
  3 37  1  0
  3 38  1  0
  4 39  1  0
  4 40  1  0
  5 41  1  1
  8 42  1  0
  8 43  1  0
  8 44  1  0
  9 45  1  0
  9 46  1  0
  9 47  1  0
 10 48  1  6
 11 49  1  0
 11 50  1  0
 12 51  1  0
 12 52  1  0
 14 53  1  0
 14 54  1  0
 14 55  1  0
 15 56  1  1
 16 57  1  0
 16 58  1  0
 17 59  1  0
 19 60  1  6
 20 61  1  0
 20 62  1  0
 21 63  1  0
 21 64  1  0
 22 65  1  6
 23 66  1  0
 25 67  1  0
 25 68  1  0
 25 69  1  0
 26 70  1  0
 26 71  1  0
 26 72  1  0
 28 73  1  0
 28 74  1  0
 28 75  1  0
 29 76  1  0
 29 77  1  0
 30 78  1  0
 30 79  1  0
 32 80  1  0
 32 81  1  0
 32 82  1  0
M  END
>  <meeko>  (18) 
{"is_sidechain": [false], "intermolecular_energy": 2.731, "internal_energy": -0.839}

$$$$
EPH_relaxed_0001_pdb2pqr_Repair_195_r2_0001_out
     RDKit          3D

 82 86  0  0  0  0  0  0  0  0999 V2000
   -1.9920   14.1620    0.2430 C   0  0  0  0  0  0  0  0  0  0  0  0
   -0.6890   14.9650    0.2880 C   0  0  2  0  0  0  0  0  0  0  0  0
   -0.6900   16.1310   -0.7200 C   0  0  0  0  0  0  0  0  0  0  0  0
    0.6140   16.2600   -1.5130 C   0  0  0  0  0  0  0  0  0  0  0  0
    0.8290   17.6610   -2.0020 C   0  0  2  0  0  0  0  0  0  0  0  0
    1.8630   17.7990   -2.9850 O   0  0  0  0  0  0  0  0  0  0  0  0
    2.0910   18.4580   -1.7280 C   0  0  0  0  0  0  0  0  0  0  0  0
    3.2220   17.8810   -0.9360 C   0  0  0  0  0  0  0  0  0  0  0  0
    2.0260   19.9510   -1.8100 C   0  0  0  0  0  0  0  0  0  0  0  0
    0.4970   14.0460    0.0210 C   0  0  1  0  0  0  0  0  0  0  0  0
    0.7410   13.0350    1.1730 C   0  0  0  0  0  0  0  0  0  0  0  0
    1.2440   11.7230    0.5180 C   0  0  0  0  0  0  0  0  0  0  0  0
    1.5890   12.1210   -0.9360 C   0  0  1  0  0  0  0  0  0  0  0  0
    3.0060   12.7700   -0.8490 C   0  0  0  0  0  0  0  0  0  0  0  0
    1.5450   10.9730   -1.9960 C   0  0  2  0  0  0  0  0  0  0  0  0
    2.5500    9.8310   -1.7640 C   0  0  0  0  0  0  0  0  0  0  0  0
    3.8780   10.0060   -2.4230 C   0  0  0  0  0  0  0  0  0  0  0  0
    4.1560   10.8910   -3.3980 C   0  0  0  0  0  0  0  0  0  0  0  0
    3.0530   11.7680   -4.0040 C   0  0  1  0  0  0  0  0  0  0  0  0
    3.1670   11.7480   -5.5510 C   0  0  0  0  0  0  0  0  0  0  0  0
    4.5580   12.1390   -6.0410 C   0  0  0  0  0  0  0  0  0  0  0  0
    5.6210   11.2080   -5.4630 C   0  0  2  0  0  0  0  0  0  0  0  0
    5.4300    9.8980   -6.0050 O   0  0  0  0  0  0  0  0  0  0  0  0
    5.5960   11.1400   -3.9100 C   0  0  0  0  0  0  0  0  0  0  0  0
    6.0970   12.4820   -3.3220 C   0  0  0  0  0  0  0  0  0  0  0  0
    6.6200   10.0610   -3.4640 C   0  0  0  0  0  0  0  0  0  0  0  0
    1.5760   11.4740   -3.4970 C   0  0  1  0  0  0  0  0  0  0  0  0
    0.9330   10.3440   -4.3580 C   0  0  0  0  0  0  0  0  0  0  0  0
    0.6910   12.7580   -3.7180 C   0  0  0  0  0  0  0  0  0  0  0  0
    0.6830   13.8000   -2.5830 C   0  0  0  0  0  0  0  0  0  0  0  0
    0.4230   13.1330   -1.2280 C   0  0  2  0  0  0  0  0  0  0  0  0
   -1.0060   12.4910   -1.2790 C   0  0  0  0  0  0  0  0  0  0  0  0
   -2.3300   13.9537    1.2689 H   0  0  0  0  0  0  0  0  0  0  0  0
   -2.7623   14.7423   -0.2861 H   0  0  0  0  0  0  0  0  0  0  0  0
   -1.8198   13.2131   -0.2861 H   0  0  0  0  0  0  0  0  0  0  0  0
   -0.6030   15.3999    1.2947 H   0  0  0  0  0  0  0  0  0  0  0  0
   -1.5148   15.9749   -1.4308 H   0  0  0  0  0  0  0  0  0  0  0  0
   -0.8063   17.0580   -0.1394 H   0  0  0  0  0  0  0  0  0  0  0  0
    1.4555   15.9758   -0.8641 H   0  0  0  0  0  0  0  0  0  0  0  0
    0.5501   15.5971   -2.3885 H   0  0  0  0  0  0  0  0  0  0  0  0
   -0.2367   17.8976   -1.8666 H   0  0  0  0  0  0  0  0  0  0  0  0
    3.0102   17.9891    0.1380 H   0  0  0  0  0  0  0  0  0  0  0  0
    3.3354   16.8149   -1.1819 H   0  0  0  0  0  0  0  0  0  0  0  0
    4.1517   18.4149   -1.1819 H   0  0  0  0  0  0  0  0  0  0  0  0
    2.0076   20.3735   -0.7946 H   0  0  0  0  0  0  0  0  0  0  0  0
    2.9086   20.3275   -2.3479 H   0  0  0  0  0  0  0  0  0  0  0  0
    1.1140   20.2493   -2.3479 H   0  0  0  0  0  0  0  0  0  0  0  0
    1.2873   14.7997   -0.1103 H   0  0  0  0  0  0  0  0  0  0  0  0
    1.4994   13.4270    1.8666 H   0  0  0  0  0  0  0  0  0  0  0  0
   -0.1807   12.8613    1.7477 H   0  0  0  0  0  0  0  0  0  0  0  0
    2.1360   11.3456    1.0395 H   0  0  0  0  0  0  0  0  0  0  0  0
    0.4943   10.9194    0.5641 H   0  0  0  0  0  0  0  0  0  0  0  0
    3.2863   12.8984    0.2069 H   0  0  0  0  0  0  0  0  0  0  0  0
    3.7391   12.1179   -1.3463 H   0  0  0  0  0  0  0  0  0  0  0  0
    2.9911   13.7511   -1.3463 H   0  0  0  0  0  0  0  0  0  0  0  0
    0.5504   10.5347   -1.8264 H   0  0  0  0  0  0  0  0  0  0  0  0
    2.7176    9.7407   -0.6806 H   0  0  0  0  0  0  0  0  0  0  0  0
    2.1015    8.9345   -2.2170 H   0  0  0  0  0  0  0  0  0  0  0  0
    4.6984    9.3569   -2.0830 H   0  0  0  0  0  0  0  0  0  0  0  0
    3.2342   12.7863   -3.6295 H   0  0  0  0  0  0  0  0  0  0  0  0
    2.9400   10.7326   -5.9081 H   0  0  0  0  0  0  0  0  0  0  0  0
    2.4540   12.4858   -5.9476 H   0  0  0  0  0  0  0  0  0  0  0  0
    4.5836   12.0771   -7.1390 H   0  0  0  0  0  0  0  0  0  0  0  0
    4.7719   13.1656   -5.7089 H   0  0  0  0  0  0  0  0  0  0  0  0
    6.6039   11.6144   -5.7436 H   0  0  0  0  0  0  0  0  0  0  0  0
    5.8170    9.2610   -5.3800 H   0  0  0  0  0  0  0  0  0  0  0  0
    6.0779   12.4308   -2.2234 H   0  0  0  0  0  0  0  0  0  0  0  0
    7.1259   12.6701   -3.6625 H   0  0  0  0  0  0  0  0  0  0  0  0
    5.4431   13.2984   -3.6625 H   0  0  0  0  0  0  0  0  0  0  0  0
    6.6567   10.0223   -2.3653 H   0  0  0  0  0  0  0  0  0  0  0  0
    6.3128    9.0800   -3.8554 H   0  0  0  0  0  0  0  0  0  0  0  0
    7.6158   10.3165   -3.8554 H   0  0  0  0  0  0  0  0  0  0  0  0
    0.4986    9.5806   -3.6958 H   0  0  0  0  0  0  0  0  0  0  0  0
    0.1428   10.7713   -4.9928 H   0  0  0  0  0  0  0  0  0  0  0  0
    1.7040    9.8829   -4.9928 H   0  0  0  0  0  0  0  0  0  0  0  0
    1.0534   13.2594   -4.6275 H   0  0  0  0  0  0  0  0  0  0  0  0
   -0.3433   12.3881   -3.7765 H   0  0  0  0  0  0  0  0  0  0  0  0
    1.6587   14.3071   -2.5532 H   0  0  0  0  0  0  0  0  0  0  0  0
   -0.1216   14.5244   -2.7775 H   0  0  0  0  0  0  0  0  0  0  0  0
   -1.3711   12.3270   -0.2544 H   0  0  0  0  0  0  0  0  0  0  0  0
   -1.6930   13.1670   -1.8092 H   0  0  0  0  0  0  0  0  0  0  0  0
   -0.9568   11.5285   -1.8092 H   0  0  0  0  0  0  0  0  0  0  0  0
  1  2  1  0
  2  3  1  0
  3  4  1  0
  4  5  1  0
  5  6  1  0
  6  7  1  0
  7  8  1  0
  7  9  1  0
  2 10  1  0
 10 11  1  0
 11 12  1  0
 12 13  1  0
 13 14  1  1
 13 15  1  0
 15 16  1  0
 16 17  1  0
 17 18  2  0
 18 19  1  0
 19 20  1  0
 20 21  1  0
 21 22  1  0
 22 23  1  0
 22 24  1  0
 24 25  1  0
 24 26  1  0
 19 27  1  0
 27 28  1  6
 27 29  1  0
 29 30  1  0
 30 31  1  0
 31 32  1  6
  7  5  1  0
 31 10  1  0
 31 13  1  0
 27 15  1  0
 24 18  1  0
  1 33  1  0
  1 34  1  0
  1 35  1  0
  2 36  1  1
  3 37  1  0
  3 38  1  0
  4 39  1  0
  4 40  1  0
  5 41  1  6
  8 42  1  0
  8 43  1  0
  8 44  1  0
  9 45  1  0
  9 46  1  0
  9 47  1  0
 10 48  1  6
 11 49  1  0
 11 50  1  0
 12 51  1  0
 12 52  1  0
 14 53  1  0
 14 54  1  0
 14 55  1  0
 15 56  1  6
 16 57  1  0
 16 58  1  0
 17 59  1  0
 19 60  1  1
 20 61  1  0
 20 62  1  0
 21 63  1  0
 21 64  1  0
 22 65  1  1
 23 66  1  0
 25 67  1  0
 25 68  1  0
 25 69  1  0
 26 70  1  0
 26 71  1  0
 26 72  1  0
 28 73  1  0
 28 74  1  0
 28 75  1  0
 29 76  1  0
 29 77  1  0
 30 78  1  0
 30 79  1  0
 32 80  1  0
 32 81  1  0
 32 82  1  0
M  END
>  <meeko>  (19) 
{"is_sidechain": [false], "intermolecular_energy": 2.731, "internal_energy": -0.839}

$$$$
EPH_relaxed_0001_pdb2pqr_Repair_195_r2_0001_out
     RDKit          3D

 82 86  0  0  0  0  0  0  0  0999 V2000
    4.0400   11.2620   -5.3860 C   0  0  0  0  0  0  0  0  0  0  0  0
    2.8700   12.1360   -5.8470 C   0  0  2  0  0  0  0  0  0  0  0  0
    3.3220   13.2500   -6.8130 C   0  0  0  0  0  0  0  0  0  0  0  0
    2.1980   14.2070   -7.2170 C   0  0  0  0  0  0  0  0  0  0  0  0
    2.4440   14.8140   -8.5650 C   0  0  2  0  0  0  0  0  0  0  0  0
    2.4850   16.2470   -8.5780 O   0  0  0  0  0  0  0  0  0  0  0  0
    1.4130   15.6370   -9.3130 C   0  0  0  0  0  0  0  0  0  0  0  0
    0.0550   15.8970   -8.7390 C   0  0  0  0  0  0  0  0  0  0  0  0
    1.5460   15.7740  -10.7980 C   0  0  0  0  0  0  0  0  0  0  0  0
    2.1710   12.7470   -4.6380 C   0  0  1  0  0  0  0  0  0  0  0  0
    1.1840   13.8800   -5.0280 C   0  0  0  0  0  0  0  0  0  0  0  0
   -0.0060   13.7960   -4.0380 C   0  0  0  0  0  0  0  0  0  0  0  0
    0.4840   12.8490   -2.9180 C   0  0  1  0  0  0  0  0  0  0  0  0
    1.3590   13.7460   -1.9870 C   0  0  0  0  0  0  0  0  0  0  0  0
   -0.6260   12.0950   -2.1150 C   0  0  2  0  0  0  0  0  0  0  0  0
   -1.5890   13.0000   -1.3260 C   0  0  0  0  0  0  0  0  0  0  0  0
   -1.1750   13.3030    0.0760 C   0  0  0  0  0  0  0  0  0  0  0  0
   -0.2290   12.6440    0.7720 C   0  0  0  0  0  0  0  0  0  0  0  0
    0.4660   11.4100    0.1820 C   0  0  1  0  0  0  0  0  0  0  0  0
    0.5080   10.2810    1.2460 C   0  0  0  0  0  0  0  0  0  0  0  0
    1.1400   10.7370    2.5570 C   0  0  0  0  0  0  0  0  0  0  0  0
    0.3850   11.9280    3.1420 C   0  0  2  0  0  0  0  0  0  0  0  0
   -0.9230   11.4990    3.5310 O   0  0  0  0  0  0  0  0  0  0  0  0
    0.2710   13.1240    2.1560 C   0  0  0  0  0  0  0  0  0  0  0  0
    1.6620   13.7800    1.9700 C   0  0  0  0  0  0  0  0  0  0  0  0
   -0.6310   14.2020    2.8150 C   0  0  0  0  0  0  0  0  0  0  0  0
   -0.0860   10.9070   -1.2210 C   0  0  1  0  0  0  0  0  0  0  0  0
   -1.2840    9.9330   -1.0030 C   0  0  0  0  0  0  0  0  0  0  0  0
    1.0360   10.0740   -1.9460 C   0  0  0  0  0  0  0  0  0  0  0  0
    2.0310   10.8620   -2.8200 C   0  0  0  0  0  0  0  0  0  0  0  0
    1.2930   11.8080   -3.7730 C   0  0  2  0  0  0  0  0  0  0  0  0
    0.4220   10.9320   -4.7370 C   0  0  0  0  0  0  0  0  0  0  0  0
    4.0700   11.2396   -4.2866 H   0  0  0  0  0  0  0  0  0  0  0  0
    3.9077   10.2398   -5.7701 H   0  0  0  0  0  0  0  0  0  0  0  0
    4.9827   11.6789   -5.7701 H   0  0  0  0  0  0  0  0  0  0  0  0
    2.1691   11.4890   -6.3948 H   0  0  0  0  0  0  0  0  0  0  0  0
    4.1157   13.8334   -6.3234 H   0  0  0  0  0  0  0  0  0  0  0  0
    3.6703   12.7567   -7.7324 H   0  0  0  0  0  0  0  0  0  0  0  0
    1.2492   13.6511   -7.2442 H   0  0  0  0  0  0  0  0  0  0  0  0
    2.1577   15.0201   -6.4772 H   0  0  0  0  0  0  0  0  0  0  0  0
    3.0606   13.9540   -8.8653 H   0  0  0  0  0  0  0  0  0  0  0  0
    0.1129   15.8859   -7.6406 H   0  0  0  0  0  0  0  0  0  0  0  0
   -0.3040   16.8802   -9.0773 H   0  0  0  0  0  0  0  0  0  0  0  0
   -0.6418   15.1159   -9.0773 H   0  0  0  0  0  0  0  0  0  0  0  0
    2.2951   16.5456  -11.0294 H   0  0  0  0  0  0  0  0  0  0  0  0
    1.8647   14.8129  -11.2278 H   0  0  0  0  0  0  0  0  0  0  0  0
    0.5759   16.0641  -11.2278 H   0  0  0  0  0  0  0  0  0  0  0  0
    3.0501   13.0744   -4.0635 H   0  0  0  0  0  0  0  0  0  0  0  0
    1.6785   14.8590   -4.9438 H   0  0  0  0  0  0  0  0  0  0  0  0
    0.8423   13.7661   -6.0673 H   0  0  0  0  0  0  0  0  0  0  0  0
   -0.2427   14.7898   -3.6302 H   0  0  0  0  0  0  0  0  0  0  0  0
   -0.9248   13.4311   -4.5204 H   0  0  0  0  0  0  0  0  0  0  0  0
    1.1326   13.5139   -0.9359 H   0  0  0  0  0  0  0  0  0  0  0  0
    2.4234   13.5509   -2.1846 H   0  0  0  0  0  0  0  0  0  0  0  0
    1.1375   14.8052   -2.1846 H   0  0  0  0  0  0  0  0  0  0  0  0
   -1.2296   11.6423   -2.9155 H   0  0  0  0  0  0  0  0  0  0  0  0
   -1.6796   13.9534   -1.8672 H   0  0  0  0  0  0  0  0  0  0  0  0
   -2.5354   12.4445   -1.2504 H   0  0  0  0  0  0  0  0  0  0  0  0
   -1.6858   14.1347    0.5833 H   0  0  0  0  0  0  0  0  0  0  0  0
    1.4896   11.7272   -0.0661 H   0  0  0  0  0  0  0  0  0  0  0  0
   -0.5208    9.9478    1.4475 H   0  0  0  0  0  0  0  0  0  0  0  0
    1.1260    9.4650    0.8432 H   0  0  0  0  0  0  0  0  0  0  0  0
    1.1145    9.9058    3.2771 H   0  0  0  0  0  0  0  0  0  0  0  0
    2.1779   11.0426    2.3586 H   0  0  0  0  0  0  0  0  0  0  0  0
    0.9582   12.2889    4.0087 H   0  0  0  0  0  0  0  0  0  0  0  0
   -1.1040   10.6580    3.0790 H   0  0  0  0  0  0  0  0  0  0  0  0
    2.1039   13.9884    2.9556 H   0  0  0  0  0  0  0  0  0  0  0  0
    2.3180   13.0964    1.4112 H   0  0  0  0  0  0  0  0  0  0  0  0
    1.5518   14.7211    1.4112 H   0  0  0  0  0  0  0  0  0  0  0  0
   -0.5615   14.1190    3.9097 H   0  0  0  0  0  0  0  0  0  0  0  0
   -0.2965   15.2018    2.5011 H   0  0  0  0  0  0  0  0  0  0  0  0
   -1.6741   14.0491    2.5011 H   0  0  0  0  0  0  0  0  0  0  0  0
   -1.4532    9.7954    0.0752 H   0  0  0  0  0  0  0  0  0  0  0  0
   -2.1885   10.3551   -1.4652 H   0  0  0  0  0  0  0  0  0  0  0  0
   -1.0554    8.9613   -1.4652 H   0  0  0  0  0  0  0  0  0  0  0  0
    1.6155    9.5510   -1.1710 H   0  0  0  0  0  0  0  0  0  0  0  0
    0.4994    9.4145   -2.6439 H   0  0  0  0  0  0  0  0  0  0  0  0
    2.6934   11.4515   -2.1691 H   0  0  0  0  0  0  0  0  0  0  0  0
    2.6156   10.1473   -3.4178 H   0  0  0  0  0  0  0  0  0  0  0  0
   -0.2317   10.2746   -4.1450 H   0  0  0  0  0  0  0  0  0  0  0  0
   -0.1938   11.5865   -5.3714 H   0  0  0  0  0  0  0  0  0  0  0  0
    1.0800   10.3200   -5.3714 H   0  0  0  0  0  0  0  0  0  0  0  0
  1  2  1  0
  2  3  1  0
  3  4  1  0
  4  5  1  0
  5  6  1  0
  6  7  1  0
  7  8  1  0
  7  9  1  0
  2 10  1  0
 10 11  1  0
 11 12  1  0
 12 13  1  0
 13 14  1  1
 13 15  1  0
 15 16  1  0
 16 17  1  0
 17 18  2  0
 18 19  1  0
 19 20  1  0
 20 21  1  0
 21 22  1  0
 22 23  1  0
 22 24  1  0
 24 25  1  0
 24 26  1  0
 19 27  1  0
 27 28  1  1
 27 29  1  0
 29 30  1  0
 30 31  1  0
 31 32  1  6
  7  5  1  0
 31 10  1  0
 31 13  1  0
 27 15  1  0
 24 18  1  0
  1 33  1  0
  1 34  1  0
  1 35  1  0
  2 36  1  6
  3 37  1  0
  3 38  1  0
  4 39  1  0
  4 40  1  0
  5 41  1  6
  8 42  1  0
  8 43  1  0
  8 44  1  0
  9 45  1  0
  9 46  1  0
  9 47  1  0
 10 48  1  1
 11 49  1  0
 11 50  1  0
 12 51  1  0
 12 52  1  0
 14 53  1  0
 14 54  1  0
 14 55  1  0
 15 56  1  6
 16 57  1  0
 16 58  1  0
 17 59  1  0
 19 60  1  6
 20 61  1  0
 20 62  1  0
 21 63  1  0
 21 64  1  0
 22 65  1  1
 23 66  1  0
 25 67  1  0
 25 68  1  0
 25 69  1  0
 26 70  1  0
 26 71  1  0
 26 72  1  0
 28 73  1  0
 28 74  1  0
 28 75  1  0
 29 76  1  0
 29 77  1  0
 30 78  1  0
 30 79  1  0
 32 80  1  0
 32 81  1  0
 32 82  1  0
M  END
>  <meeko>  (20) 
{"is_sidechain": [false], "intermolecular_energy": 2.731, "internal_energy": -0.839}

$$$$
