EPH_relaxed_0001_pdb2pqr_Repair_18_r2_0001_out
     RDKit          3D

 82 86  0  0  0  0  0  0  0  0999 V2000
    0.3960   18.2870   -0.2220 C   0  0  0  0  0  0  0  0  0  0  0  0
    1.4640   17.2000   -0.3680 C   0  0  2  0  0  0  0  0  0  0  0  0
    2.7010   17.7000   -1.1400 C   0  0  0  0  0  0  0  0  0  0  0  0
    3.9100   17.9860   -0.2460 C   0  0  0  0  0  0  0  0  0  0  0  0
    3.4970   18.5370    1.0860 C   0  0  2  0  0  0  0  0  0  0  0  0
    3.7010   19.9480    1.2390 O   0  0  0  0  0  0  0  0  0  0  0  0
    4.4770   19.0980    2.0990 C   0  0  0  0  0  0  0  0  0  0  0  0
    5.9480   19.1350    1.8250 C   0  0  0  0  0  0  0  0  0  0  0  0
    4.0640   19.1570    3.5370 C   0  0  0  0  0  0  0  0  0  0  0  0
    0.8720   15.9800   -1.0650 C   0  0  1  0  0  0  0  0  0  0  0  0
    0.6680   16.2030   -2.5870 C   0  0  0  0  0  0  0  0  0  0  0  0
    0.9430   14.8430   -3.2790 C   0  0  0  0  0  0  0  0  0  0  0  0
    0.9680   13.8160   -2.1230 C   0  0  1  0  0  0  0  0  0  0  0  0
   -0.5330   13.5060   -1.8290 C   0  0  0  0  0  0  0  0  0  0  0  0
    1.7880   12.5090   -2.3780 C   0  0  2  0  0  0  0  0  0  0  0  0
    1.2750   11.6310   -3.5330 C   0  0  0  0  0  0  0  0  0  0  0  0
    0.2730   10.5930   -3.1480 C   0  0  0  0  0  0  0  0  0  0  0  0
    0.0150   10.1830   -1.8920 C   0  0  0  0  0  0  0  0  0  0  0  0
    0.8360   10.7080   -0.7070 C   0  0  1  0  0  0  0  0  0  0  0  0
    1.2500    9.5220    0.2020 C   0  0  0  0  0  0  0  0  0  0  0  0
    0.0580    8.6800    0.6460 C   0  0  0  0  0  0  0  0  0  0  0  0
   -0.6990    8.1280   -0.5590 C   0  0  2  0  0  0  0  0  0  0  0  0
    0.1390    7.1880   -1.2380 O   0  0  0  0  0  0  0  0  0  0  0  0
   -1.1590    9.2320   -1.5520 C   0  0  0  0  0  0  0  0  0  0  0  0
   -2.2930   10.0690   -0.9110 C   0  0  0  0  0  0  0  0  0  0  0  0
   -1.7830    8.5310   -2.7890 C   0  0  0  0  0  0  0  0  0  0  0  0
    2.0610   11.6510   -1.0770 C   0  0  1  0  0  0  0  0  0  0  0  0
    3.3270   10.7890   -1.3690 C   0  0  0  0  0  0  0  0  0  0  0  0
    2.4130   12.5480    0.1690 C   0  0  0  0  0  0  0  0  0  0  0  0
    1.6540   13.8820    0.3000 C   0  0  0  0  0  0  0  0  0  0  0  0
    1.6900   14.6660   -1.0160 C   0  0  2  0  0  0  0  0  0  0  0  0
    3.1870   15.0110   -1.3260 C   0  0  0  0  0  0  0  0  0  0  0  0
    0.2095   18.4768    0.8453 H   0  0  0  0  0  0  0  0  0  0  0  0
    0.7462   19.2121   -0.7032 H   0  0  0  0  0  0  0  0  0  0  0  0
   -0.5351   17.9532   -0.7032 H   0  0  0  0  0  0  0  0  0  0  0  0
    1.7965   16.9252    0.6439 H   0  0  0  0  0  0  0  0  0  0  0  0
    2.9859   16.9321   -1.8742 H   0  0  0  0  0  0  0  0  0  0  0  0
    2.4204   18.6515   -1.6153 H   0  0  0  0  0  0  0  0  0  0  0  0
    4.4657   17.0500   -0.0878 H   0  0  0  0  0  0  0  0  0  0  0  0
    4.5376   18.7371   -0.7480 H   0  0  0  0  0  0  0  0  0  0  0  0
    2.6929   17.7913    1.1721 H   0  0  0  0  0  0  0  0  0  0  0  0
    6.4981   19.1488    2.7774 H   0  0  0  0  0  0  0  0  0  0  0  0
    6.2360   18.2438    1.2481 H   0  0  0  0  0  0  0  0  0  0  0  0
    6.1909   20.0395    1.2481 H   0  0  0  0  0  0  0  0  0  0  0  0
    4.9489   19.0306    4.1781 H   0  0  0  0  0  0  0  0  0  0  0  0
    3.5969   20.1310    3.7447 H   0  0  0  0  0  0  0  0  0  0  0  0
    3.3428   18.3528    3.7447 H   0  0  0  0  0  0  0  0  0  0  0  0
   -0.0551   15.8674   -0.4839 H   0  0  0  0  0  0  0  0  0  0  0  0
   -0.3636   16.5282   -2.7873 H   0  0  0  0  0  0  0  0  0  0  0  0
    1.3446   16.9831   -2.9661 H   0  0  0  0  0  0  0  0  0  0  0  0
    0.1432   14.6027   -3.9949 H   0  0  0  0  0  0  0  0  0  0  0  0
    1.8815   14.8487   -3.8527 H   0  0  0  0  0  0  0  0  0  0  0  0
   -0.6943   13.4727   -0.7414 H   0  0  0  0  0  0  0  0  0  0  0  0
   -1.1630   14.2930   -2.2692 H   0  0  0  0  0  0  0  0  0  0  0  0
   -0.7997   12.5338   -2.2692 H   0  0  0  0  0  0  0  0  0  0  0  0
    2.7599   12.9021   -2.7110 H   0  0  0  0  0  0  0  0  0  0  0  0
    0.8110   12.2905   -4.2812 H   0  0  0  0  0  0  0  0  0  0  0  0
    2.1507   11.0834   -3.9114 H   0  0  0  0  0  0  0  0  0  0  0  0
   -0.3030   10.1237   -3.9592 H   0  0  0  0  0  0  0  0  0  0  0  0
    0.1715   11.3874   -0.1531 H   0  0  0  0  0  0  0  0  0  0  0  0
    1.9482    8.8789   -0.3539 H   0  0  0  0  0  0  0  0  0  0  0  0
    1.7169    9.9415    1.1054 H   0  0  0  0  0  0  0  0  0  0  0  0
    0.4184    7.8413    1.2598 H   0  0  0  0  0  0  0  0  0  0  0  0
   -0.6245    9.3170    1.2277 H   0  0  0  0  0  0  0  0  0  0  0  0
   -1.6129    7.6455   -0.1822 H   0  0  0  0  0  0  0  0  0  0  0  0
    0.9780    7.6360   -1.4420 H   0  0  0  0  0  0  0  0  0  0  0  0
   -2.2161   10.0122    0.1848 H   0  0  0  0  0  0  0  0  0  0  0  0
   -2.2009   11.1173   -1.2312 H   0  0  0  0  0  0  0  0  0  0  0  0
   -3.2676    9.6721   -1.2312 H   0  0  0  0  0  0  0  0  0  0  0  0
   -2.4797    7.7483   -2.4543 H   0  0  0  0  0  0  0  0  0  0  0  0
   -2.3265    9.2712   -3.3945 H   0  0  0  0  0  0  0  0  0  0  0  0
   -0.9848    8.0769   -3.3945 H   0  0  0  0  0  0  0  0  0  0  0  0
    3.7853   10.4770   -0.4189 H   0  0  0  0  0  0  0  0  0  0  0  0
    3.0390    9.8985   -1.9470 H   0  0  0  0  0  0  0  0  0  0  0  0
    4.0499   11.3833   -1.9470 H   0  0  0  0  0  0  0  0  0  0  0  0
    2.2064   11.9572    1.0736 H   0  0  0  0  0  0  0  0  0  0  0  0
    3.4679   12.8287    0.0332 H   0  0  0  0  0  0  0  0  0  0  0  0
    0.6071   13.6755    0.5671 H   0  0  0  0  0  0  0  0  0  0  0  0
    2.1391   14.4859    1.0810 H   0  0  0  0  0  0  0  0  0  0  0  0
    3.7371   15.1378   -0.3819 H   0  0  0  0  0  0  0  0  0  0  0  0
    3.6390   14.1935   -1.9068 H   0  0  0  0  0  0  0  0  0  0  0  0
    3.2356   15.9439   -1.9068 H   0  0  0  0  0  0  0  0  0  0  0  0
  1  2  1  0
  2  3  1  0
  3  4  1  0
  4  5  1  0
  5  6  1  0
  6  7  1  0
  7  8  1  0
  7  9  1  0
  2 10  1  0
 10 11  1  0
 11 12  1  0
 12 13  1  0
 13 14  1  1
 13 15  1  0
 15 16  1  0
 16 17  1  0
 17 18  2  0
 18 19  1  0
 19 20  1  0
 20 21  1  0
 21 22  1  0
 22 23  1  0
 22 24  1  0
 24 25  1  0
 24 26  1  0
 19 27  1  0
 27 28  1  6
 27 29  1  0
 29 30  1  0
 30 31  1  0
 31 32  1  6
  7  5  1  0
 31 10  1  0
 31 13  1  0
 27 15  1  0
 24 18  1  0
  1 33  1  0
  1 34  1  0
  1 35  1  0
  2 36  1  1
  3 37  1  0
  3 38  1  0
  4 39  1  0
  4 40  1  0
  5 41  1  1
  8 42  1  0
  8 43  1  0
  8 44  1  0
  9 45  1  0
  9 46  1  0
  9 47  1  0
 10 48  1  1
 11 49  1  0
 11 50  1  0
 12 51  1  0
 12 52  1  0
 14 53  1  0
 14 54  1  0
 14 55  1  0
 15 56  1  6
 16 57  1  0
 16 58  1  0
 17 59  1  0
 19 60  1  1
 20 61  1  0
 20 62  1  0
 21 63  1  0
 21 64  1  0
 22 65  1  1
 23 66  1  0
 25 67  1  0
 25 68  1  0
 25 69  1  0
 26 70  1  0
 26 71  1  0
 26 72  1  0
 28 73  1  0
 28 74  1  0
 28 75  1  0
 29 76  1  0
 29 77  1  0
 30 78  1  0
 30 79  1  0
 32 80  1  0
 32 81  1  0
 32 82  1  0
M  END
>  <meeko>  (1) 
{"is_sidechain": [false], "intermolecular_energy": 2.731, "internal_energy": -0.839}

$$$$
EPH_relaxed_0001_pdb2pqr_Repair_18_r2_0001_out
     RDKit          3D

 82 86  0  0  0  0  0  0  0  0999 V2000
   -1.5050    8.4040   -2.0800 C   0  0  0  0  0  0  0  0  0  0  0  0
   -1.9400    9.0060   -0.7410 C   0  0  2  0  0  0  0  0  0  0  0  0
   -3.4160    9.4530   -0.7580 C   0  0  0  0  0  0  0  0  0  0  0  0
   -4.4070    8.3130   -0.5090 C   0  0  0  0  0  0  0  0  0  0  0  0
   -5.1750    7.9650   -1.7490 C   0  0  2  0  0  0  0  0  0  0  0  0
   -6.3780    8.7210   -1.9400 O   0  0  0  0  0  0  0  0  0  0  0  0
   -6.5430    7.3090   -1.7290 C   0  0  0  0  0  0  0  0  0  0  0  0
   -7.2230    6.9600   -0.4420 C   0  0  0  0  0  0  0  0  0  0  0  0
   -6.9970    6.5670   -2.9470 C   0  0  0  0  0  0  0  0  0  0  0  0
   -1.0430   10.1850   -0.3850 C   0  0  1  0  0  0  0  0  0  0  0  0
    0.0840    9.8000    0.6100 C   0  0  0  0  0  0  0  0  0  0  0  0
    1.3260   10.6470    0.2300 C   0  0  0  0  0  0  0  0  0  0  0  0
    0.7830   11.7190   -0.7440 C   0  0  1  0  0  0  0  0  0  0  0  0
    0.1600   12.8160    0.1750 C   0  0  0  0  0  0  0  0  0  0  0  0
    1.8160   12.3260   -1.7480 C   0  0  2  0  0  0  0  0  0  0  0  0
    2.9850   13.0900   -1.1010 C   0  0  0  0  0  0  0  0  0  0  0  0
    2.7540   14.5500   -0.8910 C   0  0  0  0  0  0  0  0  0  0  0  0
    1.7760   15.2770   -1.4620 C   0  0  0  0  0  0  0  0  0  0  0  0
    0.8310   14.6530   -2.4960 C   0  0  1  0  0  0  0  0  0  0  0  0
    0.6940   15.6050   -3.7130 C   0  0  0  0  0  0  0  0  0  0  0  0
    0.2670   17.0130   -3.3090 C   0  0  0  0  0  0  0  0  0  0  0  0
    1.2620   17.6220   -2.3240 C   0  0  2  0  0  0  0  0  0  0  0  0
    2.5080   17.8300   -2.9970 O   0  0  0  0  0  0  0  0  0  0  0  0
    1.4900   16.7460   -1.0610 C   0  0  0  0  0  0  0  0  0  0  0  0
    0.2200   16.7690   -0.1750 C   0  0  0  0  0  0  0  0  0  0  0  0
    2.6180   17.4030   -0.2210 C   0  0  0  0  0  0  0  0  0  0  0  0
    1.1630   13.1590   -2.9250 C   0  0  1  0  0  0  0  0  0  0  0  0
    2.1930   13.1570   -4.0960 C   0  0  0  0  0  0  0  0  0  0  0  0
   -0.1450   12.4820   -3.4830 C   0  0  0  0  0  0  0  0  0  0  0  0
   -1.0640   11.7950   -2.4560 C   0  0  0  0  0  0  0  0  0  0  0  0
   -0.2650   10.8610   -1.5420 C   0  0  2  0  0  0  0  0  0  0  0  0
    0.3560    9.7340   -2.4360 C   0  0  0  0  0  0  0  0  0  0  0  0
   -0.8697    7.5248   -1.8976 H   0  0  0  0  0  0  0  0  0  0  0  0
   -2.3944    8.1014   -2.6522 H   0  0  0  0  0  0  0  0  0  0  0  0
   -0.9384    9.1534   -2.6522 H   0  0  0  0  0  0  0  0  0  0  0  0
   -1.8414    8.2205    0.0227 H   0  0  0  0  0  0  0  0  0  0  0  0
   -3.5576   10.2134    0.0242 H   0  0  0  0  0  0  0  0  0  0  0  0
   -3.6220    9.8438   -1.7654 H   0  0  0  0  0  0  0  0  0  0  0  0
   -3.8517    7.4250   -0.1726 H   0  0  0  0  0  0  0  0  0  0  0  0
   -5.1240    8.6431    0.2571 H   0  0  0  0  0  0  0  0  0  0  0  0
   -4.2460    7.7177   -2.2835 H   0  0  0  0  0  0  0  0  0  0  0  0
   -6.5963    7.2817    0.4028 H   0  0  0  0  0  0  0  0  0  0  0  0
   -8.1963    7.4700   -0.3915 H   0  0  0  0  0  0  0  0  0  0  0  0
   -7.3761    5.8719   -0.3915 H   0  0  0  0  0  0  0  0  0  0  0  0
   -7.5487    5.6653   -2.6426 H   0  0  0  0  0  0  0  0  0  0  0  0
   -7.6541    7.2139   -3.5468 H   0  0  0  0  0  0  0  0  0  0  0  0
   -6.1219    6.2764   -3.5468 H   0  0  0  0  0  0  0  0  0  0  0  0
   -1.7985   10.8768    0.0157 H   0  0  0  0  0  0  0  0  0  0  0  0
   -0.2274   10.0257    1.6406 H   0  0  0  0  0  0  0  0  0  0  0  0
    0.3081    8.7245    0.5555 H   0  0  0  0  0  0  0  0  0  0  0  0
    1.7625   11.1187    1.1228 H   0  0  0  0  0  0  0  0  0  0  0  0
    2.1239   10.0389   -0.2211 H   0  0  0  0  0  0  0  0  0  0  0  0
    0.3152   12.5427    1.2291 H   0  0  0  0  0  0  0  0  0  0  0  0
    0.6439   13.7827   -0.0282 H   0  0  0  0  0  0  0  0  0  0  0  0
   -0.9181   12.8957   -0.0282 H   0  0  0  0  0  0  0  0  0  0  0  0
    2.2607   11.4272   -2.2001 H   0  0  0  0  0  0  0  0  0  0  0  0
    3.1884   12.6336   -0.1210 H   0  0  0  0  0  0  0  0  0  0  0  0
    3.8260   13.0132   -1.8058 H   0  0  0  0  0  0  0  0  0  0  0  0
    3.4414   15.0759   -0.2121 H   0  0  0  0  0  0  0  0  0  0  0  0
   -0.1419   14.5465   -1.9940 H   0  0  0  0  0  0  0  0  0  0  0  0
    1.6656   15.6645   -4.2253 H   0  0  0  0  0  0  0  0  0  0  0  0
   -0.0863   15.1953   -4.3713 H   0  0  0  0  0  0  0  0  0  0  0  0
    0.2163   17.6458   -4.2074 H   0  0  0  0  0  0  0  0  0  0  0  0
   -0.7184   16.9559   -2.8234 H   0  0  0  0  0  0  0  0  0  0  0  0
    0.8365   18.5733   -1.9719 H   0  0  0  0  0  0  0  0  0  0  0  0
    3.2170   17.7400   -2.3380 H   0  0  0  0  0  0  0  0  0  0  0  0
    0.5125   16.7637    0.8854 H   0  0  0  0  0  0  0  0  0  0  0  0
   -0.3610   17.6778   -0.3905 H   0  0  0  0  0  0  0  0  0  0  0  0
   -0.3936   15.8818   -0.3905 H   0  0  0  0  0  0  0  0  0  0  0  0
    2.3995   17.2757    0.8495 H   0  0  0  0  0  0  0  0  0  0  0  0
    3.5790   16.9233   -0.4586 H   0  0  0  0  0  0  0  0  0  0  0  0
    2.6749   18.4755   -0.4586 H   0  0  0  0  0  0  0  0  0  0  0  0
    3.2139   13.1550   -3.6864 H   0  0  0  0  0  0  0  0  0  0  0  0
    2.0441   12.2591   -4.7138 H   0  0  0  0  0  0  0  0  0  0  0  0
    2.0476   14.0554   -4.7138 H   0  0  0  0  0  0  0  0  0  0  0  0
   -0.7342   13.2621   -3.9873 H   0  0  0  0  0  0  0  0  0  0  0  0
    0.2075   11.6732   -4.1399 H   0  0  0  0  0  0  0  0  0  0  0  0
   -1.5560   12.5641   -1.8426 H   0  0  0  0  0  0  0  0  0  0  0  0
   -1.8117   11.1983   -2.9991 H   0  0  0  0  0  0  0  0  0  0  0  0
    0.7869    8.9520   -1.7935 H   0  0  0  0  0  0  0  0  0  0  0  0
   -0.4281    9.2959   -3.0711 H   0  0  0  0  0  0  0  0  0  0  0  0
    1.1452   10.1628   -3.0711 H   0  0  0  0  0  0  0  0  0  0  0  0
  1  2  1  0
  2  3  1  0
  3  4  1  0
  4  5  1  0
  5  6  1  0
  6  7  1  0
  7  8  1  0
  7  9  1  0
  2 10  1  0
 10 11  1  0
 11 12  1  0
 12 13  1  0
 13 14  1  1
 13 15  1  0
 15 16  1  0
 16 17  1  0
 17 18  2  0
 18 19  1  0
 19 20  1  0
 20 21  1  0
 21 22  1  0
 22 23  1  0
 22 24  1  0
 24 25  1  0
 24 26  1  0
 19 27  1  0
 27 28  1  6
 27 29  1  0
 29 30  1  0
 30 31  1  0
 31 32  1  6
  7  5  1  0
 31 10  1  0
 31 13  1  0
 27 15  1  0
 24 18  1  0
  1 33  1  0
  1 34  1  0
  1 35  1  0
  2 36  1  1
  3 37  1  0
  3 38  1  0
  4 39  1  0
  4 40  1  0
  5 41  1  6
  8 42  1  0
  8 43  1  0
  8 44  1  0
  9 45  1  0
  9 46  1  0
  9 47  1  0
 10 48  1  1
 11 49  1  0
 11 50  1  0
 12 51  1  0
 12 52  1  0
 14 53  1  0
 14 54  1  0
 14 55  1  0
 15 56  1  6
 16 57  1  0
 16 58  1  0
 17 59  1  0
 19 60  1  1
 20 61  1  0
 20 62  1  0
 21 63  1  0
 21 64  1  0
 22 65  1  1
 23 66  1  0
 25 67  1  0
 25 68  1  0
 25 69  1  0
 26 70  1  0
 26 71  1  0
 26 72  1  0
 28 73  1  0
 28 74  1  0
 28 75  1  0
 29 76  1  0
 29 77  1  0
 30 78  1  0
 30 79  1  0
 32 80  1  0
 32 81  1  0
 32 82  1  0
M  END
>  <meeko>  (2) 
{"is_sidechain": [false], "intermolecular_energy": 2.731, "internal_energy": -0.839}

$$$$
EPH_relaxed_0001_pdb2pqr_Repair_18_r2_0001_out
     RDKit          3D

 82 86  0  0  0  0  0  0  0  0999 V2000
    1.9200   16.9930   -0.3520 C   0  0  0  0  0  0  0  0  0  0  0  0
    1.5240   17.0450   -1.8310 C   0  0  2  0  0  0  0  0  0  0  0  0
    0.6130   18.2480   -2.1460 C   0  0  0  0  0  0  0  0  0  0  0  0
    0.8350   19.4480   -1.2210 C   0  0  0  0  0  0  0  0  0  0  0  0
   -0.4610   20.0630   -0.7890 C   0  0  2  0  0  0  0  0  0  0  0  0
   -0.6190   20.1940    0.6290 O   0  0  0  0  0  0  0  0  0  0  0  0
   -1.5350   19.3060   -0.0310 C   0  0  0  0  0  0  0  0  0  0  0  0
   -1.3610   17.8660    0.3400 C   0  0  0  0  0  0  0  0  0  0  0  0
   -2.9410   19.8170   -0.0790 C   0  0  0  0  0  0  0  0  0  0  0  0
    0.8310   15.7480   -2.2290 C   0  0  1  0  0  0  0  0  0  0  0  0
    0.4300   15.7200   -3.7290 C   0  0  0  0  0  0  0  0  0  0  0  0
    0.5950   14.2560   -4.2090 C   0  0  0  0  0  0  0  0  0  0  0  0
    0.7600   13.4350   -2.9090 C   0  0  1  0  0  0  0  0  0  0  0  0
   -0.6930   13.2300   -2.3760 C   0  0  0  0  0  0  0  0  0  0  0  0
    1.5230   12.0770   -3.0410 C   0  0  2  0  0  0  0  0  0  0  0  0
    0.8510   11.0370   -3.9550 C   0  0  0  0  0  0  0  0  0  0  0  0
   -0.1030   10.1120   -3.2740 C   0  0  0  0  0  0  0  0  0  0  0  0
   -0.1980    9.9260   -1.9440 C   0  0  0  0  0  0  0  0  0  0  0  0
    0.7790   10.6130   -0.9810 C   0  0  1  0  0  0  0  0  0  0  0  0
    1.2960    9.5810    0.0560 C   0  0  0  0  0  0  0  0  0  0  0  0
    0.1620    8.8670    0.7850 C   0  0  0  0  0  0  0  0  0  0  0  0
   -0.7540    8.1480   -0.2010 C   0  0  2  0  0  0  0  0  0  0  0  0
   -0.0240    7.0800   -0.8140 O   0  0  0  0  0  0  0  0  0  0  0  0
   -1.3280    9.0850   -1.3000 C   0  0  0  0  0  0  0  0  0  0  0  0
   -2.3570   10.0560   -0.6700 C   0  0  0  0  0  0  0  0  0  0  0  0
   -2.1180    8.2100   -2.3100 C   0  0  0  0  0  0  0  0  0  0  0  0
    1.9560   11.4390   -1.6590 C   0  0  1  0  0  0  0  0  0  0  0  0
    3.1610   10.4970   -1.9610 C   0  0  0  0  0  0  0  0  0  0  0  0
    2.4800   12.5180   -0.6400 C   0  0  0  0  0  0  0  0  0  0  0  0
    1.7620   13.8810   -0.6400 C   0  0  0  0  0  0  0  0  0  0  0  0
    1.6330   14.4320   -2.0630 C   0  0  2  0  0  0  0  0  0  0  0  0
    3.0790   14.6700   -2.6170 C   0  0  0  0  0  0  0  0  0  0  0  0
    1.0221   17.1109    0.2724 H   0  0  0  0  0  0  0  0  0  0  0  0
    2.3942   16.0249   -0.1332 H   0  0  0  0  0  0  0  0  0  0  0  0
    2.6281   17.8059   -0.1332 H   0  0  0  0  0  0  0  0  0  0  0  0
    2.4469   17.1680   -2.4168 H   0  0  0  0  0  0  0  0  0  0  0  0
    0.8051   18.5673   -3.1810 H   0  0  0  0  0  0  0  0  0  0  0  0
   -0.4241   17.9137   -1.9951 H   0  0  0  0  0  0  0  0  0  0  0  0
    1.3854   19.1135   -0.3293 H   0  0  0  0  0  0  0  0  0  0  0  0
    1.4062   20.2070   -1.7757 H   0  0  0  0  0  0  0  0  0  0  0  0
   -0.4964   20.6820   -1.6977 H   0  0  0  0  0  0  0  0  0  0  0  0
   -1.3492   17.7685    1.4356 H   0  0  0  0  0  0  0  0  0  0  0  0
   -2.1946   17.2780   -0.0715 H   0  0  0  0  0  0  0  0  0  0  0  0
   -0.4113   17.4935   -0.0715 H   0  0  0  0  0  0  0  0  0  0  0  0
   -3.3167   19.9535    0.9458 H   0  0  0  0  0  0  0  0  0  0  0  0
   -2.9630   20.7806   -0.6090 H   0  0  0  0  0  0  0  0  0  0  0  0
   -3.5766   19.0924   -0.6090 H   0  0  0  0  0  0  0  0  0  0  0  0
   -0.0125   15.7665   -1.5232 H   0  0  0  0  0  0  0  0  0  0  0  0
   -0.6151   16.0420   -3.8477 H   0  0  0  0  0  0  0  0  0  0  0  0
    1.0598   16.4022   -4.3188 H   0  0  0  0  0  0  0  0  0  0  0  0
   -0.2951   13.9272   -4.7655 H   0  0  0  0  0  0  0  0  0  0  0  0
    1.4500   14.1344   -4.8903 H   0  0  0  0  0  0  0  0  0  0  0  0
   -0.6837   13.2313   -1.2760 H   0  0  0  0  0  0  0  0  0  0  0  0
   -1.3350   14.0465   -2.7382 H   0  0  0  0  0  0  0  0  0  0  0  0
   -1.0841   12.2678   -2.7382 H   0  0  0  0  0  0  0  0  0  0  0  0
    2.4473   12.3754   -3.5575 H   0  0  0  0  0  0  0  0  0  0  0  0
    0.2995   11.5782   -4.7379 H   0  0  0  0  0  0  0  0  0  0  0  0
    1.6623   10.4048   -4.3450 H   0  0  0  0  0  0  0  0  0  0  0  0
   -0.7861    9.5335   -3.9132 H   0  0  0  0  0  0  0  0  0  0  0  0
    0.2013   11.3977   -0.4706 H   0  0  0  0  0  0  0  0  0  0  0  0
    1.9066    8.8305   -0.4674 H   0  0  0  0  0  0  0  0  0  0  0  0
    1.8841   10.1282    0.8074 H   0  0  0  0  0  0  0  0  0  0  0  0
    0.5894    8.1308    1.4817 H   0  0  0  0  0  0  0  0  0  0  0  0
   -0.4300    9.6159    1.3315 H   0  0  0  0  0  0  0  0  0  0  0  0
   -1.6151    7.7667    0.3675 H   0  0  0  0  0  0  0  0  0  0  0  0
   -0.4620    6.2470   -0.5710 H   0  0  0  0  0  0  0  0  0  0  0  0
   -2.2938    9.9963    0.4266 H   0  0  0  0  0  0  0  0  0  0  0  0
   -2.1376   11.0839   -0.9945 H   0  0  0  0  0  0  0  0  0  0  0  0
   -3.3704    9.7774   -0.9945 H   0  0  0  0  0  0  0  0  0  0  0  0
   -2.7568    7.5025   -1.7610 H   0  0  0  0  0  0  0  0  0  0  0  0
   -2.7451    8.8556   -2.9423 H   0  0  0  0  0  0  0  0  0  0  0  0
   -1.4119    7.6519   -2.9423 H   0  0  0  0  0  0  0  0  0  0  0  0
    3.6027   10.1517   -1.0146 H   0  0  0  0  0  0  0  0  0  0  0  0
    2.8121    9.6297   -2.5408 H   0  0  0  0  0  0  0  0  0  0  0  0
    3.9184   11.0449   -2.5408 H   0  0  0  0  0  0  0  0  0  0  0  0
    2.3879   12.0935    0.3706 H   0  0  0  0  0  0  0  0  0  0  0  0
    3.5106   12.7360   -0.9567 H   0  0  0  0  0  0  0  0  0  0  0  0
    0.7574   13.7586   -0.2090 H   0  0  0  0  0  0  0  0  0  0  0  0
    2.3537   14.5894   -0.0417 H   0  0  0  0  0  0  0  0  0  0  0  0
    3.7793   14.7853   -1.7766 H   0  0  0  0  0  0  0  0  0  0  0  0
    3.3824   13.8097   -3.2317 H   0  0  0  0  0  0  0  0  0  0  0  0
    3.0906   15.5821   -3.2317 H   0  0  0  0  0  0  0  0  0  0  0  0
  1  2  1  0
  2  3  1  0
  3  4  1  0
  4  5  1  0
  5  6  1  0
  6  7  1  0
  7  8  1  0
  7  9  1  0
  2 10  1  0
 10 11  1  0
 11 12  1  0
 12 13  1  0
 13 14  1  1
 13 15  1  0
 15 16  1  0
 16 17  1  0
 17 18  2  0
 18 19  1  0
 19 20  1  0
 20 21  1  0
 21 22  1  0
 22 23  1  0
 22 24  1  0
 24 25  1  0
 24 26  1  0
 19 27  1  0
 27 28  1  6
 27 29  1  0
 29 30  1  0
 30 31  1  0
 31 32  1  6
  7  5  1  0
 31 10  1  0
 31 13  1  0
 27 15  1  0
 24 18  1  0
  1 33  1  0
  1 34  1  0
  1 35  1  0
  2 36  1  6
  3 37  1  0
  3 38  1  0
  4 39  1  0
  4 40  1  0
  5 41  1  6
  8 42  1  0
  8 43  1  0
  8 44  1  0
  9 45  1  0
  9 46  1  0
  9 47  1  0
 10 48  1  1
 11 49  1  0
 11 50  1  0
 12 51  1  0
 12 52  1  0
 14 53  1  0
 14 54  1  0
 14 55  1  0
 15 56  1  6
 16 57  1  0
 16 58  1  0
 17 59  1  0
 19 60  1  1
 20 61  1  0
 20 62  1  0
 21 63  1  0
 21 64  1  0
 22 65  1  1
 23 66  1  0
 25 67  1  0
 25 68  1  0
 25 69  1  0
 26 70  1  0
 26 71  1  0
 26 72  1  0
 28 73  1  0
 28 74  1  0
 28 75  1  0
 29 76  1  0
 29 77  1  0
 30 78  1  0
 30 79  1  0
 32 80  1  0
 32 81  1  0
 32 82  1  0
M  END
>  <meeko>  (3) 
{"is_sidechain": [false], "intermolecular_energy": 2.731, "internal_energy": -0.839}

$$$$
EPH_relaxed_0001_pdb2pqr_Repair_18_r2_0001_out
     RDKit          3D

 82 86  0  0  0  0  0  0  0  0999 V2000
    2.3930   19.8110   -0.8970 C   0  0  0  0  0  0  0  0  0  0  0  0
    2.1530   18.8920    0.3050 C   0  0  2  0  0  0  0  0  0  0  0  0
    3.4730   18.3990    0.9310 C   0  0  0  0  0  0  0  0  0  0  0  0
    3.7580   18.9920    2.3130 C   0  0  0  0  0  0  0  0  0  0  0  0
    5.2260   19.0080    2.6180 C   0  0  2  0  0  0  0  0  0  0  0  0
    5.6880   17.8940    3.3930 O   0  0  0  0  0  0  0  0  0  0  0  0
    5.7880   19.1850    4.0160 C   0  0  0  0  0  0  0  0  0  0  0  0
    4.8910   19.3590    5.2010 C   0  0  0  0  0  0  0  0  0  0  0  0
    7.1950   19.6750    4.1650 C   0  0  0  0  0  0  0  0  0  0  0  0
    1.2980   17.7020   -0.1130 C   0  0  1  0  0  0  0  0  0  0  0  0
    0.1770   18.0940   -1.1130 C   0  0  0  0  0  0  0  0  0  0  0  0
    0.0050   16.8960   -2.0830 C   0  0  0  0  0  0  0  0  0  0  0  0
    0.7840   15.7390   -1.4160 C   0  0  1  0  0  0  0  0  0  0  0  0
   -0.1890   15.1680   -0.3380 C   0  0  0  0  0  0  0  0  0  0  0  0
    1.3080   14.6180   -2.3720 C   0  0  2  0  0  0  0  0  0  0  0  0
    0.2160   13.8350   -3.1200 C   0  0  0  0  0  0  0  0  0  0  0  0
   -0.2870   12.6150   -2.4220 C   0  0  0  0  0  0  0  0  0  0  0  0
    0.3140   12.0050   -1.3830 C   0  0  0  0  0  0  0  0  0  0  0  0
    1.6770   12.4860   -0.8690 C   0  0  1  0  0  0  0  0  0  0  0  0
    2.6110   11.2650   -0.6600 C   0  0  0  0  0  0  0  0  0  0  0  0
    1.9900   10.2000    0.2390 C   0  0  0  0  0  0  0  0  0  0  0  0
    0.6650    9.7060   -0.3350 C   0  0  2  0  0  0  0  0  0  0  0  0
    0.9240    9.0040   -1.5550 O   0  0  0  0  0  0  0  0  0  0  0  0
   -0.3540   10.8500   -0.5970 C   0  0  0  0  0  0  0  0  0  0  0  0
   -0.8640   11.4120    0.7530 C   0  0  0  0  0  0  0  0  0  0  0  0
   -1.5910   10.2350   -1.3060 C   0  0  0  0  0  0  0  0  0  0  0  0
    2.3660   13.6440   -1.7100 C   0  0  1  0  0  0  0  0  0  0  0  0
    3.1980   13.0310   -2.8780 C   0  0  0  0  0  0  0  0  0  0  0  0
    3.3900   14.4090   -0.7900 C   0  0  0  0  0  0  0  0  0  0  0  0
    2.8350   15.5830    0.0390 C   0  0  0  0  0  0  0  0  0  0  0  0
    2.0120   16.5320   -0.8360 C   0  0  2  0  0  0  0  0  0  0  0  0
    2.9700   17.1390   -1.9170 C   0  0  0  0  0  0  0  0  0  0  0  0
    2.6560   20.8183   -0.5417 H   0  0  0  0  0  0  0  0  0  0  0  0
    3.2166   19.4104   -1.5062 H   0  0  0  0  0  0  0  0  0  0  0  0
    1.4786   19.8642   -1.5062 H   0  0  0  0  0  0  0  0  0  0  0  0
    1.6237   19.4789    1.0701 H   0  0  0  0  0  0  0  0  0  0  0  0
    3.4246   17.3042    1.0262 H   0  0  0  0  0  0  0  0  0  0  0  0
    4.2860   18.7271    0.2666 H   0  0  0  0  0  0  0  0  0  0  0  0
    3.3763   20.0232    2.3440 H   0  0  0  0  0  0  0  0  0  0  0  0
    3.2585   18.3638    3.0652 H   0  0  0  0  0  0  0  0  0  0  0  0
    5.4425   19.5154    1.6663 H   0  0  0  0  0  0  0  0  0  0  0  0
    5.4775   19.2452    6.1246 H   0  0  0  0  0  0  0  0  0  0  0  0
    4.4391   20.3615    5.1747 H   0  0  0  0  0  0  0  0  0  0  0  0
    4.0970   18.5981    5.1747 H   0  0  0  0  0  0  0  0  0  0  0  0
    7.4421   19.7610    5.2334 H   0  0  0  0  0  0  0  0  0  0  0  0
    7.8837   18.9638    3.6855 H   0  0  0  0  0  0  0  0  0  0  0  0
    7.2929   20.6601    3.6855 H   0  0  0  0  0  0  0  0  0  0  0  0
    0.9438   17.3730    0.8751 H   0  0  0  0  0  0  0  0  0  0  0  0
   -0.7629   18.2829   -0.5737 H   0  0  0  0  0  0  0  0  0  0  0  0
    0.4387   19.0115   -1.6604 H   0  0  0  0  0  0  0  0  0  0  0  0
   -1.0580   16.6354   -2.1936 H   0  0  0  0  0  0  0  0  0  0  0  0
    0.3766   17.1209   -3.0936 H   0  0  0  0  0  0  0  0  0  0  0  0
    0.2003   15.3965    0.6651 H   0  0  0  0  0  0  0  0  0  0  0  0
   -1.1812   15.6271   -0.4596 H   0  0  0  0  0  0  0  0  0  0  0  0
   -0.2720   14.0779   -0.4596 H   0  0  0  0  0  0  0  0  0  0  0  0
    1.8418   15.1952   -3.1413 H   0  0  0  0  0  0  0  0  0  0  0  0
   -0.6371   14.5107   -3.2802 H   0  0  0  0  0  0  0  0  0  0  0  0
    0.6803   13.4817   -4.0526 H   0  0  0  0  0  0  0  0  0  0  0  0
   -1.2279   12.1776   -2.7873 H   0  0  0  0  0  0  0  0  0  0  0  0
    1.4823   12.9772    0.0958 H   0  0  0  0  0  0  0  0  0  0  0  0
    2.8286   10.8158   -1.6402 H   0  0  0  0  0  0  0  0  0  0  0  0
    3.5262   11.6253   -0.1674 H   0  0  0  0  0  0  0  0  0  0  0  0
    2.6843    9.3511    0.3238 H   0  0  0  0  0  0  0  0  0  0  0  0
    1.8007   10.6426    1.2281 H   0  0  0  0  0  0  0  0  0  0  0  0
    0.2074    9.0441    0.4149 H   0  0  0  0  0  0  0  0  0  0  0  0
    1.7410    8.4920   -1.4310 H   0  0  0  0  0  0  0  0  0  0  0  0
   -0.3772   10.8756    1.5808 H   0  0  0  0  0  0  0  0  0  0  0  0
   -0.6234   12.4834    0.8185 H   0  0  0  0  0  0  0  0  0  0  0  0
   -1.9536   11.2762    0.8185 H   0  0  0  0  0  0  0  0  0  0  0  0
   -2.3071    9.8790   -0.5508 H   0  0  0  0  0  0  0  0  0  0  0  0
   -2.0709   10.9994   -1.9348 H   0  0  0  0  0  0  0  0  0  0  0  0
   -1.2712    9.3909   -1.9348 H   0  0  0  0  0  0  0  0  0  0  0  0
    4.0189   12.4262   -2.4654 H   0  0  0  0  0  0  0  0  0  0  0  0
    2.5482   12.3942   -3.4962 H   0  0  0  0  0  0  0  0  0  0  0  0
    3.6137   13.8403   -3.4962 H   0  0  0  0  0  0  0  0  0  0  0  0
    3.8172   13.6781   -0.0877 H   0  0  0  0  0  0  0  0  0  0  0  0
    4.1159   14.8620   -1.4812 H   0  0  0  0  0  0  0  0  0  0  0  0
    2.1945   15.1863    0.8405 H   0  0  0  0  0  0  0  0  0  0  0  0
    3.6812   16.1431    0.4635 H   0  0  0  0  0  0  0  0  0  0  0  0
    3.7986   17.6640   -1.4193 H   0  0  0  0  0  0  0  0  0  0  0  0
    3.3727   16.3309   -2.5453 H   0  0  0  0  0  0  0  0  0  0  0  0
    2.4113   17.8482   -2.5453 H   0  0  0  0  0  0  0  0  0  0  0  0
  1  2  1  0
  2  3  1  0
  3  4  1  0
  4  5  1  0
  5  6  1  0
  6  7  1  0
  7  8  1  0
  7  9  1  0
  2 10  1  0
 10 11  1  0
 11 12  1  0
 12 13  1  0
 13 14  1  1
 13 15  1  0
 15 16  1  0
 16 17  1  0
 17 18  2  0
 18 19  1  0
 19 20  1  0
 20 21  1  0
 21 22  1  0
 22 23  1  0
 22 24  1  0
 24 25  1  0
 24 26  1  0
 19 27  1  0
 27 28  1  6
 27 29  1  0
 29 30  1  0
 30 31  1  0
 31 32  1  6
  7  5  1  0
 31 10  1  0
 31 13  1  0
 27 15  1  0
 24 18  1  0
  1 33  1  0
  1 34  1  0
  1 35  1  0
  2 36  1  1
  3 37  1  0
  3 38  1  0
  4 39  1  0
  4 40  1  0
  5 41  1  6
  8 42  1  0
  8 43  1  0
  8 44  1  0
  9 45  1  0
  9 46  1  0
  9 47  1  0
 10 48  1  1
 11 49  1  0
 11 50  1  0
 12 51  1  0
 12 52  1  0
 14 53  1  0
 14 54  1  0
 14 55  1  0
 15 56  1  6
 16 57  1  0
 16 58  1  0
 17 59  1  0
 19 60  1  1
 20 61  1  0
 20 62  1  0
 21 63  1  0
 21 64  1  0
 22 65  1  1
 23 66  1  0
 25 67  1  0
 25 68  1  0
 25 69  1  0
 26 70  1  0
 26 71  1  0
 26 72  1  0
 28 73  1  0
 28 74  1  0
 28 75  1  0
 29 76  1  0
 29 77  1  0
 30 78  1  0
 30 79  1  0
 32 80  1  0
 32 81  1  0
 32 82  1  0
M  END
>  <meeko>  (4) 
{"is_sidechain": [false], "intermolecular_energy": 2.731, "internal_energy": -0.839}

$$$$
EPH_relaxed_0001_pdb2pqr_Repair_18_r2_0001_out
     RDKit          3D

 82 86  0  0  0  0  0  0  0  0999 V2000
    3.7440   18.0780    0.6970 C   0  0  0  0  0  0  0  0  0  0  0  0
    2.6210   18.5970   -0.2040 C   0  0  2  0  0  0  0  0  0  0  0  0
    1.8670   19.7830    0.4320 C   0  0  0  0  0  0  0  0  0  0  0  0
    0.5470   19.3870    1.0980 C   0  0  0  0  0  0  0  0  0  0  0  0
   -0.6250   20.0610    0.4500 C   0  0  2  0  0  0  0  0  0  0  0  0
   -1.7830   20.1820    1.2860 O   0  0  0  0  0  0  0  0  0  0  0  0
   -1.9240   19.3480    0.1240 C   0  0  0  0  0  0  0  0  0  0  0  0
   -2.1180   17.8970    0.4350 C   0  0  0  0  0  0  0  0  0  0  0  0
   -2.8130   19.9290   -0.9310 C   0  0  0  0  0  0  0  0  0  0  0  0
    1.6450   17.4700   -0.5200 C   0  0  1  0  0  0  0  0  0  0  0  0
    0.5120   17.9130   -1.4840 C   0  0  0  0  0  0  0  0  0  0  0  0
    0.1870   16.6920   -2.3820 C   0  0  0  0  0  0  0  0  0  0  0  0
    0.8970   15.5020   -1.6960 C   0  0  1  0  0  0  0  0  0  0  0  0
   -0.0650   15.0700   -0.5450 C   0  0  0  0  0  0  0  0  0  0  0  0
    1.2720   14.2960   -2.6180 C   0  0  2  0  0  0  0  0  0  0  0  0
    0.0780   13.5800   -3.2730 C   0  0  0  0  0  0  0  0  0  0  0  0
   -0.4900   12.4420   -2.4910 C   0  0  0  0  0  0  0  0  0  0  0  0
    0.1080   11.8300   -1.4530 C   0  0  0  0  0  0  0  0  0  0  0  0
    1.5330   12.2110   -1.0290 C   0  0  1  0  0  0  0  0  0  0  0  0
    2.3680   10.9230   -0.8040 C   0  0  0  0  0  0  0  0  0  0  0  0
    1.7050    9.9600    0.1770 C   0  0  0  0  0  0  0  0  0  0  0  0
    0.3140    9.5600   -0.3080 C   0  0  2  0  0  0  0  0  0  0  0  0
    0.4480    8.7820   -1.5020 O   0  0  0  0  0  0  0  0  0  0  0  0
   -0.6150   10.7770   -0.5780 C   0  0  0  0  0  0  0  0  0  0  0  0
   -1.0030   11.4430    0.7650 C   0  0  0  0  0  0  0  0  0  0  0  0
   -1.9350   10.2420   -1.1950 C   0  0  0  0  0  0  0  0  0  0  0  0
    2.2750   13.2640   -1.9600 C   0  0  1  0  0  0  0  0  0  0  0  0
    2.9890   12.5270   -3.1340 C   0  0  0  0  0  0  0  0  0  0  0  0
    3.4070   13.9770   -1.1290 C   0  0  0  0  0  0  0  0  0  0  0  0
    3.0000   15.2320   -0.3350 C   0  0  0  0  0  0  0  0  0  0  0  0
    2.2170   16.2090   -1.2160 C   0  0  2  0  0  0  0  0  0  0  0  0
    3.1660   16.6780   -2.3710 C   0  0  0  0  0  0  0  0  0  0  0  0
    3.4588   18.2098    1.7512 H   0  0  0  0  0  0  0  0  0  0  0  0
    3.9134   17.0103    0.4937 H   0  0  0  0  0  0  0  0  0  0  0  0
    4.6670   18.6409    0.4937 H   0  0  0  0  0  0  0  0  0  0  0  0
    3.0841   18.9598   -1.1335 H   0  0  0  0  0  0  0  0  0  0  0  0
    2.5167   20.2396    1.1932 H   0  0  0  0  0  0  0  0  0  0  0  0
    1.6198   20.4804   -0.3819 H   0  0  0  0  0  0  0  0  0  0  0  0
    0.4204   18.2972    1.0184 H   0  0  0  0  0  0  0  0  0  0  0  0
    0.5856   19.7034    2.1508 H   0  0  0  0  0  0  0  0  0  0  0  0
    0.0421   20.6924   -0.1553 H   0  0  0  0  0  0  0  0  0  0  0  0
   -2.1370   17.7551    1.5256 H   0  0  0  0  0  0  0  0  0  0  0  0
   -3.0700   17.5537    0.0040 H   0  0  0  0  0  0  0  0  0  0  0  0
   -1.2896   17.3157    0.0040 H   0  0  0  0  0  0  0  0  0  0  0  0
   -3.6426   20.4712   -0.4536 H   0  0  0  0  0  0  0  0  0  0  0  0
   -2.2335   20.6232   -1.5573 H   0  0  0  0  0  0  0  0  0  0  0  0
   -3.2162   19.1196   -1.5573 H   0  0  0  0  0  0  0  0  0  0  0  0
    1.3148   17.2205    0.4992 H   0  0  0  0  0  0  0  0  0  0  0  0
   -0.3788   18.2096   -0.9108 H   0  0  0  0  0  0  0  0  0  0  0  0
    0.8234   18.7771   -2.0893 H   0  0  0  0  0  0  0  0  0  0  0  0
   -0.8988   16.5220   -2.4279 H   0  0  0  0  0  0  0  0  0  0  0  0
    0.5235   16.8363   -3.4193 H   0  0  0  0  0  0  0  0  0  0  0  0
    0.4066   15.2818    0.4259 H   0  0  0  0  0  0  0  0  0  0  0  0
   -1.0077   15.6312   -0.6249 H   0  0  0  0  0  0  0  0  0  0  0  0
   -0.2718   13.9926   -0.6249 H   0  0  0  0  0  0  0  0  0  0  0  0
    1.8136   14.7870   -3.4400 H   0  0  0  0  0  0  0  0  0  0  0  0
   -0.7210   14.3206   -3.4246 H   0  0  0  0  0  0  0  0  0  0  0  0
    0.4595   13.1459   -4.2090 H   0  0  0  0  0  0  0  0  0  0  0  0
   -1.4822   12.0724   -2.7891 H   0  0  0  0  0  0  0  0  0  0  0  0
    1.4318   12.7606   -0.0816 H   0  0  0  0  0  0  0  0  0  0  0  0
    2.4943   10.4114   -1.7696 H   0  0  0  0  0  0  0  0  0  0  0  0
    3.3356   11.2229   -0.3753 H   0  0  0  0  0  0  0  0  0  0  0  0
    2.3267    9.0575    0.2715 H   0  0  0  0  0  0  0  0  0  0  0  0
    1.6066   10.4626    1.1505 H   0  0  0  0  0  0  0  0  0  0  0  0
   -0.1600    8.9766    0.4951 H   0  0  0  0  0  0  0  0  0  0  0  0
    0.3600    7.8460   -1.2550 H   0  0  0  0  0  0  0  0  0  0  0  0
   -0.6421   10.8235    1.5992 H   0  0  0  0  0  0  0  0  0  0  0  0
   -0.5452   12.4414    0.8249 H   0  0  0  0  0  0  0  0  0  0  0  0
   -2.0973   11.5372    0.8249 H   0  0  0  0  0  0  0  0  0  0  0  0
   -2.6289    9.9608   -0.3891 H   0  0  0  0  0  0  0  0  0  0  0  0
   -2.3932   11.0254   -1.8166 H   0  0  0  0  0  0  0  0  0  0  0  0
   -1.7184    9.3607   -1.8166 H   0  0  0  0  0  0  0  0  0  0  0  0
    3.7002   11.7929   -2.7276 H   0  0  0  0  0  0  0  0  0  0  0  0
    2.2402   12.0092   -3.7513 H   0  0  0  0  0  0  0  0  0  0  0  0
    3.5303   13.2590   -3.7513 H   0  0  0  0  0  0  0  0  0  0  0  0
    3.8050   13.2441   -0.4118 H   0  0  0  0  0  0  0  0  0  0  0  0
    4.1322   14.3319   -1.8761 H   0  0  0  0  0  0  0  0  0  0  0  0
    2.3707   14.9311    0.5156 H   0  0  0  0  0  0  0  0  0  0  0  0
    3.9126   15.7338    0.0191 H   0  0  0  0  0  0  0  0  0  0  0  0
    4.0735   17.1265   -1.9406 H   0  0  0  0  0  0  0  0  0  0  0  0
    3.4433   15.8132   -2.9917 H   0  0  0  0  0  0  0  0  0  0  0  0
    2.6475   17.4236   -2.9917 H   0  0  0  0  0  0  0  0  0  0  0  0
  1  2  1  0
  2  3  1  0
  3  4  1  0
  4  5  1  0
  5  6  1  0
  6  7  1  0
  7  8  1  0
  7  9  1  0
  2 10  1  0
 10 11  1  0
 11 12  1  0
 12 13  1  0
 13 14  1  1
 13 15  1  0
 15 16  1  0
 16 17  1  0
 17 18  2  0
 18 19  1  0
 19 20  1  0
 20 21  1  0
 21 22  1  0
 22 23  1  0
 22 24  1  0
 24 25  1  0
 24 26  1  0
 19 27  1  0
 27 28  1  6
 27 29  1  0
 29 30  1  0
 30 31  1  0
 31 32  1  6
  7  5  1  0
 31 10  1  0
 31 13  1  0
 27 15  1  0
 24 18  1  0
  1 33  1  0
  1 34  1  0
  1 35  1  0
  2 36  1  6
  3 37  1  0
  3 38  1  0
  4 39  1  0
  4 40  1  0
  5 41  1  6
  8 42  1  0
  8 43  1  0
  8 44  1  0
  9 45  1  0
  9 46  1  0
  9 47  1  0
 10 48  1  1
 11 49  1  0
 11 50  1  0
 12 51  1  0
 12 52  1  0
 14 53  1  0
 14 54  1  0
 14 55  1  0
 15 56  1  6
 16 57  1  0
 16 58  1  0
 17 59  1  0
 19 60  1  1
 20 61  1  0
 20 62  1  0
 21 63  1  0
 21 64  1  0
 22 65  1  1
 23 66  1  0
 25 67  1  0
 25 68  1  0
 25 69  1  0
 26 70  1  0
 26 71  1  0
 26 72  1  0
 28 73  1  0
 28 74  1  0
 28 75  1  0
 29 76  1  0
 29 77  1  0
 30 78  1  0
 30 79  1  0
 32 80  1  0
 32 81  1  0
 32 82  1  0
M  END
>  <meeko>  (5) 
{"is_sidechain": [false], "intermolecular_energy": 2.731, "internal_energy": -0.839}

$$$$
EPH_relaxed_0001_pdb2pqr_Repair_18_r2_0001_out
     RDKit          3D

 82 86  0  0  0  0  0  0  0  0999 V2000
   -5.1860    5.8370   -1.7780 C   0  0  0  0  0  0  0  0  0  0  0  0
   -5.4730    7.3390   -1.8580 C   0  0  2  0  0  0  0  0  0  0  0  0
   -5.2270    8.0500   -0.5120 C   0  0  0  0  0  0  0  0  0  0  0  0
   -4.1280    9.1150   -0.5700 C   0  0  0  0  0  0  0  0  0  0  0  0
   -2.8680    8.5780   -1.1780 C   0  0  2  0  0  0  0  0  0  0  0  0
   -1.7370    8.5640   -0.2970 O   0  0  0  0  0  0  0  0  0  0  0  0
   -1.6380    9.4280   -1.4410 C   0  0  0  0  0  0  0  0  0  0  0  0
   -1.6100   10.8850   -1.1030 C   0  0  0  0  0  0  0  0  0  0  0  0
   -0.6520    8.9610   -2.4660 C   0  0  0  0  0  0  0  0  0  0  0  0
   -6.9080    7.5710   -2.3150 C   0  0  1  0  0  0  0  0  0  0  0  0
   -7.2250    6.8770   -3.6660 C   0  0  0  0  0  0  0  0  0  0  0  0
   -8.7010    6.4090   -3.5940 C   0  0  0  0  0  0  0  0  0  0  0  0
   -9.2790    7.1320   -2.3550 C   0  0  1  0  0  0  0  0  0  0  0  0
   -9.6280    8.5690   -2.8550 C   0  0  0  0  0  0  0  0  0  0  0  0
  -10.5040    6.4480   -1.6650 C   0  0  2  0  0  0  0  0  0  0  0  0
  -11.7630    6.3270   -2.5420 C   0  0  0  0  0  0  0  0  0  0  0  0
  -12.7130    7.4760   -2.4560 C   0  0  0  0  0  0  0  0  0  0  0  0
  -12.7080    8.4240   -1.5010 C   0  0  0  0  0  0  0  0  0  0  0  0
  -11.7380    8.3440   -0.3150 C   0  0  1  0  0  0  0  0  0  0  0  0
  -12.5070    8.6250    1.0030 C   0  0  0  0  0  0  0  0  0  0  0  0
  -13.2720    9.9440    0.9640 C   0  0  0  0  0  0  0  0  0  0  0  0
  -14.2680    9.9630   -0.1930 C   0  0  2  0  0  0  0  0  0  0  0  0
  -15.2870    8.9920    0.0600 O   0  0  0  0  0  0  0  0  0  0  0  0
  -13.6090    9.6820   -1.5730 C   0  0  0  0  0  0  0  0  0  0  0  0
  -12.7280   10.8880   -1.9850 C   0  0  0  0  0  0  0  0  0  0  0  0
  -14.7410    9.5890   -2.6320 C   0  0  0  0  0  0  0  0  0  0  0  0
  -10.8500    7.0280   -0.2340 C   0  0  1  0  0  0  0  0  0  0  0  0
  -11.6250    5.9080    0.5250 C   0  0  0  0  0  0  0  0  0  0  0  0
   -9.5600    7.3310    0.6160 C   0  0  0  0  0  0  0  0  0  0  0  0
   -8.3430    7.8930   -0.1430 C   0  0  0  0  0  0  0  0  0  0  0  0
   -8.0400    7.0570   -1.3900 C   0  0  2  0  0  0  0  0  0  0  0  0
   -7.6650    5.6110   -0.9170 C   0  0  0  0  0  0  0  0  0  0  0  0
   -5.1274    5.5306   -0.7232 H   0  0  0  0  0  0  0  0  0  0  0  0
   -5.9944    5.2822   -2.2767 H   0  0  0  0  0  0  0  0  0  0  0  0
   -4.2300    5.6193   -2.2767 H   0  0  0  0  0  0  0  0  0  0  0  0
   -4.7755    7.7700   -2.5912 H   0  0  0  0  0  0  0  0  0  0  0  0
   -6.1637    8.5343   -0.1988 H   0  0  0  0  0  0  0  0  0  0  0  0
   -4.8928    7.2818    0.2009 H   0  0  0  0  0  0  0  0  0  0  0  0
   -4.4835    9.9616   -1.1757 H   0  0  0  0  0  0  0  0  0  0  0  0
   -3.9040    9.4332    0.4589 H   0  0  0  0  0  0  0  0  0  0  0  0
   -3.4412    7.8913   -1.8182 H   0  0  0  0  0  0  0  0  0  0  0  0
   -1.6076   11.0078   -0.0099 H   0  0  0  0  0  0  0  0  0  0  0  0
   -0.7029   11.3420   -1.5253 H   0  0  0  0  0  0  0  0  0  0  0  0
   -2.4989   11.3765   -1.5253 H   0  0  0  0  0  0  0  0  0  0  0  0
    0.2313    8.5427   -1.9612 H   0  0  0  0  0  0  0  0  0  0  0  0
   -1.1158    8.1869   -3.0950 H   0  0  0  0  0  0  0  0  0  0  0  0
   -0.3469    9.8103   -3.0950 H   0  0  0  0  0  0  0  0  0  0  0  0
   -6.9162    8.6705   -2.3458 H   0  0  0  0  0  0  0  0  0  0  0  0
   -7.0928    7.5864   -4.4963 H   0  0  0  0  0  0  0  0  0  0  0  0
   -6.5495    6.0266   -3.8408 H   0  0  0  0  0  0  0  0  0  0  0  0
   -9.2460    6.7014   -4.5037 H   0  0  0  0  0  0  0  0  0  0  0  0
   -8.7887    5.3152   -3.5176 H   0  0  0  0  0  0  0  0  0  0  0  0
   -9.7884    9.2293   -1.9900 H   0  0  0  0  0  0  0  0  0  0  0  0
   -8.7980    8.9571   -3.4637 H   0  0  0  0  0  0  0  0  0  0  0  0
  -10.5436    8.5332   -3.4637 H   0  0  0  0  0  0  0  0  0  0  0  0
  -10.1450    5.4193   -1.5136 H   0  0  0  0  0  0  0  0  0  0  0  0
  -11.4399    6.2307   -3.5891 H   0  0  0  0  0  0  0  0  0  0  0  0
  -12.3114    5.4500   -2.1678 H   0  0  0  0  0  0  0  0  0  0  0  0
  -13.4815    7.5540   -3.2392 H   0  0  0  0  0  0  0  0  0  0  0  0
  -10.9863    9.1292   -0.4832 H   0  0  0  0  0  0  0  0  0  0  0  0
  -13.2225    7.8074    1.1750 H   0  0  0  0  0  0  0  0  0  0  0  0
  -11.7666    8.6923    1.8137 H   0  0  0  0  0  0  0  0  0  0  0  0
  -13.8174   10.0720    1.9107 H   0  0  0  0  0  0  0  0  0  0  0  0
  -12.5521   10.7634    0.8211 H   0  0  0  0  0  0  0  0  0  0  0  0
  -14.6908   10.9770   -0.2479 H   0  0  0  0  0  0  0  0  0  0  0  0
  -15.0620    8.1910   -0.4420 H   0  0  0  0  0  0  0  0  0  0  0  0
  -12.3568   11.3961   -1.0828 H   0  0  0  0  0  0  0  0  0  0  0  0
  -11.8756   10.5323   -2.5824 H   0  0  0  0  0  0  0  0  0  0  0  0
  -13.3261   11.5919   -2.5824 H   0  0  0  0  0  0  0  0  0  0  0  0
  -15.7131    9.5091   -2.1235 H   0  0  0  0  0  0  0  0  0  0  0  0
  -14.7294   10.4911   -3.2613 H   0  0  0  0  0  0  0  0  0  0  0  0
  -14.5823    8.7009   -3.2613 H   0  0  0  0  0  0  0  0  0  0  0  0
  -11.5200    6.0598    1.6094 H   0  0  0  0  0  0  0  0  0  0  0  0
  -12.6895    5.9481    0.2505 H   0  0  0  0  0  0  0  0  0  0  0  0
  -11.2123    4.9260    0.2505 H   0  0  0  0  0  0  0  0  0  0  0  0
   -9.8359    8.0623    1.3900 H   0  0  0  0  0  0  0  0  0  0  0  0
   -9.2328    6.3535    1.0001 H   0  0  0  0  0  0  0  0  0  0  0  0
   -8.5555    8.9286   -0.4471 H   0  0  0  0  0  0  0  0  0  0  0  0
   -7.4682    7.8587    0.5230 H   0  0  0  0  0  0  0  0  0  0  0  0
   -7.6558    5.5757    0.1824 H   0  0  0  0  0  0  0  0  0  0  0  0
   -8.4073    4.8956   -1.3007 H   0  0  0  0  0  0  0  0  0  0  0  0
   -6.6686    5.3466   -1.3007 H   0  0  0  0  0  0  0  0  0  0  0  0
  1  2  1  0
  2  3  1  0
  3  4  1  0
  4  5  1  0
  5  6  1  0
  6  7  1  0
  7  8  1  0
  7  9  1  0
  2 10  1  0
 10 11  1  0
 11 12  1  0
 12 13  1  0
 13 14  1  6
 13 15  1  0
 15 16  1  0
 16 17  1  0
 17 18  2  0
 18 19  1  0
 19 20  1  0
 20 21  1  0
 21 22  1  0
 22 23  1  0
 22 24  1  0
 24 25  1  0
 24 26  1  0
 19 27  1  0
 27 28  1  1
 27 29  1  0
 29 30  1  0
 30 31  1  0
 31 32  1  1
  7  5  1  0
 31 10  1  0
 31 13  1  0
 27 15  1  0
 24 18  1  0
  1 33  1  0
  1 34  1  0
  1 35  1  0
  2 36  1  6
  3 37  1  0
  3 38  1  0
  4 39  1  0
  4 40  1  0
  5 41  1  6
  8 42  1  0
  8 43  1  0
  8 44  1  0
  9 45  1  0
  9 46  1  0
  9 47  1  0
 10 48  1  6
 11 49  1  0
 11 50  1  0
 12 51  1  0
 12 52  1  0
 14 53  1  0
 14 54  1  0
 14 55  1  0
 15 56  1  1
 16 57  1  0
 16 58  1  0
 17 59  1  0
 19 60  1  6
 20 61  1  0
 20 62  1  0
 21 63  1  0
 21 64  1  0
 22 65  1  6
 23 66  1  0
 25 67  1  0
 25 68  1  0
 25 69  1  0
 26 70  1  0
 26 71  1  0
 26 72  1  0
 28 73  1  0
 28 74  1  0
 28 75  1  0
 29 76  1  0
 29 77  1  0
 30 78  1  0
 30 79  1  0
 32 80  1  0
 32 81  1  0
 32 82  1  0
M  END
>  <meeko>  (6) 
{"is_sidechain": [false], "intermolecular_energy": 2.731, "internal_energy": -0.839}

$$$$
EPH_relaxed_0001_pdb2pqr_Repair_18_r2_0001_out
     RDKit          3D

 82 86  0  0  0  0  0  0  0  0999 V2000
    0.3940    8.8020   -2.3350 C   0  0  0  0  0  0  0  0  0  0  0  0
    1.1320    9.9420   -3.0430 C   0  0  2  0  0  0  0  0  0  0  0  0
    2.6370    9.9580   -2.7050 C   0  0  0  0  0  0  0  0  0  0  0  0
    3.5070   10.5790   -3.8010 C   0  0  0  0  0  0  0  0  0  0  0  0
    4.9060   10.8270   -3.3240 C   0  0  2  0  0  0  0  0  0  0  0  0
    5.5010   12.0350   -3.8160 O   0  0  0  0  0  0  0  0  0  0  0  0
    6.1170   10.8080   -4.2370 C   0  0  0  0  0  0  0  0  0  0  0  0
    5.9850   10.5320   -5.7020 C   0  0  0  0  0  0  0  0  0  0  0  0
    7.4660   10.5720   -3.6320 C   0  0  0  0  0  0  0  0  0  0  0  0
    0.5010   11.2790   -2.6740 C   0  0  1  0  0  0  0  0  0  0  0  0
   -0.8660   11.1160   -1.9570 C   0  0  0  0  0  0  0  0  0  0  0  0
   -0.9650   12.2610   -0.9170 C   0  0  0  0  0  0  0  0  0  0  0  0
    0.1810   13.2290   -1.2920 C   0  0  1  0  0  0  0  0  0  0  0  0
   -0.3840   14.0820   -2.4710 C   0  0  0  0  0  0  0  0  0  0  0  0
    0.7300   14.1310   -0.1390 C   0  0  2  0  0  0  0  0  0  0  0  0
   -0.2900   15.1130    0.4630 C   0  0  0  0  0  0  0  0  0  0  0  0
   -0.3410   16.4570   -0.1840 C   0  0  0  0  0  0  0  0  0  0  0  0
    0.5900   16.9600   -1.0160 C   0  0  0  0  0  0  0  0  0  0  0  0
    1.8860   16.1920   -1.3050 C   0  0  1  0  0  0  0  0  0  0  0  0
    3.0950   17.1570   -1.1980 C   0  0  0  0  0  0  0  0  0  0  0  0
    2.9390   18.3910   -2.0820 C   0  0  0  0  0  0  0  0  0  0  0  0
    1.6700   19.1600   -1.7250 C   0  0  2  0  0  0  0  0  0  0  0  0
    1.8150   19.7060   -0.4100 O   0  0  0  0  0  0  0  0  0  0  0  0
    0.3860   18.2870   -1.7890 C   0  0  0  0  0  0  0  0  0  0  0  0
    0.0610   17.9450   -3.2640 C   0  0  0  0  0  0  0  0  0  0  0  0
   -0.8010   19.1440   -1.2710 C   0  0  0  0  0  0  0  0  0  0  0  0
    2.0980   14.8530   -0.4750 C   0  0  1  0  0  0  0  0  0  0  0  0
    2.7780   15.1760    0.8900 C   0  0  0  0  0  0  0  0  0  0  0  0
    3.0930   13.9160   -1.2570 C   0  0  0  0  0  0  0  0  0  0  0  0
    2.4760   12.9630   -2.2990 C   0  0  0  0  0  0  0  0  0  0  0  0
    1.2910   12.1950   -1.7050 C   0  0  2  0  0  0  0  0  0  0  0  0
    1.8330   11.3110   -0.5310 C   0  0  0  0  0  0  0  0  0  0  0  0
    0.4779    8.9315   -1.2459 H   0  0  0  0  0  0  0  0  0  0  0  0
   -0.6669    8.8159   -2.6253 H   0  0  0  0  0  0  0  0  0  0  0  0
    0.8410    7.8397   -2.6253 H   0  0  0  0  0  0  0  0  0  0  0  0
    1.0386    9.7738   -4.1260 H   0  0  0  0  0  0  0  0  0  0  0  0
    2.7791   10.5357   -1.7797 H   0  0  0  0  0  0  0  0  0  0  0  0
    2.9538    8.9100   -2.5981 H   0  0  0  0  0  0  0  0  0  0  0  0
    3.5397    9.8941   -4.6611 H   0  0  0  0  0  0  0  0  0  0  0  0
    3.0646   11.5456   -4.0836 H   0  0  0  0  0  0  0  0  0  0  0  0
    4.6943   10.3245   -2.3687 H   0  0  0  0  0  0  0  0  0  0  0  0
    5.5147    9.5485   -5.8489 H   0  0  0  0  0  0  0  0  0  0  0  0
    5.3614   11.3098   -6.1669 H   0  0  0  0  0  0  0  0  0  0  0  0
    6.9819   10.5348   -6.1669 H   0  0  0  0  0  0  0  0  0  0  0  0
    7.3836   10.5864   -2.5352 H   0  0  0  0  0  0  0  0  0  0  0  0
    7.8480    9.5934   -3.9582 H   0  0  0  0  0  0  0  0  0  0  0  0
    8.1576   11.3628   -3.9582 H   0  0  0  0  0  0  0  0  0  0  0  0
    0.4501   11.7409   -3.6710 H   0  0  0  0  0  0  0  0  0  0  0  0
   -1.6871   11.1934   -2.6849 H   0  0  0  0  0  0  0  0  0  0  0  0
   -0.9417   10.1326   -1.4700 H   0  0  0  0  0  0  0  0  0  0  0  0
   -1.9393   12.7667   -0.9878 H   0  0  0  0  0  0  0  0  0  0  0  0
   -0.8797   11.8942    0.1165 H   0  0  0  0  0  0  0  0  0  0  0  0
   -0.9492   14.9354   -2.0682 H   0  0  0  0  0  0  0  0  0  0  0  0
    0.4483   14.4518   -3.0878 H   0  0  0  0  0  0  0  0  0  0  0  0
   -1.0492   13.4599   -3.0878 H   0  0  0  0  0  0  0  0  0  0  0  0
    0.9425   13.3974    0.6527 H   0  0  0  0  0  0  0  0  0  0  0  0
   -1.2883   14.6585    0.3811 H   0  0  0  0  0  0  0  0  0  0  0  0
    0.0316   15.2872    1.5004 H   0  0  0  0  0  0  0  0  0  0  0  0
   -1.2129   17.0899    0.0377 H   0  0  0  0  0  0  0  0  0  0  0  0
    1.7958   15.8207   -2.3365 H   0  0  0  0  0  0  0  0  0  0  0  0
    3.1946   17.4828   -0.1521 H   0  0  0  0  0  0  0  0  0  0  0  0
    3.9878   16.6126   -1.5393 H   0  0  0  0  0  0  0  0  0  0  0  0
    3.8099   19.0478   -1.9404 H   0  0  0  0  0  0  0  0  0  0  0  0
    2.8694   18.0656   -3.1305 H   0  0  0  0  0  0  0  0  0  0  0  0
    1.5460   19.9560   -2.4740 H   0  0  0  0  0  0  0  0  0  0  0  0
    2.5090   19.1980    0.0440 H   0  0  0  0  0  0  0  0  0  0  0  0
   -0.6964   17.1480   -3.2973 H   0  0  0  0  0  0  0  0  0  0  0  0
   -0.3268   18.8407   -3.7712 H   0  0  0  0  0  0  0  0  0  0  0  0
    0.9753   17.6033   -3.7712 H   0  0  0  0  0  0  0  0  0  0  0  0
   -0.8008   19.1438   -0.1710 H   0  0  0  0  0  0  0  0  0  0  0  0
   -0.6957   20.1758   -1.6375 H   0  0  0  0  0  0  0  0  0  0  0  0
   -1.7472   18.7194   -1.6375 H   0  0  0  0  0  0  0  0  0  0  0  0
    2.1176   14.8623    1.7119 H   0  0  0  0  0  0  0  0  0  0  0  0
    3.7335   14.6355    0.9607 H   0  0  0  0  0  0  0  0  0  0  0  0
    2.9627   16.2581    0.9607 H   0  0  0  0  0  0  0  0  0  0  0  0
    3.8144   14.5602   -1.7811 H   0  0  0  0  0  0  0  0  0  0  0  0
    3.5324   13.2598   -0.4913 H   0  0  0  0  0  0  0  0  0  0  0  0
    2.1284   13.5497   -3.1621 H   0  0  0  0  0  0  0  0  0  0  0  0
    3.2433   12.2387   -2.6100 H   0  0  0  0  0  0  0  0  0  0  0  0
    1.5536   11.7667    0.4304 H   0  0  0  0  0  0  0  0  0  0  0  0
    1.3973   10.3033   -0.5995 H   0  0  0  0  0  0  0  0  0  0  0  0
    2.9287   11.2422   -0.5995 H   0  0  0  0  0  0  0  0  0  0  0  0
  1  2  1  0
  2  3  1  0
  3  4  1  0
  4  5  1  0
  5  6  1  0
  6  7  1  0
  7  8  1  0
  7  9  1  0
  2 10  1  0
 10 11  1  0
 11 12  1  0
 12 13  1  0
 13 14  1  6
 13 15  1  0
 15 16  1  0
 16 17  1  0
 17 18  2  0
 18 19  1  0
 19 20  1  0
 20 21  1  0
 21 22  1  0
 22 23  1  0
 22 24  1  0
 24 25  1  0
 24 26  1  0
 19 27  1  0
 27 28  1  1
 27 29  1  0
 29 30  1  0
 30 31  1  0
 31 32  1  1
  7  5  1  0
 31 10  1  0
 31 13  1  0
 27 15  1  0
 24 18  1  0
  1 33  1  0
  1 34  1  0
  1 35  1  0
  2 36  1  6
  3 37  1  0
  3 38  1  0
  4 39  1  0
  4 40  1  0
  5 41  1  1
  8 42  1  0
  8 43  1  0
  8 44  1  0
  9 45  1  0
  9 46  1  0
  9 47  1  0
 10 48  1  6
 11 49  1  0
 11 50  1  0
 12 51  1  0
 12 52  1  0
 14 53  1  0
 14 54  1  0
 14 55  1  0
 15 56  1  1
 16 57  1  0
 16 58  1  0
 17 59  1  0
 19 60  1  6
 20 61  1  0
 20 62  1  0
 21 63  1  0
 21 64  1  0
 22 65  1  6
 23 66  1  0
 25 67  1  0
 25 68  1  0
 25 69  1  0
 26 70  1  0
 26 71  1  0
 26 72  1  0
 28 73  1  0
 28 74  1  0
 28 75  1  0
 29 76  1  0
 29 77  1  0
 30 78  1  0
 30 79  1  0
 32 80  1  0
 32 81  1  0
 32 82  1  0
M  END
>  <meeko>  (7) 
{"is_sidechain": [false], "intermolecular_energy": 2.731, "internal_energy": -0.839}

$$$$
EPH_relaxed_0001_pdb2pqr_Repair_18_r2_0001_out
     RDKit          3D

 82 86  0  0  0  0  0  0  0  0999 V2000
    2.8380   19.0240   -1.1770 C   0  0  0  0  0  0  0  0  0  0  0  0
    2.5100   17.9720   -2.2390 C   0  0  2  0  0  0  0  0  0  0  0  0
    1.0780   18.1290   -2.7900 C   0  0  0  0  0  0  0  0  0  0  0  0
    0.3630   19.3890   -2.2940 C   0  0  0  0  0  0  0  0  0  0  0  0
   -0.9290   19.0590   -1.6090 C   0  0  2  0  0  0  0  0  0  0  0  0
   -1.7400   20.1940   -1.2820 O   0  0  0  0  0  0  0  0  0  0  0  0
   -1.2340   19.4360   -0.1710 C   0  0  0  0  0  0  0  0  0  0  0  0
   -0.2410   20.1770    0.6680 C   0  0  0  0  0  0  0  0  0  0  0  0
   -2.2870   18.6660    0.5630 C   0  0  0  0  0  0  0  0  0  0  0  0
    2.6940   16.5740   -1.6600 C   0  0  1  0  0  0  0  0  0  0  0  0
    3.3880   16.5890   -0.2720 C   0  0  0  0  0  0  0  0  0  0  0  0
    2.7650   15.4340    0.5530 C   0  0  0  0  0  0  0  0  0  0  0  0
    1.9830   14.5920   -0.4830 C   0  0  1  0  0  0  0  0  0  0  0  0
    3.0620   13.6930   -1.1640 C   0  0  0  0  0  0  0  0  0  0  0  0
    0.7920   13.7460    0.0720 C   0  0  2  0  0  0  0  0  0  0  0  0
    1.1810   12.6600    1.0900 C   0  0  0  0  0  0  0  0  0  0  0  0
    1.4940   11.3210    0.5060 C   0  0  0  0  0  0  0  0  0  0  0  0
    1.1910   10.9230   -0.7430 C   0  0  0  0  0  0  0  0  0  0  0  0
    0.3790   11.8240   -1.6820 C   0  0  1  0  0  0  0  0  0  0  0  0
   -0.7370   10.9880   -2.3640 C   0  0  0  0  0  0  0  0  0  0  0  0
   -0.1920    9.7500   -3.0700 C   0  0  0  0  0  0  0  0  0  0  0  0
    0.5590    8.8510   -2.0910 C   0  0  2  0  0  0  0  0  0  0  0  0
   -0.3740    8.3160   -1.1470 O   0  0  0  0  0  0  0  0  0  0  0  0
    1.7020    9.5870   -1.3370 C   0  0  0  0  0  0  0  0  0  0  0  0
    2.8560    9.9020   -2.3200 C   0  0  0  0  0  0  0  0  0  0  0  0
    2.2850    8.6080   -0.2820 C   0  0  0  0  0  0  0  0  0  0  0  0
   -0.1710   13.1720   -1.0460 C   0  0  1  0  0  0  0  0  0  0  0  0
   -1.5470   12.9140   -0.3580 C   0  0  0  0  0  0  0  0  0  0  0  0
   -0.4390   14.2120   -2.1970 C   0  0  0  0  0  0  0  0  0  0  0  0
    0.7460   15.1020   -2.6180 C   0  0  0  0  0  0  0  0  0  0  0  0
    1.4150   15.7390   -1.3960 C   0  0  2  0  0  0  0  0  0  0  0  0
    0.3610   16.6680   -0.7030 C   0  0  0  0  0  0  0  0  0  0  0  0
    2.7024   18.5890   -0.1758 H   0  0  0  0  0  0  0  0  0  0  0  0
    3.8811   19.3522   -1.2959 H   0  0  0  0  0  0  0  0  0  0  0  0
    2.1663   19.8869   -1.2959 H   0  0  0  0  0  0  0  0  0  0  0  0
    3.2051   18.1219   -3.0783 H   0  0  0  0  0  0  0  0  0  0  0  0
    1.1307   18.1689   -3.8880 H   0  0  0  0  0  0  0  0  0  0  0  0
    0.4981   17.2668   -2.4291 H   0  0  0  0  0  0  0  0  0  0  0  0
    1.0186   19.9152   -1.5845 H   0  0  0  0  0  0  0  0  0  0  0  0
    0.1378   20.0214   -3.1654 H   0  0  0  0  0  0  0  0  0  0  0  0
   -1.0007   18.1055   -2.1527 H   0  0  0  0  0  0  0  0  0  0  0  0
   -0.4637   20.0108    1.7323 H   0  0  0  0  0  0  0  0  0  0  0  0
    0.7725   19.8126    0.4442 H   0  0  0  0  0  0  0  0  0  0  0  0
   -0.3018   21.2523    0.4442 H   0  0  0  0  0  0  0  0  0  0  0  0
   -2.1344   18.7776    1.6466 H   0  0  0  0  0  0  0  0  0  0  0  0
   -3.2804   19.0523    0.2909 H   0  0  0  0  0  0  0  0  0  0  0  0
   -2.2201   17.6023    0.2909 H   0  0  0  0  0  0  0  0  0  0  0  0
    3.2826   16.1158   -2.4685 H   0  0  0  0  0  0  0  0  0  0  0  0
    4.4703   16.4305   -0.3881 H   0  0  0  0  0  0  0  0  0  0  0  0
    3.2429   17.5563    0.2313 H   0  0  0  0  0  0  0  0  0  0  0  0
    3.5507   14.8302    1.0306 H   0  0  0  0  0  0  0  0  0  0  0  0
    2.1196   15.8018    1.3643 H   0  0  0  0  0  0  0  0  0  0  0  0
    3.6631   13.1922   -0.3908 H   0  0  0  0  0  0  0  0  0  0  0  0
    2.5667   12.9366   -1.7906 H   0  0  0  0  0  0  0  0  0  0  0  0
    3.7166   14.3167   -1.7906 H   0  0  0  0  0  0  0  0  0  0  0  0
    0.2158   14.4927    0.6381 H   0  0  0  0  0  0  0  0  0  0  0  0
    2.0698   13.0088    1.6362 H   0  0  0  0  0  0  0  0  0  0  0  0
    0.2992   12.5139    1.7312 H   0  0  0  0  0  0  0  0  0  0  0  0
    2.0163   10.5996    1.1516 H   0  0  0  0  0  0  0  0  0  0  0  0
    1.0872   12.1908   -2.4396 H   0  0  0  0  0  0  0  0  0  0  0  0
   -1.4568   10.6679   -1.5963 H   0  0  0  0  0  0  0  0  0  0  0  0
   -1.2128   11.6240   -3.1250 H   0  0  0  0  0  0  0  0  0  0  0  0
   -1.0296    9.1864   -3.5066 H   0  0  0  0  0  0  0  0  0  0  0  0
    0.5056   10.0727   -3.8569 H   0  0  0  0  0  0  0  0  0  0  0  0
    1.0343    8.0502   -2.6765 H   0  0  0  0  0  0  0  0  0  0  0  0
    0.0880    7.6330   -0.6320 H   0  0  0  0  0  0  0  0  0  0  0  0
    3.7645   10.1500   -1.7515 H   0  0  0  0  0  0  0  0  0  0  0  0
    3.0482    9.0235   -2.9534 H   0  0  0  0  0  0  0  0  0  0  0  0
    2.5752   10.7564   -2.9534 H   0  0  0  0  0  0  0  0  0  0  0  0
    2.0622    8.9822    0.7281 H   0  0  0  0  0  0  0  0  0  0  0  0
    1.8312    7.6146   -0.4134 H   0  0  0  0  0  0  0  0  0  0  0  0
    3.3746    8.5337   -0.4134 H   0  0  0  0  0  0  0  0  0  0  0  0
   -1.4209   12.9377    0.7345 H   0  0  0  0  0  0  0  0  0  0  0  0
   -2.2607   13.6940   -0.6617 H   0  0  0  0  0  0  0  0  0  0  0  0
   -1.9297   11.9284   -0.6617 H   0  0  0  0  0  0  0  0  0  0  0  0
   -0.7648   13.6497   -3.0845 H   0  0  0  0  0  0  0  0  0  0  0  0
   -1.1896   14.9053   -1.7898 H   0  0  0  0  0  0  0  0  0  0  0  0
    1.4849   14.4877   -3.1533 H   0  0  0  0  0  0  0  0  0  0  0  0
    0.3681   15.9043   -3.2688 H   0  0  0  0  0  0  0  0  0  0  0  0
    0.4585   16.5821    0.3893 H   0  0  0  0  0  0  0  0  0  0  0  0
    0.5361   17.7109   -1.0059 H   0  0  0  0  0  0  0  0  0  0  0  0
   -0.6516   16.3633   -1.0059 H   0  0  0  0  0  0  0  0  0  0  0  0
  1  2  1  0
  2  3  1  0
  3  4  1  0
  4  5  1  0
  5  6  1  0
  6  7  1  0
  7  8  1  0
  7  9  1  0
  2 10  1  0
 10 11  1  0
 11 12  1  0
 12 13  1  0
 13 14  1  6
 13 15  1  0
 15 16  1  0
 16 17  1  0
 17 18  2  0
 18 19  1  0
 19 20  1  0
 20 21  1  0
 21 22  1  0
 22 23  1  0
 22 24  1  0
 24 25  1  0
 24 26  1  0
 19 27  1  0
 27 28  1  1
 27 29  1  0
 29 30  1  0
 30 31  1  0
 31 32  1  1
  7  5  1  0
 31 10  1  0
 31 13  1  0
 27 15  1  0
 24 18  1  0
  1 33  1  0
  1 34  1  0
  1 35  1  0
  2 36  1  6
  3 37  1  0
  3 38  1  0
  4 39  1  0
  4 40  1  0
  5 41  1  6
  8 42  1  0
  8 43  1  0
  8 44  1  0
  9 45  1  0
  9 46  1  0
  9 47  1  0
 10 48  1  6
 11 49  1  0
 11 50  1  0
 12 51  1  0
 12 52  1  0
 14 53  1  0
 14 54  1  0
 14 55  1  0
 15 56  1  1
 16 57  1  0
 16 58  1  0
 17 59  1  0
 19 60  1  6
 20 61  1  0
 20 62  1  0
 21 63  1  0
 21 64  1  0
 22 65  1  6
 23 66  1  0
 25 67  1  0
 25 68  1  0
 25 69  1  0
 26 70  1  0
 26 71  1  0
 26 72  1  0
 28 73  1  0
 28 74  1  0
 28 75  1  0
 29 76  1  0
 29 77  1  0
 30 78  1  0
 30 79  1  0
 32 80  1  0
 32 81  1  0
 32 82  1  0
M  END
>  <meeko>  (8) 
{"is_sidechain": [false], "intermolecular_energy": 2.731, "internal_energy": -0.839}

$$$$
EPH_relaxed_0001_pdb2pqr_Repair_18_r2_0001_out
     RDKit          3D

 82 86  0  0  0  0  0  0  0  0999 V2000
    0.1100    9.3840   -2.3980 C   0  0  0  0  0  0  0  0  0  0  0  0
    1.2160   10.3660   -2.7920 C   0  0  2  0  0  0  0  0  0  0  0  0
    2.6060    9.6990   -2.8090 C   0  0  0  0  0  0  0  0  0  0  0  0
    3.5630   10.2950   -3.8450 C   0  0  0  0  0  0  0  0  0  0  0  0
    4.9300   10.5180   -3.2740 C   0  0  2  0  0  0  0  0  0  0  0  0
    5.4480   11.8420   -3.4600 O   0  0  0  0  0  0  0  0  0  0  0  0
    6.1580   10.7840   -4.1240 C   0  0  0  0  0  0  0  0  0  0  0  0
    6.0770   10.8410   -5.6170 C   0  0  0  0  0  0  0  0  0  0  0  0
    7.5080   10.5040   -3.5390 C   0  0  0  0  0  0  0  0  0  0  0  0
    1.2200   11.5550   -1.8390 C   0  0  1  0  0  0  0  0  0  0  0  0
    2.2830   11.4170   -0.7170 C   0  0  0  0  0  0  0  0  0  0  0  0
    2.8120   12.8450   -0.4240 C   0  0  0  0  0  0  0  0  0  0  0  0
    1.8130   13.7850   -1.1390 C   0  0  1  0  0  0  0  0  0  0  0  0
    0.6000   13.8980   -0.1630 C   0  0  0  0  0  0  0  0  0  0  0  0
    2.3590   15.1920   -1.5470 C   0  0  2  0  0  0  0  0  0  0  0  0
    2.8050   16.0840   -0.3750 C   0  0  0  0  0  0  0  0  0  0  0  0
    1.7460   16.9700    0.1910 C   0  0  0  0  0  0  0  0  0  0  0  0
    0.5710   17.2590   -0.3970 C   0  0  0  0  0  0  0  0  0  0  0  0
    0.2510   16.7500   -1.8090 C   0  0  1  0  0  0  0  0  0  0  0  0
   -0.3340   17.9090   -2.6570 C   0  0  0  0  0  0  0  0  0  0  0  0
   -1.5350   18.5740   -1.9910 C   0  0  0  0  0  0  0  0  0  0  0  0
   -1.1620   19.1190   -0.6140 C   0  0  2  0  0  0  0  0  0  0  0  0
   -0.2330   20.1940   -0.7800 O   0  0  0  0  0  0  0  0  0  0  0  0
   -0.5530   18.0420    0.3260 C   0  0  0  0  0  0  0  0  0  0  0  0
   -1.6520   17.0360    0.7480 C   0  0  0  0  0  0  0  0  0  0  0  0
   -0.0910   18.7510    1.6280 C   0  0  0  0  0  0  0  0  0  0  0  0
    1.4270   15.9830   -2.5520 C   0  0  1  0  0  0  0  0  0  0  0  0
    2.3410   17.0040   -3.2970 C   0  0  0  0  0  0  0  0  0  0  0  0
    0.8120   15.0470   -3.6590 C   0  0  0  0  0  0  0  0  0  0  0  0
    0.4020   13.6280   -3.2210 C   0  0  0  0  0  0  0  0  0  0  0  0
    1.5310   12.9480   -2.4400 C   0  0  2  0  0  0  0  0  0  0  0  0
    2.7580   12.8010   -3.4030 C   0  0  0  0  0  0  0  0  0  0  0  0
    0.0447    9.3260   -1.3015 H   0  0  0  0  0  0  0  0  0  0  0  0
   -0.8511    9.7317   -2.8047 H   0  0  0  0  0  0  0  0  0  0  0  0
    0.3416    8.3885   -2.8047 H   0  0  0  0  0  0  0  0  0  0  0  0
    1.0030   10.7107   -3.8146 H   0  0  0  0  0  0  0  0  0  0  0  0
    3.0580    9.8132   -1.8127 H   0  0  0  0  0  0  0  0  0  0  0  0
    2.4529    8.6446   -3.0825 H   0  0  0  0  0  0  0  0  0  0  0  0
    3.6412    9.6038   -4.6971 H   0  0  0  0  0  0  0  0  0  0  0  0
    3.1613   11.2686   -4.1623 H   0  0  0  0  0  0  0  0  0  0  0  0
    4.7347    9.7998   -2.4641 H   0  0  0  0  0  0  0  0  0  0  0  0
    5.2109   11.4505   -5.9142 H   0  0  0  0  0  0  0  0  0  0  0  0
    6.9972   11.2917   -6.0172 H   0  0  0  0  0  0  0  0  0  0  0  0
    5.9634    9.8227   -6.0172 H   0  0  0  0  0  0  0  0  0  0  0  0
    7.4419   10.5177   -2.4411 H   0  0  0  0  0  0  0  0  0  0  0  0
    7.8544    9.5149   -3.8731 H   0  0  0  0  0  0  0  0  0  0  0  0
    8.2192   11.2737   -3.8731 H   0  0  0  0  0  0  0  0  0  0  0  0
    0.1756   11.5192   -1.4956 H   0  0  0  0  0  0  0  0  0  0  0  0
    1.8258   10.9894    0.1875 H   0  0  0  0  0  0  0  0  0  0  0  0
    3.1001   10.7489   -1.0270 H   0  0  0  0  0  0  0  0  0  0  0  0
    2.8229   13.0407    0.6584 H   0  0  0  0  0  0  0  0  0  0  0  0
    3.8444   12.9879   -0.7757 H   0  0  0  0  0  0  0  0  0  0  0  0
    0.9607   13.8644    0.8756 H   0  0  0  0  0  0  0  0  0  0  0  0
    0.0756   14.8489   -0.3384 H   0  0  0  0  0  0  0  0  0  0  0  0
   -0.0911   13.0603   -0.3384 H   0  0  0  0  0  0  0  0  0  0  0  0
    3.2776   14.9376   -2.0960 H   0  0  0  0  0  0  0  0  0  0  0  0
    3.1673   15.4295    0.4315 H   0  0  0  0  0  0  0  0  0  0  0  0
    3.5779   16.7540   -0.7797 H   0  0  0  0  0  0  0  0  0  0  0  0
    1.9429   17.4256    1.1727 H   0  0  0  0  0  0  0  0  0  0  0  0
   -0.5053   15.9611   -1.6839 H   0  0  0  0  0  0  0  0  0  0  0  0
    0.4497   18.6661   -2.8073 H   0  0  0  0  0  0  0  0  0  0  0  0
   -0.6754   17.4839   -3.6124 H   0  0  0  0  0  0  0  0  0  0  0  0
   -1.8845   19.4031   -2.6239 H   0  0  0  0  0  0  0  0  0  0  0  0
   -2.3293   17.8230   -1.8684 H   0  0  0  0  0  0  0  0  0  0  0  0
   -2.0889   19.4661   -0.1340 H   0  0  0  0  0  0  0  0  0  0  0  0
    0.6460   19.8650   -0.5280 H   0  0  0  0  0  0  0  0  0  0  0  0
   -1.7038   16.9886    1.8458 H   0  0  0  0  0  0  0  0  0  0  0  0
   -2.6229   17.3649    0.3490 H   0  0  0  0  0  0  0  0  0  0  0  0
   -1.4100   16.0399    0.3490 H   0  0  0  0  0  0  0  0  0  0  0  0
   -0.4566   18.1899    2.5006 H   0  0  0  0  0  0  0  0  0  0  0  0
    1.0079   18.7923    1.6528 H   0  0  0  0  0  0  0  0  0  0  0  0
   -0.4970   19.7730    1.6528 H   0  0  0  0  0  0  0  0  0  0  0  0
    2.8863   17.6131   -2.5610 H   0  0  0  0  0  0  0  0  0  0  0  0
    3.0598   16.4604   -3.9277 H   0  0  0  0  0  0  0  0  0  0  0  0
    1.7215   17.6585   -3.9277 H   0  0  0  0  0  0  0  0  0  0  0  0
   -0.0853   15.5452   -4.0548 H   0  0  0  0  0  0  0  0  0  0  0  0
    1.6192   14.8996   -4.3916 H   0  0  0  0  0  0  0  0  0  0  0  0
   -0.4903   13.6926   -2.5809 H   0  0  0  0  0  0  0  0  0  0  0  0
    0.1883   13.0313   -4.1200 H   0  0  0  0  0  0  0  0  0  0  0  0
    3.6781   12.6908   -2.8103 H   0  0  0  0  0  0  0  0  0  0  0  0
    2.6219   11.9127   -4.0374 H   0  0  0  0  0  0  0  0  0  0  0  0
    2.8355   13.6963   -4.0374 H   0  0  0  0  0  0  0  0  0  0  0  0
  1  2  1  0
  2  3  1  0
  3  4  1  0
  4  5  1  0
  5  6  1  0
  6  7  1  0
  7  8  1  0
  7  9  1  0
  2 10  1  0
 10 11  1  0
 11 12  1  0
 12 13  1  0
 13 14  1  1
 13 15  1  0
 15 16  1  0
 16 17  1  0
 17 18  2  0
 18 19  1  0
 19 20  1  0
 20 21  1  0
 21 22  1  0
 22 23  1  0
 22 24  1  0
 24 25  1  0
 24 26  1  0
 19 27  1  0
 27 28  1  6
 27 29  1  0
 29 30  1  0
 30 31  1  0
 31 32  1  6
  7  5  1  0
 31 10  1  0
 31 13  1  0
 27 15  1  0
 24 18  1  0
  1 33  1  0
  1 34  1  0
  1 35  1  0
  2 36  1  6
  3 37  1  0
  3 38  1  0
  4 39  1  0
  4 40  1  0
  5 41  1  1
  8 42  1  0
  8 43  1  0
  8 44  1  0
  9 45  1  0
  9 46  1  0
  9 47  1  0
 10 48  1  1
 11 49  1  0
 11 50  1  0
 12 51  1  0
 12 52  1  0
 14 53  1  0
 14 54  1  0
 14 55  1  0
 15 56  1  6
 16 57  1  0
 16 58  1  0
 17 59  1  0
 19 60  1  1
 20 61  1  0
 20 62  1  0
 21 63  1  0
 21 64  1  0
 22 65  1  1
 23 66  1  0
 25 67  1  0
 25 68  1  0
 25 69  1  0
 26 70  1  0
 26 71  1  0
 26 72  1  0
 28 73  1  0
 28 74  1  0
 28 75  1  0
 29 76  1  0
 29 77  1  0
 30 78  1  0
 30 79  1  0
 32 80  1  0
 32 81  1  0
 32 82  1  0
M  END
>  <meeko>  (9) 
{"is_sidechain": [false], "intermolecular_energy": 2.731, "internal_energy": -0.839}

$$$$
EPH_relaxed_0001_pdb2pqr_Repair_18_r2_0001_out
     RDKit          3D

 82 86  0  0  0  0  0  0  0  0999 V2000
    2.0360   19.6350   -1.8070 C   0  0  0  0  0  0  0  0  0  0  0  0
    1.2430   19.5250   -0.5020 C   0  0  2  0  0  0  0  0  0  0  0  0
    1.9960   20.1500    0.6890 C   0  0  0  0  0  0  0  0  0  0  0  0
    3.3720   19.5280    0.9420 C   0  0  0  0  0  0  0  0  0  0  0  0
    4.0800   20.1940    2.0830 C   0  0  2  0  0  0  0  0  0  0  0  0
    5.4770   19.8890    2.1800 O   0  0  0  0  0  0  0  0  0  0  0  0
    4.6530   19.4390    3.2670 C   0  0  0  0  0  0  0  0  0  0  0  0
    4.5410   17.9500    3.3710 C   0  0  0  0  0  0  0  0  0  0  0  0
    4.8830   20.1820    4.5460 C   0  0  0  0  0  0  0  0  0  0  0  0
    0.9250   18.0640   -0.2090 C   0  0  1  0  0  0  0  0  0  0  0  0
   -0.4270   17.8830    0.5310 C   0  0  0  0  0  0  0  0  0  0  0  0
   -1.0480   16.5610    0.0120 C   0  0  0  0  0  0  0  0  0  0  0  0
    0.1020   15.8620   -0.7490 C   0  0  1  0  0  0  0  0  0  0  0  0
    0.9570   15.1720    0.3600 C   0  0  0  0  0  0  0  0  0  0  0  0
   -0.3210   14.8510   -1.8640 C   0  0  2  0  0  0  0  0  0  0  0  0
   -1.1210   13.6330   -1.3710 C   0  0  0  0  0  0  0  0  0  0  0  0
   -0.3030   12.4420   -0.9940 C   0  0  0  0  0  0  0  0  0  0  0  0
    0.9900   12.2490   -1.3140 C   0  0  0  0  0  0  0  0  0  0  0  0
    1.7360   13.2420   -2.2150 C   0  0  1  0  0  0  0  0  0  0  0  0
    2.5290   12.4640   -3.2980 C   0  0  0  0  0  0  0  0  0  0  0  0
    3.4550   11.4100   -2.7000 C   0  0  0  0  0  0  0  0  0  0  0  0
    2.6690   10.4070   -1.8590 C   0  0  2  0  0  0  0  0  0  0  0  0
    1.8140    9.6510   -2.7220 O   0  0  0  0  0  0  0  0  0  0  0  0
    1.8230   11.0760   -0.7400 C   0  0  0  0  0  0  0  0  0  0  0  0
    2.7620   11.6380    0.3570 C   0  0  0  0  0  0  0  0  0  0  0  0
    0.9720    9.9710   -0.0590 C   0  0  0  0  0  0  0  0  0  0  0  0
    0.8580   14.4170   -2.8270 C   0  0  1  0  0  0  0  0  0  0  0  0
    0.1950   13.9470   -4.1580 C   0  0  0  0  0  0  0  0  0  0  0  0
    1.8000   15.6220   -3.2010 C   0  0  0  0  0  0  0  0  0  0  0  0
    2.0840   16.6520   -2.0910 C   0  0  0  0  0  0  0  0  0  0  0  0
    0.7840   17.1090   -1.4210 C   0  0  2  0  0  0  0  0  0  0  0  0
   -0.0870   17.8260   -2.5080 C   0  0  0  0  0  0  0  0  0  0  0  0
    3.1015   19.7828   -1.5772 H   0  0  0  0  0  0  0  0  0  0  0  0
    1.9115   18.7110   -2.3907 H   0  0  0  0  0  0  0  0  0  0  0  0
    1.6647   20.4902   -2.3907 H   0  0  0  0  0  0  0  0  0  0  0  0
    0.3081   20.0894   -0.6339 H   0  0  0  0  0  0  0  0  0  0  0  0
    2.1314   21.2233    0.4896 H   0  0  0  0  0  0  0  0  0  0  0  0
    1.3888   19.9632    1.5870 H   0  0  0  0  0  0  0  0  0  0  0  0
    3.2433   18.4610    1.1764 H   0  0  0  0  0  0  0  0  0  0  0  0
    3.9808   19.6618    0.0356 H   0  0  0  0  0  0  0  0  0  0  0  0
    3.4144   21.0673    2.0171 H   0  0  0  0  0  0  0  0  0  0  0  0
    4.5190   17.6571    4.4311 H   0  0  0  0  0  0  0  0  0  0  0  0
    3.6152   17.6167    2.8792 H   0  0  0  0  0  0  0  0  0  0  0  0
    5.4065   17.4820    2.8792 H   0  0  0  0  0  0  0  0  0  0  0  0
    4.6773   19.5175    5.3981 H   0  0  0  0  0  0  0  0  0  0  0  0
    5.9283   20.5216    4.5899 H   0  0  0  0  0  0  0  0  0  0  0  0
    4.2124   21.0528    4.5899 H   0  0  0  0  0  0  0  0  0  0  0  0
    1.8154   17.7970    0.3791 H   0  0  0  0  0  0  0  0  0  0  0  0
   -0.2594   17.8222    1.6165 H   0  0  0  0  0  0  0  0  0  0  0  0
   -1.0972   18.7346    0.3426 H   0  0  0  0  0  0  0  0  0  0  0  0
   -1.3933   15.9386    0.8507 H   0  0  0  0  0  0  0  0  0  0  0  0
   -1.9258   16.7354   -0.6275 H   0  0  0  0  0  0  0  0  0  0  0  0
    0.5845   15.4726    1.3504 H   0  0  0  0  0  0  0  0  0  0  0  0
    0.8804   14.0797    0.2555 H   0  0  0  0  0  0  0  0  0  0  0  0
    2.0085   15.4775    0.2555 H   0  0  0  0  0  0  0  0  0  0  0  0
   -1.0232   15.4454   -2.4670 H   0  0  0  0  0  0  0  0  0  0  0  0
   -1.6994   13.9413   -0.4876 H   0  0  0  0  0  0  0  0  0  0  0  0
   -1.7462   13.3164   -2.2189 H   0  0  0  0  0  0  0  0  0  0  0  0
   -0.7989   11.6563   -0.4052 H   0  0  0  0  0  0  0  0  0  0  0  0
    2.4336   13.7834   -1.5591 H   0  0  0  0  0  0  0  0  0  0  0  0
    1.8138   11.9654   -3.9688 H   0  0  0  0  0  0  0  0  0  0  0  0
    3.1540   13.1891   -3.8398 H   0  0  0  0  0  0  0  0  0  0  0  0
    3.9652   10.8751   -3.5146 H   0  0  0  0  0  0  0  0  0  0  0  0
    4.1878   11.9133   -2.0522 H   0  0  0  0  0  0  0  0  0  0  0  0
    3.3985    9.7567   -1.3542 H   0  0  0  0  0  0  0  0  0  0  0  0
    2.3620    8.9840   -3.1690 H   0  0  0  0  0  0  0  0  0  0  0  0
    2.3542   11.3939    1.3490 H   0  0  0  0  0  0  0  0  0  0  0  0
    3.7605   11.1889    0.2504 H   0  0  0  0  0  0  0  0  0  0  0  0
    2.8380   12.7302    0.2504 H   0  0  0  0  0  0  0  0  0  0  0  0
    1.0486   10.0705    1.0338 H   0  0  0  0  0  0  0  0  0  0  0  0
   -0.0794   10.0777   -0.3641 H   0  0  0  0  0  0  0  0  0  0  0  0
    1.3437    8.9817   -0.3641 H   0  0  0  0  0  0  0  0  0  0  0  0
   -0.6830   13.3246   -3.9305 H   0  0  0  0  0  0  0  0  0  0  0  0
   -0.1193   14.8252   -4.7412 H   0  0  0  0  0  0  0  0  0  0  0  0
    0.9196   13.3597   -4.7412 H   0  0  0  0  0  0  0  0  0  0  0  0
    2.7654   15.2029   -3.5210 H   0  0  0  0  0  0  0  0  0  0  0  0
    1.2588   16.1796   -3.9796 H   0  0  0  0  0  0  0  0  0  0  0  0
    2.7374   16.1940   -1.3338 H   0  0  0  0  0  0  0  0  0  0  0  0
    2.5727   17.5281   -2.5423 H   0  0  0  0  0  0  0  0  0  0  0  0
   -0.8464   18.4511   -2.0156 H   0  0  0  0  0  0  0  0  0  0  0  0
    0.5577   18.4586   -3.1358 H   0  0  0  0  0  0  0  0  0  0  0  0
   -0.5839   17.0717   -3.1358 H   0  0  0  0  0  0  0  0  0  0  0  0
  1  2  1  0
  2  3  1  0
  3  4  1  0
  4  5  1  0
  5  6  1  0
  6  7  1  0
  7  8  1  0
  7  9  1  0
  2 10  1  0
 10 11  1  0
 11 12  1  0
 12 13  1  0
 13 14  1  1
 13 15  1  0
 15 16  1  0
 16 17  1  0
 17 18  2  0
 18 19  1  0
 19 20  1  0
 20 21  1  0
 21 22  1  0
 22 23  1  0
 22 24  1  0
 24 25  1  0
 24 26  1  0
 19 27  1  0
 27 28  1  6
 27 29  1  0
 29 30  1  0
 30 31  1  0
 31 32  1  6
  7  5  1  0
 31 10  1  0
 31 13  1  0
 27 15  1  0
 24 18  1  0
  1 33  1  0
  1 34  1  0
  1 35  1  0
  2 36  1  6
  3 37  1  0
  3 38  1  0
  4 39  1  0
  4 40  1  0
  5 41  1  1
  8 42  1  0
  8 43  1  0
  8 44  1  0
  9 45  1  0
  9 46  1  0
  9 47  1  0
 10 48  1  1
 11 49  1  0
 11 50  1  0
 12 51  1  0
 12 52  1  0
 14 53  1  0
 14 54  1  0
 14 55  1  0
 15 56  1  6
 16 57  1  0
 16 58  1  0
 17 59  1  0
 19 60  1  1
 20 61  1  0
 20 62  1  0
 21 63  1  0
 21 64  1  0
 22 65  1  1
 23 66  1  0
 25 67  1  0
 25 68  1  0
 25 69  1  0
 26 70  1  0
 26 71  1  0
 26 72  1  0
 28 73  1  0
 28 74  1  0
 28 75  1  0
 29 76  1  0
 29 77  1  0
 30 78  1  0
 30 79  1  0
 32 80  1  0
 32 81  1  0
 32 82  1  0
M  END
>  <meeko>  (10) 
{"is_sidechain": [false], "intermolecular_energy": 2.731, "internal_energy": -0.839}

$$$$
EPH_relaxed_0001_pdb2pqr_Repair_18_r2_0001_out
     RDKit          3D

 82 86  0  0  0  0  0  0  0  0999 V2000
   -1.3040   16.5000   -6.0050 C   0  0  0  0  0  0  0  0  0  0  0  0
   -0.0740   15.8150   -6.6070 C   0  0  2  0  0  0  0  0  0  0  0  0
   -0.2810   15.4500   -8.0910 C   0  0  0  0  0  0  0  0  0  0  0  0
    0.3470   16.4500   -9.0640 C   0  0  0  0  0  0  0  0  0  0  0  0
    1.7650   16.0910   -9.3910 C   0  0  2  0  0  0  0  0  0  0  0  0
    2.2780   16.7020  -10.5820 O   0  0  0  0  0  0  0  0  0  0  0  0
    2.1610   15.2700  -10.6040 C   0  0  0  0  0  0  0  0  0  0  0  0
    1.1380   14.7580  -11.5680 C   0  0  0  0  0  0  0  0  0  0  0  0
    3.4780   14.5580  -10.5870 C   0  0  0  0  0  0  0  0  0  0  0  0
    0.2680   14.5650   -5.8050 C   0  0  1  0  0  0  0  0  0  0  0  0
    1.2770   13.6420   -6.5400 C   0  0  0  0  0  0  0  0  0  0  0  0
    2.1770   13.0060   -5.4490 C   0  0  0  0  0  0  0  0  0  0  0  0
    1.4550   13.3160   -4.1170 C   0  0  1  0  0  0  0  0  0  0  0  0
    0.3370   12.2330   -4.0050 C   0  0  0  0  0  0  0  0  0  0  0  0
    2.3520   13.3550   -2.8370 C   0  0  2  0  0  0  0  0  0  0  0  0
    3.0450   12.0270   -2.4860 C   0  0  0  0  0  0  0  0  0  0  0  0
    2.2750   11.1260   -1.5780 C   0  0  0  0  0  0  0  0  0  0  0  0
    1.2090   11.4870   -0.8380 C   0  0  0  0  0  0  0  0  0  0  0  0
    0.7360   12.9450   -0.7970 C   0  0  1  0  0  0  0  0  0  0  0  0
    0.4690   13.3620    0.6730 C   0  0  0  0  0  0  0  0  0  0  0  0
   -0.4940   12.4150    1.3830 C   0  0  0  0  0  0  0  0  0  0  0  0
    0.0380   10.9850    1.3720 C   0  0  2  0  0  0  0  0  0  0  0  0
    1.2200   10.9270    2.1770 O   0  0  0  0  0  0  0  0  0  0  0  0
    0.3530   10.4600   -0.0570 C   0  0  0  0  0  0  0  0  0  0  0  0
   -0.9680   10.2380   -0.8330 C   0  0  0  0  0  0  0  0  0  0  0  0
    1.0150    9.0620    0.0840 C   0  0  0  0  0  0  0  0  0  0  0  0
    1.6480   13.9920   -1.5710 C   0  0  1  0  0  0  0  0  0  0  0  0
    2.7880   14.4990   -0.6360 C   0  0  0  0  0  0  0  0  0  0  0  0
    0.7820   15.2540   -1.9400 C   0  0  0  0  0  0  0  0  0  0  0  0
    0.0140   15.2040   -3.2750 C   0  0  0  0  0  0  0  0  0  0  0  0
    0.9320   14.7680   -4.4200 C   0  0  2  0  0  0  0  0  0  0  0  0
    2.0550   15.8510   -4.5710 C   0  0  0  0  0  0  0  0  0  0  0  0
   -1.2423   16.4656   -4.9073 H   0  0  0  0  0  0  0  0  0  0  0  0
   -1.3397   17.5479   -6.3376 H   0  0  0  0  0  0  0  0  0  0  0  0
   -2.2136   15.9786   -6.3376 H   0  0  0  0  0  0  0  0  0  0  0  0
    0.7613   16.5289   -6.5568 H   0  0  0  0  0  0  0  0  0  0  0  0
    0.1672   14.4618   -8.2713 H   0  0  0  0  0  0  0  0  0  0  0  0
   -1.3653   15.4593   -8.2760 H   0  0  0  0  0  0  0  0  0  0  0  0
   -0.2413   16.4603   -9.9934 H   0  0  0  0  0  0  0  0  0  0  0  0
    0.3461   17.4404   -8.5853 H   0  0  0  0  0  0  0  0  0  0  0  0
    2.0124   15.9968   -8.3233 H   0  0  0  0  0  0  0  0  0  0  0  0
    0.2896   14.3334  -11.0112 H   0  0  0  0  0  0  0  0  0  0  0  0
    0.7841   15.5852  -12.2008 H   0  0  0  0  0  0  0  0  0  0  0  0
    1.5880   13.9789  -12.2008 H   0  0  0  0  0  0  0  0  0  0  0  0
    3.7902   14.3892   -9.5458 H   0  0  0  0  0  0  0  0  0  0  0  0
    3.3786   13.5908  -11.1013 H   0  0  0  0  0  0  0  0  0  0  0  0
    4.2328   15.1709  -11.1013 H   0  0  0  0  0  0  0  0  0  0  0  0
   -0.7405   14.1438   -5.6802 H   0  0  0  0  0  0  0  0  0  0  0  0
    0.7396   12.8573   -7.0927 H   0  0  0  0  0  0  0  0  0  0  0  0
    1.8772   14.2109   -7.2654 H   0  0  0  0  0  0  0  0  0  0  0  0
    2.2622   11.9199   -5.6007 H   0  0  0  0  0  0  0  0  0  0  0  0
    3.2021   13.4043   -5.4700 H   0  0  0  0  0  0  0  0  0  0  0  0
    0.1278   12.0303   -2.9443 H   0  0  0  0  0  0  0  0  0  0  0  0
   -0.5773   12.5977   -4.4959 H   0  0  0  0  0  0  0  0  0  0  0  0
    0.6725   11.3075   -4.4959 H   0  0  0  0  0  0  0  0  0  0  0  0
    3.1572   14.0431   -3.1339 H   0  0  0  0  0  0  0  0  0  0  0  0
    3.2336   11.4839   -3.4238 H   0  0  0  0  0  0  0  0  0  0  0  0
    3.9616   12.2970   -1.9410 H   0  0  0  0  0  0  0  0  0  0  0  0
    2.6061   10.0794   -1.5074 H   0  0  0  0  0  0  0  0  0  0  0  0
   -0.2022   12.9759   -1.3705 H   0  0  0  0  0  0  0  0  0  0  0  0
    1.4248   13.3668    1.2175 H   0  0  0  0  0  0  0  0  0  0  0  0
    0.0068   14.3601    0.6587 H   0  0  0  0  0  0  0  0  0  0  0  0
   -0.6194   12.7442    2.4251 H   0  0  0  0  0  0  0  0  0  0  0  0
   -1.4583   12.4343    0.8541 H   0  0  0  0  0  0  0  0  0  0  0  0
   -0.7516   10.3357    1.7780 H   0  0  0  0  0  0  0  0  0  0  0  0
    0.9930   10.4590    2.9990 H   0  0  0  0  0  0  0  0  0  0  0  0
   -1.7936   10.0993   -0.1194 H   0  0  0  0  0  0  0  0  0  0  0  0
   -1.1734   11.1142   -1.4655 H   0  0  0  0  0  0  0  0  0  0  0  0
   -0.8757    9.3428   -1.4655 H   0  0  0  0  0  0  0  0  0  0  0  0
    1.1310    8.8171    1.1501 H   0  0  0  0  0  0  0  0  0  0  0  0
    0.3797    8.3050   -0.3991 H   0  0  0  0  0  0  0  0  0  0  0  0
    2.0032    9.0738   -0.3991 H   0  0  0  0  0  0  0  0  0  0  0  0
    2.4878   14.3655    0.4138 H   0  0  0  0  0  0  0  0  0  0  0  0
    3.7052   13.9240   -0.8311 H   0  0  0  0  0  0  0  0  0  0  0  0
    2.9753   15.5652   -0.8311 H   0  0  0  0  0  0  0  0  0  0  0  0
    0.0442   15.3975   -1.1369 H   0  0  0  0  0  0  0  0  0  0  0  0
    1.5047   16.0753   -2.0545 H   0  0  0  0  0  0  0  0  0  0  0  0
   -0.8156   14.4871   -3.1861 H   0  0  0  0  0  0  0  0  0  0  0  0
   -0.3690   16.2110   -3.4969 H   0  0  0  0  0  0  0  0  0  0  0  0
    2.3896   16.1737   -3.5741 H   0  0  0  0  0  0  0  0  0  0  0  0
    2.9052   15.4232   -5.1225 H   0  0  0  0  0  0  0  0  0  0  0  0
    1.6583   16.7162   -5.1225 H   0  0  0  0  0  0  0  0  0  0  0  0
  1  2  1  0
  2  3  1  0
  3  4  1  0
  4  5  1  0
  5  6  1  0
  6  7  1  0
  7  8  1  0
  7  9  1  0
  2 10  1  0
 10 11  1  0
 11 12  1  0
 12 13  1  0
 13 14  1  1
 13 15  1  0
 15 16  1  0
 16 17  1  0
 17 18  2  0
 18 19  1  0
 19 20  1  0
 20 21  1  0
 21 22  1  0
 22 23  1  0
 22 24  1  0
 24 25  1  0
 24 26  1  0
 19 27  1  0
 27 28  1  1
 27 29  1  0
 29 30  1  0
 30 31  1  0
 31 32  1  6
  7  5  1  0
 31 10  1  0
 31 13  1  0
 27 15  1  0
 24 18  1  0
  1 33  1  0
  1 34  1  0
  1 35  1  0
  2 36  1  6
  3 37  1  0
  3 38  1  0
  4 39  1  0
  4 40  1  0
  5 41  1  1
  8 42  1  0
  8 43  1  0
  8 44  1  0
  9 45  1  0
  9 46  1  0
  9 47  1  0
 10 48  1  1
 11 49  1  0
 11 50  1  0
 12 51  1  0
 12 52  1  0
 14 53  1  0
 14 54  1  0
 14 55  1  0
 15 56  1  6
 16 57  1  0
 16 58  1  0
 17 59  1  0
 19 60  1  6
 20 61  1  0
 20 62  1  0
 21 63  1  0
 21 64  1  0
 22 65  1  1
 23 66  1  0
 25 67  1  0
 25 68  1  0
 25 69  1  0
 26 70  1  0
 26 71  1  0
 26 72  1  0
 28 73  1  0
 28 74  1  0
 28 75  1  0
 29 76  1  0
 29 77  1  0
 30 78  1  0
 30 79  1  0
 32 80  1  0
 32 81  1  0
 32 82  1  0
M  END
>  <meeko>  (11) 
{"is_sidechain": [false], "intermolecular_energy": 2.731, "internal_energy": -0.839}

$$$$
EPH_relaxed_0001_pdb2pqr_Repair_18_r2_0001_out
     RDKit          3D

 82 86  0  0  0  0  0  0  0  0999 V2000
   -0.9330   16.4040   -5.8980 C   0  0  0  0  0  0  0  0  0  0  0  0
    0.1750   15.7310   -6.7130 C   0  0  2  0  0  0  0  0  0  0  0  0
   -0.2160   15.5580   -8.1940 C   0  0  0  0  0  0  0  0  0  0  0  0
    0.4570   16.5670   -9.1300 C   0  0  0  0  0  0  0  0  0  0  0  0
    1.8580   16.1570   -9.4720 C   0  0  2  0  0  0  0  0  0  0  0  0
    2.3540   16.6930  -10.7050 O   0  0  0  0  0  0  0  0  0  0  0  0
    2.2040   15.2650  -10.6500 C   0  0  0  0  0  0  0  0  0  0  0  0
    1.1450   14.7290  -11.5610 C   0  0  0  0  0  0  0  0  0  0  0  0
    3.5040   14.5230  -10.6270 C   0  0  0  0  0  0  0  0  0  0  0  0
    0.5190   14.3770   -6.1030 C   0  0  1  0  0  0  0  0  0  0  0  0
    1.7430   13.7090   -6.7840 C   0  0  0  0  0  0  0  0  0  0  0  0
    2.5070   12.9410   -5.6750 C   0  0  0  0  0  0  0  0  0  0  0  0
    1.5320   12.9140   -4.4750 C   0  0  1  0  0  0  0  0  0  0  0  0
    0.5480   11.7420   -4.7840 C   0  0  0  0  0  0  0  0  0  0  0  0
    2.1800   12.7660   -3.0600 C   0  0  2  0  0  0  0  0  0  0  0  0
    2.9540   11.4560   -2.8310 C   0  0  0  0  0  0  0  0  0  0  0  0
    2.1490   10.3300   -2.2710 C   0  0  0  0  0  0  0  0  0  0  0  0
    0.9360   10.4440   -1.7000 C   0  0  0  0  0  0  0  0  0  0  0  0
    0.2930   11.8200   -1.4840 C   0  0  1  0  0  0  0  0  0  0  0  0
   -0.2750   11.9060   -0.0430 C   0  0  0  0  0  0  0  0  0  0  0  0
   -1.2280   10.7590    0.2790 C   0  0  0  0  0  0  0  0  0  0  0  0
   -0.5360    9.4100    0.1090 C   0  0  2  0  0  0  0  0  0  0  0  0
    0.4850    9.2870    1.1050 O   0  0  0  0  0  0  0  0  0  0  0  0
    0.0850    9.2130   -1.3020 C   0  0  0  0  0  0  0  0  0  0  0  0
   -1.0450    9.0440   -2.3480 C   0  0  0  0  0  0  0  0  0  0  0  0
    0.8730    7.8750   -1.2950 C   0  0  0  0  0  0  0  0  0  0  0  0
    1.1950   13.0730   -1.8600 C   0  0  1  0  0  0  0  0  0  0  0  0
    2.0850   13.4720   -0.6440 C   0  0  0  0  0  0  0  0  0  0  0  0
    0.2620   14.3080   -2.1530 C   0  0  0  0  0  0  0  0  0  0  0  0
   -0.2490   14.4660   -3.5970 C   0  0  0  0  0  0  0  0  0  0  0  0
    0.9010   14.3490   -4.6020 C   0  0  2  0  0  0  0  0  0  0  0  0
    1.8960   15.5290   -4.3300 C   0  0  0  0  0  0  0  0  0  0  0  0
   -0.7265   16.2786   -4.8249 H   0  0  0  0  0  0  0  0  0  0  0  0
   -0.9679   17.4761   -6.1418 H   0  0  0  0  0  0  0  0  0  0  0  0
   -1.9005   15.9408   -6.1418 H   0  0  0  0  0  0  0  0  0  0  0  0
    1.0561   16.3887   -6.6797 H   0  0  0  0  0  0  0  0  0  0  0  0
    0.0695   14.5446   -8.5126 H   0  0  0  0  0  0  0  0  0  0  0  0
   -1.3004   15.7293   -8.2625 H   0  0  0  0  0  0  0  0  0  0  0  0
   -0.1298   16.6392  -10.0576 H   0  0  0  0  0  0  0  0  0  0  0  0
    0.4999   17.5376   -8.6142 H   0  0  0  0  0  0  0  0  0  0  0  0
    2.1304   16.1119   -8.4072 H   0  0  0  0  0  0  0  0  0  0  0  0
    0.3221   14.3125  -10.9615 H   0  0  0  0  0  0  0  0  0  0  0  0
    0.7616   15.5416  -12.1956 H   0  0  0  0  0  0  0  0  0  0  0  0
    1.5728   13.9389  -12.1956 H   0  0  0  0  0  0  0  0  0  0  0  0
    3.8086   14.3492   -9.5844 H   0  0  0  0  0  0  0  0  0  0  0  0
    3.3841   13.5573  -11.1399 H   0  0  0  0  0  0  0  0  0  0  0  0
    4.2745   15.1173  -11.1399 H   0  0  0  0  0  0  0  0  0  0  0  0
   -0.4382   13.8572   -6.2566 H   0  0  0  0  0  0  0  0  0  0  0  0
    1.4078   13.0115   -7.5658 H   0  0  0  0  0  0  0  0  0  0  0  0
    2.3890   14.4608   -7.2610 H   0  0  0  0  0  0  0  0  0  0  0  0
    2.7454   11.9189   -6.0045 H   0  0  0  0  0  0  0  0  0  0  0  0
    3.4655   13.4180   -5.4225 H   0  0  0  0  0  0  0  0  0  0  0  0
    0.1849   11.3095   -3.8400 H   0  0  0  0  0  0  0  0  0  0  0  0
   -0.3050   12.1229   -5.3649 H   0  0  0  0  0  0  0  0  0  0  0  0
    1.0707   10.9678   -5.3649 H   0  0  0  0  0  0  0  0  0  0  0  0
    2.9371   13.5640   -3.0628 H   0  0  0  0  0  0  0  0  0  0  0  0
    3.3664   11.1313   -3.7977 H   0  0  0  0  0  0  0  0  0  0  0  0
    3.7233   11.6842   -2.0786 H   0  0  0  0  0  0  0  0  0  0  0  0
    2.5846    9.3217   -2.3303 H   0  0  0  0  0  0  0  0  0  0  0  0
   -0.5276   11.8900   -2.2132 H   0  0  0  0  0  0  0  0  0  0  0  0
    0.5632   11.8785    0.6688 H   0  0  0  0  0  0  0  0  0  0  0  0
   -0.8429   12.8447    0.0368 H   0  0  0  0  0  0  0  0  0  0  0  0
   -1.5722   10.8583    1.3190 H   0  0  0  0  0  0  0  0  0  0  0  0
   -2.0803   10.8059   -0.4148 H   0  0  0  0  0  0  0  0  0  0  0  0
   -1.3022    8.6294    0.2261 H   0  0  0  0  0  0  0  0  0  0  0  0
    1.1670    8.6890    0.7550 H   0  0  0  0  0  0  0  0  0  0  0  0
   -2.0051    8.9004   -1.8306 H   0  0  0  0  0  0  0  0  0  0  0  0
   -1.0990    9.9441   -2.9781 H   0  0  0  0  0  0  0  0  0  0  0  0
   -0.8333    8.1675   -2.9781 H   0  0  0  0  0  0  0  0  0  0  0  0
    1.0567    7.5631   -0.2563 H   0  0  0  0  0  0  0  0  0  0  0  0
    0.2864    7.1013   -1.8119 H   0  0  0  0  0  0  0  0  0  0  0  0
    1.8342    8.0128   -1.8119 H   0  0  0  0  0  0  0  0  0  0  0  0
    1.5561   13.2349    0.2909 H   0  0  0  0  0  0  0  0  0  0  0  0
    3.0309   12.9118   -0.6824 H   0  0  0  0  0  0  0  0  0  0  0  0
    2.2960   14.5509   -0.6824 H   0  0  0  0  0  0  0  0  0  0  0  0
   -0.6167   14.2242   -1.4965 H   0  0  0  0  0  0  0  0  0  0  0  0
    0.8905   15.1924   -1.9721 H   0  0  0  0  0  0  0  0  0  0  0  0
   -0.9896   13.6796   -3.8046 H   0  0  0  0  0  0  0  0  0  0  0  0
   -0.7050   15.4617   -3.7005 H   0  0  0  0  0  0  0  0  0  0  0  0
    2.0128   15.6675   -3.2450 H   0  0  0  0  0  0  0  0  0  0  0  0
    2.8734   15.2949   -4.7770 H   0  0  0  0  0  0  0  0  0  0  0  0
    1.5002   16.4528   -4.7770 H   0  0  0  0  0  0  0  0  0  0  0  0
  1  2  1  0
  2  3  1  0
  3  4  1  0
  4  5  1  0
  5  6  1  0
  6  7  1  0
  7  8  1  0
  7  9  1  0
  2 10  1  0
 10 11  1  0
 11 12  1  0
 12 13  1  0
 13 14  1  6
 13 15  1  0
 15 16  1  0
 16 17  1  0
 17 18  2  0
 18 19  1  0
 19 20  1  0
 20 21  1  0
 21 22  1  0
 22 23  1  0
 22 24  1  0
 24 25  1  0
 24 26  1  0
 19 27  1  0
 27 28  1  1
 27 29  1  0
 29 30  1  0
 30 31  1  0
 31 32  1  6
  7  5  1  0
 31 10  1  0
 31 13  1  0
 27 15  1  0
 24 18  1  0
  1 33  1  0
  1 34  1  0
  1 35  1  0
  2 36  1  6
  3 37  1  0
  3 38  1  0
  4 39  1  0
  4 40  1  0
  5 41  1  1
  8 42  1  0
  8 43  1  0
  8 44  1  0
  9 45  1  0
  9 46  1  0
  9 47  1  0
 10 48  1  1
 11 49  1  0
 11 50  1  0
 12 51  1  0
 12 52  1  0
 14 53  1  0
 14 54  1  0
 14 55  1  0
 15 56  1  6
 16 57  1  0
 16 58  1  0
 17 59  1  0
 19 60  1  6
 20 61  1  0
 20 62  1  0
 21 63  1  0
 21 64  1  0
 22 65  1  1
 23 66  1  0
 25 67  1  0
 25 68  1  0
 25 69  1  0
 26 70  1  0
 26 71  1  0
 26 72  1  0
 28 73  1  0
 28 74  1  0
 28 75  1  0
 29 76  1  0
 29 77  1  0
 30 78  1  0
 30 79  1  0
 32 80  1  0
 32 81  1  0
 32 82  1  0
M  END
>  <meeko>  (12) 
{"is_sidechain": [false], "intermolecular_energy": 2.731, "internal_energy": -0.839}

$$$$
EPH_relaxed_0001_pdb2pqr_Repair_18_r2_0001_out
     RDKit          3D

 82 86  0  0  0  0  0  0  0  0999 V2000
    4.2650   17.1490   -1.1120 C   0  0  0  0  0  0  0  0  0  0  0  0
    2.7990   17.4360   -1.4460 C   0  0  2  0  0  0  0  0  0  0  0  0
    2.2990   18.7410   -0.7950 C   0  0  0  0  0  0  0  0  0  0  0  0
    3.3360   19.4160    0.1060 C   0  0  0  0  0  0  0  0  0  0  0  0
    3.1270   19.0680    1.5490 C   0  0  2  0  0  0  0  0  0  0  0  0
    2.9020   20.1930    2.4090 O   0  0  0  0  0  0  0  0  0  0  0  0
    4.1030   19.4410    2.6500 C   0  0  0  0  0  0  0  0  0  0  0  0
    5.3620   20.1940    2.3540 C   0  0  0  0  0  0  0  0  0  0  0  0
    4.0780   18.6570    3.9240 C   0  0  0  0  0  0  0  0  0  0  0  0
    1.9270   16.2660   -1.0040 C   0  0  1  0  0  0  0  0  0  0  0  0
    0.5450   16.7210   -0.4660 C   0  0  0  0  0  0  0  0  0  0  0  0
   -0.4780   15.6330   -0.8850 C   0  0  0  0  0  0  0  0  0  0  0  0
    0.3890   14.4420   -1.3530 C   0  0  1  0  0  0  0  0  0  0  0  0
    0.8140   13.7140   -0.0390 C   0  0  0  0  0  0  0  0  0  0  0  0
   -0.2790   13.4570   -2.3670 C   0  0  2  0  0  0  0  0  0  0  0  0
   -1.5210   12.7190   -1.8380 C   0  0  0  0  0  0  0  0  0  0  0  0
   -1.2510   11.4090   -1.1760 C   0  0  0  0  0  0  0  0  0  0  0  0
   -0.1030   10.7120   -1.2610 C   0  0  0  0  0  0  0  0  0  0  0  0
    1.0420   11.1870   -2.1650 C   0  0  1  0  0  0  0  0  0  0  0  0
    1.5800    9.9890   -2.9920 C   0  0  0  0  0  0  0  0  0  0  0  0
    1.9800    8.8060   -2.1160 C   0  0  0  0  0  0  0  0  0  0  0  0
    0.8000    8.3260   -1.2750 C   0  0  2  0  0  0  0  0  0  0  0  0
   -0.1930    7.7760   -2.1460 O   0  0  0  0  0  0  0  0  0  0  0  0
    0.1690    9.4500   -0.4060 C   0  0  0  0  0  0  0  0  0  0  0  0
    1.1440    9.8350    0.7340 C   0  0  0  0  0  0  0  0  0  0  0  0
   -1.0950    8.8680    0.2830 C   0  0  0  0  0  0  0  0  0  0  0  0
    0.7320   12.4600   -3.0650 C   0  0  1  0  0  0  0  0  0  0  0  0
    0.0680   12.0160   -4.4040 C   0  0  0  0  0  0  0  0  0  0  0  0
    2.0890   13.1580   -3.4520 C   0  0  0  0  0  0  0  0  0  0  0  0
    2.6370   14.2080   -2.4660 C   0  0  0  0  0  0  0  0  0  0  0  0
    1.5500   15.2150   -2.0780 C   0  0  2  0  0  0  0  0  0  0  0  0
    1.1180   15.9770   -3.3770 C   0  0  0  0  0  0  0  0  0  0  0  0
    4.3941   17.1237   -0.0199 H   0  0  0  0  0  0  0  0  0  0  0  0
    4.5547   16.1771   -1.5380 H   0  0  0  0  0  0  0  0  0  0  0  0
    4.8998   17.9399   -1.5380 H   0  0  0  0  0  0  0  0  0  0  0  0
    2.7270   17.5630   -2.5363 H   0  0  0  0  0  0  0  0  0  0  0  0
    2.0233   19.4444   -1.5945 H   0  0  0  0  0  0  0  0  0  0  0  0
    1.4436   18.4745   -0.1568 H   0  0  0  0  0  0  0  0  0  0  0  0
    4.3406   19.0870   -0.1982 H   0  0  0  0  0  0  0  0  0  0  0  0
    3.2280   20.5052   -0.0032 H   0  0  0  0  0  0  0  0  0  0  0  0
    2.6541   18.1134    1.2749 H   0  0  0  0  0  0  0  0  0  0  0  0
    5.8465   20.4838    3.2981 H   0  0  0  0  0  0  0  0  0  0  0  0
    6.0435   19.5550    1.7732 H   0  0  0  0  0  0  0  0  0  0  0  0
    5.1214   21.0966    1.7732 H   0  0  0  0  0  0  0  0  0  0  0  0
    4.1000   19.3475    4.7800 H   0  0  0  0  0  0  0  0  0  0  0  0
    3.1601   18.0521    3.9644 H   0  0  0  0  0  0  0  0  0  0  0  0
    4.9555   17.9949    3.9644 H   0  0  0  0  0  0  0  0  0  0  0  0
    2.5912   15.8144   -0.2524 H   0  0  0  0  0  0  0  0  0  0  0  0
    0.5757   16.8102    0.6299 H   0  0  0  0  0  0  0  0  0  0  0  0
    0.2661   17.7037   -0.8740 H   0  0  0  0  0  0  0  0  0  0  0  0
   -1.1079   15.3429   -0.0312 H   0  0  0  0  0  0  0  0  0  0  0  0
   -1.1626   15.9847   -1.6709 H   0  0  0  0  0  0  0  0  0  0  0  0
    0.4737   14.2969    0.8296 H   0  0  0  0  0  0  0  0  0  0  0  0
    0.3582   12.7133   -0.0104 H   0  0  0  0  0  0  0  0  0  0  0  0
    1.9095   13.6189   -0.0104 H   0  0  0  0  0  0  0  0  0  0  0  0
   -0.6464   14.1378   -3.1490 H   0  0  0  0  0  0  0  0  0  0  0  0
   -2.0191   13.3729   -1.1070 H   0  0  0  0  0  0  0  0  0  0  0  0
   -2.1386   12.4926   -2.7196 H   0  0  0  0  0  0  0  0  0  0  0  0
   -2.0587   10.9766   -0.5671 H   0  0  0  0  0  0  0  0  0  0  0  0
    1.8281   11.5580   -1.4910 H   0  0  0  0  0  0  0  0  0  0  0  0
    0.7953    9.6616   -3.6898 H   0  0  0  0  0  0  0  0  0  0  0  0
    2.4800   10.3289   -3.5253 H   0  0  0  0  0  0  0  0  0  0  0  0
    2.3228    7.9818   -2.7588 H   0  0  0  0  0  0  0  0  0  0  0  0
    2.7857    9.1269   -1.4394 H   0  0  0  0  0  0  0  0  0  0  0  0
    1.1802    7.5663   -0.5762 H   0  0  0  0  0  0  0  0  0  0  0  0
   -0.5610    6.9880   -1.7120 H   0  0  0  0  0  0  0  0  0  0  0  0
    0.6648    9.6458    1.7059 H   0  0  0  0  0  0  0  0  0  0  0  0
    2.0597    9.2310    0.6529 H   0  0  0  0  0  0  0  0  0  0  0  0
    1.4000   10.9017    0.6529 H   0  0  0  0  0  0  0  0  0  0  0  0
   -0.9755    8.9230    1.3751 H   0  0  0  0  0  0  0  0  0  0  0  0
   -1.9781    9.4502   -0.0190 H   0  0  0  0  0  0  0  0  0  0  0  0
   -1.2268    7.8185   -0.0190 H   0  0  0  0  0  0  0  0  0  0  0  0
   -0.8285   11.4165   -4.1876 H   0  0  0  0  0  0  0  0  0  0  0  0
   -0.2172   12.9057   -4.9846 H   0  0  0  0  0  0  0  0  0  0  0  0
    0.7813   11.4125   -4.9846 H   0  0  0  0  0  0  0  0  0  0  0  0
    2.8501   12.3707   -3.5565 H   0  0  0  0  0  0  0  0  0  0  0  0
    1.8724   13.7158   -4.3750 H   0  0  0  0  0  0  0  0  0  0  0  0
    2.9953   13.6981   -1.5596 H   0  0  0  0  0  0  0  0  0  0  0  0
    3.4604   14.7508   -2.9532 H   0  0  0  0  0  0  0  0  0  0  0  0
    0.5928   16.9033   -3.1012 H   0  0  0  0  0  0  0  0  0  0  0  0
    2.0103   16.2243   -3.9709 H   0  0  0  0  0  0  0  0  0  0  0  0
    0.4476   15.3384   -3.9709 H   0  0  0  0  0  0  0  0  0  0  0  0
  1  2  1  0
  2  3  1  0
  3  4  1  0
  4  5  1  0
  5  6  1  0
  6  7  1  0
  7  8  1  0
  7  9  1  0
  2 10  1  0
 10 11  1  0
 11 12  1  0
 12 13  1  0
 13 14  1  1
 13 15  1  0
 15 16  1  0
 16 17  1  0
 17 18  2  0
 18 19  1  0
 19 20  1  0
 20 21  1  0
 21 22  1  0
 22 23  1  0
 22 24  1  0
 24 25  1  0
 24 26  1  0
 19 27  1  0
 27 28  1  6
 27 29  1  0
 29 30  1  0
 30 31  1  0
 31 32  1  6
  7  5  1  0
 31 10  1  0
 31 13  1  0
 27 15  1  0
 24 18  1  0
  1 33  1  0
  1 34  1  0
  1 35  1  0
  2 36  1  6
  3 37  1  0
  3 38  1  0
  4 39  1  0
  4 40  1  0
  5 41  1  6
  8 42  1  0
  8 43  1  0
  8 44  1  0
  9 45  1  0
  9 46  1  0
  9 47  1  0
 10 48  1  1
 11 49  1  0
 11 50  1  0
 12 51  1  0
 12 52  1  0
 14 53  1  0
 14 54  1  0
 14 55  1  0
 15 56  1  6
 16 57  1  0
 16 58  1  0
 17 59  1  0
 19 60  1  1
 20 61  1  0
 20 62  1  0
 21 63  1  0
 21 64  1  0
 22 65  1  1
 23 66  1  0
 25 67  1  0
 25 68  1  0
 25 69  1  0
 26 70  1  0
 26 71  1  0
 26 72  1  0
 28 73  1  0
 28 74  1  0
 28 75  1  0
 29 76  1  0
 29 77  1  0
 30 78  1  0
 30 79  1  0
 32 80  1  0
 32 81  1  0
 32 82  1  0
M  END
>  <meeko>  (13) 
{"is_sidechain": [false], "intermolecular_energy": 2.731, "internal_energy": -0.839}

$$$$
EPH_relaxed_0001_pdb2pqr_Repair_18_r2_0001_out
     RDKit          3D

 82 86  0  0  0  0  0  0  0  0999 V2000
    0.3290   19.3680   -2.3770 C   0  0  0  0  0  0  0  0  0  0  0  0
    0.0190   18.3180   -1.3070 C   0  0  2  0  0  0  0  0  0  0  0  0
    0.5860   18.7100    0.0730 C   0  0  0  0  0  0  0  0  0  0  0  0
    1.7330   19.7210    0.0020 C   0  0  0  0  0  0  0  0  0  0  0  0
    2.5900   19.6740    1.2300 C   0  0  2  0  0  0  0  0  0  0  0  0
    3.9150   20.1940    1.0570 O   0  0  0  0  0  0  0  0  0  0  0  0
    3.8190   18.7930    1.3600 C   0  0  0  0  0  0  0  0  0  0  0  0
    4.2590   17.8980    0.2440 C   0  0  0  0  0  0  0  0  0  0  0  0
    4.3040   18.4380    2.7310 C   0  0  0  0  0  0  0  0  0  0  0  0
    0.5730   16.9630   -1.7320 C   0  0  1  0  0  0  0  0  0  0  0  0
    2.0600   17.0370   -2.1710 C   0  0  0  0  0  0  0  0  0  0  0  0
    2.7250   15.7090   -1.7260 C   0  0  0  0  0  0  0  0  0  0  0  0
    1.5410   14.7880   -1.3500 C   0  0  1  0  0  0  0  0  0  0  0  0
    1.0260   14.2200   -2.7090 C   0  0  0  0  0  0  0  0  0  0  0  0
    1.8520   13.6460   -0.3280 C   0  0  2  0  0  0  0  0  0  0  0  0
    2.8850   12.6080   -0.8040 C   0  0  0  0  0  0  0  0  0  0  0  0
    2.3190   11.4290   -1.5230 C   0  0  0  0  0  0  0  0  0  0  0  0
    1.0230   11.0650   -1.5300 C   0  0  0  0  0  0  0  0  0  0  0  0
   -0.0110   11.8170   -0.6820 C   0  0  1  0  0  0  0  0  0  0  0  0
   -0.9030   10.7970    0.0720 C   0  0  0  0  0  0  0  0  0  0  0  0
   -1.5460    9.7780   -0.8630 C   0  0  0  0  0  0  0  0  0  0  0  0
   -0.4840    9.0100   -1.6460 C   0  0  2  0  0  0  0  0  0  0  0  0
    0.2650    8.2010   -0.7340 O   0  0  0  0  0  0  0  0  0  0  0  0
    0.4810    9.9350   -2.4390 C   0  0  0  0  0  0  0  0  0  0  0  0
   -0.2770   10.5850   -3.6230 C   0  0  0  0  0  0  0  0  0  0  0  0
    1.5860    9.0440   -3.0680 C   0  0  0  0  0  0  0  0  0  0  0  0
    0.5670   12.9470    0.2750 C   0  0  1  0  0  0  0  0  0  0  0  0
    0.9970   12.3220    1.6370 C   0  0  0  0  0  0  0  0  0  0  0  0
   -0.5770   13.9790    0.6010 C   0  0  0  0  0  0  0  0  0  0  0  0
   -0.7570   15.1510   -0.3820 C   0  0  0  0  0  0  0  0  0  0  0  0
    0.5830   15.8340   -0.6710 C   0  0  2  0  0  0  0  0  0  0  0  0
    1.1160   16.4340    0.6750 C   0  0  0  0  0  0  0  0  0  0  0  0
    0.6085   20.3147   -1.8916 H   0  0  0  0  0  0  0  0  0  0  0  0
    1.1620   19.0176   -3.0041 H   0  0  0  0  0  0  0  0  0  0  0  0
   -0.5608   19.5262   -3.0041 H   0  0  0  0  0  0  0  0  0  0  0  0
   -1.0750   18.2581   -1.2095 H   0  0  0  0  0  0  0  0  0  0  0  0
   -0.2268   19.1483    0.6707 H   0  0  0  0  0  0  0  0  0  0  0  0
    0.9926   17.7936    0.5257 H   0  0  0  0  0  0  0  0  0  0  0  0
    2.3553   19.4930   -0.8759 H   0  0  0  0  0  0  0  0  0  0  0  0
    1.2979   20.7284   -0.0741 H   0  0  0  0  0  0  0  0  0  0  0  0
    1.7112   19.8150    1.8764 H   0  0  0  0  0  0  0  0  0  0  0  0
    4.7080   16.9848    0.6617 H   0  0  0  0  0  0  0  0  0  0  0  0
    3.3902   17.6295   -0.3749 H   0  0  0  0  0  0  0  0  0  0  0  0
    5.0022   18.4220   -0.3749 H   0  0  0  0  0  0  0  0  0  0  0  0
    3.6563   18.9121    3.4832 H   0  0  0  0  0  0  0  0  0  0  0  0
    4.2755   17.3458    2.8586 H   0  0  0  0  0  0  0  0  0  0  0  0
    5.3365   18.7953    2.8586 H   0  0  0  0  0  0  0  0  0  0  0  0
   -0.1366   16.7175   -2.5358 H   0  0  0  0  0  0  0  0  0  0  0  0
    2.1273   17.1468   -3.2634 H   0  0  0  0  0  0  0  0  0  0  0  0
    2.5634   17.9025   -1.7156 H   0  0  0  0  0  0  0  0  0  0  0  0
    3.3104   15.2728   -2.5488 H   0  0  0  0  0  0  0  0  0  0  0  0
    3.4247   15.8522   -0.8894 H   0  0  0  0  0  0  0  0  0  0  0  0
    0.2983   13.4174   -2.5188 H   0  0  0  0  0  0  0  0  0  0  0  0
    0.5430   15.0244   -3.2831 H   0  0  0  0  0  0  0  0  0  0  0  0
    1.8737   13.8178   -3.2831 H   0  0  0  0  0  0  0  0  0  0  0  0
    2.3340   14.1924    0.4961 H   0  0  0  0  0  0  0  0  0  0  0  0
    3.5880   13.1142   -1.4819 H   0  0  0  0  0  0  0  0  0  0  0  0
    3.3590   12.2109    0.1058 H   0  0  0  0  0  0  0  0  0  0  0  0
    3.0203   10.8045   -2.0958 H   0  0  0  0  0  0  0  0  0  0  0  0
   -0.6225   12.3951   -1.3904 H   0  0  0  0  0  0  0  0  0  0  0  0
   -0.2827   10.2605    0.8050 H   0  0  0  0  0  0  0  0  0  0  0  0
   -1.7127   11.3590    0.5605 H   0  0  0  0  0  0  0  0  0  0  0  0
   -2.1389    9.0675   -0.2682 H   0  0  0  0  0  0  0  0  0  0  0  0
   -2.1898   10.3133   -1.5765 H   0  0  0  0  0  0  0  0  0  0  0  0
   -1.0058    8.3905   -2.3903 H   0  0  0  0  0  0  0  0  0  0  0  0
   -0.0930    8.3530    0.1560 H   0  0  0  0  0  0  0  0  0  0  0  0
   -1.0583   11.2550   -3.2347 H   0  0  0  0  0  0  0  0  0  0  0  0
    0.4291   11.1626   -4.2376 H   0  0  0  0  0  0  0  0  0  0  0  0
   -0.7402    9.7990   -4.2376 H   0  0  0  0  0  0  0  0  0  0  0  0
    2.1740    8.5698   -2.2684 H   0  0  0  0  0  0  0  0  0  0  0  0
    1.1197    8.2663   -3.6906 H   0  0  0  0  0  0  0  0  0  0  0  0
    2.2472    9.6646   -3.6906 H   0  0  0  0  0  0  0  0  0  0  0  0
    0.5846   12.9214    2.4620 H   0  0  0  0  0  0  0  0  0  0  0  0
    0.6150   11.2927    1.7050 H   0  0  0  0  0  0  0  0  0  0  0  0
    2.0948   12.3109    1.7050 H   0  0  0  0  0  0  0  0  0  0  0  0
   -1.5261   13.4240    0.6342 H   0  0  0  0  0  0  0  0  0  0  0  0
   -0.2813   14.4448    1.5526 H   0  0  0  0  0  0  0  0  0  0  0  0
   -1.1770   14.7692   -1.3242 H   0  0  0  0  0  0  0  0  0  0  0  0
   -1.4361   15.8881    0.0712 H   0  0  0  0  0  0  0  0  0  0  0  0
    0.6491   15.9084    1.5211 H   0  0  0  0  0  0  0  0  0  0  0  0
    2.2080   16.3109    0.7244 H   0  0  0  0  0  0  0  0  0  0  0  0
    0.8650   17.5039    0.7244 H   0  0  0  0  0  0  0  0  0  0  0  0
  1  2  1  0
  2  3  1  0
  3  4  1  0
  4  5  1  0
  5  6  1  0
  6  7  1  0
  7  8  1  0
  7  9  1  0
  2 10  1  0
 10 11  1  0
 11 12  1  0
 12 13  1  0
 13 14  1  6
 13 15  1  0
 15 16  1  0
 16 17  1  0
 17 18  2  0
 18 19  1  0
 19 20  1  0
 20 21  1  0
 21 22  1  0
 22 23  1  0
 22 24  1  0
 24 25  1  0
 24 26  1  0
 19 27  1  0
 27 28  1  1
 27 29  1  0
 29 30  1  0
 30 31  1  0
 31 32  1  1
  7  5  1  0
 31 10  1  0
 31 13  1  0
 27 15  1  0
 24 18  1  0
  1 33  1  0
  1 34  1  0
  1 35  1  0
  2 36  1  1
  3 37  1  0
  3 38  1  0
  4 39  1  0
  4 40  1  0
  5 41  1  1
  8 42  1  0
  8 43  1  0
  8 44  1  0
  9 45  1  0
  9 46  1  0
  9 47  1  0
 10 48  1  6
 11 49  1  0
 11 50  1  0
 12 51  1  0
 12 52  1  0
 14 53  1  0
 14 54  1  0
 14 55  1  0
 15 56  1  1
 16 57  1  0
 16 58  1  0
 17 59  1  0
 19 60  1  6
 20 61  1  0
 20 62  1  0
 21 63  1  0
 21 64  1  0
 22 65  1  6
 23 66  1  0
 25 67  1  0
 25 68  1  0
 25 69  1  0
 26 70  1  0
 26 71  1  0
 26 72  1  0
 28 73  1  0
 28 74  1  0
 28 75  1  0
 29 76  1  0
 29 77  1  0
 30 78  1  0
 30 79  1  0
 32 80  1  0
 32 81  1  0
 32 82  1  0
M  END
>  <meeko>  (14) 
{"is_sidechain": [false], "intermolecular_energy": 2.731, "internal_energy": -0.839}

$$$$
EPH_relaxed_0001_pdb2pqr_Repair_18_r2_0001_out
     RDKit          3D

 82 86  0  0  0  0  0  0  0  0999 V2000
   -2.1790    7.8620   -2.3960 C   0  0  0  0  0  0  0  0  0  0  0  0
   -2.2410    8.5030   -1.0070 C   0  0  2  0  0  0  0  0  0  0  0  0
   -3.6680    8.4830   -0.4210 C   0  0  0  0  0  0  0  0  0  0  0  0
   -4.7330    8.0040   -1.4110 C   0  0  0  0  0  0  0  0  0  0  0  0
   -5.8400    7.2670   -0.7200 C   0  0  2  0  0  0  0  0  0  0  0  0
   -6.3330    6.1230   -1.4300 O   0  0  0  0  0  0  0  0  0  0  0  0
   -7.2610    7.2050   -1.2490 C   0  0  0  0  0  0  0  0  0  0  0  0
   -7.6510    7.8910   -2.5200 C   0  0  0  0  0  0  0  0  0  0  0  0
   -8.3680    6.8950   -0.2900 C   0  0  0  0  0  0  0  0  0  0  0  0
   -1.7250    9.9350   -1.0720 C   0  0  1  0  0  0  0  0  0  0  0  0
   -1.3280   10.4910    0.3220 C   0  0  0  0  0  0  0  0  0  0  0  0
   -0.1080   11.4220    0.1020 C   0  0  0  0  0  0  0  0  0  0  0  0
   -0.0500   11.6330   -1.4290 C   0  0  1  0  0  0  0  0  0  0  0  0
   -1.1080   12.7430   -1.7220 C   0  0  0  0  0  0  0  0  0  0  0  0
    1.3490   11.9990   -2.0230 C   0  0  2  0  0  0  0  0  0  0  0  0
    1.9420   13.3290   -1.5270 C   0  0  0  0  0  0  0  0  0  0  0  0
    1.5930   14.5280   -2.3460 C   0  0  0  0  0  0  0  0  0  0  0  0
    1.0750   14.5030   -3.5880 C   0  0  0  0  0  0  0  0  0  0  0  0
    0.8800   13.1760   -4.3330 C   0  0  1  0  0  0  0  0  0  0  0  0
    1.4140   13.3140   -5.7830 C   0  0  0  0  0  0  0  0  0  0  0  0
    0.7960   14.4960   -6.5240 C   0  0  0  0  0  0  0  0  0  0  0  0
    1.0610   15.8030   -5.7830 C   0  0  2  0  0  0  0  0  0  0  0  0
    2.4640   16.0800   -5.8230 O   0  0  0  0  0  0  0  0  0  0  0  0
    0.5740   15.7800   -4.3060 C   0  0  0  0  0  0  0  0  0  0  0  0
   -0.9740   15.7840   -4.2680 C   0  0  0  0  0  0  0  0  0  0  0  0
    1.0280   17.1030   -3.6330 C   0  0  0  0  0  0  0  0  0  0  0  0
    1.4350   11.8810   -3.5990 C   0  0  1  0  0  0  0  0  0  0  0  0
    2.9410   11.6750   -3.9490 C   0  0  0  0  0  0  0  0  0  0  0  0
    0.6760   10.6150   -4.1460 C   0  0  0  0  0  0  0  0  0  0  0  0
   -0.6400   10.2350   -3.4400 C   0  0  0  0  0  0  0  0  0  0  0  0
   -0.4550   10.1960   -1.9200 C   0  0  2  0  0  0  0  0  0  0  0  0
    0.5880    9.0730   -1.5940 C   0  0  0  0  0  0  0  0  0  0  0  0
   -2.0736    6.7720   -2.2924 H   0  0  0  0  0  0  0  0  0  0  0  0
   -3.1034    8.0903   -2.9468 H   0  0  0  0  0  0  0  0  0  0  0  0
   -1.3155    8.2632   -2.9468 H   0  0  0  0  0  0  0  0  0  0  0  0
   -1.6015    7.9074   -0.3390 H   0  0  0  0  0  0  0  0  0  0  0  0
   -3.6764    7.8113    0.4501 H   0  0  0  0  0  0  0  0  0  0  0  0
   -3.9204    9.5198   -0.1539 H   0  0  0  0  0  0  0  0  0  0  0  0
   -5.1555    8.8769   -1.9302 H   0  0  0  0  0  0  0  0  0  0  0  0
   -4.2546    7.3155   -2.1231 H   0  0  0  0  0  0  0  0  0  0  0  0
   -5.4305    7.5294    0.2666 H   0  0  0  0  0  0  0  0  0  0  0  0
   -8.1820    8.8251   -2.2845 H   0  0  0  0  0  0  0  0  0  0  0  0
   -6.7481    8.1200   -3.1050 H   0  0  0  0  0  0  0  0  0  0  0  0
   -8.3096    7.2323   -3.1050 H   0  0  0  0  0  0  0  0  0  0  0  0
   -7.9994    6.9982    0.7412 H   0  0  0  0  0  0  0  0  0  0  0  0
   -9.2012    7.5944   -0.4533 H   0  0  0  0  0  0  0  0  0  0  0  0
   -8.7168    5.8646   -0.4533 H   0  0  0  0  0  0  0  0  0  0  0  0
   -2.5948   10.4229   -1.5362 H   0  0  0  0  0  0  0  0  0  0  0  0
   -2.1644   11.0589    0.7554 H   0  0  0  0  0  0  0  0  0  0  0  0
   -1.0814    9.6747    1.0169 H   0  0  0  0  0  0  0  0  0  0  0  0
   -0.2526   12.3810    0.6210 H   0  0  0  0  0  0  0  0  0  0  0  0
    0.8228   10.9912    0.4995 H   0  0  0  0  0  0  0  0  0  0  0  0
   -1.4908   13.1446   -0.7722 H   0  0  0  0  0  0  0  0  0  0  0  0
   -0.6392   13.5529   -2.3001 H   0  0  0  0  0  0  0  0  0  0  0  0
   -1.9395   12.3136   -2.3001 H   0  0  0  0  0  0  0  0  0  0  0  0
    1.9941   11.2110   -1.6072 H   0  0  0  0  0  0  0  0  0  0  0  0
    1.5813   13.5007   -0.5021 H   0  0  0  0  0  0  0  0  0  0  0  0
    3.0343   13.2201   -1.5972 H   0  0  0  0  0  0  0  0  0  0  0  0
    1.7747   15.5152   -1.8961 H   0  0  0  0  0  0  0  0  0  0  0  0
   -0.2045   12.9927   -4.3501 H   0  0  0  0  0  0  0  0  0  0  0  0
    2.5046   13.4525   -5.7455 H   0  0  0  0  0  0  0  0  0  0  0  0
    1.1408   12.3984   -6.3280 H   0  0  0  0  0  0  0  0  0  0  0  0
    1.2337   14.5581   -7.5312 H   0  0  0  0  0  0  0  0  0  0  0  0
   -0.2914   14.3418   -6.5860 H   0  0  0  0  0  0  0  0  0  0  0  0
    0.4863   16.5919   -6.2903 H   0  0  0  0  0  0  0  0  0  0  0  0
    2.9290   15.2310   -5.9150 H   0  0  0  0  0  0  0  0  0  0  0  0
   -1.3151   15.7849   -3.2222 H   0  0  0  0  0  0  0  0  0  0  0  0
   -1.3510   16.6831   -4.7774 H   0  0  0  0  0  0  0  0  0  0  0  0
   -1.3556   14.8868   -4.7774 H   0  0  0  0  0  0  0  0  0  0  0  0
    0.9893   16.9902   -2.5395 H   0  0  0  0  0  0  0  0  0  0  0  0
    2.0577   17.3367   -3.9413 H   0  0  0  0  0  0  0  0  0  0  0  0
    0.3587   17.9197   -3.9413 H   0  0  0  0  0  0  0  0  0  0  0  0
    3.5256   11.5950   -3.0206 H   0  0  0  0  0  0  0  0  0  0  0  0
    3.0580   10.7525   -4.5366 H   0  0  0  0  0  0  0  0  0  0  0  0
    3.3015   12.5322   -4.5366 H   0  0  0  0  0  0  0  0  0  0  0  0
    0.4444   10.7979   -5.2057 H   0  0  0  0  0  0  0  0  0  0  0  0
    1.3558    9.7700   -3.9619 H   0  0  0  0  0  0  0  0  0  0  0  0
   -1.4104   10.9794   -3.6898 H   0  0  0  0  0  0  0  0  0  0  0  0
   -0.9456    9.2352   -3.7820 H   0  0  0  0  0  0  0  0  0  0  0  0
    0.6852    8.9683   -0.5033 H   0  0  0  0  0  0  0  0  0  0  0  0
    0.2474    8.1200   -2.0249 H   0  0  0  0  0  0  0  0  0  0  0  0
    1.5636    9.3424   -2.0249 H   0  0  0  0  0  0  0  0  0  0  0  0
  1  2  1  0
  2  3  1  0
  3  4  1  0
  4  5  1  0
  5  6  1  0
  6  7  1  0
  7  8  1  0
  7  9  1  0
  2 10  1  0
 10 11  1  0
 11 12  1  0
 12 13  1  0
 13 14  1  1
 13 15  1  0
 15 16  1  0
 16 17  1  0
 17 18  2  0
 18 19  1  0
 19 20  1  0
 20 21  1  0
 21 22  1  0
 22 23  1  0
 22 24  1  0
 24 25  1  0
 24 26  1  0
 19 27  1  0
 27 28  1  1
 27 29  1  0
 29 30  1  0
 30 31  1  0
 31 32  1  6
  7  5  1  0
 31 10  1  0
 31 13  1  0
 27 15  1  0
 24 18  1  0
  1 33  1  0
  1 34  1  0
  1 35  1  0
  2 36  1  1
  3 37  1  0
  3 38  1  0
  4 39  1  0
  4 40  1  0
  5 41  1  1
  8 42  1  0
  8 43  1  0
  8 44  1  0
  9 45  1  0
  9 46  1  0
  9 47  1  0
 10 48  1  6
 11 49  1  0
 11 50  1  0
 12 51  1  0
 12 52  1  0
 14 53  1  0
 14 54  1  0
 14 55  1  0
 15 56  1  1
 16 57  1  0
 16 58  1  0
 17 59  1  0
 19 60  1  6
 20 61  1  0
 20 62  1  0
 21 63  1  0
 21 64  1  0
 22 65  1  6
 23 66  1  0
 25 67  1  0
 25 68  1  0
 25 69  1  0
 26 70  1  0
 26 71  1  0
 26 72  1  0
 28 73  1  0
 28 74  1  0
 28 75  1  0
 29 76  1  0
 29 77  1  0
 30 78  1  0
 30 79  1  0
 32 80  1  0
 32 81  1  0
 32 82  1  0
M  END
>  <meeko>  (15) 
{"is_sidechain": [false], "intermolecular_energy": 2.731, "internal_energy": -0.839}

$$$$
EPH_relaxed_0001_pdb2pqr_Repair_18_r2_0001_out
     RDKit          3D

 82 86  0  0  0  0  0  0  0  0999 V2000
   -1.7330   14.8220    0.4460 C   0  0  0  0  0  0  0  0  0  0  0  0
   -0.3860   15.5240    0.2570 C   0  0  2  0  0  0  0  0  0  0  0  0
   -0.4220   16.5520   -0.8920 C   0  0  0  0  0  0  0  0  0  0  0  0
   -0.0360   17.9700   -0.4630 C   0  0  0  0  0  0  0  0  0  0  0  0
    1.3940   18.0450   -0.0220 C   0  0  2  0  0  0  0  0  0  0  0  0
    2.0560   19.2750   -0.3450 O   0  0  0  0  0  0  0  0  0  0  0  0
    2.5650   18.0940   -0.9850 C   0  0  0  0  0  0  0  0  0  0  0  0
    2.3580   18.0670   -2.4670 C   0  0  0  0  0  0  0  0  0  0  0  0
    3.9150   17.6760   -0.4920 C   0  0  0  0  0  0  0  0  0  0  0  0
    0.7060   14.4930   -0.0010 C   0  0  1  0  0  0  0  0  0  0  0  0
    0.8360   13.4590    1.1500 C   0  0  0  0  0  0  0  0  0  0  0  0
    1.2140   12.1060    0.4950 C   0  0  0  0  0  0  0  0  0  0  0  0
    1.6130   12.4720   -0.9540 C   0  0  1  0  0  0  0  0  0  0  0  0
    3.0860   12.9760   -0.8490 C   0  0  0  0  0  0  0  0  0  0  0  0
    1.4660   11.3360   -2.0190 C   0  0  2  0  0  0  0  0  0  0  0  0
    2.3500   10.0990   -1.7800 C   0  0  0  0  0  0  0  0  0  0  0  0
    3.6960   10.1440   -2.4240 C   0  0  0  0  0  0  0  0  0  0  0  0
    4.0710   11.0000   -3.3930 C   0  0  0  0  0  0  0  0  0  0  0  0
    3.0670   11.9830   -4.0080 C   0  0  1  0  0  0  0  0  0  0  0  0
    3.1950   11.9560   -5.5530 C   0  0  0  0  0  0  0  0  0  0  0  0
    4.6240   12.2080   -6.0270 C   0  0  0  0  0  0  0  0  0  0  0  0
    5.5830   11.1750   -5.4410 C   0  0  2  0  0  0  0  0  0  0  0  0
    5.2690    9.8910   -5.9900 O   0  0  0  0  0  0  0  0  0  0  0  0
    5.5350   11.1050   -3.8890 C   0  0  0  0  0  0  0  0  0  0  0  0
    6.1590   12.3890   -3.2910 C   0  0  0  0  0  0  0  0  0  0  0  0
    6.4420    9.9290   -3.4360 C   0  0  0  0  0  0  0  0  0  0  0  0
    1.5630   11.8360   -3.5170 C   0  0  1  0  0  0  0  0  0  0  0  0
    0.8210   10.7770   -4.3890 C   0  0  0  0  0  0  0  0  0  0  0  0
    0.8120   13.2010   -3.7420 C   0  0  0  0  0  0  0  0  0  0  0  0
    0.8960   14.2360   -2.6040 C   0  0  0  0  0  0  0  0  0  0  0  0
    0.5550   13.5950   -1.2550 C   0  0  2  0  0  0  0  0  0  0  0  0
   -0.9290   13.0980   -1.3220 C   0  0  0  0  0  0  0  0  0  0  0  0
   -1.9421   14.7130    1.5204 H   0  0  0  0  0  0  0  0  0  0  0  0
   -2.5275   15.4207   -0.0233 H   0  0  0  0  0  0  0  0  0  0  0  0
   -1.6974   13.8278   -0.0233 H   0  0  0  0  0  0  0  0  0  0  0  0
   -0.1670   16.0735    1.1844 H   0  0  0  0  0  0  0  0  0  0  0  0
    0.2784   16.2232   -1.6739 H   0  0  0  0  0  0  0  0  0  0  0  0
   -1.4611   16.5967   -1.2502 H   0  0  0  0  0  0  0  0  0  0  0  0
   -0.1832   18.6523   -1.3132 H   0  0  0  0  0  0  0  0  0  0  0  0
   -0.6727   18.2567    0.3870 H   0  0  0  0  0  0  0  0  0  0  0  0
    1.1828   17.4098    0.8509 H   0  0  0  0  0  0  0  0  0  0  0  0
    1.2890   17.9276   -2.6854 H   0  0  0  0  0  0  0  0  0  0  0  0
    2.7003   19.0174   -2.9024 H   0  0  0  0  0  0  0  0  0  0  0  0
    2.9326   17.2362   -2.9024 H   0  0  0  0  0  0  0  0  0  0  0  0
    3.9194   17.6746    0.6080 H   0  0  0  0  0  0  0  0  0  0  0  0
    4.1432   16.6651   -0.8608 H   0  0  0  0  0  0  0  0  0  0  0  0
    4.6745   18.3810   -0.8608 H   0  0  0  0  0  0  0  0  0  0  0  0
    1.5687   15.1649   -0.1208 H   0  0  0  0  0  0  0  0  0  0  0  0
    1.6217   13.7719    1.8534 H   0  0  0  0  0  0  0  0  0  0  0  0
   -0.1046   13.3756    1.7141 H   0  0  0  0  0  0  0  0  0  0  0  0
    2.0584   11.6407    1.0245 H   0  0  0  0  0  0  0  0  0  0  0  0
    0.3879   11.3805    0.5296 H   0  0  0  0  0  0  0  0  0  0  0  0
    3.3661   13.0718    0.2104 H   0  0  0  0  0  0  0  0  0  0  0  0
    3.7559   12.2560   -1.3417 H   0  0  0  0  0  0  0  0  0  0  0  0
    3.1744   13.9555   -1.3417 H   0  0  0  0  0  0  0  0  0  0  0  0
    0.4312   10.9976   -1.8622 H   0  0  0  0  0  0  0  0  0  0  0  0
    2.4956    9.9896   -0.6952 H   0  0  0  0  0  0  0  0  0  0  0  0
    1.8201    9.2523   -2.2406 H   0  0  0  0  0  0  0  0  0  0  0  0
    4.4446    9.4163   -2.0775 H   0  0  0  0  0  0  0  0  0  0  0  0
    3.3444   12.9775   -3.6286 H   0  0  0  0  0  0  0  0  0  0  0  0
    2.8719   10.9693   -5.9163 H   0  0  0  0  0  0  0  0  0  0  0  0
    2.5633   12.7622   -5.9543 H   0  0  0  0  0  0  0  0  0  0  0  0
    4.6553   12.1464   -7.1248 H   0  0  0  0  0  0  0  0  0  0  0  0
    4.9350   13.2075   -5.6890 H   0  0  0  0  0  0  0  0  0  0  0  0
    6.6041   11.4835   -5.7096 H   0  0  0  0  0  0  0  0  0  0  0  0
    5.0710    9.2940   -5.2490 H   0  0  0  0  0  0  0  0  0  0  0  0
    6.1317   12.3328   -2.1928 H   0  0  0  0  0  0  0  0  0  0  0  0
    7.2022   12.4808   -3.6276 H   0  0  0  0  0  0  0  0  0  0  0  0
    5.5866   13.2659   -3.6276 H   0  0  0  0  0  0  0  0  0  0  0  0
    6.4714    9.8909   -2.3371 H   0  0  0  0  0  0  0  0  0  0  0  0
    6.0374    8.9830   -3.8250 H   0  0  0  0  0  0  0  0  0  0  0  0
    7.4598   10.0800   -3.8250 H   0  0  0  0  0  0  0  0  0  0  0  0
    0.3138   10.0532   -3.7342 H   0  0  0  0  0  0  0  0  0  0  0  0
    0.0774   11.2808   -5.0239 H   0  0  0  0  0  0  0  0  0  0  0  0
    1.5485   10.2501   -5.0239 H   0  0  0  0  0  0  0  0  0  0  0  0
    1.2310   13.6662   -4.6465 H   0  0  0  0  0  0  0  0  0  0  0  0
   -0.2532   12.9354   -3.8113 H   0  0  0  0  0  0  0  0  0  0  0  0
    1.9173   14.6424   -2.5616 H   0  0  0  0  0  0  0  0  0  0  0  0
    0.1709   15.0384   -2.8048 H   0  0  0  0  0  0  0  0  0  0  0  0
   -1.3184   12.9676   -0.3015 H   0  0  0  0  0  0  0  0  0  0  0  0
   -1.5406   13.8404   -1.8558 H   0  0  0  0  0  0  0  0  0  0  0  0
   -0.9701   12.1371   -1.8558 H   0  0  0  0  0  0  0  0  0  0  0  0
  1  2  1  0
  2  3  1  0
  3  4  1  0
  4  5  1  0
  5  6  1  0
  6  7  1  0
  7  8  1  0
  7  9  1  0
  2 10  1  0
 10 11  1  0
 11 12  1  0
 12 13  1  0
 13 14  1  1
 13 15  1  0
 15 16  1  0
 16 17  1  0
 17 18  2  0
 18 19  1  0
 19 20  1  0
 20 21  1  0
 21 22  1  0
 22 23  1  0
 22 24  1  0
 24 25  1  0
 24 26  1  0
 19 27  1  0
 27 28  1  6
 27 29  1  0
 29 30  1  0
 30 31  1  0
 31 32  1  6
  7  5  1  0
 31 10  1  0
 31 13  1  0
 27 15  1  0
 24 18  1  0
  1 33  1  0
  1 34  1  0
  1 35  1  0
  2 36  1  1
  3 37  1  0
  3 38  1  0
  4 39  1  0
  4 40  1  0
  5 41  1  1
  8 42  1  0
  8 43  1  0
  8 44  1  0
  9 45  1  0
  9 46  1  0
  9 47  1  0
 10 48  1  6
 11 49  1  0
 11 50  1  0
 12 51  1  0
 12 52  1  0
 14 53  1  0
 14 54  1  0
 14 55  1  0
 15 56  1  6
 16 57  1  0
 16 58  1  0
 17 59  1  0
 19 60  1  1
 20 61  1  0
 20 62  1  0
 21 63  1  0
 21 64  1  0
 22 65  1  1
 23 66  1  0
 25 67  1  0
 25 68  1  0
 25 69  1  0
 26 70  1  0
 26 71  1  0
 26 72  1  0
 28 73  1  0
 28 74  1  0
 28 75  1  0
 29 76  1  0
 29 77  1  0
 30 78  1  0
 30 79  1  0
 32 80  1  0
 32 81  1  0
 32 82  1  0
M  END
>  <meeko>  (16) 
{"is_sidechain": [false], "intermolecular_energy": 2.731, "internal_energy": -0.839}

$$$$
EPH_relaxed_0001_pdb2pqr_Repair_18_r2_0001_out
     RDKit          3D

 82 86  0  0  0  0  0  0  0  0999 V2000
   -4.0980    7.2860   -3.6610 C   0  0  0  0  0  0  0  0  0  0  0  0
   -3.7640    7.2910   -2.1670 C   0  0  2  0  0  0  0  0  0  0  0  0
   -4.9800    6.9110   -1.2980 C   0  0  0  0  0  0  0  0  0  0  0  0
   -6.2160    6.5160   -2.1100 C   0  0  0  0  0  0  0  0  0  0  0  0
   -7.4080    6.2920   -1.2290 C   0  0  2  0  0  0  0  0  0  0  0  0
   -8.4920    5.5920   -1.8550 O   0  0  0  0  0  0  0  0  0  0  0  0
   -8.7560    6.9480   -1.4630 C   0  0  0  0  0  0  0  0  0  0  0  0
   -8.9810    7.8810   -2.6120 C   0  0  0  0  0  0  0  0  0  0  0  0
   -9.7030    7.0690   -0.3100 C   0  0  0  0  0  0  0  0  0  0  0  0
   -3.2390    8.6620   -1.7570 C   0  0  1  0  0  0  0  0  0  0  0  0
   -3.9880    9.2470   -0.5310 C   0  0  0  0  0  0  0  0  0  0  0  0
   -2.9440   10.0430    0.2940 C   0  0  0  0  0  0  0  0  0  0  0  0
   -1.7210   10.1710   -0.6450 C   0  0  1  0  0  0  0  0  0  0  0  0
   -2.0660   11.3610   -1.5940 C   0  0  0  0  0  0  0  0  0  0  0  0
   -0.3350   10.3700    0.0500 C   0  0  2  0  0  0  0  0  0  0  0  0
   -0.1990   11.6600    0.8770 C   0  0  0  0  0  0  0  0  0  0  0  0
    0.3210   12.8440    0.1310 C   0  0  0  0  0  0  0  0  0  0  0  0
    0.9310   12.8060   -1.0680 C   0  0  0  0  0  0  0  0  0  0  0  0
    1.2390   11.4690   -1.7540 C   0  0  1  0  0  0  0  0  0  0  0  0
    2.6980   11.4810   -2.2810 C   0  0  0  0  0  0  0  0  0  0  0  0
    2.9840   12.6790   -3.1830 C   0  0  0  0  0  0  0  0  0  0  0  0
    2.7210   13.9900   -2.4470 C   0  0  2  0  0  0  0  0  0  0  0  0
    3.6800   14.1280   -1.3930 O   0  0  0  0  0  0  0  0  0  0  0  0
    1.2840   14.0880   -1.8620 C   0  0  0  0  0  0  0  0  0  0  0  0
    0.2630   14.2430   -3.0160 C   0  0  0  0  0  0  0  0  0  0  0  0
    1.1970   15.3940   -1.0270 C   0  0  0  0  0  0  0  0  0  0  0  0
    0.9060   10.1640   -0.9090 C   0  0  1  0  0  0  0  0  0  0  0  0
    2.1170    9.7970    0.0020 C   0  0  0  0  0  0  0  0  0  0  0  0
    0.7080    8.9510   -1.8930 C   0  0  0  0  0  0  0  0  0  0  0  0
   -0.7110    8.7360   -2.4530 C   0  0  0  0  0  0  0  0  0  0  0  0
   -1.7530    8.7560   -1.3300 C   0  0  2  0  0  0  0  0  0  0  0  0
   -1.4450    7.5560   -0.3710 C   0  0  0  0  0  0  0  0  0  0  0  0
   -5.1900    7.2697   -3.7925 H   0  0  0  0  0  0  0  0  0  0  0  0
   -3.6854    8.1904   -4.1320 H   0  0  0  0  0  0  0  0  0  0  0  0
   -3.6586    6.3943   -4.1320 H   0  0  0  0  0  0  0  0  0  0  0  0
   -2.9880    6.5297   -1.9990 H   0  0  0  0  0  0  0  0  0  0  0  0
   -4.6982    6.0614   -0.6586 H   0  0  0  0  0  0  0  0  0  0  0  0
   -5.2500    7.8034   -0.7144 H   0  0  0  0  0  0  0  0  0  0  0  0
   -6.4461    7.3207   -2.8238 H   0  0  0  0  0  0  0  0  0  0  0  0
   -5.9955    5.5751   -2.6355 H   0  0  0  0  0  0  0  0  0  0  0  0
   -6.7663    6.2212   -0.3384 H   0  0  0  0  0  0  0  0  0  0  0  0
   -9.2227    8.8833   -2.2286 H   0  0  0  0  0  0  0  0  0  0  0  0
   -8.0697    7.9332   -3.2258 H   0  0  0  0  0  0  0  0  0  0  0  0
   -9.8159    7.5121   -3.2258 H   0  0  0  0  0  0  0  0  0  0  0  0
   -9.1426    6.9974    0.6338 H   0  0  0  0  0  0  0  0  0  0  0  0
  -10.2173    8.0402   -0.3583 H   0  0  0  0  0  0  0  0  0  0  0  0
  -10.4450    6.2584   -0.3583 H   0  0  0  0  0  0  0  0  0  0  0  0
   -3.3951    9.2077   -2.6992 H   0  0  0  0  0  0  0  0  0  0  0  0
   -4.7962    9.9147   -0.8642 H   0  0  0  0  0  0  0  0  0  0  0  0
   -4.4415    8.4472    0.0729 H   0  0  0  0  0  0  0  0  0  0  0  0
   -3.3348   11.0361    0.5604 H   0  0  0  0  0  0  0  0  0  0  0  0
   -2.6924    9.5441    1.2415 H   0  0  0  0  0  0  0  0  0  0  0  0
   -2.3226   12.2463   -0.9936 H   0  0  0  0  0  0  0  0  0  0  0  0
   -1.1966   11.5878   -2.2286 H   0  0  0  0  0  0  0  0  0  0  0  0
   -2.9219   11.0877   -2.2286 H   0  0  0  0  0  0  0  0  0  0  0  0
   -0.3156    9.5457    0.7781 H   0  0  0  0  0  0  0  0  0  0  0  0
   -1.1930   11.9169    1.2720 H   0  0  0  0  0  0  0  0  0  0  0  0
    0.5434   11.4431    1.6592 H   0  0  0  0  0  0  0  0  0  0  0  0
    0.1949   13.8305    0.6009 H   0  0  0  0  0  0  0  0  0  0  0  0
    0.5383   11.3916   -2.5984 H   0  0  0  0  0  0  0  0  0  0  0  0
    3.3833   11.5152   -1.4213 H   0  0  0  0  0  0  0  0  0  0  0  0
    2.8448   10.5696   -2.8792 H   0  0  0  0  0  0  0  0  0  0  0  0
    4.0371   12.6485   -3.4992 H   0  0  0  0  0  0  0  0  0  0  0  0
    2.3187   12.6273   -4.0575 H   0  0  0  0  0  0  0  0  0  0  0  0
    2.8166   14.8041   -3.1805 H   0  0  0  0  0  0  0  0  0  0  0  0
    3.2610   13.8180   -0.5720 H   0  0  0  0  0  0  0  0  0  0  0  0
   -0.7428   14.3957   -2.5976 H   0  0  0  0  0  0  0  0  0  0  0  0
    0.5381   15.1097   -3.6350 H   0  0  0  0  0  0  0  0  0  0  0  0
    0.2685   13.3337   -3.6350 H   0  0  0  0  0  0  0  0  0  0  0  0
    1.2135   15.1459    0.0445 H   0  0  0  0  0  0  0  0  0  0  0  0
    2.0541   16.0404   -1.2670 H   0  0  0  0  0  0  0  0  0  0  0  0
    0.2618   15.9210   -1.2670 H   0  0  0  0  0  0  0  0  0  0  0  0
    1.8219    9.8864    1.0579 H   0  0  0  0  0  0  0  0  0  0  0  0
    2.4312    8.7633   -0.2046 H   0  0  0  0  0  0  0  0  0  0  0  0
    2.9522   10.4824   -0.2046 H   0  0  0  0  0  0  0  0  0  0  0  0
    1.3838    9.1019   -2.7477 H   0  0  0  0  0  0  0  0  0  0  0  0
    0.9192    8.0546   -1.2914 H   0  0  0  0  0  0  0  0  0  0  0  0
   -0.9399    9.5377   -3.1705 H   0  0  0  0  0  0  0  0  0  0  0  0
   -0.7476    7.7542   -2.9478 H   0  0  0  0  0  0  0  0  0  0  0  0
   -1.5307    7.8900    0.6735 H   0  0  0  0  0  0  0  0  0  0  0  0
   -2.1640    6.7444   -0.5566 H   0  0  0  0  0  0  0  0  0  0  0  0
   -0.4241    7.1910   -0.5566 H   0  0  0  0  0  0  0  0  0  0  0  0
  1  2  1  0
  2  3  1  0
  3  4  1  0
  4  5  1  0
  5  6  1  0
  6  7  1  0
  7  8  1  0
  7  9  1  0
  2 10  1  0
 10 11  1  0
 11 12  1  0
 12 13  1  0
 13 14  1  6
 13 15  1  0
 15 16  1  0
 16 17  1  0
 17 18  2  0
 18 19  1  0
 19 20  1  0
 20 21  1  0
 21 22  1  0
 22 23  1  0
 22 24  1  0
 24 25  1  0
 24 26  1  0
 19 27  1  0
 27 28  1  1
 27 29  1  0
 29 30  1  0
 30 31  1  0
 31 32  1  1
  7  5  1  0
 31 10  1  0
 31 13  1  0
 27 15  1  0
 24 18  1  0
  1 33  1  0
  1 34  1  0
  1 35  1  0
  2 36  1  6
  3 37  1  0
  3 38  1  0
  4 39  1  0
  4 40  1  0
  5 41  1  1
  8 42  1  0
  8 43  1  0
  8 44  1  0
  9 45  1  0
  9 46  1  0
  9 47  1  0
 10 48  1  6
 11 49  1  0
 11 50  1  0
 12 51  1  0
 12 52  1  0
 14 53  1  0
 14 54  1  0
 14 55  1  0
 15 56  1  1
 16 57  1  0
 16 58  1  0
 17 59  1  0
 19 60  1  6
 20 61  1  0
 20 62  1  0
 21 63  1  0
 21 64  1  0
 22 65  1  6
 23 66  1  0
 25 67  1  0
 25 68  1  0
 25 69  1  0
 26 70  1  0
 26 71  1  0
 26 72  1  0
 28 73  1  0
 28 74  1  0
 28 75  1  0
 29 76  1  0
 29 77  1  0
 30 78  1  0
 30 79  1  0
 32 80  1  0
 32 81  1  0
 32 82  1  0
M  END
>  <meeko>  (17) 
{"is_sidechain": [false], "intermolecular_energy": 2.731, "internal_energy": -0.839}

$$$$
EPH_relaxed_0001_pdb2pqr_Repair_18_r2_0001_out
     RDKit          3D

 82 86  0  0  0  0  0  0  0  0999 V2000
    2.6120   16.1890   -7.3420 C   0  0  0  0  0  0  0  0  0  0  0  0
    1.4440   15.2080   -7.2050 C   0  0  2  0  0  0  0  0  0  0  0  0
    0.2120   15.6560   -8.0170 C   0  0  0  0  0  0  0  0  0  0  0  0
    0.5630   16.3680   -9.3260 C   0  0  0  0  0  0  0  0  0  0  0  0
    1.9500   16.0330   -9.7850 C   0  0  2  0  0  0  0  0  0  0  0  0
    2.3100   16.5870  -11.0570 O   0  0  0  0  0  0  0  0  0  0  0  0
    2.2440   15.1530  -10.9860 C   0  0  0  0  0  0  0  0  0  0  0  0
    1.1430   14.5530  -11.8020 C   0  0  0  0  0  0  0  0  0  0  0  0
    3.5800   14.4830  -11.0720 C   0  0  0  0  0  0  0  0  0  0  0  0
    1.0700   15.0470   -5.7370 C   0  0  1  0  0  0  0  0  0  0  0  0
   -0.2270   15.8130   -5.3630 C   0  0  0  0  0  0  0  0  0  0  0  0
   -0.9600   14.9590   -4.2970 C   0  0  0  0  0  0  0  0  0  0  0  0
    0.0860   13.9100   -3.8510 C   0  0  1  0  0  0  0  0  0  0  0  0
    0.9860   14.6560   -2.8170 C   0  0  0  0  0  0  0  0  0  0  0  0
   -0.4790   12.5750   -3.2670 C   0  0  2  0  0  0  0  0  0  0  0  0
   -1.3040   12.7250   -1.9760 C   0  0  0  0  0  0  0  0  0  0  0  0
   -0.5260   12.6240   -0.7070 C   0  0  0  0  0  0  0  0  0  0  0  0
    0.7250   12.1410   -0.5920 C   0  0  0  0  0  0  0  0  0  0  0  0
    1.4510   11.5390   -1.8030 C   0  0  1  0  0  0  0  0  0  0  0  0
    2.1110   10.1960   -1.3960 C   0  0  0  0  0  0  0  0  0  0  0  0
    3.0220   10.3360   -0.1800 C   0  0  0  0  0  0  0  0  0  0  0  0
    2.2510   10.8820    1.0190 C   0  0  2  0  0  0  0  0  0  0  0  0
    1.2890    9.9060    1.4320 O   0  0  0  0  0  0  0  0  0  0  0  0
    1.5340   12.2300    0.7250 C   0  0  0  0  0  0  0  0  0  0  0  0
    2.5860   13.3560    0.5740 C   0  0  0  0  0  0  0  0  0  0  0  0
    0.6800   12.5970    1.9680 C   0  0  0  0  0  0  0  0  0  0  0  0
    0.5930   11.4190   -3.1360 C   0  0  1  0  0  0  0  0  0  0  0  0
   -0.1970   10.0750   -3.1400 C   0  0  0  0  0  0  0  0  0  0  0  0
    1.5680   11.3640   -4.3710 C   0  0  0  0  0  0  0  0  0  0  0  0
    1.9960   12.7140   -4.9780 C   0  0  0  0  0  0  0  0  0  0  0  0
    0.7810   13.6120   -5.2300 C   0  0  2  0  0  0  0  0  0  0  0  0
   -0.1320   12.8970   -6.2830 C   0  0  0  0  0  0  0  0  0  0  0  0
    2.9627   16.4835   -6.3419 H   0  0  0  0  0  0  0  0  0  0  0  0
    3.4338   15.7063   -7.8913 H   0  0  0  0  0  0  0  0  0  0  0  0
    2.2785   17.0818   -7.8913 H   0  0  0  0  0  0  0  0  0  0  0  0
    1.7741   14.2410   -7.6122 H   0  0  0  0  0  0  0  0  0  0  0  0
   -0.3887   14.7660   -8.2561 H   0  0  0  0  0  0  0  0  0  0  0  0
   -0.3371   16.3786   -7.3954 H   0  0  0  0  0  0  0  0  0  0  0  0
   -0.1533   16.0605  -10.1021 H   0  0  0  0  0  0  0  0  0  0  0  0
    0.5127   17.4527   -9.1504 H   0  0  0  0  0  0  0  0  0  0  0  0
    2.3134   16.0102   -8.7470 H   0  0  0  0  0  0  0  0  0  0  0  0
    0.3764   14.1353  -11.1328 H   0  0  0  0  0  0  0  0  0  0  0  0
    0.6917   15.3299  -12.4366 H   0  0  0  0  0  0  0  0  0  0  0  0
    1.5513   13.7526  -12.4366 H   0  0  0  0  0  0  0  0  0  0  0  0
    3.9605   14.2922  -10.0577 H   0  0  0  0  0  0  0  0  0  0  0  0
    3.4780   13.5294  -11.6108 H   0  0  0  0  0  0  0  0  0  0  0  0
    4.2832   15.1351  -11.6108 H   0  0  0  0  0  0  0  0  0  0  0  0
    1.9878   15.4335   -5.2698 H   0  0  0  0  0  0  0  0  0  0  0  0
    0.0227   16.8015   -4.9500 H   0  0  0  0  0  0  0  0  0  0  0  0
   -0.8617   15.9699   -6.2476 H   0  0  0  0  0  0  0  0  0  0  0  0
   -1.2713   15.5831   -3.4463 H   0  0  0  0  0  0  0  0  0  0  0  0
   -1.8751   14.4938   -4.6922 H   0  0  0  0  0  0  0  0  0  0  0  0
    0.6684   14.3928   -1.7973 H   0  0  0  0  0  0  0  0  0  0  0  0
    2.0351   14.3590   -2.9625 H   0  0  0  0  0  0  0  0  0  0  0  0
    0.8888   15.7420   -2.9625 H   0  0  0  0  0  0  0  0  0  0  0  0
   -1.1924   12.2618   -4.0435 H   0  0  0  0  0  0  0  0  0  0  0  0
   -1.7927   13.7102   -1.9975 H   0  0  0  0  0  0  0  0  0  0  0  0
   -2.0111   11.8824   -1.9672 H   0  0  0  0  0  0  0  0  0  0  0  0
   -1.0167   12.9741    0.2131 H   0  0  0  0  0  0  0  0  0  0  0  0
    2.2275   12.2655   -2.0846 H   0  0  0  0  0  0  0  0  0  0  0  0
    1.3182    9.4706   -1.1609 H   0  0  0  0  0  0  0  0  0  0  0  0
    2.7307    9.8594   -2.2402 H   0  0  0  0  0  0  0  0  0  0  0  0
    3.4345    9.3490    0.0763 H   0  0  0  0  0  0  0  0  0  0  0  0
    3.8315   11.0388   -0.4267 H   0  0  0  0  0  0  0  0  0  0  0  0
    2.9814   11.0827    1.8166 H   0  0  0  0  0  0  0  0  0  0  0  0
    0.4640   10.3760    1.6410 H   0  0  0  0  0  0  0  0  0  0  0  0
    2.9042   13.6966    1.5704 H   0  0  0  0  0  0  0  0  0  0  0  0
    3.4569   12.9725    0.0222 H   0  0  0  0  0  0  0  0  0  0  0  0
    2.1443   14.1989    0.0222 H   0  0  0  0  0  0  0  0  0  0  0  0
    1.2413   12.3558    2.8827 H   0  0  0  0  0  0  0  0  0  0  0  0
    0.4513   13.6728    1.9511 H   0  0  0  0  0  0  0  0  0  0  0  0
   -0.2579   12.0225    1.9511 H   0  0  0  0  0  0  0  0  0  0  0  0
   -0.3842    9.7566   -2.1039 H   0  0  0  0  0  0  0  0  0  0  0  0
   -1.1564   10.2152   -3.6595 H   0  0  0  0  0  0  0  0  0  0  0  0
    0.3922    9.3049   -3.6595 H   0  0  0  0  0  0  0  0  0  0  0  0
    2.4801   10.8383   -4.0520 H   0  0  0  0  0  0  0  0  0  0  0  0
    0.9989   10.8585   -5.1651 H   0  0  0  0  0  0  0  0  0  0  0  0
    2.6798   13.2210   -4.2814 H   0  0  0  0  0  0  0  0  0  0  0  0
    2.4965   12.5235   -5.9389 H   0  0  0  0  0  0  0  0  0  0  0  0
   -0.8946   12.2998   -5.7617 H   0  0  0  0  0  0  0  0  0  0  0  0
   -0.6250   13.6517   -6.9134 H   0  0  0  0  0  0  0  0  0  0  0  0
    0.4825   12.2374   -6.9134 H   0  0  0  0  0  0  0  0  0  0  0  0
  1  2  1  0
  2  3  1  0
  3  4  1  0
  4  5  1  0
  5  6  1  0
  6  7  1  0
  7  8  1  0
  7  9  1  0
  2 10  1  0
 10 11  1  0
 11 12  1  0
 12 13  1  0
 13 14  1  1
 13 15  1  0
 15 16  1  0
 16 17  1  0
 17 18  2  0
 18 19  1  0
 19 20  1  0
 20 21  1  0
 21 22  1  0
 22 23  1  0
 22 24  1  0
 24 25  1  0
 24 26  1  0
 19 27  1  0
 27 28  1  1
 27 29  1  0
 29 30  1  0
 30 31  1  0
 31 32  1  6
  7  5  1  0
 31 10  1  0
 31 13  1  0
 27 15  1  0
 24 18  1  0
  1 33  1  0
  1 34  1  0
  1 35  1  0
  2 36  1  6
  3 37  1  0
  3 38  1  0
  4 39  1  0
  4 40  1  0
  5 41  1  1
  8 42  1  0
  8 43  1  0
  8 44  1  0
  9 45  1  0
  9 46  1  0
  9 47  1  0
 10 48  1  1
 11 49  1  0
 11 50  1  0
 12 51  1  0
 12 52  1  0
 14 53  1  0
 14 54  1  0
 14 55  1  0
 15 56  1  6
 16 57  1  0
 16 58  1  0
 17 59  1  0
 19 60  1  6
 20 61  1  0
 20 62  1  0
 21 63  1  0
 21 64  1  0
 22 65  1  1
 23 66  1  0
 25 67  1  0
 25 68  1  0
 25 69  1  0
 26 70  1  0
 26 71  1  0
 26 72  1  0
 28 73  1  0
 28 74  1  0
 28 75  1  0
 29 76  1  0
 29 77  1  0
 30 78  1  0
 30 79  1  0
 32 80  1  0
 32 81  1  0
 32 82  1  0
M  END
>  <meeko>  (18) 
{"is_sidechain": [false], "intermolecular_energy": 2.731, "internal_energy": -0.839}

$$$$
