EPH_relaxed_0001_pdb2pqr_Repair_317_r2_0001_out
     RDKit          3D

 82 86  0  0  0  0  0  0  0  0999 V2000
   -0.8860    8.8000   -1.9740 C   0  0  0  0  0  0  0  0  0  0  0  0
   -1.3230    9.2120   -0.5650 C   0  0  2  0  0  0  0  0  0  0  0  0
   -2.8550    9.3440   -0.4480 C   0  0  0  0  0  0  0  0  0  0  0  0
   -3.6260    8.2940   -1.2520 C   0  0  0  0  0  0  0  0  0  0  0  0
   -5.0540    8.1940   -0.8050 C   0  0  2  0  0  0  0  0  0  0  0  0
   -5.4730    6.8750   -0.4330 O   0  0  0  0  0  0  0  0  0  0  0  0
   -6.1220    7.4460   -1.5810 C   0  0  0  0  0  0  0  0  0  0  0  0
   -5.8080    6.7490   -2.8680 C   0  0  0  0  0  0  0  0  0  0  0  0
   -7.5570    7.8020   -1.3470 C   0  0  0  0  0  0  0  0  0  0  0  0
   -0.6550   10.5260   -0.1770 C   0  0  1  0  0  0  0  0  0  0  0  0
    0.3130   10.3710    1.0270 C   0  0  0  0  0  0  0  0  0  0  0  0
    1.4900   11.3510    0.7830 C   0  0  0  0  0  0  0  0  0  0  0  0
    1.0040   12.2650   -0.3660 C   0  0  1  0  0  0  0  0  0  0  0  0
    0.0960   13.3300    0.3250 C   0  0  0  0  0  0  0  0  0  0  0  0
    2.1190   12.9340   -1.2350 C   0  0  2  0  0  0  0  0  0  0  0  0
    3.0500   13.8950   -0.4750 C   0  0  0  0  0  0  0  0  0  0  0  0
    2.6090   15.3210   -0.4470 C   0  0  0  0  0  0  0  0  0  0  0  0
    1.6680   15.8640   -1.2420 C   0  0  0  0  0  0  0  0  0  0  0  0
    1.0080   15.0430   -2.3570 C   0  0  1  0  0  0  0  0  0  0  0  0
    0.9770   15.8770   -3.6650 C   0  0  0  0  0  0  0  0  0  0  0  0
    0.3160   17.2390   -3.4740 C   0  0  0  0  0  0  0  0  0  0  0  0
    1.0350   18.0480   -2.3980 C   0  0  2  0  0  0  0  0  0  0  0  0
    2.3470   18.3750   -2.8670 O   0  0  0  0  0  0  0  0  0  0  0  0
    1.1370   17.3050   -1.0370 C   0  0  0  0  0  0  0  0  0  0  0  0
   -0.2650   17.2180   -0.3850 C   0  0  0  0  0  0  0  0  0  0  0  0
    2.0060   18.1700   -0.0850 C   0  0  0  0  0  0  0  0  0  0  0  0
    1.5920   13.5820   -2.5790 C   0  0  1  0  0  0  0  0  0  0  0  0
    2.8080   13.6370   -3.5540 C   0  0  0  0  0  0  0  0  0  0  0  0
    0.4990   12.6930   -3.2830 C   0  0  0  0  0  0  0  0  0  0  0  0
   -0.5000   11.9630   -2.3650 C   0  0  0  0  0  0  0  0  0  0  0  0
    0.2300   11.2160   -1.2450 C   0  0  2  0  0  0  0  0  0  0  0  0
    1.1350   10.1230   -1.9090 C   0  0  0  0  0  0  0  0  0  0  0  0
   -0.0872    8.0469   -1.9046 H   0  0  0  0  0  0  0  0  0  0  0  0
   -1.7446    8.3751   -2.5146 H   0  0  0  0  0  0  0  0  0  0  0  0
   -0.5124    9.6821   -2.5146 H   0  0  0  0  0  0  0  0  0  0  0  0
   -1.0067    8.4166    0.1259 H   0  0  0  0  0  0  0  0  0  0  0  0
   -3.1324    9.2427    0.6116 H   0  0  0  0  0  0  0  0  0  0  0  0
   -3.1255   10.3272   -0.8604 H   0  0  0  0  0  0  0  0  0  0  0  0
   -3.6038    8.5723   -2.3160 H   0  0  0  0  0  0  0  0  0  0  0  0
   -3.1463    7.3173   -1.0908 H   0  0  0  0  0  0  0  0  0  0  0  0
   -5.0207    9.2119   -0.3893 H   0  0  0  0  0  0  0  0  0  0  0  0
   -5.3648    5.7653   -2.6536 H   0  0  0  0  0  0  0  0  0  0  0  0
   -6.7331    6.6158   -3.4481 H   0  0  0  0  0  0  0  0  0  0  0  0
   -5.0953    7.3537   -3.4481 H   0  0  0  0  0  0  0  0  0  0  0  0
   -7.7511    7.8502   -0.2653 H   0  0  0  0  0  0  0  0  0  0  0  0
   -7.7709    8.7804   -1.8019 H   0  0  0  0  0  0  0  0  0  0  0  0
   -8.2034    7.0370   -1.8019 H   0  0  0  0  0  0  0  0  0  0  0  0
   -1.5485   11.1360    0.0220 H   0  0  0  0  0  0  0  0  0  0  0  0
   -0.2039   10.6255    1.9640 H   0  0  0  0  0  0  0  0  0  0  0  0
    0.6728    9.3351    1.1141 H   0  0  0  0  0  0  0  0  0  0  0  0
    1.6978   11.9414    1.6876 H   0  0  0  0  0  0  0  0  0  0  0  0
    2.4243   10.8271    0.5329 H   0  0  0  0  0  0  0  0  0  0  0  0
    0.1806   13.2308    1.4172 H   0  0  0  0  0  0  0  0  0  0  0  0
    0.4172   14.3376    0.0224 H   0  0  0  0  0  0  0  0  0  0  0  0
   -0.9497   13.1722    0.0224 H   0  0  0  0  0  0  0  0  0  0  0  0
    2.7441   12.0745   -1.5188 H   0  0  0  0  0  0  0  0  0  0  0  0
    3.1273   13.5426    0.5642 H   0  0  0  0  0  0  0  0  0  0  0  0
    4.0074   13.8831   -1.0165 H   0  0  0  0  0  0  0  0  0  0  0  0
    3.0938   15.9839    0.2849 H   0  0  0  0  0  0  0  0  0  0  0  0
   -0.0191   14.8406   -2.0192 H   0  0  0  0  0  0  0  0  0  0  0  0
    2.0102   16.0315   -4.0094 H   0  0  0  0  0  0  0  0  0  0  0  0
    0.3837   15.3182   -4.4037 H   0  0  0  0  0  0  0  0  0  0  0  0
    0.3508   17.7924   -4.4240 H   0  0  0  0  0  0  0  0  0  0  0  0
   -0.7260   17.0824   -3.1581 H   0  0  0  0  0  0  0  0  0  0  0  0
    0.4402   18.9551   -2.2155 H   0  0  0  0  0  0  0  0  0  0  0  0
    2.9440   17.6600   -2.5930 H   0  0  0  0  0  0  0  0  0  0  0  0
   -0.1612   17.2244    0.7101 H   0  0  0  0  0  0  0  0  0  0  0  0
   -0.8705   18.0803   -0.7010 H   0  0  0  0  0  0  0  0  0  0  0  0
   -0.7592   16.2875   -0.7010 H   0  0  0  0  0  0  0  0  0  0  0  0
    1.7605   17.9256    0.9590 H   0  0  0  0  0  0  0  0  0  0  0  0
    3.0703   17.9621   -0.2697 H   0  0  0  0  0  0  0  0  0  0  0  0
    1.8030   19.2352   -0.2697 H   0  0  0  0  0  0  0  0  0  0  0  0
    3.7416   13.6792   -2.9738 H   0  0  0  0  0  0  0  0  0  0  0  0
    2.8106   12.7381   -4.1879 H   0  0  0  0  0  0  0  0  0  0  0  0
    2.7295   14.5325   -4.1879 H   0  0  0  0  0  0  0  0  0  0  0  0
   -0.0802   13.3459   -3.9525 H   0  0  0  0  0  0  0  0  0  0  0  0
    1.0605   11.8944   -3.7898 H   0  0  0  0  0  0  0  0  0  0  0  0
   -1.1842   12.7001   -1.9195 H   0  0  0  0  0  0  0  0  0  0  0  0
   -1.0602   11.2323   -2.9669 H   0  0  0  0  0  0  0  0  0  0  0  0
    1.6271    9.5287   -1.1251 H   0  0  0  0  0  0  0  0  0  0  0  0
    0.5149    9.4637   -2.5341 H   0  0  0  0  0  0  0  0  0  0  0  0
    1.8984   10.6093   -2.5341 H   0  0  0  0  0  0  0  0  0  0  0  0
  1  2  1  0
  2  3  1  0
  3  4  1  0
  4  5  1  0
  5  6  1  0
  6  7  1  0
  7  8  1  0
  7  9  1  0
  2 10  1  0
 10 11  1  0
 11 12  1  0
 12 13  1  0
 13 14  1  1
 13 15  1  0
 15 16  1  0
 16 17  1  0
 17 18  2  0
 18 19  1  0
 19 20  1  0
 20 21  1  0
 21 22  1  0
 22 23  1  0
 22 24  1  0
 24 25  1  0
 24 26  1  0
 19 27  1  0
 27 28  1  6
 27 29  1  0
 29 30  1  0
 30 31  1  0
 31 32  1  6
  7  5  1  0
 31 10  1  0
 31 13  1  0
 27 15  1  0
 24 18  1  0
  1 33  1  0
  1 34  1  0
  1 35  1  0
  2 36  1  1
  3 37  1  0
  3 38  1  0
  4 39  1  0
  4 40  1  0
  5 41  1  1
  8 42  1  0
  8 43  1  0
  8 44  1  0
  9 45  1  0
  9 46  1  0
  9 47  1  0
 10 48  1  1
 11 49  1  0
 11 50  1  0
 12 51  1  0
 12 52  1  0
 14 53  1  0
 14 54  1  0
 14 55  1  0
 15 56  1  6
 16 57  1  0
 16 58  1  0
 17 59  1  0
 19 60  1  1
 20 61  1  0
 20 62  1  0
 21 63  1  0
 21 64  1  0
 22 65  1  1
 23 66  1  0
 25 67  1  0
 25 68  1  0
 25 69  1  0
 26 70  1  0
 26 71  1  0
 26 72  1  0
 28 73  1  0
 28 74  1  0
 28 75  1  0
 29 76  1  0
 29 77  1  0
 30 78  1  0
 30 79  1  0
 32 80  1  0
 32 81  1  0
 32 82  1  0
M  END
>  <meeko>  (1) 
{"is_sidechain": [false], "intermolecular_energy": 2.731, "internal_energy": -0.839}

$$$$
EPH_relaxed_0001_pdb2pqr_Repair_317_r2_0001_out
     RDKit          3D

 82 86  0  0  0  0  0  0  0  0999 V2000
    2.5770   17.1660   -0.9210 C   0  0  0  0  0  0  0  0  0  0  0  0
    1.9350   17.2810   -2.3060 C   0  0  2  0  0  0  0  0  0  0  0  0
    0.9780   18.4860   -2.4050 C   0  0  0  0  0  0  0  0  0  0  0  0
    1.1560   19.5080   -1.2790 C   0  0  0  0  0  0  0  0  0  0  0  0
   -0.1570   20.0690   -0.8260 C   0  0  2  0  0  0  0  0  0  0  0  0
   -0.2970   20.1940    0.5950 O   0  0  0  0  0  0  0  0  0  0  0  0
   -1.1860   19.2680   -0.0500 C   0  0  0  0  0  0  0  0  0  0  0  0
   -0.9460   17.8370    0.3180 C   0  0  0  0  0  0  0  0  0  0  0  0
   -2.6130   19.7210   -0.0750 C   0  0  0  0  0  0  0  0  0  0  0  0
    1.1890   15.9950   -2.6410 C   0  0  1  0  0  0  0  0  0  0  0  0
    0.7850   15.9110   -4.1380 C   0  0  0  0  0  0  0  0  0  0  0  0
    0.8900   14.4190   -4.5460 C   0  0  0  0  0  0  0  0  0  0  0  0
    1.0240   13.6560   -3.2070 C   0  0  1  0  0  0  0  0  0  0  0  0
   -0.4350   13.5360   -2.6660 C   0  0  0  0  0  0  0  0  0  0  0  0
    1.7320   12.2640   -3.2730 C   0  0  2  0  0  0  0  0  0  0  0  0
    1.0170   11.2080   -4.1350 C   0  0  0  0  0  0  0  0  0  0  0  0
    0.0280   10.3570   -3.4100 C   0  0  0  0  0  0  0  0  0  0  0  0
   -0.0720   10.2400   -2.0730 C   0  0  0  0  0  0  0  0  0  0  0  0
    0.9330   10.9330   -1.1440 C   0  0  1  0  0  0  0  0  0  0  0  0
    1.4100    9.9330   -0.0580 C   0  0  0  0  0  0  0  0  0  0  0  0
    0.2500    9.3010    0.7050 C   0  0  0  0  0  0  0  0  0  0  0  0
   -0.6960    8.5720   -0.2460 C   0  0  2  0  0  0  0  0  0  0  0  0
   -0.0110    7.4470   -0.8050 O   0  0  0  0  0  0  0  0  0  0  0  0
   -1.2340    9.4780   -1.3890 C   0  0  0  0  0  0  0  0  0  0  0  0
   -2.2220   10.5190   -0.8070 C   0  0  0  0  0  0  0  0  0  0  0  0
   -2.0600    8.5870   -2.3550 C   0  0  0  0  0  0  0  0  0  0  0  0
    2.1410   11.6770   -1.8610 C   0  0  1  0  0  0  0  0  0  0  0  0
    3.3070   10.6740   -2.1170 C   0  0  0  0  0  0  0  0  0  0  0  0
    2.7100   12.7830   -0.8960 C   0  0  0  0  0  0  0  0  0  0  0  0
    2.0470   14.1720   -0.9630 C   0  0  0  0  0  0  0  0  0  0  0  0
    1.9380   14.6580   -2.4110 C   0  0  2  0  0  0  0  0  0  0  0  0
    3.3920   14.8100   -2.9750 C   0  0  0  0  0  0  0  0  0  0  0  0
    1.8072   17.3039   -0.1474 H   0  0  0  0  0  0  0  0  0  0  0  0
    3.0342   16.1717   -0.8102 H   0  0  0  0  0  0  0  0  0  0  0  0
    3.3509   17.9398   -0.8102 H   0  0  0  0  0  0  0  0  0  0  0  0
    2.7444   17.4421   -3.0333 H   0  0  0  0  0  0  0  0  0  0  0  0
    1.1558   18.9926   -3.3650 H   0  0  0  0  0  0  0  0  0  0  0  0
   -0.0453   18.0912   -2.3217 H   0  0  0  0  0  0  0  0  0  0  0  0
    1.6468   19.0165   -0.4260 H   0  0  0  0  0  0  0  0  0  0  0  0
    1.7686   20.3371   -1.6627 H   0  0  0  0  0  0  0  0  0  0  0  0
   -0.2332   20.6855   -1.7338 H   0  0  0  0  0  0  0  0  0  0  0  0
   -0.9294   17.7379    1.4134 H   0  0  0  0  0  0  0  0  0  0  0  0
   -1.7519   17.2122   -0.0945 H   0  0  0  0  0  0  0  0  0  0  0  0
    0.0196   17.5093   -0.0945 H   0  0  0  0  0  0  0  0  0  0  0  0
   -2.9789   19.8372    0.9558 H   0  0  0  0  0  0  0  0  0  0  0  0
   -2.6824   20.6854   -0.5996 H   0  0  0  0  0  0  0  0  0  0  0  0
   -3.2259   18.9733   -0.5996 H   0  0  0  0  0  0  0  0  0  0  0  0
    0.3477   16.0812   -1.9376 H   0  0  0  0  0  0  0  0  0  0  0  0
   -0.2464   16.2690   -4.2728 H   0  0  0  0  0  0  0  0  0  0  0  0
    1.4408   16.5379   -4.7601 H   0  0  0  0  0  0  0  0  0  0  0  0
   -0.0136   14.0997   -5.0860 H   0  0  0  0  0  0  0  0  0  0  0  0
    1.7383   14.2299   -5.2202 H   0  0  0  0  0  0  0  0  0  0  0  0
   -0.4195   13.5373   -1.5661 H   0  0  0  0  0  0  0  0  0  0  0  0
   -1.0305   14.3882   -3.0253 H   0  0  0  0  0  0  0  0  0  0  0  0
   -0.8833   12.5980   -3.0253 H   0  0  0  0  0  0  0  0  0  0  0  0
    2.6663   12.4998   -3.8036 H   0  0  0  0  0  0  0  0  0  0  0  0
    0.4865   11.7319   -4.9438 H   0  0  0  0  0  0  0  0  0  0  0  0
    1.8016   10.5252   -4.4930 H   0  0  0  0  0  0  0  0  0  0  0  0
   -0.6792    9.7761   -4.0203 H   0  0  0  0  0  0  0  0  0  0  0  0
    0.3878   11.7639   -0.6724 H   0  0  0  0  0  0  0  0  0  0  0  0
    1.9892    9.1342   -0.5442 H   0  0  0  0  0  0  0  0  0  0  0  0
    2.0206   10.4924    0.6660 H   0  0  0  0  0  0  0  0  0  0  0  0
    0.6490    8.5829    1.4365 H   0  0  0  0  0  0  0  0  0  0  0  0
   -0.3106   10.0983    1.2150 H   0  0  0  0  0  0  0  0  0  0  0  0
   -1.5712    8.2532    0.3392 H   0  0  0  0  0  0  0  0  0  0  0  0
   -0.1730    7.4510   -1.7630 H   0  0  0  0  0  0  0  0  0  0  0  0
   -2.1876   10.4828    0.2919 H   0  0  0  0  0  0  0  0  0  0  0  0
   -1.9386   11.5251   -1.1497 H   0  0  0  0  0  0  0  0  0  0  0  0
   -3.2415   10.2885   -1.1497 H   0  0  0  0  0  0  0  0  0  0  0  0
   -2.6939    7.9032   -1.7714 H   0  0  0  0  0  0  0  0  0  0  0  0
   -2.6944    9.2238   -2.9891 H   0  0  0  0  0  0  0  0  0  0  0  0
   -1.3771    8.0026   -2.9891 H   0  0  0  0  0  0  0  0  0  0  0  0
    3.7103   10.3271   -1.1542 H   0  0  0  0  0  0  0  0  0  0  0  0
    2.9310    9.8128   -2.6887 H   0  0  0  0  0  0  0  0  0  0  0  0
    4.1024   11.1745   -2.6887 H   0  0  0  0  0  0  0  0  0  0  0  0
    2.6030   12.4127    0.1342 H   0  0  0  0  0  0  0  0  0  0  0  0
    3.7479   12.9437   -1.2230 H   0  0  0  0  0  0  0  0  0  0  0  0
    1.0389   14.1110   -0.5271 H   0  0  0  0  0  0  0  0  0  0  0  0
    2.6676   14.8844   -0.3997 H   0  0  0  0  0  0  0  0  0  0  0  0
    4.1035   14.8844   -2.1394 H   0  0  0  0  0  0  0  0  0  0  0  0
    3.6400   13.9329   -3.5908 H   0  0  0  0  0  0  0  0  0  0  0  0
    3.4532   15.7194   -3.5908 H   0  0  0  0  0  0  0  0  0  0  0  0
  1  2  1  0
  2  3  1  0
  3  4  1  0
  4  5  1  0
  5  6  1  0
  6  7  1  0
  7  8  1  0
  7  9  1  0
  2 10  1  0
 10 11  1  0
 11 12  1  0
 12 13  1  0
 13 14  1  1
 13 15  1  0
 15 16  1  0
 16 17  1  0
 17 18  2  0
 18 19  1  0
 19 20  1  0
 20 21  1  0
 21 22  1  0
 22 23  1  0
 22 24  1  0
 24 25  1  0
 24 26  1  0
 19 27  1  0
 27 28  1  6
 27 29  1  0
 29 30  1  0
 30 31  1  0
 31 32  1  6
  7  5  1  0
 31 10  1  0
 31 13  1  0
 27 15  1  0
 24 18  1  0
  1 33  1  0
  1 34  1  0
  1 35  1  0
  2 36  1  6
  3 37  1  0
  3 38  1  0
  4 39  1  0
  4 40  1  0
  5 41  1  6
  8 42  1  0
  8 43  1  0
  8 44  1  0
  9 45  1  0
  9 46  1  0
  9 47  1  0
 10 48  1  1
 11 49  1  0
 11 50  1  0
 12 51  1  0
 12 52  1  0
 14 53  1  0
 14 54  1  0
 14 55  1  0
 15 56  1  6
 16 57  1  0
 16 58  1  0
 17 59  1  0
 19 60  1  1
 20 61  1  0
 20 62  1  0
 21 63  1  0
 21 64  1  0
 22 65  1  1
 23 66  1  0
 25 67  1  0
 25 68  1  0
 25 69  1  0
 26 70  1  0
 26 71  1  0
 26 72  1  0
 28 73  1  0
 28 74  1  0
 28 75  1  0
 29 76  1  0
 29 77  1  0
 30 78  1  0
 30 79  1  0
 32 80  1  0
 32 81  1  0
 32 82  1  0
M  END
>  <meeko>  (2) 
{"is_sidechain": [false], "intermolecular_energy": 2.731, "internal_energy": -0.839}

$$$$
EPH_relaxed_0001_pdb2pqr_Repair_317_r2_0001_out
     RDKit          3D

 82 86  0  0  0  0  0  0  0  0999 V2000
    2.3340   20.1940   -0.6720 C   0  0  0  0  0  0  0  0  0  0  0  0
    2.1410   19.1840    0.4620 C   0  0  2  0  0  0  0  0  0  0  0  0
    3.4830   18.7330    1.0720 C   0  0  0  0  0  0  0  0  0  0  0  0
    4.0840   19.7420    2.0550 C   0  0  0  0  0  0  0  0  0  0  0  0
    5.3140   19.2040    2.7190 C   0  0  2  0  0  0  0  0  0  0  0  0
    5.1420   17.9320    3.3580 O   0  0  0  0  0  0  0  0  0  0  0  0
    5.4490   19.0380    4.2220 C   0  0  0  0  0  0  0  0  0  0  0  0
    4.3370   19.4120    5.1510 C   0  0  0  0  0  0  0  0  0  0  0  0
    6.8230   18.9770    4.8140 C   0  0  0  0  0  0  0  0  0  0  0  0
    1.3660   17.9740   -0.0460 C   0  0  1  0  0  0  0  0  0  0  0  0
    0.1750   18.3680   -0.9580 C   0  0  0  0  0  0  0  0  0  0  0  0
    0.0560   17.2630   -2.0400 C   0  0  0  0  0  0  0  0  0  0  0  0
    0.9550   16.1150   -1.5250 C   0  0  1  0  0  0  0  0  0  0  0  0
    0.0790   15.3590   -0.4770 C   0  0  0  0  0  0  0  0  0  0  0  0
    1.5240   15.1440   -2.6100 C   0  0  2  0  0  0  0  0  0  0  0  0
    0.4650   14.3500   -3.3960 C   0  0  0  0  0  0  0  0  0  0  0  0
    0.0940   13.0280   -2.8100 C   0  0  0  0  0  0  0  0  0  0  0  0
    0.7870   12.3710   -1.8620 C   0  0  0  0  0  0  0  0  0  0  0  0
    2.1290   12.9100   -1.3510 C   0  0  1  0  0  0  0  0  0  0  0  0
    3.1670   11.7580   -1.3030 C   0  0  0  0  0  0  0  0  0  0  0  0
    2.6740   10.5600   -0.4970 C   0  0  0  0  0  0  0  0  0  0  0  0
    1.3680   10.0160   -1.0710 C   0  0  2  0  0  0  0  0  0  0  0  0
    1.6290    9.4640   -2.3660 O   0  0  0  0  0  0  0  0  0  0  0  0
    0.2500   11.0900   -1.1760 C   0  0  0  0  0  0  0  0  0  0  0  0
   -0.2420   11.4690    0.2420 C   0  0  0  0  0  0  0  0  0  0  0  0
   -0.9630   10.4470   -1.9000 C   0  0  0  0  0  0  0  0  0  0  0  0
    2.6850   14.2020   -2.0920 C   0  0  1  0  0  0  0  0  0  0  0  0
    3.5110   13.7810   -3.3460 C   0  0  0  0  0  0  0  0  0  0  0  0
    3.6840   14.9540   -1.1350 C   0  0  0  0  0  0  0  0  0  0  0  0
    3.0740   15.9880   -0.1690 C   0  0  0  0  0  0  0  0  0  0  0  0
    2.1390   16.9470   -0.9110 C   0  0  2  0  0  0  0  0  0  0  0  0
    2.9960   17.7380   -1.9570 C   0  0  0  0  0  0  0  0  0  0  0  0
    2.5244   21.1905   -0.2470 H   0  0  0  0  0  0  0  0  0  0  0  0
    3.1903   19.8900   -1.2919 H   0  0  0  0  0  0  0  0  0  0  0  0
    1.4259   20.2272   -1.2919 H   0  0  0  0  0  0  0  0  0  0  0  0
    1.5688   19.6842    1.2573 H   0  0  0  0  0  0  0  0  0  0  0  0
    3.3208   17.7842    1.6044 H   0  0  0  0  0  0  0  0  0  0  0  0
    4.1957   18.6318    0.2402 H   0  0  0  0  0  0  0  0  0  0  0  0
    4.3466   20.6595    1.5079 H   0  0  0  0  0  0  0  0  0  0  0  0
    3.3360   19.9481    2.8347 H   0  0  0  0  0  0  0  0  0  0  0  0
    5.9583   19.6858    1.9688 H   0  0  0  0  0  0  0  0  0  0  0  0
    4.6748   19.2984    6.1917 H   0  0  0  0  0  0  0  0  0  0  0  0
    4.0457   20.4575    4.9721 H   0  0  0  0  0  0  0  0  0  0  0  0
    3.4731   18.7550    4.9721 H   0  0  0  0  0  0  0  0  0  0  0  0
    6.7498   18.9802    5.9116 H   0  0  0  0  0  0  0  0  0  0  0  0
    7.3244   18.0557    4.4827 H   0  0  0  0  0  0  0  0  0  0  0  0
    7.4041   19.8502    4.4827 H   0  0  0  0  0  0  0  0  0  0  0  0
    1.0830   17.5190    0.9146 H   0  0  0  0  0  0  0  0  0  0  0  0
   -0.7520   18.4223   -0.3683 H   0  0  0  0  0  0  0  0  0  0  0  0
    0.3380   19.3544   -1.4168 H   0  0  0  0  0  0  0  0  0  0  0  0
   -0.9865   16.9259   -2.1379 H   0  0  0  0  0  0  0  0  0  0  0  0
    0.3621   17.6185   -3.0350 H   0  0  0  0  0  0  0  0  0  0  0  0
    0.4003   15.6363    0.5378 H   0  0  0  0  0  0  0  0  0  0  0  0
   -0.9771   15.6340   -0.6152 H   0  0  0  0  0  0  0  0  0  0  0  0
    0.1965   14.2741   -0.6152 H   0  0  0  0  0  0  0  0  0  0  0  0
    1.9750   15.8385   -3.3341 H   0  0  0  0  0  0  0  0  0  0  0  0
   -0.4460   14.9637   -3.4541 H   0  0  0  0  0  0  0  0  0  0  0  0
    0.9134   14.1330   -4.3767 H   0  0  0  0  0  0  0  0  0  0  0  0
   -0.8234   12.5507   -3.1849 H   0  0  0  0  0  0  0  0  0  0  0  0
    1.9385   13.2825   -0.3337 H   0  0  0  0  0  0  0  0  0  0  0  0
    3.3765   11.4290   -2.3315 H   0  0  0  0  0  0  0  0  0  0  0  0
    4.0713   12.1435   -0.8093 H   0  0  0  0  0  0  0  0  0  0  0  0
    3.4371    9.7683   -0.5256 H   0  0  0  0  0  0  0  0  0  0  0  0
    2.4942   10.8838    0.5388 H   0  0  0  0  0  0  0  0  0  0  0  0
    0.9980    9.2462   -0.3778 H   0  0  0  0  0  0  0  0  0  0  0  0
    0.7980    9.0810   -2.6950 H   0  0  0  0  0  0  0  0  0  0  0  0
    0.3940   10.9790    0.9939 H   0  0  0  0  0  0  0  0  0  0  0  0
   -0.1867   12.5601    0.3698 H   0  0  0  0  0  0  0  0  0  0  0  0
   -1.2829   11.1371    0.3698 H   0  0  0  0  0  0  0  0  0  0  0  0
   -1.6770   10.0685   -1.1537 H   0  0  0  0  0  0  0  0  0  0  0  0
   -1.4565   11.2019   -2.5297 H   0  0  0  0  0  0  0  0  0  0  0  0
   -0.6152    9.6148   -2.5297 H   0  0  0  0  0  0  0  0  0  0  0  0
    4.4482   13.3033   -3.0243 H   0  0  0  0  0  0  0  0  0  0  0  0
    2.9259   13.0712   -3.9491 H   0  0  0  0  0  0  0  0  0  0  0  0
    3.7416   14.6716   -3.9491 H   0  0  0  0  0  0  0  0  0  0  0  0
    4.1990   14.1947   -0.5282 H   0  0  0  0  0  0  0  0  0  0  0  0
    4.3400   15.5337   -1.8011 H   0  0  0  0  0  0  0  0  0  0  0  0
    2.5039   15.4603    0.6097 H   0  0  0  0  0  0  0  0  0  0  0  0
    3.8905   16.5722    0.2805 H   0  0  0  0  0  0  0  0  0  0  0  0
    3.7054   18.3928   -1.4298 H   0  0  0  0  0  0  0  0  0  0  0  0
    3.5513   17.0283   -2.5878 H   0  0  0  0  0  0  0  0  0  0  0  0
    2.3330   18.3483   -2.5878 H   0  0  0  0  0  0  0  0  0  0  0  0
  1  2  1  0
  2  3  1  0
  3  4  1  0
  4  5  1  0
  5  6  1  0
  6  7  1  0
  7  8  1  0
  7  9  1  0
  2 10  1  0
 10 11  1  0
 11 12  1  0
 12 13  1  0
 13 14  1  1
 13 15  1  0
 15 16  1  0
 16 17  1  0
 17 18  2  0
 18 19  1  0
 19 20  1  0
 20 21  1  0
 21 22  1  0
 22 23  1  0
 22 24  1  0
 24 25  1  0
 24 26  1  0
 19 27  1  0
 27 28  1  6
 27 29  1  0
 29 30  1  0
 30 31  1  0
 31 32  1  6
  7  5  1  0
 31 10  1  0
 31 13  1  0
 27 15  1  0
 24 18  1  0
  1 33  1  0
  1 34  1  0
  1 35  1  0
  2 36  1  1
  3 37  1  0
  3 38  1  0
  4 39  1  0
  4 40  1  0
  5 41  1  6
  8 42  1  0
  8 43  1  0
  8 44  1  0
  9 45  1  0
  9 46  1  0
  9 47  1  0
 10 48  1  1
 11 49  1  0
 11 50  1  0
 12 51  1  0
 12 52  1  0
 14 53  1  0
 14 54  1  0
 14 55  1  0
 15 56  1  6
 16 57  1  0
 16 58  1  0
 17 59  1  0
 19 60  1  1
 20 61  1  0
 20 62  1  0
 21 63  1  0
 21 64  1  0
 22 65  1  1
 23 66  1  0
 25 67  1  0
 25 68  1  0
 25 69  1  0
 26 70  1  0
 26 71  1  0
 26 72  1  0
 28 73  1  0
 28 74  1  0
 28 75  1  0
 29 76  1  0
 29 77  1  0
 30 78  1  0
 30 79  1  0
 32 80  1  0
 32 81  1  0
 32 82  1  0
M  END
>  <meeko>  (3) 
{"is_sidechain": [false], "intermolecular_energy": 2.731, "internal_energy": -0.839}

$$$$
EPH_relaxed_0001_pdb2pqr_Repair_317_r2_0001_out
     RDKit          3D

 82 86  0  0  0  0  0  0  0  0999 V2000
    2.2920   18.2790   -2.3650 C   0  0  0  0  0  0  0  0  0  0  0  0
    1.8080   17.3960   -1.2120 C   0  0  2  0  0  0  0  0  0  0  0  0
    2.9580   16.9910   -0.2680 C   0  0  0  0  0  0  0  0  0  0  0  0
    3.8880   18.1500    0.1010 C   0  0  0  0  0  0  0  0  0  0  0  0
    3.5780   18.6980    1.4610 C   0  0  2  0  0  0  0  0  0  0  0  0
    3.8940   20.0850    1.6340 O   0  0  0  0  0  0  0  0  0  0  0  0
    4.6420   19.1600    2.4400 C   0  0  0  0  0  0  0  0  0  0  0  0
    6.0970   19.0940    2.0980 C   0  0  0  0  0  0  0  0  0  0  0  0
    4.2990   19.2150    3.8960 C   0  0  0  0  0  0  0  0  0  0  0  0
    1.1230   16.1510   -1.7630 C   0  0  1  0  0  0  0  0  0  0  0  0
    0.8150   16.2600   -3.2800 C   0  0  0  0  0  0  0  0  0  0  0  0
    0.9890   14.8390   -3.8750 C   0  0  0  0  0  0  0  0  0  0  0  0
    1.0630   13.9070   -2.6430 C   0  0  1  0  0  0  0  0  0  0  0  0
   -0.4230   13.6840   -2.2190 C   0  0  0  0  0  0  0  0  0  0  0  0
    1.8140   12.5510   -2.8470 C   0  0  2  0  0  0  0  0  0  0  0  0
    1.1850   11.6060   -3.8860 C   0  0  0  0  0  0  0  0  0  0  0  0
    0.1790   10.6450   -3.3470 C   0  0  0  0  0  0  0  0  0  0  0  0
    0.0000   10.3470   -2.0470 C   0  0  0  0  0  0  0  0  0  0  0  0
    0.9250   10.9300   -0.9700 C   0  0  1  0  0  0  0  0  0  0  0  0
    1.3630    9.8030    0.0020 C   0  0  0  0  0  0  0  0  0  0  0  0
    0.1770    9.0510    0.5970 C   0  0  0  0  0  0  0  0  0  0  0  0
   -0.6860    8.4360   -0.5010 C   0  0  2  0  0  0  0  0  0  0  0  0
    0.0660    7.4110   -1.1590 O   0  0  0  0  0  0  0  0  0  0  0  0
   -1.1790    9.4750   -1.5470 C   0  0  0  0  0  0  0  0  0  0  0  0
   -2.2310   10.4080   -0.8980 C   0  0  0  0  0  0  0  0  0  0  0  0
   -1.9170    8.7050   -2.6740 C   0  0  0  0  0  0  0  0  0  0  0  0
    2.1520   11.7890   -1.5020 C   0  0  1  0  0  0  0  0  0  0  0  0
    3.3610   10.8540   -1.8120 C   0  0  0  0  0  0  0  0  0  0  0  0
    2.6270   12.7660   -0.3630 C   0  0  0  0  0  0  0  0  0  0  0  0
    1.9290   14.1370   -0.2880 C   0  0  0  0  0  0  0  0  0  0  0  0
    1.8950   14.8120   -1.6630 C   0  0  2  0  0  0  0  0  0  0  0  0
    3.3760   15.0690   -2.1070 C   0  0  0  0  0  0  0  0  0  0  0  0
    2.7834   19.1755   -1.9590 H   0  0  0  0  0  0  0  0  0  0  0  0
    3.0078   17.7163   -2.9823 H   0  0  0  0  0  0  0  0  0  0  0  0
    1.4326   18.5797   -2.9823 H   0  0  0  0  0  0  0  0  0  0  0  0
    1.0899   17.9853   -0.6229 H   0  0  0  0  0  0  0  0  0  0  0  0
    2.5218   16.5874    0.6577 H   0  0  0  0  0  0  0  0  0  0  0  0
    3.5671   16.2478   -0.8035 H   0  0  0  0  0  0  0  0  0  0  0  0
    4.9275   17.7903    0.0900 H   0  0  0  0  0  0  0  0  0  0  0  0
    3.7415   18.9547   -0.6345 H   0  0  0  0  0  0  0  0  0  0  0  0
    2.7246   18.0123    1.5682 H   0  0  0  0  0  0  0  0  0  0  0  0
    6.6904   19.0671    3.0238 H   0  0  0  0  0  0  0  0  0  0  0  0
    6.2945   18.1860    1.5094 H   0  0  0  0  0  0  0  0  0  0  0  0
    6.3759   19.9804    1.5094 H   0  0  0  0  0  0  0  0  0  0  0  0
    5.2110   19.0688    4.4933 H   0  0  0  0  0  0  0  0  0  0  0  0
    3.8592   20.1951    4.1323 H   0  0  0  0  0  0  0  0  0  0  0  0
    3.5748   18.4215    4.1323 H   0  0  0  0  0  0  0  0  0  0  0  0
    0.2373   16.1243   -1.1112 H   0  0  0  0  0  0  0  0  0  0  0  0
   -0.2162   16.6110   -3.4329 H   0  0  0  0  0  0  0  0  0  0  0  0
    1.4893   16.9783   -3.7693 H   0  0  0  0  0  0  0  0  0  0  0  0
    0.1301   14.5760   -4.5100 H   0  0  0  0  0  0  0  0  0  0  0  0
    1.8821   14.7599   -4.5123 H   0  0  0  0  0  0  0  0  0  0  0  0
   -0.4935   13.6734   -1.1213 H   0  0  0  0  0  0  0  0  0  0  0  0
   -1.0445   14.4989   -2.6185 H   0  0  0  0  0  0  0  0  0  0  0  0
   -0.7780   12.7225   -2.6185 H   0  0  0  0  0  0  0  0  0  0  0  0
    2.7720   12.8748   -3.2800 H   0  0  0  0  0  0  0  0  0  0  0  0
    0.6902   12.2227   -4.6508 H   0  0  0  0  0  0  0  0  0  0  0  0
    2.0100   10.9940   -4.2795 H   0  0  0  0  0  0  0  0  0  0  0  0
   -0.4716   10.1369   -4.0740 H   0  0  0  0  0  0  0  0  0  0  0  0
    0.3279   11.6782   -0.4280 H   0  0  0  0  0  0  0  0  0  0  0  0
    1.9938    9.0887   -0.5474 H   0  0  0  0  0  0  0  0  0  0  0  0
    1.9117   10.2721    0.8320 H   0  0  0  0  0  0  0  0  0  0  0  0
    0.5506    8.2502    1.2521 H   0  0  0  0  0  0  0  0  0  0  0  0
   -0.4374    9.7614    1.1695 H   0  0  0  0  0  0  0  0  0  0  0  0
   -1.5854    8.0230   -0.0209 H   0  0  0  0  0  0  0  0  0  0  0  0
    0.9010    7.3020   -0.6740 H   0  0  0  0  0  0  0  0  0  0  0  0
   -2.1549   10.3405    0.1973 H   0  0  0  0  0  0  0  0  0  0  0  0
   -2.0467   11.4450   -1.2152 H   0  0  0  0  0  0  0  0  0  0  0  0
   -3.2386   10.1011   -1.2152 H   0  0  0  0  0  0  0  0  0  0  0  0
   -2.6126    7.9792   -2.2275 H   0  0  0  0  0  0  0  0  0  0  0  0
   -2.4792    9.4164   -3.2967 H   0  0  0  0  0  0  0  0  0  0  0  0
   -1.1824    8.1735   -3.2967 H   0  0  0  0  0  0  0  0  0  0  0  0
    3.8083   10.5080   -0.8685 H   0  0  0  0  0  0  0  0  0  0  0  0
    3.0143    9.9868   -2.3931 H   0  0  0  0  0  0  0  0  0  0  0  0
    4.1132   11.4077   -2.3931 H   0  0  0  0  0  0  0  0  0  0  0  0
    2.4668   12.2580    0.5994 H   0  0  0  0  0  0  0  0  0  0  0  0
    3.6782   12.9907   -0.5964 H   0  0  0  0  0  0  0  0  0  0  0  0
    0.8982   13.9967    0.0694 H   0  0  0  0  0  0  0  0  0  0  0  0
    2.4928   14.7798    0.4040 H   0  0  0  0  0  0  0  0  0  0  0  0
    4.0119   15.1794   -1.2163 H   0  0  0  0  0  0  0  0  0  0  0  0
    3.7313   14.2191   -2.7082 H   0  0  0  0  0  0  0  0  0  0  0  0
    3.4242   15.9889   -2.7082 H   0  0  0  0  0  0  0  0  0  0  0  0
  1  2  1  0
  2  3  1  0
  3  4  1  0
  4  5  1  0
  5  6  1  0
  6  7  1  0
  7  8  1  0
  7  9  1  0
  2 10  1  0
 10 11  1  0
 11 12  1  0
 12 13  1  0
 13 14  1  1
 13 15  1  0
 15 16  1  0
 16 17  1  0
 17 18  2  0
 18 19  1  0
 19 20  1  0
 20 21  1  0
 21 22  1  0
 22 23  1  0
 22 24  1  0
 24 25  1  0
 24 26  1  0
 19 27  1  0
 27 28  1  6
 27 29  1  0
 29 30  1  0
 30 31  1  0
 31 32  1  6
  7  5  1  0
 31 10  1  0
 31 13  1  0
 27 15  1  0
 24 18  1  0
  1 33  1  0
  1 34  1  0
  1 35  1  0
  2 36  1  1
  3 37  1  0
  3 38  1  0
  4 39  1  0
  4 40  1  0
  5 41  1  1
  8 42  1  0
  8 43  1  0
  8 44  1  0
  9 45  1  0
  9 46  1  0
  9 47  1  0
 10 48  1  1
 11 49  1  0
 11 50  1  0
 12 51  1  0
 12 52  1  0
 14 53  1  0
 14 54  1  0
 14 55  1  0
 15 56  1  6
 16 57  1  0
 16 58  1  0
 17 59  1  0
 19 60  1  1
 20 61  1  0
 20 62  1  0
 21 63  1  0
 21 64  1  0
 22 65  1  1
 23 66  1  0
 25 67  1  0
 25 68  1  0
 25 69  1  0
 26 70  1  0
 26 71  1  0
 26 72  1  0
 28 73  1  0
 28 74  1  0
 28 75  1  0
 29 76  1  0
 29 77  1  0
 30 78  1  0
 30 79  1  0
 32 80  1  0
 32 81  1  0
 32 82  1  0
M  END
>  <meeko>  (4) 
{"is_sidechain": [false], "intermolecular_energy": 2.731, "internal_energy": -0.839}

$$$$
EPH_relaxed_0001_pdb2pqr_Repair_317_r2_0001_out
     RDKit          3D

 82 86  0  0  0  0  0  0  0  0999 V2000
   -3.1930    7.4130   -2.9200 C   0  0  0  0  0  0  0  0  0  0  0  0
   -3.2680    7.7680   -1.4320 C   0  0  2  0  0  0  0  0  0  0  0  0
   -4.7190    7.7730   -0.9090 C   0  0  0  0  0  0  0  0  0  0  0  0
   -5.6980    7.0060   -1.8020 C   0  0  0  0  0  0  0  0  0  0  0  0
   -7.1190    7.2220   -1.3790 C   0  0  2  0  0  0  0  0  0  0  0  0
   -7.8510    6.0200   -1.1030 O   0  0  0  0  0  0  0  0  0  0  0  0
   -8.3140    6.8030   -2.2160 C   0  0  0  0  0  0  0  0  0  0  0  0
   -8.1400    6.1340   -3.5440 C   0  0  0  0  0  0  0  0  0  0  0  0
   -9.6280    7.4760   -1.9740 C   0  0  0  0  0  0  0  0  0  0  0  0
   -2.6230    9.1280   -1.1890 C   0  0  1  0  0  0  0  0  0  0  0  0
   -2.9920    9.7260    0.1940 C   0  0  0  0  0  0  0  0  0  0  0  0
   -1.7450   10.4990    0.6950 C   0  0  0  0  0  0  0  0  0  0  0  0
   -0.8270   10.6020   -0.5450 C   0  0  1  0  0  0  0  0  0  0  0  0
   -1.3960   11.8010   -1.3680 C   0  0  0  0  0  0  0  0  0  0  0  0
    0.7010   10.7720   -0.2610 C   0  0  2  0  0  0  0  0  0  0  0  0
    1.0870   12.0580    0.4900 C   0  0  0  0  0  0  0  0  0  0  0  0
    1.4040   13.2320   -0.3750 C   0  0  0  0  0  0  0  0  0  0  0  0
    1.6580   13.1830   -1.6960 C   0  0  0  0  0  0  0  0  0  0  0  0
    1.7380   11.8410   -2.4340 C   0  0  1  0  0  0  0  0  0  0  0  0
    2.9940   11.8240   -3.3440 C   0  0  0  0  0  0  0  0  0  0  0  0
    3.0440   13.0160   -4.2950 C   0  0  0  0  0  0  0  0  0  0  0  0
    3.0220   14.3320   -3.5210 C   0  0  2  0  0  0  0  0  0  0  0  0
    4.2370   14.4480   -2.7740 O   0  0  0  0  0  0  0  0  0  0  0  0
    1.8050   14.4580   -2.5630 C   0  0  0  0  0  0  0  0  0  0  0  0
    0.5080   14.6360   -3.3900 C   0  0  0  0  0  0  0  0  0  0  0  0
    1.9780   15.7640   -1.7410 C   0  0  0  0  0  0  0  0  0  0  0  0
    1.6250   10.5420   -1.5250 C   0  0  1  0  0  0  0  0  0  0  0  0
    3.0330   10.1490   -0.9830 C   0  0  0  0  0  0  0  0  0  0  0  0
    1.1380    9.3350   -2.4110 C   0  0  0  0  0  0  0  0  0  0  0  0
   -0.3850    9.1500   -2.5560 C   0  0  0  0  0  0  0  0  0  0  0  0
   -1.0750    9.1900   -1.1890 C   0  0  2  0  0  0  0  0  0  0  0  0
   -0.5380    7.9820   -0.3470 C   0  0  0  0  0  0  0  0  0  0  0  0
   -2.9668    6.3422   -3.0305 H   0  0  0  0  0  0  0  0  0  0  0  0
   -4.1579    7.6353   -3.3991 H   0  0  0  0  0  0  0  0  0  0  0  0
   -2.4004    8.0066   -3.3991 H   0  0  0  0  0  0  0  0  0  0  0  0
   -2.7195    6.9917   -0.8784 H   0  0  0  0  0  0  0  0  0  0  0  0
   -4.7292    7.3149    0.0910 H   0  0  0  0  0  0  0  0  0  0  0  0
   -5.0516    8.8214   -0.8939 H   0  0  0  0  0  0  0  0  0  0  0  0
   -5.5787    7.3503   -2.8399 H   0  0  0  0  0  0  0  0  0  0  0  0
   -5.4734    5.9327   -1.7147 H   0  0  0  0  0  0  0  0  0  0  0  0
   -6.8549    8.1734   -0.8941 H   0  0  0  0  0  0  0  0  0  0  0  0
   -7.8658    5.0798   -3.3904 H   0  0  0  0  0  0  0  0  0  0  0  0
   -9.0824    6.1892   -4.1087 H   0  0  0  0  0  0  0  0  0  0  0  0
   -7.3439    6.6414   -4.1087 H   0  0  0  0  0  0  0  0  0  0  0  0
   -9.8007    7.5645   -0.8913 H   0  0  0  0  0  0  0  0  0  0  0  0
   -9.6153    8.4786   -2.4264 H   0  0  0  0  0  0  0  0  0  0  0  0
  -10.4341    6.8798   -2.4264 H   0  0  0  0  0  0  0  0  0  0  0  0
   -3.0224    9.6787   -2.0534 H   0  0  0  0  0  0  0  0  0  0  0  0
   -3.8472   10.4106    0.0945 H   0  0  0  0  0  0  0  0  0  0  0  0
   -3.2769    8.9346    0.9029 H   0  0  0  0  0  0  0  0  0  0  0  0
   -2.0267   11.4999    1.0541 H   0  0  0  0  0  0  0  0  0  0  0  0
   -1.2519    9.9941    1.5388 H   0  0  0  0  0  0  0  0  0  0  0  0
   -1.7639   12.5763   -0.6799 H   0  0  0  0  0  0  0  0  0  0  0  0
   -0.6010   12.2207   -2.0019 H   0  0  0  0  0  0  0  0  0  0  0  0
   -2.2238   11.4506   -2.0019 H   0  0  0  0  0  0  0  0  0  0  0  0
    0.9032    9.9465    0.4373 H   0  0  0  0  0  0  0  0  0  0  0  0
    0.2467   12.3348    1.1437 H   0  0  0  0  0  0  0  0  0  0  0  0
    2.0127   11.8245    1.0363 H   0  0  0  0  0  0  0  0  0  0  0  0
    1.4325   14.2202    0.1073 H   0  0  0  0  0  0  0  0  0  0  0  0
    0.8296   11.7790   -3.0512 H   0  0  0  0  0  0  0  0  0  0  0  0
    3.8909   11.8430   -2.7074 H   0  0  0  0  0  0  0  0  0  0  0  0
    2.9507   10.9107   -3.9556 H   0  0  0  0  0  0  0  0  0  0  0  0
    3.9677   12.9635   -4.8899 H   0  0  0  0  0  0  0  0  0  0  0  0
    2.1618   12.9794   -4.9510 H   0  0  0  0  0  0  0  0  0  0  0  0
    2.9286   15.1456   -4.2554 H   0  0  0  0  0  0  0  0  0  0  0  0
    4.6470   15.2970   -3.0090 H   0  0  0  0  0  0  0  0  0  0  0  0
   -0.3478   14.7535   -2.7090 H   0  0  0  0  0  0  0  0  0  0  0  0
    0.5974   15.5303   -4.0242 H   0  0  0  0  0  0  0  0  0  0  0  0
    0.3531   13.7507   -4.0242 H   0  0  0  0  0  0  0  0  0  0  0  0
    1.9468   15.5281   -0.6670 H   0  0  0  0  0  0  0  0  0  0  0  0
    2.9453   16.2266   -1.9868 H   0  0  0  0  0  0  0  0  0  0  0  0
    1.1645   16.4624   -1.9868 H   0  0  0  0  0  0  0  0  0  0  0  0
    3.0169   10.1535    0.1169 H   0  0  0  0  0  0  0  0  0  0  0  0
    3.2963    9.1430   -1.3417 H   0  0  0  0  0  0  0  0  0  0  0  0
    3.7792   10.8732   -1.3417 H   0  0  0  0  0  0  0  0  0  0  0  0
    1.5540    9.4735   -3.4198 H   0  0  0  0  0  0  0  0  0  0  0  0
    1.4891    8.4335   -1.8876 H   0  0  0  0  0  0  0  0  0  0  0  0
   -0.7872    9.9572   -3.1858 H   0  0  0  0  0  0  0  0  0  0  0  0
   -0.5768    8.1699   -3.0171 H   0  0  0  0  0  0  0  0  0  0  0  0
   -0.6387    8.2085    0.7247 H   0  0  0  0  0  0  0  0  0  0  0  0
   -1.1199    7.0800   -0.5874 H   0  0  0  0  0  0  0  0  0  0  0  0
    0.5215    7.8097   -0.5874 H   0  0  0  0  0  0  0  0  0  0  0  0
  1  2  1  0
  2  3  1  0
  3  4  1  0
  4  5  1  0
  5  6  1  0
  6  7  1  0
  7  8  1  0
  7  9  1  0
  2 10  1  0
 10 11  1  0
 11 12  1  0
 12 13  1  0
 13 14  1  6
 13 15  1  0
 15 16  1  0
 16 17  1  0
 17 18  2  0
 18 19  1  0
 19 20  1  0
 20 21  1  0
 21 22  1  0
 22 23  1  0
 22 24  1  0
 24 25  1  0
 24 26  1  0
 19 27  1  0
 27 28  1  1
 27 29  1  0
 29 30  1  0
 30 31  1  0
 31 32  1  1
  7  5  1  0
 31 10  1  0
 31 13  1  0
 27 15  1  0
 24 18  1  0
  1 33  1  0
  1 34  1  0
  1 35  1  0
  2 36  1  1
  3 37  1  0
  3 38  1  0
  4 39  1  0
  4 40  1  0
  5 41  1  1
  8 42  1  0
  8 43  1  0
  8 44  1  0
  9 45  1  0
  9 46  1  0
  9 47  1  0
 10 48  1  6
 11 49  1  0
 11 50  1  0
 12 51  1  0
 12 52  1  0
 14 53  1  0
 14 54  1  0
 14 55  1  0
 15 56  1  1
 16 57  1  0
 16 58  1  0
 17 59  1  0
 19 60  1  6
 20 61  1  0
 20 62  1  0
 21 63  1  0
 21 64  1  0
 22 65  1  6
 23 66  1  0
 25 67  1  0
 25 68  1  0
 25 69  1  0
 26 70  1  0
 26 71  1  0
 26 72  1  0
 28 73  1  0
 28 74  1  0
 28 75  1  0
 29 76  1  0
 29 77  1  0
 30 78  1  0
 30 79  1  0
 32 80  1  0
 32 81  1  0
 32 82  1  0
M  END
>  <meeko>  (5) 
{"is_sidechain": [false], "intermolecular_energy": 2.731, "internal_energy": -0.839}

$$$$
EPH_relaxed_0001_pdb2pqr_Repair_317_r2_0001_out
     RDKit          3D

 82 86  0  0  0  0  0  0  0  0999 V2000
    0.8430   15.3560   -6.8060 C   0  0  0  0  0  0  0  0  0  0  0  0
    2.2850   14.9460   -6.4940 C   0  0  2  0  0  0  0  0  0  0  0  0
    3.0810   14.6090   -7.7710 C   0  0  0  0  0  0  0  0  0  0  0  0
    3.2160   15.7860   -8.7410 C   0  0  0  0  0  0  0  0  0  0  0  0
    2.8520   15.3940  -10.1410 C   0  0  2  0  0  0  0  0  0  0  0  0
    2.3230   16.4590  -10.9420 O   0  0  0  0  0  0  0  0  0  0  0  0
    1.4270   15.3720  -10.6600 C   0  0  0  0  0  0  0  0  0  0  0  0
    0.2720   15.7460   -9.7850 C   0  0  0  0  0  0  0  0  0  0  0  0
    1.1130   14.5240  -11.8530 C   0  0  0  0  0  0  0  0  0  0  0  0
    2.2920   13.7530   -5.5460 C   0  0  1  0  0  0  0  0  0  0  0  0
    3.7270   13.2780   -5.1940 C   0  0  0  0  0  0  0  0  0  0  0  0
    3.6890   12.7900   -3.7230 C   0  0  0  0  0  0  0  0  0  0  0  0
    2.1830   12.6870   -3.3850 C   0  0  1  0  0  0  0  0  0  0  0  0
    1.7310   11.3180   -3.9840 C   0  0  0  0  0  0  0  0  0  0  0  0
    1.8040   12.8090   -1.8740 C   0  0  2  0  0  0  0  0  0  0  0  0
    2.3790   11.7080   -0.9660 C   0  0  0  0  0  0  0  0  0  0  0  0
    1.5120   10.5040   -0.7960 C   0  0  0  0  0  0  0  0  0  0  0  0
    0.2060   10.4290   -1.1150 C   0  0  0  0  0  0  0  0  0  0  0  0
   -0.5540   11.6640   -1.6140 C   0  0  1  0  0  0  0  0  0  0  0  0
   -1.9090   11.7760   -0.8650 C   0  0  0  0  0  0  0  0  0  0  0  0
   -2.7390   10.4990   -0.9650 C   0  0  0  0  0  0  0  0  0  0  0  0
   -1.9710    9.3040   -0.4060 C   0  0  2  0  0  0  0  0  0  0  0  0
   -1.8010    9.4840    1.0040 O   0  0  0  0  0  0  0  0  0  0  0  0
   -0.5840    9.0980   -1.0770 C   0  0  0  0  0  0  0  0  0  0  0  0
   -0.7790    8.6080   -2.5330 C   0  0  0  0  0  0  0  0  0  0  0  0
    0.1440    7.9510   -0.3260 C   0  0  0  0  0  0  0  0  0  0  0  0
    0.2600   13.0290   -1.6080 C   0  0  1  0  0  0  0  0  0  0  0  0
    0.1410   13.7140   -0.2120 C   0  0  0  0  0  0  0  0  0  0  0  0
   -0.3900   14.0200   -2.6450 C   0  0  0  0  0  0  0  0  0  0  0  0
    0.1120   13.9310   -4.0990 C   0  0  0  0  0  0  0  0  0  0  0  0
    1.6430   13.9480   -4.1530 C   0  0  2  0  0  0  0  0  0  0  0  0
    2.1260   15.3230   -3.5770 C   0  0  0  0  0  0  0  0  0  0  0  0
    0.2945   15.5120   -5.8654 H   0  0  0  0  0  0  0  0  0  0  0  0
    0.8450   16.2892   -7.3884 H   0  0  0  0  0  0  0  0  0  0  0  0
    0.3537   14.5614   -7.3884 H   0  0  0  0  0  0  0  0  0  0  0  0
    2.7776   15.8047   -6.0144 H   0  0  0  0  0  0  0  0  0  0  0  0
    4.0899   14.2848   -7.4759 H   0  0  0  0  0  0  0  0  0  0  0  0
    2.5240   13.8204   -8.2981 H   0  0  0  0  0  0  0  0  0  0  0  0
    2.5491   16.5969   -8.4129 H   0  0  0  0  0  0  0  0  0  0  0  0
    4.2659   16.1143   -8.7384 H   0  0  0  0  0  0  0  0  0  0  0  0
    3.6577   14.6456  -10.1662 H   0  0  0  0  0  0  0  0  0  0  0  0
    0.5659   15.6508   -8.7293 H   0  0  0  0  0  0  0  0  0  0  0  0
   -0.0228   16.7855   -9.9913 H   0  0  0  0  0  0  0  0  0  0  0  0
   -0.5761   15.0766   -9.9913 H   0  0  0  0  0  0  0  0  0  0  0  0
    0.7491   13.5412  -11.5187 H   0  0  0  0  0  0  0  0  0  0  0  0
    0.3373   15.0157  -12.4584 H   0  0  0  0  0  0  0  0  0  0  0  0
    2.0218   14.3920  -12.4584 H   0  0  0  0  0  0  0  0  0  0  0  0
    1.7005   13.0415   -6.1409 H   0  0  0  0  0  0  0  0  0  0  0  0
    4.0270   12.4544   -5.8586 H   0  0  0  0  0  0  0  0  0  0  0  0
    4.4548   14.0930   -5.3208 H   0  0  0  0  0  0  0  0  0  0  0  0
    4.1766   11.8087   -3.6267 H   0  0  0  0  0  0  0  0  0  0  0  0
    4.2235   13.4704   -3.0438 H   0  0  0  0  0  0  0  0  0  0  0  0
    1.5001   10.6186   -3.1670 H   0  0  0  0  0  0  0  0  0  0  0  0
    0.8344   11.4670   -4.6035 H   0  0  0  0  0  0  0  0  0  0  0  0
    2.5401   10.9038   -4.6035 H   0  0  0  0  0  0  0  0  0  0  0  0
    2.3141   13.7375   -1.5780 H   0  0  0  0  0  0  0  0  0  0  0  0
    3.3369   11.3792   -1.3953 H   0  0  0  0  0  0  0  0  0  0  0  0
    2.4753   12.1573    0.0335 H   0  0  0  0  0  0  0  0  0  0  0  0
    1.9799    9.6021   -0.3745 H   0  0  0  0  0  0  0  0  0  0  0  0
   -0.7322   11.4979   -2.6867 H   0  0  0  0  0  0  0  0  0  0  0  0
   -1.7092   11.9848    0.1964 H   0  0  0  0  0  0  0  0  0  0  0  0
   -2.4849   12.5868   -1.3351 H   0  0  0  0  0  0  0  0  0  0  0  0
   -3.6694   10.6286   -0.3927 H   0  0  0  0  0  0  0  0  0  0  0  0
   -2.9629   10.3078   -2.0249 H   0  0  0  0  0  0  0  0  0  0  0  0
   -2.5615    8.4018   -0.6235 H   0  0  0  0  0  0  0  0  0  0  0  0
   -2.6720    9.3750    1.4210 H   0  0  0  0  0  0  0  0  0  0  0  0
   -1.1857    7.5860   -2.5246 H   0  0  0  0  0  0  0  0  0  0  0  0
   -1.4794    9.2771   -3.0543 H   0  0  0  0  0  0  0  0  0  0  0  0
    0.1896    8.6129   -3.0543 H   0  0  0  0  0  0  0  0  0  0  0  0
    0.0471    8.1037    0.7590 H   0  0  0  0  0  0  0  0  0  0  0  0
   -0.3079    6.9870   -0.6024 H   0  0  0  0  0  0  0  0  0  0  0  0
    1.2087    7.9495   -0.6024 H   0  0  0  0  0  0  0  0  0  0  0  0
    0.2719   12.9604    0.5786 H   0  0  0  0  0  0  0  0  0  0  0  0
    0.9185   14.4861   -0.1150 H   0  0  0  0  0  0  0  0  0  0  0  0
   -0.8513   14.1786   -0.1150 H   0  0  0  0  0  0  0  0  0  0  0  0
   -1.4732   13.8285   -2.6545 H   0  0  0  0  0  0  0  0  0  0  0  0
   -0.1027   15.0249   -2.3021 H   0  0  0  0  0  0  0  0  0  0  0  0
   -0.2535   12.9963   -4.5492 H   0  0  0  0  0  0  0  0  0  0  0  0
   -0.2681   14.8008   -4.6549 H   0  0  0  0  0  0  0  0  0  0  0  0
    2.1127   15.2851   -2.4777 H   0  0  0  0  0  0  0  0  0  0  0  0
    3.1496   15.5269   -3.9245 H   0  0  0  0  0  0  0  0  0  0  0  0
    1.4548   16.1222   -3.9245 H   0  0  0  0  0  0  0  0  0  0  0  0
  1  2  1  0
  2  3  1  0
  3  4  1  0
  4  5  1  0
  5  6  1  0
  6  7  1  0
  7  8  1  0
  7  9  1  0
  2 10  1  0
 10 11  1  0
 11 12  1  0
 12 13  1  0
 13 14  1  6
 13 15  1  0
 15 16  1  0
 16 17  1  0
 17 18  2  0
 18 19  1  0
 19 20  1  0
 20 21  1  0
 21 22  1  0
 22 23  1  0
 22 24  1  0
 24 25  1  0
 24 26  1  0
 19 27  1  0
 27 28  1  1
 27 29  1  0
 29 30  1  0
 30 31  1  0
 31 32  1  1
  7  5  1  0
 31 10  1  0
 31 13  1  0
 27 15  1  0
 24 18  1  0
  1 33  1  0
  1 34  1  0
  1 35  1  0
  2 36  1  1
  3 37  1  0
  3 38  1  0
  4 39  1  0
  4 40  1  0
  5 41  1  6
  8 42  1  0
  8 43  1  0
  8 44  1  0
  9 45  1  0
  9 46  1  0
  9 47  1  0
 10 48  1  6
 11 49  1  0
 11 50  1  0
 12 51  1  0
 12 52  1  0
 14 53  1  0
 14 54  1  0
 14 55  1  0
 15 56  1  1
 16 57  1  0
 16 58  1  0
 17 59  1  0
 19 60  1  6
 20 61  1  0
 20 62  1  0
 21 63  1  0
 21 64  1  0
 22 65  1  1
 23 66  1  0
 25 67  1  0
 25 68  1  0
 25 69  1  0
 26 70  1  0
 26 71  1  0
 26 72  1  0
 28 73  1  0
 28 74  1  0
 28 75  1  0
 29 76  1  0
 29 77  1  0
 30 78  1  0
 30 79  1  0
 32 80  1  0
 32 81  1  0
 32 82  1  0
M  END
>  <meeko>  (6) 
{"is_sidechain": [false], "intermolecular_energy": 2.731, "internal_energy": -0.839}

$$$$
EPH_relaxed_0001_pdb2pqr_Repair_317_r2_0001_out
     RDKit          3D

 82 86  0  0  0  0  0  0  0  0999 V2000
    3.6620   11.6280   -4.6340 C   0  0  0  0  0  0  0  0  0  0  0  0
    2.6490   12.3780   -5.5040 C   0  0  2  0  0  0  0  0  0  0  0  0
    3.3370   13.2840   -6.5450 C   0  0  0  0  0  0  0  0  0  0  0  0
    2.6020   14.6040   -6.7950 C   0  0  0  0  0  0  0  0  0  0  0  0
    2.7580   15.0660   -8.2120 C   0  0  2  0  0  0  0  0  0  0  0  0
    2.6330   16.4820   -8.3970 O   0  0  0  0  0  0  0  0  0  0  0  0
    1.6270   15.6700   -9.0240 C   0  0  0  0  0  0  0  0  0  0  0  0
    0.2580   15.8440   -8.4460 C   0  0  0  0  0  0  0  0  0  0  0  0
    1.7230   15.6380  -10.5170 C   0  0  0  0  0  0  0  0  0  0  0  0
    1.7220   13.2080   -4.6240 C   0  0  1  0  0  0  0  0  0  0  0  0
    0.4090   12.4600   -4.2680 C   0  0  0  0  0  0  0  0  0  0  0  0
    0.0260   12.8880   -2.8280 C   0  0  0  0  0  0  0  0  0  0  0  0
    0.9320   14.1060   -2.5300 C   0  0  1  0  0  0  0  0  0  0  0  0
    0.2190   15.3140   -3.2140 C   0  0  0  0  0  0  0  0  0  0  0  0
    1.2320   14.3910   -1.0220 C   0  0  2  0  0  0  0  0  0  0  0  0
    0.0000   14.7320   -0.1650 C   0  0  0  0  0  0  0  0  0  0  0  0
   -0.3380   16.1840   -0.0820 C   0  0  0  0  0  0  0  0  0  0  0  0
    0.4760   17.1970   -0.4330 C   0  0  0  0  0  0  0  0  0  0  0  0
    1.9190   16.9300   -0.8780 C   0  0  1  0  0  0  0  0  0  0  0  0
    2.8750   17.9150   -0.1550 C   0  0  0  0  0  0  0  0  0  0  0  0
    2.4660   19.3730   -0.3440 C   0  0  0  0  0  0  0  0  0  0  0  0
    1.0460   19.6110    0.1640 C   0  0  2  0  0  0  0  0  0  0  0  0
    1.0300   19.4400    1.5850 O   0  0  0  0  0  0  0  0  0  0  0  0
   -0.0040   18.6680   -0.4880 C   0  0  0  0  0  0  0  0  0  0  0  0
   -0.2040   19.0600   -1.9730 C   0  0  0  0  0  0  0  0  0  0  0  0
   -1.3670   18.9150    0.2140 C   0  0  0  0  0  0  0  0  0  0  0  0
    2.4080   15.4220   -0.7790 C   0  0  1  0  0  0  0  0  0  0  0  0
    2.9620   15.1350    0.6500 C   0  0  0  0  0  0  0  0  0  0  0  0
    3.6100   15.2040   -1.7730 C   0  0  0  0  0  0  0  0  0  0  0  0
    3.2530   14.8070   -3.2180 C   0  0  0  0  0  0  0  0  0  0  0  0
    2.2580   13.6420   -3.2370 C   0  0  2  0  0  0  0  0  0  0  0  0
    2.9560   12.4060   -2.5740 C   0  0  0  0  0  0  0  0  0  0  0  0
    3.4310   11.7990   -3.5722 H   0  0  0  0  0  0  0  0  0  0  0  0
    3.6068   10.5513   -4.8525 H   0  0  0  0  0  0  0  0  0  0  0  0
    4.6757   11.9950   -4.8525 H   0  0  0  0  0  0  0  0  0  0  0  0
    2.0646   11.6261   -6.0545 H   0  0  0  0  0  0  0  0  0  0  0  0
    4.3519   13.5139   -6.1884 H   0  0  0  0  0  0  0  0  0  0  0  0
    3.3410   12.7334   -7.4972 H   0  0  0  0  0  0  0  0  0  0  0  0
    1.5322   14.4621   -6.5821 H   0  0  0  0  0  0  0  0  0  0  0  0
    3.0373   15.3690   -6.1352 H   0  0  0  0  0  0  0  0  0  0  0  0
    3.4660   14.2515   -8.4248 H   0  0  0  0  0  0  0  0  0  0  0  0
    0.3200   15.8361   -7.3478 H   0  0  0  0  0  0  0  0  0  0  0  0
   -0.1630   16.8029   -8.7826 H   0  0  0  0  0  0  0  0  0  0  0  0
   -0.3895   15.0209   -8.7826 H   0  0  0  0  0  0  0  0  0  0  0  0
    2.7281   15.3029  -10.8127 H   0  0  0  0  0  0  0  0  0  0  0  0
    0.9717   14.9417  -10.9179 H   0  0  0  0  0  0  0  0  0  0  0  0
    1.5397   16.6458  -10.9179 H   0  0  0  0  0  0  0  0  0  0  0  0
    1.5939   14.0890   -5.2701 H   0  0  0  0  0  0  0  0  0  0  0  0
   -0.3891   12.7402   -4.9712 H   0  0  0  0  0  0  0  0  0  0  0  0
    0.5455   11.3704   -4.3328 H   0  0  0  0  0  0  0  0  0  0  0  0
   -1.0356   13.1716   -2.7764 H   0  0  0  0  0  0  0  0  0  0  0  0
    0.1658   12.0755   -2.0998 H   0  0  0  0  0  0  0  0  0  0  0  0
   -0.1796   15.9893   -2.4425 H   0  0  0  0  0  0  0  0  0  0  0  0
    0.9405   15.8586   -3.8408 H   0  0  0  0  0  0  0  0  0  0  0  0
   -0.6065   14.9456   -3.8408 H   0  0  0  0  0  0  0  0  0  0  0  0
    1.5850   13.4132   -0.6625 H   0  0  0  0  0  0  0  0  0  0  0  0
   -0.8666   14.2053   -0.5911 H   0  0  0  0  0  0  0  0  0  0  0  0
    0.2465   14.4182    0.8601 H   0  0  0  0  0  0  0  0  0  0  0  0
   -1.3360   16.4481    0.2979 H   0  0  0  0  0  0  0  0  0  0  0  0
    1.9414   17.1159   -1.9619 H   0  0  0  0  0  0  0  0  0  0  0  0
    2.8713   17.6844    0.9206 H   0  0  0  0  0  0  0  0  0  0  0  0
    3.8764   17.7899   -0.5926 H   0  0  0  0  0  0  0  0  0  0  0  0
    3.1610   20.0173    0.2145 H   0  0  0  0  0  0  0  0  0  0  0  0
    2.4997   19.6110   -1.4174 H   0  0  0  0  0  0  0  0  0  0  0  0
    0.7629   20.6365   -0.1158 H   0  0  0  0  0  0  0  0  0  0  0  0
    0.6720   18.5560    1.7710 H   0  0  0  0  0  0  0  0  0  0  0  0
   -0.7032   20.0385   -2.0299 H   0  0  0  0  0  0  0  0  0  0  0  0
    0.7746   19.1181   -2.4719 H   0  0  0  0  0  0  0  0  0  0  0  0
   -0.8254   18.3018   -2.4719 H   0  0  0  0  0  0  0  0  0  0  0  0
   -1.2275   18.8897    1.3048 H   0  0  0  0  0  0  0  0  0  0  0  0
   -1.7593   19.8989   -0.0828 H   0  0  0  0  0  0  0  0  0  0  0  0
   -2.0796   18.1314   -0.0828 H   0  0  0  0  0  0  0  0  0  0  0  0
    2.2483   15.5047    1.4010 H   0  0  0  0  0  0  0  0  0  0  0  0
    3.1011   14.0514    0.7785 H   0  0  0  0  0  0  0  0  0  0  0  0
    3.9274   15.6464    0.7785 H   0  0  0  0  0  0  0  0  0  0  0  0
    4.1799   16.1438   -1.8172 H   0  0  0  0  0  0  0  0  0  0  0  0
    4.1666   14.3460   -1.3679 H   0  0  0  0  0  0  0  0  0  0  0  0
    2.8041   15.6719   -3.7283 H   0  0  0  0  0  0  0  0  0  0  0  0
    4.1727   14.4911   -3.7322 H   0  0  0  0  0  0  0  0  0  0  0  0
    2.9035   12.4989   -1.4792 H   0  0  0  0  0  0  0  0  0  0  0  0
    2.4452   11.4840   -2.8887 H   0  0  0  0  0  0  0  0  0  0  0  0
    4.0093   12.3673   -2.8887 H   0  0  0  0  0  0  0  0  0  0  0  0
  1  2  1  0
  2  3  1  0
  3  4  1  0
  4  5  1  0
  5  6  1  0
  6  7  1  0
  7  8  1  0
  7  9  1  0
  2 10  1  0
 10 11  1  0
 11 12  1  0
 12 13  1  0
 13 14  1  6
 13 15  1  0
 15 16  1  0
 16 17  1  0
 17 18  2  0
 18 19  1  0
 19 20  1  0
 20 21  1  0
 21 22  1  0
 22 23  1  0
 22 24  1  0
 24 25  1  0
 24 26  1  0
 19 27  1  0
 27 28  1  1
 27 29  1  0
 29 30  1  0
 30 31  1  0
 31 32  1  1
  7  5  1  0
 31 10  1  0
 31 13  1  0
 27 15  1  0
 24 18  1  0
  1 33  1  0
  1 34  1  0
  1 35  1  0
  2 36  1  6
  3 37  1  0
  3 38  1  0
  4 39  1  0
  4 40  1  0
  5 41  1  6
  8 42  1  0
  8 43  1  0
  8 44  1  0
  9 45  1  0
  9 46  1  0
  9 47  1  0
 10 48  1  6
 11 49  1  0
 11 50  1  0
 12 51  1  0
 12 52  1  0
 14 53  1  0
 14 54  1  0
 14 55  1  0
 15 56  1  1
 16 57  1  0
 16 58  1  0
 17 59  1  0
 19 60  1  6
 20 61  1  0
 20 62  1  0
 21 63  1  0
 21 64  1  0
 22 65  1  1
 23 66  1  0
 25 67  1  0
 25 68  1  0
 25 69  1  0
 26 70  1  0
 26 71  1  0
 26 72  1  0
 28 73  1  0
 28 74  1  0
 28 75  1  0
 29 76  1  0
 29 77  1  0
 30 78  1  0
 30 79  1  0
 32 80  1  0
 32 81  1  0
 32 82  1  0
M  END
>  <meeko>  (7) 
{"is_sidechain": [false], "intermolecular_energy": 2.731, "internal_energy": -0.839}

$$$$
EPH_relaxed_0001_pdb2pqr_Repair_317_r2_0001_out
     RDKit          3D

 82 86  0  0  0  0  0  0  0  0999 V2000
   -0.4150   16.4440   -5.7770 C   0  0  0  0  0  0  0  0  0  0  0  0
    0.8230   15.8030   -6.4100 C   0  0  2  0  0  0  0  0  0  0  0  0
    0.7050   15.7040   -7.9440 C   0  0  0  0  0  0  0  0  0  0  0  0
    1.7440   16.5400   -8.6960 C   0  0  0  0  0  0  0  0  0  0  0  0
    1.6320   16.3610  -10.1800 C   0  0  2  0  0  0  0  0  0  0  0  0
    0.9670   15.1580  -10.5890 O   0  0  0  0  0  0  0  0  0  0  0  0
    2.3540   15.2690  -10.9480 C   0  0  0  0  0  0  0  0  0  0  0  0
    3.2420   14.2840  -10.2550 C   0  0  0  0  0  0  0  0  0  0  0  0
    2.5830   15.4580  -12.4150 C   0  0  0  0  0  0  0  0  0  0  0  0
    1.0530   14.4180   -5.8160 C   0  0  1  0  0  0  0  0  0  0  0  0
    2.3100   13.7190   -6.3980 C   0  0  0  0  0  0  0  0  0  0  0  0
    2.9330   12.8880   -5.2470 C   0  0  0  0  0  0  0  0  0  0  0  0
    1.8450   12.8680   -4.1470 C   0  0  1  0  0  0  0  0  0  0  0  0
    0.8510   11.7480   -4.5870 C   0  0  0  0  0  0  0  0  0  0  0  0
    2.3470   12.6510   -2.6830 C   0  0  2  0  0  0  0  0  0  0  0  0
    3.0440   11.3040   -2.4240 C   0  0  0  0  0  0  0  0  0  0  0  0
    2.1450   10.1970   -1.9810 C   0  0  0  0  0  0  0  0  0  0  0  0
    0.8880   10.3450   -1.5240 C   0  0  0  0  0  0  0  0  0  0  0  0
    0.2810   11.7400   -1.3260 C   0  0  1  0  0  0  0  0  0  0  0  0
   -0.4190   11.8080    0.0570 C   0  0  0  0  0  0  0  0  0  0  0  0
   -1.4440   10.6940    0.2490 C   0  0  0  0  0  0  0  0  0  0  0  0
   -0.7910    9.3220    0.1010 C   0  0  2  0  0  0  0  0  0  0  0  0
    0.1230    9.1270    1.1850 O   0  0  0  0  0  0  0  0  0  0  0  0
   -0.0450    9.1400   -1.2500 C   0  0  0  0  0  0  0  0  0  0  0  0
   -1.0740    9.0500   -2.4040 C   0  0  0  0  0  0  0  0  0  0  0  0
    0.6850    7.7710   -1.2120 C   0  0  0  0  0  0  0  0  0  0  0  0
    1.2640   12.9650   -1.5730 C   0  0  1  0  0  0  0  0  0  0  0  0
    2.0470   13.2910   -0.2650 C   0  0  0  0  0  0  0  0  0  0  0  0
    0.4130   14.2460   -1.9120 C   0  0  0  0  0  0  0  0  0  0  0  0
    0.0500   14.4670   -3.3930 C   0  0  0  0  0  0  0  0  0  0  0  0
    1.2870   14.3310   -4.2870 C   0  0  2  0  0  0  0  0  0  0  0  0
    2.2960   15.4590   -3.8820 C   0  0  0  0  0  0  0  0  0  0  0  0
   -0.3307   16.4004   -4.6811 H   0  0  0  0  0  0  0  0  0  0  0  0
   -0.4889   17.4937   -6.0976 H   0  0  0  0  0  0  0  0  0  0  0  0
   -1.3148   15.8985   -6.0976 H   0  0  0  0  0  0  0  0  0  0  0  0
    1.6825   16.4516   -6.1853 H   0  0  0  0  0  0  0  0  0  0  0  0
    0.8304   14.6506   -8.2348 H   0  0  0  0  0  0  0  0  0  0  0  0
   -0.2845   16.0995   -8.2167 H   0  0  0  0  0  0  0  0  0  0  0  0
    1.5909   17.6018   -8.4526 H   0  0  0  0  0  0  0  0  0  0  0  0
    2.7442   16.2041   -8.3850 H   0  0  0  0  0  0  0  0  0  0  0  0
    1.5664   17.4487  -10.3303 H   0  0  0  0  0  0  0  0  0  0  0  0
    3.1380   14.3994   -9.1660 H   0  0  0  0  0  0  0  0  0  0  0  0
    2.9533   13.2629  -10.5448 H   0  0  0  0  0  0  0  0  0  0  0  0
    4.2875   14.4656  -10.5448 H   0  0  0  0  0  0  0  0  0  0  0  0
    3.4231   16.1513  -12.5686 H   0  0  0  0  0  0  0  0  0  0  0  0
    2.8188   14.4881  -12.8772 H   0  0  0  0  0  0  0  0  0  0  0  0
    1.6754   15.8735  -12.8772 H   0  0  0  0  0  0  0  0  0  0  0  0
    0.0960   13.9434   -6.0784 H   0  0  0  0  0  0  0  0  0  0  0  0
    2.0250   13.0589   -7.2305 H   0  0  0  0  0  0  0  0  0  0  0  0
    3.0279   14.4565   -6.7860 H   0  0  0  0  0  0  0  0  0  0  0  0
    3.1621   11.8667   -5.5853 H   0  0  0  0  0  0  0  0  0  0  0  0
    3.8807   13.3164   -4.8887 H   0  0  0  0  0  0  0  0  0  0  0  0
    0.4234   11.2662   -3.6953 H   0  0  0  0  0  0  0  0  0  0  0  0
    0.0428   12.1904   -5.1879 H   0  0  0  0  0  0  0  0  0  0  0  0
    1.3863   10.9980   -5.1879 H   0  0  0  0  0  0  0  0  0  0  0  0
    3.1321   13.4155   -2.5879 H   0  0  0  0  0  0  0  0  0  0  0  0
    3.5355   10.9904   -3.3568 H   0  0  0  0  0  0  0  0  0  0  0  0
    3.7451   11.4780   -1.5944 H   0  0  0  0  0  0  0  0  0  0  0  0
    2.5443    9.1733   -2.0326 H   0  0  0  0  0  0  0  0  0  0  0  0
   -0.4620   11.8654   -2.1274 H   0  0  0  0  0  0  0  0  0  0  0  0
    0.3452   11.7235    0.8436 H   0  0  0  0  0  0  0  0  0  0  0  0
   -0.9539   12.7675    0.1139 H   0  0  0  0  0  0  0  0  0  0  0  0
   -1.8828   10.7776    1.2542 H   0  0  0  0  0  0  0  0  0  0  0  0
   -2.2236   10.7972   -0.5201 H   0  0  0  0  0  0  0  0  0  0  0  0
   -1.5948    8.5713    0.1185 H   0  0  0  0  0  0  0  0  0  0  0  0
   -0.3950    9.1160    2.0080 H   0  0  0  0  0  0  0  0  0  0  0  0
   -2.0874    8.9614   -1.9855 H   0  0  0  0  0  0  0  0  0  0  0  0
   -1.0110    9.9571   -3.0230 H   0  0  0  0  0  0  0  0  0  0  0  0
   -0.8545    8.1676   -3.0230 H   0  0  0  0  0  0  0  0  0  0  0  0
    0.8455    7.4700   -0.1662 H   0  0  0  0  0  0  0  0  0  0  0  0
    0.0709    7.0138   -1.7214 H   0  0  0  0  0  0  0  0  0  0  0  0
    1.6560    7.8589   -1.7214 H   0  0  0  0  0  0  0  0  0  0  0  0
    1.4278   13.0332    0.6069 H   0  0  0  0  0  0  0  0  0  0  0  0
    2.9780   12.7058   -0.2395 H   0  0  0  0  0  0  0  0  0  0  0  0
    2.2876   14.3641   -0.2395 H   0  0  0  0  0  0  0  0  0  0  0  0
   -0.5274   14.1804   -1.3451 H   0  0  0  0  0  0  0  0  0  0  0  0
    1.0551   15.0976   -1.6429 H   0  0  0  0  0  0  0  0  0  0  0  0
   -0.6970   13.7185   -3.6960 H   0  0  0  0  0  0  0  0  0  0  0  0
   -0.3551   15.4833   -3.5070 H   0  0  0  0  0  0  0  0  0  0  0  0
    2.3534   15.5232   -2.7854 H   0  0  0  0  0  0  0  0  0  0  0  0
    3.2909   15.2241   -4.2881 H   0  0  0  0  0  0  0  0  0  0  0  0
    1.9521   16.4217   -4.2881 H   0  0  0  0  0  0  0  0  0  0  0  0
  1  2  1  0
  2  3  1  0
  3  4  1  0
  4  5  1  0
  5  6  1  0
  6  7  1  0
  7  8  1  0
  7  9  1  0
  2 10  1  0
 10 11  1  0
 11 12  1  0
 12 13  1  0
 13 14  1  6
 13 15  1  0
 15 16  1  0
 16 17  1  0
 17 18  2  0
 18 19  1  0
 19 20  1  0
 20 21  1  0
 21 22  1  0
 22 23  1  0
 22 24  1  0
 24 25  1  0
 24 26  1  0
 19 27  1  0
 27 28  1  1
 27 29  1  0
 29 30  1  0
 30 31  1  0
 31 32  1  1
  7  5  1  0
 31 10  1  0
 31 13  1  0
 27 15  1  0
 24 18  1  0
  1 33  1  0
  1 34  1  0
  1 35  1  0
  2 36  1  6
  3 37  1  0
  3 38  1  0
  4 39  1  0
  4 40  1  0
  5 41  1  6
  8 42  1  0
  8 43  1  0
  8 44  1  0
  9 45  1  0
  9 46  1  0
  9 47  1  0
 10 48  1  1
 11 49  1  0
 11 50  1  0
 12 51  1  0
 12 52  1  0
 14 53  1  0
 14 54  1  0
 14 55  1  0
 15 56  1  1
 16 57  1  0
 16 58  1  0
 17 59  1  0
 19 60  1  6
 20 61  1  0
 20 62  1  0
 21 63  1  0
 21 64  1  0
 22 65  1  1
 23 66  1  0
 25 67  1  0
 25 68  1  0
 25 69  1  0
 26 70  1  0
 26 71  1  0
 26 72  1  0
 28 73  1  0
 28 74  1  0
 28 75  1  0
 29 76  1  0
 29 77  1  0
 30 78  1  0
 30 79  1  0
 32 80  1  0
 32 81  1  0
 32 82  1  0
M  END
>  <meeko>  (8) 
{"is_sidechain": [false], "intermolecular_energy": 2.731, "internal_energy": -0.839}

$$$$
EPH_relaxed_0001_pdb2pqr_Repair_317_r2_0001_out
     RDKit          3D

 82 86  0  0  0  0  0  0  0  0999 V2000
   -0.9230    9.1720   -2.9700 C   0  0  0  0  0  0  0  0  0  0  0  0
   -0.0340    8.9310   -1.7470 C   0  0  2  0  0  0  0  0  0  0  0  0
   -0.8550    8.8040   -0.4480 C   0  0  0  0  0  0  0  0  0  0  0  0
   -1.1570   10.1470    0.2220 C   0  0  0  0  0  0  0  0  0  0  0  0
   -0.1300   10.4950    1.2560 C   0  0  2  0  0  0  0  0  0  0  0  0
   -0.6180   11.3000    2.3370 O   0  0  0  0  0  0  0  0  0  0  0  0
    0.3740   11.9060    1.4930 C   0  0  0  0  0  0  0  0  0  0  0  0
   -0.1340   13.0620    0.6900 C   0  0  0  0  0  0  0  0  0  0  0  0
    1.7020   12.0890    2.1590 C   0  0  0  0  0  0  0  0  0  0  0  0
    0.9830   10.0590   -1.6140 C   0  0  1  0  0  0  0  0  0  0  0  0
    2.4470    9.5610   -1.7430 C   0  0  0  0  0  0  0  0  0  0  0  0
    3.2400   10.6860   -2.4580 C   0  0  0  0  0  0  0  0  0  0  0  0
    2.2980   11.9130   -2.4180 C   0  0  1  0  0  0  0  0  0  0  0  0
    2.4860   12.5150   -0.9900 C   0  0  0  0  0  0  0  0  0  0  0  0
    2.5170   12.9880   -3.5320 C   0  0  2  0  0  0  0  0  0  0  0  0
    3.8910   13.6790   -3.5110 C   0  0  0  0  0  0  0  0  0  0  0  0
    3.9670   14.9220   -2.6880 C   0  0  0  0  0  0  0  0  0  0  0  0
    2.9130   15.6200   -2.2250 C   0  0  0  0  0  0  0  0  0  0  0  0
    1.4800   15.2250   -2.6040 C   0  0  1  0  0  0  0  0  0  0  0  0
    0.6890   16.4910   -3.0260 C   0  0  0  0  0  0  0  0  0  0  0  0
    0.7310   17.5880   -1.9660 C   0  0  0  0  0  0  0  0  0  0  0  0
    2.1700   17.9940   -1.6590 C   0  0  2  0  0  0  0  0  0  0  0  0
    2.7290   18.6240   -2.8160 O   0  0  0  0  0  0  0  0  0  0  0  0
    3.0670   16.7980   -1.2320 C   0  0  0  0  0  0  0  0  0  0  0  0
    2.6430   16.3060    0.1740 C   0  0  0  0  0  0  0  0  0  0  0  0
    4.5220   17.3190   -1.0890 C   0  0  0  0  0  0  0  0  0  0  0  0
    1.3420   14.0410   -3.6550 C   0  0  1  0  0  0  0  0  0  0  0  0
    1.4030   14.6080   -5.1070 C   0  0  0  0  0  0  0  0  0  0  0  0
   -0.0770   13.3760   -3.4970 C   0  0  0  0  0  0  0  0  0  0  0  0
   -0.2000   12.2390   -2.4650 C   0  0  0  0  0  0  0  0  0  0  0  0
    0.9140   11.2050   -2.6540 C   0  0  2  0  0  0  0  0  0  0  0  0
    0.7390   10.5650   -4.0730 C   0  0  0  0  0  0  0  0  0  0  0  0
   -1.9355    9.4465   -2.6390 H   0  0  0  0  0  0  0  0  0  0  0  0
   -0.5011    9.9882   -3.5749 H   0  0  0  0  0  0  0  0  0  0  0  0
   -0.9711    8.2545   -3.5749 H   0  0  0  0  0  0  0  0  0  0  0  0
    0.4890    7.9755   -1.9005 H   0  0  0  0  0  0  0  0  0  0  0  0
   -1.8096    8.3125   -0.6870 H   0  0  0  0  0  0  0  0  0  0  0  0
   -0.2486    8.2202    0.2602 H   0  0  0  0  0  0  0  0  0  0  0  0
   -1.1695   10.9338   -0.5466 H   0  0  0  0  0  0  0  0  0  0  0  0
   -2.1335   10.0682    0.7222 H   0  0  0  0  0  0  0  0  0  0  0  0
    0.3945    9.5426    1.0894 H   0  0  0  0  0  0  0  0  0  0  0  0
   -0.4824   13.8548    1.3684 H   0  0  0  0  0  0  0  0  0  0  0  0
    0.6757   13.4518    0.0557 H   0  0  0  0  0  0  0  0  0  0  0  0
   -0.9688   12.7292    0.0557 H   0  0  0  0  0  0  0  0  0  0  0  0
    1.5702   12.0708    3.2509 H   0  0  0  0  0  0  0  0  0  0  0  0
    2.3785   11.2756    1.8577 H   0  0  0  0  0  0  0  0  0  0  0  0
    2.1333   13.0551    1.8577 H   0  0  0  0  0  0  0  0  0  0  0  0
    0.7088   10.4386   -0.6186 H   0  0  0  0  0  0  0  0  0  0  0  0
    2.8723    9.3722   -0.7463 H   0  0  0  0  0  0  0  0  0  0  0  0
    2.4960    8.6204   -2.3111 H   0  0  0  0  0  0  0  0  0  0  0  0
    4.1782   10.8991   -1.9247 H   0  0  0  0  0  0  0  0  0  0  0  0
    3.5223   10.4099   -3.4847 H   0  0  0  0  0  0  0  0  0  0  0  0
    2.2474   11.7508   -0.2356 H   0  0  0  0  0  0  0  0  0  0  0  0
    3.5289   12.8414   -0.8641 H   0  0  0  0  0  0  0  0  0  0  0  0
    1.8142   13.3769   -0.8641 H   0  0  0  0  0  0  0  0  0  0  0  0
    2.5017   12.3830   -4.4506 H   0  0  0  0  0  0  0  0  0  0  0  0
    4.6255   12.9630   -3.1139 H   0  0  0  0  0  0  0  0  0  0  0  0
    4.0924   13.9875   -4.5475 H   0  0  0  0  0  0  0  0  0  0  0  0
    4.9695   15.2998   -2.4386 H   0  0  0  0  0  0  0  0  0  0  0  0
    1.0341   14.7908   -1.6970 H   0  0  0  0  0  0  0  0  0  0  0  0
    1.1231   16.8838   -3.9573 H   0  0  0  0  0  0  0  0  0  0  0  0
   -0.3625   16.1978   -3.1614 H   0  0  0  0  0  0  0  0  0  0  0  0
    0.1799   18.4659   -2.3342 H   0  0  0  0  0  0  0  0  0  0  0  0
    0.2700   17.2038   -1.0441 H   0  0  0  0  0  0  0  0  0  0  0  0
    2.1412   18.6859   -0.8043 H   0  0  0  0  0  0  0  0  0  0  0  0
    3.2830   17.9670   -3.2700 H   0  0  0  0  0  0  0  0  0  0  0  0
    3.1572   16.9027    0.9418 H   0  0  0  0  0  0  0  0  0  0  0  0
    1.5549   16.4192    0.2894 H   0  0  0  0  0  0  0  0  0  0  0  0
    2.9157   15.2466    0.2894 H   0  0  0  0  0  0  0  0  0  0  0  0
    4.7758   17.4099   -0.0225 H   0  0  0  0  0  0  0  0  0  0  0  0
    5.2135   16.6126   -1.5716 H   0  0  0  0  0  0  0  0  0  0  0  0
    4.6079   18.3038   -1.5716 H   0  0  0  0  0  0  0  0  0  0  0  0
    1.5206   15.7010   -5.0692 H   0  0  0  0  0  0  0  0  0  0  0  0
    2.2587   14.1653   -5.6379 H   0  0  0  0  0  0  0  0  0  0  0  0
    0.4727   14.3575   -5.6379 H   0  0  0  0  0  0  0  0  0  0  0  0
   -0.7846   14.1667   -3.2070 H   0  0  0  0  0  0  0  0  0  0  0  0
   -0.2845   12.9058   -4.4695 H   0  0  0  0  0  0  0  0  0  0  0  0
   -0.1297   12.6628   -1.4524 H   0  0  0  0  0  0  0  0  0  0  0  0
   -1.1699   11.7398   -2.6067 H   0  0  0  0  0  0  0  0  0  0  0  0
    0.4502    9.5090   -3.9659 H   0  0  0  0  0  0  0  0  0  0  0  0
   -0.0444   11.1052   -4.6248 H   0  0  0  0  0  0  0  0  0  0  0  0
    1.6883   10.6314   -4.6248 H   0  0  0  0  0  0  0  0  0  0  0  0
  1  2  1  0
  2  3  1  0
  3  4  1  0
  4  5  1  0
  5  6  1  0
  6  7  1  0
  7  8  1  0
  7  9  1  0
  2 10  1  0
 10 11  1  0
 11 12  1  0
 12 13  1  0
 13 14  1  1
 13 15  1  0
 15 16  1  0
 16 17  1  0
 17 18  2  0
 18 19  1  0
 19 20  1  0
 20 21  1  0
 21 22  1  0
 22 23  1  0
 22 24  1  0
 24 25  1  0
 24 26  1  0
 19 27  1  0
 27 28  1  6
 27 29  1  0
 29 30  1  0
 30 31  1  0
 31 32  1  6
  7  5  1  0
 31 10  1  0
 31 13  1  0
 27 15  1  0
 24 18  1  0
  1 33  1  0
  1 34  1  0
  1 35  1  0
  2 36  1  6
  3 37  1  0
  3 38  1  0
  4 39  1  0
  4 40  1  0
  5 41  1  1
  8 42  1  0
  8 43  1  0
  8 44  1  0
  9 45  1  0
  9 46  1  0
  9 47  1  0
 10 48  1  1
 11 49  1  0
 11 50  1  0
 12 51  1  0
 12 52  1  0
 14 53  1  0
 14 54  1  0
 14 55  1  0
 15 56  1  6
 16 57  1  0
 16 58  1  0
 17 59  1  0
 19 60  1  1
 20 61  1  0
 20 62  1  0
 21 63  1  0
 21 64  1  0
 22 65  1  1
 23 66  1  0
 25 67  1  0
 25 68  1  0
 25 69  1  0
 26 70  1  0
 26 71  1  0
 26 72  1  0
 28 73  1  0
 28 74  1  0
 28 75  1  0
 29 76  1  0
 29 77  1  0
 30 78  1  0
 30 79  1  0
 32 80  1  0
 32 81  1  0
 32 82  1  0
M  END
>  <meeko>  (9) 
{"is_sidechain": [false], "intermolecular_energy": 2.731, "internal_energy": -0.839}

$$$$
EPH_relaxed_0001_pdb2pqr_Repair_317_r2_0001_out
     RDKit          3D

 82 86  0  0  0  0  0  0  0  0999 V2000
    3.4370   17.5380   -1.1670 C   0  0  0  0  0  0  0  0  0  0  0  0
    2.3710   17.1520   -2.1960 C   0  0  2  0  0  0  0  0  0  0  0  0
    0.9690   17.6550   -1.7970 C   0  0  0  0  0  0  0  0  0  0  0  0
    0.9630   18.5220   -0.5350 C   0  0  0  0  0  0  0  0  0  0  0  0
   -0.1960   19.4720   -0.5210 C   0  0  2  0  0  0  0  0  0  0  0  0
   -0.5460   19.9710    0.7770 O   0  0  0  0  0  0  0  0  0  0  0  0
   -1.5310   19.1520    0.1260 C   0  0  0  0  0  0  0  0  0  0  0  0
   -1.7760   17.8400    0.8030 C   0  0  0  0  0  0  0  0  0  0  0  0
   -2.7420   19.9090   -0.3210 C   0  0  0  0  0  0  0  0  0  0  0  0
    2.3490   15.6390   -2.3800 C   0  0  1  0  0  0  0  0  0  0  0  0
    3.7370   15.0650   -2.7700 C   0  0  0  0  0  0  0  0  0  0  0  0
    3.8510   13.6740   -2.0950 C   0  0  0  0  0  0  0  0  0  0  0  0
    2.4150   13.3520   -1.6200 C   0  0  1  0  0  0  0  0  0  0  0  0
    1.6830   12.8150   -2.8900 C   0  0  0  0  0  0  0  0  0  0  0  0
    2.2900   12.3580   -0.4190 C   0  0  2  0  0  0  0  0  0  0  0  0
    2.8300   10.9420   -0.6850 C   0  0  0  0  0  0  0  0  0  0  0  0
    1.8340    9.9710   -1.2270 C   0  0  0  0  0  0  0  0  0  0  0  0
    0.4980   10.1380   -1.2240 C   0  0  0  0  0  0  0  0  0  0  0  0
   -0.1420   11.3550   -0.5460 C   0  0  1  0  0  0  0  0  0  0  0  0
   -1.3370   10.8920    0.3280 C   0  0  0  0  0  0  0  0  0  0  0  0
   -2.3490   10.0620   -0.4560 C   0  0  0  0  0  0  0  0  0  0  0  0
   -1.6870    8.8300   -1.0670 C   0  0  2  0  0  0  0  0  0  0  0  0
   -1.2810    7.9530   -0.0110 O   0  0  0  0  0  0  0  0  0  0  0  0
   -0.4620    9.1720   -1.9610 C   0  0  0  0  0  0  0  0  0  0  0  0
   -0.9440    9.8630   -3.2610 C   0  0  0  0  0  0  0  0  0  0  0  0
    0.1980    7.8360   -2.3990 C   0  0  0  0  0  0  0  0  0  0  0  0
    0.8520   12.3140    0.2400 C   0  0  1  0  0  0  0  0  0  0  0  0
    1.0460   11.8000    1.6990 C   0  0  0  0  0  0  0  0  0  0  0  0
    0.2030   13.7440    0.3550 C   0  0  0  0  0  0  0  0  0  0  0  0
    0.4620   14.7210   -0.8080 C   0  0  0  0  0  0  0  0  0  0  0  0
    1.9530   14.7800   -1.1530 C   0  0  2  0  0  0  0  0  0  0  0  0
    2.7120   15.3380    0.0990 C   0  0  0  0  0  0  0  0  0  0  0  0
    3.0369   17.3931   -0.1526 H   0  0  0  0  0  0  0  0  0  0  0  0
    4.3258   16.9046   -1.3045 H   0  0  0  0  0  0  0  0  0  0  0  0
    3.7142   18.5936   -1.3045 H   0  0  0  0  0  0  0  0  0  0  0  0
    2.6377   17.6379   -3.1462 H   0  0  0  0  0  0  0  0  0  0  0  0
    0.5635   18.2496   -2.6289 H   0  0  0  0  0  0  0  0  0  0  0  0
    0.3581   16.7664   -1.5798 H   0  0  0  0  0  0  0  0  0  0  0  0
    0.8983   17.8676    0.3468 H   0  0  0  0  0  0  0  0  0  0  0  0
    1.8909   19.1126   -0.5202 H   0  0  0  0  0  0  0  0  0  0  0  0
    0.0688   19.8475   -1.5204 H   0  0  0  0  0  0  0  0  0  0  0  0
   -1.7499   17.9797    1.8938 H   0  0  0  0  0  0  0  0  0  0  0  0
   -2.7620   17.4528    0.5064 H   0  0  0  0  0  0  0  0  0  0  0  0
   -0.9962   17.1231    0.5064 H   0  0  0  0  0  0  0  0  0  0  0  0
   -3.3014   20.2587    0.5592 H   0  0  0  0  0  0  0  0  0  0  0  0
   -2.4313   20.7740   -0.9254 H   0  0  0  0  0  0  0  0  0  0  0  0
   -3.3835   19.2508   -0.9254 H   0  0  0  0  0  0  0  0  0  0  0  0
    1.5781   15.5585   -3.1605 H   0  0  0  0  0  0  0  0  0  0  0  0
    3.8114   14.9631   -3.8627 H   0  0  0  0  0  0  0  0  0  0  0  0
    4.5472   15.7319   -2.4401 H   0  0  0  0  0  0  0  0  0  0  0  0
    4.1998   12.9199   -2.8159 H   0  0  0  0  0  0  0  0  0  0  0  0
    4.5750   13.6703   -1.2668 H   0  0  0  0  0  0  0  0  0  0  0  0
    0.8308   12.1898   -2.5852 H   0  0  0  0  0  0  0  0  0  0  0  0
    1.3199   13.6626   -3.4898 H   0  0  0  0  0  0  0  0  0  0  0  0
    2.3825   12.2142   -3.4898 H   0  0  0  0  0  0  0  0  0  0  0  0
    2.9681   12.8015    0.3250 H   0  0  0  0  0  0  0  0  0  0  0  0
    3.6543   11.0230   -1.4088 H   0  0  0  0  0  0  0  0  0  0  0  0
    3.1400   10.5458    0.2932 H   0  0  0  0  0  0  0  0  0  0  0  0
    2.2244    9.0409   -1.6657 H   0  0  0  0  0  0  0  0  0  0  0  0
   -0.5023   12.0012   -1.3600 H   0  0  0  0  0  0  0  0  0  0  0  0
   -0.9509   10.2839    1.1594 H   0  0  0  0  0  0  0  0  0  0  0  0
   -1.8538   11.7928    0.6907 H   0  0  0  0  0  0  0  0  0  0  0  0
   -3.1529    9.7398    0.2222 H   0  0  0  0  0  0  0  0  0  0  0  0
   -2.7567   10.6811   -1.2687 H   0  0  0  0  0  0  0  0  0  0  0  0
   -2.4284    8.3482   -1.7214 H   0  0  0  0  0  0  0  0  0  0  0  0
   -1.3590    8.4440    0.8250 H   0  0  0  0  0  0  0  0  0  0  0  0
   -1.5560   10.7404   -3.0047 H   0  0  0  0  0  0  0  0  0  0  0  0
   -0.0725   10.1835   -3.8507 H   0  0  0  0  0  0  0  0  0  0  0  0
   -1.5458    9.1558   -3.8507 H   0  0  0  0  0  0  0  0  0  0  0  0
    0.4833    7.2584   -1.5074 H   0  0  0  0  0  0  0  0  0  0  0  0
   -0.5162    7.2539   -2.9999 H   0  0  0  0  0  0  0  0  0  0  0  0
    1.0943    8.0495   -2.9999 H   0  0  0  0  0  0  0  0  0  0  0  0
    0.7489   12.5872    2.4076 H   0  0  0  0  0  0  0  0  0  0  0  0
    0.4227   10.9079    1.8594 H   0  0  0  0  0  0  0  0  0  0  0  0
    2.1033   11.5422    1.8594 H   0  0  0  0  0  0  0  0  0  0  0  0
   -0.8854   13.6094    0.4402 H   0  0  0  0  0  0  0  0  0  0  0  0
    0.6808   14.2069    1.2311 H   0  0  0  0  0  0  0  0  0  0  0  0
   -0.0989   14.3844   -1.6924 H   0  0  0  0  0  0  0  0  0  0  0  0
    0.1328   15.7251   -0.5023 H   0  0  0  0  0  0  0  0  0  0  0  0
    2.2219   14.9777    1.0155 H   0  0  0  0  0  0  0  0  0  0  0  0
    3.7555   14.9904    0.0802 H   0  0  0  0  0  0  0  0  0  0  0  0
    2.6915   16.4376    0.0802 H   0  0  0  0  0  0  0  0  0  0  0  0
  1  2  1  0
  2  3  1  0
  3  4  1  0
  4  5  1  0
  5  6  1  0
  6  7  1  0
  7  8  1  0
  7  9  1  0
  2 10  1  0
 10 11  1  0
 11 12  1  0
 12 13  1  0
 13 14  1  6
 13 15  1  0
 15 16  1  0
 16 17  1  0
 17 18  2  0
 18 19  1  0
 19 20  1  0
 20 21  1  0
 21 22  1  0
 22 23  1  0
 22 24  1  0
 24 25  1  0
 24 26  1  0
 19 27  1  0
 27 28  1  1
 27 29  1  0
 29 30  1  0
 30 31  1  0
 31 32  1  1
  7  5  1  0
 31 10  1  0
 31 13  1  0
 27 15  1  0
 24 18  1  0
  1 33  1  0
  1 34  1  0
  1 35  1  0
  2 36  1  6
  3 37  1  0
  3 38  1  0
  4 39  1  0
  4 40  1  0
  5 41  1  6
  8 42  1  0
  8 43  1  0
  8 44  1  0
  9 45  1  0
  9 46  1  0
  9 47  1  0
 10 48  1  6
 11 49  1  0
 11 50  1  0
 12 51  1  0
 12 52  1  0
 14 53  1  0
 14 54  1  0
 14 55  1  0
 15 56  1  1
 16 57  1  0
 16 58  1  0
 17 59  1  0
 19 60  1  6
 20 61  1  0
 20 62  1  0
 21 63  1  0
 21 64  1  0
 22 65  1  6
 23 66  1  0
 25 67  1  0
 25 68  1  0
 25 69  1  0
 26 70  1  0
 26 71  1  0
 26 72  1  0
 28 73  1  0
 28 74  1  0
 28 75  1  0
 29 76  1  0
 29 77  1  0
 30 78  1  0
 30 79  1  0
 32 80  1  0
 32 81  1  0
 32 82  1  0
M  END
>  <meeko>  (10) 
{"is_sidechain": [false], "intermolecular_energy": 2.731, "internal_energy": -0.839}

$$$$
EPH_relaxed_0001_pdb2pqr_Repair_317_r2_0001_out
     RDKit          3D

 82 86  0  0  0  0  0  0  0  0999 V2000
   -1.1980   10.5900    1.5750 C   0  0  0  0  0  0  0  0  0  0  0  0
   -1.8450   10.2370    0.2320 C   0  0  2  0  0  0  0  0  0  0  0  0
   -2.6600    8.9310    0.3060 C   0  0  0  0  0  0  0  0  0  0  0  0
   -4.0170    9.0120   -0.3980 C   0  0  0  0  0  0  0  0  0  0  0  0
   -4.5320    7.6540   -0.7680 C   0  0  2  0  0  0  0  0  0  0  0  0
   -4.6940    7.4370   -2.1760 O   0  0  0  0  0  0  0  0  0  0  0  0
   -5.8960    7.4160   -1.3890 C   0  0  0  0  0  0  0  0  0  0  0  0
   -6.8300    8.5490   -1.6760 C   0  0  0  0  0  0  0  0  0  0  0  0
   -6.5120    6.0570   -1.2660 C   0  0  0  0  0  0  0  0  0  0  0  0
   -0.7740   10.1230   -0.8460 C   0  0  1  0  0  0  0  0  0  0  0  0
   -1.1920    9.1790   -2.0050 C   0  0  0  0  0  0  0  0  0  0  0  0
   -0.5900    9.7730   -3.3050 C   0  0  0  0  0  0  0  0  0  0  0  0
    0.4200   10.8380   -2.8160 C   0  0  1  0  0  0  0  0  0  0  0  0
    1.7030   10.0320   -2.4400 C   0  0  0  0  0  0  0  0  0  0  0  0
    0.7390   11.9980   -3.8140 C   0  0  2  0  0  0  0  0  0  0  0  0
    1.3980   11.5600   -5.1340 C   0  0  0  0  0  0  0  0  0  0  0  0
    2.8910   11.5360   -5.1230 C   0  0  0  0  0  0  0  0  0  0  0  0
    3.6760   12.1200   -4.1990 C   0  0  0  0  0  0  0  0  0  0  0  0
    3.0720   12.9770   -3.0800 C   0  0  1  0  0  0  0  0  0  0  0  0
    3.8740   14.2990   -2.9490 C   0  0  0  0  0  0  0  0  0  0  0  0
    5.3680   14.0590   -2.7580 C   0  0  0  0  0  0  0  0  0  0  0  0
    5.9440   13.2530   -3.9200 C   0  0  2  0  0  0  0  0  0  0  0  0
    5.8820   14.0480   -5.1080 O   0  0  0  0  0  0  0  0  0  0  0  0
    5.2090   11.9040   -4.1530 C   0  0  0  0  0  0  0  0  0  0  0  0
    5.5290   10.9290   -2.9930 C   0  0  0  0  0  0  0  0  0  0  0  0
    5.7950   11.2580   -5.4380 C   0  0  0  0  0  0  0  0  0  0  0  0
    1.5030   13.2210   -3.1640 C   0  0  1  0  0  0  0  0  0  0  0  0
    1.2050   14.4610   -4.0620 C   0  0  0  0  0  0  0  0  0  0  0  0
    0.9600   13.5710   -1.7280 C   0  0  0  0  0  0  0  0  0  0  0  0
    0.5490   12.3870   -0.8330 C   0  0  0  0  0  0  0  0  0  0  0  0
   -0.3700   11.4220   -1.5880 C   0  0  2  0  0  0  0  0  0  0  0  0
   -1.6780   12.1990   -1.9590 C   0  0  0  0  0  0  0  0  0  0  0  0
   -1.8413   10.2390    2.3954 H   0  0  0  0  0  0  0  0  0  0  0  0
   -0.2139   10.1038    1.6470 H   0  0  0  0  0  0  0  0  0  0  0  0
   -1.0742   11.6806    1.6470 H   0  0  0  0  0  0  0  0  0  0  0  0
   -2.5437   11.0475   -0.0226 H   0  0  0  0  0  0  0  0  0  0  0  0
   -2.0726    8.1280   -0.1633 H   0  0  0  0  0  0  0  0  0  0  0  0
   -2.8608    8.7371    1.3700 H   0  0  0  0  0  0  0  0  0  0  0  0
   -4.7396    9.4959    0.2756 H   0  0  0  0  0  0  0  0  0  0  0  0
   -3.8891    9.5937   -1.3228 H   0  0  0  0  0  0  0  0  0  0  0  0
   -4.0264    7.2016    0.0979 H   0  0  0  0  0  0  0  0  0  0  0  0
   -7.1854    8.9802   -0.7285 H   0  0  0  0  0  0  0  0  0  0  0  0
   -6.3026    9.3212   -2.2553 H   0  0  0  0  0  0  0  0  0  0  0  0
   -7.6887    8.1786   -2.2553 H   0  0  0  0  0  0  0  0  0  0  0  0
   -6.6277    5.8018   -0.2023 H   0  0  0  0  0  0  0  0  0  0  0  0
   -7.4985    6.0562   -1.7527 H   0  0  0  0  0  0  0  0  0  0  0  0
   -5.8624    5.3146   -1.7527 H   0  0  0  0  0  0  0  0  0  0  0  0
    0.0662    9.7629   -0.2341 H   0  0  0  0  0  0  0  0  0  0  0  0
   -0.7955    8.1677   -1.8316 H   0  0  0  0  0  0  0  0  0  0  0  0
   -2.2870    9.1017   -2.0761 H   0  0  0  0  0  0  0  0  0  0  0  0
   -0.0795    8.9926   -3.8885 H   0  0  0  0  0  0  0  0  0  0  0  0
   -1.3601   10.2000   -3.9643 H   0  0  0  0  0  0  0  0  0  0  0  0
    1.7928    9.9756   -1.3451 H   0  0  0  0  0  0  0  0  0  0  0  0
    1.6323    9.0157   -2.8550 H   0  0  0  0  0  0  0  0  0  0  0  0
    2.5879   10.5368   -2.8550 H   0  0  0  0  0  0  0  0  0  0  0  0
   -0.2643   12.3577   -4.0860 H   0  0  0  0  0  0  0  0  0  0  0  0
    1.0433   10.5461   -5.3712 H   0  0  0  0  0  0  0  0  0  0  0  0
    1.1107   12.3130   -5.8827 H   0  0  0  0  0  0  0  0  0  0  0  0
    3.3917   10.9950   -5.9395 H   0  0  0  0  0  0  0  0  0  0  0  0
    3.1725   12.3868   -2.1572 H   0  0  0  0  0  0  0  0  0  0  0  0
    3.7261   14.8934   -3.8627 H   0  0  0  0  0  0  0  0  0  0  0  0
    3.5038   14.8278   -2.0583 H   0  0  0  0  0  0  0  0  0  0  0  0
    5.8841   15.0288   -2.7017 H   0  0  0  0  0  0  0  0  0  0  0  0
    5.5162   13.4900   -1.8284 H   0  0  0  0  0  0  0  0  0  0  0  0
    6.9842   13.0024   -3.6647 H   0  0  0  0  0  0  0  0  0  0  0  0
    6.2840   13.5330   -5.8280 H   0  0  0  0  0  0  0  0  0  0  0  0
    5.3625   11.4362   -2.0312 H   0  0  0  0  0  0  0  0  0  0  0  0
    4.8725   10.0491   -3.0619 H   0  0  0  0  0  0  0  0  0  0  0  0
    6.5792   10.6092   -3.0619 H   0  0  0  0  0  0  0  0  0  0  0  0
    6.5099   10.4699   -5.1589 H   0  0  0  0  0  0  0  0  0  0  0  0
    4.9799   10.8198   -6.0326 H   0  0  0  0  0  0  0  0  0  0  0  0
    6.3103   12.0267   -6.0326 H   0  0  0  0  0  0  0  0  0  0  0  0
    0.9954   15.3331   -3.4251 H   0  0  0  0  0  0  0  0  0  0  0  0
    2.0780   14.6721   -4.6971 H   0  0  0  0  0  0  0  0  0  0  0  0
    0.3314   14.2524   -4.6971 H   0  0  0  0  0  0  0  0  0  0  0  0
    1.7483   14.1285   -1.2010 H   0  0  0  0  0  0  0  0  0  0  0  0
    0.0324   14.1363   -1.9011 H   0  0  0  0  0  0  0  0  0  0  0  0
    1.4525   11.8473   -0.5130 H   0  0  0  0  0  0  0  0  0  0  0  0
    0.0053   12.7789    0.0392 H   0  0  0  0  0  0  0  0  0  0  0  0
   -2.1955   12.5064   -1.0383 H   0  0  0  0  0  0  0  0  0  0  0  0
   -1.4199   13.0904   -2.5497 H   0  0  0  0  0  0  0  0  0  0  0  0
   -2.3373   11.5460   -2.5497 H   0  0  0  0  0  0  0  0  0  0  0  0
  1  2  1  0
  2  3  1  0
  3  4  1  0
  4  5  1  0
  5  6  1  0
  6  7  1  0
  7  8  1  0
  7  9  1  0
  2 10  1  0
 10 11  1  0
 11 12  1  0
 12 13  1  0
 13 14  1  1
 13 15  1  0
 15 16  1  0
 16 17  1  0
 17 18  2  0
 18 19  1  0
 19 20  1  0
 20 21  1  0
 21 22  1  0
 22 23  1  0
 22 24  1  0
 24 25  1  0
 24 26  1  0
 19 27  1  0
 27 28  1  6
 27 29  1  0
 29 30  1  0
 30 31  1  0
 31 32  1  6
  7  5  1  0
 31 10  1  0
 31 13  1  0
 27 15  1  0
 24 18  1  0
  1 33  1  0
  1 34  1  0
  1 35  1  0
  2 36  1  6
  3 37  1  0
  3 38  1  0
  4 39  1  0
  4 40  1  0
  5 41  1  1
  8 42  1  0
  8 43  1  0
  8 44  1  0
  9 45  1  0
  9 46  1  0
  9 47  1  0
 10 48  1  1
 11 49  1  0
 11 50  1  0
 12 51  1  0
 12 52  1  0
 14 53  1  0
 14 54  1  0
 14 55  1  0
 15 56  1  6
 16 57  1  0
 16 58  1  0
 17 59  1  0
 19 60  1  1
 20 61  1  0
 20 62  1  0
 21 63  1  0
 21 64  1  0
 22 65  1  1
 23 66  1  0
 25 67  1  0
 25 68  1  0
 25 69  1  0
 26 70  1  0
 26 71  1  0
 26 72  1  0
 28 73  1  0
 28 74  1  0
 28 75  1  0
 29 76  1  0
 29 77  1  0
 30 78  1  0
 30 79  1  0
 32 80  1  0
 32 81  1  0
 32 82  1  0
M  END
>  <meeko>  (11) 
{"is_sidechain": [false], "intermolecular_energy": 2.731, "internal_energy": -0.839}

$$$$
EPH_relaxed_0001_pdb2pqr_Repair_317_r2_0001_out
     RDKit          3D

 82 86  0  0  0  0  0  0  0  0999 V2000
   -2.8830    7.4590   -2.0590 C   0  0  0  0  0  0  0  0  0  0  0  0
   -2.8510    8.5750   -1.0110 C   0  0  2  0  0  0  0  0  0  0  0  0
   -4.2670    9.0340   -0.6080 C   0  0  0  0  0  0  0  0  0  0  0  0
   -5.2600    7.8830   -0.4290 C   0  0  0  0  0  0  0  0  0  0  0  0
   -5.9710    7.5590   -1.7080 C   0  0  2  0  0  0  0  0  0  0  0  0
   -6.9150    8.5500   -2.1350 O   0  0  0  0  0  0  0  0  0  0  0  0
   -7.4570    7.2650   -1.7880 C   0  0  0  0  0  0  0  0  0  0  0  0
   -8.3220    7.2790   -0.5670 C   0  0  0  0  0  0  0  0  0  0  0  0
   -7.9710    6.4900   -2.9620 C   0  0  0  0  0  0  0  0  0  0  0  0
   -2.0490    9.7590   -1.5370 C   0  0  1  0  0  0  0  0  0  0  0  0
   -2.6410   11.1250   -1.0970 C   0  0  0  0  0  0  0  0  0  0  0  0
   -1.4420   12.0820   -0.8740 C   0  0  0  0  0  0  0  0  0  0  0  0
   -0.2350   11.3490   -1.5060 C   0  0  1  0  0  0  0  0  0  0  0  0
   -0.3450   11.6400   -3.0350 C   0  0  0  0  0  0  0  0  0  0  0  0
    1.1740   11.7280   -0.9460 C   0  0  2  0  0  0  0  0  0  0  0  0
    1.5860   13.1960   -1.1560 C   0  0  0  0  0  0  0  0  0  0  0  0
    2.3250   13.4750   -2.4230 C   0  0  0  0  0  0  0  0  0  0  0  0
    2.8930   12.5490   -3.2180 C   0  0  0  0  0  0  0  0  0  0  0  0
    2.9090   11.0690   -2.8160 C   0  0  1  0  0  0  0  0  0  0  0  0
    4.3290   10.4870   -3.0370 C   0  0  0  0  0  0  0  0  0  0  0  0
    4.8390   10.7110   -4.4570 C   0  0  0  0  0  0  0  0  0  0  0  0
    4.8640   12.1990   -4.7990 C   0  0  2  0  0  0  0  0  0  0  0  0
    5.8490   12.8420   -3.9840 O   0  0  0  0  0  0  0  0  0  0  0  0
    3.4880   12.8950   -4.6050 C   0  0  0  0  0  0  0  0  0  0  0  0
    2.5000   12.4080   -5.6930 C   0  0  0  0  0  0  0  0  0  0  0  0
    3.6850   14.4160   -4.8470 C   0  0  0  0  0  0  0  0  0  0  0  0
    2.3300   10.7360   -1.3730 C   0  0  1  0  0  0  0  0  0  0  0  0
    3.4560   10.8760   -0.3030 C   0  0  0  0  0  0  0  0  0  0  0  0
    1.8700    9.2310   -1.3390 C   0  0  0  0  0  0  0  0  0  0  0  0
    0.4270    8.9350   -1.7910 C   0  0  0  0  0  0  0  0  0  0  0  0
   -0.5680    9.8680   -1.0950 C   0  0  2  0  0  0  0  0  0  0  0  0
   -0.4960    9.5820    0.4440 C   0  0  0  0  0  0  0  0  0  0  0  0
   -2.9110    6.4823   -1.5538 H   0  0  0  0  0  0  0  0  0  0  0  0
   -3.7783    7.5723   -2.6880 H   0  0  0  0  0  0  0  0  0  0  0  0
   -1.9827    7.5208   -2.6880 H   0  0  0  0  0  0  0  0  0  0  0  0
   -2.3671    8.1695   -0.1102 H   0  0  0  0  0  0  0  0  0  0  0  0
   -4.1966    9.5828    0.3427 H   0  0  0  0  0  0  0  0  0  0  0  0
   -4.6468    9.6612   -1.4279 H   0  0  0  0  0  0  0  0  0  0  0  0
   -4.7137    6.9908   -0.0891 H   0  0  0  0  0  0  0  0  0  0  0  0
   -6.0120    8.1916    0.3122 H   0  0  0  0  0  0  0  0  0  0  0  0
   -5.0911    7.0194   -2.0882 H   0  0  0  0  0  0  0  0  0  0  0  0
   -7.6878    7.2687    0.3317 H   0  0  0  0  0  0  0  0  0  0  0  0
   -8.9425    8.1873   -0.5676 H   0  0  0  0  0  0  0  0  0  0  0  0
   -8.9715    6.3912   -0.5676 H   0  0  0  0  0  0  0  0  0  0  0  0
   -8.5462    5.6228   -2.6055 H   0  0  0  0  0  0  0  0  0  0  0  0
   -8.6207    7.1354   -3.5714 H   0  0  0  0  0  0  0  0  0  0  0  0
   -7.1237    6.1426   -3.5714 H   0  0  0  0  0  0  0  0  0  0  0  0
   -2.1059    9.5544   -2.6163 H   0  0  0  0  0  0  0  0  0  0  0  0
   -3.3014   11.5220   -1.8820 H   0  0  0  0  0  0  0  0  0  0  0  0
   -3.2376   11.0192   -0.1789 H   0  0  0  0  0  0  0  0  0  0  0  0
   -1.6163   13.0460   -1.3743 H   0  0  0  0  0  0  0  0  0  0  0  0
   -1.2817   12.3089    0.1903 H   0  0  0  0  0  0  0  0  0  0  0  0
   -0.7302   12.6590   -3.1875 H   0  0  0  0  0  0  0  0  0  0  0  0
    0.6489   11.5506   -3.4977 H   0  0  0  0  0  0  0  0  0  0  0  0
   -1.0313   10.9155   -3.4977 H   0  0  0  0  0  0  0  0  0  0  0  0
    1.0366   11.6085    0.1388 H   0  0  0  0  0  0  0  0  0  0  0  0
    0.6728   13.8093   -1.1528 H   0  0  0  0  0  0  0  0  0  0  0  0
    2.2811   13.4374   -0.3383 H   0  0  0  0  0  0  0  0  0  0  0  0
    2.4128   14.5267   -2.7332 H   0  0  0  0  0  0  0  0  0  0  0  0
    2.1924   10.5657   -3.4817 H   0  0  0  0  0  0  0  0  0  0  0  0
    5.0219   10.9712   -2.3331 H   0  0  0  0  0  0  0  0  0  0  0  0
    4.2744    9.4012   -2.8695 H   0  0  0  0  0  0  0  0  0  0  0  0
    5.8577   10.3048   -4.5420 H   0  0  0  0  0  0  0  0  0  0  0  0
    4.1620   10.2008   -5.1580 H   0  0  0  0  0  0  0  0  0  0  0  0
    5.1122   12.2889   -5.8669 H   0  0  0  0  0  0  0  0  0  0  0  0
    5.5380   12.8070   -3.0640 H   0  0  0  0  0  0  0  0  0  0  0  0
    1.6123   11.9704   -5.2128 H   0  0  0  0  0  0  0  0  0  0  0  0
    2.1958   13.2594   -6.3196 H   0  0  0  0  0  0  0  0  0  0  0  0
    2.9900   11.6482   -6.3196 H   0  0  0  0  0  0  0  0  0  0  0  0
    3.7523   14.9355   -3.8797 H   0  0  0  0  0  0  0  0  0  0  0  0
    4.6118   14.5797   -5.4164 H   0  0  0  0  0  0  0  0  0  0  0  0
    2.8304   14.8104   -5.4164 H   0  0  0  0  0  0  0  0  0  0  0  0
    3.0146   10.8211    0.7031 H   0  0  0  0  0  0  0  0  0  0  0  0
    4.1846   10.0615   -0.4287 H   0  0  0  0  0  0  0  0  0  0  0  0
    3.9629   11.8441   -0.4287 H   0  0  0  0  0  0  0  0  0  0  0  0
    2.5469    8.6613   -1.9927 H   0  0  0  0  0  0  0  0  0  0  0  0
    1.9037    8.9437   -0.2777 H   0  0  0  0  0  0  0  0  0  0  0  0
    0.3542    9.0786   -2.8792 H   0  0  0  0  0  0  0  0  0  0  0  0
    0.1813    7.8970   -1.5222 H   0  0  0  0  0  0  0  0  0  0  0  0
   -0.7278   10.5028    0.9993 H   0  0  0  0  0  0  0  0  0  0  0  0
   -1.2258    8.8019    0.7065 H   0  0  0  0  0  0  0  0  0  0  0  0
    0.5161    9.2405    0.7065 H   0  0  0  0  0  0  0  0  0  0  0  0
  1  2  1  0
  2  3  1  0
  3  4  1  0
  4  5  1  0
  5  6  1  0
  6  7  1  0
  7  8  1  0
  7  9  1  0
  2 10  1  0
 10 11  1  0
 11 12  1  0
 12 13  1  0
 13 14  1  6
 13 15  1  0
 15 16  1  0
 16 17  1  0
 17 18  2  0
 18 19  1  0
 19 20  1  0
 20 21  1  0
 21 22  1  0
 22 23  1  0
 22 24  1  0
 24 25  1  0
 24 26  1  0
 19 27  1  0
 27 28  1  1
 27 29  1  0
 29 30  1  0
 30 31  1  0
 31 32  1  1
  7  5  1  0
 31 10  1  0
 31 13  1  0
 27 15  1  0
 24 18  1  0
  1 33  1  0
  1 34  1  0
  1 35  1  0
  2 36  1  1
  3 37  1  0
  3 38  1  0
  4 39  1  0
  4 40  1  0
  5 41  1  6
  8 42  1  0
  8 43  1  0
  8 44  1  0
  9 45  1  0
  9 46  1  0
  9 47  1  0
 10 48  1  6
 11 49  1  0
 11 50  1  0
 12 51  1  0
 12 52  1  0
 14 53  1  0
 14 54  1  0
 14 55  1  0
 15 56  1  1
 16 57  1  0
 16 58  1  0
 17 59  1  0
 19 60  1  6
 20 61  1  0
 20 62  1  0
 21 63  1  0
 21 64  1  0
 22 65  1  6
 23 66  1  0
 25 67  1  0
 25 68  1  0
 25 69  1  0
 26 70  1  0
 26 71  1  0
 26 72  1  0
 28 73  1  0
 28 74  1  0
 28 75  1  0
 29 76  1  0
 29 77  1  0
 30 78  1  0
 30 79  1  0
 32 80  1  0
 32 81  1  0
 32 82  1  0
M  END
>  <meeko>  (12) 
{"is_sidechain": [false], "intermolecular_energy": 2.731, "internal_energy": -0.839}

$$$$
EPH_relaxed_0001_pdb2pqr_Repair_317_r2_0001_out
     RDKit          3D

 82 86  0  0  0  0  0  0  0  0999 V2000
   -1.1470    7.9780   -1.4150 C   0  0  0  0  0  0  0  0  0  0  0  0
   -1.5990    8.9080   -0.2860 C   0  0  2  0  0  0  0  0  0  0  0  0
   -3.1330    8.9450   -0.1420 C   0  0  0  0  0  0  0  0  0  0  0  0
   -3.8730    8.1840   -1.2450 C   0  0  0  0  0  0  0  0  0  0  0  0
   -5.3140    7.9640   -0.8960 C   0  0  2  0  0  0  0  0  0  0  0  0
   -5.6810    6.5910   -0.7060 O   0  0  0  0  0  0  0  0  0  0  0  0
   -6.3000    7.2640   -1.8140 C   0  0  0  0  0  0  0  0  0  0  0  0
   -5.8830    6.7420   -3.1530 C   0  0  0  0  0  0  0  0  0  0  0  0
   -7.7620    7.5220   -1.6230 C   0  0  0  0  0  0  0  0  0  0  0  0
   -1.0640   10.3160   -0.5260 C   0  0  1  0  0  0  0  0  0  0  0  0
   -0.4510   10.9480    0.7510 C   0  0  0  0  0  0  0  0  0  0  0  0
    0.7440   11.8210    0.2880 C   0  0  0  0  0  0  0  0  0  0  0  0
    0.5770   11.9290   -1.2450 C   0  0  1  0  0  0  0  0  0  0  0  0
   -0.4870   13.0520   -1.4550 C   0  0  0  0  0  0  0  0  0  0  0  0
    1.8790   12.2090   -2.0640 C   0  0  2  0  0  0  0  0  0  0  0  0
    2.5700   13.5480   -1.7550 C   0  0  0  0  0  0  0  0  0  0  0  0
    2.1300   14.7020   -2.5940 C   0  0  0  0  0  0  0  0  0  0  0  0
    1.4320   14.6120   -3.7420 C   0  0  0  0  0  0  0  0  0  0  0  0
    1.0970   13.2470   -4.3560 C   0  0  1  0  0  0  0  0  0  0  0  0
    1.4100   13.2710   -5.8750 C   0  0  0  0  0  0  0  0  0  0  0  0
    0.7150   14.4220   -6.5970 C   0  0  0  0  0  0  0  0  0  0  0  0
    1.1190   15.7660   -5.9950 C   0  0  2  0  0  0  0  0  0  0  0  0
    2.5060   15.9920   -6.2620 O   0  0  0  0  0  0  0  0  0  0  0  0
    0.8590   15.8550   -4.4660 C   0  0  0  0  0  0  0  0  0  0  0  0
   -0.6660   15.9130   -4.1990 C   0  0  0  0  0  0  0  0  0  0  0  0
    1.4390   17.2040   -3.9610 C   0  0  0  0  0  0  0  0  0  0  0  0
    1.7250   11.9840   -3.6230 C   0  0  1  0  0  0  0  0  0  0  0  0
    3.1560   11.7060   -4.1760 C   0  0  0  0  0  0  0  0  0  0  0  0
    0.8630   10.7110   -3.9620 C   0  0  0  0  0  0  0  0  0  0  0  0
   -0.3400   10.4220   -3.0440 C   0  0  0  0  0  0  0  0  0  0  0  0
    0.0700   10.4770   -1.5700 C   0  0  2  0  0  0  0  0  0  0  0  0
    1.1240    9.3440   -1.3240 C   0  0  0  0  0  0  0  0  0  0  0  0
   -0.7044    7.0674   -0.9849 H   0  0  0  0  0  0  0  0  0  0  0  0
   -2.0137    7.7066   -2.0356 H   0  0  0  0  0  0  0  0  0  0  0  0
   -0.3981    8.4918   -2.0356 H   0  0  0  0  0  0  0  0  0  0  0  0
   -1.1893    8.5096    0.6539 H   0  0  0  0  0  0  0  0  0  0  0  0
   -3.4017    8.4999    0.8274 H   0  0  0  0  0  0  0  0  0  0  0  0
   -3.4378    9.9992   -0.2186 H   0  0  0  0  0  0  0  0  0  0  0  0
   -3.8167    8.7643   -2.1778 H   0  0  0  0  0  0  0  0  0  0  0  0
   -3.3948    7.2004   -1.3631 H   0  0  0  0  0  0  0  0  0  0  0  0
   -5.3563    8.9254   -0.3631 H   0  0  0  0  0  0  0  0  0  0  0  0
   -5.2016    5.8891   -3.0181 H   0  0  0  0  0  0  0  0  0  0  0  0
   -6.7721    6.4160   -3.7126 H   0  0  0  0  0  0  0  0  0  0  0  0
   -5.3687    7.5372   -3.7126 H   0  0  0  0  0  0  0  0  0  0  0  0
   -7.9898    7.5622   -0.5476 H   0  0  0  0  0  0  0  0  0  0  0  0
   -8.0292    8.4812   -2.0905 H   0  0  0  0  0  0  0  0  0  0  0  0
   -8.3414    6.7122   -2.0905 H   0  0  0  0  0  0  0  0  0  0  0  0
   -1.9813   10.8027   -0.8888 H   0  0  0  0  0  0  0  0  0  0  0  0
   -1.1997   11.5710    1.2623 H   0  0  0  0  0  0  0  0  0  0  0  0
   -0.1228   10.1716    1.4577 H   0  0  0  0  0  0  0  0  0  0  0  0
    0.7015   12.8163    0.7544 H   0  0  0  0  0  0  0  0  0  0  0  0
    1.7134   11.3859    0.5724 H   0  0  0  0  0  0  0  0  0  0  0  0
   -0.8328   13.4170   -0.4767 H   0  0  0  0  0  0  0  0  0  0  0  0
   -0.0369   13.8828   -2.0182 H   0  0  0  0  0  0  0  0  0  0  0  0
   -1.3409   12.6474   -2.0182 H   0  0  0  0  0  0  0  0  0  0  0  0
    2.5615   11.4294   -1.6945 H   0  0  0  0  0  0  0  0  0  0  0  0
    2.3713   13.7979   -0.7024 H   0  0  0  0  0  0  0  0  0  0  0  0
    3.6365   13.3985   -1.9789 H   0  0  0  0  0  0  0  0  0  0  0  0
    2.3985   15.7101   -2.2451 H   0  0  0  0  0  0  0  0  0  0  0  0
    0.0181   13.1002   -4.2000 H   0  0  0  0  0  0  0  0  0  0  0  0
    2.4968   13.3751   -6.0096 H   0  0  0  0  0  0  0  0  0  0  0  0
    1.0369   12.3311   -6.3079 H   0  0  0  0  0  0  0  0  0  0  0  0
    0.9980   14.4038   -7.6598 H   0  0  0  0  0  0  0  0  0  0  0  0
   -0.3727   14.3003   -6.4869 H   0  0  0  0  0  0  0  0  0  0  0  0
    0.4934   16.5395   -6.4643 H   0  0  0  0  0  0  0  0  0  0  0  0
    2.7740   15.3790   -6.9680 H   0  0  0  0  0  0  0  0  0  0  0  0
   -0.8483   15.9199   -3.1142 H   0  0  0  0  0  0  0  0  0  0  0  0
   -1.0821   16.8276   -4.6466 H   0  0  0  0  0  0  0  0  0  0  0  0
   -1.1504   15.0326   -4.6466 H   0  0  0  0  0  0  0  0  0  0  0  0
    1.4427   17.2127   -2.8610 H   0  0  0  0  0  0  0  0  0  0  0  0
    2.4677   17.3227   -4.3321 H   0  0  0  0  0  0  0  0  0  0  0  0
    0.8175   18.0322   -4.3321 H   0  0  0  0  0  0  0  0  0  0  0  0
    3.8536   11.5705   -3.3364 H   0  0  0  0  0  0  0  0  0  0  0  0
    3.1407   10.7940   -4.7909 H   0  0  0  0  0  0  0  0  0  0  0  0
    3.4833   12.5574   -4.7909 H   0  0  0  0  0  0  0  0  0  0  0  0
    0.4789   10.8321   -4.9856 H   0  0  0  0  0  0  0  0  0  0  0  0
    1.5429    9.8576   -3.8227 H   0  0  0  0  0  0  0  0  0  0  0  0
   -1.1220   11.1734   -3.2283 H   0  0  0  0  0  0  0  0  0  0  0  0
   -0.7161    9.4124   -3.2660 H   0  0  0  0  0  0  0  0  0  0  0  0
    1.2597    9.1981   -0.2422 H   0  0  0  0  0  0  0  0  0  0  0  0
    0.7685    8.4075   -1.7785 H   0  0  0  0  0  0  0  0  0  0  0  0
    2.0837    9.6310   -1.7785 H   0  0  0  0  0  0  0  0  0  0  0  0
  1  2  1  0
  2  3  1  0
  3  4  1  0
  4  5  1  0
  5  6  1  0
  6  7  1  0
  7  8  1  0
  7  9  1  0
  2 10  1  0
 10 11  1  0
 11 12  1  0
 12 13  1  0
 13 14  1  1
 13 15  1  0
 15 16  1  0
 16 17  1  0
 17 18  2  0
 18 19  1  0
 19 20  1  0
 20 21  1  0
 21 22  1  0
 22 23  1  0
 22 24  1  0
 24 25  1  0
 24 26  1  0
 19 27  1  0
 27 28  1  6
 27 29  1  0
 29 30  1  0
 30 31  1  0
 31 32  1  6
  7  5  1  0
 31 10  1  0
 31 13  1  0
 27 15  1  0
 24 18  1  0
  1 33  1  0
  1 34  1  0
  1 35  1  0
  2 36  1  1
  3 37  1  0
  3 38  1  0
  4 39  1  0
  4 40  1  0
  5 41  1  1
  8 42  1  0
  8 43  1  0
  8 44  1  0
  9 45  1  0
  9 46  1  0
  9 47  1  0
 10 48  1  6
 11 49  1  0
 11 50  1  0
 12 51  1  0
 12 52  1  0
 14 53  1  0
 14 54  1  0
 14 55  1  0
 15 56  1  1
 16 57  1  0
 16 58  1  0
 17 59  1  0
 19 60  1  6
 20 61  1  0
 20 62  1  0
 21 63  1  0
 21 64  1  0
 22 65  1  6
 23 66  1  0
 25 67  1  0
 25 68  1  0
 25 69  1  0
 26 70  1  0
 26 71  1  0
 26 72  1  0
 28 73  1  0
 28 74  1  0
 28 75  1  0
 29 76  1  0
 29 77  1  0
 30 78  1  0
 30 79  1  0
 32 80  1  0
 32 81  1  0
 32 82  1  0
M  END
>  <meeko>  (13) 
{"is_sidechain": [false], "intermolecular_energy": 2.731, "internal_energy": -0.839}

$$$$
EPH_relaxed_0001_pdb2pqr_Repair_317_r2_0001_out
     RDKit          3D

 82 86  0  0  0  0  0  0  0  0999 V2000
   -5.0410    6.0660   -1.7820 C   0  0  0  0  0  0  0  0  0  0  0  0
   -5.4070    7.5530   -1.8070 C   0  0  2  0  0  0  0  0  0  0  0  0
   -5.2150    8.2220   -0.4310 C   0  0  0  0  0  0  0  0  0  0  0  0
   -4.1940    9.3630   -0.4380 C   0  0  0  0  0  0  0  0  0  0  0  0
   -2.7870    8.8470   -0.4810 C   0  0  2  0  0  0  0  0  0  0  0  0
   -1.9100    9.4200    0.4970 O   0  0  0  0  0  0  0  0  0  0  0  0
   -1.5960    9.6990   -0.8770 C   0  0  0  0  0  0  0  0  0  0  0  0
   -1.7570   11.1370   -1.2580 C   0  0  0  0  0  0  0  0  0  0  0  0
   -0.3570    9.0140   -1.3630 C   0  0  0  0  0  0  0  0  0  0  0  0
   -6.8480    7.7250   -2.2740 C   0  0  1  0  0  0  0  0  0  0  0  0
   -7.1310    7.0030   -3.6180 C   0  0  0  0  0  0  0  0  0  0  0  0
   -8.5890    6.4820   -3.5470 C   0  0  0  0  0  0  0  0  0  0  0  0
   -9.2000    7.1980   -2.3210 C   0  0  1  0  0  0  0  0  0  0  0  0
   -9.5990    8.6150   -2.8410 C   0  0  0  0  0  0  0  0  0  0  0  0
  -10.4030    6.4780   -1.6280 C   0  0  2  0  0  0  0  0  0  0  0  0
  -11.6520    6.2990   -2.5100 C   0  0  0  0  0  0  0  0  0  0  0  0
  -12.6440    7.4130   -2.4430 C   0  0  0  0  0  0  0  0  0  0  0  0
  -12.6800    8.3730   -1.5000 C   0  0  0  0  0  0  0  0  0  0  0  0
  -11.7140    8.3430   -0.3080 C   0  0  1  0  0  0  0  0  0  0  0  0
  -12.5000    8.6120    1.0020 C   0  0  0  0  0  0  0  0  0  0  0  0
  -13.3130    9.9010    0.9420 C   0  0  0  0  0  0  0  0  0  0  0  0
  -14.3020    9.8690   -0.2200 C   0  0  2  0  0  0  0  0  0  0  0  0
  -15.2870    8.8640    0.0400 O   0  0  0  0  0  0  0  0  0  0  0  0
  -13.6260    9.5950   -1.5930 C   0  0  0  0  0  0  0  0  0  0  0  0
  -12.7890   10.8270   -2.0150 C   0  0  0  0  0  0  0  0  0  0  0  0
  -14.7480    9.4470   -2.6560 C   0  0  0  0  0  0  0  0  0  0  0  0
  -10.7780    7.0630   -0.2070 C   0  0  1  0  0  0  0  0  0  0  0  0
  -11.5150    5.9250    0.5630 C   0  0  0  0  0  0  0  0  0  0  0  0
   -9.5050    7.4240    0.6460 C   0  0  0  0  0  0  0  0  0  0  0  0
   -8.3050    8.0210   -0.1140 C   0  0  0  0  0  0  0  0  0  0  0  0
   -7.9650    7.1810   -1.3490 C   0  0  2  0  0  0  0  0  0  0  0  0
   -7.5390    5.7570   -0.8550 C   0  0  0  0  0  0  0  0  0  0  0  0
   -4.9574    5.7264   -0.7391 H   0  0  0  0  0  0  0  0  0  0  0  0
   -5.8235    5.4871   -2.2945 H   0  0  0  0  0  0  0  0  0  0  0  0
   -4.0792    5.9164   -2.2945 H   0  0  0  0  0  0  0  0  0  0  0  0
   -4.7253    8.0501   -2.5128 H   0  0  0  0  0  0  0  0  0  0  0  0
   -6.1843    8.6255   -0.1028 H   0  0  0  0  0  0  0  0  0  0  0  0
   -4.8291    7.4497    0.2507 H   0  0  0  0  0  0  0  0  0  0  0  0
   -4.3698    9.9934   -1.3221 H   0  0  0  0  0  0  0  0  0  0  0  0
   -4.3193    9.9413    0.4893 H   0  0  0  0  0  0  0  0  0  0  0  0
   -3.1337    7.8600   -0.8212 H   0  0  0  0  0  0  0  0  0  0  0  0
   -1.8258   11.7518   -0.3485 H   0  0  0  0  0  0  0  0  0  0  0  0
   -0.8892   11.4581   -1.8528 H   0  0  0  0  0  0  0  0  0  0  0  0
   -2.6743   11.2582   -1.8528 H   0  0  0  0  0  0  0  0  0  0  0  0
    0.2412    8.6833   -0.5011 H   0  0  0  0  0  0  0  0  0  0  0  0
   -0.6354    8.1416   -1.9725 H   0  0  0  0  0  0  0  0  0  0  0  0
    0.2337    9.7137   -1.9725 H   0  0  0  0  0  0  0  0  0  0  0  0
   -6.8973    8.8230   -2.3181 H   0  0  0  0  0  0  0  0  0  0  0  0
   -7.0204    7.7063   -4.4565 H   0  0  0  0  0  0  0  0  0  0  0  0
   -6.4234    6.1763   -3.7790 H   0  0  0  0  0  0  0  0  0  0  0  0
   -9.1395    6.7426   -4.4630 H   0  0  0  0  0  0  0  0  0  0  0  0
   -8.6365    5.3867   -3.4568 H   0  0  0  0  0  0  0  0  0  0  0  0
   -9.7863    9.2803   -1.9852 H   0  0  0  0  0  0  0  0  0  0  0  0
   -8.7814    9.0250   -3.4521 H   0  0  0  0  0  0  0  0  0  0  0  0
  -10.5104    8.5381   -3.4521 H   0  0  0  0  0  0  0  0  0  0  0  0
  -10.0070    5.4654   -1.4611 H   0  0  0  0  0  0  0  0  0  0  0  0
  -11.3199    6.2017   -3.5541 H   0  0  0  0  0  0  0  0  0  0  0  0
  -12.1695    5.4067   -2.1279 H   0  0  0  0  0  0  0  0  0  0  0  0
  -13.4104    7.4526   -3.2311 H   0  0  0  0  0  0  0  0  0  0  0  0
  -10.9905    9.1532   -0.4816 H   0  0  0  0  0  0  0  0  0  0  0  0
  -13.1857    7.7707    1.1809 H   0  0  0  0  0  0  0  0  0  0  0  0
  -11.7671    8.7170    1.8155 H   0  0  0  0  0  0  0  0  0  0  0  0
  -13.8683   10.0205    1.8840 H   0  0  0  0  0  0  0  0  0  0  0  0
  -12.6229   10.7445    0.7924 H   0  0  0  0  0  0  0  0  0  0  0  0
  -14.7608   10.8663   -0.2897 H   0  0  0  0  0  0  0  0  0  0  0  0
  -16.0870    9.0990   -0.4600 H   0  0  0  0  0  0  0  0  0  0  0  0
  -12.4319   11.3527   -1.1171 H   0  0  0  0  0  0  0  0  0  0  0  0
  -11.9273   10.4972   -2.6139 H   0  0  0  0  0  0  0  0  0  0  0  0
  -13.4131   11.5066   -2.6139 H   0  0  0  0  0  0  0  0  0  0  0  0
  -15.7169    9.3192   -2.1511 H   0  0  0  0  0  0  0  0  0  0  0  0
  -14.7785   10.3489   -3.2850 H   0  0  0  0  0  0  0  0  0  0  0  0
  -14.5435    8.5680   -3.2850 H   0  0  0  0  0  0  0  0  0  0  0  0
  -11.4099    6.0873    1.6459 H   0  0  0  0  0  0  0  0  0  0  0  0
  -12.5814    5.9307    0.2932 H   0  0  0  0  0  0  0  0  0  0  0  0
  -11.0737    4.9542    0.2932 H   0  0  0  0  0  0  0  0  0  0  0  0
   -9.8121    8.1543    1.4091 H   0  0  0  0  0  0  0  0  0  0  0  0
   -9.1443    6.4643    1.0445 H   0  0  0  0  0  0  0  0  0  0  0  0
   -8.5536    9.0442   -0.4321 H   0  0  0  0  0  0  0  0  0  0  0  0
   -7.4331    8.0273    0.5567 H   0  0  0  0  0  0  0  0  0  0  0  0
   -7.5330    5.7370    0.2448 H   0  0  0  0  0  0  0  0  0  0  0  0
   -8.2529    5.0095   -1.2314 H   0  0  0  0  0  0  0  0  0  0  0  0
   -6.5319    5.5244   -1.2314 H   0  0  0  0  0  0  0  0  0  0  0  0
  1  2  1  0
  2  3  1  0
  3  4  1  0
  4  5  1  0
  5  6  1  0
  6  7  1  0
  7  8  1  0
  7  9  1  0
  2 10  1  0
 10 11  1  0
 11 12  1  0
 12 13  1  0
 13 14  1  6
 13 15  1  0
 15 16  1  0
 16 17  1  0
 17 18  2  0
 18 19  1  0
 19 20  1  0
 20 21  1  0
 21 22  1  0
 22 23  1  0
 22 24  1  0
 24 25  1  0
 24 26  1  0
 19 27  1  0
 27 28  1  1
 27 29  1  0
 29 30  1  0
 30 31  1  0
 31 32  1  1
  7  5  1  0
 31 10  1  0
 31 13  1  0
 27 15  1  0
 24 18  1  0
  1 33  1  0
  1 34  1  0
  1 35  1  0
  2 36  1  6
  3 37  1  0
  3 38  1  0
  4 39  1  0
  4 40  1  0
  5 41  1  6
  8 42  1  0
  8 43  1  0
  8 44  1  0
  9 45  1  0
  9 46  1  0
  9 47  1  0
 10 48  1  6
 11 49  1  0
 11 50  1  0
 12 51  1  0
 12 52  1  0
 14 53  1  0
 14 54  1  0
 14 55  1  0
 15 56  1  1
 16 57  1  0
 16 58  1  0
 17 59  1  0
 19 60  1  6
 20 61  1  0
 20 62  1  0
 21 63  1  0
 21 64  1  0
 22 65  1  6
 23 66  1  0
 25 67  1  0
 25 68  1  0
 25 69  1  0
 26 70  1  0
 26 71  1  0
 26 72  1  0
 28 73  1  0
 28 74  1  0
 28 75  1  0
 29 76  1  0
 29 77  1  0
 30 78  1  0
 30 79  1  0
 32 80  1  0
 32 81  1  0
 32 82  1  0
M  END
>  <meeko>  (14) 
{"is_sidechain": [false], "intermolecular_energy": 2.731, "internal_energy": -0.839}

$$$$
EPH_relaxed_0001_pdb2pqr_Repair_317_r2_0001_out
     RDKit          3D

 82 86  0  0  0  0  0  0  0  0999 V2000
    3.5810   15.1810   -7.4050 C   0  0  0  0  0  0  0  0  0  0  0  0
    2.0690   15.4130   -7.3450 C   0  0  2  0  0  0  0  0  0  0  0  0
    1.6700   16.7940   -7.9030 C   0  0  0  0  0  0  0  0  0  0  0  0
    2.1960   17.0610   -9.3160 C   0  0  0  0  0  0  0  0  0  0  0  0
    1.4000   16.3270  -10.3520 C   0  0  2  0  0  0  0  0  0  0  0  0
    0.9490   15.0270   -9.9500 O   0  0  0  0  0  0  0  0  0  0  0  0
    1.8850   15.0640  -11.0400 C   0  0  0  0  0  0  0  0  0  0  0  0
    3.2170   14.4630  -10.7180 C   0  0  0  0  0  0  0  0  0  0  0  0
    1.2860   14.6940  -12.3610 C   0  0  0  0  0  0  0  0  0  0  0  0
    1.5780   15.2690   -5.9100 C   0  0  1  0  0  0  0  0  0  0  0  0
    0.2750   16.0690   -5.6410 C   0  0  0  0  0  0  0  0  0  0  0  0
   -0.5590   15.2390   -4.6320 C   0  0  0  0  0  0  0  0  0  0  0  0
    0.4230   14.1680   -4.1020 C   0  0  1  0  0  0  0  0  0  0  0  0
    1.2580   14.8980   -3.0040 C   0  0  0  0  0  0  0  0  0  0  0  0
   -0.2190   12.8510   -3.5570 C   0  0  2  0  0  0  0  0  0  0  0  0
   -1.1380   13.0290   -2.3360 C   0  0  0  0  0  0  0  0  0  0  0  0
   -0.4630   12.9160   -1.0090 C   0  0  0  0  0  0  0  0  0  0  0  0
    0.7630   12.4030   -0.7960 C   0  0  0  0  0  0  0  0  0  0  0  0
    1.5650   11.7770   -1.9440 C   0  0  1  0  0  0  0  0  0  0  0  0
    2.1580   10.4200   -1.4810 C   0  0  0  0  0  0  0  0  0  0  0  0
    2.9750   10.5460   -0.1990 C   0  0  0  0  0  0  0  0  0  0  0  0
    2.1270   11.1170    0.9340 C   0  0  2  0  0  0  0  0  0  0  0  0
    1.1130   10.1680    1.2750 O   0  0  0  0  0  0  0  0  0  0  0  0
    1.4690   12.4800    0.5800 C   0  0  0  0  0  0  0  0  0  0  0  0
    2.5570   13.5800    0.5070 C   0  0  0  0  0  0  0  0  0  0  0  0
    0.5310   12.8760    1.7520 C   0  0  0  0  0  0  0  0  0  0  0  0
    0.8110   11.6700   -3.3390 C   0  0  1  0  0  0  0  0  0  0  0  0
   -0.0100   10.3450   -3.3990 C   0  0  0  0  0  0  0  0  0  0  0  0
    1.8770   11.5840   -4.4940 C   0  0  0  0  0  0  0  0  0  0  0  0
    2.3840   12.9190   -5.0720 C   0  0  0  0  0  0  0  0  0  0  0  0
    1.2150   13.8450   -5.4210 C   0  0  2  0  0  0  0  0  0  0  0  0
    0.3690   13.1460   -6.5390 C   0  0  0  0  0  0  0  0  0  0  0  0
    3.9833   15.1193   -6.3831 H   0  0  0  0  0  0  0  0  0  0  0  0
    3.7868   14.2408   -7.9375 H   0  0  0  0  0  0  0  0  0  0  0  0
    4.0593   16.0163   -7.9375 H   0  0  0  0  0  0  0  0  0  0  0  0
    1.5921   14.6513   -7.9793 H   0  0  0  0  0  0  0  0  0  0  0  0
    0.5720   16.8565   -7.9234 H   0  0  0  0  0  0  0  0  0  0  0  0
    2.1207   17.5502   -7.2434 H   0  0  0  0  0  0  0  0  0  0  0  0
    2.1374   18.1403   -9.5201 H   0  0  0  0  0  0  0  0  0  0  0  0
    3.2358   16.7058   -9.3675 H   0  0  0  0  0  0  0  0  0  0  0  0
    0.9947   17.2715  -10.7440 H   0  0  0  0  0  0  0  0  0  0  0  0
    3.3400   14.4075   -9.6263 H   0  0  0  0  0  0  0  0  0  0  0  0
    3.2757   13.4512  -11.1455 H   0  0  0  0  0  0  0  0  0  0  0  0
    4.0145   15.0885  -11.1455 H   0  0  0  0  0  0  0  0  0  0  0  0
    0.3606   14.1224  -12.1968 H   0  0  0  0  0  0  0  0  0  0  0  0
    1.0566   15.6080  -12.9285 H   0  0  0  0  0  0  0  0  0  0  0  0
    2.0006   14.0797  -12.9285 H   0  0  0  0  0  0  0  0  0  0  0  0
    2.4664   15.6351   -5.3745 H   0  0  0  0  0  0  0  0  0  0  0  0
    0.5163   17.0535   -5.2137 H   0  0  0  0  0  0  0  0  0  0  0  0
   -0.2851   16.2366   -6.5728 H   0  0  0  0  0  0  0  0  0  0  0  0
   -0.9201   15.8752   -3.8105 H   0  0  0  0  0  0  0  0  0  0  0  0
   -1.4517   14.7936   -5.0954 H   0  0  0  0  0  0  0  0  0  0  0  0
    0.9049   14.5893   -2.0090 H   0  0  0  0  0  0  0  0  0  0  0  0
    2.3200   14.6334   -3.1145 H   0  0  0  0  0  0  0  0  0  0  0  0
    1.1377   15.9858   -3.1145 H   0  0  0  0  0  0  0  0  0  0  0  0
   -0.8784   12.5503   -4.3845 H   0  0  0  0  0  0  0  0  0  0  0  0
   -1.5986   14.0259   -2.3995 H   0  0  0  0  0  0  0  0  0  0  0  0
   -1.8652   12.2048   -2.3792 H   0  0  0  0  0  0  0  0  0  0  0  0
   -1.0145   13.2832   -0.1309 H   0  0  0  0  0  0  0  0  0  0  0  0
    2.3784   12.4830   -2.1676 H   0  0  0  0  0  0  0  0  0  0  0  0
    1.3316    9.7157   -1.3048 H   0  0  0  0  0  0  0  0  0  0  0  0
    2.8324   10.0625   -2.2731 H   0  0  0  0  0  0  0  0  0  0  0  0
    3.3429    9.5512    0.0927 H   0  0  0  0  0  0  0  0  0  0  0  0
    3.8176   11.2282   -0.3852 H   0  0  0  0  0  0  0  0  0  0  0  0
    2.7980   11.3042    1.7853 H   0  0  0  0  0  0  0  0  0  0  0  0
    0.3870   10.6530    1.7020 H   0  0  0  0  0  0  0  0  0  0  0  0
    2.8489   13.8751    1.5257 H   0  0  0  0  0  0  0  0  0  0  0  0
    3.4359   13.1914   -0.0283 H   0  0  0  0  0  0  0  0  0  0  0  0
    2.1588   14.4546   -0.0283 H   0  0  0  0  0  0  0  0  0  0  0  0
    1.0307   12.6650    2.7089 H   0  0  0  0  0  0  0  0  0  0  0  0
    0.2981   13.9492    1.6887 H   0  0  0  0  0  0  0  0  0  0  0  0
   -0.4005   12.2944    1.6887 H   0  0  0  0  0  0  0  0  0  0  0  0
   -0.2240    9.9996   -2.3768 H   0  0  0  0  0  0  0  0  0  0  0  0
   -0.9559   10.5236   -3.9313 H   0  0  0  0  0  0  0  0  0  0  0  0
    0.5710    9.5774   -3.9313 H   0  0  0  0  0  0  0  0  0  0  0  0
    2.7484   11.0385   -4.1027 H   0  0  0  0  0  0  0  0  0  0  0  0
    1.3587   11.0877   -5.3277 H   0  0  0  0  0  0  0  0  0  0  0  0
    3.0246   13.4135   -4.3269 H   0  0  0  0  0  0  0  0  0  0  0  0
    2.9520   12.7101   -5.9905 H   0  0  0  0  0  0  0  0  0  0  0  0
   -0.3996   12.5110   -6.0742 H   0  0  0  0  0  0  0  0  0  0  0  0
   -0.1158   13.9105   -7.1639 H   0  0  0  0  0  0  0  0  0  0  0  0
    1.0283   12.5257   -7.1639 H   0  0  0  0  0  0  0  0  0  0  0  0
  1  2  1  0
  2  3  1  0
  3  4  1  0
  4  5  1  0
  5  6  1  0
  6  7  1  0
  7  8  1  0
  7  9  1  0
  2 10  1  0
 10 11  1  0
 11 12  1  0
 12 13  1  0
 13 14  1  1
 13 15  1  0
 15 16  1  0
 16 17  1  0
 17 18  2  0
 18 19  1  0
 19 20  1  0
 20 21  1  0
 21 22  1  0
 22 23  1  0
 22 24  1  0
 24 25  1  0
 24 26  1  0
 19 27  1  0
 27 28  1  1
 27 29  1  0
 29 30  1  0
 30 31  1  0
 31 32  1  6
  7  5  1  0
 31 10  1  0
 31 13  1  0
 27 15  1  0
 24 18  1  0
  1 33  1  0
  1 34  1  0
  1 35  1  0
  2 36  1  6
  3 37  1  0
  3 38  1  0
  4 39  1  0
  4 40  1  0
  5 41  1  6
  8 42  1  0
  8 43  1  0
  8 44  1  0
  9 45  1  0
  9 46  1  0
  9 47  1  0
 10 48  1  1
 11 49  1  0
 11 50  1  0
 12 51  1  0
 12 52  1  0
 14 53  1  0
 14 54  1  0
 14 55  1  0
 15 56  1  6
 16 57  1  0
 16 58  1  0
 17 59  1  0
 19 60  1  6
 20 61  1  0
 20 62  1  0
 21 63  1  0
 21 64  1  0
 22 65  1  1
 23 66  1  0
 25 67  1  0
 25 68  1  0
 25 69  1  0
 26 70  1  0
 26 71  1  0
 26 72  1  0
 28 73  1  0
 28 74  1  0
 28 75  1  0
 29 76  1  0
 29 77  1  0
 30 78  1  0
 30 79  1  0
 32 80  1  0
 32 81  1  0
 32 82  1  0
M  END
>  <meeko>  (15) 
{"is_sidechain": [false], "intermolecular_energy": 2.731, "internal_energy": -0.839}

$$$$
EPH_relaxed_0001_pdb2pqr_Repair_317_r2_0001_out
     RDKit          3D

 82 86  0  0  0  0  0  0  0  0999 V2000
   -0.3770    8.2860   -1.5500 C   0  0  0  0  0  0  0  0  0  0  0  0
    0.2510    9.5020   -0.8620 C   0  0  2  0  0  0  0  0  0  0  0  0
   -0.2620    9.6820    0.5810 C   0  0  0  0  0  0  0  0  0  0  0  0
    0.6650   10.5220    1.4630 C   0  0  0  0  0  0  0  0  0  0  0  0
   -0.0780   11.6260    2.1540 C   0  0  2  0  0  0  0  0  0  0  0  0
    0.5120   12.9250    2.0110 O   0  0  0  0  0  0  0  0  0  0  0  0
    0.4750   12.3890    3.3440 C   0  0  0  0  0  0  0  0  0  0  0  0
    1.8240   12.0780    3.9120 C   0  0  0  0  0  0  0  0  0  0  0  0
   -0.4860   13.0930    4.2510 C   0  0  0  0  0  0  0  0  0  0  0  0
   -0.0260   10.7600   -1.6750 C   0  0  1  0  0  0  0  0  0  0  0  0
   -0.9640   11.7530   -0.9380 C   0  0  0  0  0  0  0  0  0  0  0  0
   -0.4950   13.1800   -1.3220 C   0  0  0  0  0  0  0  0  0  0  0  0
    0.4690   12.9670   -2.5120 C   0  0  1  0  0  0  0  0  0  0  0  0
   -0.4590   12.8010   -3.7560 C   0  0  0  0  0  0  0  0  0  0  0  0
    1.5440   14.0800   -2.7380 C   0  0  2  0  0  0  0  0  0  0  0  0
    0.9820   15.4730   -3.0690 C   0  0  0  0  0  0  0  0  0  0  0  0
    0.7910   15.7550   -4.5230 C   0  0  0  0  0  0  0  0  0  0  0  0
    1.3210   15.0410   -5.5330 C   0  0  0  0  0  0  0  0  0  0  0  0
    2.2870   13.8810   -5.2580 C   0  0  1  0  0  0  0  0  0  0  0  0
    3.5140   13.9940   -6.1990 C   0  0  0  0  0  0  0  0  0  0  0  0
    3.1180   14.0860   -7.6690 C   0  0  0  0  0  0  0  0  0  0  0  0
    2.2050   15.2850   -7.9140 C   0  0  2  0  0  0  0  0  0  0  0  0
    2.9520   16.4860   -7.6930 O   0  0  0  0  0  0  0  0  0  0  0  0
    0.9380   15.2850   -7.0140 C   0  0  0  0  0  0  0  0  0  0  0  0
   -0.0180   14.1520   -7.4610 C   0  0  0  0  0  0  0  0  0  0  0  0
    0.1780   16.6160   -7.2590 C   0  0  0  0  0  0  0  0  0  0  0  0
    2.7000   13.6700   -3.7380 C   0  0  1  0  0  0  0  0  0  0  0  0
    3.9280   14.5680   -3.3910 C   0  0  0  0  0  0  0  0  0  0  0  0
    3.1680   12.1810   -3.5340 C   0  0  0  0  0  0  0  0  0  0  0  0
    2.0750   11.1490   -3.1960 C   0  0  0  0  0  0  0  0  0  0  0  0
    1.1880   11.6470   -2.0500 C   0  0  2  0  0  0  0  0  0  0  0  0
    2.0900   11.8020   -0.7790 C   0  0  0  0  0  0  0  0  0  0  0  0
   -0.7411    7.5811   -0.7881 H   0  0  0  0  0  0  0  0  0  0  0  0
   -1.2185    8.6140   -2.1780 H   0  0  0  0  0  0  0  0  0  0  0  0
    0.3776    7.7897   -2.1780 H   0  0  0  0  0  0  0  0  0  0  0  0
    1.3357    9.3275   -0.8068 H   0  0  0  0  0  0  0  0  0  0  0  0
   -1.2445   10.1750    0.5414 H   0  0  0  0  0  0  0  0  0  0  0  0
   -0.3134    8.6798    1.0314 H   0  0  0  0  0  0  0  0  0  0  0  0
    1.1221    9.8702    2.2221 H   0  0  0  0  0  0  0  0  0  0  0  0
    1.4329   10.9757    0.8193 H   0  0  0  0  0  0  0  0  0  0  0  0
   -1.0389   11.1178    1.9852 H   0  0  0  0  0  0  0  0  0  0  0  0
    1.7709   12.0902    5.0107 H   0  0  0  0  0  0  0  0  0  0  0  0
    2.1446   11.0824    3.5714 H   0  0  0  0  0  0  0  0  0  0  0  0
    2.5481   12.8328    3.5714 H   0  0  0  0  0  0  0  0  0  0  0  0
   -0.2145   12.8941    5.2983 H   0  0  0  0  0  0  0  0  0  0  0  0
   -0.4440   14.1756    4.0605 H   0  0  0  0  0  0  0  0  0  0  0  0
   -1.5055   12.7265    4.0605 H   0  0  0  0  0  0  0  0  0  0  0  0
   -0.4524   10.3037   -2.5805 H   0  0  0  0  0  0  0  0  0  0  0  0
   -2.0054   11.5979   -1.2566 H   0  0  0  0  0  0  0  0  0  0  0  0
   -0.9211   11.6028    0.1508 H   0  0  0  0  0  0  0  0  0  0  0  0
   -1.3509   13.8024   -1.6222 H   0  0  0  0  0  0  0  0  0  0  0  0
   -0.0119   13.7004   -0.4819 H   0  0  0  0  0  0  0  0  0  0  0  0
   -1.4906   12.6165   -3.4218 H   0  0  0  0  0  0  0  0  0  0  0  0
   -0.4283   13.7189   -4.3614 H   0  0  0  0  0  0  0  0  0  0  0  0
   -0.1120   11.9507   -4.3614 H   0  0  0  0  0  0  0  0  0  0  0  0
    2.0011   14.1724   -1.7417 H   0  0  0  0  0  0  0  0  0  0  0  0
    0.0055   15.5723   -2.5724 H   0  0  0  0  0  0  0  0  0  0  0  0
    1.7320   16.1956   -2.7149 H   0  0  0  0  0  0  0  0  0  0  0  0
    0.1646   16.6187   -4.7908 H   0  0  0  0  0  0  0  0  0  0  0  0
    1.7291   12.9601   -5.4833 H   0  0  0  0  0  0  0  0  0  0  0  0
    4.0826   14.8964   -5.9300 H   0  0  0  0  0  0  0  0  0  0  0  0
    4.1167   13.0826   -6.0723 H   0  0  0  0  0  0  0  0  0  0  0  0
    4.0260   14.1941   -8.2804 H   0  0  0  0  0  0  0  0  0  0  0  0
    2.5757   13.1695   -7.9446 H   0  0  0  0  0  0  0  0  0  0  0  0
    1.8509   15.2226   -8.9536 H   0  0  0  0  0  0  0  0  0  0  0  0
    3.8930   16.2750   -7.8210 H   0  0  0  0  0  0  0  0  0  0  0  0
   -0.4375   13.6549   -6.5739 H   0  0  0  0  0  0  0  0  0  0  0  0
   -0.8343   14.5773   -8.0633 H   0  0  0  0  0  0  0  0  0  0  0  0
    0.5386   13.4189   -8.0633 H   0  0  0  0  0  0  0  0  0  0  0  0
   -0.0827   17.0726   -6.2928 H   0  0  0  0  0  0  0  0  0  0  0  0
    0.8190   17.3047   -7.8289 H   0  0  0  0  0  0  0  0  0  0  0  0
   -0.7409   16.4140   -7.8289 H   0  0  0  0  0  0  0  0  0  0  0  0
    4.0304   14.6429   -2.2983 H   0  0  0  0  0  0  0  0  0  0  0  0
    4.8398   14.1221   -3.8150 H   0  0  0  0  0  0  0  0  0  0  0  0
    3.7795   15.5721   -3.8150 H   0  0  0  0  0  0  0  0  0  0  0  0
    3.6567   11.8555   -4.4641 H   0  0  0  0  0  0  0  0  0  0  0  0
    3.8245   12.2041   -2.6517 H   0  0  0  0  0  0  0  0  0  0  0  0
    1.4517   10.9799   -4.0864 H   0  0  0  0  0  0  0  0  0  0  0  0
    2.5604   10.2128   -2.8832 H   0  0  0  0  0  0  0  0  0  0  0  0
    1.4717   11.6958    0.1246 H   0  0  0  0  0  0  0  0  0  0  0  0
    2.8680   11.0244   -0.7845 H   0  0  0  0  0  0  0  0  0  0  0  0
    2.5638   12.7947   -0.7845 H   0  0  0  0  0  0  0  0  0  0  0  0
  1  2  1  0
  2  3  1  0
  3  4  1  0
  4  5  1  0
  5  6  1  0
  6  7  1  0
  7  8  1  0
  7  9  1  0
  2 10  1  0
 10 11  1  0
 11 12  1  0
 12 13  1  0
 13 14  1  6
 13 15  1  0
 15 16  1  0
 16 17  1  0
 17 18  2  0
 18 19  1  0
 19 20  1  0
 20 21  1  0
 21 22  1  0
 22 23  1  0
 22 24  1  0
 24 25  1  0
 24 26  1  0
 19 27  1  0
 27 28  1  1
 27 29  1  0
 29 30  1  0
 30 31  1  0
 31 32  1  1
  7  5  1  0
 31 10  1  0
 31 13  1  0
 27 15  1  0
 24 18  1  0
  1 33  1  0
  1 34  1  0
  1 35  1  0
  2 36  1  1
  3 37  1  0
  3 38  1  0
  4 39  1  0
  4 40  1  0
  5 41  1  1
  8 42  1  0
  8 43  1  0
  8 44  1  0
  9 45  1  0
  9 46  1  0
  9 47  1  0
 10 48  1  6
 11 49  1  0
 11 50  1  0
 12 51  1  0
 12 52  1  0
 14 53  1  0
 14 54  1  0
 14 55  1  0
 15 56  1  1
 16 57  1  0
 16 58  1  0
 17 59  1  0
 19 60  1  6
 20 61  1  0
 20 62  1  0
 21 63  1  0
 21 64  1  0
 22 65  1  6
 23 66  1  0
 25 67  1  0
 25 68  1  0
 25 69  1  0
 26 70  1  0
 26 71  1  0
 26 72  1  0
 28 73  1  0
 28 74  1  0
 28 75  1  0
 29 76  1  0
 29 77  1  0
 30 78  1  0
 30 79  1  0
 32 80  1  0
 32 81  1  0
 32 82  1  0
M  END
>  <meeko>  (16) 
{"is_sidechain": [false], "intermolecular_energy": 2.731, "internal_energy": -0.839}

$$$$
EPH_relaxed_0001_pdb2pqr_Repair_317_r2_0001_out
     RDKit          3D

 82 86  0  0  0  0  0  0  0  0999 V2000
    2.9580   10.4430   -3.5080 C   0  0  0  0  0  0  0  0  0  0  0  0
    2.3420   11.3370   -4.5880 C   0  0  2  0  0  0  0  0  0  0  0  0
    3.4150   11.9900   -5.4830 C   0  0  0  0  0  0  0  0  0  0  0  0
    4.6020   12.5620   -4.7030 C   0  0  0  0  0  0  0  0  0  0  0  0
    5.8590   11.7860   -4.9590 C   0  0  2  0  0  0  0  0  0  0  0  0
    5.6690   10.3730   -5.1150 O   0  0  0  0  0  0  0  0  0  0  0  0
    6.4400   10.7870   -3.9760 C   0  0  0  0  0  0  0  0  0  0  0  0
    5.7790   10.5110   -2.6620 C   0  0  0  0  0  0  0  0  0  0  0  0
    7.8940   10.4470   -4.0760 C   0  0  0  0  0  0  0  0  0  0  0  0
    1.4790   12.4140   -3.9420 C   0  0  1  0  0  0  0  0  0  0  0  0
    0.1510   11.8500   -3.3680 C   0  0  0  0  0  0  0  0  0  0  0  0
   -0.1650   12.6650   -2.0880 C   0  0  0  0  0  0  0  0  0  0  0  0
    0.7980   13.8750   -2.1480 C   0  0  1  0  0  0  0  0  0  0  0  0
    0.1080   14.8880   -3.1150 C   0  0  0  0  0  0  0  0  0  0  0  0
    1.1600   14.5380   -0.7800 C   0  0  2  0  0  0  0  0  0  0  0  0
   -0.0270   15.1520   -0.0170 C   0  0  0  0  0  0  0  0  0  0  0  0
   -0.3050   16.5880   -0.3200 C   0  0  0  0  0  0  0  0  0  0  0  0
    0.5350   17.4310   -0.9480 C   0  0  0  0  0  0  0  0  0  0  0  0
    1.9500   16.9880   -1.3380 C   0  0  1  0  0  0  0  0  0  0  0  0
    2.9680   18.0850   -0.9280 C   0  0  0  0  0  0  0  0  0  0  0  0
    2.6090   19.4560   -1.4920 C   0  0  0  0  0  0  0  0  0  0  0  0
    1.2190   19.8880   -1.0340 C   0  0  2  0  0  0  0  0  0  0  0  0
    1.2450   20.1030    0.3810 O   0  0  0  0  0  0  0  0  0  0  0  0
    0.1110   18.8560   -1.3840 C   0  0  0  0  0  0  0  0  0  0  0  0
   -0.1250   18.8450   -2.9150 C   0  0  0  0  0  0  0  0  0  0  0  0
   -1.2170   19.3440   -0.7440 C   0  0  0  0  0  0  0  0  0  0  0  0
    2.3830   15.5400   -0.8490 C   0  0  1  0  0  0  0  0  0  0  0  0
    2.9750   15.6200    0.5920 C   0  0  0  0  0  0  0  0  0  0  0  0
    3.5400   15.0080   -1.7750 C   0  0  0  0  0  0  0  0  0  0  0  0
    3.1180   14.2570   -3.0520 C   0  0  0  0  0  0  0  0  0  0  0  0
    2.0790   13.1780   -2.7350 C   0  0  2  0  0  0  0  0  0  0  0  0
    2.7510   12.1320   -1.7810 C   0  0  0  0  0  0  0  0  0  0  0  0
    2.6905   10.8312   -2.5142 H   0  0  0  0  0  0  0  0  0  0  0  0
    2.5734    9.4182   -3.6170 H   0  0  0  0  0  0  0  0  0  0  0  0
    4.0526   10.4374   -3.6170 H   0  0  0  0  0  0  0  0  0  0  0  0
    1.7195   10.6972   -5.2307 H   0  0  0  0  0  0  0  0  0  0  0  0
    3.7930   11.2301   -6.1828 H   0  0  0  0  0  0  0  0  0  0  0  0
    2.9332   12.8333   -5.9994 H   0  0  0  0  0  0  0  0  0  0  0  0
    4.7595   13.6068   -5.0089 H   0  0  0  0  0  0  0  0  0  0  0  0
    4.3709   12.4963   -3.6296 H   0  0  0  0  0  0  0  0  0  0  0  0
    6.3034   12.6372   -5.4956 H   0  0  0  0  0  0  0  0  0  0  0  0
    6.4573   10.7942   -1.8437 H   0  0  0  0  0  0  0  0  0  0  0  0
    4.8509   11.0967   -2.5883 H   0  0  0  0  0  0  0  0  0  0  0  0
    5.5430    9.4392   -2.5883 H   0  0  0  0  0  0  0  0  0  0  0  0
    8.3177   10.3479   -3.0657 H   0  0  0  0  0  0  0  0  0  0  0  0
    8.0120    9.4970   -4.6179 H   0  0  0  0  0  0  0  0  0  0  0  0
    8.4210   11.2461   -4.6179 H   0  0  0  0  0  0  0  0  0  0  0  0
    1.3628   13.0952   -4.7978 H   0  0  0  0  0  0  0  0  0  0  0  0
   -0.6595   11.9685   -4.1022 H   0  0  0  0  0  0  0  0  0  0  0  0
    0.2430   10.7777   -3.1407 H   0  0  0  0  0  0  0  0  0  0  0  0
   -1.2122   13.0016   -2.0906 H   0  0  0  0  0  0  0  0  0  0  0  0
   -0.0320   12.0710   -1.1718 H   0  0  0  0  0  0  0  0  0  0  0  0
   -0.4157   15.6568   -2.5279 H   0  0  0  0  0  0  0  0  0  0  0  0
    0.8691   15.3661   -3.7492 H   0  0  0  0  0  0  0  0  0  0  0  0
   -0.6155   14.3548   -3.7492 H   0  0  0  0  0  0  0  0  0  0  0  0
    1.4865   13.6759   -0.1798 H   0  0  0  0  0  0  0  0  0  0  0  0
   -0.9278   14.5715   -0.2653 H   0  0  0  0  0  0  0  0  0  0  0  0
    0.2424   15.1121    1.0488 H   0  0  0  0  0  0  0  0  0  0  0  0
   -1.2785   16.9903   -0.0030 H   0  0  0  0  0  0  0  0  0  0  0  0
    1.9425   16.8763   -2.4323 H   0  0  0  0  0  0  0  0  0  0  0  0
    2.9926   18.1507    0.1698 H   0  0  0  0  0  0  0  0  0  0  0  0
    3.9483   17.8012   -1.3386 H   0  0  0  0  0  0  0  0  0  0  0  0
    3.3478   20.1930   -1.1440 H   0  0  0  0  0  0  0  0  0  0  0  0
    2.6134   19.3956   -2.5903 H   0  0  0  0  0  0  0  0  0  0  0  0
    0.9679   20.8140   -1.5721 H   0  0  0  0  0  0  0  0  0  0  0  0
    1.9210   20.7780    0.5630 H   0  0  0  0  0  0  0  0  0  0  0  0
   -1.2047   18.7947   -3.1192 H   0  0  0  0  0  0  0  0  0  0  0  0
    0.2892   19.7634   -3.3565 H   0  0  0  0  0  0  0  0  0  0  0  0
    0.3729   17.9691   -3.3565 H   0  0  0  0  0  0  0  0  0  0  0  0
   -1.1294   19.3118    0.3520 H   0  0  0  0  0  0  0  0  0  0  0  0
   -1.4214   20.3760   -1.0653 H   0  0  0  0  0  0  0  0  0  0  0  0
   -2.0410   18.6899   -1.0653 H   0  0  0  0  0  0  0  0  0  0  0  0
    2.1648   15.5105    1.3279 H   0  0  0  0  0  0  0  0  0  0  0  0
    3.7091   14.8129    0.7321 H   0  0  0  0  0  0  0  0  0  0  0  0
    3.4686   16.5930    0.7321 H   0  0  0  0  0  0  0  0  0  0  0  0
    4.1447   15.8738   -2.0826 H   0  0  0  0  0  0  0  0  0  0  0  0
    4.0758   14.2639   -1.1673 H   0  0  0  0  0  0  0  0  0  0  0  0
    2.6857   14.9744   -3.7651 H   0  0  0  0  0  0  0  0  0  0  0  0
    4.0062   13.7726   -3.4838 H   0  0  0  0  0  0  0  0  0  0  0  0
    2.5670   12.4184   -0.7350 H   0  0  0  0  0  0  0  0  0  0  0  0
    2.3232   11.1362   -1.9692 H   0  0  0  0  0  0  0  0  0  0  0  0
    3.8345   12.1071   -1.9692 H   0  0  0  0  0  0  0  0  0  0  0  0
  1  2  1  0
  2  3  1  0
  3  4  1  0
  4  5  1  0
  5  6  1  0
  6  7  1  0
  7  8  1  0
  7  9  1  0
  2 10  1  0
 10 11  1  0
 11 12  1  0
 12 13  1  0
 13 14  1  6
 13 15  1  0
 15 16  1  0
 16 17  1  0
 17 18  2  0
 18 19  1  0
 19 20  1  0
 20 21  1  0
 21 22  1  0
 22 23  1  0
 22 24  1  0
 24 25  1  0
 24 26  1  0
 19 27  1  0
 27 28  1  1
 27 29  1  0
 29 30  1  0
 30 31  1  0
 31 32  1  1
  7  5  1  0
 31 10  1  0
 31 13  1  0
 27 15  1  0
 24 18  1  0
  1 33  1  0
  1 34  1  0
  1 35  1  0
  2 36  1  6
  3 37  1  0
  3 38  1  0
  4 39  1  0
  4 40  1  0
  5 41  1  6
  8 42  1  0
  8 43  1  0
  8 44  1  0
  9 45  1  0
  9 46  1  0
  9 47  1  0
 10 48  1  6
 11 49  1  0
 11 50  1  0
 12 51  1  0
 12 52  1  0
 14 53  1  0
 14 54  1  0
 14 55  1  0
 15 56  1  1
 16 57  1  0
 16 58  1  0
 17 59  1  0
 19 60  1  6
 20 61  1  0
 20 62  1  0
 21 63  1  0
 21 64  1  0
 22 65  1  6
 23 66  1  0
 25 67  1  0
 25 68  1  0
 25 69  1  0
 26 70  1  0
 26 71  1  0
 26 72  1  0
 28 73  1  0
 28 74  1  0
 28 75  1  0
 29 76  1  0
 29 77  1  0
 30 78  1  0
 30 79  1  0
 32 80  1  0
 32 81  1  0
 32 82  1  0
M  END
>  <meeko>  (17) 
{"is_sidechain": [false], "intermolecular_energy": 2.731, "internal_energy": -0.839}

$$$$
EPH_relaxed_0001_pdb2pqr_Repair_317_r2_0001_out
     RDKit          3D

 82 86  0  0  0  0  0  0  0  0999 V2000
    2.6730   17.2190   -0.8130 C   0  0  0  0  0  0  0  0  0  0  0  0
    2.4740   16.8260   -2.2800 C   0  0  2  0  0  0  0  0  0  0  0  0
    1.2000   17.4540   -2.8810 C   0  0  0  0  0  0  0  0  0  0  0  0
    0.3490   16.4670   -3.6850 C   0  0  0  0  0  0  0  0  0  0  0  0
    0.7730   16.4110   -5.1220 C   0  0  2  0  0  0  0  0  0  0  0  0
   -0.2090   15.8710   -6.0160 O   0  0  0  0  0  0  0  0  0  0  0  0
    1.0050   15.1150   -5.8750 C   0  0  0  0  0  0  0  0  0  0  0  0
    0.8200   13.7840   -5.2150 C   0  0  0  0  0  0  0  0  0  0  0  0
    1.8750   15.1400   -7.0930 C   0  0  0  0  0  0  0  0  0  0  0  0
    2.4170   15.3080   -2.4090 C   0  0  1  0  0  0  0  0  0  0  0  0
    3.7990   14.6860   -2.7440 C   0  0  0  0  0  0  0  0  0  0  0  0
    3.8620   13.3180   -2.0160 C   0  0  0  0  0  0  0  0  0  0  0  0
    2.4070   13.0490   -1.5650 C   0  0  1  0  0  0  0  0  0  0  0  0
    1.6920   12.4840   -2.8330 C   0  0  0  0  0  0  0  0  0  0  0  0
    2.2290   12.1040   -0.3330 C   0  0  2  0  0  0  0  0  0  0  0  0
    2.7380   10.6660   -0.5340 C   0  0  0  0  0  0  0  0  0  0  0  0
    1.7310    9.7010   -1.0640 C   0  0  0  0  0  0  0  0  0  0  0  0
    0.4000    9.9000   -1.1000 C   0  0  0  0  0  0  0  0  0  0  0  0
   -0.2250   11.1580   -0.4820 C   0  0  1  0  0  0  0  0  0  0  0  0
   -1.4520   10.7570    0.3790 C   0  0  0  0  0  0  0  0  0  0  0  0
   -2.4660    9.9240   -0.3990 C   0  0  0  0  0  0  0  0  0  0  0  0
   -1.8210    8.6540   -0.9480 C   0  0  2  0  0  0  0  0  0  0  0  0
   -1.4630    7.8070    0.1480 O   0  0  0  0  0  0  0  0  0  0  0  0
   -0.5680    8.9320   -1.8240 C   0  0  0  0  0  0  0  0  0  0  0  0
   -1.0010    9.5870   -3.1590 C   0  0  0  0  0  0  0  0  0  0  0  0
    0.0680    7.5660   -2.1970 C   0  0  0  0  0  0  0  0  0  0  0  0
    0.7750   12.1200    0.2920 C   0  0  1  0  0  0  0  0  0  0  0  0
    0.9220   11.6560    1.7730 C   0  0  0  0  0  0  0  0  0  0  0  0
    0.1600   13.5690    0.3400 C   0  0  0  0  0  0  0  0  0  0  0  0
    0.4710   14.4950   -0.8510 C   0  0  0  0  0  0  0  0  0  0  0  0
    1.9710   14.5050   -1.1620 C   0  0  2  0  0  0  0  0  0  0  0  0
    2.7140   15.0900    0.0870 C   0  0  0  0  0  0  0  0  0  0  0  0
    2.2719   16.4269   -0.1636 H   0  0  0  0  0  0  0  0  0  0  0  0
    3.7463   17.3504   -0.6110 H   0  0  0  0  0  0  0  0  0  0  0  0
    2.1437   18.1619   -0.6110 H   0  0  0  0  0  0  0  0  0  0  0  0
    3.3332   17.2148   -2.8463 H   0  0  0  0  0  0  0  0  0  0  0  0
    0.5872   17.8514   -2.0585 H   0  0  0  0  0  0  0  0  0  0  0  0
    1.5264   18.2399   -3.5780 H   0  0  0  0  0  0  0  0  0  0  0  0
    0.4528   15.4649   -3.2435 H   0  0  0  0  0  0  0  0  0  0  0  0
   -0.6964   16.8074   -3.6491 H   0  0  0  0  0  0  0  0  0  0  0  0
    1.3893   17.3139   -4.9998 H   0  0  0  0  0  0  0  0  0  0  0  0
    0.8376   13.9109   -4.1225 H   0  0  0  0  0  0  0  0  0  0  0  0
   -0.1464   13.3552   -5.5188 H   0  0  0  0  0  0  0  0  0  0  0  0
    1.6328   13.1079   -5.5188 H   0  0  0  0  0  0  0  0  0  0  0  0
    2.9315   15.1704   -6.7884 H   0  0  0  0  0  0  0  0  0  0  0  0
    1.6922   14.2362   -7.6928 H   0  0  0  0  0  0  0  0  0  0  0  0
    1.6406   16.0318   -7.6928 H   0  0  0  0  0  0  0  0  0  0  0  0
    1.6622   15.2178   -3.2041 H   0  0  0  0  0  0  0  0  0  0  0  0
    3.8964   14.5420   -3.8302 H   0  0  0  0  0  0  0  0  0  0  0  0
    4.6179   15.3446   -2.4189 H   0  0  0  0  0  0  0  0  0  0  0  0
    4.2086   12.5295   -2.7002 H   0  0  0  0  0  0  0  0  0  0  0  0
    4.5659   13.3271   -1.1708 H   0  0  0  0  0  0  0  0  0  0  0  0
    0.8633   11.8292   -2.5255 H   0  0  0  0  0  0  0  0  0  0  0  0
    1.2976   13.3171   -3.4334 H   0  0  0  0  0  0  0  0  0  0  0  0
    2.4113   11.9077   -3.4334 H   0  0  0  0  0  0  0  0  0  0  0  0
    2.9012   12.5576    0.4102 H   0  0  0  0  0  0  0  0  0  0  0  0
    3.5809   10.6995   -1.2400 H   0  0  0  0  0  0  0  0  0  0  0  0
    3.0143   10.2988    0.4654 H   0  0  0  0  0  0  0  0  0  0  0  0
    2.1081    8.7460   -1.4588 H   0  0  0  0  0  0  0  0  0  0  0  0
   -0.5500   11.7828   -1.3270 H   0  0  0  0  0  0  0  0  0  0  0  0
   -1.1013   10.1706    1.2410 H   0  0  0  0  0  0  0  0  0  0  0  0
   -1.9540   11.6829    0.6963 H   0  0  0  0  0  0  0  0  0  0  0  0
   -3.2939    9.6471    0.2703 H   0  0  0  0  0  0  0  0  0  0  0  0
   -2.8384   10.5224   -1.2435 H   0  0  0  0  0  0  0  0  0  0  0  0
   -2.5590    8.1666   -1.6021 H   0  0  0  0  0  0  0  0  0  0  0  0
   -0.9260    7.0780   -0.2060 H   0  0  0  0  0  0  0  0  0  0  0  0
   -1.5965   10.4878   -2.9493 H   0  0  0  0  0  0  0  0  0  0  0  0
   -0.1078    9.8645   -3.7379 H   0  0  0  0  0  0  0  0  0  0  0  0
   -1.6063    8.8739   -3.7379 H   0  0  0  0  0  0  0  0  0  0  0  0
    0.3234    7.0174   -1.2784 H   0  0  0  0  0  0  0  0  0  0  0  0
   -0.6486    6.9772   -2.7885 H   0  0  0  0  0  0  0  0  0  0  0  0
    0.9799    7.7354   -2.7885 H   0  0  0  0  0  0  0  0  0  0  0  0
    0.6590   12.4861    2.4451 H   0  0  0  0  0  0  0  0  0  0  0  0
    0.2492   10.8060    1.9594 H   0  0  0  0  0  0  0  0  0  0  0  0
    1.9616   11.3485    1.9594 H   0  0  0  0  0  0  0  0  0  0  0  0
   -0.9332   13.4646    0.4039 H   0  0  0  0  0  0  0  0  0  0  0  0
    0.6285   14.0520    1.2102 H   0  0  0  0  0  0  0  0  0  0  0  0
   -0.0774   14.1394   -1.7358 H   0  0  0  0  0  0  0  0  0  0  0  0
    0.1605   15.5175   -0.5901 H   0  0  0  0  0  0  0  0  0  0  0  0
    2.2383   14.7154    1.0053 H   0  0  0  0  0  0  0  0  0  0  0  0
    3.7683   14.7770    0.0663 H   0  0  0  0  0  0  0  0  0  0  0  0
    2.6571   16.1883    0.0663 H   0  0  0  0  0  0  0  0  0  0  0  0
  1  2  1  0
  2  3  1  0
  3  4  1  0
  4  5  1  0
  5  6  1  0
  6  7  1  0
  7  8  1  0
  7  9  1  0
  2 10  1  0
 10 11  1  0
 11 12  1  0
 12 13  1  0
 13 14  1  6
 13 15  1  0
 15 16  1  0
 16 17  1  0
 17 18  2  0
 18 19  1  0
 19 20  1  0
 20 21  1  0
 21 22  1  0
 22 23  1  0
 22 24  1  0
 24 25  1  0
 24 26  1  0
 19 27  1  0
 27 28  1  1
 27 29  1  0
 29 30  1  0
 30 31  1  0
 31 32  1  1
  7  5  1  0
 31 10  1  0
 31 13  1  0
 27 15  1  0
 24 18  1  0
  1 33  1  0
  1 34  1  0
  1 35  1  0
  2 36  1  6
  3 37  1  0
  3 38  1  0
  4 39  1  0
  4 40  1  0
  5 41  1  6
  8 42  1  0
  8 43  1  0
  8 44  1  0
  9 45  1  0
  9 46  1  0
  9 47  1  0
 10 48  1  6
 11 49  1  0
 11 50  1  0
 12 51  1  0
 12 52  1  0
 14 53  1  0
 14 54  1  0
 14 55  1  0
 15 56  1  1
 16 57  1  0
 16 58  1  0
 17 59  1  0
 19 60  1  6
 20 61  1  0
 20 62  1  0
 21 63  1  0
 21 64  1  0
 22 65  1  6
 23 66  1  0
 25 67  1  0
 25 68  1  0
 25 69  1  0
 26 70  1  0
 26 71  1  0
 26 72  1  0
 28 73  1  0
 28 74  1  0
 28 75  1  0
 29 76  1  0
 29 77  1  0
 30 78  1  0
 30 79  1  0
 32 80  1  0
 32 81  1  0
 32 82  1  0
M  END
>  <meeko>  (18) 
{"is_sidechain": [false], "intermolecular_energy": 2.731, "internal_energy": -0.839}

$$$$
EPH_relaxed_0001_pdb2pqr_Repair_317_r2_0001_out
     RDKit          3D

 82 86  0  0  0  0  0  0  0  0999 V2000
    0.0950   10.3330   -3.5460 C   0  0  0  0  0  0  0  0  0  0  0  0
    0.9690   10.1030   -2.3100 C   0  0  2  0  0  0  0  0  0  0  0  0
    0.4460    8.9460   -1.4350 C   0  0  0  0  0  0  0  0  0  0  0  0
   -0.6730    8.1340   -2.0940 C   0  0  0  0  0  0  0  0  0  0  0  0
   -2.0280    8.5850   -1.6390 C   0  0  2  0  0  0  0  0  0  0  0  0
   -2.2150   10.0070   -1.6340 O   0  0  0  0  0  0  0  0  0  0  0  0
   -2.2650    9.3560   -0.3540 C   0  0  0  0  0  0  0  0  0  0  0  0
   -1.1350    9.7190    0.5580 C   0  0  0  0  0  0  0  0  0  0  0  0
   -3.6320    9.3290    0.2550 C   0  0  0  0  0  0  0  0  0  0  0  0
    1.0510   11.3830   -1.4860 C   0  0  1  0  0  0  0  0  0  0  0  0
    2.0140   11.2540   -0.2760 C   0  0  0  0  0  0  0  0  0  0  0  0
    2.6880   12.6380   -0.0920 C   0  0  0  0  0  0  0  0  0  0  0  0
    1.8570   13.5980   -0.9760 C   0  0  1  0  0  0  0  0  0  0  0  0
    0.6040   13.9530   -0.1150 C   0  0  0  0  0  0  0  0  0  0  0  0
    2.5910   14.8810   -1.4830 C   0  0  2  0  0  0  0  0  0  0  0  0
    3.0620   15.8430   -0.3780 C   0  0  0  0  0  0  0  0  0  0  0  0
    2.0800   16.8990    0.0100 C   0  0  0  0  0  0  0  0  0  0  0  0
    0.9880   17.2480   -0.6960 C   0  0  0  0  0  0  0  0  0  0  0  0
    0.7040   16.6240   -2.0680 C   0  0  1  0  0  0  0  0  0  0  0  0
    0.3180   17.7390   -3.0740 C   0  0  0  0  0  0  0  0  0  0  0  0
   -0.8370   18.6030   -2.5760 C   0  0  0  0  0  0  0  0  0  0  0  0
   -0.4940   19.2530   -1.2380 C   0  0  2  0  0  0  0  0  0  0  0  0
    0.5650   20.1940   -1.4410 O   0  0  0  0  0  0  0  0  0  0  0  0
   -0.0790   18.2270   -0.1470 C   0  0  0  0  0  0  0  0  0  0  0  0
   -1.3160   17.4020    0.2890 C   0  0  0  0  0  0  0  0  0  0  0  0
    0.3770   19.0210    1.1070 C   0  0  0  0  0  0  0  0  0  0  0  0
    1.8280   15.6530   -2.6340 C   0  0  1  0  0  0  0  0  0  0  0  0
    2.9030   16.4770   -3.4060 C   0  0  0  0  0  0  0  0  0  0  0  0
    1.1800   14.6740   -3.6830 C   0  0  0  0  0  0  0  0  0  0  0  0
    0.5780   13.3670   -3.1340 C   0  0  0  0  0  0  0  0  0  0  0  0
    1.5640   12.6580   -2.2010 C   0  0  2  0  0  0  0  0  0  0  0  0
    2.8250   12.2690   -3.0450 C   0  0  0  0  0  0  0  0  0  0  0  0
   -0.9239   10.6011   -3.2298 H   0  0  0  0  0  0  0  0  0  0  0  0
    0.5191   11.1501   -4.1481 H   0  0  0  0  0  0  0  0  0  0  0  0
    0.0619    9.4130   -4.1481 H   0  0  0  0  0  0  0  0  0  0  0  0
    1.9725    9.8223   -2.6625 H   0  0  0  0  0  0  0  0  0  0  0  0
    1.2848    8.2686   -1.2171 H   0  0  0  0  0  0  0  0  0  0  0  0
    0.0235    9.3965   -0.5247 H   0  0  0  0  0  0  0  0  0  0  0  0
   -0.6053    8.2542   -3.1853 H   0  0  0  0  0  0  0  0  0  0  0  0
   -0.5476    7.0802   -1.8046 H   0  0  0  0  0  0  0  0  0  0  0  0
   -2.4948    7.6788   -2.0524 H   0  0  0  0  0  0  0  0  0  0  0  0
   -1.4598    9.6147    1.6038 H   0  0  0  0  0  0  0  0  0  0  0  0
   -0.2827    9.0494    0.3702 H   0  0  0  0  0  0  0  0  0  0  0  0
   -0.8321   10.7597    0.3702 H   0  0  0  0  0  0  0  0  0  0  0  0
   -3.5450    9.3307    1.3516 H   0  0  0  0  0  0  0  0  0  0  0  0
   -4.1956   10.2162   -0.0695 H   0  0  0  0  0  0  0  0  0  0  0  0
   -4.1601    8.4203   -0.0695 H   0  0  0  0  0  0  0  0  0  0  0  0
   -0.0106   11.5009   -1.2232 H   0  0  0  0  0  0  0  0  0  0  0  0
    1.4508   10.9835    0.6293 H   0  0  0  0  0  0  0  0  0  0  0  0
    2.7646   10.4689   -0.4502 H   0  0  0  0  0  0  0  0  0  0  0  0
    2.6510   12.9508    0.9619 H   0  0  0  0  0  0  0  0  0  0  0  0
    3.7508   12.6251   -0.3753 H   0  0  0  0  0  0  0  0  0  0  0  0
    0.8600   13.8805    0.9523 H   0  0  0  0  0  0  0  0  0  0  0  0
    0.2794   14.9785   -0.3453 H   0  0  0  0  0  0  0  0  0  0  0  0
   -0.2103   13.2502   -0.3453 H   0  0  0  0  0  0  0  0  0  0  0  0
    3.5070   14.4669   -1.9296 H   0  0  0  0  0  0  0  0  0  0  0  0
    3.2908   15.2462    0.5173 H   0  0  0  0  0  0  0  0  0  0  0  0
    3.9336   16.3741   -0.7883 H   0  0  0  0  0  0  0  0  0  0  0  0
    2.2643   17.4369    0.9517 H   0  0  0  0  0  0  0  0  0  0  0  0
   -0.1471   15.9426   -1.9220 H   0  0  0  0  0  0  0  0  0  0  0  0
    1.1942   18.3831   -3.2396 H   0  0  0  0  0  0  0  0  0  0  0  0
   -0.0076   17.2508   -4.0044 H   0  0  0  0  0  0  0  0  0  0  0  0
   -1.0432   19.3900   -3.3163 H   0  0  0  0  0  0  0  0  0  0  0  0
   -1.7210   17.9628   -2.4392 H   0  0  0  0  0  0  0  0  0  0  0  0
   -1.4033   19.7510   -0.8704 H   0  0  0  0  0  0  0  0  0  0  0  0
    1.3970   19.7620   -1.1810 H   0  0  0  0  0  0  0  0  0  0  0  0
   -1.3659   17.3687    1.3874 H   0  0  0  0  0  0  0  0  0  0  0  0
   -2.2285   17.8730   -0.1054 H   0  0  0  0  0  0  0  0  0  0  0  0
   -1.2318   16.3786   -0.1054 H   0  0  0  0  0  0  0  0  0  0  0  0
    0.0676   18.4822    2.0147 H   0  0  0  0  0  0  0  0  0  0  0  0
    1.4721   19.1244    1.0973 H   0  0  0  0  0  0  0  0  0  0  0  0
   -0.0856   20.0190    1.0973 H   0  0  0  0  0  0  0  0  0  0  0  0
    3.5634   16.9832   -2.6865 H   0  0  0  0  0  0  0  0  0  0  0  0
    3.4984   15.8018   -4.0381 H   0  0  0  0  0  0  0  0  0  0  0  0
    2.4056   17.2274   -4.0381 H   0  0  0  0  0  0  0  0  0  0  0  0
    0.3754   15.2212   -4.1960 H   0  0  0  0  0  0  0  0  0  0  0  0
    2.0097   14.3581   -4.3325 H   0  0  0  0  0  0  0  0  0  0  0  0
   -0.3407   13.6007   -2.5760 H   0  0  0  0  0  0  0  0  0  0  0  0
    0.3558   12.7008   -3.9806 H   0  0  0  0  0  0  0  0  0  0  0  0
    3.6541   12.0132   -2.3689 H   0  0  0  0  0  0  0  0  0  0  0  0
    2.5884   11.4021   -3.6794 H   0  0  0  0  0  0  0  0  0  0  0  0
    3.1179   13.1185   -3.6794 H   0  0  0  0  0  0  0  0  0  0  0  0
  1  2  1  0
  2  3  1  0
  3  4  1  0
  4  5  1  0
  5  6  1  0
  6  7  1  0
  7  8  1  0
  7  9  1  0
  2 10  1  0
 10 11  1  0
 11 12  1  0
 12 13  1  0
 13 14  1  1
 13 15  1  0
 15 16  1  0
 16 17  1  0
 17 18  2  0
 18 19  1  0
 19 20  1  0
 20 21  1  0
 21 22  1  0
 22 23  1  0
 22 24  1  0
 24 25  1  0
 24 26  1  0
 19 27  1  0
 27 28  1  6
 27 29  1  0
 29 30  1  0
 30 31  1  0
 31 32  1  6
  7  5  1  0
 31 10  1  0
 31 13  1  0
 27 15  1  0
 24 18  1  0
  1 33  1  0
  1 34  1  0
  1 35  1  0
  2 36  1  6
  3 37  1  0
  3 38  1  0
  4 39  1  0
  4 40  1  0
  5 41  1  6
  8 42  1  0
  8 43  1  0
  8 44  1  0
  9 45  1  0
  9 46  1  0
  9 47  1  0
 10 48  1  1
 11 49  1  0
 11 50  1  0
 12 51  1  0
 12 52  1  0
 14 53  1  0
 14 54  1  0
 14 55  1  0
 15 56  1  6
 16 57  1  0
 16 58  1  0
 17 59  1  0
 19 60  1  1
 20 61  1  0
 20 62  1  0
 21 63  1  0
 21 64  1  0
 22 65  1  1
 23 66  1  0
 25 67  1  0
 25 68  1  0
 25 69  1  0
 26 70  1  0
 26 71  1  0
 26 72  1  0
 28 73  1  0
 28 74  1  0
 28 75  1  0
 29 76  1  0
 29 77  1  0
 30 78  1  0
 30 79  1  0
 32 80  1  0
 32 81  1  0
 32 82  1  0
M  END
>  <meeko>  (19) 
{"is_sidechain": [false], "intermolecular_energy": 2.731, "internal_energy": -0.839}

$$$$
