EPH_relaxed_0001_pdb2pqr_Repair_135_r2_0001_out
     RDKit          3D

 82 86  0  0  0  0  0  0  0  0999 V2000
    3.8360   18.0220    0.6570 C   0  0  0  0  0  0  0  0  0  0  0  0
    2.9460   18.4210   -0.5230 C   0  0  2  0  0  0  0  0  0  0  0  0
    2.1960   19.7430   -0.2630 C   0  0  0  0  0  0  0  0  0  0  0  0
    1.1550   19.6500    0.8560 C   0  0  0  0  0  0  0  0  0  0  0  0
   -0.1730   20.1940    0.4230 C   0  0  2  0  0  0  0  0  0  0  0  0
   -1.1810   20.1940    1.4440 O   0  0  0  0  0  0  0  0  0  0  0  0
   -1.4270   19.3470    0.3100 C   0  0  0  0  0  0  0  0  0  0  0  0
   -1.4120   17.8850    0.6290 C   0  0  0  0  0  0  0  0  0  0  0  0
   -2.5380   19.8270   -0.5720 C   0  0  0  0  0  0  0  0  0  0  0  0
    1.9500   17.3070   -0.8230 C   0  0  1  0  0  0  0  0  0  0  0  0
    0.8110   17.7640   -1.7720 C   0  0  0  0  0  0  0  0  0  0  0  0
    0.4550   16.5460   -2.6630 C   0  0  0  0  0  0  0  0  0  0  0  0
    1.1580   15.3470   -1.9830 C   0  0  1  0  0  0  0  0  0  0  0  0
    0.2050   14.9330   -0.8180 C   0  0  0  0  0  0  0  0  0  0  0  0
    1.5020   14.1340   -2.9070 C   0  0  2  0  0  0  0  0  0  0  0  0
    0.2890   13.4330   -3.5440 C   0  0  0  0  0  0  0  0  0  0  0  0
   -0.2850   12.3060   -2.7510 C   0  0  0  0  0  0  0  0  0  0  0  0
    0.3190   11.6890   -1.7190 C   0  0  0  0  0  0  0  0  0  0  0  0
    1.7540   12.0490   -1.3150 C   0  0  1  0  0  0  0  0  0  0  0  0
    2.5730   10.7500   -1.0980 C   0  0  0  0  0  0  0  0  0  0  0  0
    1.9100    9.8000   -0.1050 C   0  0  0  0  0  0  0  0  0  0  0  0
    0.5060    9.4180   -0.5700 C   0  0  2  0  0  0  0  0  0  0  0  0
    0.6130    8.6360   -1.7630 O   0  0  0  0  0  0  0  0  0  0  0  0
   -0.4080   10.6480   -0.8310 C   0  0  0  0  0  0  0  0  0  0  0  0
   -0.7680   11.3230    0.5150 C   0  0  0  0  0  0  0  0  0  0  0  0
   -1.7440   10.1310   -1.4290 C   0  0  0  0  0  0  0  0  0  0  0  0
    2.4990   13.0890   -2.2590 C   0  0  1  0  0  0  0  0  0  0  0  0
    3.1860   12.3380   -3.4400 C   0  0  0  0  0  0  0  0  0  0  0  0
    3.6520   13.7870   -1.4460 C   0  0  0  0  0  0  0  0  0  0  0  0
    3.2740   15.0500   -0.6490 C   0  0  0  0  0  0  0  0  0  0  0  0
    2.4940   16.0370   -1.5230 C   0  0  2  0  0  0  0  0  0  0  0  0
    3.4340   16.4890   -2.6920 C   0  0  0  0  0  0  0  0  0  0  0  0
    3.3197   18.2534    1.6003 H   0  0  0  0  0  0  0  0  0  0  0  0
    4.0465   16.9434    0.6093 H   0  0  0  0  0  0  0  0  0  0  0  0
    4.7813   18.5825    0.6093 H   0  0  0  0  0  0  0  0  0  0  0  0
    3.6004   18.5783   -1.3931 H   0  0  0  0  0  0  0  0  0  0  0  0
    2.9329   20.5123    0.0112 H   0  0  0  0  0  0  0  0  0  0  0  0
    1.6535   19.9921   -1.1870 H   0  0  0  0  0  0  0  0  0  0  0  0
    1.0321   18.5950    1.1421 H   0  0  0  0  0  0  0  0  0  0  0  0
    1.5109   20.2497    1.7067 H   0  0  0  0  0  0  0  0  0  0  0  0
    0.3129   20.8900   -0.2767 H   0  0  0  0  0  0  0  0  0  0  0  0
   -1.4106   17.7478    1.7204 H   0  0  0  0  0  0  0  0  0  0  0  0
   -2.3053   17.4070    0.2005 H   0  0  0  0  0  0  0  0  0  0  0  0
   -0.5091   17.4255    0.2005 H   0  0  0  0  0  0  0  0  0  0  0  0
   -3.3707   20.1868    0.0502 H   0  0  0  0  0  0  0  0  0  0  0  0
   -2.1735   20.6479   -1.2070 H   0  0  0  0  0  0  0  0  0  0  0  0
   -2.8859   18.9989   -1.2070 H   0  0  0  0  0  0  0  0  0  0  0  0
    1.6304   17.0642    0.2012 H   0  0  0  0  0  0  0  0  0  0  0  0
   -0.0672   18.0751   -1.1873 H   0  0  0  0  0  0  0  0  0  0  0  0
    1.1271   18.6218   -2.3838 H   0  0  0  0  0  0  0  0  0  0  0  0
   -0.6337   16.3918   -2.6932 H   0  0  0  0  0  0  0  0  0  0  0  0
    0.7781   16.6828   -3.7055 H   0  0  0  0  0  0  0  0  0  0  0  0
    0.6910   15.1441    0.1459 H   0  0  0  0  0  0  0  0  0  0  0  0
   -0.7317   15.5053   -0.8895 H   0  0  0  0  0  0  0  0  0  0  0  0
   -0.0159   13.8578   -0.8895 H   0  0  0  0  0  0  0  0  0  0  0  0
    2.0382   14.6153   -3.7382 H   0  0  0  0  0  0  0  0  0  0  0  0
   -0.5012   14.1846   -3.6877 H   0  0  0  0  0  0  0  0  0  0  0  0
    0.6519   12.9904   -4.4833 H   0  0  0  0  0  0  0  0  0  0  0  0
   -1.2864   11.9498   -3.0343 H   0  0  0  0  0  0  0  0  0  0  0  0
    1.6734   12.6016   -0.3673 H   0  0  0  0  0  0  0  0  0  0  0  0
    2.6781   10.2338   -2.0637 H   0  0  0  0  0  0  0  0  0  0  0  0
    3.5510   11.0368   -0.6841 H   0  0  0  0  0  0  0  0  0  0  0  0
    2.5201    8.8891   -0.0158 H   0  0  0  0  0  0  0  0  0  0  0  0
    1.8320   10.3071    0.8680 H   0  0  0  0  0  0  0  0  0  0  0  0
    0.0342    8.8432    0.2406 H   0  0  0  0  0  0  0  0  0  0  0  0
    1.4010    8.0740   -1.6770 H   0  0  0  0  0  0  0  0  0  0  0  0
   -0.4290   10.6873    1.3462 H   0  0  0  0  0  0  0  0  0  0  0  0
   -0.2729   12.3033    0.5776 H   0  0  0  0  0  0  0  0  0  0  0  0
   -1.8579   11.4580    0.5776 H   0  0  0  0  0  0  0  0  0  0  0  0
   -2.4321    9.8647   -0.6132 H   0  0  0  0  0  0  0  0  0  0  0  0
   -2.1974   10.9186   -2.0488 H   0  0  0  0  0  0  0  0  0  0  0  0
   -1.5491    9.2434   -2.0488 H   0  0  0  0  0  0  0  0  0  0  0  0
    3.8778   11.5817   -3.0407 H   0  0  0  0  0  0  0  0  0  0  0  0
    2.4198   11.8450   -4.0563 H   0  0  0  0  0  0  0  0  0  0  0  0
    3.7451   13.0574   -4.0563 H   0  0  0  0  0  0  0  0  0  0  0  0
    4.0494   13.0500   -0.7327 H   0  0  0  0  0  0  0  0  0  0  0  0
    4.3717   14.1298   -2.2040 H   0  0  0  0  0  0  0  0  0  0  0  0
    2.6513   14.7603    0.2102 H   0  0  0  0  0  0  0  0  0  0  0  0
    4.1983   15.5388   -0.3073 H   0  0  0  0  0  0  0  0  0  0  0  0
    4.3514   16.9301   -2.2751 H   0  0  0  0  0  0  0  0  0  0  0  0
    3.6945   15.6177   -3.3108 H   0  0  0  0  0  0  0  0  0  0  0  0
    2.9161   17.2365   -3.3108 H   0  0  0  0  0  0  0  0  0  0  0  0
  1  2  1  0
  2  3  1  0
  3  4  1  0
  4  5  1  0
  5  6  1  0
  6  7  1  0
  7  8  1  0
  7  9  1  0
  2 10  1  0
 10 11  1  0
 11 12  1  0
 12 13  1  0
 13 14  1  1
 13 15  1  0
 15 16  1  0
 16 17  1  0
 17 18  2  0
 18 19  1  0
 19 20  1  0
 20 21  1  0
 21 22  1  0
 22 23  1  0
 22 24  1  0
 24 25  1  0
 24 26  1  0
 19 27  1  0
 27 28  1  6
 27 29  1  0
 29 30  1  0
 30 31  1  0
 31 32  1  6
  7  5  1  0
 31 10  1  0
 31 13  1  0
 27 15  1  0
 24 18  1  0
  1 33  1  0
  1 34  1  0
  1 35  1  0
  2 36  1  6
  3 37  1  0
  3 38  1  0
  4 39  1  0
  4 40  1  0
  5 41  1  6
  8 42  1  0
  8 43  1  0
  8 44  1  0
  9 45  1  0
  9 46  1  0
  9 47  1  0
 10 48  1  1
 11 49  1  0
 11 50  1  0
 12 51  1  0
 12 52  1  0
 14 53  1  0
 14 54  1  0
 14 55  1  0
 15 56  1  6
 16 57  1  0
 16 58  1  0
 17 59  1  0
 19 60  1  1
 20 61  1  0
 20 62  1  0
 21 63  1  0
 21 64  1  0
 22 65  1  1
 23 66  1  0
 25 67  1  0
 25 68  1  0
 25 69  1  0
 26 70  1  0
 26 71  1  0
 26 72  1  0
 28 73  1  0
 28 74  1  0
 28 75  1  0
 29 76  1  0
 29 77  1  0
 30 78  1  0
 30 79  1  0
 32 80  1  0
 32 81  1  0
 32 82  1  0
M  END
>  <meeko>  (1) 
{"is_sidechain": [false], "intermolecular_energy": 2.731, "internal_energy": -0.839}

$$$$
EPH_relaxed_0001_pdb2pqr_Repair_135_r2_0001_out
     RDKit          3D

 82 86  0  0  0  0  0  0  0  0999 V2000
    4.4660   17.7740   -0.7490 C   0  0  0  0  0  0  0  0  0  0  0  0
    3.0900   18.3270   -0.3670 C   0  0  2  0  0  0  0  0  0  0  0  0
    3.0700   18.8950    1.0660 C   0  0  0  0  0  0  0  0  0  0  0  0
    4.3730   18.6670    1.8370 C   0  0  0  0  0  0  0  0  0  0  0  0
    4.2900   19.1980    3.2360 C   0  0  2  0  0  0  0  0  0  0  0  0
    5.2690   20.1940    3.5570 O   0  0  0  0  0  0  0  0  0  0  0  0
    5.3580   18.9600    4.2860 C   0  0  0  0  0  0  0  0  0  0  0  0
    6.5870   18.1610    3.9820 C   0  0  0  0  0  0  0  0  0  0  0  0
    4.9830   19.0840    5.7300 C   0  0  0  0  0  0  0  0  0  0  0  0
    2.0340   17.2370   -0.5100 C   0  0  1  0  0  0  0  0  0  0  0  0
    0.7020   17.7690   -1.1030 C   0  0  0  0  0  0  0  0  0  0  0  0
    0.1190   16.6350   -1.9840 C   0  0  0  0  0  0  0  0  0  0  0  0
    0.9500   15.3850   -1.6100 C   0  0  1  0  0  0  0  0  0  0  0  0
    0.3090   14.8580   -0.2870 C   0  0  0  0  0  0  0  0  0  0  0  0
    1.0370   14.2630   -2.6960 C   0  0  2  0  0  0  0  0  0  0  0  0
   -0.3060   13.6140   -3.0730 C   0  0  0  0  0  0  0  0  0  0  0  0
   -0.6840   12.4150   -2.2670 C   0  0  0  0  0  0  0  0  0  0  0  0
    0.1480   11.7100   -1.4770 C   0  0  0  0  0  0  0  0  0  0  0  0
    1.6430   12.0440   -1.4110 C   0  0  1  0  0  0  0  0  0  0  0  0
    2.4710   10.7370   -1.5210 C   0  0  0  0  0  0  0  0  0  0  0  0
    2.0600    9.6950   -0.4850 C   0  0  0  0  0  0  0  0  0  0  0  0
    0.5800    9.3460   -0.6200 C   0  0  2  0  0  0  0  0  0  0  0  0
    0.3760    8.6770   -1.8680 O   0  0  0  0  0  0  0  0  0  0  0  0
   -0.3520   10.5870   -0.5350 C   0  0  0  0  0  0  0  0  0  0  0  0
   -0.3590   11.1350    0.9140 C   0  0  0  0  0  0  0  0  0  0  0  0
   -1.8030   10.1160   -0.8270 C   0  0  0  0  0  0  0  0  0  0  0  0
    2.1470   13.1710   -2.4120 C   0  0  1  0  0  0  0  0  0  0  0  0
    2.5090   12.5360   -3.7890 C   0  0  0  0  0  0  0  0  0  0  0  0
    3.4760   13.8010   -1.8500 C   0  0  0  0  0  0  0  0  0  0  0  0
    3.3260   14.9840   -0.8740 C   0  0  0  0  0  0  0  0  0  0  0  0
    2.3680   16.0390   -1.4350 C   0  0  2  0  0  0  0  0  0  0  0  0
    2.9970   16.6030   -2.7550 C   0  0  0  0  0  0  0  0  0  0  0  0
    5.0355   17.5451    0.1638 H   0  0  0  0  0  0  0  0  0  0  0  0
    4.3405   16.8565   -1.3426 H   0  0  0  0  0  0  0  0  0  0  0  0
    5.0104   18.5232   -1.3426 H   0  0  0  0  0  0  0  0  0  0  0  0
    2.8641   19.1560   -1.0538 H   0  0  0  0  0  0  0  0  0  0  0  0
    2.8860   19.9779    1.0077 H   0  0  0  0  0  0  0  0  0  0  0  0
    2.2766   18.3630    1.6115 H   0  0  0  0  0  0  0  0  0  0  0  0
    4.5790   17.5872    1.8773 H   0  0  0  0  0  0  0  0  0  0  0  0
    5.1788   19.2031    1.3142 H   0  0  0  0  0  0  0  0  0  0  0  0
    3.1989   19.0590    3.2489 H   0  0  0  0  0  0  0  0  0  0  0  0
    7.0646   17.8505    4.9230 H   0  0  0  0  0  0  0  0  0  0  0  0
    6.3102   17.2697    3.3998 H   0  0  0  0  0  0  0  0  0  0  0  0
    7.2893   18.7757    3.3998 H   0  0  0  0  0  0  0  0  0  0  0  0
    5.8409   18.8003    6.3573 H   0  0  0  0  0  0  0  0  0  0  0  0
    4.6982   20.1241    5.9469 H   0  0  0  0  0  0  0  0  0  0  0  0
    4.1343   18.4187    5.9469 H   0  0  0  0  0  0  0  0  0  0  0  0
    1.9749   16.9004    0.5356 H   0  0  0  0  0  0  0  0  0  0  0  0
    0.0001   18.0184   -0.2936 H   0  0  0  0  0  0  0  0  0  0  0  0
    0.8699   18.6812   -1.6943 H   0  0  0  0  0  0  0  0  0  0  0  0
   -0.9456   16.4757   -1.7578 H   0  0  0  0  0  0  0  0  0  0  0  0
    0.1766   16.8687   -3.0573 H   0  0  0  0  0  0  0  0  0  0  0  0
    0.8372   15.2922    0.5747 H   0  0  0  0  0  0  0  0  0  0  0  0
   -0.7512   15.1491   -0.2519 H   0  0  0  0  0  0  0  0  0  0  0  0
    0.3896   13.7615   -0.2519 H   0  0  0  0  0  0  0  0  0  0  0  0
    1.3591   14.8218   -3.5871 H   0  0  0  0  0  0  0  0  0  0  0  0
   -1.0955   14.3698   -2.9485 H   0  0  0  0  0  0  0  0  0  0  0  0
   -0.1931   13.2610   -4.1087 H   0  0  0  0  0  0  0  0  0  0  0  0
   -1.7301   12.0795   -2.3234 H   0  0  0  0  0  0  0  0  0  0  0  0
    1.8071   12.5086   -0.4275 H   0  0  0  0  0  0  0  0  0  0  0  0
    2.3269   10.3118   -2.5252 H   0  0  0  0  0  0  0  0  0  0  0  0
    3.5249   10.9930   -1.3371 H   0  0  0  0  0  0  0  0  0  0  0  0
    2.6595    8.7846   -0.6326 H   0  0  0  0  0  0  0  0  0  0  0  0
    2.2327   10.1106    0.5187 H   0  0  0  0  0  0  0  0  0  0  0  0
    0.3159    8.6961    0.2273 H   0  0  0  0  0  0  0  0  0  0  0  0
    1.2510    8.4810   -2.2440 H   0  0  0  0  0  0  0  0  0  0  0  0
   -0.3483   10.2948    1.6238 H   0  0  0  0  0  0  0  0  0  0  0  0
    0.5312   11.7611    1.0735 H   0  0  0  0  0  0  0  0  0  0  0  0
   -1.2649   11.7382    1.0735 H   0  0  0  0  0  0  0  0  0  0  0  0
   -2.3310    9.9446    0.1227 H   0  0  0  0  0  0  0  0  0  0  0  0
   -2.3301   10.8892   -1.4052 H   0  0  0  0  0  0  0  0  0  0  0  0
   -1.7755    9.1806   -1.4052 H   0  0  0  0  0  0  0  0  0  0  0  0
    3.0478   11.5908   -3.6266 H   0  0  0  0  0  0  0  0  0  0  0  0
    1.5870   12.3397   -4.3560 H   0  0  0  0  0  0  0  0  0  0  0  0
    3.1476   13.2294   -4.3560 H   0  0  0  0  0  0  0  0  0  0  0  0
    4.0259   13.0052   -1.3262 H   0  0  0  0  0  0  0  0  0  0  0  0
    3.9914   14.2164   -2.7285 H   0  0  0  0  0  0  0  0  0  0  0  0
    2.9319   14.6128    0.0835 H   0  0  0  0  0  0  0  0  0  0  0  0
    4.3131   15.4475   -0.7302 H   0  0  0  0  0  0  0  0  0  0  0  0
    3.7945   17.3181   -2.5048 H   0  0  0  0  0  0  0  0  0  0  0  0
    3.4186   15.7747   -3.3434 H   0  0  0  0  0  0  0  0  0  0  0  0
    2.2194   17.1121   -3.3434 H   0  0  0  0  0  0  0  0  0  0  0  0
  1  2  1  0
  2  3  1  0
  3  4  1  0
  4  5  1  0
  5  6  1  0
  6  7  1  0
  7  8  1  0
  7  9  1  0
  2 10  1  0
 10 11  1  0
 11 12  1  0
 12 13  1  0
 13 14  1  1
 13 15  1  0
 15 16  1  0
 16 17  1  0
 17 18  2  0
 18 19  1  0
 19 20  1  0
 20 21  1  0
 21 22  1  0
 22 23  1  0
 22 24  1  0
 24 25  1  0
 24 26  1  0
 19 27  1  0
 27 28  1  6
 27 29  1  0
 29 30  1  0
 30 31  1  0
 31 32  1  6
  7  5  1  0
 31 10  1  0
 31 13  1  0
 27 15  1  0
 24 18  1  0
  1 33  1  0
  1 34  1  0
  1 35  1  0
  2 36  1  6
  3 37  1  0
  3 38  1  0
  4 39  1  0
  4 40  1  0
  5 41  1  1
  8 42  1  0
  8 43  1  0
  8 44  1  0
  9 45  1  0
  9 46  1  0
  9 47  1  0
 10 48  1  1
 11 49  1  0
 11 50  1  0
 12 51  1  0
 12 52  1  0
 14 53  1  0
 14 54  1  0
 14 55  1  0
 15 56  1  6
 16 57  1  0
 16 58  1  0
 17 59  1  0
 19 60  1  1
 20 61  1  0
 20 62  1  0
 21 63  1  0
 21 64  1  0
 22 65  1  1
 23 66  1  0
 25 67  1  0
 25 68  1  0
 25 69  1  0
 26 70  1  0
 26 71  1  0
 26 72  1  0
 28 73  1  0
 28 74  1  0
 28 75  1  0
 29 76  1  0
 29 77  1  0
 30 78  1  0
 30 79  1  0
 32 80  1  0
 32 81  1  0
 32 82  1  0
M  END
>  <meeko>  (2) 
{"is_sidechain": [false], "intermolecular_energy": 2.731, "internal_energy": -0.839}

$$$$
EPH_relaxed_0001_pdb2pqr_Repair_135_r2_0001_out
     RDKit          3D

 82 86  0  0  0  0  0  0  0  0999 V2000
    2.0520   18.4990   -1.8780 C   0  0  0  0  0  0  0  0  0  0  0  0
    1.7960   17.4740   -0.7700 C   0  0  2  0  0  0  0  0  0  0  0  0
    3.1030   17.0110   -0.0940 C   0  0  0  0  0  0  0  0  0  0  0  0
    4.0420   18.1610    0.2810 C   0  0  0  0  0  0  0  0  0  0  0  0
    3.7220   18.7180    1.6350 C   0  0  2  0  0  0  0  0  0  0  0  0
    4.0750   20.0960    1.8140 O   0  0  0  0  0  0  0  0  0  0  0  0
    4.7800   19.1510    2.6330 C   0  0  0  0  0  0  0  0  0  0  0  0
    6.2400   19.0430    2.3190 C   0  0  0  0  0  0  0  0  0  0  0  0
    4.4120   19.2160    4.0830 C   0  0  0  0  0  0  0  0  0  0  0  0
    1.0490   16.2720   -1.3360 C   0  0  1  0  0  0  0  0  0  0  0  0
    0.5150   16.5230   -2.7710 C   0  0  0  0  0  0  0  0  0  0  0  0
    0.6120   15.1730   -3.5270 C   0  0  0  0  0  0  0  0  0  0  0  0
    0.8810   14.1250   -2.4220 C   0  0  1  0  0  0  0  0  0  0  0  0
   -0.5220   13.8240   -1.8060 C   0  0  0  0  0  0  0  0  0  0  0  0
    1.6070   12.8160   -2.8720 C   0  0  2  0  0  0  0  0  0  0  0  0
    0.8390   11.9630   -3.8970 C   0  0  0  0  0  0  0  0  0  0  0  0
   -0.0650   10.9270   -3.3140 C   0  0  0  0  0  0  0  0  0  0  0  0
   -0.0420   10.4970   -2.0390 C   0  0  0  0  0  0  0  0  0  0  0  0
    1.0280   10.9950   -1.0590 C   0  0  1  0  0  0  0  0  0  0  0  0
    1.6190    9.7890   -0.2820 C   0  0  0  0  0  0  0  0  0  0  0  0
    0.5450    8.9510    0.4040 C   0  0  0  0  0  0  0  0  0  0  0  0
   -0.4680    8.4260   -0.6110 C   0  0  2  0  0  0  0  0  0  0  0  0
    0.1870    7.4910   -1.4740 O   0  0  0  0  0  0  0  0  0  0  0  0
   -1.1230    9.5510   -1.4600 C   0  0  0  0  0  0  0  0  0  0  0  0
   -2.0760   10.3870   -0.5700 C   0  0  0  0  0  0  0  0  0  0  0  0
   -2.0150    8.8770   -2.5380 C   0  0  0  0  0  0  0  0  0  0  0  0
    2.1520   11.9330   -1.6770 C   0  0  1  0  0  0  0  0  0  0  0  0
    3.3100   11.0650   -2.2570 C   0  0  0  0  0  0  0  0  0  0  0  0
    2.7830   12.8050   -0.5280 C   0  0  0  0  0  0  0  0  0  0  0  0
    2.0890   14.1440   -0.2110 C   0  0  0  0  0  0  0  0  0  0  0  0
    1.8420   14.9500   -1.4900 C   0  0  2  0  0  0  0  0  0  0  0  0
    3.2360   15.2870   -2.1200 C   0  0  0  0  0  0  0  0  0  0  0  0
    2.2952   19.4727   -1.4277 H   0  0  0  0  0  0  0  0  0  0  0  0
    2.8938   18.1628   -2.5012 H   0  0  0  0  0  0  0  0  0  0  0  0
    1.1510   18.5980   -2.5012 H   0  0  0  0  0  0  0  0  0  0  0  0
    1.1819   17.9650   -0.0007 H   0  0  0  0  0  0  0  0  0  0  0  0
    2.8441   16.4609    0.8227 H   0  0  0  0  0  0  0  0  0  0  0  0
    3.6374   16.3837   -0.8226 H   0  0  0  0  0  0  0  0  0  0  0  0
    5.0774   17.7895    0.2838 H   0  0  0  0  0  0  0  0  0  0  0  0
    3.9137   18.9642   -0.4596 H   0  0  0  0  0  0  0  0  0  0  0  0
    2.8476   18.0569    1.7264 H   0  0  0  0  0  0  0  0  0  0  0  0
    6.8144   19.0005    3.2561 H   0  0  0  0  0  0  0  0  0  0  0  0
    6.4228   18.1289    1.7351 H   0  0  0  0  0  0  0  0  0  0  0  0
    6.5553   19.9203    1.7351 H   0  0  0  0  0  0  0  0  0  0  0  0
    5.3109   19.0572    4.6969 H   0  0  0  0  0  0  0  0  0  0  0  0
    3.9836   20.2037    4.3087 H   0  0  0  0  0  0  0  0  0  0  0  0
    3.6712   18.4348    4.3087 H   0  0  0  0  0  0  0  0  0  0  0  0
    0.2726   16.1574   -0.5653 H   0  0  0  0  0  0  0  0  0  0  0  0
   -0.5310   16.8611   -2.7321 H   0  0  0  0  0  0  0  0  0  0  0  0
    1.1005   17.3032   -3.2794 H   0  0  0  0  0  0  0  0  0  0  0  0
   -0.3301   14.9524   -4.0502 H   0  0  0  0  0  0  0  0  0  0  0  0
    1.3996   15.1808   -4.2949 H   0  0  0  0  0  0  0  0  0  0  0  0
   -0.4514   13.8391   -0.7084 H   0  0  0  0  0  0  0  0  0  0  0  0
   -1.2398   14.5886   -2.1379 H   0  0  0  0  0  0  0  0  0  0  0  0
   -0.8630   12.8323   -2.1379 H   0  0  0  0  0  0  0  0  0  0  0  0
    2.4856   13.2059   -3.4068 H   0  0  0  0  0  0  0  0  0  0  0  0
    0.2283   12.6395   -4.5129 H   0  0  0  0  0  0  0  0  0  0  0  0
    1.6016   11.4146   -4.4695 H   0  0  0  0  0  0  0  0  0  0  0  0
   -0.8130   10.4773   -3.9835 H   0  0  0  0  0  0  0  0  0  0  0  0
    0.5114   11.6715   -0.3622 H   0  0  0  0  0  0  0  0  0  0  0  0
    2.1675    9.1490   -0.9888 H   0  0  0  0  0  0  0  0  0  0  0  0
    2.2808   10.1885    0.5006 H   0  0  0  0  0  0  0  0  0  0  0  0
    1.0220    8.0989    0.9105 H   0  0  0  0  0  0  0  0  0  0  0  0
    0.0169    9.5843    1.1320 H   0  0  0  0  0  0  0  0  0  0  0  0
   -1.2810    7.9445   -0.0478 H   0  0  0  0  0  0  0  0  0  0  0  0
    1.0080    7.2110   -1.0360 H   0  0  0  0  0  0  0  0  0  0  0  0
   -1.8536   10.1919    0.4895 H   0  0  0  0  0  0  0  0  0  0  0  0
   -1.9333   11.4566   -0.7837 H   0  0  0  0  0  0  0  0  0  0  0  0
   -3.1179   10.1062   -0.7837 H   0  0  0  0  0  0  0  0  0  0  0  0
   -2.7999    8.2839   -2.0459 H   0  0  0  0  0  0  0  0  0  0  0  0
   -2.4799    9.6514   -3.1658 H   0  0  0  0  0  0  0  0  0  0  0  0
   -1.3970    8.2183   -3.1658 H   0  0  0  0  0  0  0  0  0  0  0  0
    3.8910   10.6295   -1.4307 H   0  0  0  0  0  0  0  0  0  0  0  0
    2.8893   10.2579   -2.8747 H   0  0  0  0  0  0  0  0  0  0  0  0
    3.9667   11.6952   -2.8747 H   0  0  0  0  0  0  0  0  0  0  0  0
    2.7754   12.2005    0.3910 H   0  0  0  0  0  0  0  0  0  0  0  0
    3.7845   13.0788   -0.8914 H   0  0  0  0  0  0  0  0  0  0  0  0
    1.1251   13.9425    0.2791 H   0  0  0  0  0  0  0  0  0  0  0  0
    2.7430   14.7297    0.4518 H   0  0  0  0  0  0  0  0  0  0  0  0
    3.9677   15.4639   -1.3180 H   0  0  0  0  0  0  0  0  0  0  0  0
    3.5706   14.4439   -2.7422 H   0  0  0  0  0  0  0  0  0  0  0  0
    3.1485   16.1899   -2.7422 H   0  0  0  0  0  0  0  0  0  0  0  0
  1  2  1  0
  2  3  1  0
  3  4  1  0
  4  5  1  0
  5  6  1  0
  6  7  1  0
  7  8  1  0
  7  9  1  0
  2 10  1  0
 10 11  1  0
 11 12  1  0
 12 13  1  0
 13 14  1  1
 13 15  1  0
 15 16  1  0
 16 17  1  0
 17 18  2  0
 18 19  1  0
 19 20  1  0
 20 21  1  0
 21 22  1  0
 22 23  1  0
 22 24  1  0
 24 25  1  0
 24 26  1  0
 19 27  1  0
 27 28  1  6
 27 29  1  0
 29 30  1  0
 30 31  1  0
 31 32  1  6
  7  5  1  0
 31 10  1  0
 31 13  1  0
 27 15  1  0
 24 18  1  0
  1 33  1  0
  1 34  1  0
  1 35  1  0
  2 36  1  1
  3 37  1  0
  3 38  1  0
  4 39  1  0
  4 40  1  0
  5 41  1  1
  8 42  1  0
  8 43  1  0
  8 44  1  0
  9 45  1  0
  9 46  1  0
  9 47  1  0
 10 48  1  1
 11 49  1  0
 11 50  1  0
 12 51  1  0
 12 52  1  0
 14 53  1  0
 14 54  1  0
 14 55  1  0
 15 56  1  6
 16 57  1  0
 16 58  1  0
 17 59  1  0
 19 60  1  1
 20 61  1  0
 20 62  1  0
 21 63  1  0
 21 64  1  0
 22 65  1  1
 23 66  1  0
 25 67  1  0
 25 68  1  0
 25 69  1  0
 26 70  1  0
 26 71  1  0
 26 72  1  0
 28 73  1  0
 28 74  1  0
 28 75  1  0
 29 76  1  0
 29 77  1  0
 30 78  1  0
 30 79  1  0
 32 80  1  0
 32 81  1  0
 32 82  1  0
M  END
>  <meeko>  (3) 
{"is_sidechain": [false], "intermolecular_energy": 2.731, "internal_energy": -0.839}

$$$$
EPH_relaxed_0001_pdb2pqr_Repair_135_r2_0001_out
     RDKit          3D

 82 86  0  0  0  0  0  0  0  0999 V2000
   -1.1360    8.8040   -1.9120 C   0  0  0  0  0  0  0  0  0  0  0  0
   -1.5510    9.1850   -0.4880 C   0  0  2  0  0  0  0  0  0  0  0  0
   -3.0800    9.3340   -0.3500 C   0  0  0  0  0  0  0  0  0  0  0  0
   -3.8750    8.4140   -1.2800 C   0  0  0  0  0  0  0  0  0  0  0  0
   -5.2170    8.0730   -0.7070 C   0  0  2  0  0  0  0  0  0  0  0  0
   -5.4440    6.6720   -0.5050 O   0  0  0  0  0  0  0  0  0  0  0  0
   -6.2860    7.3170   -1.4740 C   0  0  0  0  0  0  0  0  0  0  0  0
   -6.0590    6.8560   -2.8800 C   0  0  0  0  0  0  0  0  0  0  0  0
   -7.7120    7.4540   -1.0380 C   0  0  0  0  0  0  0  0  0  0  0  0
   -0.8620   10.4810   -0.0750 C   0  0  1  0  0  0  0  0  0  0  0  0
    0.0850   10.2920    1.1390 C   0  0  0  0  0  0  0  0  0  0  0  0
    1.2850   11.2500    0.9230 C   0  0  0  0  0  0  0  0  0  0  0  0
    0.8350   12.1880   -0.2210 C   0  0  1  0  0  0  0  0  0  0  0  0
   -0.0610   13.2630    0.4710 C   0  0  0  0  0  0  0  0  0  0  0  0
    1.9750   12.8430   -1.0660 C   0  0  2  0  0  0  0  0  0  0  0  0
    2.9150   13.7760   -0.2820 C   0  0  0  0  0  0  0  0  0  0  0  0
    2.5030   15.2100   -0.2430 C   0  0  0  0  0  0  0  0  0  0  0  0
    1.5840   15.7820   -1.0440 C   0  0  0  0  0  0  0  0  0  0  0  0
    0.9230   14.9880   -2.1780 C   0  0  1  0  0  0  0  0  0  0  0  0
    0.9270   15.8380   -3.4750 C   0  0  0  0  0  0  0  0  0  0  0  0
    0.2910   17.2110   -3.2770 C   0  0  0  0  0  0  0  0  0  0  0  0
    1.0120   17.9930   -2.1820 C   0  0  2  0  0  0  0  0  0  0  0  0
    2.3360   18.2980   -2.6300 O   0  0  0  0  0  0  0  0  0  0  0  0
    1.0800   17.2310   -0.8290 C   0  0  0  0  0  0  0  0  0  0  0  0
   -0.3330   17.1650   -0.1970 C   0  0  0  0  0  0  0  0  0  0  0  0
    1.9530   18.0660    0.1460 C   0  0  0  0  0  0  0  0  0  0  0  0
    1.4800   13.5180   -2.4100 C   0  0  1  0  0  0  0  0  0  0  0  0
    2.7100   13.5590   -3.3670 C   0  0  0  0  0  0  0  0  0  0  0  0
    0.3790   12.6600   -3.1390 C   0  0  0  0  0  0  0  0  0  0  0  0
   -0.6470   11.9400   -2.2430 C   0  0  0  0  0  0  0  0  0  0  0  0
    0.0520   11.1650   -1.1220 C   0  0  2  0  0  0  0  0  0  0  0  0
    0.9430   10.0610   -1.7880 C   0  0  0  0  0  0  0  0  0  0  0  0
   -0.3263    8.0606   -1.8714 H   0  0  0  0  0  0  0  0  0  0  0  0
   -1.9992    8.3773   -2.4437 H   0  0  0  0  0  0  0  0  0  0  0  0
   -0.7844    9.7005   -2.4437 H   0  0  0  0  0  0  0  0  0  0  0  0
   -1.2368    8.3683    0.1786 H   0  0  0  0  0  0  0  0  0  0  0  0
   -3.3590    9.1028    0.6886 H   0  0  0  0  0  0  0  0  0  0  0  0
   -3.3287   10.3679   -0.6315 H   0  0  0  0  0  0  0  0  0  0  0  0
   -4.0180    8.9206   -2.2459 H   0  0  0  0  0  0  0  0  0  0  0  0
   -3.3080    7.4798   -1.4053 H   0  0  0  0  0  0  0  0  0  0  0  0
   -5.2417    9.0166   -0.1422 H   0  0  0  0  0  0  0  0  0  0  0  0
   -5.5731    5.8692   -2.8684 H   0  0  0  0  0  0  0  0  0  0  0  0
   -7.0243    6.7833   -3.4024 H   0  0  0  0  0  0  0  0  0  0  0  0
   -5.4128    7.5768   -3.4024 H   0  0  0  0  0  0  0  0  0  0  0  0
   -7.7606    7.4587    0.0609 H   0  0  0  0  0  0  0  0  0  0  0  0
   -8.1256    8.3960   -1.4273 H   0  0  0  0  0  0  0  0  0  0  0  0
   -8.2974    6.6080   -1.4273 H   0  0  0  0  0  0  0  0  0  0  0  0
   -1.7456   11.1068    0.1188 H   0  0  0  0  0  0  0  0  0  0  0  0
   -0.4395   10.5461    2.0719 H   0  0  0  0  0  0  0  0  0  0  0  0
    0.4222    9.2480    1.2184 H   0  0  0  0  0  0  0  0  0  0  0  0
    1.4923   11.8249    1.8376 H   0  0  0  0  0  0  0  0  0  0  0  0
    2.2114   10.7094    0.6789 H   0  0  0  0  0  0  0  0  0  0  0  0
    0.0229   13.1624    1.5632 H   0  0  0  0  0  0  0  0  0  0  0  0
    0.2713   14.2671    0.1687 H   0  0  0  0  0  0  0  0  0  0  0  0
   -1.1085   13.1170    0.1687 H   0  0  0  0  0  0  0  0  0  0  0  0
    2.5860   11.9739   -1.3511 H   0  0  0  0  0  0  0  0  0  0  0  0
    2.9707   13.4101    0.7539 H   0  0  0  0  0  0  0  0  0  0  0  0
    3.8793   13.7507   -0.8107 H   0  0  0  0  0  0  0  0  0  0  0  0
    2.9913   15.8541    0.5031 H   0  0  0  0  0  0  0  0  0  0  0  0
   -0.1125   14.8023   -1.8568 H   0  0  0  0  0  0  0  0  0  0  0  0
    1.9679   15.9756   -3.8032 H   0  0  0  0  0  0  0  0  0  0  0  0
    0.3326   15.3003   -4.2284 H   0  0  0  0  0  0  0  0  0  0  0  0
    0.3497   17.7744   -4.2200 H   0  0  0  0  0  0  0  0  0  0  0  0
   -0.7581   17.0722   -2.9768 H   0  0  0  0  0  0  0  0  0  0  0  0
    0.4344   18.9105   -1.9961 H   0  0  0  0  0  0  0  0  0  0  0  0
    2.9430   17.6700   -2.2020 H   0  0  0  0  0  0  0  0  0  0  0  0
   -0.2448   17.1691    0.8995 H   0  0  0  0  0  0  0  0  0  0  0  0
   -0.9206   18.0367   -0.5209 H   0  0  0  0  0  0  0  0  0  0  0  0
   -0.8368   16.2423   -0.5209 H   0  0  0  0  0  0  0  0  0  0  0  0
    1.6885   17.8130    1.1833 H   0  0  0  0  0  0  0  0  0  0  0  0
    3.0154   17.8393   -0.0272 H   0  0  0  0  0  0  0  0  0  0  0  0
    1.7737   19.1374   -0.0272 H   0  0  0  0  0  0  0  0  0  0  0  0
    3.6356   13.5899   -2.7734 H   0  0  0  0  0  0  0  0  0  0  0  0
    2.7111   12.6604   -4.0014 H   0  0  0  0  0  0  0  0  0  0  0  0
    2.6512   14.4557   -4.0014 H   0  0  0  0  0  0  0  0  0  0  0  0
   -0.1777   13.3324   -3.8084 H   0  0  0  0  0  0  0  0  0  0  0  0
    0.9309   11.8560   -3.6479 H   0  0  0  0  0  0  0  0  0  0  0  0
   -1.3220   12.6858   -1.7980 H   0  0  0  0  0  0  0  0  0  0  0  0
   -1.2135   11.2279   -2.8611 H   0  0  0  0  0  0  0  0  0  0  0  0
    1.4282    9.4598   -1.0050 H   0  0  0  0  0  0  0  0  0  0  0  0
    0.3141    9.4101   -2.4132 H   0  0  0  0  0  0  0  0  0  0  0  0
    1.7120   10.5383   -2.4132 H   0  0  0  0  0  0  0  0  0  0  0  0
  1  2  1  0
  2  3  1  0
  3  4  1  0
  4  5  1  0
  5  6  1  0
  6  7  1  0
  7  8  1  0
  7  9  1  0
  2 10  1  0
 10 11  1  0
 11 12  1  0
 12 13  1  0
 13 14  1  1
 13 15  1  0
 15 16  1  0
 16 17  1  0
 17 18  2  0
 18 19  1  0
 19 20  1  0
 20 21  1  0
 21 22  1  0
 22 23  1  0
 22 24  1  0
 24 25  1  0
 24 26  1  0
 19 27  1  0
 27 28  1  6
 27 29  1  0
 29 30  1  0
 30 31  1  0
 31 32  1  6
  7  5  1  0
 31 10  1  0
 31 13  1  0
 27 15  1  0
 24 18  1  0
  1 33  1  0
  1 34  1  0
  1 35  1  0
  2 36  1  1
  3 37  1  0
  3 38  1  0
  4 39  1  0
  4 40  1  0
  5 41  1  1
  8 42  1  0
  8 43  1  0
  8 44  1  0
  9 45  1  0
  9 46  1  0
  9 47  1  0
 10 48  1  1
 11 49  1  0
 11 50  1  0
 12 51  1  0
 12 52  1  0
 14 53  1  0
 14 54  1  0
 14 55  1  0
 15 56  1  6
 16 57  1  0
 16 58  1  0
 17 59  1  0
 19 60  1  1
 20 61  1  0
 20 62  1  0
 21 63  1  0
 21 64  1  0
 22 65  1  1
 23 66  1  0
 25 67  1  0
 25 68  1  0
 25 69  1  0
 26 70  1  0
 26 71  1  0
 26 72  1  0
 28 73  1  0
 28 74  1  0
 28 75  1  0
 29 76  1  0
 29 77  1  0
 30 78  1  0
 30 79  1  0
 32 80  1  0
 32 81  1  0
 32 82  1  0
M  END
>  <meeko>  (4) 
{"is_sidechain": [false], "intermolecular_energy": 2.731, "internal_energy": -0.839}

$$$$
EPH_relaxed_0001_pdb2pqr_Repair_135_r2_0001_out
     RDKit          3D

 82 86  0  0  0  0  0  0  0  0999 V2000
   -0.6390    7.8890   -0.5930 C   0  0  0  0  0  0  0  0  0  0  0  0
   -1.0790    9.2430   -0.0280 C   0  0  2  0  0  0  0  0  0  0  0  0
   -2.3410    9.7820   -0.7300 C   0  0  0  0  0  0  0  0  0  0  0  0
   -3.6500    9.3050   -0.0940 C   0  0  0  0  0  0  0  0  0  0  0  0
   -4.0350    7.9390   -0.5760 C   0  0  2  0  0  0  0  0  0  0  0  0
   -4.1500    7.8170   -2.0000 O   0  0  0  0  0  0  0  0  0  0  0  0
   -5.3600    7.6320   -1.2480 C   0  0  0  0  0  0  0  0  0  0  0  0
   -6.3860    8.6980   -1.4740 C   0  0  0  0  0  0  0  0  0  0  0  0
   -5.8560    6.2190   -1.2420 C   0  0  0  0  0  0  0  0  0  0  0  0
    0.0570   10.2520   -0.1530 C   0  0  1  0  0  0  0  0  0  0  0  0
    1.4570    9.5820   -0.1240 C   0  0  0  0  0  0  0  0  0  0  0  0
    2.3650   10.4030   -1.0750 C   0  0  0  0  0  0  0  0  0  0  0  0
    1.5660   11.6960   -1.3580 C   0  0  1  0  0  0  0  0  0  0  0  0
    1.8260   12.6080   -0.1180 C   0  0  0  0  0  0  0  0  0  0  0  0
    1.8960   12.4340   -2.6960 C   0  0  2  0  0  0  0  0  0  0  0  0
    3.3380   12.9560   -2.8150 C   0  0  0  0  0  0  0  0  0  0  0  0
    3.5560   14.3470   -2.3210 C   0  0  0  0  0  0  0  0  0  0  0  0
    2.5880   15.2480   -2.0670 C   0  0  0  0  0  0  0  0  0  0  0  0
    1.1180   14.9300   -2.3690 C   0  0  1  0  0  0  0  0  0  0  0  0
    0.4700   16.1310   -3.1060 C   0  0  0  0  0  0  0  0  0  0  0  0
    0.6390   17.4440   -2.3470 C   0  0  0  0  0  0  0  0  0  0  0  0
    2.1160   17.7540   -2.1170 C   0  0  2  0  0  0  0  0  0  0  0  0
    2.7340   18.0160   -3.3800 O   0  0  0  0  0  0  0  0  0  0  0  0
    2.8760   16.6100   -1.3900 C   0  0  0  0  0  0  0  0  0  0  0  0
    2.4080   16.5290    0.0840 C   0  0  0  0  0  0  0  0  0  0  0  0
    4.3810   16.9890   -1.3470 C   0  0  0  0  0  0  0  0  0  0  0  0
    0.8440   13.5460   -3.1000 C   0  0  1  0  0  0  0  0  0  0  0  0
    0.9600   13.7270   -4.6450 C   0  0  0  0  0  0  0  0  0  0  0  0
   -0.6380   13.0980   -2.8150 C   0  0  0  0  0  0  0  0  0  0  0  0
   -0.8810   12.2700   -1.5390 C   0  0  0  0  0  0  0  0  0  0  0  0
    0.1110   11.1070   -1.4440 C   0  0  2  0  0  0  0  0  0  0  0  0
   -0.1420   10.1610   -2.6660 C   0  0  0  0  0  0  0  0  0  0  0  0
   -0.4154    7.2011    0.2357 H   0  0  0  0  0  0  0  0  0  0  0  0
   -1.4470    7.4692   -1.2102 H   0  0  0  0  0  0  0  0  0  0  0  0
    0.2614    8.0244   -1.2102 H   0  0  0  0  0  0  0  0  0  0  0  0
   -1.3291    9.0937    1.0327 H   0  0  0  0  0  0  0  0  0  0  0  0
   -2.3168   10.8811   -0.6923 H   0  0  0  0  0  0  0  0  0  0  0  0
   -2.3251    9.3971   -1.7604 H   0  0  0  0  0  0  0  0  0  0  0  0
   -3.5255    9.2756    0.9985 H   0  0  0  0  0  0  0  0  0  0  0  0
   -4.4466   10.0071   -0.3812 H   0  0  0  0  0  0  0  0  0  0  0  0
   -3.5082    7.4673    0.2666 H   0  0  0  0  0  0  0  0  0  0  0  0
   -6.7459    9.0720   -0.5042 H   0  0  0  0  0  0  0  0  0  0  0  0
   -5.9359    9.5256   -2.0420 H   0  0  0  0  0  0  0  0  0  0  0  0
   -7.2302    8.2799   -2.0420 H   0  0  0  0  0  0  0  0  0  0  0  0
   -5.9761    5.8770   -0.2034 H   0  0  0  0  0  0  0  0  0  0  0  0
   -6.8256    6.1685   -1.7591 H   0  0  0  0  0  0  0  0  0  0  0  0
   -5.1307    5.5736   -1.7591 H   0  0  0  0  0  0  0  0  0  0  0  0
   -0.1694   10.8920    0.7126 H   0  0  0  0  0  0  0  0  0  0  0  0
    1.8643    9.5996    0.8976 H   0  0  0  0  0  0  0  0  0  0  0  0
    1.3987    8.5309   -0.4430 H   0  0  0  0  0  0  0  0  0  0  0  0
    3.3239   10.6375   -0.5898 H   0  0  0  0  0  0  0  0  0  0  0  0
    2.6089    9.8535   -1.9962 H   0  0  0  0  0  0  0  0  0  0  0  0
    1.6612   12.0300    0.8033 H   0  0  0  0  0  0  0  0  0  0  0  0
    2.8637   12.9721   -0.1418 H   0  0  0  0  0  0  0  0  0  0  0  0
    1.1363   13.4646   -0.1418 H   0  0  0  0  0  0  0  0  0  0  0  0
    1.8083   11.6265   -3.4378 H   0  0  0  0  0  0  0  0  0  0  0  0
    3.9911   12.2844   -2.2384 H   0  0  0  0  0  0  0  0  0  0  0  0
    3.5660   12.9764   -3.8909 H   0  0  0  0  0  0  0  0  0  0  0  0
    4.5956   14.6633   -2.1498 H   0  0  0  0  0  0  0  0  0  0  0  0
    0.6317   14.7838   -1.3933 H   0  0  0  0  0  0  0  0  0  0  0  0
    0.9399   16.2327   -4.0954 H   0  0  0  0  0  0  0  0  0  0  0  0
   -0.6083   15.9296   -3.1885 H   0  0  0  0  0  0  0  0  0  0  0  0
    0.1868   18.2587   -2.9316 H   0  0  0  0  0  0  0  0  0  0  0  0
    0.1430   17.3513   -1.3696 H   0  0  0  0  0  0  0  0  0  0  0  0
    2.1699   18.6336   -1.4587 H   0  0  0  0  0  0  0  0  0  0  0  0
    3.6940   18.0630   -3.2340 H   0  0  0  0  0  0  0  0  0  0  0  0
    3.2698   16.6782    0.7511 H   0  0  0  0  0  0  0  0  0  0  0  0
    1.6577   17.3106    0.2740 H   0  0  0  0  0  0  0  0  0  0  0  0
    1.9640   15.5407    0.2740 H   0  0  0  0  0  0  0  0  0  0  0  0
    4.7086   17.0715   -0.3002 H   0  0  0  0  0  0  0  0  0  0  0  0
    4.9697   16.2111   -1.8552 H   0  0  0  0  0  0  0  0  0  0  0  0
    4.5310   17.9530   -1.8552 H   0  0  0  0  0  0  0  0  0  0  0  0
    1.5415   14.6344   -4.8652 H   0  0  0  0  0  0  0  0  0  0  0  0
    1.4663   12.8525   -5.0796 H   0  0  0  0  0  0  0  0  0  0  0  0
   -0.0460   13.8218   -5.0796 H   0  0  0  0  0  0  0  0  0  0  0  0
   -1.2525   14.0075   -2.7433 H   0  0  0  0  0  0  0  0  0  0  0  0
   -0.9007   12.4279   -3.6468 H   0  0  0  0  0  0  0  0  0  0  0  0
   -0.7594   12.9196   -0.6597 H   0  0  0  0  0  0  0  0  0  0  0  0
   -1.9009   11.8595   -1.5758 H   0  0  0  0  0  0  0  0  0  0  0  0
   -0.4103    9.1577   -2.3036 H   0  0  0  0  0  0  0  0  0  0  0  0
   -0.9643   10.5625   -3.2764 H   0  0  0  0  0  0  0  0  0  0  0  0
    0.7710   10.0984   -3.2764 H   0  0  0  0  0  0  0  0  0  0  0  0
  1  2  1  0
  2  3  1  0
  3  4  1  0
  4  5  1  0
  5  6  1  0
  6  7  1  0
  7  8  1  0
  7  9  1  0
  2 10  1  0
 10 11  1  0
 11 12  1  0
 12 13  1  0
 13 14  1  1
 13 15  1  0
 15 16  1  0
 16 17  1  0
 17 18  2  0
 18 19  1  0
 19 20  1  0
 20 21  1  0
 21 22  1  0
 22 23  1  0
 22 24  1  0
 24 25  1  0
 24 26  1  0
 19 27  1  0
 27 28  1  6
 27 29  1  0
 29 30  1  0
 30 31  1  0
 31 32  1  6
  7  5  1  0
 31 10  1  0
 31 13  1  0
 27 15  1  0
 24 18  1  0
  1 33  1  0
  1 34  1  0
  1 35  1  0
  2 36  1  1
  3 37  1  0
  3 38  1  0
  4 39  1  0
  4 40  1  0
  5 41  1  1
  8 42  1  0
  8 43  1  0
  8 44  1  0
  9 45  1  0
  9 46  1  0
  9 47  1  0
 10 48  1  1
 11 49  1  0
 11 50  1  0
 12 51  1  0
 12 52  1  0
 14 53  1  0
 14 54  1  0
 14 55  1  0
 15 56  1  6
 16 57  1  0
 16 58  1  0
 17 59  1  0
 19 60  1  1
 20 61  1  0
 20 62  1  0
 21 63  1  0
 21 64  1  0
 22 65  1  1
 23 66  1  0
 25 67  1  0
 25 68  1  0
 25 69  1  0
 26 70  1  0
 26 71  1  0
 26 72  1  0
 28 73  1  0
 28 74  1  0
 28 75  1  0
 29 76  1  0
 29 77  1  0
 30 78  1  0
 30 79  1  0
 32 80  1  0
 32 81  1  0
 32 82  1  0
M  END
>  <meeko>  (5) 
{"is_sidechain": [false], "intermolecular_energy": 2.731, "internal_energy": -0.839}

$$$$
EPH_relaxed_0001_pdb2pqr_Repair_135_r2_0001_out
     RDKit          3D

 82 86  0  0  0  0  0  0  0  0999 V2000
    3.6930   17.9440   -1.3890 C   0  0  0  0  0  0  0  0  0  0  0  0
    2.6460   17.4820   -2.4060 C   0  0  2  0  0  0  0  0  0  0  0  0
    1.2310   17.9790   -2.0490 C   0  0  0  0  0  0  0  0  0  0  0  0
    1.1870   18.8700   -0.8050 C   0  0  0  0  0  0  0  0  0  0  0  0
   -0.0530   19.7110   -0.7690 C   0  0  2  0  0  0  0  0  0  0  0  0
   -0.4120   20.1930    0.5330 O   0  0  0  0  0  0  0  0  0  0  0  0
   -1.3360   19.2800   -0.0810 C   0  0  0  0  0  0  0  0  0  0  0  0
   -1.4420   17.9610    0.6170 C   0  0  0  0  0  0  0  0  0  0  0  0
   -2.6230   19.9180   -0.5030 C   0  0  0  0  0  0  0  0  0  0  0  0
    2.6540   15.9610   -2.5050 C   0  0  1  0  0  0  0  0  0  0  0  0
    4.0820   15.3820   -2.6930 C   0  0  0  0  0  0  0  0  0  0  0  0
    4.1210   14.0320   -1.9310 C   0  0  0  0  0  0  0  0  0  0  0  0
    2.6400   13.7190   -1.6160 C   0  0  1  0  0  0  0  0  0  0  0  0
    2.0700   13.1040   -2.9320 C   0  0  0  0  0  0  0  0  0  0  0  0
    2.3760   12.7920   -0.3850 C   0  0  2  0  0  0  0  0  0  0  0  0
    2.9510   11.3700   -0.5040 C   0  0  0  0  0  0  0  0  0  0  0  0
    2.0330   10.3590   -1.1060 C   0  0  0  0  0  0  0  0  0  0  0  0
    0.7060   10.5090   -1.2730 C   0  0  0  0  0  0  0  0  0  0  0  0
   -0.0180   11.7550   -0.7470 C   0  0  1  0  0  0  0  0  0  0  0  0
   -1.3080   11.3260    0.0020 C   0  0  0  0  0  0  0  0  0  0  0  0
   -2.2130   10.4420   -0.8510 C   0  0  0  0  0  0  0  0  0  0  0  0
   -1.4750    9.1860   -1.3070 C   0  0  2  0  0  0  0  0  0  0  0  0
   -1.1960    8.3740   -0.1630 O   0  0  0  0  0  0  0  0  0  0  0  0
   -0.1530    9.4930   -2.0650 C   0  0  0  0  0  0  0  0  0  0  0  0
   -0.4780   10.1060   -3.4500 C   0  0  0  0  0  0  0  0  0  0  0  0
    0.5620    8.1430   -2.3450 C   0  0  0  0  0  0  0  0  0  0  0  0
    0.8690   12.7680    0.0980 C   0  0  1  0  0  0  0  0  0  0  0  0
    0.8880   12.3370    1.5960 C   0  0  0  0  0  0  0  0  0  0  0  0
    0.2030   14.1940    0.0540 C   0  0  0  0  0  0  0  0  0  0  0  0
    0.5950   15.1080   -1.1230 C   0  0  0  0  0  0  0  0  0  0  0  0
    2.1170   15.1660   -1.2890 C   0  0  2  0  0  0  0  0  0  0  0  0
    2.7160   15.8010    0.0120 C   0  0  0  0  0  0  0  0  0  0  0  0
    3.3135   17.7765   -0.3702 H   0  0  0  0  0  0  0  0  0  0  0  0
    4.6215   17.3720   -1.5330 H   0  0  0  0  0  0  0  0  0  0  0  0
    3.8963   19.0154   -1.5330 H   0  0  0  0  0  0  0  0  0  0  0  0
    2.9138   17.9196   -3.3790 H   0  0  0  0  0  0  0  0  0  0  0  0
    0.8394   18.5534   -2.9015 H   0  0  0  0  0  0  0  0  0  0  0  0
    0.6239   17.0887   -1.8282 H   0  0  0  0  0  0  0  0  0  0  0  0
    1.2115   18.2325    0.0911 H   0  0  0  0  0  0  0  0  0  0  0  0
    2.0568   19.5427   -0.8342 H   0  0  0  0  0  0  0  0  0  0  0  0
    0.1495   20.0956   -1.7795 H   0  0  0  0  0  0  0  0  0  0  0  0
   -1.4292   18.1200    1.7054 H   0  0  0  0  0  0  0  0  0  0  0  0
   -2.3826   17.4685    0.3294 H   0  0  0  0  0  0  0  0  0  0  0  0
   -0.5921   17.3246    0.3294 H   0  0  0  0  0  0  0  0  0  0  0  0
   -3.2001   20.2041    0.3887 H   0  0  0  0  0  0  0  0  0  0  0  0
   -2.4083   20.8140   -1.1039 H   0  0  0  0  0  0  0  0  0  0  0  0
   -3.2062   19.2046   -1.1039 H   0  0  0  0  0  0  0  0  0  0  0  0
    1.9828   15.8291   -3.3664 H   0  0  0  0  0  0  0  0  0  0  0  0
    4.2875   15.2200   -3.7614 H   0  0  0  0  0  0  0  0  0  0  0  0
    4.8435   16.0756   -2.3070 H   0  0  0  0  0  0  0  0  0  0  0  0
    4.5592   13.2434   -2.5603 H   0  0  0  0  0  0  0  0  0  0  0  0
    4.7389   14.0836   -1.0224 H   0  0  0  0  0  0  0  0  0  0  0  0
    1.3415   12.3180   -2.6839 H   0  0  0  0  0  0  0  0  0  0  0  0
    1.5746   13.8908   -3.5199 H   0  0  0  0  0  0  0  0  0  0  0  0
    2.8921   12.6697   -3.5199 H   0  0  0  0  0  0  0  0  0  0  0  0
    2.9572   13.2838    0.4090 H   0  0  0  0  0  0  0  0  0  0  0  0
    3.8562   11.4205   -1.1269 H   0  0  0  0  0  0  0  0  0  0  0  0
    3.1424   11.0323    0.5252 H   0  0  0  0  0  0  0  0  0  0  0  0
    2.4787    9.4110   -1.4416 H   0  0  0  0  0  0  0  0  0  0  0  0
   -0.2806   12.3511   -1.6334 H   0  0  0  0  0  0  0  0  0  0  0  0
   -1.0220   10.7691    0.9065 H   0  0  0  0  0  0  0  0  0  0  0  0
   -1.8697   12.2388    0.2494 H   0  0  0  0  0  0  0  0  0  0  0  0
   -3.0918   10.1481   -0.2582 H   0  0  0  0  0  0  0  0  0  0  0  0
   -2.5221   11.0104   -1.7406 H   0  0  0  0  0  0  0  0  0  0  0  0
   -2.1289    8.6594   -2.0178 H   0  0  0  0  0  0  0  0  0  0  0  0
   -1.0980    7.4570   -0.4690 H   0  0  0  0  0  0  0  0  0  0  0  0
   -0.9893   11.0703   -3.3133 H   0  0  0  0  0  0  0  0  0  0  0  0
    0.4558   10.2622   -4.0101 H   0  0  0  0  0  0  0  0  0  0  0  0
   -1.1313    9.4208   -4.0101 H   0  0  0  0  0  0  0  0  0  0  0  0
    0.8183    7.6591   -1.3910 H   0  0  0  0  0  0  0  0  0  0  0  0
   -0.1067    7.4865   -2.9212 H   0  0  0  0  0  0  0  0  0  0  0  0
    1.4807    8.3273   -2.9212 H   0  0  0  0  0  0  0  0  0  0  0  0
    0.8486   13.2312    2.2354 H   0  0  0  0  0  0  0  0  0  0  0  0
    0.0171   11.6983    1.8048 H   0  0  0  0  0  0  0  0  0  0  0  0
    1.8117   11.7774    1.8048 H   0  0  0  0  0  0  0  0  0  0  0  0
   -0.8870   14.0511    0.0157 H   0  0  0  0  0  0  0  0  0  0  0  0
    0.5690   14.7104    0.9537 H   0  0  0  0  0  0  0  0  0  0  0  0
    0.1468   14.7159   -2.0479 H   0  0  0  0  0  0  0  0  0  0  0  0
    0.2257   16.1234   -0.9166 H   0  0  0  0  0  0  0  0  0  0  0  0
    2.2652   15.3232    0.8943 H   0  0  0  0  0  0  0  0  0  0  0  0
    3.8050   15.6465    0.0276 H   0  0  0  0  0  0  0  0  0  0  0  0
    2.4983   16.8791    0.0276 H   0  0  0  0  0  0  0  0  0  0  0  0
  1  2  1  0
  2  3  1  0
  3  4  1  0
  4  5  1  0
  5  6  1  0
  6  7  1  0
  7  8  1  0
  7  9  1  0
  2 10  1  0
 10 11  1  0
 11 12  1  0
 12 13  1  0
 13 14  1  6
 13 15  1  0
 15 16  1  0
 16 17  1  0
 17 18  2  0
 18 19  1  0
 19 20  1  0
 20 21  1  0
 21 22  1  0
 22 23  1  0
 22 24  1  0
 24 25  1  0
 24 26  1  0
 19 27  1  0
 27 28  1  1
 27 29  1  0
 29 30  1  0
 30 31  1  0
 31 32  1  1
  7  5  1  0
 31 10  1  0
 31 13  1  0
 27 15  1  0
 24 18  1  0
  1 33  1  0
  1 34  1  0
  1 35  1  0
  2 36  1  6
  3 37  1  0
  3 38  1  0
  4 39  1  0
  4 40  1  0
  5 41  1  6
  8 42  1  0
  8 43  1  0
  8 44  1  0
  9 45  1  0
  9 46  1  0
  9 47  1  0
 10 48  1  6
 11 49  1  0
 11 50  1  0
 12 51  1  0
 12 52  1  0
 14 53  1  0
 14 54  1  0
 14 55  1  0
 15 56  1  1
 16 57  1  0
 16 58  1  0
 17 59  1  0
 19 60  1  6
 20 61  1  0
 20 62  1  0
 21 63  1  0
 21 64  1  0
 22 65  1  6
 23 66  1  0
 25 67  1  0
 25 68  1  0
 25 69  1  0
 26 70  1  0
 26 71  1  0
 26 72  1  0
 28 73  1  0
 28 74  1  0
 28 75  1  0
 29 76  1  0
 29 77  1  0
 30 78  1  0
 30 79  1  0
 32 80  1  0
 32 81  1  0
 32 82  1  0
M  END
>  <meeko>  (6) 
{"is_sidechain": [false], "intermolecular_energy": 2.731, "internal_energy": -0.839}

$$$$
EPH_relaxed_0001_pdb2pqr_Repair_135_r2_0001_out
     RDKit          3D

 82 86  0  0  0  0  0  0  0  0999 V2000
   -2.5500    7.5640   -3.0610 C   0  0  0  0  0  0  0  0  0  0  0  0
   -2.8740    7.8590   -1.5940 C   0  0  2  0  0  0  0  0  0  0  0  0
   -4.3910    7.8350   -1.3190 C   0  0  0  0  0  0  0  0  0  0  0  0
   -5.1090    6.6280   -1.9280 C   0  0  0  0  0  0  0  0  0  0  0  0
   -6.3120    7.0390   -2.7220 C   0  0  2  0  0  0  0  0  0  0  0  0
   -6.8920    8.2890   -2.3250 O   0  0  0  0  0  0  0  0  0  0  0  0
   -7.7100    7.1230   -2.1390 C   0  0  0  0  0  0  0  0  0  0  0  0
   -7.9790    6.7900   -0.7050 C   0  0  0  0  0  0  0  0  0  0  0  0
   -8.8790    7.0520   -3.0710 C   0  0  0  0  0  0  0  0  0  0  0  0
   -2.2930    9.2100   -1.1940 C   0  0  1  0  0  0  0  0  0  0  0  0
   -2.8160    9.7020    0.1820 C   0  0  0  0  0  0  0  0  0  0  0  0
   -1.6460   10.4630    0.8580 C   0  0  0  0  0  0  0  0  0  0  0  0
   -0.6110   10.6710   -0.2720 C   0  0  1  0  0  0  0  0  0  0  0  0
   -1.1270   11.9130   -1.0650 C   0  0  0  0  0  0  0  0  0  0  0  0
    0.8750   10.8500    0.1770 C   0  0  2  0  0  0  0  0  0  0  0  0
    1.1490   12.0880    1.0500 C   0  0  0  0  0  0  0  0  0  0  0  0
    1.5200   13.3260    0.3030 C   0  0  0  0  0  0  0  0  0  0  0  0
    1.9060   13.3760   -0.9860 C   0  0  0  0  0  0  0  0  0  0  0  0
    2.0950   12.0900   -1.8010 C   0  0  1  0  0  0  0  0  0  0  0  0
    3.4360   12.1630   -2.5780 C   0  0  0  0  0  0  0  0  0  0  0  0
    3.5490   13.4200   -3.4350 C   0  0  0  0  0  0  0  0  0  0  0  0
    3.4140   14.6770   -2.5800 C   0  0  2  0  0  0  0  0  0  0  0  0
    4.5450   14.7640   -1.7060 O   0  0  0  0  0  0  0  0  0  0  0  0
    2.1040   14.7110   -1.7440 C   0  0  0  0  0  0  0  0  0  0  0  0
    0.8920   14.9210   -2.6850 C   0  0  0  0  0  0  0  0  0  0  0  0
    2.1590   15.9590   -0.8220 C   0  0  0  0  0  0  0  0  0  0  0  0
    1.9270   10.7290   -0.9990 C   0  0  1  0  0  0  0  0  0  0  0  0
    3.2840   10.3260   -0.3440 C   0  0  0  0  0  0  0  0  0  0  0  0
    1.5640    9.5780   -2.0100 C   0  0  0  0  0  0  0  0  0  0  0  0
    0.0690    9.3730   -2.3220 C   0  0  0  0  0  0  0  0  0  0  0  0
   -0.7550    9.3030   -1.0320 C   0  0  2  0  0  0  0  0  0  0  0  0
   -0.2740    8.0500   -0.2240 C   0  0  0  0  0  0  0  0  0  0  0  0
   -1.7376    6.8243   -3.1155 H   0  0  0  0  0  0  0  0  0  0  0  0
   -3.4445    7.1637   -3.5607 H   0  0  0  0  0  0  0  0  0  0  0  0
   -2.2351    8.4920   -3.5607 H   0  0  0  0  0  0  0  0  0  0  0  0
   -2.4156    7.0640   -0.9875 H   0  0  0  0  0  0  0  0  0  0  0  0
   -4.5461    7.8180   -0.2301 H   0  0  0  0  0  0  0  0  0  0  0  0
   -4.8168    8.7331   -1.7903 H   0  0  0  0  0  0  0  0  0  0  0  0
   -4.4106    6.0948   -2.5898 H   0  0  0  0  0  0  0  0  0  0  0  0
   -5.4468    5.9801   -1.1057 H   0  0  0  0  0  0  0  0  0  0  0  0
   -5.9164    6.5456   -3.6221 H   0  0  0  0  0  0  0  0  0  0  0  0
   -7.4204    7.4815   -0.0570 H   0  0  0  0  0  0  0  0  0  0  0  0
   -9.0558    6.8863   -0.5020 H   0  0  0  0  0  0  0  0  0  0  0  0
   -7.6585    5.7575   -0.5020 H   0  0  0  0  0  0  0  0  0  0  0  0
   -9.8100    6.9955   -2.4878 H   0  0  0  0  0  0  0  0  0  0  0  0
   -8.8975    7.9507   -3.7051 H   0  0  0  0  0  0  0  0  0  0  0  0
   -8.7886    6.1577   -3.7051 H   0  0  0  0  0  0  0  0  0  0  0  0
   -2.6175    9.8122   -2.0554 H   0  0  0  0  0  0  0  0  0  0  0  0
   -3.6752   10.3746    0.0424 H   0  0  0  0  0  0  0  0  0  0  0  0
   -3.1497    8.8577    0.8031 H   0  0  0  0  0  0  0  0  0  0  0  0
   -1.9890   11.4305    1.2533 H   0  0  0  0  0  0  0  0  0  0  0  0
   -1.2264    9.9099    1.7112 H   0  0  0  0  0  0  0  0  0  0  0  0
   -1.4503   12.6911   -0.3579 H   0  0  0  0  0  0  0  0  0  0  0  0
   -0.3177   12.3060   -1.6979 H   0  0  0  0  0  0  0  0  0  0  0  0
   -1.9765   11.6169   -1.6979 H   0  0  0  0  0  0  0  0  0  0  0  0
    1.0283    9.9810    0.8337 H   0  0  0  0  0  0  0  0  0  0  0  0
    0.2401   12.3016    1.6316 H   0  0  0  0  0  0  0  0  0  0  0  0
    2.0207   11.8350    1.6714 H   0  0  0  0  0  0  0  0  0  0  0  0
    1.4742   14.2781    0.8521 H   0  0  0  0  0  0  0  0  0  0  0  0
    1.2543   12.0522   -2.5093 H   0  0  0  0  0  0  0  0  0  0  0  0
    4.2639   12.1547   -1.8537 H   0  0  0  0  0  0  0  0  0  0  0  0
    3.4784   11.2949   -3.2522 H   0  0  0  0  0  0  0  0  0  0  0  0
    4.5289   13.4281   -3.9348 H   0  0  0  0  0  0  0  0  0  0  0  0
    2.7382   13.4122   -4.1783 H   0  0  0  0  0  0  0  0  0  0  0  0
    3.3728   15.5381   -3.2633 H   0  0  0  0  0  0  0  0  0  0  0  0
    5.2820   14.2950   -2.1320 H   0  0  0  0  0  0  0  0  0  0  0  0
   -0.0158   15.0783   -2.0841 H   0  0  0  0  0  0  0  0  0  0  0  0
    1.0688   15.8019   -3.3196 H   0  0  0  0  0  0  0  0  0  0  0  0
    0.7622   14.0320   -3.3196 H   0  0  0  0  0  0  0  0  0  0  0  0
    2.1449   15.6385    0.2302 H   0  0  0  0  0  0  0  0  0  0  0  0
    3.0828   16.5218   -1.0215 H   0  0  0  0  0  0  0  0  0  0  0  0
    1.2883   16.6009   -1.0215 H   0  0  0  0  0  0  0  0  0  0  0  0
    3.1855   10.3553    0.7512 H   0  0  0  0  0  0  0  0  0  0  0  0
    3.5561    9.3083   -0.6606 H   0  0  0  0  0  0  0  0  0  0  0  0
    4.0674   11.0303   -0.6606 H   0  0  0  0  0  0  0  0  0  0  0  0
    2.0753    9.7955   -2.9594 H   0  0  0  0  0  0  0  0  0  0  0  0
    1.8848    8.6491   -1.5158 H   0  0  0  0  0  0  0  0  0  0  0  0
   -0.2899   10.2142   -2.9332 H   0  0  0  0  0  0  0  0  0  0  0  0
   -0.0493    8.4243   -2.8661 H   0  0  0  0  0  0  0  0  0  0  0  0
   -0.3531    8.2561    0.8536 H   0  0  0  0  0  0  0  0  0  0  0  0
   -0.9041    7.1852   -0.4791 H   0  0  0  0  0  0  0  0  0  0  0  0
    0.7729    7.8289   -0.4791 H   0  0  0  0  0  0  0  0  0  0  0  0
  1  2  1  0
  2  3  1  0
  3  4  1  0
  4  5  1  0
  5  6  1  0
  6  7  1  0
  7  8  1  0
  7  9  1  0
  2 10  1  0
 10 11  1  0
 11 12  1  0
 12 13  1  0
 13 14  1  6
 13 15  1  0
 15 16  1  0
 16 17  1  0
 17 18  2  0
 18 19  1  0
 19 20  1  0
 20 21  1  0
 21 22  1  0
 22 23  1  0
 22 24  1  0
 24 25  1  0
 24 26  1  0
 19 27  1  0
 27 28  1  1
 27 29  1  0
 29 30  1  0
 30 31  1  0
 31 32  1  1
  7  5  1  0
 31 10  1  0
 31 13  1  0
 27 15  1  0
 24 18  1  0
  1 33  1  0
  1 34  1  0
  1 35  1  0
  2 36  1  1
  3 37  1  0
  3 38  1  0
  4 39  1  0
  4 40  1  0
  5 41  1  6
  8 42  1  0
  8 43  1  0
  8 44  1  0
  9 45  1  0
  9 46  1  0
  9 47  1  0
 10 48  1  6
 11 49  1  0
 11 50  1  0
 12 51  1  0
 12 52  1  0
 14 53  1  0
 14 54  1  0
 14 55  1  0
 15 56  1  1
 16 57  1  0
 16 58  1  0
 17 59  1  0
 19 60  1  6
 20 61  1  0
 20 62  1  0
 21 63  1  0
 21 64  1  0
 22 65  1  6
 23 66  1  0
 25 67  1  0
 25 68  1  0
 25 69  1  0
 26 70  1  0
 26 71  1  0
 26 72  1  0
 28 73  1  0
 28 74  1  0
 28 75  1  0
 29 76  1  0
 29 77  1  0
 30 78  1  0
 30 79  1  0
 32 80  1  0
 32 81  1  0
 32 82  1  0
M  END
>  <meeko>  (7) 
{"is_sidechain": [false], "intermolecular_energy": 2.731, "internal_energy": -0.839}

$$$$
EPH_relaxed_0001_pdb2pqr_Repair_135_r2_0001_out
     RDKit          3D

 82 86  0  0  0  0  0  0  0  0999 V2000
    3.3430   18.4520    0.2700 C   0  0  0  0  0  0  0  0  0  0  0  0
    3.5810   17.1920   -0.5670 C   0  0  2  0  0  0  0  0  0  0  0  0
    3.8340   17.5210   -2.0520 C   0  0  0  0  0  0  0  0  0  0  0  0
    5.2210   17.1030   -2.5470 C   0  0  0  0  0  0  0  0  0  0  0  0
    5.2480   15.6670   -2.9740 C   0  0  2  0  0  0  0  0  0  0  0  0
    6.3730   14.9200   -2.4930 O   0  0  0  0  0  0  0  0  0  0  0  0
    6.2900   15.0930   -3.9160 C   0  0  0  0  0  0  0  0  0  0  0  0
    7.3770   15.9470   -4.4910 C   0  0  0  0  0  0  0  0  0  0  0  0
    5.9670   13.8340   -4.6590 C   0  0  0  0  0  0  0  0  0  0  0  0
    2.3910   16.2490   -0.4380 C   0  0  1  0  0  0  0  0  0  0  0  0
    1.0350   17.0020   -0.3850 C   0  0  0  0  0  0  0  0  0  0  0  0
   -0.0010   16.1110   -1.1180 C   0  0  0  0  0  0  0  0  0  0  0  0
    0.7030   14.7430   -1.2750 C   0  0  1  0  0  0  0  0  0  0  0  0
    0.5210   14.0380    0.1060 C   0  0  0  0  0  0  0  0  0  0  0  0
    0.2090   13.8430   -2.4530 C   0  0  2  0  0  0  0  0  0  0  0  0
   -1.2620   13.4010   -2.3640 C   0  0  0  0  0  0  0  0  0  0  0  0
   -1.4990   12.1110   -1.6500 C   0  0  0  0  0  0  0  0  0  0  0  0
   -0.5560   11.1980   -1.3520 C   0  0  0  0  0  0  0  0  0  0  0  0
    0.8920   11.3760   -1.8280 C   0  0  1  0  0  0  0  0  0  0  0  0
    1.4060   10.0430   -2.4320 C   0  0  0  0  0  0  0  0  0  0  0  0
    1.2470    8.8670   -1.4740 C   0  0  0  0  0  0  0  0  0  0  0  0
   -0.2130    8.6860   -1.0690 C   0  0  2  0  0  0  0  0  0  0  0  0
   -0.9640    8.2840   -2.2190 O   0  0  0  0  0  0  0  0  0  0  0  0
   -0.8430    9.9680   -0.4560 C   0  0  0  0  0  0  0  0  0  0  0  0
   -0.2300   10.2310    0.9420 C   0  0  0  0  0  0  0  0  0  0  0  0
   -2.3530    9.6940   -0.2230 C   0  0  0  0  0  0  0  0  0  0  0  0
    1.1610   12.6210   -2.7790 C   0  0  1  0  0  0  0  0  0  0  0  0
    0.8870   12.2260   -4.2620 C   0  0  0  0  0  0  0  0  0  0  0  0
    2.6840   13.0110   -2.6970 C   0  0  0  0  0  0  0  0  0  0  0  0
    3.0900   13.9970   -1.5850 C   0  0  0  0  0  0  0  0  0  0  0  0
    2.1700   15.2220   -1.5770 C   0  0  2  0  0  0  0  0  0  0  0  0
    2.3490   15.9650   -2.9440 C   0  0  0  0  0  0  0  0  0  0  0  0
    3.3912   18.1967    1.3389 H   0  0  0  0  0  0  0  0  0  0  0  0
    4.1159   19.1989    0.0362 H   0  0  0  0  0  0  0  0  0  0  0  0
    2.3509   18.8655    0.0362 H   0  0  0  0  0  0  0  0  0  0  0  0
    4.4862   16.7028   -0.1781 H   0  0  0  0  0  0  0  0  0  0  0  0
    3.0776   16.9996   -2.6570 H   0  0  0  0  0  0  0  0  0  0  0  0
    3.7722   18.6145   -2.1542 H   0  0  0  0  0  0  0  0  0  0  0  0
    5.4991   17.7348   -3.4035 H   0  0  0  0  0  0  0  0  0  0  0  0
    5.9327   17.2273   -1.7176 H   0  0  0  0  0  0  0  0  0  0  0  0
    4.1489   15.6224   -2.9738 H   0  0  0  0  0  0  0  0  0  0  0  0
    7.9564   16.4022   -3.6743 H   0  0  0  0  0  0  0  0  0  0  0  0
    8.0415   15.3269   -5.1106 H   0  0  0  0  0  0  0  0  0  0  0  0
    6.9317   16.7394   -5.1106 H   0  0  0  0  0  0  0  0  0  0  0  0
    5.7600   13.0271   -3.9406 H   0  0  0  0  0  0  0  0  0  0  0  0
    5.0819   13.9981   -5.2912 H   0  0  0  0  0  0  0  0  0  0  0  0
    6.8218   13.5517   -5.2912 H   0  0  0  0  0  0  0  0  0  0  0  0
    2.6691   15.7278    0.4899 H   0  0  0  0  0  0  0  0  0  0  0  0
    0.7287   17.1575    0.6600 H   0  0  0  0  0  0  0  0  0  0  0  0
    1.1133   17.9902   -0.8618 H   0  0  0  0  0  0  0  0  0  0  0  0
   -0.9183   16.0093   -0.5195 H   0  0  0  0  0  0  0  0  0  0  0  0
   -0.3069   16.5363   -2.0853 H   0  0  0  0  0  0  0  0  0  0  0  0
    0.7076   14.7607    0.9140 H   0  0  0  0  0  0  0  0  0  0  0  0
   -0.5060   13.6528    0.1885 H   0  0  0  0  0  0  0  0  0  0  0  0
    1.2332   13.2038    0.1885 H   0  0  0  0  0  0  0  0  0  0  0  0
    0.2637   14.5282   -3.3118 H   0  0  0  0  0  0  0  0  0  0  0  0
   -1.8221   14.1883   -1.8382 H   0  0  0  0  0  0  0  0  0  0  0  0
   -1.5944   13.2405   -3.4002 H   0  0  0  0  0  0  0  0  0  0  0  0
   -2.5311   11.8882   -1.3417 H   0  0  0  0  0  0  0  0  0  0  0  0
    1.4777   11.6301   -0.9322 H   0  0  0  0  0  0  0  0  0  0  0  0
    0.8382    9.8295   -3.3496 H   0  0  0  0  0  0  0  0  0  0  0  0
    2.4798   10.1623   -2.6388 H   0  0  0  0  0  0  0  0  0  0  0  0
    1.5996    7.9499   -1.9685 H   0  0  0  0  0  0  0  0  0  0  0  0
    1.8395    9.0689   -0.5694 H   0  0  0  0  0  0  0  0  0  0  0  0
   -0.2441    7.9156   -0.2845 H   0  0  0  0  0  0  0  0  0  0  0  0
   -0.3750    7.7570   -2.7860 H   0  0  0  0  0  0  0  0  0  0  0  0
   -0.9451    9.9242    1.7195 H   0  0  0  0  0  0  0  0  0  0  0  0
    0.6993    9.6524    1.0496 H   0  0  0  0  0  0  0  0  0  0  0  0
   -0.0089   11.3032    1.0496 H   0  0  0  0  0  0  0  0  0  0  0  0
   -2.5565    9.6571    0.8574 H   0  0  0  0  0  0  0  0  0  0  0  0
   -2.9466   10.4991   -0.6806 H   0  0  0  0  0  0  0  0  0  0  0  0
   -2.6259    8.7317   -0.6806 H   0  0  0  0  0  0  0  0  0  0  0  0
    0.2603   11.3225   -4.2910 H   0  0  0  0  0  0  0  0  0  0  0  0
    0.3657   13.0503   -4.7707 H   0  0  0  0  0  0  0  0  0  0  0  0
    1.8417   12.0265   -4.7707 H   0  0  0  0  0  0  0  0  0  0  0  0
    3.2571   12.0844   -2.5455 H   0  0  0  0  0  0  0  0  0  0  0  0
    2.8976   13.5365   -3.6395 H   0  0  0  0  0  0  0  0  0  0  0  0
    3.0222   13.4895   -0.6114 H   0  0  0  0  0  0  0  0  0  0  0  0
    4.1205   14.3330   -1.7726 H   0  0  0  0  0  0  0  0  0  0  0  0
    2.6029   17.0190   -2.7580 H   0  0  0  0  0  0  0  0  0  0  0  0
    3.1581   15.4886   -3.5171 H   0  0  0  0  0  0  0  0  0  0  0  0
    1.4117   15.9093   -3.5171 H   0  0  0  0  0  0  0  0  0  0  0  0
  1  2  1  0
  2  3  1  0
  3  4  1  0
  4  5  1  0
  5  6  1  0
  6  7  1  0
  7  8  1  0
  7  9  1  0
  2 10  1  0
 10 11  1  0
 11 12  1  0
 12 13  1  0
 13 14  1  1
 13 15  1  0
 15 16  1  0
 16 17  1  0
 17 18  2  0
 18 19  1  0
 19 20  1  0
 20 21  1  0
 21 22  1  0
 22 23  1  0
 22 24  1  0
 24 25  1  0
 24 26  1  0
 19 27  1  0
 27 28  1  6
 27 29  1  0
 29 30  1  0
 30 31  1  0
 31 32  1  6
  7  5  1  0
 31 10  1  0
 31 13  1  0
 27 15  1  0
 24 18  1  0
  1 33  1  0
  1 34  1  0
  1 35  1  0
  2 36  1  1
  3 37  1  0
  3 38  1  0
  4 39  1  0
  4 40  1  0
  5 41  1  6
  8 42  1  0
  8 43  1  0
  8 44  1  0
  9 45  1  0
  9 46  1  0
  9 47  1  0
 10 48  1  1
 11 49  1  0
 11 50  1  0
 12 51  1  0
 12 52  1  0
 14 53  1  0
 14 54  1  0
 14 55  1  0
 15 56  1  6
 16 57  1  0
 16 58  1  0
 17 59  1  0
 19 60  1  1
 20 61  1  0
 20 62  1  0
 21 63  1  0
 21 64  1  0
 22 65  1  1
 23 66  1  0
 25 67  1  0
 25 68  1  0
 25 69  1  0
 26 70  1  0
 26 71  1  0
 26 72  1  0
 28 73  1  0
 28 74  1  0
 28 75  1  0
 29 76  1  0
 29 77  1  0
 30 78  1  0
 30 79  1  0
 32 80  1  0
 32 81  1  0
 32 82  1  0
M  END
>  <meeko>  (8) 
{"is_sidechain": [false], "intermolecular_energy": 2.731, "internal_energy": -0.839}

$$$$
EPH_relaxed_0001_pdb2pqr_Repair_135_r2_0001_out
     RDKit          3D

 82 86  0  0  0  0  0  0  0  0999 V2000
    1.2050   18.1390   -0.1200 C   0  0  0  0  0  0  0  0  0  0  0  0
    2.1150   17.0240   -0.6420 C   0  0  2  0  0  0  0  0  0  0  0  0
    3.0970   17.5310   -1.7180 C   0  0  0  0  0  0  0  0  0  0  0  0
    4.5620   17.2040   -1.4170 C   0  0  0  0  0  0  0  0  0  0  0  0
    5.4810   17.7760   -2.4530 C   0  0  2  0  0  0  0  0  0  0  0  0
    5.0050   17.6700   -3.8010 O   0  0  0  0  0  0  0  0  0  0  0  0
    6.2000   16.9350   -3.4910 C   0  0  0  0  0  0  0  0  0  0  0  0
    6.0310   15.4490   -3.5430 C   0  0  0  0  0  0  0  0  0  0  0  0
    7.4330   17.4900   -4.1340 C   0  0  0  0  0  0  0  0  0  0  0  0
    1.2720   15.8840   -1.2020 C   0  0  1  0  0  0  0  0  0  0  0  0
    0.6920   16.2040   -2.6060 C   0  0  0  0  0  0  0  0  0  0  0  0
    0.6730   14.8700   -3.3960 C   0  0  0  0  0  0  0  0  0  0  0  0
    0.9240   13.7800   -2.3280 C   0  0  1  0  0  0  0  0  0  0  0  0
   -0.4660   13.5480   -1.6570 C   0  0  0  0  0  0  0  0  0  0  0  0
    1.5480   12.4410   -2.8400 C   0  0  2  0  0  0  0  0  0  0  0  0
    0.6860   11.6630   -3.8480 C   0  0  0  0  0  0  0  0  0  0  0  0
   -0.2540   10.6690   -3.2500 C   0  0  0  0  0  0  0  0  0  0  0  0
   -0.2030   10.2060   -1.9870 C   0  0  0  0  0  0  0  0  0  0  0  0
    0.9370   10.6130   -1.0450 C   0  0  1  0  0  0  0  0  0  0  0  0
    1.4860    9.3540   -0.3230 C   0  0  0  0  0  0  0  0  0  0  0  0
    0.3920    8.5650    0.3900 C   0  0  0  0  0  0  0  0  0  0  0  0
   -0.6930    8.1290   -0.5900 C   0  0  2  0  0  0  0  0  0  0  0  0
   -0.1360    7.1780   -1.5020 O   0  0  0  0  0  0  0  0  0  0  0  0
   -1.3140    9.3130   -1.3830 C   0  0  0  0  0  0  0  0  0  0  0  0
   -2.1740   10.1820   -0.4330 C   0  0  0  0  0  0  0  0  0  0  0  0
   -2.2920    8.7220   -2.4350 C   0  0  0  0  0  0  0  0  0  0  0  0
    2.0890   11.4970   -1.6910 C   0  0  1  0  0  0  0  0  0  0  0  0
    3.1650   10.5750   -2.3420 C   0  0  0  0  0  0  0  0  0  0  0  0
    2.8220   12.2990   -0.5520 C   0  0  0  0  0  0  0  0  0  0  0  0
    2.2260   13.6690   -0.1730 C   0  0  0  0  0  0  0  0  0  0  0  0
    1.9740   14.5210   -1.4210 C   0  0  2  0  0  0  0  0  0  0  0  0
    3.3580   14.7890   -2.1050 C   0  0  0  0  0  0  0  0  0  0  0  0
    1.2106   18.1321    0.9800 H   0  0  0  0  0  0  0  0  0  0  0  0
    1.5711   19.1109   -0.4825 H   0  0  0  0  0  0  0  0  0  0  0  0
    0.1794   17.9751   -0.4825 H   0  0  0  0  0  0  0  0  0  0  0  0
    2.7137   16.6616    0.2067 H   0  0  0  0  0  0  0  0  0  0  0  0
    2.8283   17.0684   -2.6791 H   0  0  0  0  0  0  0  0  0  0  0  0
    3.0105   18.6273   -1.7413 H   0  0  0  0  0  0  0  0  0  0  0  0
    4.8265   17.6234   -0.4351 H   0  0  0  0  0  0  0  0  0  0  0  0
    4.6775   16.1101   -1.4222 H   0  0  0  0  0  0  0  0  0  0  0  0
    5.8378   18.5403   -1.7469 H   0  0  0  0  0  0  0  0  0  0  0  0
    5.9855   15.0491   -2.5193 H   0  0  0  0  0  0  0  0  0  0  0  0
    5.0992   15.2043   -4.0740 H   0  0  0  0  0  0  0  0  0  0  0  0
    6.8840   15.0013   -4.0740 H   0  0  0  0  0  0  0  0  0  0  0  0
    8.1411   17.8087   -3.3549 H   0  0  0  0  0  0  0  0  0  0  0  0
    7.9005   16.7155   -4.7598 H   0  0  0  0  0  0  0  0  0  0  0  0
    7.1632   18.3535   -4.7598 H   0  0  0  0  0  0  0  0  0  0  0  0
    0.5242   15.7967   -0.4001 H   0  0  0  0  0  0  0  0  0  0  0  0
   -0.3286   16.6035   -2.5123 H   0  0  0  0  0  0  0  0  0  0  0  0
    1.3013   16.9605   -3.1223 H   0  0  0  0  0  0  0  0  0  0  0  0
   -0.3025   14.7203   -3.8817 H   0  0  0  0  0  0  0  0  0  0  0  0
    1.4259   14.8494   -4.1977 H   0  0  0  0  0  0  0  0  0  0  0  0
   -0.3528   13.5669   -0.5630 H   0  0  0  0  0  0  0  0  0  0  0  0
   -1.1603   14.3427   -1.9676 H   0  0  0  0  0  0  0  0  0  0  0  0
   -0.8646   12.5709   -1.9676 H   0  0  0  0  0  0  0  0  0  0  0  0
    2.4249   12.7903   -3.4049 H   0  0  0  0  0  0  0  0  0  0  0  0
    0.0921   12.3908   -4.4203 H   0  0  0  0  0  0  0  0  0  0  0  0
    1.3882   11.0842   -4.4659 H   0  0  0  0  0  0  0  0  0  0  0  0
   -1.0560   10.2824   -3.8961 H   0  0  0  0  0  0  0  0  0  0  0  0
    0.4934   11.3014   -0.3106 H   0  0  0  0  0  0  0  0  0  0  0  0
    1.9637    8.7005   -1.0678 H   0  0  0  0  0  0  0  0  0  0  0  0
    2.2041    9.6922    0.4385 H   0  0  0  0  0  0  0  0  0  0  0  0
    0.8366    7.6728    0.8551 H   0  0  0  0  0  0  0  0  0  0  0  0
   -0.0646    9.2105    1.1548 H   0  0  0  0  0  0  0  0  0  0  0  0
   -1.5089    7.6836   -0.0018 H   0  0  0  0  0  0  0  0  0  0  0  0
    0.1800    7.6680   -2.2810 H   0  0  0  0  0  0  0  0  0  0  0  0
   -1.9301    9.9355    0.6109 H   0  0  0  0  0  0  0  0  0  0  0  0
   -1.9631   11.2457   -0.6175 H   0  0  0  0  0  0  0  0  0  0  0  0
   -3.2398    9.9822   -0.6175 H   0  0  0  0  0  0  0  0  0  0  0  0
   -3.1241    8.2192   -1.9204 H   0  0  0  0  0  0  0  0  0  0  0  0
   -2.6868    9.5328   -3.0648 H   0  0  0  0  0  0  0  0  0  0  0  0
   -1.7578    7.9954   -3.0648 H   0  0  0  0  0  0  0  0  0  0  0  0
    3.7468   10.0765   -1.5527 H   0  0  0  0  0  0  0  0  0  0  0  0
    2.6692    9.8170   -2.9663 H   0  0  0  0  0  0  0  0  0  0  0  0
    3.8380   11.1811   -2.9663 H   0  0  0  0  0  0  0  0  0  0  0  0
    2.8174   11.6724    0.3521 H   0  0  0  0  0  0  0  0  0  0  0  0
    3.8216   12.5211   -0.9537 H   0  0  0  0  0  0  0  0  0  0  0  0
    1.2736   13.5136    0.3550 H   0  0  0  0  0  0  0  0  0  0  0  0
    2.9427   14.1968    0.4734 H   0  0  0  0  0  0  0  0  0  0  0  0
    4.1263   14.9378   -1.3320 H   0  0  0  0  0  0  0  0  0  0  0  0
    3.6304   13.9269   -2.7316 H   0  0  0  0  0  0  0  0  0  0  0  0
    3.2889   15.6904   -2.7316 H   0  0  0  0  0  0  0  0  0  0  0  0
  1  2  1  0
  2  3  1  0
  3  4  1  0
  4  5  1  0
  5  6  1  0
  6  7  1  0
  7  8  1  0
  7  9  1  0
  2 10  1  0
 10 11  1  0
 11 12  1  0
 12 13  1  0
 13 14  1  1
 13 15  1  0
 15 16  1  0
 16 17  1  0
 17 18  2  0
 18 19  1  0
 19 20  1  0
 20 21  1  0
 21 22  1  0
 22 23  1  0
 22 24  1  0
 24 25  1  0
 24 26  1  0
 19 27  1  0
 27 28  1  6
 27 29  1  0
 29 30  1  0
 30 31  1  0
 31 32  1  6
  7  5  1  0
 31 10  1  0
 31 13  1  0
 27 15  1  0
 24 18  1  0
  1 33  1  0
  1 34  1  0
  1 35  1  0
  2 36  1  1
  3 37  1  0
  3 38  1  0
  4 39  1  0
  4 40  1  0
  5 41  1  1
  8 42  1  0
  8 43  1  0
  8 44  1  0
  9 45  1  0
  9 46  1  0
  9 47  1  0
 10 48  1  1
 11 49  1  0
 11 50  1  0
 12 51  1  0
 12 52  1  0
 14 53  1  0
 14 54  1  0
 14 55  1  0
 15 56  1  6
 16 57  1  0
 16 58  1  0
 17 59  1  0
 19 60  1  1
 20 61  1  0
 20 62  1  0
 21 63  1  0
 21 64  1  0
 22 65  1  1
 23 66  1  0
 25 67  1  0
 25 68  1  0
 25 69  1  0
 26 70  1  0
 26 71  1  0
 26 72  1  0
 28 73  1  0
 28 74  1  0
 28 75  1  0
 29 76  1  0
 29 77  1  0
 30 78  1  0
 30 79  1  0
 32 80  1  0
 32 81  1  0
 32 82  1  0
M  END
>  <meeko>  (9) 
{"is_sidechain": [false], "intermolecular_energy": 2.731, "internal_energy": -0.839}

$$$$
EPH_relaxed_0001_pdb2pqr_Repair_135_r2_0001_out
     RDKit          3D

 82 86  0  0  0  0  0  0  0  0999 V2000
    3.3780   18.0240   -2.6520 C   0  0  0  0  0  0  0  0  0  0  0  0
    2.0790   17.3790   -2.1620 C   0  0  2  0  0  0  0  0  0  0  0  0
    1.7960   17.6940   -0.6800 C   0  0  0  0  0  0  0  0  0  0  0  0
    2.2820   19.0790   -0.2420 C   0  0  0  0  0  0  0  0  0  0  0  0
    2.7190   19.0850    1.1920 C   0  0  2  0  0  0  0  0  0  0  0  0
    3.5510   20.1930    1.5590 O   0  0  0  0  0  0  0  0  0  0  0  0
    4.1590   18.8930    1.6280 C   0  0  0  0  0  0  0  0  0  0  0  0
    5.2550   18.6800    0.6310 C   0  0  0  0  0  0  0  0  0  0  0  0
    4.4280   18.4270    3.0250 C   0  0  0  0  0  0  0  0  0  0  0  0
    2.1370   15.8700   -2.3720 C   0  0  1  0  0  0  0  0  0  0  0  0
    3.5480   15.3800   -2.7930 C   0  0  0  0  0  0  0  0  0  0  0  0
    3.7490   13.9860   -2.1440 C   0  0  0  0  0  0  0  0  0  0  0  0
    2.3400   13.5770   -1.6540 C   0  0  1  0  0  0  0  0  0  0  0  0
    1.6190   13.0220   -2.9220 C   0  0  0  0  0  0  0  0  0  0  0  0
    2.2900   12.5580   -0.4690 C   0  0  2  0  0  0  0  0  0  0  0  0
    2.9020   11.1790   -0.7680 C   0  0  0  0  0  0  0  0  0  0  0  0
    1.9520   10.1640   -1.3120 C   0  0  0  0  0  0  0  0  0  0  0  0
    0.6100   10.2560   -1.2860 C   0  0  0  0  0  0  0  0  0  0  0  0
   -0.0860   11.4250   -0.5760 C   0  0  1  0  0  0  0  0  0  0  0  0
   -1.2400   10.8820    0.3070 C   0  0  0  0  0  0  0  0  0  0  0  0
   -2.2160   10.0110   -0.4770 C   0  0  0  0  0  0  0  0  0  0  0  0
   -1.4970    8.8270   -1.1190 C   0  0  2  0  0  0  0  0  0  0  0  0
   -1.0280    7.9570   -0.0850 O   0  0  0  0  0  0  0  0  0  0  0  0
   -0.3080    9.2510   -2.0250 C   0  0  0  0  0  0  0  0  0  0  0  0
   -0.8470    9.9370   -3.3050 C   0  0  0  0  0  0  0  0  0  0  0  0
    0.4170    7.9620   -2.4960 C   0  0  0  0  0  0  0  0  0  0  0  0
    0.8670   12.4240    0.2110 C   0  0  1  0  0  0  0  0  0  0  0  0
    1.1120   11.8970    1.6570 C   0  0  0  0  0  0  0  0  0  0  0  0
    0.1420   13.8140    0.3610 C   0  0  0  0  0  0  0  0  0  0  0  0
    0.3280   14.8230   -0.7880 C   0  0  0  0  0  0  0  0  0  0  0  0
    1.8080   14.9700   -1.1550 C   0  0  2  0  0  0  0  0  0  0  0  0
    2.5550   15.5480    0.0950 C   0  0  0  0  0  0  0  0  0  0  0  0
    3.9864   18.3261   -1.7868 H   0  0  0  0  0  0  0  0  0  0  0  0
    3.9399   17.3002   -3.2606 H   0  0  0  0  0  0  0  0  0  0  0  0
    3.1410   18.9091   -3.2606 H   0  0  0  0  0  0  0  0  0  0  0  0
    1.2549   17.8058   -2.7525 H   0  0  0  0  0  0  0  0  0  0  0  0
    0.7100   17.6384   -0.5142 H   0  0  0  0  0  0  0  0  0  0  0  0
    2.3497   16.9548   -0.0825 H   0  0  0  0  0  0  0  0  0  0  0  0
    3.1315   19.3754   -0.8749 H   0  0  0  0  0  0  0  0  0  0  0  0
    1.4457   19.7856   -0.3487 H   0  0  0  0  0  0  0  0  0  0  0  0
    1.7828   18.5993    1.5043 H   0  0  0  0  0  0  0  0  0  0  0  0
    6.2015   18.4960    1.1603 H   0  0  0  0  0  0  0  0  0  0  0  0
    5.0131   17.8121   -0.0000 H   0  0  0  0  0  0  0  0  0  0  0  0
    5.3558   19.5754   -0.0000 H   0  0  0  0  0  0  0  0  0  0  0  0
    4.0101   19.1510    3.7399 H   0  0  0  0  0  0  0  0  0  0  0  0
    3.9580   17.4448    3.1808 H   0  0  0  0  0  0  0  0  0  0  0  0
    5.5137   18.3428    3.1808 H   0  0  0  0  0  0  0  0  0  0  0  0
    1.3591   15.7602   -3.1420 H   0  0  0  0  0  0  0  0  0  0  0  0
    3.6103   15.3005   -3.8884 H   0  0  0  0  0  0  0  0  0  0  0  0
    4.3256   16.0850   -2.4639 H   0  0  0  0  0  0  0  0  0  0  0  0
    4.1278   13.2646   -2.8830 H   0  0  0  0  0  0  0  0  0  0  0  0
    4.4847   14.0086   -1.3266 H   0  0  0  0  0  0  0  0  0  0  0  0
    0.7819   12.3776   -2.6153 H   0  0  0  0  0  0  0  0  0  0  0  0
    1.2356   13.8603   -3.5222 H   0  0  0  0  0  0  0  0  0  0  0  0
    2.3313   12.4369   -3.5222 H   0  0  0  0  0  0  0  0  0  0  0  0
    2.9552   13.0253    0.2720 H   0  0  0  0  0  0  0  0  0  0  0  0
    3.7090   11.3173   -1.5026 H   0  0  0  0  0  0  0  0  0  0  0  0
    3.2488   10.7840    0.1983 H   0  0  0  0  0  0  0  0  0  0  0  0
    2.3860    9.2646   -1.7732 H   0  0  0  0  0  0  0  0  0  0  0  0
   -0.4952   12.0643   -1.3722 H   0  0  0  0  0  0  0  0  0  0  0  0
   -0.8083   10.2823    1.1219 H   0  0  0  0  0  0  0  0  0  0  0  0
   -1.8000   11.7464    0.6934 H   0  0  0  0  0  0  0  0  0  0  0  0
   -2.9909    9.6339    0.2066 H   0  0  0  0  0  0  0  0  0  0  0  0
   -2.6686   10.6204   -1.2732 H   0  0  0  0  0  0  0  0  0  0  0  0
   -2.2205    8.3151   -1.7706 H   0  0  0  0  0  0  0  0  0  0  0  0
   -1.5790    7.1560   -0.1010 H   0  0  0  0  0  0  0  0  0  0  0  0
   -1.5040   10.7732   -3.0239 H   0  0  0  0  0  0  0  0  0  0  0  0
   -0.0036   10.3173   -3.9000 H   0  0  0  0  0  0  0  0  0  0  0  0
   -1.4161    9.2076   -3.9000 H   0  0  0  0  0  0  0  0  0  0  0  0
    0.7426    7.3832   -1.6191 H   0  0  0  0  0  0  0  0  0  0  0  0
   -0.2717    7.3543   -3.1014 H   0  0  0  0  0  0  0  0  0  0  0  0
    1.2940    8.2349   -3.1014 H   0  0  0  0  0  0  0  0  0  0  0  0
    0.7640   12.6456    2.3840 H   0  0  0  0  0  0  0  0  0  0  0  0
    0.5580   10.9581    1.8038 H   0  0  0  0  0  0  0  0  0  0  0  0
    2.1869   11.7153    1.8038 H   0  0  0  0  0  0  0  0  0  0  0  0
   -0.9358   13.6179    0.4602 H   0  0  0  0  0  0  0  0  0  0  0  0
    0.6076   14.2878    1.2378 H   0  0  0  0  0  0  0  0  0  0  0  0
   -0.2280   14.4710   -1.6695 H   0  0  0  0  0  0  0  0  0  0  0  0
   -0.0506   15.8021   -0.4594 H   0  0  0  0  0  0  0  0  0  0  0  0
    2.0754   15.1769    1.0128 H   0  0  0  0  0  0  0  0  0  0  0  0
    3.6067   15.2261    0.0749 H   0  0  0  0  0  0  0  0  0  0  0  0
    2.5074   16.6468    0.0749 H   0  0  0  0  0  0  0  0  0  0  0  0
  1  2  1  0
  2  3  1  0
  3  4  1  0
  4  5  1  0
  5  6  1  0
  6  7  1  0
  7  8  1  0
  7  9  1  0
  2 10  1  0
 10 11  1  0
 11 12  1  0
 12 13  1  0
 13 14  1  6
 13 15  1  0
 15 16  1  0
 16 17  1  0
 17 18  2  0
 18 19  1  0
 19 20  1  0
 20 21  1  0
 21 22  1  0
 22 23  1  0
 22 24  1  0
 24 25  1  0
 24 26  1  0
 19 27  1  0
 27 28  1  1
 27 29  1  0
 29 30  1  0
 30 31  1  0
 31 32  1  1
  7  5  1  0
 31 10  1  0
 31 13  1  0
 27 15  1  0
 24 18  1  0
  1 33  1  0
  1 34  1  0
  1 35  1  0
  2 36  1  6
  3 37  1  0
  3 38  1  0
  4 39  1  0
  4 40  1  0
  5 41  1  1
  8 42  1  0
  8 43  1  0
  8 44  1  0
  9 45  1  0
  9 46  1  0
  9 47  1  0
 10 48  1  6
 11 49  1  0
 11 50  1  0
 12 51  1  0
 12 52  1  0
 14 53  1  0
 14 54  1  0
 14 55  1  0
 15 56  1  1
 16 57  1  0
 16 58  1  0
 17 59  1  0
 19 60  1  6
 20 61  1  0
 20 62  1  0
 21 63  1  0
 21 64  1  0
 22 65  1  6
 23 66  1  0
 25 67  1  0
 25 68  1  0
 25 69  1  0
 26 70  1  0
 26 71  1  0
 26 72  1  0
 28 73  1  0
 28 74  1  0
 28 75  1  0
 29 76  1  0
 29 77  1  0
 30 78  1  0
 30 79  1  0
 32 80  1  0
 32 81  1  0
 32 82  1  0
M  END
>  <meeko>  (10) 
{"is_sidechain": [false], "intermolecular_energy": 2.731, "internal_energy": -0.839}

$$$$
EPH_relaxed_0001_pdb2pqr_Repair_135_r2_0001_out
     RDKit          3D

 82 86  0  0  0  0  0  0  0  0999 V2000
    2.5560   10.0960   -3.4090 C   0  0  0  0  0  0  0  0  0  0  0  0
    2.1720   11.1580   -4.4430 C   0  0  2  0  0  0  0  0  0  0  0  0
    3.4070   11.7740   -5.1300 C   0  0  0  0  0  0  0  0  0  0  0  0
    4.5230   10.7630   -5.4120 C   0  0  0  0  0  0  0  0  0  0  0  0
    5.5130   10.7030   -4.2890 C   0  0  2  0  0  0  0  0  0  0  0  0
    6.1270   11.9580   -3.9650 O   0  0  0  0  0  0  0  0  0  0  0  0
    7.0010   10.9360   -4.4720 C   0  0  0  0  0  0  0  0  0  0  0  0
    7.5830   11.2460   -5.8160 C   0  0  0  0  0  0  0  0  0  0  0  0
    7.9430   10.3850   -3.4480 C   0  0  0  0  0  0  0  0  0  0  0  0
    1.3440   12.2530   -3.7810 C   0  0  1  0  0  0  0  0  0  0  0  0
    0.0170   11.7190   -3.1810 C   0  0  0  0  0  0  0  0  0  0  0  0
   -0.2570   12.5410   -1.8950 C   0  0  0  0  0  0  0  0  0  0  0  0
    0.7300   13.7290   -1.9750 C   0  0  1  0  0  0  0  0  0  0  0  0
    0.0440   14.7560   -2.9290 C   0  0  0  0  0  0  0  0  0  0  0  0
    1.1340   14.3850   -0.6140 C   0  0  2  0  0  0  0  0  0  0  0  0
   -0.0250   15.0240    0.1710 C   0  0  0  0  0  0  0  0  0  0  0  0
   -0.2780   16.4650   -0.1270 C   0  0  0  0  0  0  0  0  0  0  0  0
    0.5680   17.2910   -0.7720 C   0  0  0  0  0  0  0  0  0  0  0  0
    1.9660   16.8170   -1.1900 C   0  0  1  0  0  0  0  0  0  0  0  0
    3.0140   17.8910   -0.8000 C   0  0  0  0  0  0  0  0  0  0  0  0
    2.6750   19.2700   -1.3580 C   0  0  0  0  0  0  0  0  0  0  0  0
    1.3030   19.7320   -0.8730 C   0  0  2  0  0  0  0  0  0  0  0  0
    1.3620   19.9470    0.5400 O   0  0  0  0  0  0  0  0  0  0  0  0
    0.1660   18.7230   -1.2010 C   0  0  0  0  0  0  0  0  0  0  0  0
   -0.1000   18.7170   -2.7270 C   0  0  0  0  0  0  0  0  0  0  0  0
   -1.1380   19.2410   -0.5350 C   0  0  0  0  0  0  0  0  0  0  0  0
    2.3770   15.3600   -0.7080 C   0  0  1  0  0  0  0  0  0  0  0  0
    2.9980   15.4270    0.7210 C   0  0  0  0  0  0  0  0  0  0  0  0
    3.5040   14.8030   -1.6560 C   0  0  0  0  0  0  0  0  0  0  0  0
    3.0410   14.0610   -2.9240 C   0  0  0  0  0  0  0  0  0  0  0  0
    1.9840   13.0040   -2.5860 C   0  0  2  0  0  0  0  0  0  0  0  0
    2.6520   11.9440   -1.6450 C   0  0  0  0  0  0  0  0  0  0  0  0
    2.4098   10.5003   -2.3965 H   0  0  0  0  0  0  0  0  0  0  0  0
    1.9224    9.2070   -3.5438 H   0  0  0  0  0  0  0  0  0  0  0  0
    3.6117    9.8178   -3.5438 H   0  0  0  0  0  0  0  0  0  0  0  0
    1.5755   10.6602   -5.2217 H   0  0  0  0  0  0  0  0  0  0  0  0
    3.0886   12.2154   -6.0859 H   0  0  0  0  0  0  0  0  0  0  0  0
    3.8193   12.5234   -4.4383 H   0  0  0  0  0  0  0  0  0  0  0  0
    4.0760    9.7670   -5.5468 H   0  0  0  0  0  0  0  0  0  0  0  0
    5.0541   11.0830   -6.3206 H   0  0  0  0  0  0  0  0  0  0  0  0
    4.9474    9.8950   -3.8019 H   0  0  0  0  0  0  0  0  0  0  0  0
    8.5473   11.7596   -5.6884 H   0  0  0  0  0  0  0  0  0  0  0  0
    7.7369   10.3104   -6.3736 H   0  0  0  0  0  0  0  0  0  0  0  0
    6.8924   11.8958   -6.3736 H   0  0  0  0  0  0  0  0  0  0  0  0
    7.5613   10.6083   -2.4408 H   0  0  0  0  0  0  0  0  0  0  0  0
    8.0266    9.2956   -3.5752 H   0  0  0  0  0  0  0  0  0  0  0  0
    8.9335   10.8461   -3.5752 H   0  0  0  0  0  0  0  0  0  0  0  0
    1.2250   12.9356   -4.6353 H   0  0  0  0  0  0  0  0  0  0  0  0
   -0.8049   11.8548   -3.8993 H   0  0  0  0  0  0  0  0  0  0  0  0
    0.0906   10.6451   -2.9544 H   0  0  0  0  0  0  0  0  0  0  0  0
   -1.2966   12.9001   -1.8776 H   0  0  0  0  0  0  0  0  0  0  0  0
   -0.1195   11.9446   -0.9810 H   0  0  0  0  0  0  0  0  0  0  0  0
   -0.4693   15.5245   -2.3324 H   0  0  0  0  0  0  0  0  0  0  0  0
    0.8057   15.2326   -3.5635 H   0  0  0  0  0  0  0  0  0  0  0  0
   -0.6880   14.2348   -3.5635 H   0  0  0  0  0  0  0  0  0  0  0  0
    1.4547   13.5171   -0.0190 H   0  0  0  0  0  0  0  0  0  0  0  0
   -0.9424   14.4628   -0.0601 H   0  0  0  0  0  0  0  0  0  0  0  0
    0.2635   14.9783    1.2315 H   0  0  0  0  0  0  0  0  0  0  0  0
   -1.2364   16.8878    0.2086 H   0  0  0  0  0  0  0  0  0  0  0  0
    1.9350   16.7052   -2.2839 H   0  0  0  0  0  0  0  0  0  0  0  0
    3.0603   17.9563    0.2971 H   0  0  0  0  0  0  0  0  0  0  0  0
    3.9799   17.5858   -1.2289 H   0  0  0  0  0  0  0  0  0  0  0  0
    3.4363   19.9905   -1.0244 H   0  0  0  0  0  0  0  0  0  0  0  0
    2.6576   19.2101   -2.4562 H   0  0  0  0  0  0  0  0  0  0  0  0
    1.0605   20.6628   -1.4066 H   0  0  0  0  0  0  0  0  0  0  0  0
    2.2990   19.9460    0.7990 H   0  0  0  0  0  0  0  0  0  0  0  0
   -1.1844   18.6925   -2.9101 H   0  0  0  0  0  0  0  0  0  0  0  0
    0.3275   19.6250   -3.1773 H   0  0  0  0  0  0  0  0  0  0  0  0
    0.3680   17.8292   -3.1773 H   0  0  0  0  0  0  0  0  0  0  0  0
   -1.0325   19.1991    0.5591 H   0  0  0  0  0  0  0  0  0  0  0  0
   -1.3209   20.2801   -0.8462 H   0  0  0  0  0  0  0  0  0  0  0  0
   -1.9841   18.6107   -0.8462 H   0  0  0  0  0  0  0  0  0  0  0  0
    2.1992   15.3408    1.4723 H   0  0  0  0  0  0  0  0  0  0  0  0
    3.7127   14.6008    0.8493 H   0  0  0  0  0  0  0  0  0  0  0  0
    3.5201   16.3867    0.8493 H   0  0  0  0  0  0  0  0  0  0  0  0
    4.1211   15.6555   -1.9760 H   0  0  0  0  0  0  0  0  0  0  0  0
    4.0355   14.0477   -1.0584 H   0  0  0  0  0  0  0  0  0  0  0  0
    2.6108   14.7874   -3.6291 H   0  0  0  0  0  0  0  0  0  0  0  0
    3.9099   13.5572   -3.3725 H   0  0  0  0  0  0  0  0  0  0  0  0
    2.4763   12.2229   -0.5955 H   0  0  0  0  0  0  0  0  0  0  0  0
    2.2145   10.9537   -1.8394 H   0  0  0  0  0  0  0  0  0  0  0  0
    3.7342   11.9114   -1.8394 H   0  0  0  0  0  0  0  0  0  0  0  0
  1  2  1  0
  2  3  1  0
  3  4  1  0
  4  5  1  0
  5  6  1  0
  6  7  1  0
  7  8  1  0
  7  9  1  0
  2 10  1  0
 10 11  1  0
 11 12  1  0
 12 13  1  0
 13 14  1  6
 13 15  1  0
 15 16  1  0
 16 17  1  0
 17 18  2  0
 18 19  1  0
 19 20  1  0
 20 21  1  0
 21 22  1  0
 22 23  1  0
 22 24  1  0
 24 25  1  0
 24 26  1  0
 19 27  1  0
 27 28  1  1
 27 29  1  0
 29 30  1  0
 30 31  1  0
 31 32  1  1
  7  5  1  0
 31 10  1  0
 31 13  1  0
 27 15  1  0
 24 18  1  0
  1 33  1  0
  1 34  1  0
  1 35  1  0
  2 36  1  6
  3 37  1  0
  3 38  1  0
  4 39  1  0
  4 40  1  0
  5 41  1  1
  8 42  1  0
  8 43  1  0
  8 44  1  0
  9 45  1  0
  9 46  1  0
  9 47  1  0
 10 48  1  6
 11 49  1  0
 11 50  1  0
 12 51  1  0
 12 52  1  0
 14 53  1  0
 14 54  1  0
 14 55  1  0
 15 56  1  1
 16 57  1  0
 16 58  1  0
 17 59  1  0
 19 60  1  6
 20 61  1  0
 20 62  1  0
 21 63  1  0
 21 64  1  0
 22 65  1  6
 23 66  1  0
 25 67  1  0
 25 68  1  0
 25 69  1  0
 26 70  1  0
 26 71  1  0
 26 72  1  0
 28 73  1  0
 28 74  1  0
 28 75  1  0
 29 76  1  0
 29 77  1  0
 30 78  1  0
 30 79  1  0
 32 80  1  0
 32 81  1  0
 32 82  1  0
M  END
>  <meeko>  (11) 
{"is_sidechain": [false], "intermolecular_energy": 2.731, "internal_energy": -0.839}

$$$$
EPH_relaxed_0001_pdb2pqr_Repair_135_r2_0001_out
     RDKit          3D

 82 86  0  0  0  0  0  0  0  0999 V2000
    0.9470    8.7370   -0.2470 C   0  0  0  0  0  0  0  0  0  0  0  0
   -0.1170    9.4870   -1.0540 C   0  0  2  0  0  0  0  0  0  0  0  0
   -0.8170    8.5740   -2.0810 C   0  0  0  0  0  0  0  0  0  0  0  0
   -2.3150    8.3920   -1.8220 C   0  0  0  0  0  0  0  0  0  0  0  0
   -2.8720    7.2300   -2.5880 C   0  0  2  0  0  0  0  0  0  0  0  0
   -3.9220    7.5660   -3.5050 O   0  0  0  0  0  0  0  0  0  0  0  0
   -4.2870    6.7120   -2.4090 C   0  0  0  0  0  0  0  0  0  0  0  0
   -5.2310    7.3420   -1.4350 C   0  0  0  0  0  0  0  0  0  0  0  0
   -4.5900    5.3040   -2.8180 C   0  0  0  0  0  0  0  0  0  0  0  0
    0.5130   10.6800   -1.7630 C   0  0  1  0  0  0  0  0  0  0  0  0
    0.1580   10.7350   -3.2720 C   0  0  0  0  0  0  0  0  0  0  0  0
    0.0340   12.2340   -3.6490 C   0  0  0  0  0  0  0  0  0  0  0  0
    0.6420   12.9900   -2.4440 C   0  0  1  0  0  0  0  0  0  0  0  0
    2.1850   12.9300   -2.6700 C   0  0  0  0  0  0  0  0  0  0  0  0
    0.1470   14.4570   -2.2280 C   0  0  2  0  0  0  0  0  0  0  0  0
    0.4720   15.4310   -3.3730 C   0  0  0  0  0  0  0  0  0  0  0  0
    1.7740   16.1510   -3.2470 C   0  0  0  0  0  0  0  0  0  0  0  0
    2.5140   16.2390   -2.1270 C   0  0  0  0  0  0  0  0  0  0  0  0
    2.0080   15.6570   -0.8000 C   0  0  1  0  0  0  0  0  0  0  0  0
    2.2220   16.6920    0.3350 C   0  0  0  0  0  0  0  0  0  0  0  0
    3.6670   17.1730    0.4230 C   0  0  0  0  0  0  0  0  0  0  0  0
    4.1160   17.7970   -0.8960 C   0  0  2  0  0  0  0  0  0  0  0  0
    3.3740   19.0020   -1.1110 O   0  0  0  0  0  0  0  0  0  0  0  0
    3.9370   16.8490   -2.1150 C   0  0  0  0  0  0  0  0  0  0  0  0
    4.9630   15.6920   -2.0280 C   0  0  0  0  0  0  0  0  0  0  0  0
    4.2930   17.6490   -3.3980 C   0  0  0  0  0  0  0  0  0  0  0  0
    0.5310   15.0700   -0.8200 C   0  0  1  0  0  0  0  0  0  0  0  0
   -0.4970   16.2070   -0.5340 C   0  0  0  0  0  0  0  0  0  0  0  0
    0.3770   14.0270    0.3490 C   0  0  0  0  0  0  0  0  0  0  0  0
    0.7700   12.5700    0.0370 C   0  0  0  0  0  0  0  0  0  0  0  0
    0.1180   12.0930   -1.2640 C   0  0  2  0  0  0  0  0  0  0  0  0
   -1.4350   12.1210   -1.0590 C   0  0  0  0  0  0  0  0  0  0  0  0
    0.7551    8.8723    0.8276 H   0  0  0  0  0  0  0  0  0  0  0  0
    0.9076    7.6659   -0.4945 H   0  0  0  0  0  0  0  0  0  0  0  0
    1.9425    9.1341   -0.4945 H   0  0  0  0  0  0  0  0  0  0  0  0
   -0.8830    9.8371   -0.3464 H   0  0  0  0  0  0  0  0  0  0  0  0
   -0.6883    9.0136   -3.0811 H   0  0  0  0  0  0  0  0  0  0  0  0
   -0.3530    7.5802   -1.9967 H   0  0  0  0  0  0  0  0  0  0  0  0
   -2.4727    8.2192   -0.7472 H   0  0  0  0  0  0  0  0  0  0  0  0
   -2.8341    9.3030   -2.1546 H   0  0  0  0  0  0  0  0  0  0  0  0
   -1.8947    6.7251   -2.5800 H   0  0  0  0  0  0  0  0  0  0  0  0
   -4.9006    7.1215   -0.4092 H   0  0  0  0  0  0  0  0  0  0  0  0
   -5.2448    8.4310   -1.5897 H   0  0  0  0  0  0  0  0  0  0  0  0
   -6.2419    6.9369   -1.5897 H   0  0  0  0  0  0  0  0  0  0  0  0
   -4.7238    4.6822   -1.9205 H   0  0  0  0  0  0  0  0  0  0  0  0
   -5.5124    5.2866   -3.4170 H   0  0  0  0  0  0  0  0  0  0  0  0
   -3.7564    4.9087   -3.4170 H   0  0  0  0  0  0  0  0  0  0  0  0
    1.5732   10.4856   -1.5436 H   0  0  0  0  0  0  0  0  0  0  0  0
    0.9529   10.2598   -3.8655 H   0  0  0  0  0  0  0  0  0  0  0  0
   -0.7798   10.1978   -3.4766 H   0  0  0  0  0  0  0  0  0  0  0  0
    0.5975   12.4513   -4.5684 H   0  0  0  0  0  0  0  0  0  0  0  0
   -1.0069   12.5303   -3.8458 H   0  0  0  0  0  0  0  0  0  0  0  0
    2.6976   12.9101   -1.6969 H   0  0  0  0  0  0  0  0  0  0  0  0
    2.4376   12.0214   -3.2362 H   0  0  0  0  0  0  0  0  0  0  0  0
    2.5074   13.8163   -3.2362 H   0  0  0  0  0  0  0  0  0  0  0  0
   -0.9468   14.3404   -2.2377 H   0  0  0  0  0  0  0  0  0  0  0  0
    0.4897   14.8582   -4.3119 H   0  0  0  0  0  0  0  0  0  0  0  0
   -0.3084   16.2057   -3.3445 H   0  0  0  0  0  0  0  0  0  0  0  0
    2.1610   16.6521   -4.1465 H   0  0  0  0  0  0  0  0  0  0  0  0
    2.6180   14.7620   -0.6079 H   0  0  0  0  0  0  0  0  0  0  0  0
    1.5723   17.5597    0.1481 H   0  0  0  0  0  0  0  0  0  0  0  0
    1.9754   16.1993    1.2871 H   0  0  0  0  0  0  0  0  0  0  0  0
    3.7483   17.9240    1.2226 H   0  0  0  0  0  0  0  0  0  0  0  0
    4.3120   16.3087    0.6399 H   0  0  0  0  0  0  0  0  0  0  0  0
    5.1936   18.0023   -0.8143 H   0  0  0  0  0  0  0  0  0  0  0  0
    4.0030   19.6880   -1.3950 H   0  0  0  0  0  0  0  0  0  0  0  0
    5.1672   15.4617   -0.9720 H   0  0  0  0  0  0  0  0  0  0  0  0
    4.5532   14.8004   -2.5251 H   0  0  0  0  0  0  0  0  0  0  0  0
    5.8972   15.9922   -2.5251 H   0  0  0  0  0  0  0  0  0  0  0  0
    4.7253   18.6205   -3.1162 H   0  0  0  0  0  0  0  0  0  0  0  0
    5.0235   17.0814   -3.9932 H   0  0  0  0  0  0  0  0  0  0  0  0
    3.3823   17.8117   -3.9932 H   0  0  0  0  0  0  0  0  0  0  0  0
   -0.6112   16.3333    0.5527 H   0  0  0  0  0  0  0  0  0  0  0  0
   -0.1363   17.1473   -0.9765 H   0  0  0  0  0  0  0  0  0  0  0  0
   -1.4687   15.9426   -0.9765 H   0  0  0  0  0  0  0  0  0  0  0  0
    1.0047   14.3692    1.1850 H   0  0  0  0  0  0  0  0  0  0  0  0
   -0.7011   13.9942    0.5650 H   0  0  0  0  0  0  0  0  0  0  0  0
    1.8635   12.5060   -0.0640 H   0  0  0  0  0  0  0  0  0  0  0  0
    0.4211   11.9287    0.8598 H   0  0  0  0  0  0  0  0  0  0  0  0
   -1.6628   12.1251    0.0172 H   0  0  0  0  0  0  0  0  0  0  0  0
   -1.8501   13.0268   -1.5251 H   0  0  0  0  0  0  0  0  0  0  0  0
   -1.8825   11.2308   -1.5251 H   0  0  0  0  0  0  0  0  0  0  0  0
  1  2  1  0
  2  3  1  0
  3  4  1  0
  4  5  1  0
  5  6  1  0
  6  7  1  0
  7  8  1  0
  7  9  1  0
  2 10  1  0
 10 11  1  0
 11 12  1  0
 12 13  1  0
 13 14  1  6
 13 15  1  0
 15 16  1  0
 16 17  1  0
 17 18  2  0
 18 19  1  0
 19 20  1  0
 20 21  1  0
 21 22  1  0
 22 23  1  0
 22 24  1  0
 24 25  1  0
 24 26  1  0
 19 27  1  0
 27 28  1  1
 27 29  1  0
 29 30  1  0
 30 31  1  0
 31 32  1  1
  7  5  1  0
 31 10  1  0
 31 13  1  0
 27 15  1  0
 24 18  1  0
  1 33  1  0
  1 34  1  0
  1 35  1  0
  2 36  1  1
  3 37  1  0
  3 38  1  0
  4 39  1  0
  4 40  1  0
  5 41  1  6
  8 42  1  0
  8 43  1  0
  8 44  1  0
  9 45  1  0
  9 46  1  0
  9 47  1  0
 10 48  1  6
 11 49  1  0
 11 50  1  0
 12 51  1  0
 12 52  1  0
 14 53  1  0
 14 54  1  0
 14 55  1  0
 15 56  1  1
 16 57  1  0
 16 58  1  0
 17 59  1  0
 19 60  1  1
 20 61  1  0
 20 62  1  0
 21 63  1  0
 21 64  1  0
 22 65  1  1
 23 66  1  0
 25 67  1  0
 25 68  1  0
 25 69  1  0
 26 70  1  0
 26 71  1  0
 26 72  1  0
 28 73  1  0
 28 74  1  0
 28 75  1  0
 29 76  1  0
 29 77  1  0
 30 78  1  0
 30 79  1  0
 32 80  1  0
 32 81  1  0
 32 82  1  0
M  END
>  <meeko>  (12) 
{"is_sidechain": [false], "intermolecular_energy": 2.731, "internal_energy": -0.839}

$$$$
EPH_relaxed_0001_pdb2pqr_Repair_135_r2_0001_out
     RDKit          3D

 82 86  0  0  0  0  0  0  0  0999 V2000
   -1.0760   10.3970    1.5070 C   0  0  0  0  0  0  0  0  0  0  0  0
   -1.7340   10.1160    0.1540 C   0  0  2  0  0  0  0  0  0  0  0  0
   -2.5300    8.7950    0.1580 C   0  0  0  0  0  0  0  0  0  0  0  0
   -3.9480    8.9290   -0.4050 C   0  0  0  0  0  0  0  0  0  0  0  0
   -4.5150    7.6000   -0.8000 C   0  0  2  0  0  0  0  0  0  0  0  0
   -4.6840    7.4170   -2.2120 O   0  0  0  0  0  0  0  0  0  0  0  0
   -5.8870    7.4280   -1.4260 C   0  0  0  0  0  0  0  0  0  0  0  0
   -6.7760    8.6020   -1.6900 C   0  0  0  0  0  0  0  0  0  0  0  0
   -6.5560    6.0920   -1.3290 C   0  0  0  0  0  0  0  0  0  0  0  0
   -0.6760   10.0820   -0.9420 C   0  0  1  0  0  0  0  0  0  0  0  0
   -1.1230    9.2590   -2.1800 C   0  0  0  0  0  0  0  0  0  0  0  0
   -0.5210    9.9610   -3.4240 C   0  0  0  0  0  0  0  0  0  0  0  0
    0.5140   10.9560   -2.8490 C   0  0  1  0  0  0  0  0  0  0  0  0
    1.7840   10.0930   -2.5650 C   0  0  0  0  0  0  0  0  0  0  0  0
    0.8470   12.1980   -3.7380 C   0  0  2  0  0  0  0  0  0  0  0  0
    1.4860   11.8730   -5.1000 C   0  0  0  0  0  0  0  0  0  0  0  0
    2.9780   11.8190   -5.1080 C   0  0  0  0  0  0  0  0  0  0  0  0
    3.7830   12.2990   -4.1420 C   0  0  0  0  0  0  0  0  0  0  0  0
    3.2060   13.0590   -2.9410 C   0  0  1  0  0  0  0  0  0  0  0  0
    4.0350   14.3470   -2.6970 C   0  0  0  0  0  0  0  0  0  0  0  0
    5.5270   14.0620   -2.5450 C   0  0  0  0  0  0  0  0  0  0  0  0
    6.0760   13.3580   -3.7830 C   0  0  2  0  0  0  0  0  0  0  0  0
    6.0180   14.2610   -4.8910 O   0  0  0  0  0  0  0  0  0  0  0  0
    5.3110   12.0510   -4.1340 C   0  0  0  0  0  0  0  0  0  0  0  0
    5.6220   10.9660   -3.0730 C   0  0  0  0  0  0  0  0  0  0  0  0
    5.8730   11.5160   -5.4790 C   0  0  0  0  0  0  0  0  0  0  0  0
    1.6420   13.3400   -2.9850 C   0  0  1  0  0  0  0  0  0  0  0  0
    1.3600   14.6640   -3.7590 C   0  0  0  0  0  0  0  0  0  0  0  0
    1.1190   13.5640   -1.5170 C   0  0  0  0  0  0  0  0  0  0  0  0
    0.6920   12.3090   -0.7320 C   0  0  0  0  0  0  0  0  0  0  0  0
   -0.2520   11.4370   -1.5640 C   0  0  2  0  0  0  0  0  0  0  0  0
   -1.5490   12.2700   -1.8460 C   0  0  0  0  0  0  0  0  0  0  0  0
   -1.7615   10.1043    2.3159 H   0  0  0  0  0  0  0  0  0  0  0  0
   -0.1441    9.8184    1.5887 H   0  0  0  0  0  0  0  0  0  0  0  0
   -0.8495   11.4703    1.5887 H   0  0  0  0  0  0  0  0  0  0  0  0
   -2.4466   10.9307   -0.0421 H   0  0  0  0  0  0  0  0  0  0  0  0
   -1.9834    8.0584   -0.4492 H   0  0  0  0  0  0  0  0  0  0  0  0
   -2.6292    8.4826    1.2080 H   0  0  0  0  0  0  0  0  0  0  0  0
   -4.5952    9.3789    0.3623 H   0  0  0  0  0  0  0  0  0  0  0  0
   -3.9020    9.5628   -1.3029 H   0  0  0  0  0  0  0  0  0  0  0  0
   -4.0286    7.1113    0.0571 H   0  0  0  0  0  0  0  0  0  0  0  0
   -7.1044    9.0356   -0.7339 H   0  0  0  0  0  0  0  0  0  0  0  0
   -6.2226    9.3590   -2.2651 H   0  0  0  0  0  0  0  0  0  0  0  0
   -7.6547    8.2746   -2.2651 H   0  0  0  0  0  0  0  0  0  0  0  0
   -6.6897    5.8249   -0.2703 H   0  0  0  0  0  0  0  0  0  0  0  0
   -7.5380    6.1369   -1.8227 H   0  0  0  0  0  0  0  0  0  0  0  0
   -5.9318    5.3326   -1.8227 H   0  0  0  0  0  0  0  0  0  0  0  0
    0.1616    9.6491   -0.3754 H   0  0  0  0  0  0  0  0  0  0  0  0
   -0.7452    8.2285   -2.1065 H   0  0  0  0  0  0  0  0  0  0  0  0
   -2.2199    9.2092   -2.2464 H   0  0  0  0  0  0  0  0  0  0  0  0
   -0.0313    9.2294   -4.0835 H   0  0  0  0  0  0  0  0  0  0  0  0
   -1.2885   10.4627   -4.0316 H   0  0  0  0  0  0  0  0  0  0  0  0
    1.9262    9.9964   -1.4785 H   0  0  0  0  0  0  0  0  0  0  0  0
    1.6554    9.0945   -3.0082 H   0  0  0  0  0  0  0  0  0  0  0  0
    2.6650   10.5802   -3.0082 H   0  0  0  0  0  0  0  0  0  0  0  0
   -0.1515   12.6002   -3.9643 H   0  0  0  0  0  0  0  0  0  0  0  0
    1.1087   10.8929   -5.4272 H   0  0  0  0  0  0  0  0  0  0  0  0
    1.2079   12.6988   -5.7713 H   0  0  0  0  0  0  0  0  0  0  0  0
    3.4601   11.3470   -5.9768 H   0  0  0  0  0  0  0  0  0  0  0  0
    3.3027   12.3833   -2.0784 H   0  0  0  0  0  0  0  0  0  0  0  0
    3.8907   15.0262   -3.5501 H   0  0  0  0  0  0  0  0  0  0  0  0
    3.6834   14.7977   -1.7572 H   0  0  0  0  0  0  0  0  0  0  0  0
    6.0626   15.0124   -2.4039 H   0  0  0  0  0  0  0  0  0  0  0  0
    5.6725   13.4059   -1.6741 H   0  0  0  0  0  0  0  0  0  0  0  0
    7.1133   13.0654   -3.5630 H   0  0  0  0  0  0  0  0  0  0  0  0
    5.0980   14.5610   -4.9780 H   0  0  0  0  0  0  0  0  0  0  0  0
    5.4999   11.3920   -2.0662 H   0  0  0  0  0  0  0  0  0  0  0  0
    4.9301   10.1203   -3.1997 H   0  0  0  0  0  0  0  0  0  0  0  0
    6.6569   10.6152   -3.1997 H   0  0  0  0  0  0  0  0  0  0  0  0
    6.6564   10.7703   -5.2784 H   0  0  0  0  0  0  0  0  0  0  0  0
    5.0611   11.0488   -6.0557 H   0  0  0  0  0  0  0  0  0  0  0  0
    6.2997   12.3499   -6.0557 H   0  0  0  0  0  0  0  0  0  0  0  0
    1.1865   15.4788   -3.0407 H   0  0  0  0  0  0  0  0  0  0  0  0
    2.2257   14.9107   -4.3912 H   0  0  0  0  0  0  0  0  0  0  0  0
    0.4689   14.5365   -4.3912 H   0  0  0  0  0  0  0  0  0  0  0  0
    1.9230   14.0543   -0.9486 H   0  0  0  0  0  0  0  0  0  0  0  0
    0.2014   14.1607   -1.6265 H   0  0  0  0  0  0  0  0  0  0  0  0
    1.5872   11.7246   -0.4731 H   0  0  0  0  0  0  0  0  0  0  0  0
    0.1637   12.6278    0.1786 H   0  0  0  0  0  0  0  0  0  0  0  0
   -2.0095   12.5658   -0.8918 H   0  0  0  0  0  0  0  0  0  0  0  0
   -1.2886   13.1702   -2.4221 H   0  0  0  0  0  0  0  0  0  0  0  0
   -2.2593   11.6588   -2.4221 H   0  0  0  0  0  0  0  0  0  0  0  0
  1  2  1  0
  2  3  1  0
  3  4  1  0
  4  5  1  0
  5  6  1  0
  6  7  1  0
  7  8  1  0
  7  9  1  0
  2 10  1  0
 10 11  1  0
 11 12  1  0
 12 13  1  0
 13 14  1  1
 13 15  1  0
 15 16  1  0
 16 17  1  0
 17 18  2  0
 18 19  1  0
 19 20  1  0
 20 21  1  0
 21 22  1  0
 22 23  1  0
 22 24  1  0
 24 25  1  0
 24 26  1  0
 19 27  1  0
 27 28  1  6
 27 29  1  0
 29 30  1  0
 30 31  1  0
 31 32  1  6
  7  5  1  0
 31 10  1  0
 31 13  1  0
 27 15  1  0
 24 18  1  0
  1 33  1  0
  1 34  1  0
  1 35  1  0
  2 36  1  6
  3 37  1  0
  3 38  1  0
  4 39  1  0
  4 40  1  0
  5 41  1  1
  8 42  1  0
  8 43  1  0
  8 44  1  0
  9 45  1  0
  9 46  1  0
  9 47  1  0
 10 48  1  1
 11 49  1  0
 11 50  1  0
 12 51  1  0
 12 52  1  0
 14 53  1  0
 14 54  1  0
 14 55  1  0
 15 56  1  6
 16 57  1  0
 16 58  1  0
 17 59  1  0
 19 60  1  1
 20 61  1  0
 20 62  1  0
 21 63  1  0
 21 64  1  0
 22 65  1  1
 23 66  1  0
 25 67  1  0
 25 68  1  0
 25 69  1  0
 26 70  1  0
 26 71  1  0
 26 72  1  0
 28 73  1  0
 28 74  1  0
 28 75  1  0
 29 76  1  0
 29 77  1  0
 30 78  1  0
 30 79  1  0
 32 80  1  0
 32 81  1  0
 32 82  1  0
M  END
>  <meeko>  (13) 
{"is_sidechain": [false], "intermolecular_energy": 2.731, "internal_energy": -0.839}

$$$$
EPH_relaxed_0001_pdb2pqr_Repair_135_r2_0001_out
     RDKit          3D

 82 86  0  0  0  0  0  0  0  0999 V2000
   -5.1020    5.9350   -1.8560 C   0  0  0  0  0  0  0  0  0  0  0  0
   -5.4460    7.4270   -1.8490 C   0  0  2  0  0  0  0  0  0  0  0  0
   -5.2400    8.0640   -0.4600 C   0  0  0  0  0  0  0  0  0  0  0  0
   -4.1820    9.1710   -0.4410 C   0  0  0  0  0  0  0  0  0  0  0  0
   -2.8250    8.6470   -0.8030 C   0  0  2  0  0  0  0  0  0  0  0  0
   -1.7900    8.9640    0.1360 O   0  0  0  0  0  0  0  0  0  0  0  0
   -1.6550    9.5390   -1.1730 C   0  0  0  0  0  0  0  0  0  0  0  0
   -1.7890   11.0290   -1.2010 C   0  0  0  0  0  0  0  0  0  0  0  0
   -0.5350    8.9540   -1.9760 C   0  0  0  0  0  0  0  0  0  0  0  0
   -6.8850    7.6310   -2.3080 C   0  0  1  0  0  0  0  0  0  0  0  0
   -7.1890    6.9210   -3.6540 C   0  0  0  0  0  0  0  0  0  0  0  0
   -8.6580    6.4290   -3.5780 C   0  0  0  0  0  0  0  0  0  0  0  0
   -9.2480    7.1530   -2.3450 C   0  0  1  0  0  0  0  0  0  0  0  0
   -9.6200    8.5800   -2.8580 C   0  0  0  0  0  0  0  0  0  0  0  0
  -10.4620    6.4550   -1.6500 C   0  0  2  0  0  0  0  0  0  0  0  0
  -11.7190    6.3070   -2.5250 C   0  0  0  0  0  0  0  0  0  0  0  0
  -12.6870    7.4400   -2.4490 C   0  0  0  0  0  0  0  0  0  0  0  0
  -12.6980    8.3970   -1.5020 C   0  0  0  0  0  0  0  0  0  0  0  0
  -11.7270    8.3420   -0.3160 C   0  0  1  0  0  0  0  0  0  0  0  0
  -12.5010    8.6220    1.0000 C   0  0  0  0  0  0  0  0  0  0  0  0
  -13.2870    9.9290    0.9490 C   0  0  0  0  0  0  0  0  0  0  0  0
  -14.2830    9.9210   -0.2080 C   0  0  2  0  0  0  0  0  0  0  0  0
  -15.2870    8.9360    0.0530 O   0  0  0  0  0  0  0  0  0  0  0  0
  -13.6190    9.6390   -1.5850 C   0  0  0  0  0  0  0  0  0  0  0  0
  -12.7580   10.8550   -2.0070 C   0  0  0  0  0  0  0  0  0  0  0  0
  -14.7490    9.5190   -2.6440 C   0  0  0  0  0  0  0  0  0  0  0  0
  -10.8180    7.0430   -0.2240 C   0  0  1  0  0  0  0  0  0  0  0  0
  -11.5740    5.9170    0.5460 C   0  0  0  0  0  0  0  0  0  0  0  0
   -9.5330    7.3730    0.6240 C   0  0  0  0  0  0  0  0  0  0  0  0
   -8.3250    7.9490   -0.1400 C   0  0  0  0  0  0  0  0  0  0  0  0
   -8.0090    7.1070   -1.3790 C   0  0  2  0  0  0  0  0  0  0  0  0
   -7.6090    5.6720   -0.8930 C   0  0  0  0  0  0  0  0  0  0  0  0
   -5.0186    5.5731   -0.8206 H   0  0  0  0  0  0  0  0  0  0  0  0
   -5.8953    5.3782   -2.3762 H   0  0  0  0  0  0  0  0  0  0  0  0
   -4.1450    5.7818   -2.3762 H   0  0  0  0  0  0  0  0  0  0  0  0
   -4.7590    7.9282   -2.5468 H   0  0  0  0  0  0  0  0  0  0  0  0
   -6.1974    8.4930   -0.1293 H   0  0  0  0  0  0  0  0  0  0  0  0
   -4.8835    7.2672    0.2093 H   0  0  0  0  0  0  0  0  0  0  0  0
   -4.4678    9.9498   -1.1634 H   0  0  0  0  0  0  0  0  0  0  0  0
   -4.1311    9.5793    0.5791 H   0  0  0  0  0  0  0  0  0  0  0  0
   -3.2699    7.7705   -1.2968 H   0  0  0  0  0  0  0  0  0  0  0  0
   -1.8236   11.4135   -0.1710 H   0  0  0  0  0  0  0  0  0  0  0  0
   -0.9264   11.4649   -1.7263 H   0  0  0  0  0  0  0  0  0  0  0  0
   -2.7155   11.3040   -1.7263 H   0  0  0  0  0  0  0  0  0  0  0  0
    0.2323    8.5532   -1.2974 H   0  0  0  0  0  0  0  0  0  0  0  0
   -0.9230    8.1434   -2.6103 H   0  0  0  0  0  0  0  0  0  0  0  0
   -0.0914    9.7356   -2.6103 H   0  0  0  0  0  0  0  0  0  0  0  0
   -6.9120    8.7300   -2.3474 H   0  0  0  0  0  0  0  0  0  0  0  0
   -7.0682    7.6258   -4.4899 H   0  0  0  0  0  0  0  0  0  0  0  0
   -6.4991    6.0809   -3.8223 H   0  0  0  0  0  0  0  0  0  0  0  0
   -9.2076    6.7046   -4.4901 H   0  0  0  0  0  0  0  0  0  0  0  0
   -8.7277    5.3346   -3.4924 H   0  0  0  0  0  0  0  0  0  0  0  0
   -9.7933    9.2448   -1.9990 H   0  0  0  0  0  0  0  0  0  0  0  0
   -8.7953    8.9768   -3.4682 H   0  0  0  0  0  0  0  0  0  0  0  0
  -10.5335    8.5237   -3.4682 H   0  0  0  0  0  0  0  0  0  0  0  0
  -10.0865    5.4334   -1.4909 H   0  0  0  0  0  0  0  0  0  0  0  0
  -11.3946    6.2070   -3.5713 H   0  0  0  0  0  0  0  0  0  0  0  0
  -12.2533    5.4249   -2.1424 H   0  0  0  0  0  0  0  0  0  0  0  0
  -13.4566    7.4983   -3.2328 H   0  0  0  0  0  0  0  0  0  0  0  0
  -10.9876    9.1374   -0.4912 H   0  0  0  0  0  0  0  0  0  0  0  0
  -13.2035    7.7947    1.1789 H   0  0  0  0  0  0  0  0  0  0  0  0
  -11.7622    8.7077    1.8105 H   0  0  0  0  0  0  0  0  0  0  0  0
  -13.8343   10.0572    1.8945 H   0  0  0  0  0  0  0  0  0  0  0  0
  -12.5803   10.7584    0.7986 H   0  0  0  0  0  0  0  0  0  0  0  0
  -14.7226   10.9274   -0.2714 H   0  0  0  0  0  0  0  0  0  0  0  0
  -14.8360    8.1300    0.3580 H   0  0  0  0  0  0  0  0  0  0  0  0
  -12.3908   11.3736   -1.1091 H   0  0  0  0  0  0  0  0  0  0  0  0
  -11.9028   10.5086   -2.6058 H   0  0  0  0  0  0  0  0  0  0  0  0
  -13.3688   11.5466   -2.6058 H   0  0  0  0  0  0  0  0  0  0  0  0
  -15.7188    9.4160   -2.1353 H   0  0  0  0  0  0  0  0  0  0  0  0
  -14.7590   10.4211   -3.2733 H   0  0  0  0  0  0  0  0  0  0  0  0
  -14.5693    8.6349   -3.2733 H   0  0  0  0  0  0  0  0  0  0  0  0
  -11.4663    6.0774    1.6289 H   0  0  0  0  0  0  0  0  0  0  0  0
  -12.6401    5.9404    0.2761 H   0  0  0  0  0  0  0  0  0  0  0  0
  -11.1488    4.9391    0.2761 H   0  0  0  0  0  0  0  0  0  0  0  0
   -9.8206    8.1055    1.3926 H   0  0  0  0  0  0  0  0  0  0  0  0
   -9.1902    6.4040    1.0158 H   0  0  0  0  0  0  0  0  0  0  0  0
   -8.5546    8.9782   -0.4532 H   0  0  0  0  0  0  0  0  0  0  0  0
   -7.4496    7.9358    0.5260 H   0  0  0  0  0  0  0  0  0  0  0  0
   -7.6018    5.6461    0.2067 H   0  0  0  0  0  0  0  0  0  0  0  0
   -8.3374    4.9401   -1.2723 H   0  0  0  0  0  0  0  0  0  0  0  0
   -6.6071    5.4225   -1.2723 H   0  0  0  0  0  0  0  0  0  0  0  0
  1  2  1  0
  2  3  1  0
  3  4  1  0
  4  5  1  0
  5  6  1  0
  6  7  1  0
  7  8  1  0
  7  9  1  0
  2 10  1  0
 10 11  1  0
 11 12  1  0
 12 13  1  0
 13 14  1  6
 13 15  1  0
 15 16  1  0
 16 17  1  0
 17 18  2  0
 18 19  1  0
 19 20  1  0
 20 21  1  0
 21 22  1  0
 22 23  1  0
 22 24  1  0
 24 25  1  0
 24 26  1  0
 19 27  1  0
 27 28  1  1
 27 29  1  0
 29 30  1  0
 30 31  1  0
 31 32  1  1
  7  5  1  0
 31 10  1  0
 31 13  1  0
 27 15  1  0
 24 18  1  0
  1 33  1  0
  1 34  1  0
  1 35  1  0
  2 36  1  6
  3 37  1  0
  3 38  1  0
  4 39  1  0
  4 40  1  0
  5 41  1  6
  8 42  1  0
  8 43  1  0
  8 44  1  0
  9 45  1  0
  9 46  1  0
  9 47  1  0
 10 48  1  6
 11 49  1  0
 11 50  1  0
 12 51  1  0
 12 52  1  0
 14 53  1  0
 14 54  1  0
 14 55  1  0
 15 56  1  1
 16 57  1  0
 16 58  1  0
 17 59  1  0
 19 60  1  6
 20 61  1  0
 20 62  1  0
 21 63  1  0
 21 64  1  0
 22 65  1  6
 23 66  1  0
 25 67  1  0
 25 68  1  0
 25 69  1  0
 26 70  1  0
 26 71  1  0
 26 72  1  0
 28 73  1  0
 28 74  1  0
 28 75  1  0
 29 76  1  0
 29 77  1  0
 30 78  1  0
 30 79  1  0
 32 80  1  0
 32 81  1  0
 32 82  1  0
M  END
>  <meeko>  (14) 
{"is_sidechain": [false], "intermolecular_energy": 2.731, "internal_energy": -0.839}

$$$$
EPH_relaxed_0001_pdb2pqr_Repair_135_r2_0001_out
     RDKit          3D

 82 86  0  0  0  0  0  0  0  0999 V2000
    2.6610    9.9330   -2.6820 C   0  0  0  0  0  0  0  0  0  0  0  0
    1.3020   10.0940   -1.9970 C   0  0  2  0  0  0  0  0  0  0  0  0
    0.1360   10.0760   -3.0060 C   0  0  0  0  0  0  0  0  0  0  0  0
   -0.9860    9.1040   -2.6340 C   0  0  0  0  0  0  0  0  0  0  0  0
   -1.2750    9.1270   -1.1640 C   0  0  2  0  0  0  0  0  0  0  0  0
   -2.6650    9.2340   -0.8280 O   0  0  0  0  0  0  0  0  0  0  0  0
   -1.8320   10.3390   -0.4400 C   0  0  0  0  0  0  0  0  0  0  0  0
   -2.1330   11.6120   -1.1670 C   0  0  0  0  0  0  0  0  0  0  0  0
   -1.6250   10.4470    1.0390 C   0  0  0  0  0  0  0  0  0  0  0  0
    1.2750   11.3890   -1.1930 C   0  0  1  0  0  0  0  0  0  0  0  0
    2.0870   11.2900    0.1260 C   0  0  0  0  0  0  0  0  0  0  0  0
    2.7250   12.6820    0.3650 C   0  0  0  0  0  0  0  0  0  0  0  0
    2.0000   13.6190   -0.6300 C   0  0  1  0  0  0  0  0  0  0  0  0
    0.6510   13.9780    0.0670 C   0  0  0  0  0  0  0  0  0  0  0  0
    2.7820   14.9000   -1.0690 C   0  0  2  0  0  0  0  0  0  0  0  0
    3.1100   15.8850    0.0670 C   0  0  0  0  0  0  0  0  0  0  0  0
    2.0820   16.9380    0.3140 C   0  0  0  0  0  0  0  0  0  0  0  0
    1.0810   17.2660   -0.5250 C   0  0  0  0  0  0  0  0  0  0  0  0
    0.9690   16.6150   -1.9090 C   0  0  1  0  0  0  0  0  0  0  0  0
    0.7000   17.7100   -2.9750 C   0  0  0  0  0  0  0  0  0  0  0  0
   -0.5120   18.5720   -2.6360 C   0  0  0  0  0  0  0  0  0  0  0  0
   -0.3370   19.2480   -1.2780 C   0  0  2  0  0  0  0  0  0  0  0  0
    0.7330   20.1940   -1.3690 O   0  0  0  0  0  0  0  0  0  0  0  0
   -0.0510   18.2450   -0.1260 C   0  0  0  0  0  0  0  0  0  0  0  0
   -1.3260   17.4180    0.1720 C   0  0  0  0  0  0  0  0  0  0  0  0
    0.2450   19.0650    1.1580 C   0  0  0  0  0  0  0  0  0  0  0  0
    2.1590   15.6450   -2.3180 C   0  0  1  0  0  0  0  0  0  0  0  0
    3.3140   16.4640   -2.9700 C   0  0  0  0  0  0  0  0  0  0  0  0
    1.6490   14.6420   -3.4190 C   0  0  0  0  0  0  0  0  0  0  0  0
    0.9920   13.3390   -2.9230 C   0  0  0  0  0  0  0  0  0  0  0  0
    1.8630   12.6550   -1.8650 C   0  0  2  0  0  0  0  0  0  0  0  0
    3.2200   12.2620   -2.5430 C   0  0  0  0  0  0  0  0  0  0  0  0
    3.4476    9.8398   -1.9187 H   0  0  0  0  0  0  0  0  0  0  0  0
    2.6505    9.0298   -3.3098 H   0  0  0  0  0  0  0  0  0  0  0  0
    2.8618   10.8136   -3.3098 H   0  0  0  0  0  0  0  0  0  0  0  0
    1.1681    9.2349   -1.3232 H   0  0  0  0  0  0  0  0  0  0  0  0
   -0.2879   11.0893   -3.0646 H   0  0  0  0  0  0  0  0  0  0  0  0
    0.5488    9.7368   -3.9675 H   0  0  0  0  0  0  0  0  0  0  0  0
   -1.8978    9.3860   -3.1809 H   0  0  0  0  0  0  0  0  0  0  0  0
   -0.6626    8.0878   -2.9038 H   0  0  0  0  0  0  0  0  0  0  0  0
   -0.4104    8.4783   -0.9600 H   0  0  0  0  0  0  0  0  0  0  0  0
   -2.3227   12.4142   -0.4386 H   0  0  0  0  0  0  0  0  0  0  0  0
   -1.2747   11.8854   -1.7984 H   0  0  0  0  0  0  0  0  0  0  0  0
   -3.0228   11.4721   -1.7984 H   0  0  0  0  0  0  0  0  0  0  0  0
   -2.4825    9.9996    1.5629 H   0  0  0  0  0  0  0  0  0  0  0  0
   -0.7047    9.9141    1.3203 H   0  0  0  0  0  0  0  0  0  0  0  0
   -1.5356   11.5067    1.3203 H   0  0  0  0  0  0  0  0  0  0  0  0
    0.1888   11.5023   -1.0616 H   0  0  0  0  0  0  0  0  0  0  0  0
    1.4210   11.0302    0.9620 H   0  0  0  0  0  0  0  0  0  0  0  0
    2.8585   10.5090    0.0567 H   0  0  0  0  0  0  0  0  0  0  0  0
    2.5593   13.0125    1.4010 H   0  0  0  0  0  0  0  0  0  0  0  0
    3.8143   12.6736    0.2124 H   0  0  0  0  0  0  0  0  0  0  0  0
    0.7817   13.9432    1.1587 H   0  0  0  0  0  0  0  0  0  0  0  0
    0.3411   14.9899   -0.2331 H   0  0  0  0  0  0  0  0  0  0  0  0
   -0.1208   13.2540   -0.2331 H   0  0  0  0  0  0  0  0  0  0  0  0
    3.7478   14.4861   -1.3946 H   0  0  0  0  0  0  0  0  0  0  0  0
    3.2330   15.3059    0.9941 H   0  0  0  0  0  0  0  0  0  0  0  0
    4.0213   16.4164   -0.2446 H   0  0  0  0  0  0  0  0  0  0  0  0
    2.1473   17.4932    1.2614 H   0  0  0  0  0  0  0  0  0  0  0  0
    0.1116   15.9281   -1.8536 H   0  0  0  0  0  0  0  0  0  0  0  0
    1.5855   18.3588   -3.0451 H   0  0  0  0  0  0  0  0  0  0  0  0
    0.4926   17.2031   -3.9290 H   0  0  0  0  0  0  0  0  0  0  0  0
   -0.6325   19.3443   -3.4099 H   0  0  0  0  0  0  0  0  0  0  0  0
   -1.4020   17.9268   -2.5954 H   0  0  0  0  0  0  0  0  0  0  0  0
   -1.2872   19.7446   -1.0320 H   0  0  0  0  0  0  0  0  0  0  0  0
    1.4300   19.7990   -1.9200 H   0  0  0  0  0  0  0  0  0  0  0  0
   -1.4604   17.3308    1.2603 H   0  0  0  0  0  0  0  0  0  0  0  0
   -2.2003   17.9214   -0.2663 H   0  0  0  0  0  0  0  0  0  0  0  0
   -1.2228   16.4144   -0.2663 H   0  0  0  0  0  0  0  0  0  0  0  0
    0.0236   18.4517    2.0439 H   0  0  0  0  0  0  0  0  0  0  0  0
    1.3054   19.3573    1.1701 H   0  0  0  0  0  0  0  0  0  0  0  0
   -0.3842   19.9672    1.1701 H   0  0  0  0  0  0  0  0  0  0  0  0
    3.9395   16.9076   -2.1813 H   0  0  0  0  0  0  0  0  0  0  0  0
    3.9283   15.7985   -3.5944 H   0  0  0  0  0  0  0  0  0  0  0  0
    2.8892   17.2638   -3.5944 H   0  0  0  0  0  0  0  0  0  0  0  0
    0.9094   15.1734   -4.0360 H   0  0  0  0  0  0  0  0  0  0  0  0
    2.5535   14.3211   -3.9565 H   0  0  0  0  0  0  0  0  0  0  0  0
    0.0112   13.5747   -2.4843 H   0  0  0  0  0  0  0  0  0  0  0  0
    0.8770   12.6563   -3.7778 H   0  0  0  0  0  0  0  0  0  0  0  0
    3.9685   12.0452   -1.7666 H   0  0  0  0  0  0  0  0  0  0  0  0
    3.0722   11.3698   -3.1691 H   0  0  0  0  0  0  0  0  0  0  0  0
    3.5719   13.0951   -3.1691 H   0  0  0  0  0  0  0  0  0  0  0  0
  1  2  1  0
  2  3  1  0
  3  4  1  0
  4  5  1  0
  5  6  1  0
  6  7  1  0
  7  8  1  0
  7  9  1  0
  2 10  1  0
 10 11  1  0
 11 12  1  0
 12 13  1  0
 13 14  1  1
 13 15  1  0
 15 16  1  0
 16 17  1  0
 17 18  2  0
 18 19  1  0
 19 20  1  0
 20 21  1  0
 21 22  1  0
 22 23  1  0
 22 24  1  0
 24 25  1  0
 24 26  1  0
 19 27  1  0
 27 28  1  6
 27 29  1  0
 29 30  1  0
 30 31  1  0
 31 32  1  6
  7  5  1  0
 31 10  1  0
 31 13  1  0
 27 15  1  0
 24 18  1  0
  1 33  1  0
  1 34  1  0
  1 35  1  0
  2 36  1  1
  3 37  1  0
  3 38  1  0
  4 39  1  0
  4 40  1  0
  5 41  1  1
  8 42  1  0
  8 43  1  0
  8 44  1  0
  9 45  1  0
  9 46  1  0
  9 47  1  0
 10 48  1  1
 11 49  1  0
 11 50  1  0
 12 51  1  0
 12 52  1  0
 14 53  1  0
 14 54  1  0
 14 55  1  0
 15 56  1  6
 16 57  1  0
 16 58  1  0
 17 59  1  0
 19 60  1  1
 20 61  1  0
 20 62  1  0
 21 63  1  0
 21 64  1  0
 22 65  1  1
 23 66  1  0
 25 67  1  0
 25 68  1  0
 25 69  1  0
 26 70  1  0
 26 71  1  0
 26 72  1  0
 28 73  1  0
 28 74  1  0
 28 75  1  0
 29 76  1  0
 29 77  1  0
 30 78  1  0
 30 79  1  0
 32 80  1  0
 32 81  1  0
 32 82  1  0
M  END
>  <meeko>  (15) 
{"is_sidechain": [false], "intermolecular_energy": 2.731, "internal_energy": -0.839}

$$$$
EPH_relaxed_0001_pdb2pqr_Repair_135_r2_0001_out
     RDKit          3D

 82 86  0  0  0  0  0  0  0  0999 V2000
    4.6180   17.5210   -2.6120 C   0  0  0  0  0  0  0  0  0  0  0  0
    5.1700   16.1670   -2.1580 C   0  0  2  0  0  0  0  0  0  0  0  0
    5.6690   15.3170   -3.3440 C   0  0  0  0  0  0  0  0  0  0  0  0
    5.7530   13.8190   -3.0360 C   0  0  0  0  0  0  0  0  0  0  0  0
    6.1380   13.0250   -4.2460 C   0  0  2  0  0  0  0  0  0  0  0  0
    5.0880   12.8490   -5.2070 O   0  0  0  0  0  0  0  0  0  0  0  0
    5.5670   11.6560   -4.5650 C   0  0  0  0  0  0  0  0  0  0  0  0
    4.5620   11.0010   -3.6700 C   0  0  0  0  0  0  0  0  0  0  0  0
    6.3400   10.7520   -5.4740 C   0  0  0  0  0  0  0  0  0  0  0  0
    4.1020   15.4040   -1.3830 C   0  0  1  0  0  0  0  0  0  0  0  0
    3.4800   16.2450   -0.2380 C   0  0  0  0  0  0  0  0  0  0  0  0
    1.9870   15.8380   -0.1440 C   0  0  0  0  0  0  0  0  0  0  0  0
    1.8780   14.5540   -1.0000 C   0  0  1  0  0  0  0  0  0  0  0  0
    2.3810   13.4070   -0.0680 C   0  0  0  0  0  0  0  0  0  0  0  0
    0.4680   14.2380   -1.5950 C   0  0  2  0  0  0  0  0  0  0  0  0
   -0.6380   13.9850   -0.5560 C   0  0  0  0  0  0  0  0  0  0  0  0
   -0.8060   12.5620   -0.1370 C   0  0  0  0  0  0  0  0  0  0  0  0
   -0.2990   11.4930   -0.7780 C   0  0  0  0  0  0  0  0  0  0  0  0
    0.4500   11.6540   -2.1070 C   0  0  1  0  0  0  0  0  0  0  0  0
   -0.0600   10.5960   -3.1210 C   0  0  0  0  0  0  0  0  0  0  0  0
    0.0210    9.1740   -2.5730 C   0  0  0  0  0  0  0  0  0  0  0  0
   -0.7830    9.0390   -1.2830 C   0  0  2  0  0  0  0  0  0  0  0  0
   -2.1720    9.2020   -1.5870 O   0  0  0  0  0  0  0  0  0  0  0  0
   -0.3640   10.0610   -0.1900 C   0  0  0  0  0  0  0  0  0  0  0  0
    1.0400    9.6950    0.3540 C   0  0  0  0  0  0  0  0  0  0  0  0
   -1.3440    9.9130    1.0040 C   0  0  0  0  0  0  0  0  0  0  0  0
    0.4730   13.1210   -2.7170 C   0  0  1  0  0  0  0  0  0  0  0  0
   -0.8000   13.3570   -3.5860 C   0  0  0  0  0  0  0  0  0  0  0  0
    1.7050   13.2550   -3.6880 C   0  0  0  0  0  0  0  0  0  0  0  0
    3.0430   13.6860   -3.0590 C   0  0  0  0  0  0  0  0  0  0  0  0
    2.8590   14.9220   -2.1720 C   0  0  2  0  0  0  0  0  0  0  0  0
    2.3750   16.0990   -3.0860 C   0  0  0  0  0  0  0  0  0  0  0  0
    4.3697   18.1300   -1.7303 H   0  0  0  0  0  0  0  0  0  0  0  0
    5.3755   18.0419   -3.2160 H   0  0  0  0  0  0  0  0  0  0  0  0
    3.7122   17.3638   -3.2160 H   0  0  0  0  0  0  0  0  0  0  0  0
    6.0337   16.3630   -1.5056 H   0  0  0  0  0  0  0  0  0  0  0  0
    4.9785   15.4597   -4.1883 H   0  0  0  0  0  0  0  0  0  0  0  0
    6.6899   15.6553   -3.5748 H   0  0  0  0  0  0  0  0  0  0  0  0
    6.5056   13.6584   -2.2500 H   0  0  0  0  0  0  0  0  0  0  0  0
    4.7597   13.4808   -2.7059 H   0  0  0  0  0  0  0  0  0  0  0  0
    7.1709   13.3993   -4.1913 H   0  0  0  0  0  0  0  0  0  0  0  0
    4.8354   11.1792   -2.6195 H   0  0  0  0  0  0  0  0  0  0  0  0
    3.5656   11.4237   -3.8664 H   0  0  0  0  0  0  0  0  0  0  0  0
    4.5464    9.9188   -3.8664 H   0  0  0  0  0  0  0  0  0  0  0  0
    6.9386   10.0520   -4.8726 H   0  0  0  0  0  0  0  0  0  0  0  0
    5.6421   10.1862   -6.1087 H   0  0  0  0  0  0  0  0  0  0  0  0
    7.0073   11.3536   -6.1087 H   0  0  0  0  0  0  0  0  0  0  0  0
    4.6962   14.5392   -1.0527 H   0  0  0  0  0  0  0  0  0  0  0  0
    3.9919   16.0294    0.7115 H   0  0  0  0  0  0  0  0  0  0  0  0
    3.5839   17.3217   -0.4376 H   0  0  0  0  0  0  0  0  0  0  0  0
    1.7050   15.6341    0.8995 H   0  0  0  0  0  0  0  0  0  0  0  0
    1.3147   16.6335   -0.4977 H   0  0  0  0  0  0  0  0  0  0  0  0
    2.2505   13.7046    0.9829 H   0  0  0  0  0  0  0  0  0  0  0  0
    1.8009   12.4934   -0.2651 H   0  0  0  0  0  0  0  0  0  0  0  0
    3.4460   13.2148   -0.2651 H   0  0  0  0  0  0  0  0  0  0  0  0
    0.2034   15.1852   -2.0878 H   0  0  0  0  0  0  0  0  0  0  0  0
   -0.4042   14.5779    0.3405 H   0  0  0  0  0  0  0  0  0  0  0  0
   -1.5825   14.2730   -1.0408 H   0  0  0  0  0  0  0  0  0  0  0  0
   -1.3941   12.3712    0.7728 H   0  0  0  0  0  0  0  0  0  0  0  0
    1.5113   11.4735   -1.8808 H   0  0  0  0  0  0  0  0  0  0  0  0
   -1.1085   10.8200   -3.3670 H   0  0  0  0  0  0  0  0  0  0  0  0
    0.5845   10.6483   -4.0109 H   0  0  0  0  0  0  0  0  0  0  0  0
   -0.3811    8.4762   -3.3223 H   0  0  0  0  0  0  0  0  0  0  0  0
    1.0740    8.9413   -2.3559 H   0  0  0  0  0  0  0  0  0  0  0  0
   -0.5807    8.0393   -0.8711 H   0  0  0  0  0  0  0  0  0  0  0  0
   -2.2390    9.8190   -2.3350 H   0  0  0  0  0  0  0  0  0  0  0  0
    1.0199    9.7002    1.4538 H   0  0  0  0  0  0  0  0  0  0  0  0
    1.3218    8.6934   -0.0028 H   0  0  0  0  0  0  0  0  0  0  0  0
    1.7749   10.4316   -0.0028 H   0  0  0  0  0  0  0  0  0  0  0  0
   -0.7865    9.9972    1.9485 H   0  0  0  0  0  0  0  0  0  0  0  0
   -2.1042   10.7065    0.9549 H   0  0  0  0  0  0  0  0  0  0  0  0
   -1.8360    8.9304    0.9549 H   0  0  0  0  0  0  0  0  0  0  0  0
   -1.6676   13.5179   -2.9292 H   0  0  0  0  0  0  0  0  0  0  0  0
   -0.6515   14.2429   -4.2209 H   0  0  0  0  0  0  0  0  0  0  0  0
   -0.9789   12.4767   -4.2209 H   0  0  0  0  0  0  0  0  0  0  0  0
    1.8614   12.2756   -4.1638 H   0  0  0  0  0  0  0  0  0  0  0  0
    1.4382   14.0673   -4.3801 H   0  0  0  0  0  0  0  0  0  0  0  0
    3.4361   12.8600   -2.4481 H   0  0  0  0  0  0  0  0  0  0  0  0
    3.7462   13.9357   -3.8671 H   0  0  0  0  0  0  0  0  0  0  0  0
    2.0317   16.9340   -2.4575 H   0  0  0  0  0  0  0  0  0  0  0  0
    3.2074   16.4363   -3.7211 H   0  0  0  0  0  0  0  0  0  0  0  0
    1.5461   15.7531   -3.7211 H   0  0  0  0  0  0  0  0  0  0  0  0
  1  2  1  0
  2  3  1  0
  3  4  1  0
  4  5  1  0
  5  6  1  0
  6  7  1  0
  7  8  1  0
  7  9  1  0
  2 10  1  0
 10 11  1  0
 11 12  1  0
 12 13  1  0
 13 14  1  1
 13 15  1  0
 15 16  1  0
 16 17  1  0
 17 18  2  0
 18 19  1  0
 19 20  1  0
 20 21  1  0
 21 22  1  0
 22 23  1  0
 22 24  1  0
 24 25  1  0
 24 26  1  0
 19 27  1  0
 27 28  1  6
 27 29  1  0
 29 30  1  0
 30 31  1  0
 31 32  1  6
  7  5  1  0
 31 10  1  0
 31 13  1  0
 27 15  1  0
 24 18  1  0
  1 33  1  0
  1 34  1  0
  1 35  1  0
  2 36  1  1
  3 37  1  0
  3 38  1  0
  4 39  1  0
  4 40  1  0
  5 41  1  6
  8 42  1  0
  8 43  1  0
  8 44  1  0
  9 45  1  0
  9 46  1  0
  9 47  1  0
 10 48  1  1
 11 49  1  0
 11 50  1  0
 12 51  1  0
 12 52  1  0
 14 53  1  0
 14 54  1  0
 14 55  1  0
 15 56  1  6
 16 57  1  0
 16 58  1  0
 17 59  1  0
 19 60  1  1
 20 61  1  0
 20 62  1  0
 21 63  1  0
 21 64  1  0
 22 65  1  1
 23 66  1  0
 25 67  1  0
 25 68  1  0
 25 69  1  0
 26 70  1  0
 26 71  1  0
 26 72  1  0
 28 73  1  0
 28 74  1  0
 28 75  1  0
 29 76  1  0
 29 77  1  0
 30 78  1  0
 30 79  1  0
 32 80  1  0
 32 81  1  0
 32 82  1  0
M  END
>  <meeko>  (16) 
{"is_sidechain": [false], "intermolecular_energy": 2.731, "internal_energy": -0.839}

$$$$
EPH_relaxed_0001_pdb2pqr_Repair_135_r2_0001_out
     RDKit          3D

 82 86  0  0  0  0  0  0  0  0999 V2000
    0.2360   10.1400    1.8540 C   0  0  0  0  0  0  0  0  0  0  0  0
    0.4530   10.3940    0.3600 C   0  0  2  0  0  0  0  0  0  0  0  0
    0.9470    9.1330   -0.3780 C   0  0  0  0  0  0  0  0  0  0  0  0
    0.0910    8.7550   -1.5900 C   0  0  0  0  0  0  0  0  0  0  0  0
   -1.2850    8.3210   -1.1830 C   0  0  2  0  0  0  0  0  0  0  0  0
   -2.2900    8.4930   -2.1910 O   0  0  0  0  0  0  0  0  0  0  0  0
   -2.4450    9.2820   -1.0010 C   0  0  0  0  0  0  0  0  0  0  0  0
   -2.2810   10.7540   -1.2200 C   0  0  0  0  0  0  0  0  0  0  0  0
   -3.5970    8.8590   -0.1430 C   0  0  0  0  0  0  0  0  0  0  0  0
    1.4470   11.5340    0.1660 C   0  0  1  0  0  0  0  0  0  0  0  0
    2.7480   11.0770   -0.5480 C   0  0  0  0  0  0  0  0  0  0  0  0
    3.2080   12.2600   -1.4380 C   0  0  0  0  0  0  0  0  0  0  0  0
    2.3590   13.4610   -0.9610 C   0  0  1  0  0  0  0  0  0  0  0  0
    3.0820   13.9800    0.3210 C   0  0  0  0  0  0  0  0  0  0  0  0
    2.1360   14.6070   -2.0010 C   0  0  2  0  0  0  0  0  0  0  0  0
    3.4150   15.3250   -2.4650 C   0  0  0  0  0  0  0  0  0  0  0  0
    3.8060   16.5170   -1.6560 C   0  0  0  0  0  0  0  0  0  0  0  0
    3.0130   17.1620   -0.7810 C   0  0  0  0  0  0  0  0  0  0  0  0
    1.5430   16.7610   -0.6050 C   0  0  1  0  0  0  0  0  0  0  0  0
    0.6550   18.0320   -0.6090 C   0  0  0  0  0  0  0  0  0  0  0  0
    1.1050   19.0630    0.4220 C   0  0  0  0  0  0  0  0  0  0  0  0
    2.5530   19.4810    0.1790 C   0  0  2  0  0  0  0  0  0  0  0  0
    2.6260   20.1920   -1.0600 O   0  0  0  0  0  0  0  0  0  0  0  0
    3.5400   18.2810    0.1520 C   0  0  0  0  0  0  0  0  0  0  0  0
    3.6870   17.6950    1.5780 C   0  0  0  0  0  0  0  0  0  0  0  0
    4.9410   18.8240   -0.2410 C   0  0  0  0  0  0  0  0  0  0  0  0
    1.0080   15.6400   -1.5970 C   0  0  1  0  0  0  0  0  0  0  0  0
    0.5080   16.2940   -2.9210 C   0  0  0  0  0  0  0  0  0  0  0  0
   -0.2430   14.9360   -0.9490 C   0  0  0  0  0  0  0  0  0  0  0  0
    0.0350   13.7350   -0.0250 C   0  0  0  0  0  0  0  0  0  0  0  0
    0.9880   12.7390   -0.6930 C   0  0  2  0  0  0  0  0  0  0  0  0
    0.2780   12.1830   -1.9740 C   0  0  0  0  0  0  0  0  0  0  0  0
    0.8414   10.8487    2.4381 H   0  0  0  0  0  0  0  0  0  0  0  0
   -0.8276   10.2778    2.0987 H   0  0  0  0  0  0  0  0  0  0  0  0
    0.5382    9.1110    2.0987 H   0  0  0  0  0  0  0  0  0  0  0  0
   -0.5195   10.6703   -0.0735 H   0  0  0  0  0  0  0  0  0  0  0  0
    1.9762    9.3127   -0.7221 H   0  0  0  0  0  0  0  0  0  0  0  0
    0.8829    8.2974    0.3344 H   0  0  0  0  0  0  0  0  0  0  0  0
    0.0077    9.6281   -2.2539 H   0  0  0  0  0  0  0  0  0  0  0  0
    0.5778    7.9136   -2.1048 H   0  0  0  0  0  0  0  0  0  0  0  0
   -0.8711    7.5327   -0.5370 H   0  0  0  0  0  0  0  0  0  0  0  0
   -2.2240   11.2653   -0.2477 H   0  0  0  0  0  0  0  0  0  0  0  0
   -1.3566   10.9397   -1.7866 H   0  0  0  0  0  0  0  0  0  0  0  0
   -3.1419   11.1386   -1.7866 H   0  0  0  0  0  0  0  0  0  0  0  0
   -3.3213    8.9603    0.9171 H   0  0  0  0  0  0  0  0  0  0  0  0
   -4.4676    9.4961   -0.3579 H   0  0  0  0  0  0  0  0  0  0  0  0
   -3.8484    7.8099   -0.3579 H   0  0  0  0  0  0  0  0  0  0  0  0
    1.5771   11.8458    1.2128 H   0  0  0  0  0  0  0  0  0  0  0  0
    3.5235   10.8374    0.1944 H   0  0  0  0  0  0  0  0  0  0  0  0
    2.5717   10.1740   -1.1509 H   0  0  0  0  0  0  0  0  0  0  0  0
    4.2799   12.4606   -1.2936 H   0  0  0  0  0  0  0  0  0  0  0  0
    3.0721   12.0529   -2.5097 H   0  0  0  0  0  0  0  0  0  0  0  0
    2.5598   13.6051    1.2136 H   0  0  0  0  0  0  0  0  0  0  0  0
    4.1217   13.6207    0.3265 H   0  0  0  0  0  0  0  0  0  0  0  0
    3.0742   15.0800    0.3265 H   0  0  0  0  0  0  0  0  0  0  0  0
    1.7656   14.0581   -2.8794 H   0  0  0  0  0  0  0  0  0  0  0  0
    4.2433   14.6021   -2.4275 H   0  0  0  0  0  0  0  0  0  0  0  0
    3.2033   15.7002   -3.4772 H   0  0  0  0  0  0  0  0  0  0  0  0
    4.8287   16.9005   -1.7861 H   0  0  0  0  0  0  0  0  0  0  0  0
    1.4781   16.2643    0.3743 H   0  0  0  0  0  0  0  0  0  0  0  0
    0.6991   18.4899   -1.6082 H   0  0  0  0  0  0  0  0  0  0  0  0
   -0.3689   17.7250   -0.3495 H   0  0  0  0  0  0  0  0  0  0  0  0
    0.4576   19.9495    0.3510 H   0  0  0  0  0  0  0  0  0  0  0  0
    1.0326   18.6132    1.4232 H   0  0  0  0  0  0  0  0  0  0  0  0
    2.8581   20.1193    1.0213 H   0  0  0  0  0  0  0  0  0  0  0  0
    1.7240   20.4750   -1.2910 H   0  0  0  0  0  0  0  0  0  0  0  0
    3.4895   18.4825    2.3202 H   0  0  0  0  0  0  0  0  0  0  0  0
    2.9668   16.8746    1.7133 H   0  0  0  0  0  0  0  0  0  0  0  0
    4.7091   17.3117    1.7133 H   0  0  0  0  0  0  0  0  0  0  0  0
    5.5164   19.0470    0.6696 H   0  0  0  0  0  0  0  0  0  0  0  0
    5.4740   18.0673   -0.8355 H   0  0  0  0  0  0  0  0  0  0  0  0
    4.8248   19.7422   -0.8355 H   0  0  0  0  0  0  0  0  0  0  0  0
   -0.1445   17.1475   -2.6848 H   0  0  0  0  0  0  0  0  0  0  0  0
    1.3714   16.6435   -3.5062 H   0  0  0  0  0  0  0  0  0  0  0  0
   -0.0556   15.5525   -3.5062 H   0  0  0  0  0  0  0  0  0  0  0  0
   -0.7813   15.6921   -0.3586 H   0  0  0  0  0  0  0  0  0  0  0  0
   -0.8099   14.5217   -1.7957 H   0  0  0  0  0  0  0  0  0  0  0  0
    0.4895   14.0971    0.9090 H   0  0  0  0  0  0  0  0  0  0  0  0
   -0.9169   13.2245    0.1830 H   0  0  0  0  0  0  0  0  0  0  0  0
   -0.5558   11.5300   -1.6768 H   0  0  0  0  0  0  0  0  0  0  0  0
   -0.1081   13.0214   -2.5723 H   0  0  0  0  0  0  0  0  0  0  0  0
    0.9994   11.6072   -2.5723 H   0  0  0  0  0  0  0  0  0  0  0  0
  1  2  1  0
  2  3  1  0
  3  4  1  0
  4  5  1  0
  5  6  1  0
  6  7  1  0
  7  8  1  0
  7  9  1  0
  2 10  1  0
 10 11  1  0
 11 12  1  0
 12 13  1  0
 13 14  1  1
 13 15  1  0
 15 16  1  0
 16 17  1  0
 17 18  2  0
 18 19  1  0
 19 20  1  0
 20 21  1  0
 21 22  1  0
 22 23  1  0
 22 24  1  0
 24 25  1  0
 24 26  1  0
 19 27  1  0
 27 28  1  6
 27 29  1  0
 29 30  1  0
 30 31  1  0
 31 32  1  6
  7  5  1  0
 31 10  1  0
 31 13  1  0
 27 15  1  0
 24 18  1  0
  1 33  1  0
  1 34  1  0
  1 35  1  0
  2 36  1  6
  3 37  1  0
  3 38  1  0
  4 39  1  0
  4 40  1  0
  5 41  1  1
  8 42  1  0
  8 43  1  0
  8 44  1  0
  9 45  1  0
  9 46  1  0
  9 47  1  0
 10 48  1  1
 11 49  1  0
 11 50  1  0
 12 51  1  0
 12 52  1  0
 14 53  1  0
 14 54  1  0
 14 55  1  0
 15 56  1  6
 16 57  1  0
 16 58  1  0
 17 59  1  0
 19 60  1  1
 20 61  1  0
 20 62  1  0
 21 63  1  0
 21 64  1  0
 22 65  1  1
 23 66  1  0
 25 67  1  0
 25 68  1  0
 25 69  1  0
 26 70  1  0
 26 71  1  0
 26 72  1  0
 28 73  1  0
 28 74  1  0
 28 75  1  0
 29 76  1  0
 29 77  1  0
 30 78  1  0
 30 79  1  0
 32 80  1  0
 32 81  1  0
 32 82  1  0
M  END
>  <meeko>  (17) 
{"is_sidechain": [false], "intermolecular_energy": 2.731, "internal_energy": -0.839}

$$$$
EPH_relaxed_0001_pdb2pqr_Repair_135_r2_0001_out
     RDKit          3D

 82 86  0  0  0  0  0  0  0  0999 V2000
   -0.3690   10.4670   -2.1790 C   0  0  0  0  0  0  0  0  0  0  0  0
    0.6730   10.2350   -1.0820 C   0  0  2  0  0  0  0  0  0  0  0  0
    0.0230    9.9990    0.2960 C   0  0  0  0  0  0  0  0  0  0  0  0
    0.7970   10.6280    1.4580 C   0  0  0  0  0  0  0  0  0  0  0  0
   -0.0010   11.6960    2.1420 C   0  0  2  0  0  0  0  0  0  0  0  0
    0.5720   13.0080    2.0730 O   0  0  0  0  0  0  0  0  0  0  0  0
    0.4730   12.4280    3.3840 C   0  0  0  0  0  0  0  0  0  0  0  0
    1.7940   12.1200    4.0150 C   0  0  0  0  0  0  0  0  0  0  0  0
   -0.5480   13.0870    4.2590 C   0  0  0  0  0  0  0  0  0  0  0  0
    1.6270   11.4220   -1.0120 C   0  0  1  0  0  0  0  0  0  0  0  0
    2.9810   11.1420   -1.7160 C   0  0  0  0  0  0  0  0  0  0  0  0
    3.4380   12.4800   -2.3540 C   0  0  0  0  0  0  0  0  0  0  0  0
    2.5150   13.5480   -1.7230 C   0  0  1  0  0  0  0  0  0  0  0  0
    3.1470   13.8510   -0.3280 C   0  0  0  0  0  0  0  0  0  0  0  0
    2.2990   14.8540   -2.5550 C   0  0  2  0  0  0  0  0  0  0  0  0
    3.5700   15.6840   -2.8070 C   0  0  0  0  0  0  0  0  0  0  0  0
    3.8670   16.7240   -1.7780 C   0  0  0  0  0  0  0  0  0  0  0  0
    3.0020   17.1760   -0.8510 C   0  0  0  0  0  0  0  0  0  0  0  0
    1.5430   16.7030   -0.8370 C   0  0  1  0  0  0  0  0  0  0  0  0
    0.6040   17.9250   -0.6670 C   0  0  0  0  0  0  0  0  0  0  0  0
    0.9550   18.7680    0.5550 C   0  0  0  0  0  0  0  0  0  0  0  0
    2.3950   19.2690    0.4760 C   0  0  2  0  0  0  0  0  0  0  0  0
    2.5030   20.1930   -0.6110 O   0  0  0  0  0  0  0  0  0  0  0  0
    3.4320   18.1250    0.2950 C   0  0  0  0  0  0  0  0  0  0  0  0
    3.5290   17.2990    1.6010 C   0  0  0  0  0  0  0  0  0  0  0  0
    4.8280   18.7740    0.0880 C   0  0  0  0  0  0  0  0  0  0  0  0
    1.1080   15.7610   -2.0410 C   0  0  1  0  0  0  0  0  0  0  0  0
    0.6520   16.6260   -3.2550 C   0  0  0  0  0  0  0  0  0  0  0  0
   -0.1440   14.9130   -1.6040 C   0  0  0  0  0  0  0  0  0  0  0  0
    0.1360   13.5760   -0.8920 C   0  0  0  0  0  0  0  0  0  0  0  0
    1.1630   12.7460   -1.6680 C   0  0  2  0  0  0  0  0  0  0  0  0
    0.5460   12.4070   -3.0680 C   0  0  0  0  0  0  0  0  0  0  0  0
   -1.3441   10.6841   -1.7185 H   0  0  0  0  0  0  0  0  0  0  0  0
   -0.0607   11.3185   -2.8034 H   0  0  0  0  0  0  0  0  0  0  0  0
   -0.4511    9.5651   -2.8034 H   0  0  0  0  0  0  0  0  0  0  0  0
    1.2315    9.3241   -1.3434 H   0  0  0  0  0  0  0  0  0  0  0  0
   -0.9896   10.4285    0.2804 H   0  0  0  0  0  0  0  0  0  0  0  0
    0.0156    8.9122    0.4658 H   0  0  0  0  0  0  0  0  0  0  0  0
    1.0427    9.8434    2.1888 H   0  0  0  0  0  0  0  0  0  0  0  0
    1.7098   11.0888    1.0524 H   0  0  0  0  0  0  0  0  0  0  0  0
   -0.9420   11.1781    1.9048 H   0  0  0  0  0  0  0  0  0  0  0  0
    1.6918   12.1438    5.1100 H   0  0  0  0  0  0  0  0  0  0  0  0
    2.1268   11.1202    3.6995 H   0  0  0  0  0  0  0  0  0  0  0  0
    2.5347   12.8695    3.6995 H   0  0  0  0  0  0  0  0  0  0  0  0
   -0.2888   12.9197    5.3149 H   0  0  0  0  0  0  0  0  0  0  0  0
   -0.5655   14.1673    4.0524 H   0  0  0  0  0  0  0  0  0  0  0  0
   -1.5396   12.6581    4.0524 H   0  0  0  0  0  0  0  0  0  0  0  0
    1.6893   11.5452    0.0793 H   0  0  0  0  0  0  0  0  0  0  0  0
    3.7254   10.7981   -0.9827 H   0  0  0  0  0  0  0  0  0  0  0  0
    2.8749   10.3564   -2.4786 H   0  0  0  0  0  0  0  0  0  0  0  0
    4.4913   12.6855   -2.1127 H   0  0  0  0  0  0  0  0  0  0  0  0
    3.3682   12.4642   -3.4517 H   0  0  0  0  0  0  0  0  0  0  0  0
    2.4598   13.5215    0.4652 H   0  0  0  0  0  0  0  0  0  0  0  0
    4.1015   13.3126   -0.2332 H   0  0  0  0  0  0  0  0  0  0  0  0
    3.3250   14.9324   -0.2332 H   0  0  0  0  0  0  0  0  0  0  0  0
    1.9989   14.4611   -3.5376 H   0  0  0  0  0  0  0  0  0  0  0  0
    4.4247   14.9928   -2.8482 H   0  0  0  0  0  0  0  0  0  0  0  0
    3.3970   16.2274   -3.7477 H   0  0  0  0  0  0  0  0  0  0  0  0
    4.8780   17.1575   -1.7773 H   0  0  0  0  0  0  0  0  0  0  0  0
    1.4478   16.0361    0.0326 H   0  0  0  0  0  0  0  0  0  0  0  0
    0.6810   18.5562   -1.5646 H   0  0  0  0  0  0  0  0  0  0  0  0
   -0.4180   17.5433   -0.5264 H   0  0  0  0  0  0  0  0  0  0  0  0
    0.2754   19.6316    0.6040 H   0  0  0  0  0  0  0  0  0  0  0  0
    0.8489   18.1440    1.4546 H   0  0  0  0  0  0  0  0  0  0  0  0
    2.6284   19.7553    1.4347 H   0  0  0  0  0  0  0  0  0  0  0  0
    1.8600   20.9060   -0.4570 H   0  0  0  0  0  0  0  0  0  0  0  0
    3.4499   17.9722    2.4673 H   0  0  0  0  0  0  0  0  0  0  0  0
    2.7110   16.5642    1.6317 H   0  0  0  0  0  0  0  0  0  0  0  0
    4.4950   16.7737    1.6317 H   0  0  0  0  0  0  0  0  0  0  0  0
    5.2828   18.9855    1.0670 H   0  0  0  0  0  0  0  0  0  0  0  0
    5.4735   18.0836   -0.4748 H   0  0  0  0  0  0  0  0  0  0  0  0
    4.7162   19.7125   -0.4748 H   0  0  0  0  0  0  0  0  0  0  0  0
    0.1681   17.5439   -2.8900 H   0  0  0  0  0  0  0  0  0  0  0  0
    1.5276   16.8911   -3.8658 H   0  0  0  0  0  0  0  0  0  0  0  0
   -0.0614   16.0534   -3.8658 H   0  0  0  0  0  0  0  0  0  0  0  0
   -0.7445   15.5334   -0.9225 H   0  0  0  0  0  0  0  0  0  0  0  0
   -0.6475   14.6389   -2.5428 H   0  0  0  0  0  0  0  0  0  0  0  0
    0.5260   13.7800    0.1161 H   0  0  0  0  0  0  0  0  0  0  0  0
   -0.8032   13.0064   -0.8336 H   0  0  0  0  0  0  0  0  0  0  0  0
   -0.4104   11.8815   -2.9297 H   0  0  0  0  0  0  0  0  0  0  0  0
    0.3752   13.3379   -3.6285 H   0  0  0  0  0  0  0  0  0  0  0  0
    1.2401   11.7636   -3.6285 H   0  0  0  0  0  0  0  0  0  0  0  0
  1  2  1  0
  2  3  1  0
  3  4  1  0
  4  5  1  0
  5  6  1  0
  6  7  1  0
  7  8  1  0
  7  9  1  0
  2 10  1  0
 10 11  1  0
 11 12  1  0
 12 13  1  0
 13 14  1  1
 13 15  1  0
 15 16  1  0
 16 17  1  0
 17 18  2  0
 18 19  1  0
 19 20  1  0
 20 21  1  0
 21 22  1  0
 22 23  1  0
 22 24  1  0
 24 25  1  0
 24 26  1  0
 19 27  1  0
 27 28  1  6
 27 29  1  0
 29 30  1  0
 30 31  1  0
 31 32  1  6
  7  5  1  0
 31 10  1  0
 31 13  1  0
 27 15  1  0
 24 18  1  0
  1 33  1  0
  1 34  1  0
  1 35  1  0
  2 36  1  6
  3 37  1  0
  3 38  1  0
  4 39  1  0
  4 40  1  0
  5 41  1  1
  8 42  1  0
  8 43  1  0
  8 44  1  0
  9 45  1  0
  9 46  1  0
  9 47  1  0
 10 48  1  1
 11 49  1  0
 11 50  1  0
 12 51  1  0
 12 52  1  0
 14 53  1  0
 14 54  1  0
 14 55  1  0
 15 56  1  6
 16 57  1  0
 16 58  1  0
 17 59  1  0
 19 60  1  1
 20 61  1  0
 20 62  1  0
 21 63  1  0
 21 64  1  0
 22 65  1  1
 23 66  1  0
 25 67  1  0
 25 68  1  0
 25 69  1  0
 26 70  1  0
 26 71  1  0
 26 72  1  0
 28 73  1  0
 28 74  1  0
 28 75  1  0
 29 76  1  0
 29 77  1  0
 30 78  1  0
 30 79  1  0
 32 80  1  0
 32 81  1  0
 32 82  1  0
M  END
>  <meeko>  (18) 
{"is_sidechain": [false], "intermolecular_energy": 2.731, "internal_energy": -0.839}

$$$$
