EPH_relaxed_0001_pdb2pqr_Repair_234_r2_0001_out
     RDKit          3D

 82 86  0  0  0  0  0  0  0  0999 V2000
   -1.6880    8.5840   -1.8890 C   0  0  0  0  0  0  0  0  0  0  0  0
   -2.0650    9.1020   -0.4980 C   0  0  2  0  0  0  0  0  0  0  0  0
   -3.5600    9.4650   -0.3990 C   0  0  0  0  0  0  0  0  0  0  0  0
   -4.4820    8.2480   -0.2770 C   0  0  0  0  0  0  0  0  0  0  0  0
   -5.1730    7.9450   -1.5720 C   0  0  2  0  0  0  0  0  0  0  0  0
   -6.3560    8.7170   -1.8140 O   0  0  0  0  0  0  0  0  0  0  0  0
   -6.5450    7.3020   -1.6570 C   0  0  0  0  0  0  0  0  0  0  0  0
   -7.3070    6.9220   -0.4260 C   0  0  0  0  0  0  0  0  0  0  0  0
   -6.9290    6.6000   -2.9230 C   0  0  0  0  0  0  0  0  0  0  0  0
   -1.2100   10.3140   -0.1460 C   0  0  1  0  0  0  0  0  0  0  0  0
   -0.1740   10.0110    0.9690 C   0  0  0  0  0  0  0  0  0  0  0  0
    1.0910   10.8460    0.6430 C   0  0  0  0  0  0  0  0  0  0  0  0
    0.6300   11.8430   -0.4460 C   0  0  1  0  0  0  0  0  0  0  0  0
   -0.0800   12.9920    0.3360 C   0  0  0  0  0  0  0  0  0  0  0  0
    1.7450   12.3930   -1.3950 C   0  0  2  0  0  0  0  0  0  0  0  0
    2.8460   13.2130   -0.7000 C   0  0  0  0  0  0  0  0  0  0  0  0
    2.5880   14.6810   -0.6120 C   0  0  0  0  0  0  0  0  0  0  0  0
    1.6600   15.3560   -1.3160 C   0  0  0  0  0  0  0  0  0  0  0  0
    0.8160   14.6510   -2.3850 C   0  0  1  0  0  0  0  0  0  0  0  0
    0.7810   15.5170   -3.6720 C   0  0  0  0  0  0  0  0  0  0  0  0
    0.3110   16.9440   -3.4040 C   0  0  0  0  0  0  0  0  0  0  0  0
    1.2100   17.6310   -2.3800 C   0  0  2  0  0  0  0  0  0  0  0  0
    2.5100   17.8080   -2.9520 O   0  0  0  0  0  0  0  0  0  0  0  0
    1.3300   16.8450   -1.0440 C   0  0  0  0  0  0  0  0  0  0  0  0
   -0.0140   16.9120   -0.2780 C   0  0  0  0  0  0  0  0  0  0  0  0
    2.3740   17.5720   -0.1540 C   0  0  0  0  0  0  0  0  0  0  0  0
    1.1940   13.1360   -2.6790 C   0  0  1  0  0  0  0  0  0  0  0  0
    2.3240   13.0680   -3.7510 C   0  0  0  0  0  0  0  0  0  0  0  0
   -0.0540   12.4060   -3.3030 C   0  0  0  0  0  0  0  0  0  0  0  0
   -1.0570   11.7790   -2.3160 C   0  0  0  0  0  0  0  0  0  0  0  0
   -0.3360   10.9190   -1.2730 C   0  0  2  0  0  0  0  0  0  0  0  0
    0.3690    9.7420   -2.0290 C   0  0  0  0  0  0  0  0  0  0  0  0
   -1.0434    7.6984   -1.7882 H   0  0  0  0  0  0  0  0  0  0  0  0
   -2.6011    8.3123   -2.4390 H   0  0  0  0  0  0  0  0  0  0  0  0
   -1.1487    9.3693   -2.4390 H   0  0  0  0  0  0  0  0  0  0  0  0
   -1.8744    8.2910    0.2203 H   0  0  0  0  0  0  0  0  0  0  0  0
   -3.7051   10.1009    0.4868 H   0  0  0  0  0  0  0  0  0  0  0  0
   -3.8286    9.9796   -1.3334 H   0  0  0  0  0  0  0  0  0  0  0  0
   -3.8826    7.3748    0.0202 H   0  0  0  0  0  0  0  0  0  0  0  0
   -5.2502    8.4736    0.4774 H   0  0  0  0  0  0  0  0  0  0  0  0
   -4.2143    7.7053   -2.0551 H   0  0  0  0  0  0  0  0  0  0  0  0
   -6.7304    7.2096    0.4655 H   0  0  0  0  0  0  0  0  0  0  0  0
   -8.2761    7.4423   -0.4194 H   0  0  0  0  0  0  0  0  0  0  0  0
   -7.4745    5.8348   -0.4194 H   0  0  0  0  0  0  0  0  0  0  0  0
   -7.4437    5.6590   -2.6789 H   0  0  0  0  0  0  0  0  0  0  0  0
   -7.6006    7.2437   -3.5100 H   0  0  0  0  0  0  0  0  0  0  0  0
   -6.0247    6.3817   -3.5100 H   0  0  0  0  0  0  0  0  0  0  0  0
   -2.0024   11.0224    0.1373 H   0  0  0  0  0  0  0  0  0  0  0  0
   -0.5774   10.3019    1.9501 H   0  0  0  0  0  0  0  0  0  0  0  0
    0.0610    8.9371    1.0086 H   0  0  0  0  0  0  0  0  0  0  0  0
    1.4433   11.3823    1.5365 H   0  0  0  0  0  0  0  0  0  0  0  0
    1.9297   10.2188    0.3065 H   0  0  0  0  0  0  0  0  0  0  0  0
    0.0264   12.8199    1.4172 H   0  0  0  0  0  0  0  0  0  0  0  0
    0.3807   13.9551    0.0710 H   0  0  0  0  0  0  0  0  0  0  0  0
   -1.1474   13.0108    0.0710 H   0  0  0  0  0  0  0  0  0  0  0  0
    2.2341   11.4719   -1.7447 H   0  0  0  0  0  0  0  0  0  0  0  0
    2.9631   12.8265    0.3232 H   0  0  0  0  0  0  0  0  0  0  0  0
    3.7476   13.0990   -1.3197 H   0  0  0  0  0  0  0  0  0  0  0  0
    3.2089   15.2601    0.0874 H   0  0  0  0  0  0  0  0  0  0  0  0
   -0.1971   14.5659   -1.9650 H   0  0  0  0  0  0  0  0  0  0  0  0
    1.7936   15.5537   -4.1001 H   0  0  0  0  0  0  0  0  0  0  0  0
    0.0646   15.0542   -4.3667 H   0  0  0  0  0  0  0  0  0  0  0  0
    0.3358   17.5138   -4.3446 H   0  0  0  0  0  0  0  0  0  0  0  0
   -0.7129   16.9071   -3.0036 H   0  0  0  0  0  0  0  0  0  0  0  0
    0.7489   18.5990   -2.1341 H   0  0  0  0  0  0  0  0  0  0  0  0
    3.1570   17.7810   -2.2270 H   0  0  0  0  0  0  0  0  0  0  0  0
    0.1802   16.9023    0.8047 H   0  0  0  0  0  0  0  0  0  0  0  0
   -0.5438   17.8377   -0.5473 H   0  0  0  0  0  0  0  0  0  0  0  0
   -0.6332   16.0436   -0.5473 H   0  0  0  0  0  0  0  0  0  0  0  0
    2.1327   17.4040    0.9060 H   0  0  0  0  0  0  0  0  0  0  0  0
    3.3777   17.1765   -0.3687 H   0  0  0  0  0  0  0  0  0  0  0  0
    2.3512   18.6506   -0.3687 H   0  0  0  0  0  0  0  0  0  0  0  0
    3.3016   13.0092   -3.2501 H   0  0  0  0  0  0  0  0  0  0  0  0
    2.1799   12.1769   -4.3796 H   0  0  0  0  0  0  0  0  0  0  0  0
    2.2878   13.9699   -4.3796 H   0  0  0  0  0  0  0  0  0  0  0  0
   -0.6008   13.1422   -3.9105 H   0  0  0  0  0  0  0  0  0  0  0  0
    0.3611   11.5588   -3.8687 H   0  0  0  0  0  0  0  0  0  0  0  0
   -1.6063   12.5819   -1.8027 H   0  0  0  0  0  0  0  0  0  0  0  0
   -1.7501   11.1379   -2.8804 H   0  0  0  0  0  0  0  0  0  0  0  0
    0.7912    9.0371   -1.2976 H   0  0  0  0  0  0  0  0  0  0  0  0
   -0.3651    9.2197   -2.6601 H   0  0  0  0  0  0  0  0  0  0  0  0
    1.1759   10.1427   -2.6601 H   0  0  0  0  0  0  0  0  0  0  0  0
  1  2  1  0
  2  3  1  0
  3  4  1  0
  4  5  1  0
  5  6  1  0
  6  7  1  0
  7  8  1  0
  7  9  1  0
  2 10  1  0
 10 11  1  0
 11 12  1  0
 12 13  1  0
 13 14  1  1
 13 15  1  0
 15 16  1  0
 16 17  1  0
 17 18  2  0
 18 19  1  0
 19 20  1  0
 20 21  1  0
 21 22  1  0
 22 23  1  0
 22 24  1  0
 24 25  1  0
 24 26  1  0
 19 27  1  0
 27 28  1  6
 27 29  1  0
 29 30  1  0
 30 31  1  0
 31 32  1  6
  7  5  1  0
 31 10  1  0
 31 13  1  0
 27 15  1  0
 24 18  1  0
  1 33  1  0
  1 34  1  0
  1 35  1  0
  2 36  1  1
  3 37  1  0
  3 38  1  0
  4 39  1  0
  4 40  1  0
  5 41  1  6
  8 42  1  0
  8 43  1  0
  8 44  1  0
  9 45  1  0
  9 46  1  0
  9 47  1  0
 10 48  1  1
 11 49  1  0
 11 50  1  0
 12 51  1  0
 12 52  1  0
 14 53  1  0
 14 54  1  0
 14 55  1  0
 15 56  1  6
 16 57  1  0
 16 58  1  0
 17 59  1  0
 19 60  1  1
 20 61  1  0
 20 62  1  0
 21 63  1  0
 21 64  1  0
 22 65  1  1
 23 66  1  0
 25 67  1  0
 25 68  1  0
 25 69  1  0
 26 70  1  0
 26 71  1  0
 26 72  1  0
 28 73  1  0
 28 74  1  0
 28 75  1  0
 29 76  1  0
 29 77  1  0
 30 78  1  0
 30 79  1  0
 32 80  1  0
 32 81  1  0
 32 82  1  0
M  END
>  <meeko>  (1) 
{"is_sidechain": [false], "intermolecular_energy": 2.731, "internal_energy": -0.839}

$$$$
EPH_relaxed_0001_pdb2pqr_Repair_234_r2_0001_out
     RDKit          3D

 82 86  0  0  0  0  0  0  0  0999 V2000
    4.2360   17.4830   -0.6410 C   0  0  0  0  0  0  0  0  0  0  0  0
    2.8760   18.0740   -0.2580 C   0  0  2  0  0  0  0  0  0  0  0  0
    2.9210   18.8010    1.1020 C   0  0  0  0  0  0  0  0  0  0  0  0
    4.2430   18.6200    1.8530 C   0  0  0  0  0  0  0  0  0  0  0  0
    4.1790   19.2000    3.2330 C   0  0  2  0  0  0  0  0  0  0  0  0
    5.1740   20.1940    3.5120 O   0  0  0  0  0  0  0  0  0  0  0  0
    5.2550   18.9840    4.2820 C   0  0  0  0  0  0  0  0  0  0  0  0
    6.4710   18.1590    3.9940 C   0  0  0  0  0  0  0  0  0  0  0  0
    4.8950   19.1610    5.7240 C   0  0  0  0  0  0  0  0  0  0  0  0
    1.8210   16.9750   -0.2270 C   0  0  1  0  0  0  0  0  0  0  0  0
    0.3950   17.5060   -0.5320 C   0  0  0  0  0  0  0  0  0  0  0  0
   -0.3390   16.3900   -1.3180 C   0  0  0  0  0  0  0  0  0  0  0  0
    0.5580   15.1410   -1.1520 C   0  0  1  0  0  0  0  0  0  0  0  0
    0.1910   14.5670    0.2530 C   0  0  0  0  0  0  0  0  0  0  0  0
    0.4410   14.0520   -2.2680 C   0  0  2  0  0  0  0  0  0  0  0  0
   -0.9450   13.3960   -2.3970 C   0  0  0  0  0  0  0  0  0  0  0  0
   -1.1490   12.1700   -1.5710 C   0  0  0  0  0  0  0  0  0  0  0  0
   -0.1740   11.4540   -0.9800 C   0  0  0  0  0  0  0  0  0  0  0  0
    1.3030   11.8060   -1.1960 C   0  0  1  0  0  0  0  0  0  0  0  0
    2.1040   10.5140   -1.5050 C   0  0  0  0  0  0  0  0  0  0  0  0
    1.9100    9.4370   -0.4420 C   0  0  0  0  0  0  0  0  0  0  0  0
    0.4350    9.0720   -0.2980 C   0  0  2  0  0  0  0  0  0  0  0  0
   -0.0030    8.4360   -1.5030 O   0  0  0  0  0  0  0  0  0  0  0  0
   -0.4720   10.2970    0.0060 C   0  0  0  0  0  0  0  0  0  0  0  0
   -0.2010   10.8020    1.4450 C   0  0  0  0  0  0  0  0  0  0  0  0
   -1.9480    9.8150   -0.0130 C   0  0  0  0  0  0  0  0  0  0  0  0
    1.5930   12.9680   -2.2400 C   0  0  1  0  0  0  0  0  0  0  0  0
    1.6850   12.3790   -3.6810 C   0  0  0  0  0  0  0  0  0  0  0  0
    3.0010   13.6000   -1.9280 C   0  0  0  0  0  0  0  0  0  0  0  0
    3.0350   14.7520   -0.9050 C   0  0  0  0  0  0  0  0  0  0  0  0
    1.9780   15.8100   -1.2360 C   0  0  2  0  0  0  0  0  0  0  0  0
    2.3340   16.4200   -2.6340 C   0  0  0  0  0  0  0  0  0  0  0  0
    4.7995   17.2381    0.2714 H   0  0  0  0  0  0  0  0  0  0  0  0
    4.0847   16.5695   -1.2348 H   0  0  0  0  0  0  0  0  0  0  0  0
    4.8006   18.2169   -1.2348 H   0  0  0  0  0  0  0  0  0  0  0  0
    2.6124   18.8198   -1.0224 H   0  0  0  0  0  0  0  0  0  0  0  0
    2.7655   19.8757    0.9266 H   0  0  0  0  0  0  0  0  0  0  0  0
    2.1321   18.3597    1.7288 H   0  0  0  0  0  0  0  0  0  0  0  0
    4.4666   17.5456    1.9277 H   0  0  0  0  0  0  0  0  0  0  0  0
    5.0301   19.1480    1.2948 H   0  0  0  0  0  0  0  0  0  0  0  0
    3.0863   19.0761    3.2598 H   0  0  0  0  0  0  0  0  0  0  0  0
    6.9338   17.8450    4.9412 H   0  0  0  0  0  0  0  0  0  0  0  0
    6.1820   17.2697    3.4146 H   0  0  0  0  0  0  0  0  0  0  0  0
    7.1905   18.7562    3.4146 H   0  0  0  0  0  0  0  0  0  0  0  0
    5.7034   18.7635    6.3552 H   0  0  0  0  0  0  0  0  0  0  0  0
    4.7548   20.2308    5.9383 H   0  0  0  0  0  0  0  0  0  0  0  0
    3.9622   18.6188    5.9383 H   0  0  0  0  0  0  0  0  0  0  0  0
    1.9689   16.6070    0.7990 H   0  0  0  0  0  0  0  0  0  0  0  0
   -0.1376   17.7217    0.4060 H   0  0  0  0  0  0  0  0  0  0  0  0
    0.4368   18.4377   -1.1152 H   0  0  0  0  0  0  0  0  0  0  0  0
   -1.3381   16.2096   -0.8945 H   0  0  0  0  0  0  0  0  0  0  0  0
   -0.4926   16.6558   -2.3743 H   0  0  0  0  0  0  0  0  0  0  0  0
    0.6075   15.2184    1.0354 H   0  0  0  0  0  0  0  0  0  0  0  0
   -0.9032   14.5229    0.3567 H   0  0  0  0  0  0  0  0  0  0  0  0
    0.6102   13.5553    0.3567 H   0  0  0  0  0  0  0  0  0  0  0  0
    0.5796   14.6408   -3.1867 H   0  0  0  0  0  0  0  0  0  0  0  0
   -1.7010   14.1370   -2.0980 H   0  0  0  0  0  0  0  0  0  0  0  0
   -1.0335   13.0750   -3.4454 H   0  0  0  0  0  0  0  0  0  0  0  0
   -2.1834   11.8219   -1.4334 H   0  0  0  0  0  0  0  0  0  0  0  0
    1.6525   12.2440   -0.2494 H   0  0  0  0  0  0  0  0  0  0  0  0
    1.7709   10.1161   -2.4749 H   0  0  0  0  0  0  0  0  0  0  0  0
    3.1715   10.7788   -1.5210 H   0  0  0  0  0  0  0  0  0  0  0  0
    2.4763    8.5395   -0.7313 H   0  0  0  0  0  0  0  0  0  0  0  0
    2.2711    9.8257    0.5216 H   0  0  0  0  0  0  0  0  0  0  0  0
    0.3457    8.3940    0.5636 H   0  0  0  0  0  0  0  0  0  0  0  0
    0.2690    8.9980   -2.2480 H   0  0  0  0  0  0  0  0  0  0  0  0
   -0.5924   10.0726    2.1694 H   0  0  0  0  0  0  0  0  0  0  0  0
    0.8823   10.9213    1.5938 H   0  0  0  0  0  0  0  0  0  0  0  0
   -0.7004   11.7707    1.5938 H   0  0  0  0  0  0  0  0  0  0  0  0
   -2.3086    9.6972    1.0195 H   0  0  0  0  0  0  0  0  0  0  0  0
   -2.5693   10.5569   -0.5360 H   0  0  0  0  0  0  0  0  0  0  0  0
   -2.0117    8.8494   -0.5360 H   0  0  0  0  0  0  0  0  0  0  0  0
    1.8545   11.2937   -3.6234 H   0  0  0  0  0  0  0  0  0  0  0  0
    0.7453   12.5753   -4.2180 H   0  0  0  0  0  0  0  0  0  0  0  0
    2.5201   12.8525   -4.2180 H   0  0  0  0  0  0  0  0  0  0  0  0
    3.6488   12.7971   -1.5464 H   0  0  0  0  0  0  0  0  0  0  0  0
    3.3316   14.0480   -2.8766 H   0  0  0  0  0  0  0  0  0  0  0  0
    2.8377   14.3478    0.0988 H   0  0  0  0  0  0  0  0  0  0  0  0
    4.0277   15.2244   -0.9414 H   0  0  0  0  0  0  0  0  0  0  0  0
    2.8839   17.3623   -2.4936 H   0  0  0  0  0  0  0  0  0  0  0  0
    2.9598   15.7104   -3.1951 H   0  0  0  0  0  0  0  0  0  0  0  0
    1.4083   16.6158   -3.1951 H   0  0  0  0  0  0  0  0  0  0  0  0
  1  2  1  0
  2  3  1  0
  3  4  1  0
  4  5  1  0
  5  6  1  0
  6  7  1  0
  7  8  1  0
  7  9  1  0
  2 10  1  0
 10 11  1  0
 11 12  1  0
 12 13  1  0
 13 14  1  1
 13 15  1  0
 15 16  1  0
 16 17  1  0
 17 18  2  0
 18 19  1  0
 19 20  1  0
 20 21  1  0
 21 22  1  0
 22 23  1  0
 22 24  1  0
 24 25  1  0
 24 26  1  0
 19 27  1  0
 27 28  1  6
 27 29  1  0
 29 30  1  0
 30 31  1  0
 31 32  1  6
  7  5  1  0
 31 10  1  0
 31 13  1  0
 27 15  1  0
 24 18  1  0
  1 33  1  0
  1 34  1  0
  1 35  1  0
  2 36  1  6
  3 37  1  0
  3 38  1  0
  4 39  1  0
  4 40  1  0
  5 41  1  1
  8 42  1  0
  8 43  1  0
  8 44  1  0
  9 45  1  0
  9 46  1  0
  9 47  1  0
 10 48  1  1
 11 49  1  0
 11 50  1  0
 12 51  1  0
 12 52  1  0
 14 53  1  0
 14 54  1  0
 14 55  1  0
 15 56  1  6
 16 57  1  0
 16 58  1  0
 17 59  1  0
 19 60  1  1
 20 61  1  0
 20 62  1  0
 21 63  1  0
 21 64  1  0
 22 65  1  1
 23 66  1  0
 25 67  1  0
 25 68  1  0
 25 69  1  0
 26 70  1  0
 26 71  1  0
 26 72  1  0
 28 73  1  0
 28 74  1  0
 28 75  1  0
 29 76  1  0
 29 77  1  0
 30 78  1  0
 30 79  1  0
 32 80  1  0
 32 81  1  0
 32 82  1  0
M  END
>  <meeko>  (2) 
{"is_sidechain": [false], "intermolecular_energy": 2.731, "internal_energy": -0.839}

$$$$
EPH_relaxed_0001_pdb2pqr_Repair_234_r2_0001_out
     RDKit          3D

 82 86  0  0  0  0  0  0  0  0999 V2000
    2.4120   17.9910   -2.6630 C   0  0  0  0  0  0  0  0  0  0  0  0
    1.0930   17.6400   -1.9690 C   0  0  2  0  0  0  0  0  0  0  0  0
    1.2070   17.7130   -0.4330 C   0  0  0  0  0  0  0  0  0  0  0  0
    0.8590   19.0880    0.1450 C   0  0  0  0  0  0  0  0  0  0  0  0
   -0.5940   19.1870    0.5010 C   0  0  2  0  0  0  0  0  0  0  0  0
   -1.4450   18.2700   -0.1980 O   0  0  0  0  0  0  0  0  0  0  0  0
   -1.6610   19.6650   -0.4660 C   0  0  0  0  0  0  0  0  0  0  0  0
   -1.3200   20.0760   -1.8640 C   0  0  0  0  0  0  0  0  0  0  0  0
   -2.9460   20.1940    0.0920 C   0  0  0  0  0  0  0  0  0  0  0  0
    0.6380   16.2480   -2.3920 C   0  0  1  0  0  0  0  0  0  0  0  0
    0.7320   16.0290   -3.9250 C   0  0  0  0  0  0  0  0  0  0  0  0
    1.1250   14.5450   -4.1420 C   0  0  0  0  0  0  0  0  0  0  0  0
    0.9200   13.8820   -2.7590 C   0  0  1  0  0  0  0  0  0  0  0  0
   -0.6120   13.5950   -2.6750 C   0  0  0  0  0  0  0  0  0  0  0  0
    1.7640   12.5960   -2.4780 C   0  0  2  0  0  0  0  0  0  0  0  0
    1.4760   11.4090   -3.4120 C   0  0  0  0  0  0  0  0  0  0  0  0
    0.4120   10.4720   -2.9440 C   0  0  0  0  0  0  0  0  0  0  0  0
   -0.0860   10.4150   -1.6940 C   0  0  0  0  0  0  0  0  0  0  0  0
    0.4960   11.2880   -0.5750 C   0  0  1  0  0  0  0  0  0  0  0  0
    0.7200   10.4230    0.6930 C   0  0  0  0  0  0  0  0  0  0  0  0
   -0.5420    9.6830    1.1260 C   0  0  0  0  0  0  0  0  0  0  0  0
   -1.0570    8.7810    0.0070 C   0  0  2  0  0  0  0  0  0  0  0  0
   -0.1100    7.7310   -0.2110 O   0  0  0  0  0  0  0  0  0  0  0  0
   -1.3100    9.5420   -1.3250 C   0  0  0  0  0  0  0  0  0  0  0  0
   -2.5400   10.4700   -1.1690 C   0  0  0  0  0  0  0  0  0  0  0  0
   -1.6900    8.4960   -2.4070 C   0  0  0  0  0  0  0  0  0  0  0  0
    1.7760   12.1480   -0.9600 C   0  0  1  0  0  0  0  0  0  0  0  0
    3.0680   11.3000   -0.7560 C   0  0  0  0  0  0  0  0  0  0  0  0
    1.8880   13.3720    0.0240 C   0  0  0  0  0  0  0  0  0  0  0  0
    1.1280   14.6530   -0.3690 C   0  0  0  0  0  0  0  0  0  0  0  0
    1.4220   15.0400   -1.8220 C   0  0  2  0  0  0  0  0  0  0  0  0
    2.9520   15.3560   -1.9330 C   0  0  0  0  0  0  0  0  0  0  0  0
    3.1821   18.1959   -1.9047 H   0  0  0  0  0  0  0  0  0  0  0  0
    2.7317   17.1467   -3.2914 H   0  0  0  0  0  0  0  0  0  0  0  0
    2.2698   18.8826   -3.2914 H   0  0  0  0  0  0  0  0  0  0  0  0
    0.3468   18.3859   -2.2800 H   0  0  0  0  0  0  0  0  0  0  0  0
    0.5223   16.9700    0.0019 H   0  0  0  0  0  0  0  0  0  0  0  0
    2.2585   17.5138   -0.1786 H   0  0  0  0  0  0  0  0  0  0  0  0
    1.4604   19.2569    1.0504 H   0  0  0  0  0  0  0  0  0  0  0  0
    1.0776   19.8475   -0.6201 H   0  0  0  0  0  0  0  0  0  0  0  0
   -0.3461   19.4825    1.5311 H   0  0  0  0  0  0  0  0  0  0  0  0
   -0.6178   20.9223   -1.8364 H   0  0  0  0  0  0  0  0  0  0  0  0
   -0.8545   19.2304   -2.3916 H   0  0  0  0  0  0  0  0  0  0  0  0
   -2.2370   20.3774   -2.3916 H   0  0  0  0  0  0  0  0  0  0  0  0
   -2.9033   20.1764    1.1910 H   0  0  0  0  0  0  0  0  0  0  0  0
   -3.0974   21.2276   -0.2526 H   0  0  0  0  0  0  0  0  0  0  0  0
   -3.7812   19.5666   -0.2526 H   0  0  0  0  0  0  0  0  0  0  0  0
   -0.3847   16.2574   -1.9871 H   0  0  0  0  0  0  0  0  0  0  0  0
   -0.2394   16.2365   -4.3975 H   0  0  0  0  0  0  0  0  0  0  0  0
    1.4746   16.7040   -4.3754 H   0  0  0  0  0  0  0  0  0  0  0  0
    0.4758   14.0776   -4.8970 H   0  0  0  0  0  0  0  0  0  0  0  0
    2.1562   14.4354   -4.5090 H   0  0  0  0  0  0  0  0  0  0  0  0
   -0.9170   13.5379   -1.6197 H   0  0  0  0  0  0  0  0  0  0  0  0
   -1.1647   14.4052   -3.1731 H   0  0  0  0  0  0  0  0  0  0  0  0
   -0.8339   12.6397   -3.1731 H   0  0  0  0  0  0  0  0  0  0  0  0
    2.7846   12.9260   -2.7219 H   0  0  0  0  0  0  0  0  0  0  0  0
    1.1686   11.8117   -4.3884 H   0  0  0  0  0  0  0  0  0  0  0  0
    2.4043   10.8201   -3.4504 H   0  0  0  0  0  0  0  0  0  0  0  0
   -0.0000    9.7687   -3.6827 H   0  0  0  0  0  0  0  0  0  0  0  0
   -0.2581   12.0624   -0.3710 H   0  0  0  0  0  0  0  0  0  0  0  0
    1.5071    9.6842    0.4815 H   0  0  0  0  0  0  0  0  0  0  0  0
    1.0088   11.0986    1.5117 H   0  0  0  0  0  0  0  0  0  0  0  0
   -0.3133    9.0671    2.0083 H   0  0  0  0  0  0  0  0  0  0  0  0
   -1.3189   10.4241    1.3650 H   0  0  0  0  0  0  0  0  0  0  0  0
   -2.0291    8.3785    0.3279 H   0  0  0  0  0  0  0  0  0  0  0  0
    0.0410    7.6660   -1.1690 H   0  0  0  0  0  0  0  0  0  0  0  0
   -2.7478   10.6268   -0.1002 H   0  0  0  0  0  0  0  0  0  0  0  0
   -2.3320   11.4381   -1.6480 H   0  0  0  0  0  0  0  0  0  0  0  0
   -3.4139   10.0042   -1.6480 H   0  0  0  0  0  0  0  0  0  0  0  0
   -2.0266    7.5694   -1.9190 H   0  0  0  0  0  0  0  0  0  0  0  0
   -2.5005    8.8953   -3.0344 H   0  0  0  0  0  0  0  0  0  0  0  0
   -0.8122    8.2820   -3.0344 H   0  0  0  0  0  0  0  0  0  0  0  0
    3.2584   11.1750    0.3202 H   0  0  0  0  0  0  0  0  0  0  0  0
    2.9358   10.3124   -1.2221 H   0  0  0  0  0  0  0  0  0  0  0  0
    3.9215   11.8142   -1.2221 H   0  0  0  0  0  0  0  0  0  0  0  0
    1.5075   13.0470    1.0036 H   0  0  0  0  0  0  0  0  0  0  0  0
    2.9512   13.6538    0.0118 H   0  0  0  0  0  0  0  0  0  0  0  0
    0.0477   14.4803   -0.2540 H   0  0  0  0  0  0  0  0  0  0  0  0
    1.4584   15.4724    0.2863 H   0  0  0  0  0  0  0  0  0  0  0  0
    3.3822   15.4448   -0.9245 H   0  0  0  0  0  0  0  0  0  0  0  0
    3.4559   14.5430   -2.4762 H   0  0  0  0  0  0  0  0  0  0  0  0
    3.0925   16.3021   -2.4762 H   0  0  0  0  0  0  0  0  0  0  0  0
  1  2  1  0
  2  3  1  0
  3  4  1  0
  4  5  1  0
  5  6  1  0
  6  7  1  0
  7  8  1  0
  7  9  1  0
  2 10  1  0
 10 11  1  0
 11 12  1  0
 12 13  1  0
 13 14  1  1
 13 15  1  0
 15 16  1  0
 16 17  1  0
 17 18  2  0
 18 19  1  0
 19 20  1  0
 20 21  1  0
 21 22  1  0
 22 23  1  0
 22 24  1  0
 24 25  1  0
 24 26  1  0
 19 27  1  0
 27 28  1  6
 27 29  1  0
 29 30  1  0
 30 31  1  0
 31 32  1  1
  7  5  1  0
 31 10  1  0
 31 13  1  0
 27 15  1  0
 24 18  1  0
  1 33  1  0
  1 34  1  0
  1 35  1  0
  2 36  1  6
  3 37  1  0
  3 38  1  0
  4 39  1  0
  4 40  1  0
  5 41  1  1
  8 42  1  0
  8 43  1  0
  8 44  1  0
  9 45  1  0
  9 46  1  0
  9 47  1  0
 10 48  1  1
 11 49  1  0
 11 50  1  0
 12 51  1  0
 12 52  1  0
 14 53  1  0
 14 54  1  0
 14 55  1  0
 15 56  1  6
 16 57  1  0
 16 58  1  0
 17 59  1  0
 19 60  1  1
 20 61  1  0
 20 62  1  0
 21 63  1  0
 21 64  1  0
 22 65  1  1
 23 66  1  0
 25 67  1  0
 25 68  1  0
 25 69  1  0
 26 70  1  0
 26 71  1  0
 26 72  1  0
 28 73  1  0
 28 74  1  0
 28 75  1  0
 29 76  1  0
 29 77  1  0
 30 78  1  0
 30 79  1  0
 32 80  1  0
 32 81  1  0
 32 82  1  0
M  END
>  <meeko>  (3) 
{"is_sidechain": [false], "intermolecular_energy": 2.731, "internal_energy": -0.839}

$$$$
EPH_relaxed_0001_pdb2pqr_Repair_234_r2_0001_out
     RDKit          3D

 82 86  0  0  0  0  0  0  0  0999 V2000
    0.3640   18.4200   -0.0540 C   0  0  0  0  0  0  0  0  0  0  0  0
    1.4490   17.3580   -0.2510 C   0  0  2  0  0  0  0  0  0  0  0  0
    2.6730   17.9110   -1.0090 C   0  0  0  0  0  0  0  0  0  0  0  0
    3.9010   18.1260   -0.1210 C   0  0  0  0  0  0  0  0  0  0  0  0
    3.5220   18.6370    1.2360 C   0  0  2  0  0  0  0  0  0  0  0  0
    3.7830   20.0310    1.4450 O   0  0  0  0  0  0  0  0  0  0  0  0
    4.5320   19.1170    2.2620 C   0  0  0  0  0  0  0  0  0  0  0  0
    6.0010   19.1070    1.9740 C   0  0  0  0  0  0  0  0  0  0  0  0
    4.1340   19.1320    3.7050 C   0  0  0  0  0  0  0  0  0  0  0  0
    0.8740   16.1580   -0.9940 C   0  0  1  0  0  0  0  0  0  0  0  0
    0.7330   16.4120   -2.5190 C   0  0  0  0  0  0  0  0  0  0  0  0
    1.0220   15.0630   -3.2260 C   0  0  0  0  0  0  0  0  0  0  0  0
    0.9920   14.0130   -2.0900 C   0  0  1  0  0  0  0  0  0  0  0  0
   -0.5220   13.7130   -1.8620 C   0  0  0  0  0  0  0  0  0  0  0  0
    1.8100   12.7030   -2.3380 C   0  0  2  0  0  0  0  0  0  0  0  0
    1.3340   11.8530   -3.5290 C   0  0  0  0  0  0  0  0  0  0  0  0
    0.3090   10.8180   -3.2040 C   0  0  0  0  0  0  0  0  0  0  0  0
   -0.0020   10.3860   -1.9670 C   0  0  0  0  0  0  0  0  0  0  0  0
    0.7760   10.8800   -0.7410 C   0  0  1  0  0  0  0  0  0  0  0  0
    1.1430    9.6730    0.1610 C   0  0  0  0  0  0  0  0  0  0  0  0
   -0.0740    8.8350    0.5410 C   0  0  0  0  0  0  0  0  0  0  0  0
   -0.7880    8.3130   -0.7040 C   0  0  2  0  0  0  0  0  0  0  0  0
    0.0680    7.3790   -1.3680 O   0  0  0  0  0  0  0  0  0  0  0  0
   -1.1980    9.4400   -1.6920 C   0  0  0  0  0  0  0  0  0  0  0  0
   -2.3480   10.2770   -1.0800 C   0  0  0  0  0  0  0  0  0  0  0  0
   -1.7790    8.7700   -2.9660 C   0  0  0  0  0  0  0  0  0  0  0  0
    2.0230   11.8180   -1.0440 C   0  0  1  0  0  0  0  0  0  0  0  0
    3.2910   10.9490   -1.3030 C   0  0  0  0  0  0  0  0  0  0  0  0
    2.3340   12.6870    0.2320 C   0  0  0  0  0  0  0  0  0  0  0  0
    1.5830   14.0270    0.3590 C   0  0  0  0  0  0  0  0  0  0  0  0
    1.6780   14.8350   -0.9380 C   0  0  2  0  0  0  0  0  0  0  0  0
    3.1890   15.1710   -1.1830 C   0  0  0  0  0  0  0  0  0  0  0  0
    0.1995   18.5810    1.0217 H   0  0  0  0  0  0  0  0  0  0  0  0
    0.6847   19.3629   -0.5211 H   0  0  0  0  0  0  0  0  0  0  0  0
   -0.5718   18.0792   -0.5211 H   0  0  0  0  0  0  0  0  0  0  0  0
    1.7921   17.0472    0.7469 H   0  0  0  0  0  0  0  0  0  0  0  0
    2.9397   17.1992   -1.8041 H   0  0  0  0  0  0  0  0  0  0  0  0
    2.3870   18.8961   -1.4062 H   0  0  0  0  0  0  0  0  0  0  0  0
    4.4299   17.1683   -0.0062 H   0  0  0  0  0  0  0  0  0  0  0  0
    4.5447   18.8770   -0.6024 H   0  0  0  0  0  0  0  0  0  0  0  0
    2.6899   17.9204    1.2992 H   0  0  0  0  0  0  0  0  0  0  0  0
    6.5603   19.1032    2.9212 H   0  0  0  0  0  0  0  0  0  0  0  0
    6.2549   18.2071    1.3946 H   0  0  0  0  0  0  0  0  0  0  0  0
    6.2672   20.0034    1.3946 H   0  0  0  0  0  0  0  0  0  0  0  0
    5.0355   19.0980    4.3344 H   0  0  0  0  0  0  0  0  0  0  0  0
    3.5708   20.0520    3.9205 H   0  0  0  0  0  0  0  0  0  0  0  0
    3.5032   18.2570    3.9205 H   0  0  0  0  0  0  0  0  0  0  0  0
   -0.0767   16.0435   -0.4526 H   0  0  0  0  0  0  0  0  0  0  0  0
   -0.2865   16.7518   -2.7537 H   0  0  0  0  0  0  0  0  0  0  0  0
    1.4319   17.1919   -2.8557 H   0  0  0  0  0  0  0  0  0  0  0  0
    0.2486   14.8447   -3.9772 H   0  0  0  0  0  0  0  0  0  0  0  0
    1.9824   15.0703   -3.7622 H   0  0  0  0  0  0  0  0  0  0  0  0
   -0.7291   13.6720   -0.7825 H   0  0  0  0  0  0  0  0  0  0  0  0
   -1.1267   14.5088   -2.3214 H   0  0  0  0  0  0  0  0  0  0  0  0
   -0.7776   12.7468   -2.3214 H   0  0  0  0  0  0  0  0  0  0  0  0
    2.7983   13.0916   -2.6247 H   0  0  0  0  0  0  0  0  0  0  0  0
    0.9053   12.5316   -4.2811 H   0  0  0  0  0  0  0  0  0  0  0  0
    2.2187   11.3043   -3.8842 H   0  0  0  0  0  0  0  0  0  0  0  0
   -0.2388   10.3701   -4.0462 H   0  0  0  0  0  0  0  0  0  0  0  0
    0.0961   11.5551   -0.2007 H   0  0  0  0  0  0  0  0  0  0  0  0
    1.8568    9.0335   -0.3790 H   0  0  0  0  0  0  0  0  0  0  0  0
    1.5778   10.0705    1.0899 H   0  0  0  0  0  0  0  0  0  0  0  0
    0.2535    7.9814    1.1526 H   0  0  0  0  0  0  0  0  0  0  0  0
   -0.7732    9.4681    1.1070 H   0  0  0  0  0  0  0  0  0  0  0  0
   -1.7201    7.8317   -0.3730 H   0  0  0  0  0  0  0  0  0  0  0  0
   -0.2270    7.3150   -2.2920 H   0  0  0  0  0  0  0  0  0  0  0  0
   -2.2889   10.2340    0.0176 H   0  0  0  0  0  0  0  0  0  0  0  0
   -2.2575   11.3220   -1.4114 H   0  0  0  0  0  0  0  0  0  0  0  0
   -3.3146    9.8696   -1.4114 H   0  0  0  0  0  0  0  0  0  0  0  0
   -2.4739    7.9687   -2.6744 H   0  0  0  0  0  0  0  0  0  0  0  0
   -2.3160    9.5217   -3.5632 H   0  0  0  0  0  0  0  0  0  0  0  0
   -0.9589    8.3449   -3.5632 H   0  0  0  0  0  0  0  0  0  0  0  0
    3.7314   10.6472   -0.3412 H   0  0  0  0  0  0  0  0  0  0  0  0
    3.0105   10.0524   -1.8753 H   0  0  0  0  0  0  0  0  0  0  0  0
    4.0259   11.5342   -1.8753 H   0  0  0  0  0  0  0  0  0  0  0  0
    2.0859   12.0812    1.1160 H   0  0  0  0  0  0  0  0  0  0  0  0
    3.3961   12.9591    0.1436 H   0  0  0  0  0  0  0  0  0  0  0  0
    0.5245   13.8264    0.5810 H   0  0  0  0  0  0  0  0  0  0  0  0
    2.0431   14.6108    1.1698 H   0  0  0  0  0  0  0  0  0  0  0  0
    3.7008   15.2848   -0.2160 H   0  0  0  0  0  0  0  0  0  0  0  0
    3.6584   14.3553   -1.7525 H   0  0  0  0  0  0  0  0  0  0  0  0
    3.2684   16.1087   -1.7525 H   0  0  0  0  0  0  0  0  0  0  0  0
  1  2  1  0
  2  3  1  0
  3  4  1  0
  4  5  1  0
  5  6  1  0
  6  7  1  0
  7  8  1  0
  7  9  1  0
  2 10  1  0
 10 11  1  0
 11 12  1  0
 12 13  1  0
 13 14  1  1
 13 15  1  0
 15 16  1  0
 16 17  1  0
 17 18  2  0
 18 19  1  0
 19 20  1  0
 20 21  1  0
 21 22  1  0
 22 23  1  0
 22 24  1  0
 24 25  1  0
 24 26  1  0
 19 27  1  0
 27 28  1  6
 27 29  1  0
 29 30  1  0
 30 31  1  0
 31 32  1  6
  7  5  1  0
 31 10  1  0
 31 13  1  0
 27 15  1  0
 24 18  1  0
  1 33  1  0
  1 34  1  0
  1 35  1  0
  2 36  1  1
  3 37  1  0
  3 38  1  0
  4 39  1  0
  4 40  1  0
  5 41  1  1
  8 42  1  0
  8 43  1  0
  8 44  1  0
  9 45  1  0
  9 46  1  0
  9 47  1  0
 10 48  1  1
 11 49  1  0
 11 50  1  0
 12 51  1  0
 12 52  1  0
 14 53  1  0
 14 54  1  0
 14 55  1  0
 15 56  1  6
 16 57  1  0
 16 58  1  0
 17 59  1  0
 19 60  1  1
 20 61  1  0
 20 62  1  0
 21 63  1  0
 21 64  1  0
 22 65  1  1
 23 66  1  0
 25 67  1  0
 25 68  1  0
 25 69  1  0
 26 70  1  0
 26 71  1  0
 26 72  1  0
 28 73  1  0
 28 74  1  0
 28 75  1  0
 29 76  1  0
 29 77  1  0
 30 78  1  0
 30 79  1  0
 32 80  1  0
 32 81  1  0
 32 82  1  0
M  END
>  <meeko>  (4) 
{"is_sidechain": [false], "intermolecular_energy": 2.731, "internal_energy": -0.839}

$$$$
EPH_relaxed_0001_pdb2pqr_Repair_234_r2_0001_out
     RDKit          3D

 82 86  0  0  0  0  0  0  0  0999 V2000
    3.8180   17.4930    0.4790 C   0  0  0  0  0  0  0  0  0  0  0  0
    2.8460   17.7730   -0.6710 C   0  0  2  0  0  0  0  0  0  0  0  0
    2.2060   19.1720   -0.5610 C   0  0  0  0  0  0  0  0  0  0  0  0
    1.3510   19.3610    0.6950 C   0  0  0  0  0  0  0  0  0  0  0  0
    0.0640   20.0660    0.3890 C   0  0  2  0  0  0  0  0  0  0  0  0
   -0.8300   20.1900    1.5030 O   0  0  0  0  0  0  0  0  0  0  0  0
   -1.2900   19.3820    0.4080 C   0  0  0  0  0  0  0  0  0  0  0  0
   -1.4250   17.9290    0.7390 C   0  0  0  0  0  0  0  0  0  0  0  0
   -2.4130   19.9980   -0.3660 C   0  0  0  0  0  0  0  0  0  0  0  0
    1.7600   16.7040   -0.7060 C   0  0  1  0  0  0  0  0  0  0  0  0
    0.4400   17.2150   -1.3440 C   0  0  0  0  0  0  0  0  0  0  0  0
   -0.1780   16.0170   -2.1110 C   0  0  0  0  0  0  0  0  0  0  0  0
    0.6200   14.7860   -1.6210 C   0  0  1  0  0  0  0  0  0  0  0  0
   -0.0280   14.4070   -0.2530 C   0  0  0  0  0  0  0  0  0  0  0  0
    0.6720   13.5640   -2.5950 C   0  0  2  0  0  0  0  0  0  0  0  0
   -0.6900   12.9190   -2.9050 C   0  0  0  0  0  0  0  0  0  0  0  0
   -1.0970   11.8140   -1.9870 C   0  0  0  0  0  0  0  0  0  0  0  0
   -0.2810   11.1650   -1.1350 C   0  0  0  0  0  0  0  0  0  0  0  0
    1.2240   11.4620   -1.1050 C   0  0  1  0  0  0  0  0  0  0  0  0
    2.0150   10.1280   -1.0910 C   0  0  0  0  0  0  0  0  0  0  0  0
    1.5800    9.2020    0.0410 C   0  0  0  0  0  0  0  0  0  0  0  0
    0.0900    8.8830   -0.0570 C   0  0  2  0  0  0  0  0  0  0  0  0
   -0.1380    8.1030   -1.2350 O   0  0  0  0  0  0  0  0  0  0  0  0
   -0.8070   10.1520   -0.0890 C   0  0  0  0  0  0  0  0  0  0  0  0
   -0.7910   10.8360    1.3010 C   0  0  0  0  0  0  0  0  0  0  0  0
   -2.2710    9.6950   -0.3310 C   0  0  0  0  0  0  0  0  0  0  0  0
    1.7530   12.4740   -2.2100 C   0  0  1  0  0  0  0  0  0  0  0  0
    2.0910   11.7010   -3.5210 C   0  0  0  0  0  0  0  0  0  0  0  0
    3.1010   13.1180   -1.7140 C   0  0  0  0  0  0  0  0  0  0  0  0
    2.9880   14.3920   -0.8560 C   0  0  0  0  0  0  0  0  0  0  0  0
    2.0570   15.4160   -1.5130 C   0  0  2  0  0  0  0  0  0  0  0  0
    2.6950   15.8330   -2.8820 C   0  0  0  0  0  0  0  0  0  0  0  0
    3.3024   17.6415    1.4393 H   0  0  0  0  0  0  0  0  0  0  0  0
    4.1762   16.4551    0.4118 H   0  0  0  0  0  0  0  0  0  0  0  0
    4.6735   18.1812    0.4118 H   0  0  0  0  0  0  0  0  0  0  0  0
    3.4231   17.7462   -1.6071 H   0  0  0  0  0  0  0  0  0  0  0  0
    3.0106   19.9220   -0.5494 H   0  0  0  0  0  0  0  0  0  0  0  0
    1.5364   19.2879   -1.4260 H   0  0  0  0  0  0  0  0  0  0  0  0
    1.1235   18.3736    1.1232 H   0  0  0  0  0  0  0  0  0  0  0  0
    1.9191   19.9781    1.4067 H   0  0  0  0  0  0  0  0  0  0  0  0
    0.5611   20.6971   -0.3623 H   0  0  0  0  0  0  0  0  0  0  0  0
   -1.4369   17.8014    1.8315 H   0  0  0  0  0  0  0  0  0  0  0  0
   -2.3630   17.5418    0.3144 H   0  0  0  0  0  0  0  0  0  0  0  0
   -0.5744   17.3756    0.3144 H   0  0  0  0  0  0  0  0  0  0  0  0
   -3.1584   20.4069    0.3320 H   0  0  0  0  0  0  0  0  0  0  0  0
   -2.0211   20.8074   -0.9994 H   0  0  0  0  0  0  0  0  0  0  0  0
   -2.8850   19.2325   -0.9994 H   0  0  0  0  0  0  0  0  0  0  0  0
    1.6962   16.4694    0.3668 H   0  0  0  0  0  0  0  0  0  0  0  0
   -0.2507   17.5604   -0.5606 H   0  0  0  0  0  0  0  0  0  0  0  0
    0.6295   18.0619   -2.0199 H   0  0  0  0  0  0  0  0  0  0  0  0
   -1.2455   15.9095   -1.8681 H   0  0  0  0  0  0  0  0  0  0  0  0
   -0.1188   16.1451   -3.2019 H   0  0  0  0  0  0  0  0  0  0  0  0
    0.6046   14.7770    0.5674 H   0  0  0  0  0  0  0  0  0  0  0  0
   -1.0261   14.8637   -0.1810 H   0  0  0  0  0  0  0  0  0  0  0  0
   -0.1192   13.3132   -0.1810 H   0  0  0  0  0  0  0  0  0  0  0  0
    1.0054   14.0260   -3.5360 H   0  0  0  0  0  0  0  0  0  0  0  0
   -1.4579   13.7048   -2.8522 H   0  0  0  0  0  0  0  0  0  0  0  0
   -0.5914   12.4650   -3.9021 H   0  0  0  0  0  0  0  0  0  0  0  0
   -2.1522   11.5041   -2.0086 H   0  0  0  0  0  0  0  0  0  0  0  0
    1.4066   12.0135   -0.1709 H   0  0  0  0  0  0  0  0  0  0  0  0
    1.8545    9.6128   -2.0495 H   0  0  0  0  0  0  0  0  0  0  0  0
    3.0765   10.3707   -0.9348 H   0  0  0  0  0  0  0  0  0  0  0  0
    2.1535    8.2653   -0.0197 H   0  0  0  0  0  0  0  0  0  0  0  0
    1.7686    9.7070    0.9998 H   0  0  0  0  0  0  0  0  0  0  0  0
   -0.1883    8.3248    0.8490 H   0  0  0  0  0  0  0  0  0  0  0  0
    0.7090    7.6970   -1.4870 H   0  0  0  0  0  0  0  0  0  0  0  0
   -0.8090   10.0677    2.0880 H   0  0  0  0  0  0  0  0  0  0  0  0
    0.1216   11.4420    1.4010 H   0  0  0  0  0  0  0  0  0  0  0  0
   -1.6742   11.4840    1.4010 H   0  0  0  0  0  0  0  0  0  0  0  0
   -2.7710    9.5389    0.6363 H   0  0  0  0  0  0  0  0  0  0  0  0
   -2.8072   10.4685   -0.9004 H   0  0  0  0  0  0  0  0  0  0  0  0
   -2.2720    8.7538   -0.9004 H   0  0  0  0  0  0  0  0  0  0  0  0
    2.5199   10.7201   -3.2681 H   0  0  0  0  0  0  0  0  0  0  0  0
    1.1729   11.5589   -4.1100 H   0  0  0  0  0  0  0  0  0  0  0  0
    2.8187   12.2786   -4.1100 H   0  0  0  0  0  0  0  0  0  0  0  0
    3.6316   12.3612   -1.1176 H   0  0  0  0  0  0  0  0  0  0  0  0
    3.6232   13.4331   -2.6294 H   0  0  0  0  0  0  0  0  0  0  0  0
    2.5880   14.1250    0.1333 H   0  0  0  0  0  0  0  0  0  0  0  0
    3.9883   14.8393   -0.7596 H   0  0  0  0  0  0  0  0  0  0  0  0
    3.6028   16.4263   -2.6979 H   0  0  0  0  0  0  0  0  0  0  0  0
    2.9564   14.9309   -3.4546 H   0  0  0  0  0  0  0  0  0  0  0  0
    1.9737   16.4345   -3.4546 H   0  0  0  0  0  0  0  0  0  0  0  0
  1  2  1  0
  2  3  1  0
  3  4  1  0
  4  5  1  0
  5  6  1  0
  6  7  1  0
  7  8  1  0
  7  9  1  0
  2 10  1  0
 10 11  1  0
 11 12  1  0
 12 13  1  0
 13 14  1  1
 13 15  1  0
 15 16  1  0
 16 17  1  0
 17 18  2  0
 18 19  1  0
 19 20  1  0
 20 21  1  0
 21 22  1  0
 22 23  1  0
 22 24  1  0
 24 25  1  0
 24 26  1  0
 19 27  1  0
 27 28  1  6
 27 29  1  0
 29 30  1  0
 30 31  1  0
 31 32  1  6
  7  5  1  0
 31 10  1  0
 31 13  1  0
 27 15  1  0
 24 18  1  0
  1 33  1  0
  1 34  1  0
  1 35  1  0
  2 36  1  6
  3 37  1  0
  3 38  1  0
  4 39  1  0
  4 40  1  0
  5 41  1  6
  8 42  1  0
  8 43  1  0
  8 44  1  0
  9 45  1  0
  9 46  1  0
  9 47  1  0
 10 48  1  1
 11 49  1  0
 11 50  1  0
 12 51  1  0
 12 52  1  0
 14 53  1  0
 14 54  1  0
 14 55  1  0
 15 56  1  6
 16 57  1  0
 16 58  1  0
 17 59  1  0
 19 60  1  1
 20 61  1  0
 20 62  1  0
 21 63  1  0
 21 64  1  0
 22 65  1  1
 23 66  1  0
 25 67  1  0
 25 68  1  0
 25 69  1  0
 26 70  1  0
 26 71  1  0
 26 72  1  0
 28 73  1  0
 28 74  1  0
 28 75  1  0
 29 76  1  0
 29 77  1  0
 30 78  1  0
 30 79  1  0
 32 80  1  0
 32 81  1  0
 32 82  1  0
M  END
>  <meeko>  (5) 
{"is_sidechain": [false], "intermolecular_energy": 2.731, "internal_energy": -0.839}

$$$$
EPH_relaxed_0001_pdb2pqr_Repair_234_r2_0001_out
     RDKit          3D

 82 86  0  0  0  0  0  0  0  0999 V2000
   -5.1120    5.9320   -1.7120 C   0  0  0  0  0  0  0  0  0  0  0  0
   -5.4330    7.4280   -1.7770 C   0  0  2  0  0  0  0  0  0  0  0  0
   -5.2170    8.1270   -0.4200 C   0  0  0  0  0  0  0  0  0  0  0  0
   -4.1550    9.2290   -0.4570 C   0  0  0  0  0  0  0  0  0  0  0  0
   -2.7890    8.6740   -0.7280 C   0  0  2  0  0  0  0  0  0  0  0  0
   -1.7870    9.0600    0.2220 O   0  0  0  0  0  0  0  0  0  0  0  0
   -1.6010    9.5310   -1.1220 C   0  0  0  0  0  0  0  0  0  0  0  0
   -1.7240   11.0160   -1.2690 C   0  0  0  0  0  0  0  0  0  0  0  0
   -0.4560    8.8820   -1.8350 C   0  0  0  0  0  0  0  0  0  0  0  0
   -6.8690    7.6310   -2.2440 C   0  0  1  0  0  0  0  0  0  0  0  0
   -7.1650    6.9220   -3.5930 C   0  0  0  0  0  0  0  0  0  0  0  0
   -8.6330    6.4290   -3.5260 C   0  0  0  0  0  0  0  0  0  0  0  0
   -9.2320    7.1520   -2.2970 C   0  0  1  0  0  0  0  0  0  0  0  0
   -9.6010    8.5790   -2.8110 C   0  0  0  0  0  0  0  0  0  0  0  0
  -10.4500    6.4530   -1.6100 C   0  0  2  0  0  0  0  0  0  0  0  0
  -11.7010    6.3040   -2.4940 C   0  0  0  0  0  0  0  0  0  0  0  0
  -12.6700    7.4370   -2.4230 C   0  0  0  0  0  0  0  0  0  0  0  0
  -12.6880    8.3930   -1.4760 C   0  0  0  0  0  0  0  0  0  0  0  0
  -11.7250    8.3380   -0.2830 C   0  0  1  0  0  0  0  0  0  0  0  0
  -12.5070    8.6170    1.0270 C   0  0  0  0  0  0  0  0  0  0  0  0
  -13.2940    9.9230    0.9730 C   0  0  0  0  0  0  0  0  0  0  0  0
  -14.2820    9.9160   -0.1910 C   0  0  2  0  0  0  0  0  0  0  0  0
  -15.2870    8.9290    0.0630 O   0  0  0  0  0  0  0  0  0  0  0  0
  -13.6100    9.6350   -1.5640 C   0  0  0  0  0  0  0  0  0  0  0  0
  -12.7470   10.8520   -1.9800 C   0  0  0  0  0  0  0  0  0  0  0  0
  -14.7320    9.5140   -2.6300 C   0  0  0  0  0  0  0  0  0  0  0  0
  -10.8150    7.0390   -0.1860 C   0  0  1  0  0  0  0  0  0  0  0  0
  -11.5760    5.9120    0.5780 C   0  0  0  0  0  0  0  0  0  0  0  0
   -9.5360    7.3700    0.6710 C   0  0  0  0  0  0  0  0  0  0  0  0
   -8.3240    7.9470   -0.0850 C   0  0  0  0  0  0  0  0  0  0  0  0
   -7.9990    7.1060   -1.3230 C   0  0  2  0  0  0  0  0  0  0  0  0
   -7.6020    5.6700   -0.8360 C   0  0  0  0  0  0  0  0  0  0  0  0
   -5.0444    5.6169   -0.6603 H   0  0  0  0  0  0  0  0  0  0  0  0
   -5.9087    5.3639   -2.2145 H   0  0  0  0  0  0  0  0  0  0  0  0
   -4.1524    5.7407   -2.2145 H   0  0  0  0  0  0  0  0  0  0  0  0
   -4.7392    7.8847   -2.4982 H   0  0  0  0  0  0  0  0  0  0  0  0
   -6.1709    8.5746   -0.1043 H   0  0  0  0  0  0  0  0  0  0  0  0
   -4.8598    7.3601    0.2831 H   0  0  0  0  0  0  0  0  0  0  0  0
   -4.4125    9.9457   -1.2508 H   0  0  0  0  0  0  0  0  0  0  0  0
   -4.1364    9.7204    0.5270 H   0  0  0  0  0  0  0  0  0  0  0  0
   -3.2206    7.7635   -1.1692 H   0  0  0  0  0  0  0  0  0  0  0  0
   -1.7625   11.4811   -0.2729 H   0  0  0  0  0  0  0  0  0  0  0  0
   -0.8548   11.4031   -1.8210 H   0  0  0  0  0  0  0  0  0  0  0  0
   -2.6450   11.2548   -1.8210 H   0  0  0  0  0  0  0  0  0  0  0  0
    0.2542    8.4794   -1.0978 H   0  0  0  0  0  0  0  0  0  0  0  0
   -0.8333    8.0635   -2.4656 H   0  0  0  0  0  0  0  0  0  0  0  0
    0.0525    9.6262   -2.4656 H   0  0  0  0  0  0  0  0  0  0  0  0
   -6.8957    8.7300   -2.2818 H   0  0  0  0  0  0  0  0  0  0  0  0
   -7.0401    7.6278   -4.4274 H   0  0  0  0  0  0  0  0  0  0  0  0
   -6.4735    6.0827   -3.7583 H   0  0  0  0  0  0  0  0  0  0  0  0
   -9.1771    6.7040   -4.4416 H   0  0  0  0  0  0  0  0  0  0  0  0
   -8.7018    5.3345   -3.4405 H   0  0  0  0  0  0  0  0  0  0  0  0
   -9.7732    9.2448   -1.9525 H   0  0  0  0  0  0  0  0  0  0  0  0
   -8.7754    8.9737   -3.4214 H   0  0  0  0  0  0  0  0  0  0  0  0
  -10.5145    8.5240   -3.4214 H   0  0  0  0  0  0  0  0  0  0  0  0
  -10.0752    5.4315   -1.4484 H   0  0  0  0  0  0  0  0  0  0  0  0
  -11.3696    6.2050   -3.5382 H   0  0  0  0  0  0  0  0  0  0  0  0
  -12.2371    5.4208   -2.1165 H   0  0  0  0  0  0  0  0  0  0  0  0
  -13.4344    7.4956   -3.2118 H   0  0  0  0  0  0  0  0  0  0  0  0
  -10.9851    9.1342   -0.4524 H   0  0  0  0  0  0  0  0  0  0  0  0
  -13.2099    7.7889    1.2010 H   0  0  0  0  0  0  0  0  0  0  0  0
  -11.7728    8.7036    1.8416 H   0  0  0  0  0  0  0  0  0  0  0  0
  -13.8480   10.0488    1.9149 H   0  0  0  0  0  0  0  0  0  0  0  0
  -12.5872   10.7535    0.8291 H   0  0  0  0  0  0  0  0  0  0  0  0
  -14.7207   10.9226   -0.2566 H   0  0  0  0  0  0  0  0  0  0  0  0
  -14.8390    8.0720    0.1610 H   0  0  0  0  0  0  0  0  0  0  0  0
  -12.3816   11.3673   -1.0795 H   0  0  0  0  0  0  0  0  0  0  0  0
  -11.8906   10.5070   -2.5780 H   0  0  0  0  0  0  0  0  0  0  0  0
  -13.3559   11.5460   -2.5780 H   0  0  0  0  0  0  0  0  0  0  0  0
  -15.7051    9.4091   -2.1279 H   0  0  0  0  0  0  0  0  0  0  0  0
  -14.7393   10.4166   -3.2587 H   0  0  0  0  0  0  0  0  0  0  0  0
  -14.5467    8.6306   -3.2587 H   0  0  0  0  0  0  0  0  0  0  0  0
  -11.4706    6.0681    1.6618 H   0  0  0  0  0  0  0  0  0  0  0  0
  -12.6414    5.9392    0.3055 H   0  0  0  0  0  0  0  0  0  0  0  0
  -11.1527    4.9340    0.3055 H   0  0  0  0  0  0  0  0  0  0  0  0
   -9.8294    8.1022    1.4377 H   0  0  0  0  0  0  0  0  0  0  0  0
   -9.1950    6.4014    1.0654 H   0  0  0  0  0  0  0  0  0  0  0  0
   -8.5524    8.9762   -0.3990 H   0  0  0  0  0  0  0  0  0  0  0  0
   -7.4529    7.9337    0.5866 H   0  0  0  0  0  0  0  0  0  0  0  0
   -7.5950    5.6447    0.2637 H   0  0  0  0  0  0  0  0  0  0  0  0
   -8.3319    4.9395   -1.2150 H   0  0  0  0  0  0  0  0  0  0  0  0
   -6.6005    5.4181   -1.2150 H   0  0  0  0  0  0  0  0  0  0  0  0
  1  2  1  0
  2  3  1  0
  3  4  1  0
  4  5  1  0
  5  6  1  0
  6  7  1  0
  7  8  1  0
  7  9  1  0
  2 10  1  0
 10 11  1  0
 11 12  1  0
 12 13  1  0
 13 14  1  6
 13 15  1  0
 15 16  1  0
 16 17  1  0
 17 18  2  0
 18 19  1  0
 19 20  1  0
 20 21  1  0
 21 22  1  0
 22 23  1  0
 22 24  1  0
 24 25  1  0
 24 26  1  0
 19 27  1  0
 27 28  1  1
 27 29  1  0
 29 30  1  0
 30 31  1  0
 31 32  1  1
  7  5  1  0
 31 10  1  0
 31 13  1  0
 27 15  1  0
 24 18  1  0
  1 33  1  0
  1 34  1  0
  1 35  1  0
  2 36  1  6
  3 37  1  0
  3 38  1  0
  4 39  1  0
  4 40  1  0
  5 41  1  6
  8 42  1  0
  8 43  1  0
  8 44  1  0
  9 45  1  0
  9 46  1  0
  9 47  1  0
 10 48  1  6
 11 49  1  0
 11 50  1  0
 12 51  1  0
 12 52  1  0
 14 53  1  0
 14 54  1  0
 14 55  1  0
 15 56  1  1
 16 57  1  0
 16 58  1  0
 17 59  1  0
 19 60  1  6
 20 61  1  0
 20 62  1  0
 21 63  1  0
 21 64  1  0
 22 65  1  6
 23 66  1  0
 25 67  1  0
 25 68  1  0
 25 69  1  0
 26 70  1  0
 26 71  1  0
 26 72  1  0
 28 73  1  0
 28 74  1  0
 28 75  1  0
 29 76  1  0
 29 77  1  0
 30 78  1  0
 30 79  1  0
 32 80  1  0
 32 81  1  0
 32 82  1  0
M  END
>  <meeko>  (6) 
{"is_sidechain": [false], "intermolecular_energy": 2.731, "internal_energy": -0.839}

$$$$
EPH_relaxed_0001_pdb2pqr_Repair_234_r2_0001_out
     RDKit          3D

 82 86  0  0  0  0  0  0  0  0999 V2000
    0.4410    8.8650   -2.4820 C   0  0  0  0  0  0  0  0  0  0  0  0
    1.1970   10.0230   -3.1390 C   0  0  2  0  0  0  0  0  0  0  0  0
    2.6910   10.0320   -2.7560 C   0  0  0  0  0  0  0  0  0  0  0  0
    3.6010   10.6160   -3.8410 C   0  0  0  0  0  0  0  0  0  0  0  0
    4.9950   10.8340   -3.3360 C   0  0  2  0  0  0  0  0  0  0  0  0
    5.6080   12.0530   -3.7760 O   0  0  0  0  0  0  0  0  0  0  0  0
    6.2190   10.8350   -4.2330 C   0  0  0  0  0  0  0  0  0  0  0  0
    6.1050   10.6140   -5.7090 C   0  0  0  0  0  0  0  0  0  0  0  0
    7.5570   10.5650   -3.6190 C   0  0  0  0  0  0  0  0  0  0  0  0
    0.5530   11.3500   -2.7560 C   0  0  1  0  0  0  0  0  0  0  0  0
   -0.8220   11.1670   -2.0610 C   0  0  0  0  0  0  0  0  0  0  0  0
   -0.9420   12.2940   -1.0030 C   0  0  0  0  0  0  0  0  0  0  0  0
    0.2030   13.2750   -1.3470 C   0  0  1  0  0  0  0  0  0  0  0  0
   -0.3520   14.1440   -2.5200 C   0  0  0  0  0  0  0  0  0  0  0  0
    0.7310   14.1610   -0.1720 C   0  0  2  0  0  0  0  0  0  0  0  0
   -0.3030   15.1270    0.4330 C   0  0  0  0  0  0  0  0  0  0  0  0
   -0.3530   16.4810   -0.1940 C   0  0  0  0  0  0  0  0  0  0  0  0
    0.5850   17.0030   -1.0050 C   0  0  0  0  0  0  0  0  0  0  0  0
    1.8890   16.2470   -1.2890 C   0  0  1  0  0  0  0  0  0  0  0  0
    3.0910   17.2180   -1.1500 C   0  0  0  0  0  0  0  0  0  0  0  0
    2.9390   18.4650   -2.0150 C   0  0  0  0  0  0  0  0  0  0  0  0
    1.6610   19.2210   -1.6630 C   0  0  2  0  0  0  0  0  0  0  0  0
    1.7860   19.7460   -0.3370 O   0  0  0  0  0  0  0  0  0  0  0  0
    0.3830   18.3410   -1.7580 C   0  0  0  0  0  0  0  0  0  0  0  0
    0.0800   18.0220   -3.2430 C   0  0  0  0  0  0  0  0  0  0  0  0
   -0.8160   19.1820   -1.2420 C   0  0  0  0  0  0  0  0  0  0  0  0
    2.0990   14.8960   -0.4790 C   0  0  1  0  0  0  0  0  0  0  0  0
    2.7590   15.2010    0.9010 C   0  0  0  0  0  0  0  0  0  0  0  0
    3.1100   13.9780   -1.2620 C   0  0  0  0  0  0  0  0  0  0  0  0
    2.5130   13.0390   -2.3280 C   0  0  0  0  0  0  0  0  0  0  0  0
    1.3240   12.2540   -1.7630 C   0  0  2  0  0  0  0  0  0  0  0  0
    1.8560   11.3540   -0.5960 C   0  0  0  0  0  0  0  0  0  0  0  0
    0.5032    8.9603   -1.3879 H   0  0  0  0  0  0  0  0  0  0  0  0
   -0.6138    8.8923   -2.7930 H   0  0  0  0  0  0  0  0  0  0  0  0
    0.8904    7.9104   -2.7930 H   0  0  0  0  0  0  0  0  0  0  0  0
    1.1357    9.8820   -4.2282 H   0  0  0  0  0  0  0  0  0  0  0  0
    2.8116   10.6317   -1.8417 H   0  0  0  0  0  0  0  0  0  0  0  0
    2.9927    8.9839   -2.6131 H   0  0  0  0  0  0  0  0  0  0  0  0
    3.6347    9.9190   -4.6914 H   0  0  0  0  0  0  0  0  0  0  0  0
    3.1902   11.5898   -4.1459 H   0  0  0  0  0  0  0  0  0  0  0  0
    4.7651   10.3004   -2.4019 H   0  0  0  0  0  0  0  0  0  0  0  0
    5.6082    9.6510   -5.8983 H   0  0  0  0  0  0  0  0  0  0  0  0
    5.5133   11.4260   -6.1567 H   0  0  0  0  0  0  0  0  0  0  0  0
    7.1097   10.6026   -6.1567 H   0  0  0  0  0  0  0  0  0  0  0  0
    7.4677   10.5830   -2.5228 H   0  0  0  0  0  0  0  0  0  0  0  0
    7.9156    9.5764   -3.9415 H   0  0  0  0  0  0  0  0  0  0  0  0
    8.2710   11.3372   -3.9415 H   0  0  0  0  0  0  0  0  0  0  0  0
    0.5125   11.8283   -3.7457 H   0  0  0  0  0  0  0  0  0  0  0  0
   -1.6336   11.2520   -2.7987 H   0  0  0  0  0  0  0  0  0  0  0  0
   -0.8984   10.1750   -1.5918 H   0  0  0  0  0  0  0  0  0  0  0  0
   -1.9184   12.7950   -1.0782 H   0  0  0  0  0  0  0  0  0  0  0  0
   -0.8682   11.9106    0.0254 H   0  0  0  0  0  0  0  0  0  0  0  0
   -0.9016   15.0045   -2.1107 H   0  0  0  0  0  0  0  0  0  0  0  0
    0.4843   14.5032   -3.1377 H   0  0  0  0  0  0  0  0  0  0  0  0
   -1.0296   13.5364   -3.1377 H   0  0  0  0  0  0  0  0  0  0  0  0
    0.9371   13.4164    0.6110 H   0  0  0  0  0  0  0  0  0  0  0  0
   -1.2975   14.6681    0.3310 H   0  0  0  0  0  0  0  0  0  0  0  0
    0.0033   15.2861    1.4774 H   0  0  0  0  0  0  0  0  0  0  0  0
   -1.2317   17.1051    0.0259 H   0  0  0  0  0  0  0  0  0  0  0  0
    1.8139   15.8915   -2.3273 H   0  0  0  0  0  0  0  0  0  0  0  0
    3.1747   17.5270   -0.0976 H   0  0  0  0  0  0  0  0  0  0  0  0
    3.9916   16.6848   -1.4884 H   0  0  0  0  0  0  0  0  0  0  0  0
    3.8040   19.1244   -1.8510 H   0  0  0  0  0  0  0  0  0  0  0  0
    2.8849   18.1562   -3.0694 H   0  0  0  0  0  0  0  0  0  0  0  0
    1.5416   20.0285   -2.4004 H   0  0  0  0  0  0  0  0  0  0  0  0
    0.8980   19.7630    0.0570 H   0  0  0  0  0  0  0  0  0  0  0  0
   -0.6765   17.2255   -3.3000 H   0  0  0  0  0  0  0  0  0  0  0  0
   -0.3005   18.9255   -3.7419 H   0  0  0  0  0  0  0  0  0  0  0  0
    1.0019   17.6884   -3.7419 H   0  0  0  0  0  0  0  0  0  0  0  0
   -0.8170   19.1827   -0.1420 H   0  0  0  0  0  0  0  0  0  0  0  0
   -0.7244   20.2148   -1.6092 H   0  0  0  0  0  0  0  0  0  0  0  0
   -1.7560   18.7442   -1.6092 H   0  0  0  0  0  0  0  0  0  0  0  0
    2.0812   14.8878    1.7088 H   0  0  0  0  0  0  0  0  0  0  0  0
    3.7074   14.6498    0.9837 H   0  0  0  0  0  0  0  0  0  0  0  0
    2.9538   16.2804    0.9837 H   0  0  0  0  0  0  0  0  0  0  0  0
    3.8348   14.6348   -1.7653 H   0  0  0  0  0  0  0  0  0  0  0  0
    3.5427   13.3118   -0.5012 H   0  0  0  0  0  0  0  0  0  0  0  0
    2.1738   13.6380   -3.1860 H   0  0  0  0  0  0  0  0  0  0  0  0
    3.2888   12.3244   -2.6403 H   0  0  0  0  0  0  0  0  0  0  0  0
    1.5874   11.8083    0.3691 H   0  0  0  0  0  0  0  0  0  0  0  0
    1.4039   10.3539   -0.6689 H   0  0  0  0  0  0  0  0  0  0  0  0
    2.9502   11.2679   -0.6689 H   0  0  0  0  0  0  0  0  0  0  0  0
  1  2  1  0
  2  3  1  0
  3  4  1  0
  4  5  1  0
  5  6  1  0
  6  7  1  0
  7  8  1  0
  7  9  1  0
  2 10  1  0
 10 11  1  0
 11 12  1  0
 12 13  1  0
 13 14  1  6
 13 15  1  0
 15 16  1  0
 16 17  1  0
 17 18  2  0
 18 19  1  0
 19 20  1  0
 20 21  1  0
 21 22  1  0
 22 23  1  0
 22 24  1  0
 24 25  1  0
 24 26  1  0
 19 27  1  0
 27 28  1  1
 27 29  1  0
 29 30  1  0
 30 31  1  0
 31 32  1  1
  7  5  1  0
 31 10  1  0
 31 13  1  0
 27 15  1  0
 24 18  1  0
  1 33  1  0
  1 34  1  0
  1 35  1  0
  2 36  1  6
  3 37  1  0
  3 38  1  0
  4 39  1  0
  4 40  1  0
  5 41  1  1
  8 42  1  0
  8 43  1  0
  8 44  1  0
  9 45  1  0
  9 46  1  0
  9 47  1  0
 10 48  1  6
 11 49  1  0
 11 50  1  0
 12 51  1  0
 12 52  1  0
 14 53  1  0
 14 54  1  0
 14 55  1  0
 15 56  1  1
 16 57  1  0
 16 58  1  0
 17 59  1  0
 19 60  1  6
 20 61  1  0
 20 62  1  0
 21 63  1  0
 21 64  1  0
 22 65  1  6
 23 66  1  0
 25 67  1  0
 25 68  1  0
 25 69  1  0
 26 70  1  0
 26 71  1  0
 26 72  1  0
 28 73  1  0
 28 74  1  0
 28 75  1  0
 29 76  1  0
 29 77  1  0
 30 78  1  0
 30 79  1  0
 32 80  1  0
 32 81  1  0
 32 82  1  0
M  END
>  <meeko>  (7) 
{"is_sidechain": [false], "intermolecular_energy": 2.731, "internal_energy": -0.839}

$$$$
EPH_relaxed_0001_pdb2pqr_Repair_234_r2_0001_out
     RDKit          3D

 82 86  0  0  0  0  0  0  0  0999 V2000
   -0.2660   10.4820   -3.9220 C   0  0  0  0  0  0  0  0  0  0  0  0
    0.9370   10.3240   -2.9880 C   0  0  2  0  0  0  0  0  0  0  0  0
    0.8940    8.9960   -2.2050 C   0  0  0  0  0  0  0  0  0  0  0  0
   -0.5120    8.5970   -1.7480 C   0  0  0  0  0  0  0  0  0  0  0  0
   -0.7670    8.9980   -0.3270 C   0  0  2  0  0  0  0  0  0  0  0  0
   -2.1490    9.0020    0.0550 O   0  0  0  0  0  0  0  0  0  0  0  0
   -1.4850   10.2760    0.0650 C   0  0  0  0  0  0  0  0  0  0  0  0
   -1.9920   11.2340   -0.9670 C   0  0  0  0  0  0  0  0  0  0  0  0
   -1.2630   10.8290    1.4380 C   0  0  0  0  0  0  0  0  0  0  0  0
    0.9990   11.4980   -2.0180 C   0  0  1  0  0  0  0  0  0  0  0  0
    2.0390   11.2840   -0.8860 C   0  0  0  0  0  0  0  0  0  0  0  0
    2.6470   12.6740   -0.5680 C   0  0  0  0  0  0  0  0  0  0  0  0
    1.7140   13.6800   -1.2810 C   0  0  1  0  0  0  0  0  0  0  0  0
    0.4990   13.8520   -0.3180 C   0  0  0  0  0  0  0  0  0  0  0  0
    2.3480   15.0580   -1.6630 C   0  0  2  0  0  0  0  0  0  0  0  0
    2.8310   15.9060   -0.4740 C   0  0  0  0  0  0  0  0  0  0  0  0
    1.8190   16.8460    0.0920 C   0  0  0  0  0  0  0  0  0  0  0  0
    0.6700   17.2110   -0.5060 C   0  0  0  0  0  0  0  0  0  0  0  0
    0.3380   16.7410   -1.9280 C   0  0  1  0  0  0  0  0  0  0  0  0
   -0.1670   17.9430   -2.7670 C   0  0  0  0  0  0  0  0  0  0  0  0
   -1.3340   18.6700   -2.1060 C   0  0  0  0  0  0  0  0  0  0  0  0
   -0.9470   19.1730   -0.7180 C   0  0  2  0  0  0  0  0  0  0  0  0
    0.0460   20.1940   -0.8580 O   0  0  0  0  0  0  0  0  0  0  0  0
   -0.4140   18.0500    0.2150 C   0  0  0  0  0  0  0  0  0  0  0  0
   -1.5760   17.1060    0.6100 C   0  0  0  0  0  0  0  0  0  0  0  0
    0.0730   18.7140    1.5310 C   0  0  0  0  0  0  0  0  0  0  0  0
    1.4760   15.9150   -2.6690 C   0  0  1  0  0  0  0  0  0  0  0  0
    2.4570   16.8890   -3.3890 C   0  0  0  0  0  0  0  0  0  0  0  0
    0.8210   15.0320   -3.7950 C   0  0  0  0  0  0  0  0  0  0  0  0
    0.3230   13.6340   -3.3810 C   0  0  0  0  0  0  0  0  0  0  0  0
    1.4000   12.8790   -2.5960 C   0  0  2  0  0  0  0  0  0  0  0  0
    2.6270   12.6710   -3.5470 C   0  0  0  0  0  0  0  0  0  0  0  0
   -1.1813   10.6022   -3.3239 H   0  0  0  0  0  0  0  0  0  0  0  0
   -0.1235   11.3691   -4.5566 H   0  0  0  0  0  0  0  0  0  0  0  0
   -0.3574    9.5881   -4.5566 H   0  0  0  0  0  0  0  0  0  0  0  0
    1.8418   10.3095   -3.6133 H   0  0  0  0  0  0  0  0  0  0  0  0
    1.2885    8.1984   -2.8517 H   0  0  0  0  0  0  0  0  0  0  0  0
    1.4992    9.1378   -1.2975 H   0  0  0  0  0  0  0  0  0  0  0  0
   -1.2511    9.0908   -2.3960 H   0  0  0  0  0  0  0  0  0  0  0  0
   -0.5972    7.5024   -1.8162 H   0  0  0  0  0  0  0  0  0  0  0  0
    0.1906    8.5616   -0.0068 H   0  0  0  0  0  0  0  0  0  0  0  0
   -2.4507   12.1008   -0.4687 H   0  0  0  0  0  0  0  0  0  0  0  0
   -1.1551   11.5728   -1.5954 H   0  0  0  0  0  0  0  0  0  0  0  0
   -2.7428   10.7326   -1.5954 H   0  0  0  0  0  0  0  0  0  0  0  0
   -1.5630   10.0816    2.1872 H   0  0  0  0  0  0  0  0  0  0  0  0
   -0.1979   11.0713    1.5679 H   0  0  0  0  0  0  0  0  0  0  0  0
   -1.8649   11.7405    1.5679 H   0  0  0  0  0  0  0  0  0  0  0  0
   -0.0499   11.5182   -1.6873 H   0  0  0  0  0  0  0  0  0  0  0  0
    1.5469   10.8725    0.0076 H   0  0  0  0  0  0  0  0  0  0  0  0
    2.8193   10.5734   -1.1960 H   0  0  0  0  0  0  0  0  0  0  0  0
    2.6564   12.8548    0.5170 H   0  0  0  0  0  0  0  0  0  0  0  0
    3.6901   12.7604   -0.9063 H   0  0  0  0  0  0  0  0  0  0  0  0
    0.8473   13.8027    0.7242 H   0  0  0  0  0  0  0  0  0  0  0  0
    0.0223   14.8266   -0.4996 H   0  0  0  0  0  0  0  0  0  0  0  0
   -0.2295   13.0480   -0.4996 H   0  0  0  0  0  0  0  0  0  0  0  0
    3.2577   14.7582   -2.2039 H   0  0  0  0  0  0  0  0  0  0  0  0
    3.1438   15.2205    0.3274 H   0  0  0  0  0  0  0  0  0  0  0  0
    3.6472   16.5343   -0.8602 H   0  0  0  0  0  0  0  0  0  0  0  0
    2.0303   17.2769    1.0818 H   0  0  0  0  0  0  0  0  0  0  0  0
   -0.4652   15.9970   -1.8216 H   0  0  0  0  0  0  0  0  0  0  0  0
    0.6620   18.6539   -2.8987 H   0  0  0  0  0  0  0  0  0  0  0  0
   -0.5218   17.5508   -3.7315 H   0  0  0  0  0  0  0  0  0  0  0  0
   -1.6250   19.5269   -2.7313 H   0  0  0  0  0  0  0  0  0  0  0  0
   -2.1733   17.9664   -2.0033 H   0  0  0  0  0  0  0  0  0  0  0  0
   -1.8583   19.5671   -0.2445 H   0  0  0  0  0  0  0  0  0  0  0  0
    0.5470   20.2340   -0.0260 H   0  0  0  0  0  0  0  0  0  0  0  0
   -1.6458   17.0493    1.7063 H   0  0  0  0  0  0  0  0  0  0  0  0
   -2.5202   17.4961    0.2022 H   0  0  0  0  0  0  0  0  0  0  0  0
   -1.3875   16.1019    0.2022 H   0  0  0  0  0  0  0  0  0  0  0  0
   -0.3319   18.1619    2.3919 H   0  0  0  0  0  0  0  0  0  0  0  0
    1.1722   18.6941    1.5668 H   0  0  0  0  0  0  0  0  0  0  0  0
   -0.2762   19.7565    1.5668 H   0  0  0  0  0  0  0  0  0  0  0  0
    3.0277   17.4557   -2.6386 H   0  0  0  0  0  0  0  0  0  0  0  0
    3.1506   16.3120   -4.0183 H   0  0  0  0  0  0  0  0  0  0  0  0
    1.8850   17.5867   -4.0183 H   0  0  0  0  0  0  0  0  0  0  0  0
   -0.0406   15.5873   -4.1941 H   0  0  0  0  0  0  0  0  0  0  0  0
    1.6269   14.8469   -4.5204 H   0  0  0  0  0  0  0  0  0  0  0  0
   -0.5720   13.7428   -2.7508 H   0  0  0  0  0  0  0  0  0  0  0  0
    0.0861   13.0624   -4.2904 H   0  0  0  0  0  0  0  0  0  0  0  0
    3.5351   12.5171   -2.9456 H   0  0  0  0  0  0  0  0  0  0  0  0
    2.4537   11.7894   -4.1817 H   0  0  0  0  0  0  0  0  0  0  0  0
    2.7539   13.5604   -4.1817 H   0  0  0  0  0  0  0  0  0  0  0  0
  1  2  1  0
  2  3  1  0
  3  4  1  0
  4  5  1  0
  5  6  1  0
  6  7  1  0
  7  8  1  0
  7  9  1  0
  2 10  1  0
 10 11  1  0
 11 12  1  0
 12 13  1  0
 13 14  1  1
 13 15  1  0
 15 16  1  0
 16 17  1  0
 17 18  2  0
 18 19  1  0
 19 20  1  0
 20 21  1  0
 21 22  1  0
 22 23  1  0
 22 24  1  0
 24 25  1  0
 24 26  1  0
 19 27  1  0
 27 28  1  6
 27 29  1  0
 29 30  1  0
 30 31  1  0
 31 32  1  6
  7  5  1  0
 31 10  1  0
 31 13  1  0
 27 15  1  0
 24 18  1  0
  1 33  1  0
  1 34  1  0
  1 35  1  0
  2 36  1  6
  3 37  1  0
  3 38  1  0
  4 39  1  0
  4 40  1  0
  5 41  1  1
  8 42  1  0
  8 43  1  0
  8 44  1  0
  9 45  1  0
  9 46  1  0
  9 47  1  0
 10 48  1  1
 11 49  1  0
 11 50  1  0
 12 51  1  0
 12 52  1  0
 14 53  1  0
 14 54  1  0
 14 55  1  0
 15 56  1  6
 16 57  1  0
 16 58  1  0
 17 59  1  0
 19 60  1  1
 20 61  1  0
 20 62  1  0
 21 63  1  0
 21 64  1  0
 22 65  1  1
 23 66  1  0
 25 67  1  0
 25 68  1  0
 25 69  1  0
 26 70  1  0
 26 71  1  0
 26 72  1  0
 28 73  1  0
 28 74  1  0
 28 75  1  0
 29 76  1  0
 29 77  1  0
 30 78  1  0
 30 79  1  0
 32 80  1  0
 32 81  1  0
 32 82  1  0
M  END
>  <meeko>  (8) 
{"is_sidechain": [false], "intermolecular_energy": 2.731, "internal_energy": -0.839}

$$$$
EPH_relaxed_0001_pdb2pqr_Repair_234_r2_0001_out
     RDKit          3D

 82 86  0  0  0  0  0  0  0  0999 V2000
    0.1030   17.7390   -2.5390 C   0  0  0  0  0  0  0  0  0  0  0  0
   -0.1330   16.8490   -1.3160 C   0  0  2  0  0  0  0  0  0  0  0  0
   -0.1840   17.6630   -0.0070 C   0  0  0  0  0  0  0  0  0  0  0  0
    0.4330   19.0590   -0.1260 C   0  0  0  0  0  0  0  0  0  0  0  0
    1.5880   19.2350    0.8130 C   0  0  2  0  0  0  0  0  0  0  0  0
    2.5660   20.1930    0.3860 O   0  0  0  0  0  0  0  0  0  0  0  0
    3.0110   18.8300    0.4740 C   0  0  0  0  0  0  0  0  0  0  0  0
    3.3540   18.2150   -0.8460 C   0  0  0  0  0  0  0  0  0  0  0  0
    3.9700   18.5810    1.5960 C   0  0  0  0  0  0  0  0  0  0  0  0
    0.9580   15.7880   -1.2270 C   0  0  1  0  0  0  0  0  0  0  0  0
    1.1610   15.2600    0.2180 C   0  0  0  0  0  0  0  0  0  0  0  0
    1.5230   13.7570    0.0980 C   0  0  0  0  0  0  0  0  0  0  0  0
    1.8400   13.5500   -1.4020 C   0  0  1  0  0  0  0  0  0  0  0  0
    3.3090   14.0470   -1.5730 C   0  0  0  0  0  0  0  0  0  0  0  0
    1.6520   12.1000   -1.9540 C   0  0  2  0  0  0  0  0  0  0  0  0
    2.5640   11.0360   -1.3180 C   0  0  0  0  0  0  0  0  0  0  0  0
    3.8740   10.8270   -2.0030 C   0  0  0  0  0  0  0  0  0  0  0  0
    4.1860   11.2540   -3.2410 C   0  0  0  0  0  0  0  0  0  0  0  0
    3.1380   11.9430   -4.1240 C   0  0  1  0  0  0  0  0  0  0  0  0
    3.1840   11.3380   -5.5510 C   0  0  0  0  0  0  0  0  0  0  0  0
    4.5820   11.3830   -6.1610 C   0  0  0  0  0  0  0  0  0  0  0  0
    5.5850   10.6380   -5.2830 C   0  0  2  0  0  0  0  0  0  0  0  0
    5.2600    9.2450   -5.2940 O   0  0  0  0  0  0  0  0  0  0  0  0
    5.6200   11.1550   -3.8180 C   0  0  0  0  0  0  0  0  0  0  0  0
    6.2580   12.5660   -3.7790 C   0  0  0  0  0  0  0  0  0  0  0  0
    6.5650   10.2290   -3.0070 C   0  0  0  0  0  0  0  0  0  0  0  0
    1.6630   12.0010   -3.5330 C   0  0  1  0  0  0  0  0  0  0  0  0
    0.8910   10.6980   -3.9030 C   0  0  0  0  0  0  0  0  0  0  0  0
    0.8840   13.1880   -4.2130 C   0  0  0  0  0  0  0  0  0  0  0  0
    1.0130   14.5730   -3.5510 C   0  0  0  0  0  0  0  0  0  0  0  0
    0.7530   14.4870   -2.0440 C   0  0  2  0  0  0  0  0  0  0  0  0
   -0.7260   14.0120   -1.8400 C   0  0  0  0  0  0  0  0  0  0  0  0
    0.3719   18.7530   -2.2082 H   0  0  0  0  0  0  0  0  0  0  0  0
    0.9215   17.3215   -3.1438 H   0  0  0  0  0  0  0  0  0  0  0  0
   -0.8148   17.7819   -3.1438 H   0  0  0  0  0  0  0  0  0  0  0  0
   -1.1128   16.3652   -1.4427 H   0  0  0  0  0  0  0  0  0  0  0  0
   -1.2366   17.7730    0.2928 H   0  0  0  0  0  0  0  0  0  0  0  0
    0.4091   17.1118    0.7376 H   0  0  0  0  0  0  0  0  0  0  0  0
    0.7861   19.2063   -1.1573 H   0  0  0  0  0  0  0  0  0  0  0  0
   -0.3380   19.7988    0.1354 H   0  0  0  0  0  0  0  0  0  0  0  0
    0.9464   19.0205    1.6804 H   0  0  0  0  0  0  0  0  0  0  0  0
    3.8838   17.2651   -0.6814 H   0  0  0  0  0  0  0  0  0  0  0  0
    2.4308   18.0264   -1.4136 H   0  0  0  0  0  0  0  0  0  0  0  0
    3.9996   18.9013   -1.4136 H   0  0  0  0  0  0  0  0  0  0  0  0
    3.4525   18.7154    2.5573 H   0  0  0  0  0  0  0  0  0  0  0  0
    4.3554   17.5530    1.5276 H   0  0  0  0  0  0  0  0  0  0  0  0
    4.8068   19.2916    1.5276 H   0  0  0  0  0  0  0  0  0  0  0  0
    1.8048   16.3592   -1.6352 H   0  0  0  0  0  0  0  0  0  0  0  0
    1.9777   15.8082    0.7104 H   0  0  0  0  0  0  0  0  0  0  0  0
    0.2520   15.4005    0.8213 H   0  0  0  0  0  0  0  0  0  0  0  0
    2.4006   13.5184    0.7168 H   0  0  0  0  0  0  0  0  0  0  0  0
    0.7099   13.1032    0.4464 H   0  0  0  0  0  0  0  0  0  0  0  0
    3.7619   14.2002   -0.5823 H   0  0  0  0  0  0  0  0  0  0  0  0
    3.8882   13.2948   -2.1286 H   0  0  0  0  0  0  0  0  0  0  0  0
    3.3126   14.9964   -2.1286 H   0  0  0  0  0  0  0  0  0  0  0  0
    0.6315   11.8536   -1.6257 H   0  0  0  0  0  0  0  0  0  0  0  0
    2.7676   11.3391   -0.2804 H   0  0  0  0  0  0  0  0  0  0  0  0
    2.0221   10.0823   -1.4001 H   0  0  0  0  0  0  0  0  0  0  0  0
    4.6498   10.2777   -1.4494 H   0  0  0  0  0  0  0  0  0  0  0  0
    3.4221   13.0051   -4.1598 H   0  0  0  0  0  0  0  0  0  0  0  0
    2.8550   10.2896   -5.5002 H   0  0  0  0  0  0  0  0  0  0  0  0
    2.5213   11.9398   -6.1903 H   0  0  0  0  0  0  0  0  0  0  0  0
    4.5560   10.9138   -7.1556 H   0  0  0  0  0  0  0  0  0  0  0  0
    4.8970   12.4340   -6.2396 H   0  0  0  0  0  0  0  0  0  0  0  0
    6.5865   10.8162   -5.7016 H   0  0  0  0  0  0  0  0  0  0  0  0
    5.5890    8.8590   -4.4650 H   0  0  0  0  0  0  0  0  0  0  0  0
    6.3983   12.8762   -2.7330 H   0  0  0  0  0  0  0  0  0  0  0  0
    7.2328   12.5419   -4.2881 H   0  0  0  0  0  0  0  0  0  0  0  0
    5.5960   13.2819   -4.2881 H   0  0  0  0  0  0  0  0  0  0  0  0
    6.4012   10.3895   -1.9312 H   0  0  0  0  0  0  0  0  0  0  0  0
    6.3532    9.1790   -3.2575 H   0  0  0  0  0  0  0  0  0  0  0  0
    7.6104   10.4620   -3.2575 H   0  0  0  0  0  0  0  0  0  0  0  0
    0.5840   10.1798   -2.9826 H   0  0  0  0  0  0  0  0  0  0  0  0
   -0.0005   10.9552   -4.4937 H   0  0  0  0  0  0  0  0  0  0  0  0
    1.5449   10.0396   -4.4937 H   0  0  0  0  0  0  0  0  0  0  0  0
    1.2502   13.2777   -5.2464 H   0  0  0  0  0  0  0  0  0  0  0  0
   -0.1799   12.9235   -4.1223 H   0  0  0  0  0  0  0  0  0  0  0  0
    2.0292   14.9590   -3.7193 H   0  0  0  0  0  0  0  0  0  0  0  0
    0.2664   15.2461   -3.9978 H   0  0  0  0  0  0  0  0  0  0  0  0
   -0.9436   13.9421   -0.7640 H   0  0  0  0  0  0  0  0  0  0  0  0
   -1.4111   14.7353   -2.3064 H   0  0  0  0  0  0  0  0  0  0  0  0
   -0.8618   13.0251   -2.3064 H   0  0  0  0  0  0  0  0  0  0  0  0
  1  2  1  0
  2  3  1  0
  3  4  1  0
  4  5  1  0
  5  6  1  0
  6  7  1  0
  7  8  1  0
  7  9  1  0
  2 10  1  0
 10 11  1  0
 11 12  1  0
 12 13  1  0
 13 14  1  1
 13 15  1  0
 15 16  1  0
 16 17  1  0
 17 18  2  0
 18 19  1  0
 19 20  1  0
 20 21  1  0
 21 22  1  0
 22 23  1  0
 22 24  1  0
 24 25  1  0
 24 26  1  0
 19 27  1  0
 27 28  1  1
 27 29  1  0
 29 30  1  0
 30 31  1  0
 31 32  1  6
  7  5  1  0
 31 10  1  0
 31 13  1  0
 27 15  1  0
 24 18  1  0
  1 33  1  0
  1 34  1  0
  1 35  1  0
  2 36  1  6
  3 37  1  0
  3 38  1  0
  4 39  1  0
  4 40  1  0
  5 41  1  1
  8 42  1  0
  8 43  1  0
  8 44  1  0
  9 45  1  0
  9 46  1  0
  9 47  1  0
 10 48  1  6
 11 49  1  0
 11 50  1  0
 12 51  1  0
 12 52  1  0
 14 53  1  0
 14 54  1  0
 14 55  1  0
 15 56  1  1
 16 57  1  0
 16 58  1  0
 17 59  1  0
 19 60  1  6
 20 61  1  0
 20 62  1  0
 21 63  1  0
 21 64  1  0
 22 65  1  6
 23 66  1  0
 25 67  1  0
 25 68  1  0
 25 69  1  0
 26 70  1  0
 26 71  1  0
 26 72  1  0
 28 73  1  0
 28 74  1  0
 28 75  1  0
 29 76  1  0
 29 77  1  0
 30 78  1  0
 30 79  1  0
 32 80  1  0
 32 81  1  0
 32 82  1  0
M  END
>  <meeko>  (9) 
{"is_sidechain": [false], "intermolecular_energy": 2.731, "internal_energy": -0.839}

$$$$
EPH_relaxed_0001_pdb2pqr_Repair_234_r2_0001_out
     RDKit          3D

 82 86  0  0  0  0  0  0  0  0999 V2000
   -3.7050    7.1830   -3.4340 C   0  0  0  0  0  0  0  0  0  0  0  0
   -3.7350    7.2590   -1.9050 C   0  0  2  0  0  0  0  0  0  0  0  0
   -5.1500    7.0270   -1.3400 C   0  0  0  0  0  0  0  0  0  0  0  0
   -6.2670    7.2630   -2.3600 C   0  0  0  0  0  0  0  0  0  0  0  0
   -7.5910    7.4840   -1.6930 C   0  0  2  0  0  0  0  0  0  0  0  0
   -8.1790    6.3060   -1.1260 O   0  0  0  0  0  0  0  0  0  0  0  0
   -8.8960    6.9120   -2.2140 C   0  0  0  0  0  0  0  0  0  0  0  0
   -8.9410    6.0760   -3.4540 C   0  0  0  0  0  0  0  0  0  0  0  0
  -10.1780    7.5650   -1.8010 C   0  0  0  0  0  0  0  0  0  0  0  0
   -3.2030    8.6100   -1.4410 C   0  0  1  0  0  0  0  0  0  0  0  0
   -3.8310    9.0700   -0.0980 C   0  0  0  0  0  0  0  0  0  0  0  0
   -2.7250    9.8330    0.6750 C   0  0  0  0  0  0  0  0  0  0  0  0
   -1.6140   10.0750   -0.3730 C   0  0  1  0  0  0  0  0  0  0  0  0
   -2.0880   11.3250   -1.1790 C   0  0  0  0  0  0  0  0  0  0  0  0
   -0.1660   10.2650    0.1870 C   0  0  2  0  0  0  0  0  0  0  0  0
    0.0250   11.4900    1.0990 C   0  0  0  0  0  0  0  0  0  0  0  0
    0.4320   12.7460    0.4020 C   0  0  0  0  0  0  0  0  0  0  0  0
    0.9110   12.8240   -0.8530 C   0  0  0  0  0  0  0  0  0  0  0  0
    1.1770   11.5560   -1.6750 C   0  0  1  0  0  0  0  0  0  0  0  0
    2.5700   11.6600   -2.3500 C   0  0  0  0  0  0  0  0  0  0  0  0
    2.7280   12.9340   -3.1750 C   0  0  0  0  0  0  0  0  0  0  0  0
    2.5130   14.1730   -2.3100 C   0  0  2  0  0  0  0  0  0  0  0  0
    3.5750   14.2590   -1.3550 O   0  0  0  0  0  0  0  0  0  0  0  0
    1.1450   14.1760   -1.5720 C   0  0  0  0  0  0  0  0  0  0  0  0
    0.0020   14.3870   -2.5950 C   0  0  0  0  0  0  0  0  0  0  0  0
    1.1150   15.4080   -0.6270 C   0  0  0  0  0  0  0  0  0  0  0  0
    0.9700   10.1790   -0.9110 C   0  0  1  0  0  0  0  0  0  0  0  0
    2.2810    9.7820   -0.1650 C   0  0  0  0  0  0  0  0  0  0  0  0
    0.6970    9.0420   -1.9650 C   0  0  0  0  0  0  0  0  0  0  0  0
   -0.7680    8.8230   -2.3890 C   0  0  0  0  0  0  0  0  0  0  0  0
   -1.6830    8.7190   -1.1650 C   0  0  2  0  0  0  0  0  0  0  0  0
   -1.2430    7.4580   -0.3450 C   0  0  0  0  0  0  0  0  0  0  0  0
   -3.3176    6.2015   -3.7448 H   0  0  0  0  0  0  0  0  0  0  0  0
   -4.7234    7.3167   -3.8278 H   0  0  0  0  0  0  0  0  0  0  0  0
   -3.0525    7.9762   -3.8278 H   0  0  0  0  0  0  0  0  0  0  0  0
   -3.0907    6.4545   -1.5209 H   0  0  0  0  0  0  0  0  0  0  0  0
   -5.2166    5.9874   -0.9866 H   0  0  0  0  0  0  0  0  0  0  0  0
   -5.2958    7.7563   -0.5296 H   0  0  0  0  0  0  0  0  0  0  0  0
   -6.0187    8.1499   -2.9614 H   0  0  0  0  0  0  0  0  0  0  0  0
   -6.3478    6.3668   -2.9927 H   0  0  0  0  0  0  0  0  0  0  0  0
   -7.2983    8.5019   -1.3959 H   0  0  0  0  0  0  0  0  0  0  0  0
   -8.9982    5.0128   -3.1776 H   0  0  0  0  0  0  0  0  0  0  0  0
   -9.8258    6.3485   -4.0481 H   0  0  0  0  0  0  0  0  0  0  0  0
   -8.0321    6.2520   -4.0481 H   0  0  0  0  0  0  0  0  0  0  0  0
  -10.2371    7.5951   -0.7030 H   0  0  0  0  0  0  0  0  0  0  0  0
  -10.2119    8.5902   -2.1982 H   0  0  0  0  0  0  0  0  0  0  0  0
  -11.0272    6.9896   -2.1982 H   0  0  0  0  0  0  0  0  0  0  0  0
   -3.4721    9.2235   -2.3135 H   0  0  0  0  0  0  0  0  0  0  0  0
   -4.6872    9.7340   -0.2880 H   0  0  0  0  0  0  0  0  0  0  0  0
   -4.1965    8.2098    0.4821 H   0  0  0  0  0  0  0  0  0  0  0  0
   -3.1096   10.7885    1.0611 H   0  0  0  0  0  0  0  0  0  0  0  0
   -2.3609    9.2700    1.5470 H   0  0  0  0  0  0  0  0  0  0  0  0
   -2.3892   12.1193   -0.4802 H   0  0  0  0  0  0  0  0  0  0  0  0
   -1.2646   11.6867   -1.8124 H   0  0  0  0  0  0  0  0  0  0  0  0
   -2.9442   11.0498   -1.8124 H   0  0  0  0  0  0  0  0  0  0  0  0
   -0.0474    9.3863    0.8380 H   0  0  0  0  0  0  0  0  0  0  0  0
   -0.9272   11.6811    1.6156 H   0  0  0  0  0  0  0  0  0  0  0  0
    0.8519   11.2374    1.7791 H   0  0  0  0  0  0  0  0  0  0  0  0
    0.3318   13.6875    0.9619 H   0  0  0  0  0  0  0  0  0  0  0  0
    0.3913   11.5210   -2.4441 H   0  0  0  0  0  0  0  0  0  0  0  0
    3.3427   11.6490   -1.5671 H   0  0  0  0  0  0  0  0  0  0  0  0
    2.6737   10.8048   -3.0340 H   0  0  0  0  0  0  0  0  0  0  0  0
    3.7417   12.9637   -3.6012 H   0  0  0  0  0  0  0  0  0  0  0  0
    1.9744   12.9296   -3.9763 H   0  0  0  0  0  0  0  0  0  0  0  0
    2.5095   15.0456   -2.9798 H   0  0  0  0  0  0  0  0  0  0  0  0
    3.1870   14.1410   -0.4720 H   0  0  0  0  0  0  0  0  0  0  0  0
   -0.9425   14.5614   -2.0587 H   0  0  0  0  0  0  0  0  0  0  0  0
    0.2313   15.2580   -3.2265 H   0  0  0  0  0  0  0  0  0  0  0  0
   -0.0948   13.4916   -3.2265 H   0  0  0  0  0  0  0  0  0  0  0  0
    1.1233   15.0680    0.4191 H   0  0  0  0  0  0  0  0  0  0  0  0
    1.9981   16.0362   -0.8154 H   0  0  0  0  0  0  0  0  0  0  0  0
    0.2024   15.9925   -0.8154 H   0  0  0  0  0  0  0  0  0  0  0  0
    2.1145    9.8324    0.9211 H   0  0  0  0  0  0  0  0  0  0  0  0
    2.5663    8.7572   -0.4450 H   0  0  0  0  0  0  0  0  0  0  0  0
    3.0869   10.4764   -0.4450 H   0  0  0  0  0  0  0  0  0  0  0  0
    1.2728    9.2830   -2.8707 H   0  0  0  0  0  0  0  0  0  0  0  0
    0.9935    8.1087   -1.4640 H   0  0  0  0  0  0  0  0  0  0  0  0
   -1.0933    9.6703   -3.0105 H   0  0  0  0  0  0  0  0  0  0  0  0
   -0.8323    7.8826   -2.9561 H   0  0  0  0  0  0  0  0  0  0  0  0
   -1.3188    7.6753    0.7307 H   0  0  0  0  0  0  0  0  0  0  0  0
   -1.8987    6.6109   -0.5951 H   0  0  0  0  0  0  0  0  0  0  0  0
   -0.2027    7.2027   -0.5951 H   0  0  0  0  0  0  0  0  0  0  0  0
  1  2  1  0
  2  3  1  0
  3  4  1  0
  4  5  1  0
  5  6  1  0
  6  7  1  0
  7  8  1  0
  7  9  1  0
  2 10  1  0
 10 11  1  0
 11 12  1  0
 12 13  1  0
 13 14  1  6
 13 15  1  0
 15 16  1  0
 16 17  1  0
 17 18  2  0
 18 19  1  0
 19 20  1  0
 20 21  1  0
 21 22  1  0
 22 23  1  0
 22 24  1  0
 24 25  1  0
 24 26  1  0
 19 27  1  0
 27 28  1  1
 27 29  1  0
 29 30  1  0
 30 31  1  0
 31 32  1  1
  7  5  1  0
 31 10  1  0
 31 13  1  0
 27 15  1  0
 24 18  1  0
  1 33  1  0
  1 34  1  0
  1 35  1  0
  2 36  1  1
  3 37  1  0
  3 38  1  0
  4 39  1  0
  4 40  1  0
  5 41  1  1
  8 42  1  0
  8 43  1  0
  8 44  1  0
  9 45  1  0
  9 46  1  0
  9 47  1  0
 10 48  1  6
 11 49  1  0
 11 50  1  0
 12 51  1  0
 12 52  1  0
 14 53  1  0
 14 54  1  0
 14 55  1  0
 15 56  1  1
 16 57  1  0
 16 58  1  0
 17 59  1  0
 19 60  1  6
 20 61  1  0
 20 62  1  0
 21 63  1  0
 21 64  1  0
 22 65  1  6
 23 66  1  0
 25 67  1  0
 25 68  1  0
 25 69  1  0
 26 70  1  0
 26 71  1  0
 26 72  1  0
 28 73  1  0
 28 74  1  0
 28 75  1  0
 29 76  1  0
 29 77  1  0
 30 78  1  0
 30 79  1  0
 32 80  1  0
 32 81  1  0
 32 82  1  0
M  END
>  <meeko>  (10) 
{"is_sidechain": [false], "intermolecular_energy": 2.731, "internal_energy": -0.839}

$$$$
EPH_relaxed_0001_pdb2pqr_Repair_234_r2_0001_out
     RDKit          3D

 82 86  0  0  0  0  0  0  0  0999 V2000
   -0.8570   16.3550   -5.8400 C   0  0  0  0  0  0  0  0  0  0  0  0
    0.2270   15.6510   -6.6590 C   0  0  2  0  0  0  0  0  0  0  0  0
   -0.1840   15.4710   -8.1340 C   0  0  0  0  0  0  0  0  0  0  0  0
    0.4560   16.4900   -9.0800 C   0  0  0  0  0  0  0  0  0  0  0  0
    1.8570   16.1040   -9.4470 C   0  0  2  0  0  0  0  0  0  0  0  0
    2.3270   16.6580  -10.6820 O   0  0  0  0  0  0  0  0  0  0  0  0
    2.1990   15.2280  -10.6380 C   0  0  0  0  0  0  0  0  0  0  0  0
    1.1340   14.6840  -11.5380 C   0  0  0  0  0  0  0  0  0  0  0  0
    3.5090   14.5040  -10.6410 C   0  0  0  0  0  0  0  0  0  0  0  0
    0.5490   14.2960   -6.0400 C   0  0  1  0  0  0  0  0  0  0  0  0
    1.8170   13.6440   -6.6540 C   0  0  0  0  0  0  0  0  0  0  0  0
    2.5250   12.8760   -5.5080 C   0  0  0  0  0  0  0  0  0  0  0  0
    1.4830   12.8320   -4.3660 C   0  0  1  0  0  0  0  0  0  0  0  0
    0.5300   11.6530   -4.7370 C   0  0  0  0  0  0  0  0  0  0  0  0
    2.0510   12.6810   -2.9170 C   0  0  2  0  0  0  0  0  0  0  0  0
    2.8240   11.3770   -2.6520 C   0  0  0  0  0  0  0  0  0  0  0  0
    2.0010   10.2400   -2.1460 C   0  0  0  0  0  0  0  0  0  0  0  0
    0.7560   10.3380   -1.6440 C   0  0  0  0  0  0  0  0  0  0  0  0
    0.0880   11.7060   -1.4560 C   0  0  1  0  0  0  0  0  0  0  0  0
   -0.5620   11.7770   -0.0490 C   0  0  0  0  0  0  0  0  0  0  0  0
   -1.5200   10.6190    0.2120 C   0  0  0  0  0  0  0  0  0  0  0  0
   -0.8050    9.2780    0.0730 C   0  0  2  0  0  0  0  0  0  0  0  0
    0.1590    9.1580    1.1240 O   0  0  0  0  0  0  0  0  0  0  0  0
   -0.1040    9.0960   -1.3020 C   0  0  0  0  0  0  0  0  0  0  0  0
   -1.1710    8.9240   -2.4120 C   0  0  0  0  0  0  0  0  0  0  0  0
    0.6960    7.7660   -1.2590 C   0  0  0  0  0  0  0  0  0  0  0  0
    0.9970   12.9710   -1.7730 C   0  0  1  0  0  0  0  0  0  0  0  0
    1.8130   13.3700   -0.5060 C   0  0  0  0  0  0  0  0  0  0  0  0
    0.0700   14.1980   -2.1100 C   0  0  0  0  0  0  0  0  0  0  0  0
   -0.3600   14.3610   -3.5810 C   0  0  0  0  0  0  0  0  0  0  0  0
    0.8460   14.2620   -4.5190 C   0  0  2  0  0  0  0  0  0  0  0  0
    1.8120   15.4490   -4.1840 C   0  0  0  0  0  0  0  0  0  0  0  0
   -0.6512   16.2214   -4.7677 H   0  0  0  0  0  0  0  0  0  0  0  0
   -0.8603   17.4281   -6.0818 H   0  0  0  0  0  0  0  0  0  0  0  0
   -1.8387   15.9216   -6.0818 H   0  0  0  0  0  0  0  0  0  0  0  0
    1.1219   16.2904   -6.6410 H   0  0  0  0  0  0  0  0  0  0  0  0
    0.1139   14.4625   -8.4569 H   0  0  0  0  0  0  0  0  0  0  0  0
   -1.2721   15.6239   -8.1854 H   0  0  0  0  0  0  0  0  0  0  0  0
   -0.1480   16.5530   -9.9972 H   0  0  0  0  0  0  0  0  0  0  0  0
    0.4924   17.4606   -8.5637 H   0  0  0  0  0  0  0  0  0  0  0  0
    2.1454   16.0534   -8.3867 H   0  0  0  0  0  0  0  0  0  0  0  0
    0.3177   14.2671  -10.9298 H   0  0  0  0  0  0  0  0  0  0  0  0
    0.7422   15.4924  -12.1728 H   0  0  0  0  0  0  0  0  0  0  0  0
    1.5593   13.8927  -12.1728 H   0  0  0  0  0  0  0  0  0  0  0  0
    3.8317   14.3256   -9.6046 H   0  0  0  0  0  0  0  0  0  0  0  0
    3.3946   13.5411  -11.1603 H   0  0  0  0  0  0  0  0  0  0  0  0
    4.2635   15.1132  -11.1603 H   0  0  0  0  0  0  0  0  0  0  0  0
   -0.3924   13.7680   -6.2521 H   0  0  0  0  0  0  0  0  0  0  0  0
    1.5338   12.9484   -7.4577 H   0  0  0  0  0  0  0  0  0  0  0  0
    2.4815   14.4053   -7.0886 H   0  0  0  0  0  0  0  0  0  0  0  0
    2.7921   11.8585   -5.8294 H   0  0  0  0  0  0  0  0  0  0  0  0
    3.4630   13.3602   -5.1985 H   0  0  0  0  0  0  0  0  0  0  0  0
    0.1511   11.1843   -3.8168 H   0  0  0  0  0  0  0  0  0  0  0  0
   -0.3149   12.0365   -5.3278 H   0  0  0  0  0  0  0  0  0  0  0  0
    1.0821   10.9073   -5.3278 H   0  0  0  0  0  0  0  0  0  0  0  0
    2.7989   13.4864   -2.8723 H   0  0  0  0  0  0  0  0  0  0  0  0
    3.2942   11.0628   -3.5955 H   0  0  0  0  0  0  0  0  0  0  0  0
    3.5465   11.6080   -1.8553 H   0  0  0  0  0  0  0  0  0  0  0  0
    2.4498    9.2365   -2.1867 H   0  0  0  0  0  0  0  0  0  0  0  0
   -0.6907   11.7726   -2.2301 H   0  0  0  0  0  0  0  0  0  0  0  0
    0.2347   11.7532    0.7091 H   0  0  0  0  0  0  0  0  0  0  0  0
   -1.1432   12.7094    0.0036 H   0  0  0  0  0  0  0  0  0  0  0  0
   -1.9232   10.7081    1.2316 H   0  0  0  0  0  0  0  0  0  0  0  0
   -2.3328   10.6620   -0.5280 H   0  0  0  0  0  0  0  0  0  0  0  0
   -1.5686    8.4892    0.1420 H   0  0  0  0  0  0  0  0  0  0  0  0
   -0.3100    8.8560    1.9200 H   0  0  0  0  0  0  0  0  0  0  0  0
   -2.1571    8.7650   -1.9512 H   0  0  0  0  0  0  0  0  0  0  0  0
   -1.1997    9.8291   -3.0365 H   0  0  0  0  0  0  0  0  0  0  0  0
   -0.9138    8.0557   -3.0365 H   0  0  0  0  0  0  0  0  0  0  0  0
    0.8701    7.4765   -0.2122 H   0  0  0  0  0  0  0  0  0  0  0  0
    0.1227    6.9767   -1.7672 H   0  0  0  0  0  0  0  0  0  0  0  0
    1.6620    7.9025   -1.7672 H   0  0  0  0  0  0  0  0  0  0  0  0
    1.2477   13.0936    0.3963 H   0  0  0  0  0  0  0  0  0  0  0  0
    2.7780   12.8421   -0.5101 H   0  0  0  0  0  0  0  0  0  0  0  0
    1.9890   14.4558   -0.5101 H   0  0  0  0  0  0  0  0  0  0  0  0
   -0.8436   14.1008   -1.5051 H   0  0  0  0  0  0  0  0  0  0  0  0
    0.6778   15.0874   -1.8877 H   0  0  0  0  0  0  0  0  0  0  0  0
   -1.0796   13.5689   -3.8354 H   0  0  0  0  0  0  0  0  0  0  0  0
   -0.8194   15.3528   -3.7041 H   0  0  0  0  0  0  0  0  0  0  0  0
    1.8981   15.5548   -3.0925 H   0  0  0  0  0  0  0  0  0  0  0  0
    2.8047   15.2459   -4.6121 H   0  0  0  0  0  0  0  0  0  0  0  0
    1.4115   16.3797   -4.6121 H   0  0  0  0  0  0  0  0  0  0  0  0
  1  2  1  0
  2  3  1  0
  3  4  1  0
  4  5  1  0
  5  6  1  0
  6  7  1  0
  7  8  1  0
  7  9  1  0
  2 10  1  0
 10 11  1  0
 11 12  1  0
 12 13  1  0
 13 14  1  6
 13 15  1  0
 15 16  1  0
 16 17  1  0
 17 18  2  0
 18 19  1  0
 19 20  1  0
 20 21  1  0
 21 22  1  0
 22 23  1  0
 22 24  1  0
 24 25  1  0
 24 26  1  0
 19 27  1  0
 27 28  1  1
 27 29  1  0
 29 30  1  0
 30 31  1  0
 31 32  1  1
  7  5  1  0
 31 10  1  0
 31 13  1  0
 27 15  1  0
 24 18  1  0
  1 33  1  0
  1 34  1  0
  1 35  1  0
  2 36  1  6
  3 37  1  0
  3 38  1  0
  4 39  1  0
  4 40  1  0
  5 41  1  1
  8 42  1  0
  8 43  1  0
  8 44  1  0
  9 45  1  0
  9 46  1  0
  9 47  1  0
 10 48  1  1
 11 49  1  0
 11 50  1  0
 12 51  1  0
 12 52  1  0
 14 53  1  0
 14 54  1  0
 14 55  1  0
 15 56  1  6
 16 57  1  0
 16 58  1  0
 17 59  1  0
 19 60  1  6
 20 61  1  0
 20 62  1  0
 21 63  1  0
 21 64  1  0
 22 65  1  1
 23 66  1  0
 25 67  1  0
 25 68  1  0
 25 69  1  0
 26 70  1  0
 26 71  1  0
 26 72  1  0
 28 73  1  0
 28 74  1  0
 28 75  1  0
 29 76  1  0
 29 77  1  0
 30 78  1  0
 30 79  1  0
 32 80  1  0
 32 81  1  0
 32 82  1  0
M  END
>  <meeko>  (11) 
{"is_sidechain": [false], "intermolecular_energy": 2.731, "internal_energy": -0.839}

$$$$
EPH_relaxed_0001_pdb2pqr_Repair_234_r2_0001_out
     RDKit          3D

 82 86  0  0  0  0  0  0  0  0999 V2000
   -0.1530    9.3130   -2.2030 C   0  0  0  0  0  0  0  0  0  0  0  0
    0.9330   10.2800   -2.6830 C   0  0  2  0  0  0  0  0  0  0  0  0
    2.3160    9.6040   -2.7680 C   0  0  0  0  0  0  0  0  0  0  0  0
    3.2300   10.2050   -3.8390 C   0  0  0  0  0  0  0  0  0  0  0  0
    4.5970   10.5000   -3.2990 C   0  0  2  0  0  0  0  0  0  0  0  0
    5.0990   11.8040   -3.6180 O   0  0  0  0  0  0  0  0  0  0  0  0
    5.8190   10.6940   -4.1770 C   0  0  0  0  0  0  0  0  0  0  0  0
    5.7320   10.5990   -5.6680 C   0  0  0  0  0  0  0  0  0  0  0  0
    7.1740   10.4890   -3.5730 C   0  0  0  0  0  0  0  0  0  0  0  0
    1.0000   11.4880   -1.7560 C   0  0  1  0  0  0  0  0  0  0  0  0
    2.0830   11.3370   -0.6550 C   0  0  0  0  0  0  0  0  0  0  0  0
    2.6680   12.7510   -0.4070 C   0  0  0  0  0  0  0  0  0  0  0  0
    1.6870   13.7100   -1.1200 C   0  0  1  0  0  0  0  0  0  0  0  0
    0.5010   13.8880   -0.1210 C   0  0  0  0  0  0  0  0  0  0  0  0
    2.2730   15.0880   -1.5720 C   0  0  2  0  0  0  0  0  0  0  0  0
    2.7760   15.9880   -0.4300 C   0  0  0  0  0  0  0  0  0  0  0  0
    1.7620   16.9240    0.1390 C   0  0  0  0  0  0  0  0  0  0  0  0
    0.5840   17.2410   -0.4300 C   0  0  0  0  0  0  0  0  0  0  0  0
    0.2140   16.7140   -1.8220 C   0  0  1  0  0  0  0  0  0  0  0  0
   -0.3490   17.8740   -2.6830 C   0  0  0  0  0  0  0  0  0  0  0  0
   -1.5100   18.5960   -2.0050 C   0  0  0  0  0  0  0  0  0  0  0  0
   -1.0870   19.1570   -0.6500 C   0  0  2  0  0  0  0  0  0  0  0  0
   -0.1240   20.1940   -0.8610 O   0  0  0  0  0  0  0  0  0  0  0  0
   -0.4940   18.0790    0.3010 C   0  0  0  0  0  0  0  0  0  0  0  0
   -1.6180   17.1230    0.7690 C   0  0  0  0  0  0  0  0  0  0  0  0
    0.0220   18.8000    1.5760 C   0  0  0  0  0  0  0  0  0  0  0  0
    1.3460   15.8890   -2.5740 C   0  0  1  0  0  0  0  0  0  0  0  0
    2.2780   16.8600   -3.3610 C   0  0  0  0  0  0  0  0  0  0  0  0
    0.6740   14.9520   -3.6460 C   0  0  0  0  0  0  0  0  0  0  0  0
    0.2250   13.5590   -3.1670 C   0  0  0  0  0  0  0  0  0  0  0  0
    1.3460   12.8560   -2.3950 C   0  0  2  0  0  0  0  0  0  0  0  0
    2.5450   12.6440   -3.3820 C   0  0  0  0  0  0  0  0  0  0  0  0
   -0.1703    9.2976   -1.1032 H   0  0  0  0  0  0  0  0  0  0  0  0
   -1.1317    9.6441   -2.5805 H   0  0  0  0  0  0  0  0  0  0  0  0
    0.0628    8.3026   -2.5805 H   0  0  0  0  0  0  0  0  0  0  0  0
    0.6614   10.6050   -3.6982 H   0  0  0  0  0  0  0  0  0  0  0  0
    2.8123    9.7047   -1.7915 H   0  0  0  0  0  0  0  0  0  0  0  0
    2.1438    8.5535   -3.0450 H   0  0  0  0  0  0  0  0  0  0  0  0
    3.3217    9.4912   -4.6709 H   0  0  0  0  0  0  0  0  0  0  0  0
    2.7839   11.1513   -4.1790 H   0  0  0  0  0  0  0  0  0  0  0  0
    4.4126    9.8641   -2.4206 H   0  0  0  0  0  0  0  0  0  0  0  0
    5.0129    9.8137   -5.9440 H   0  0  0  0  0  0  0  0  0  0  0  0
    5.3972   11.5633   -6.0779 H   0  0  0  0  0  0  0  0  0  0  0  0
    6.7220   10.3501   -6.0779 H   0  0  0  0  0  0  0  0  0  0  0  0
    7.0922   10.5014   -2.4761 H   0  0  0  0  0  0  0  0  0  0  0  0
    7.5782    9.5195   -3.8996 H   0  0  0  0  0  0  0  0  0  0  0  0
    7.8469   11.2956   -3.8996 H   0  0  0  0  0  0  0  0  0  0  0  0
   -0.0367   11.4960   -1.3883 H   0  0  0  0  0  0  0  0  0  0  0  0
    1.6320   10.9461    0.2690 H   0  0  0  0  0  0  0  0  0  0  0  0
    2.8688   10.6335   -0.9674 H   0  0  0  0  0  0  0  0  0  0  0  0
    2.7110   12.9699    0.6701 H   0  0  0  0  0  0  0  0  0  0  0  0
    3.6962   12.8491   -0.7855 H   0  0  0  0  0  0  0  0  0  0  0  0
    0.8788   13.8313    0.9105 H   0  0  0  0  0  0  0  0  0  0  0  0
    0.0275   14.8673   -0.2847 H   0  0  0  0  0  0  0  0  0  0  0  0
   -0.2391   13.0909   -0.2847 H   0  0  0  0  0  0  0  0  0  0  0  0
    3.1696   14.7906   -2.1356 H   0  0  0  0  0  0  0  0  0  0  0  0
    3.1324   15.3382    0.3828 H   0  0  0  0  0  0  0  0  0  0  0  0
    3.5630   16.6209   -0.8659 H   0  0  0  0  0  0  0  0  0  0  0  0
    1.9973   17.3945    1.1050 H   0  0  0  0  0  0  0  0  0  0  0  0
   -0.5669   15.9560   -1.6622 H   0  0  0  0  0  0  0  0  0  0  0  0
    0.4572   18.5991   -2.8682 H   0  0  0  0  0  0  0  0  0  0  0  0
   -0.7272   17.4407   -3.6207 H   0  0  0  0  0  0  0  0  0  0  0  0
   -1.8446   19.4231   -2.6485 H   0  0  0  0  0  0  0  0  0  0  0  0
   -2.3269   17.8764   -1.8475 H   0  0  0  0  0  0  0  0  0  0  0  0
   -1.9900   19.5474   -0.1578 H   0  0  0  0  0  0  0  0  0  0  0  0
   -0.4470   20.7520   -1.5890 H   0  0  0  0  0  0  0  0  0  0  0  0
   -1.6454   17.0997    1.8684 H   0  0  0  0  0  0  0  0  0  0  0  0
   -2.5855   17.4791    0.3856 H   0  0  0  0  0  0  0  0  0  0  0  0
   -1.4218   16.1108    0.3856 H   0  0  0  0  0  0  0  0  0  0  0  0
   -0.3517   18.2778    2.4691 H   0  0  0  0  0  0  0  0  0  0  0  0
    1.1220   18.7937    1.5810 H   0  0  0  0  0  0  0  0  0  0  0  0
   -0.3388   19.8391    1.5810 H   0  0  0  0  0  0  0  0  0  0  0  0
    2.8597   17.4660   -2.6508 H   0  0  0  0  0  0  0  0  0  0  0  0
    2.9639   16.2776   -3.9937 H   0  0  0  0  0  0  0  0  0  0  0  0
    1.6680   17.5215   -3.9937 H   0  0  0  0  0  0  0  0  0  0  0  0
   -0.2141   15.4729   -4.0333 H   0  0  0  0  0  0  0  0  0  0  0  0
    1.4585   14.7604   -4.3929 H   0  0  0  0  0  0  0  0  0  0  0  0
   -0.6500   13.6695   -2.5096 H   0  0  0  0  0  0  0  0  0  0  0  0
   -0.0288   12.9507   -4.0476 H   0  0  0  0  0  0  0  0  0  0  0  0
    3.4686   12.4807   -2.8072 H   0  0  0  0  0  0  0  0  0  0  0  0
    2.3476   11.7668   -4.0157 H   0  0  0  0  0  0  0  0  0  0  0  0
    2.6603   13.5357   -4.0157 H   0  0  0  0  0  0  0  0  0  0  0  0
  1  2  1  0
  2  3  1  0
  3  4  1  0
  4  5  1  0
  5  6  1  0
  6  7  1  0
  7  8  1  0
  7  9  1  0
  2 10  1  0
 10 11  1  0
 11 12  1  0
 12 13  1  0
 13 14  1  1
 13 15  1  0
 15 16  1  0
 16 17  1  0
 17 18  2  0
 18 19  1  0
 19 20  1  0
 20 21  1  0
 21 22  1  0
 22 23  1  0
 22 24  1  0
 24 25  1  0
 24 26  1  0
 19 27  1  0
 27 28  1  6
 27 29  1  0
 29 30  1  0
 30 31  1  0
 31 32  1  6
  7  5  1  0
 31 10  1  0
 31 13  1  0
 27 15  1  0
 24 18  1  0
  1 33  1  0
  1 34  1  0
  1 35  1  0
  2 36  1  6
  3 37  1  0
  3 38  1  0
  4 39  1  0
  4 40  1  0
  5 41  1  1
  8 42  1  0
  8 43  1  0
  8 44  1  0
  9 45  1  0
  9 46  1  0
  9 47  1  0
 10 48  1  1
 11 49  1  0
 11 50  1  0
 12 51  1  0
 12 52  1  0
 14 53  1  0
 14 54  1  0
 14 55  1  0
 15 56  1  6
 16 57  1  0
 16 58  1  0
 17 59  1  0
 19 60  1  1
 20 61  1  0
 20 62  1  0
 21 63  1  0
 21 64  1  0
 22 65  1  1
 23 66  1  0
 25 67  1  0
 25 68  1  0
 25 69  1  0
 26 70  1  0
 26 71  1  0
 26 72  1  0
 28 73  1  0
 28 74  1  0
 28 75  1  0
 29 76  1  0
 29 77  1  0
 30 78  1  0
 30 79  1  0
 32 80  1  0
 32 81  1  0
 32 82  1  0
M  END
>  <meeko>  (12) 
{"is_sidechain": [false], "intermolecular_energy": 2.731, "internal_energy": -0.839}

$$$$
EPH_relaxed_0001_pdb2pqr_Repair_234_r2_0001_out
     RDKit          3D

 82 86  0  0  0  0  0  0  0  0999 V2000
   -0.2950   15.0880   -7.6640 C   0  0  0  0  0  0  0  0  0  0  0  0
    1.0730   15.0790   -6.9760 C   0  0  2  0  0  0  0  0  0  0  0  0
    2.2330   15.1750   -7.9880 C   0  0  0  0  0  0  0  0  0  0  0  0
    2.2570   16.4890   -8.7730 C   0  0  0  0  0  0  0  0  0  0  0  0
    1.8530   16.2870  -10.2030 C   0  0  2  0  0  0  0  0  0  0  0  0
    1.1920   15.0430  -10.4680 O   0  0  0  0  0  0  0  0  0  0  0  0
    2.4660   15.2310  -11.1040 C   0  0  0  0  0  0  0  0  0  0  0  0
    3.5360   14.3080  -10.6100 C   0  0  0  0  0  0  0  0  0  0  0  0
    2.3790   15.4180  -12.5870 C   0  0  0  0  0  0  0  0  0  0  0  0
    1.2220   13.8180   -6.1320 C   0  0  1  0  0  0  0  0  0  0  0  0
    2.6540   13.2250   -6.1910 C   0  0  0  0  0  0  0  0  0  0  0  0
    2.9490   12.6280   -4.7900 C   0  0  0  0  0  0  0  0  0  0  0  0
    1.5750   12.5990   -4.0820 C   0  0  1  0  0  0  0  0  0  0  0  0
    0.8730   11.3130   -4.6200 C   0  0  0  0  0  0  0  0  0  0  0  0
    1.6030   12.6290   -2.5190 C   0  0  2  0  0  0  0  0  0  0  0  0
    2.2950   11.4260   -1.8550 C   0  0  0  0  0  0  0  0  0  0  0  0
    1.4030   10.2730   -1.5370 C   0  0  0  0  0  0  0  0  0  0  0  0
    0.0580   10.3090   -1.5100 C   0  0  0  0  0  0  0  0  0  0  0  0
   -0.7000   11.6260   -1.7240 C   0  0  1  0  0  0  0  0  0  0  0  0
   -1.8060   11.7680   -0.6460 C   0  0  0  0  0  0  0  0  0  0  0  0
   -2.7370   10.5600   -0.6010 C   0  0  0  0  0  0  0  0  0  0  0  0
   -1.9550    9.2780   -0.3290 C   0  0  2  0  0  0  0  0  0  0  0  0
   -1.4190    9.3380    0.9970 O   0  0  0  0  0  0  0  0  0  0  0  0
   -0.8060    9.0330   -1.3460 C   0  0  0  0  0  0  0  0  0  0  0  0
   -1.4030    8.6700   -2.7280 C   0  0  0  0  0  0  0  0  0  0  0  0
   -0.0090    7.7870   -0.8760 C   0  0  0  0  0  0  0  0  0  0  0  0
    0.2000   12.9300   -1.8510 C   0  0  1  0  0  0  0  0  0  0  0  0
    0.4960   13.5120   -0.4350 C   0  0  0  0  0  0  0  0  0  0  0  0
   -0.6070   14.0370   -2.6270 C   0  0  0  0  0  0  0  0  0  0  0  0
   -0.4990   14.0280   -4.1630 C   0  0  0  0  0  0  0  0  0  0  0  0
    0.9650   13.9480   -4.6090 C   0  0  2  0  0  0  0  0  0  0  0  0
    1.6910   15.2400   -4.1010 C   0  0  0  0  0  0  0  0  0  0  0  0
   -1.0885   15.0932   -6.9022 H   0  0  0  0  0  0  0  0  0  0  0  0
   -0.3837   15.9867   -8.2920 H   0  0  0  0  0  0  0  0  0  0  0  0
   -0.3955   14.1905   -8.2920 H   0  0  0  0  0  0  0  0  0  0  0  0
    1.1240   15.9677   -6.3298 H   0  0  0  0  0  0  0  0  0  0  0  0
    3.1816   15.0809   -7.4390 H   0  0  0  0  0  0  0  0  0  0  0  0
    2.0896   14.3660   -8.7194 H   0  0  0  0  0  0  0  0  0  0  0  0
    1.5604   17.1984   -8.3024 H   0  0  0  0  0  0  0  0  0  0  0  0
    3.2855   16.8789   -8.7585 H   0  0  0  0  0  0  0  0  0  0  0  0
    1.6926   17.3672  -10.3352 H   0  0  0  0  0  0  0  0  0  0  0  0
    3.5389   14.3055   -9.5100 H   0  0  0  0  0  0  0  0  0  0  0  0
    3.3410   13.2901  -10.9785 H   0  0  0  0  0  0  0  0  0  0  0  0
    4.5143   14.6502  -10.9785 H   0  0  0  0  0  0  0  0  0  0  0  0
    1.9244   16.3951  -12.8073 H   0  0  0  0  0  0  0  0  0  0  0  0
    3.3887   15.3770  -13.0216 H   0  0  0  0  0  0  0  0  0  0  0  0
    1.7600   14.6193  -13.0216 H   0  0  0  0  0  0  0  0  0  0  0  0
    0.4429   13.1937   -6.5938 H   0  0  0  0  0  0  0  0  0  0  0  0
    2.7066   12.4374   -6.9571 H   0  0  0  0  0  0  0  0  0  0  0  0
    3.3911   13.9979   -6.4542 H   0  0  0  0  0  0  0  0  0  0  0  0
    3.3613   11.6121   -4.8796 H   0  0  0  0  0  0  0  0  0  0  0  0
    3.6930   13.2169   -4.2335 H   0  0  0  0  0  0  0  0  0  0  0  0
    0.5368   10.6971   -3.7729 H   0  0  0  0  0  0  0  0  0  0  0  0
    0.0054   11.5981   -5.2332 H   0  0  0  0  0  0  0  0  0  0  0  0
    1.5821   10.7374   -5.2332 H   0  0  0  0  0  0  0  0  0  0  0  0
    2.2478   13.4958   -2.3118 H   0  0  0  0  0  0  0  0  0  0  0  0
    3.0825   11.0690   -2.5350 H   0  0  0  0  0  0  0  0  0  0  0  0
    2.6776   11.7897   -0.8900 H   0  0  0  0  0  0  0  0  0  0  0  0
    1.8856    9.3122   -1.3050 H   0  0  0  0  0  0  0  0  0  0  0  0
   -1.1587   11.5550   -2.7213 H   0  0  0  0  0  0  0  0  0  0  0  0
   -1.3272   11.8811    0.3378 H   0  0  0  0  0  0  0  0  0  0  0  0
   -2.4131   12.6483   -0.9041 H   0  0  0  0  0  0  0  0  0  0  0  0
   -3.4779   10.7062    0.1988 H   0  0  0  0  0  0  0  0  0  0  0  0
   -3.2370   10.4658   -1.5763 H   0  0  0  0  0  0  0  0  0  0  0  0
   -2.6543    8.4359   -0.4378 H   0  0  0  0  0  0  0  0  0  0  0  0
   -2.1550    9.2040    1.6180 H   0  0  0  0  0  0  0  0  0  0  0  0
   -2.3352    8.1032   -2.5873 H   0  0  0  0  0  0  0  0  0  0  0  0
   -1.6156    9.5919   -3.2892 H   0  0  0  0  0  0  0  0  0  0  0  0
   -0.6823    8.0571   -3.2892 H   0  0  0  0  0  0  0  0  0  0  0  0
    0.0101    7.7572    0.2234 H   0  0  0  0  0  0  0  0  0  0  0  0
   -0.4927    6.8764   -1.2592 H   0  0  0  0  0  0  0  0  0  0  0  0
    1.0205    7.8443   -1.2592 H   0  0  0  0  0  0  0  0  0  0  0  0
    0.1387   12.8094    0.3322 H   0  0  0  0  0  0  0  0  0  0  0  0
    1.5796   13.6614   -0.3192 H   0  0  0  0  0  0  0  0  0  0  0  0
   -0.0215   14.4757   -0.3192 H   0  0  0  0  0  0  0  0  0  0  0  0
   -1.6693   13.9174   -2.3676 H   0  0  0  0  0  0  0  0  0  0  0  0
   -0.1598   14.9917   -2.3131 H   0  0  0  0  0  0  0  0  0  0  0  0
   -1.0434   13.1571   -4.5570 H   0  0  0  0  0  0  0  0  0  0  0  0
   -0.9335   14.9611   -4.5508 H   0  0  0  0  0  0  0  0  0  0  0  0
    1.6962   15.2492   -3.0011 H   0  0  0  0  0  0  0  0  0  0  0  0
    2.7263   15.2490   -4.4726 H   0  0  0  0  0  0  0  0  0  0  0  0
    1.1603   16.1290   -4.4726 H   0  0  0  0  0  0  0  0  0  0  0  0
  1  2  1  0
  2  3  1  0
  3  4  1  0
  4  5  1  0
  5  6  1  0
  6  7  1  0
  7  8  1  0
  7  9  1  0
  2 10  1  0
 10 11  1  0
 11 12  1  0
 12 13  1  0
 13 14  1  1
 13 15  1  0
 15 16  1  0
 16 17  1  0
 17 18  2  0
 18 19  1  0
 19 20  1  0
 20 21  1  0
 21 22  1  0
 22 23  1  0
 22 24  1  0
 24 25  1  0
 24 26  1  0
 19 27  1  0
 27 28  1  1
 27 29  1  0
 29 30  1  0
 30 31  1  0
 31 32  1  1
  7  5  1  0
 31 10  1  0
 31 13  1  0
 27 15  1  0
 24 18  1  0
  1 33  1  0
  1 34  1  0
  1 35  1  0
  2 36  1  1
  3 37  1  0
  3 38  1  0
  4 39  1  0
  4 40  1  0
  5 41  1  6
  8 42  1  0
  8 43  1  0
  8 44  1  0
  9 45  1  0
  9 46  1  0
  9 47  1  0
 10 48  1  6
 11 49  1  0
 11 50  1  0
 12 51  1  0
 12 52  1  0
 14 53  1  0
 14 54  1  0
 14 55  1  0
 15 56  1  6
 16 57  1  0
 16 58  1  0
 17 59  1  0
 19 60  1  6
 20 61  1  0
 20 62  1  0
 21 63  1  0
 21 64  1  0
 22 65  1  1
 23 66  1  0
 25 67  1  0
 25 68  1  0
 25 69  1  0
 26 70  1  0
 26 71  1  0
 26 72  1  0
 28 73  1  0
 28 74  1  0
 28 75  1  0
 29 76  1  0
 29 77  1  0
 30 78  1  0
 30 79  1  0
 32 80  1  0
 32 81  1  0
 32 82  1  0
M  END
>  <meeko>  (13) 
{"is_sidechain": [false], "intermolecular_energy": 2.731, "internal_energy": -0.839}

$$$$
EPH_relaxed_0001_pdb2pqr_Repair_234_r2_0001_out
     RDKit          3D

 82 86  0  0  0  0  0  0  0  0999 V2000
   -2.0690    7.8560   -1.9600 C   0  0  0  0  0  0  0  0  0  0  0  0
   -2.2010    8.5660   -0.6100 C   0  0  2  0  0  0  0  0  0  0  0  0
   -3.6620    8.6090   -0.1170 C   0  0  0  0  0  0  0  0  0  0  0  0
   -4.6840    8.2080   -1.1850 C   0  0  0  0  0  0  0  0  0  0  0  0
   -5.7790    7.3610   -0.6130 C   0  0  2  0  0  0  0  0  0  0  0  0
   -6.1580    6.2430   -1.4260 O   0  0  0  0  0  0  0  0  0  0  0  0
   -7.1610    7.2520   -1.2290 C   0  0  0  0  0  0  0  0  0  0  0  0
   -7.5220    8.0030   -2.4730 C   0  0  0  0  0  0  0  0  0  0  0  0
   -8.2990    6.8100   -0.3620 C   0  0  0  0  0  0  0  0  0  0  0  0
   -1.6440    9.9810   -0.7100 C   0  0  1  0  0  0  0  0  0  0  0  0
   -1.1380   10.5220    0.6540 C   0  0  0  0  0  0  0  0  0  0  0  0
    0.0950   11.4130    0.3520 C   0  0  0  0  0  0  0  0  0  0  0  0
    0.0580   11.6240   -1.1800 C   0  0  1  0  0  0  0  0  0  0  0  0
   -0.9800   12.7680   -1.4020 C   0  0  0  0  0  0  0  0  0  0  0  0
    1.4260   11.9450   -1.8660 C   0  0  2  0  0  0  0  0  0  0  0  0
    2.0930   13.2540   -1.4110 C   0  0  0  0  0  0  0  0  0  0  0  0
    1.7300   14.4650   -2.2060 C   0  0  0  0  0  0  0  0  0  0  0  0
    1.1310   14.4580   -3.4110 C   0  0  0  0  0  0  0  0  0  0  0  0
    0.8440   13.1390   -4.1400 C   0  0  1  0  0  0  0  0  0  0  0  0
    1.2840   13.2620   -5.6230 C   0  0  0  0  0  0  0  0  0  0  0  0
    0.6570   14.4640   -6.3220 C   0  0  0  0  0  0  0  0  0  0  0  0
    1.0130   15.7610   -5.6010 C   0  0  2  0  0  0  0  0  0  0  0  0
    2.4190   15.9910   -5.7340 O   0  0  0  0  0  0  0  0  0  0  0  0
    0.6250   15.7520   -4.0960 C   0  0  0  0  0  0  0  0  0  0  0  0
   -0.9160   15.8060   -3.9550 C   0  0  0  0  0  0  0  0  0  0  0  0
    1.1660   17.0590   -3.4550 C   0  0  0  0  0  0  0  0  0  0  0  0
    1.4040   11.8250   -3.4440 C   0  0  1  0  0  0  0  0  0  0  0  0
    2.8750   11.5710   -3.8920 C   0  0  0  0  0  0  0  0  0  0  0  0
    0.5680   10.5860   -3.9380 C   0  0  0  0  0  0  0  0  0  0  0  0
   -0.7090   10.2480   -3.1460 C   0  0  0  0  0  0  0  0  0  0  0  0
   -0.4250   10.2010   -1.6410 C   0  0  2  0  0  0  0  0  0  0  0  0
    0.6000    9.0450   -1.3840 C   0  0  0  0  0  0  0  0  0  0  0  0
   -1.8702    6.7869   -1.7941 H   0  0  0  0  0  0  0  0  0  0  0  0
   -3.0040    7.9713   -2.5279 H   0  0  0  0  0  0  0  0  0  0  0  0
   -1.2379    8.2997   -2.5279 H   0  0  0  0  0  0  0  0  0  0  0  0
   -1.6208    7.9891    0.1252 H   0  0  0  0  0  0  0  0  0  0  0  0
   -3.7615    7.9203    0.7349 H   0  0  0  0  0  0  0  0  0  0  0  0
   -3.8777    9.6517    0.1590 H   0  0  0  0  0  0  0  0  0  0  0  0
   -5.1257    9.1187   -1.6157 H   0  0  0  0  0  0  0  0  0  0  0  0
   -4.1628    7.6207   -1.9553 H   0  0  0  0  0  0  0  0  0  0  0  0
   -5.4429    7.5776    0.4118 H   0  0  0  0  0  0  0  0  0  0  0  0
   -7.9837    8.9635   -2.2005 H   0  0  0  0  0  0  0  0  0  0  0  0
   -6.6143    8.1877   -3.0662 H   0  0  0  0  0  0  0  0  0  0  0  0
   -8.2332    7.4095   -3.0662 H   0  0  0  0  0  0  0  0  0  0  0  0
   -8.0179    6.9192    0.6959 H   0  0  0  0  0  0  0  0  0  0  0  0
   -9.1827    7.4303   -0.5725 H   0  0  0  0  0  0  0  0  0  0  0  0
   -8.5324    5.7558   -0.5725 H   0  0  0  0  0  0  0  0  0  0  0  0
   -2.5261   10.4981   -1.1156 H   0  0  0  0  0  0  0  0  0  0  0  0
   -1.9249   11.1166    1.1412 H   0  0  0  0  0  0  0  0  0  0  0  0
   -0.8731    9.6976    1.3323 H   0  0  0  0  0  0  0  0  0  0  0  0
    0.0168   12.3756    0.8786 H   0  0  0  0  0  0  0  0  0  0  0  0
    1.0355   10.9512    0.6869 H   0  0  0  0  0  0  0  0  0  0  0  0
   -1.3230   13.1460   -0.4276 H   0  0  0  0  0  0  0  0  0  0  0  0
   -0.5092   13.5857   -1.9674 H   0  0  0  0  0  0  0  0  0  0  0  0
   -1.8395   12.3786   -1.9674 H   0  0  0  0  0  0  0  0  0  0  0  0
    2.0718   11.1361   -1.4935 H   0  0  0  0  0  0  0  0  0  0  0  0
    1.8062   13.4358   -0.3647 H   0  0  0  0  0  0  0  0  0  0  0  0
    3.1742   13.1098   -1.5528 H   0  0  0  0  0  0  0  0  0  0  0  0
    1.9727   15.4452   -1.7698 H   0  0  0  0  0  0  0  0  0  0  0  0
   -0.2445   12.9908   -4.0839 H   0  0  0  0  0  0  0  0  0  0  0  0
    2.3786   13.3650   -5.6585 H   0  0  0  0  0  0  0  0  0  0  0  0
    0.9450   12.3566   -6.1478 H   0  0  0  0  0  0  0  0  0  0  0  0
    1.0286   14.5133   -7.3561 H   0  0  0  0  0  0  0  0  0  0  0  0
   -0.4365   14.3452   -6.3115 H   0  0  0  0  0  0  0  0  0  0  0  0
    0.4320   16.5691   -6.0695 H   0  0  0  0  0  0  0  0  0  0  0  0
    2.8450   15.1310   -5.8850 H   0  0  0  0  0  0  0  0  0  0  0  0
   -1.1865   15.8155   -2.8888 H   0  0  0  0  0  0  0  0  0  0  0  0
   -1.2967   16.7180   -4.4380 H   0  0  0  0  0  0  0  0  0  0  0  0
   -1.3596   14.9228   -4.4380 H   0  0  0  0  0  0  0  0  0  0  0  0
    1.1300   16.9721   -2.3590 H   0  0  0  0  0  0  0  0  0  0  0  0
    2.2055   17.2218   -3.7760 H   0  0  0  0  0  0  0  0  0  0  0  0
    0.5457   17.9088   -3.7760 H   0  0  0  0  0  0  0  0  0  0  0  0
    3.5148   11.4605   -3.0041 H   0  0  0  0  0  0  0  0  0  0  0  0
    2.9214   10.6516   -4.4941 H   0  0  0  0  0  0  0  0  0  0  0  0
    3.2270   12.4217   -4.4941 H   0  0  0  0  0  0  0  0  0  0  0  0
    0.2720   10.7786   -4.9798 H   0  0  0  0  0  0  0  0  0  0  0  0
    1.2302    9.7188   -3.7990 H   0  0  0  0  0  0  0  0  0  0  0  0
   -1.4698   11.0172   -3.3447 H   0  0  0  0  0  0  0  0  0  0  0  0
   -1.0685    9.2589   -3.4660 H   0  0  0  0  0  0  0  0  0  0  0  0
    0.7271    8.9017   -0.3008 H   0  0  0  0  0  0  0  0  0  0  0  0
    0.2244    8.1148   -1.8354 H   0  0  0  0  0  0  0  0  0  0  0  0
    1.5684    9.3066   -1.8354 H   0  0  0  0  0  0  0  0  0  0  0  0
  1  2  1  0
  2  3  1  0
  3  4  1  0
  4  5  1  0
  5  6  1  0
  6  7  1  0
  7  8  1  0
  7  9  1  0
  2 10  1  0
 10 11  1  0
 11 12  1  0
 12 13  1  0
 13 14  1  1
 13 15  1  0
 15 16  1  0
 16 17  1  0
 17 18  2  0
 18 19  1  0
 19 20  1  0
 20 21  1  0
 21 22  1  0
 22 23  1  0
 22 24  1  0
 24 25  1  0
 24 26  1  0
 19 27  1  0
 27 28  1  6
 27 29  1  0
 29 30  1  0
 30 31  1  0
 31 32  1  6
  7  5  1  0
 31 10  1  0
 31 13  1  0
 27 15  1  0
 24 18  1  0
  1 33  1  0
  1 34  1  0
  1 35  1  0
  2 36  1  1
  3 37  1  0
  3 38  1  0
  4 39  1  0
  4 40  1  0
  5 41  1  1
  8 42  1  0
  8 43  1  0
  8 44  1  0
  9 45  1  0
  9 46  1  0
  9 47  1  0
 10 48  1  6
 11 49  1  0
 11 50  1  0
 12 51  1  0
 12 52  1  0
 14 53  1  0
 14 54  1  0
 14 55  1  0
 15 56  1  1
 16 57  1  0
 16 58  1  0
 17 59  1  0
 19 60  1  6
 20 61  1  0
 20 62  1  0
 21 63  1  0
 21 64  1  0
 22 65  1  6
 23 66  1  0
 25 67  1  0
 25 68  1  0
 25 69  1  0
 26 70  1  0
 26 71  1  0
 26 72  1  0
 28 73  1  0
 28 74  1  0
 28 75  1  0
 29 76  1  0
 29 77  1  0
 30 78  1  0
 30 79  1  0
 32 80  1  0
 32 81  1  0
 32 82  1  0
M  END
>  <meeko>  (14) 
{"is_sidechain": [false], "intermolecular_energy": 2.731, "internal_energy": -0.839}

$$$$
EPH_relaxed_0001_pdb2pqr_Repair_234_r2_0001_out
     RDKit          3D

 82 86  0  0  0  0  0  0  0  0999 V2000
    2.7120   18.9710   -1.0440 C   0  0  0  0  0  0  0  0  0  0  0  0
    2.4860   17.9450   -2.1580 C   0  0  2  0  0  0  0  0  0  0  0  0
    1.0950   18.0900   -2.8080 C   0  0  0  0  0  0  0  0  0  0  0  0
    0.3520   19.3620   -2.3920 C   0  0  0  0  0  0  0  0  0  0  0  0
   -0.9140   19.0480   -1.6540 C   0  0  2  0  0  0  0  0  0  0  0  0
   -1.6890   20.1950   -1.2800 O   0  0  0  0  0  0  0  0  0  0  0  0
   -1.1490   19.4160   -0.2010 C   0  0  0  0  0  0  0  0  0  0  0  0
   -0.1060   20.1290    0.6020 C   0  0  0  0  0  0  0  0  0  0  0  0
   -2.1820   18.6560    0.5720 C   0  0  0  0  0  0  0  0  0  0  0  0
    2.6600   16.5340   -1.6090 C   0  0  1  0  0  0  0  0  0  0  0  0
    3.3210   16.5170   -0.2050 C   0  0  0  0  0  0  0  0  0  0  0  0
    2.6810   15.3410    0.5770 C   0  0  0  0  0  0  0  0  0  0  0  0
    1.9260   14.5230   -0.4970 C   0  0  1  0  0  0  0  0  0  0  0  0
    3.0220   13.6420   -1.1740 C   0  0  0  0  0  0  0  0  0  0  0  0
    0.7240   13.6620    0.0090 C   0  0  2  0  0  0  0  0  0  0  0  0
    1.0910   12.5520    1.0090 C   0  0  0  0  0  0  0  0  0  0  0  0
    1.4210   11.2290    0.4010 C   0  0  0  0  0  0  0  0  0  0  0  0
    1.1490   10.8600   -0.8640 C   0  0  0  0  0  0  0  0  0  0  0  0
    0.3560   11.7820   -1.8000 C   0  0  1  0  0  0  0  0  0  0  0  0
   -0.7410   10.9610   -2.5280 C   0  0  0  0  0  0  0  0  0  0  0  0
   -0.1770    9.7420   -3.2500 C   0  0  0  0  0  0  0  0  0  0  0  0
    0.5530    8.8200   -2.2760 C   0  0  2  0  0  0  0  0  0  0  0  0
   -0.4010    8.2610   -1.3680 O   0  0  0  0  0  0  0  0  0  0  0  0
    1.6760    9.5400   -1.4780 C   0  0  0  0  0  0  0  0  0  0  0  0
    2.8530    9.8800   -2.4260 C   0  0  0  0  0  0  0  0  0  0  0  0
    2.2360    8.5370   -0.4330 C   0  0  0  0  0  0  0  0  0  0  0  0
   -0.2110   13.1140   -1.1450 C   0  0  1  0  0  0  0  0  0  0  0  0
   -1.6020   12.8360   -0.4960 C   0  0  0  0  0  0  0  0  0  0  0  0
   -0.4540   14.1810   -2.2760 C   0  0  0  0  0  0  0  0  0  0  0  0
    0.7390   15.0830   -2.6480 C   0  0  0  0  0  0  0  0  0  0  0  0
    1.3770   15.6910   -1.3960 C   0  0  2  0  0  0  0  0  0  0  0  0
    0.3050   16.6010   -0.7050 C   0  0  0  0  0  0  0  0  0  0  0  0
    2.6038   18.4799   -0.0657 H   0  0  0  0  0  0  0  0  0  0  0  0
    3.7244   19.3919   -1.1330 H   0  0  0  0  0  0  0  0  0  0  0  0
    1.9702   19.7783   -1.1330 H   0  0  0  0  0  0  0  0  0  0  0  0
    3.2367   18.1347   -2.9393 H   0  0  0  0  0  0  0  0  0  0  0  0
    1.2217   18.1032   -3.9006 H   0  0  0  0  0  0  0  0  0  0  0  0
    0.4897   17.2374   -2.4665 H   0  0  0  0  0  0  0  0  0  0  0  0
    1.0059   19.9597   -1.7400 H   0  0  0  0  0  0  0  0  0  0  0  0
    0.0886   19.9189   -3.3033 H   0  0  0  0  0  0  0  0  0  0  0  0
   -1.0269   18.1015   -2.2029 H   0  0  0  0  0  0  0  0  0  0  0  0
   -0.3098   19.9897    1.6739 H   0  0  0  0  0  0  0  0  0  0  0  0
    0.8860   19.7192    0.3611 H   0  0  0  0  0  0  0  0  0  0  0  0
   -0.1278   21.2021    0.3611 H   0  0  0  0  0  0  0  0  0  0  0  0
   -2.0037   18.7872    1.6495 H   0  0  0  0  0  0  0  0  0  0  0  0
   -3.1828   19.0347    0.3172 H   0  0  0  0  0  0  0  0  0  0  0  0
   -2.1183   17.5878    0.3172 H   0  0  0  0  0  0  0  0  0  0  0  0
    3.2690   16.0962   -2.4137 H   0  0  0  0  0  0  0  0  0  0  0  0
    4.4061   16.3632   -0.2991 H   0  0  0  0  0  0  0  0  0  0  0  0
    3.1620   17.4717    0.3178 H   0  0  0  0  0  0  0  0  0  0  0  0
    3.4565   14.7272    1.0585 H   0  0  0  0  0  0  0  0  0  0  0  0
    2.0155   15.6880    1.3812 H   0  0  0  0  0  0  0  0  0  0  0  0
    3.6301   13.1532   -0.3986 H   0  0  0  0  0  0  0  0  0  0  0  0
    2.5415   12.8759   -1.8003 H   0  0  0  0  0  0  0  0  0  0  0  0
    3.6669   14.2760   -1.8003 H   0  0  0  0  0  0  0  0  0  0  0  0
    0.1332   14.3939    0.5794 H   0  0  0  0  0  0  0  0  0  0  0  0
    1.9655   12.8890    1.5849 H   0  0  0  0  0  0  0  0  0  0  0  0
    0.1942   12.3886    1.6246 H   0  0  0  0  0  0  0  0  0  0  0  0
    1.9297   10.4935    1.0416 H   0  0  0  0  0  0  0  0  0  0  0  0
    1.0804   12.1682   -2.5322 H   0  0  0  0  0  0  0  0  0  0  0  0
   -1.4781   10.6212   -1.7855 H   0  0  0  0  0  0  0  0  0  0  0  0
   -1.1999   11.6144   -3.2847 H   0  0  0  0  0  0  0  0  0  0  0  0
   -1.0029    9.1879   -3.7199 H   0  0  0  0  0  0  0  0  0  0  0  0
    0.5385   10.0851   -4.0118 H   0  0  0  0  0  0  0  0  0  0  0  0
    1.0439    8.0341   -2.8688 H   0  0  0  0  0  0  0  0  0  0  0  0
   -0.9230    7.6030   -1.8580 H   0  0  0  0  0  0  0  0  0  0  0  0
    3.7413   10.1366   -1.8302 H   0  0  0  0  0  0  0  0  0  0  0  0
    3.0760    9.0095   -3.0605 H   0  0  0  0  0  0  0  0  0  0  0  0
    2.5775   10.7353   -3.0605 H   0  0  0  0  0  0  0  0  0  0  0  0
    2.0280    8.9095    0.5809 H   0  0  0  0  0  0  0  0  0  0  0  0
    1.7541    7.5577   -0.5698 H   0  0  0  0  0  0  0  0  0  0  0  0
    3.3225    8.4333   -0.5698 H   0  0  0  0  0  0  0  0  0  0  0  0
   -1.5058   12.8552    0.5996 H   0  0  0  0  0  0  0  0  0  0  0  0
   -2.3165   13.6091   -0.8150 H   0  0  0  0  0  0  0  0  0  0  0  0
   -1.9645   11.8476   -0.8150 H   0  0  0  0  0  0  0  0  0  0  0  0
   -0.7581   13.6400   -3.1842 H   0  0  0  0  0  0  0  0  0  0  0  0
   -1.2150   14.8633   -1.8694 H   0  0  0  0  0  0  0  0  0  0  0  0
    1.4917   14.4829   -3.1803 H   0  0  0  0  0  0  0  0  0  0  0  0
    0.3750   15.8999   -3.2884 H   0  0  0  0  0  0  0  0  0  0  0  0
    0.4028   16.5180    0.3875 H   0  0  0  0  0  0  0  0  0  0  0  0
    0.4610   17.6467   -1.0087 H   0  0  0  0  0  0  0  0  0  0  0  0
   -0.7015   16.2773   -1.0087 H   0  0  0  0  0  0  0  0  0  0  0  0
  1  2  1  0
  2  3  1  0
  3  4  1  0
  4  5  1  0
  5  6  1  0
  6  7  1  0
  7  8  1  0
  7  9  1  0
  2 10  1  0
 10 11  1  0
 11 12  1  0
 12 13  1  0
 13 14  1  6
 13 15  1  0
 15 16  1  0
 16 17  1  0
 17 18  2  0
 18 19  1  0
 19 20  1  0
 20 21  1  0
 21 22  1  0
 22 23  1  0
 22 24  1  0
 24 25  1  0
 24 26  1  0
 19 27  1  0
 27 28  1  1
 27 29  1  0
 29 30  1  0
 30 31  1  0
 31 32  1  1
  7  5  1  0
 31 10  1  0
 31 13  1  0
 27 15  1  0
 24 18  1  0
  1 33  1  0
  1 34  1  0
  1 35  1  0
  2 36  1  6
  3 37  1  0
  3 38  1  0
  4 39  1  0
  4 40  1  0
  5 41  1  1
  8 42  1  0
  8 43  1  0
  8 44  1  0
  9 45  1  0
  9 46  1  0
  9 47  1  0
 10 48  1  6
 11 49  1  0
 11 50  1  0
 12 51  1  0
 12 52  1  0
 14 53  1  0
 14 54  1  0
 14 55  1  0
 15 56  1  1
 16 57  1  0
 16 58  1  0
 17 59  1  0
 19 60  1  6
 20 61  1  0
 20 62  1  0
 21 63  1  0
 21 64  1  0
 22 65  1  6
 23 66  1  0
 25 67  1  0
 25 68  1  0
 25 69  1  0
 26 70  1  0
 26 71  1  0
 26 72  1  0
 28 73  1  0
 28 74  1  0
 28 75  1  0
 29 76  1  0
 29 77  1  0
 30 78  1  0
 30 79  1  0
 32 80  1  0
 32 81  1  0
 32 82  1  0
M  END
>  <meeko>  (15) 
{"is_sidechain": [false], "intermolecular_energy": 2.731, "internal_energy": -0.839}

$$$$
EPH_relaxed_0001_pdb2pqr_Repair_234_r2_0001_out
     RDKit          3D

 82 86  0  0  0  0  0  0  0  0999 V2000
    0.2720    9.9000   -4.7040 C   0  0  0  0  0  0  0  0  0  0  0  0
    1.3080   10.5840   -3.8070 C   0  0  2  0  0  0  0  0  0  0  0  0
    1.6680    9.7250   -2.5780 C   0  0  0  0  0  0  0  0  0  0  0  0
    0.5890    8.7050   -2.2020 C   0  0  0  0  0  0  0  0  0  0  0  0
   -0.2500    9.1820   -1.0550 C   0  0  2  0  0  0  0  0  0  0  0  0
   -0.7750    8.1400   -0.2240 O   0  0  0  0  0  0  0  0  0  0  0  0
   -1.7410    8.9230   -0.9450 C   0  0  0  0  0  0  0  0  0  0  0  0
   -2.4800    8.1580   -1.9980 C   0  0  0  0  0  0  0  0  0  0  0  0
   -2.5610    9.8220   -0.0720 C   0  0  0  0  0  0  0  0  0  0  0  0
    0.7890   11.9450   -3.3580 C   0  0  1  0  0  0  0  0  0  0  0  0
   -0.7230   11.9220   -3.0070 C   0  0  0  0  0  0  0  0  0  0  0  0
   -0.9240   12.9100   -1.8300 C   0  0  0  0  0  0  0  0  0  0  0  0
    0.3990   13.7090   -1.7600 C   0  0  1  0  0  0  0  0  0  0  0  0
    0.2660   14.8020   -2.8660 C   0  0  0  0  0  0  0  0  0  0  0  0
    0.7580   14.3320   -0.3720 C   0  0  2  0  0  0  0  0  0  0  0  0
   -0.2400   15.3810    0.1500 C   0  0  0  0  0  0  0  0  0  0  0  0
    0.0540   16.7910   -0.2440 C   0  0  0  0  0  0  0  0  0  0  0  0
    1.2220   17.2370   -0.7430 C   0  0  0  0  0  0  0  0  0  0  0  0
    2.4340   16.3040   -0.8640 C   0  0  1  0  0  0  0  0  0  0  0  0
    3.6960   17.0210   -0.3180 C   0  0  0  0  0  0  0  0  0  0  0  0
    3.9330   18.3750   -0.9810 C   0  0  0  0  0  0  0  0  0  0  0  0
    2.7300   19.2940   -0.7880 C   0  0  2  0  0  0  0  0  0  0  0  0
    2.6140   19.6170    0.6010 O   0  0  0  0  0  0  0  0  0  0  0  0
    1.3970   18.6730   -1.2940 C   0  0  0  0  0  0  0  0  0  0  0  0
    1.4090   18.6030   -2.8410 C   0  0  0  0  0  0  0  0  0  0  0  0
    0.2450   19.6410   -0.9120 C   0  0  0  0  0  0  0  0  0  0  0  0
    2.2500   14.8460   -0.2590 C   0  0  1  0  0  0  0  0  0  0  0  0
    2.6050   14.8520    1.2600 C   0  0  0  0  0  0  0  0  0  0  0  0
    3.2740   13.8700   -0.9500 C   0  0  0  0  0  0  0  0  0  0  0  0
    2.8150   13.1930   -2.2550 C   0  0  0  0  0  0  0  0  0  0  0  0
    1.4270   12.5660   -2.0900 C   0  0  2  0  0  0  0  0  0  0  0  0
    1.5350   11.4460   -0.9990 C   0  0  0  0  0  0  0  0  0  0  0  0
   -0.4829    9.4016   -4.0781 H   0  0  0  0  0  0  0  0  0  0  0  0
   -0.2174   10.6531   -5.3391 H   0  0  0  0  0  0  0  0  0  0  0  0
    0.7723    9.1541   -5.3391 H   0  0  0  0  0  0  0  0  0  0  0  0
    2.2256   10.7137   -4.3995 H   0  0  0  0  0  0  0  0  0  0  0  0
    2.5992    9.1813   -2.7951 H   0  0  0  0  0  0  0  0  0  0  0  0
    1.7720   10.4119   -1.7252 H   0  0  0  0  0  0  0  0  0  0  0  0
   -0.0611    8.5364   -3.0732 H   0  0  0  0  0  0  0  0  0  0  0  0
    1.0890    7.7739   -1.8969 H   0  0  0  0  0  0  0  0  0  0  0  0
    0.3471   10.1019   -0.9699 H   0  0  0  0  0  0  0  0  0  0  0  0
   -3.1680    7.4458   -1.5189 H   0  0  0  0  0  0  0  0  0  0  0  0
   -3.0535    8.8570   -2.6245 H   0  0  0  0  0  0  0  0  0  0  0  0
   -1.7616    7.6090   -2.6245 H   0  0  0  0  0  0  0  0  0  0  0  0
   -2.3544    9.5954    0.9844 H   0  0  0  0  0  0  0  0  0  0  0  0
   -2.3019   10.8707   -0.2796 H   0  0  0  0  0  0  0  0  0  0  0  0
   -3.6290    9.6602   -0.2796 H   0  0  0  0  0  0  0  0  0  0  0  0
    1.0507   12.5433   -4.2432 H   0  0  0  0  0  0  0  0  0  0  0  0
   -1.3183   12.2411   -3.8752 H   0  0  0  0  0  0  0  0  0  0  0  0
   -1.0491   10.9082   -2.7316 H   0  0  0  0  0  0  0  0  0  0  0  0
   -1.7729   13.5812   -2.0272 H   0  0  0  0  0  0  0  0  0  0  0  0
   -1.1493   12.3930   -0.8856 H   0  0  0  0  0  0  0  0  0  0  0  0
    0.1460   15.7884   -2.3942 H   0  0  0  0  0  0  0  0  0  0  0  0
    1.1707   14.8025   -3.4917 H   0  0  0  0  0  0  0  0  0  0  0  0
   -0.6124   14.5855   -3.4917 H   0  0  0  0  0  0  0  0  0  0  0  0
    0.6659   13.4699    0.3050 H   0  0  0  0  0  0  0  0  0  0  0  0
   -1.2378   15.1217   -0.2336 H   0  0  0  0  0  0  0  0  0  0  0  0
   -0.1688   15.3500    1.2473 H   0  0  0  0  0  0  0  0  0  0  0  0
   -0.7525   17.5280   -0.1156 H   0  0  0  0  0  0  0  0  0  0  0  0
    2.5557   16.1015   -1.9383 H   0  0  0  0  0  0  0  0  0  0  0  0
    3.5735   17.1750    0.7643 H   0  0  0  0  0  0  0  0  0  0  0  0
    4.5645   16.3837   -0.5406 H   0  0  0  0  0  0  0  0  0  0  0  0
    4.8208   18.8450   -0.5328 H   0  0  0  0  0  0  0  0  0  0  0  0
    4.0849   18.2167   -2.0589 H   0  0  0  0  0  0  0  0  0  0  0  0
    2.9045   20.1967   -1.3919 H   0  0  0  0  0  0  0  0  0  0  0  0
    2.3030   20.5360    0.6640 H   0  0  0  0  0  0  0  0  0  0  0  0
    1.5869   17.5653   -3.1597 H   0  0  0  0  0  0  0  0  0  0  0  0
    0.4391   18.9452   -3.2311 H   0  0  0  0  0  0  0  0  0  0  0  0
    2.2095   19.2487   -3.2311 H   0  0  0  0  0  0  0  0  0  0  0  0
    0.1683   19.7055    0.1834 H   0  0  0  0  0  0  0  0  0  0  0  0
    0.4530   20.6393   -1.3244 H   0  0  0  0  0  0  0  0  0  0  0  0
   -0.7026   19.2641   -1.3244 H   0  0  0  0  0  0  0  0  0  0  0  0
    1.6787   14.8363    1.8531 H   0  0  0  0  0  0  0  0  0  0  0  0
    3.2085   13.9639    1.4990 H   0  0  0  0  0  0  0  0  0  0  0  0
    3.1781   15.7600    1.4990 H   0  0  0  0  0  0  0  0  0  0  0  0
    4.1830   14.4468   -1.1761 H   0  0  0  0  0  0  0  0  0  0  0  0
    3.4165   13.0476   -0.2335 H   0  0  0  0  0  0  0  0  0  0  0  0
    2.7767   13.9456   -3.0564 H   0  0  0  0  0  0  0  0  0  0  0  0
    3.5311   12.3971   -2.5073 H   0  0  0  0  0  0  0  0  0  0  0  0
    1.4910   11.9026    0.0008 H   0  0  0  0  0  0  0  0  0  0  0  0
    0.7009   10.7385   -1.1160 H   0  0  0  0  0  0  0  0  0  0  0  0
    2.4889   10.9109   -1.1160 H   0  0  0  0  0  0  0  0  0  0  0  0
  1  2  1  0
  2  3  1  0
  3  4  1  0
  4  5  1  0
  5  6  1  0
  6  7  1  0
  7  8  1  0
  7  9  1  0
  2 10  1  0
 10 11  1  0
 11 12  1  0
 12 13  1  0
 13 14  1  6
 13 15  1  0
 15 16  1  0
 16 17  1  0
 17 18  2  0
 18 19  1  0
 19 20  1  0
 20 21  1  0
 21 22  1  0
 22 23  1  0
 22 24  1  0
 24 25  1  0
 24 26  1  0
 19 27  1  0
 27 28  1  1
 27 29  1  0
 29 30  1  0
 30 31  1  0
 31 32  1  1
  7  5  1  0
 31 10  1  0
 31 13  1  0
 27 15  1  0
 24 18  1  0
  1 33  1  0
  1 34  1  0
  1 35  1  0
  2 36  1  6
  3 37  1  0
  3 38  1  0
  4 39  1  0
  4 40  1  0
  5 41  1  1
  8 42  1  0
  8 43  1  0
  8 44  1  0
  9 45  1  0
  9 46  1  0
  9 47  1  0
 10 48  1  6
 11 49  1  0
 11 50  1  0
 12 51  1  0
 12 52  1  0
 14 53  1  0
 14 54  1  0
 14 55  1  0
 15 56  1  1
 16 57  1  0
 16 58  1  0
 17 59  1  0
 19 60  1  6
 20 61  1  0
 20 62  1  0
 21 63  1  0
 21 64  1  0
 22 65  1  6
 23 66  1  0
 25 67  1  0
 25 68  1  0
 25 69  1  0
 26 70  1  0
 26 71  1  0
 26 72  1  0
 28 73  1  0
 28 74  1  0
 28 75  1  0
 29 76  1  0
 29 77  1  0
 30 78  1  0
 30 79  1  0
 32 80  1  0
 32 81  1  0
 32 82  1  0
M  END
>  <meeko>  (16) 
{"is_sidechain": [false], "intermolecular_energy": 2.731, "internal_energy": -0.839}

$$$$
EPH_relaxed_0001_pdb2pqr_Repair_234_r2_0001_out
     RDKit          3D

 82 86  0  0  0  0  0  0  0  0999 V2000
    0.9160   14.8980   -2.6020 C   0  0  0  0  0  0  0  0  0  0  0  0
    1.1860   14.2270   -3.9510 C   0  0  2  0  0  0  0  0  0  0  0  0
    0.4890   14.9600   -5.1150 C   0  0  0  0  0  0  0  0  0  0  0  0
    1.0580   14.6080   -6.4920 C   0  0  0  0  0  0  0  0  0  0  0  0
    0.8120   15.6990   -7.4890 C   0  0  2  0  0  0  0  0  0  0  0  0
    0.3550   15.2480   -8.7710 O   0  0  0  0  0  0  0  0  0  0  0  0
    1.6420   15.8880   -8.7450 C   0  0  0  0  0  0  0  0  0  0  0  0
    2.7820   14.9750   -9.0710 C   0  0  0  0  0  0  0  0  0  0  0  0
    1.6580   17.2360   -9.3960 C   0  0  0  0  0  0  0  0  0  0  0  0
    0.7350   12.7710   -3.9070 C   0  0  1  0  0  0  0  0  0  0  0  0
    1.8670   11.7830   -4.2920 C   0  0  0  0  0  0  0  0  0  0  0  0
    1.6650   10.5120   -3.4270 C   0  0  0  0  0  0  0  0  0  0  0  0
    0.2500   10.6720   -2.8230 C   0  0  1  0  0  0  0  0  0  0  0  0
   -0.7230   10.2110   -3.9530 C   0  0  0  0  0  0  0  0  0  0  0  0
   -0.0190    9.9130   -1.4830 C   0  0  2  0  0  0  0  0  0  0  0  0
    0.0850    8.3800   -1.5700 C   0  0  0  0  0  0  0  0  0  0  0  0
   -1.1870    7.6720   -1.9000 C   0  0  0  0  0  0  0  0  0  0  0  0
   -2.4200    8.2100   -1.8400 C   0  0  0  0  0  0  0  0  0  0  0  0
   -2.6330    9.6340   -1.3110 C   0  0  1  0  0  0  0  0  0  0  0  0
   -3.8150    9.6410   -0.3070 C   0  0  0  0  0  0  0  0  0  0  0  0
   -5.0880    9.0410   -0.8970 C   0  0  0  0  0  0  0  0  0  0  0  0
   -4.8510    7.6060   -1.3580 C   0  0  2  0  0  0  0  0  0  0  0  0
   -4.5960    6.7890   -0.2110 O   0  0  0  0  0  0  0  0  0  0  0  0
   -3.6760    7.4720   -2.3660 C   0  0  0  0  0  0  0  0  0  0  0  0
   -4.0780    8.1040   -3.7220 C   0  0  0  0  0  0  0  0  0  0  0  0
   -3.4520    5.9610   -2.6410 C   0  0  0  0  0  0  0  0  0  0  0  0
   -1.3410   10.3610   -0.7380 C   0  0  1  0  0  0  0  0  0  0  0  0
   -1.1500    9.9990    0.7660 C   0  0  0  0  0  0  0  0  0  0  0  0
   -1.5610   11.9200   -0.7960 C   0  0  0  0  0  0  0  0  0  0  0  0
   -1.1640   12.6300   -2.1040 C   0  0  0  0  0  0  0  0  0  0  0  0
    0.2440   12.2200   -2.5450 C   0  0  2  0  0  0  0  0  0  0  0  0
    1.2480   12.6910   -1.4380 C   0  0  0  0  0  0  0  0  0  0  0  0
    1.1925   14.2108   -1.7888 H   0  0  0  0  0  0  0  0  0  0  0  0
    1.5139   15.8180   -2.5239 H   0  0  0  0  0  0  0  0  0  0  0  0
   -0.1525   15.1474   -2.5239 H   0  0  0  0  0  0  0  0  0  0  0  0
    2.2697   14.2752   -4.1332 H   0  0  0  0  0  0  0  0  0  0  0  0
   -0.5787   14.6956   -5.1024 H   0  0  0  0  0  0  0  0  0  0  0  0
    0.6563   16.0366   -4.9634 H   0  0  0  0  0  0  0  0  0  0  0  0
    2.1423   14.4478   -6.3993 H   0  0  0  0  0  0  0  0  0  0  0  0
    0.5539   13.6977   -6.8487 H   0  0  0  0  0  0  0  0  0  0  0  0
    0.5150   16.3938   -6.6896 H   0  0  0  0  0  0  0  0  0  0  0  0
    3.2377   14.6101   -8.1387 H   0  0  0  0  0  0  0  0  0  0  0  0
    2.4117   14.1209   -9.6570 H   0  0  0  0  0  0  0  0  0  0  0  0
    3.5346   15.5229   -9.6570 H   0  0  0  0  0  0  0  0  0  0  0  0
    1.6673   18.0171   -8.6215 H   0  0  0  0  0  0  0  0  0  0  0  0
    2.5573   17.3300  -10.0224 H   0  0  0  0  0  0  0  0  0  0  0  0
    0.7612   17.3513  -10.0224 H   0  0  0  0  0  0  0  0  0  0  0  0
   -0.1025   12.8157   -4.6187 H   0  0  0  0  0  0  0  0  0  0  0  0
    1.8008   11.5287   -5.3601 H   0  0  0  0  0  0  0  0  0  0  0  0
    2.8571   12.2282   -4.1145 H   0  0  0  0  0  0  0  0  0  0  0  0
    1.7218    9.6062   -4.0485 H   0  0  0  0  0  0  0  0  0  0  0  0
    2.4395   10.4067   -2.6530 H   0  0  0  0  0  0  0  0  0  0  0  0
   -1.6301    9.7812   -3.5030 H   0  0  0  0  0  0  0  0  0  0  0  0
   -0.9969   11.0751   -4.5762 H   0  0  0  0  0  0  0  0  0  0  0  0
   -0.2278    9.4518   -4.5762 H   0  0  0  0  0  0  0  0  0  0  0  0
    0.8252   10.2352   -0.8557 H   0  0  0  0  0  0  0  0  0  0  0  0
    0.8229    8.1330   -2.3475 H   0  0  0  0  0  0  0  0  0  0  0  0
    0.3720    8.0371   -0.5650 H   0  0  0  0  0  0  0  0  0  0  0  0
   -1.1107    6.6221   -2.2192 H   0  0  0  0  0  0  0  0  0  0  0  0
   -2.8835   10.2502   -2.1871 H   0  0  0  0  0  0  0  0  0  0  0  0
   -3.5279    9.0566    0.5796 H   0  0  0  0  0  0  0  0  0  0  0  0
   -4.0282   10.6890   -0.0498 H   0  0  0  0  0  0  0  0  0  0  0  0
   -5.8776    9.0474   -0.1312 H   0  0  0  0  0  0  0  0  0  0  0  0
   -5.3905    9.6438   -1.7660 H   0  0  0  0  0  0  0  0  0  0  0  0
   -5.7572    7.2763   -1.8872 H   0  0  0  0  0  0  0  0  0  0  0  0
   -3.7130    6.3970   -0.3190 H   0  0  0  0  0  0  0  0  0  0  0  0
   -4.6604    9.0196   -3.5415 H   0  0  0  0  0  0  0  0  0  0  0  0
   -3.1717    8.3526   -4.2937 H   0  0  0  0  0  0  0  0  0  0  0  0
   -4.6874    7.3886   -4.2937 H   0  0  0  0  0  0  0  0  0  0  0  0
   -3.3721    5.4223   -1.6853 H   0  0  0  0  0  0  0  0  0  0  0  0
   -4.3010    5.5632   -3.2163 H   0  0  0  0  0  0  0  0  0  0  0  0
   -2.5241    5.8266   -3.2163 H   0  0  0  0  0  0  0  0  0  0  0  0
   -1.5720   10.7989    1.3921 H   0  0  0  0  0  0  0  0  0  0  0  0
   -1.6659    9.0522    0.9836 H   0  0  0  0  0  0  0  0  0  0  0  0
   -0.0772    9.8904    0.9836 H   0  0  0  0  0  0  0  0  0  0  0  0
   -2.6306   12.1116   -0.6250 H   0  0  0  0  0  0  0  0  0  0  0  0
   -0.8897   12.3338   -0.0291 H   0  0  0  0  0  0  0  0  0  0  0  0
   -1.8813   12.3588   -2.8926 H   0  0  0  0  0  0  0  0  0  0  0  0
   -1.1747   13.7162   -1.9305 H   0  0  0  0  0  0  0  0  0  0  0  0
    0.8196   12.4900   -0.4450 H   0  0  0  0  0  0  0  0  0  0  0  0
    2.1960   12.1437   -1.5460 H   0  0  0  0  0  0  0  0  0  0  0  0
    1.4331   13.7699   -1.5460 H   0  0  0  0  0  0  0  0  0  0  0  0
  1  2  1  0
  2  3  1  0
  3  4  1  0
  4  5  1  0
  5  6  1  0
  6  7  1  0
  7  8  1  0
  7  9  1  0
  2 10  1  0
 10 11  1  0
 11 12  1  0
 12 13  1  0
 13 14  1  6
 13 15  1  0
 15 16  1  0
 16 17  1  0
 17 18  2  0
 18 19  1  0
 19 20  1  0
 20 21  1  0
 21 22  1  0
 22 23  1  0
 22 24  1  0
 24 25  1  0
 24 26  1  0
 19 27  1  0
 27 28  1  1
 27 29  1  0
 29 30  1  0
 30 31  1  0
 31 32  1  1
  7  5  1  0
 31 10  1  0
 31 13  1  0
 27 15  1  0
 24 18  1  0
  1 33  1  0
  1 34  1  0
  1 35  1  0
  2 36  1  6
  3 37  1  0
  3 38  1  0
  4 39  1  0
  4 40  1  0
  5 41  1  1
  8 42  1  0
  8 43  1  0
  8 44  1  0
  9 45  1  0
  9 46  1  0
  9 47  1  0
 10 48  1  6
 11 49  1  0
 11 50  1  0
 12 51  1  0
 12 52  1  0
 14 53  1  0
 14 54  1  0
 14 55  1  0
 15 56  1  1
 16 57  1  0
 16 58  1  0
 17 59  1  0
 19 60  1  6
 20 61  1  0
 20 62  1  0
 21 63  1  0
 21 64  1  0
 22 65  1  6
 23 66  1  0
 25 67  1  0
 25 68  1  0
 25 69  1  0
 26 70  1  0
 26 71  1  0
 26 72  1  0
 28 73  1  0
 28 74  1  0
 28 75  1  0
 29 76  1  0
 29 77  1  0
 30 78  1  0
 30 79  1  0
 32 80  1  0
 32 81  1  0
 32 82  1  0
M  END
>  <meeko>  (17) 
{"is_sidechain": [false], "intermolecular_energy": 2.731, "internal_energy": -0.839}

$$$$
EPH_relaxed_0001_pdb2pqr_Repair_234_r2_0001_out
     RDKit          3D

 82 86  0  0  0  0  0  0  0  0999 V2000
   -2.5000    7.8220    0.0270 C   0  0  0  0  0  0  0  0  0  0  0  0
   -3.1930    9.1830   -0.0760 C   0  0  2  0  0  0  0  0  0  0  0  0
   -4.6480    9.0590   -0.5720 C   0  0  0  0  0  0  0  0  0  0  0  0
   -5.1480    7.6140   -0.6530 C   0  0  0  0  0  0  0  0  0  0  0  0
   -6.0130    7.3940   -1.8570 C   0  0  2  0  0  0  0  0  0  0  0  0
   -6.9350    8.4560   -2.1350 O   0  0  0  0  0  0  0  0  0  0  0  0
   -7.5150    7.1890   -1.7830 C   0  0  0  0  0  0  0  0  0  0  0  0
   -8.2390    7.1950   -0.4730 C   0  0  0  0  0  0  0  0  0  0  0  0
   -8.2010    6.5030   -2.9220 C   0  0  0  0  0  0  0  0  0  0  0  0
   -2.4030   10.1000   -1.0040 C   0  0  1  0  0  0  0  0  0  0  0  0
   -3.0250   11.5170   -1.1150 C   0  0  0  0  0  0  0  0  0  0  0  0
   -1.8460   12.5130   -1.2600 C   0  0  0  0  0  0  0  0  0  0  0  0
   -0.6180   11.6220   -1.5600 C   0  0  1  0  0  0  0  0  0  0  0  0
   -0.7100   11.3140   -3.0870 C   0  0  0  0  0  0  0  0  0  0  0  0
    0.7760   12.2150   -1.1740 C   0  0  2  0  0  0  0  0  0  0  0  0
    1.1670   13.5030   -1.9180 C   0  0  0  0  0  0  0  0  0  0  0  0
    1.9190   13.3010   -3.1920 C   0  0  0  0  0  0  0  0  0  0  0  0
    2.5150   12.1570   -3.5750 C   0  0  0  0  0  0  0  0  0  0  0  0
    2.5490   10.9370   -2.6450 C   0  0  1  0  0  0  0  0  0  0  0  0
    3.9830   10.3450   -2.6200 C   0  0  0  0  0  0  0  0  0  0  0  0
    4.5100   10.0290   -4.0170 C   0  0  0  0  0  0  0  0  0  0  0  0
    4.5150   11.2790   -4.8930 C   0  0  2  0  0  0  0  0  0  0  0  0
    5.4760   12.2030   -4.3740 O   0  0  0  0  0  0  0  0  0  0  0  0
    3.1250   11.9680   -4.9860 C   0  0  0  0  0  0  0  0  0  0  0  0
    2.1610   11.0860   -5.8180 C   0  0  0  0  0  0  0  0  0  0  0  0
    3.2990   13.2900   -5.7810 C   0  0  0  0  0  0  0  0  0  0  0  0
    1.9560   11.1590   -1.1880 C   0  0  1  0  0  0  0  0  0  0  0  0
    3.0630   11.7160   -0.2410 C   0  0  0  0  0  0  0  0  0  0  0  0
    1.5200    9.7680   -0.5920 C   0  0  0  0  0  0  0  0  0  0  0  0
    0.0900    9.2930   -0.9110 C   0  0  0  0  0  0  0  0  0  0  0  0
   -0.9310   10.3980   -0.6250 C   0  0  2  0  0  0  0  0  0  0  0  0
   -0.8770   10.7140    0.9090 C   0  0  0  0  0  0  0  0  0  0  0  0
   -2.3657    7.5582    1.0864 H   0  0  0  0  0  0  0  0  0  0  0  0
   -3.1185    7.0574   -0.4657 H   0  0  0  0  0  0  0  0  0  0  0  0
   -1.5178    7.8724   -0.4657 H   0  0  0  0  0  0  0  0  0  0  0  0
   -3.2249    9.6147    0.9353 H   0  0  0  0  0  0  0  0  0  0  0  0
   -5.2993    9.6139    0.1192 H   0  0  0  0  0  0  0  0  0  0  0  0
   -4.6762    9.4674   -1.5930 H   0  0  0  0  0  0  0  0  0  0  0  0
   -4.2810    6.9393   -0.7087 H   0  0  0  0  0  0  0  0  0  0  0  0
   -5.7501    7.4084    0.2443 H   0  0  0  0  0  0  0  0  0  0  0  0
   -5.2143    6.8247   -2.3550 H   0  0  0  0  0  0  0  0  0  0  0  0
   -7.5087    7.1889    0.3496 H   0  0  0  0  0  0  0  0  0  0  0  0
   -8.8627    8.0983   -0.4029 H   0  0  0  0  0  0  0  0  0  0  0  0
   -8.8776    6.3021   -0.4029 H   0  0  0  0  0  0  0  0  0  0  0  0
   -8.9274    5.7766   -2.5287 H   0  0  0  0  0  0  0  0  0  0  0  0
   -8.7251    7.2491   -3.5374 H   0  0  0  0  0  0  0  0  0  0  0  0
   -7.4549    5.9789   -3.5374 H   0  0  0  0  0  0  0  0  0  0  0  0
   -2.4402    9.5038   -1.9277 H   0  0  0  0  0  0  0  0  0  0  0  0
   -3.6804   11.5750   -1.9965 H   0  0  0  0  0  0  0  0  0  0  0  0
   -3.6335   11.7517   -0.2292 H   0  0  0  0  0  0  0  0  0  0  0  0
   -2.0291   13.2137   -2.0880 H   0  0  0  0  0  0  0  0  0  0  0  0
   -1.7055   13.1276   -0.3586 H   0  0  0  0  0  0  0  0  0  0  0  0
   -1.0221   10.2692   -3.2322 H   0  0  0  0  0  0  0  0  0  0  0  0
   -1.4470   11.9849   -3.5526 H   0  0  0  0  0  0  0  0  0  0  0  0
    0.2742   11.4708   -3.5526 H   0  0  0  0  0  0  0  0  0  0  0  0
    0.6234   12.5109   -0.1256 H   0  0  0  0  0  0  0  0  0  0  0  0
    0.2440   14.0538   -2.1519 H   0  0  0  0  0  0  0  0  0  0  0  0
    1.8472   14.0475   -1.2465 H   0  0  0  0  0  0  0  0  0  0  0  0
    1.9920   14.1600   -3.8752 H   0  0  0  0  0  0  0  0  0  0  0  0
    1.8502   10.2058   -3.0774 H   0  0  0  0  0  0  0  0  0  0  0  0
    4.6569   11.0733   -2.1453 H   0  0  0  0  0  0  0  0  0  0  0  0
    3.9449    9.4013   -2.0561 H   0  0  0  0  0  0  0  0  0  0  0  0
    5.5365    9.6421   -3.9357 H   0  0  0  0  0  0  0  0  0  0  0  0
    3.8520    9.2785   -4.4794 H   0  0  0  0  0  0  0  0  0  0  0  0
    4.7780   10.9644   -5.9137 H   0  0  0  0  0  0  0  0  0  0  0  0
    5.0850   12.6250   -3.5900 H   0  0  0  0  0  0  0  0  0  0  0  0
    1.5218   10.5012   -5.1401 H   0  0  0  0  0  0  0  0  0  0  0  0
    1.5320   11.7279   -6.4523 H   0  0  0  0  0  0  0  0  0  0  0  0
    2.7446   10.4026   -6.4523 H   0  0  0  0  0  0  0  0  0  0  0  0
    3.4094   14.1288   -5.0780 H   0  0  0  0  0  0  0  0  0  0  0  0
    4.1959   13.2218   -6.4142 H   0  0  0  0  0  0  0  0  0  0  0  0
    2.4150   13.4562   -6.4142 H   0  0  0  0  0  0  0  0  0  0  0  0
    2.7607   11.5639    0.8057 H   0  0  0  0  0  0  0  0  0  0  0  0
    4.0082   11.1862   -0.4304 H   0  0  0  0  0  0  0  0  0  0  0  0
    3.2008   12.7908   -0.4304 H   0  0  0  0  0  0  0  0  0  0  0  0
    2.2165    9.0083   -0.9764 H   0  0  0  0  0  0  0  0  0  0  0  0
    1.5415    9.9032    0.4995 H   0  0  0  0  0  0  0  0  0  0  0  0
    0.0317    9.0154   -1.9738 H   0  0  0  0  0  0  0  0  0  0  0  0
   -0.1424    8.4271   -0.2737 H   0  0  0  0  0  0  0  0  0  0  0  0
   -1.0354    9.7873    1.4801 H   0  0  0  0  0  0  0  0  0  0  0  0
    0.1064   11.1370    1.1618 H   0  0  0  0  0  0  0  0  0  0  0  0
   -1.6642   11.4396    1.1618 H   0  0  0  0  0  0  0  0  0  0  0  0
  1  2  1  0
  2  3  1  0
  3  4  1  0
  4  5  1  0
  5  6  1  0
  6  7  1  0
  7  8  1  0
  7  9  1  0
  2 10  1  0
 10 11  1  0
 11 12  1  0
 12 13  1  0
 13 14  1  6
 13 15  1  0
 15 16  1  0
 16 17  1  0
 17 18  2  0
 18 19  1  0
 19 20  1  0
 20 21  1  0
 21 22  1  0
 22 23  1  0
 22 24  1  0
 24 25  1  0
 24 26  1  0
 19 27  1  0
 27 28  1  1
 27 29  1  0
 29 30  1  0
 30 31  1  0
 31 32  1  1
  7  5  1  0
 31 10  1  0
 31 13  1  0
 27 15  1  0
 24 18  1  0
  1 33  1  0
  1 34  1  0
  1 35  1  0
  2 36  1  1
  3 37  1  0
  3 38  1  0
  4 39  1  0
  4 40  1  0
  5 41  1  6
  8 42  1  0
  8 43  1  0
  8 44  1  0
  9 45  1  0
  9 46  1  0
  9 47  1  0
 10 48  1  6
 11 49  1  0
 11 50  1  0
 12 51  1  0
 12 52  1  0
 14 53  1  0
 14 54  1  0
 14 55  1  0
 15 56  1  1
 16 57  1  0
 16 58  1  0
 17 59  1  0
 19 60  1  6
 20 61  1  0
 20 62  1  0
 21 63  1  0
 21 64  1  0
 22 65  1  6
 23 66  1  0
 25 67  1  0
 25 68  1  0
 25 69  1  0
 26 70  1  0
 26 71  1  0
 26 72  1  0
 28 73  1  0
 28 74  1  0
 28 75  1  0
 29 76  1  0
 29 77  1  0
 30 78  1  0
 30 79  1  0
 32 80  1  0
 32 81  1  0
 32 82  1  0
M  END
>  <meeko>  (18) 
{"is_sidechain": [false], "intermolecular_energy": 2.731, "internal_energy": -0.839}

$$$$
EPH_relaxed_0001_pdb2pqr_Repair_234_r2_0001_out
     RDKit          3D

 82 86  0  0  0  0  0  0  0  0999 V2000
    3.1120   14.8340   -7.5470 C   0  0  0  0  0  0  0  0  0  0  0  0
    1.5880   14.8790   -7.4010 C   0  0  2  0  0  0  0  0  0  0  0  0
    0.9780   16.1270   -8.0700 C   0  0  0  0  0  0  0  0  0  0  0  0
    1.9080   16.7990   -9.0840 C   0  0  0  0  0  0  0  0  0  0  0  0
    1.5810   16.3940  -10.4900 C   0  0  2  0  0  0  0  0  0  0  0  0
    1.0030   15.0880  -10.6170 O   0  0  0  0  0  0  0  0  0  0  0  0
    2.2920   15.2720  -11.2230 C   0  0  0  0  0  0  0  0  0  0  0  0
    3.3880   14.4860  -10.5730 C   0  0  0  0  0  0  0  0  0  0  0  0
    2.2620   15.2630  -12.7200 C   0  0  0  0  0  0  0  0  0  0  0  0
    1.2060   14.8390   -5.9260 C   0  0  1  0  0  0  0  0  0  0  0  0
   -0.0490   15.6960   -5.6110 C   0  0  0  0  0  0  0  0  0  0  0  0
   -0.8260   14.9560   -4.4920 C   0  0  0  0  0  0  0  0  0  0  0  0
    0.1630   13.8870   -3.9720 C   0  0  1  0  0  0  0  0  0  0  0  0
    1.1010   14.6540   -2.9880 C   0  0  0  0  0  0  0  0  0  0  0  0
   -0.4730   12.6270   -3.2990 C   0  0  2  0  0  0  0  0  0  0  0  0
   -1.2890   12.9080   -2.0250 C   0  0  0  0  0  0  0  0  0  0  0  0
   -0.5170   12.8540   -0.7490 C   0  0  0  0  0  0  0  0  0  0  0  0
    0.7070   12.3140   -0.5970 C   0  0  0  0  0  0  0  0  0  0  0  0
    1.4000   11.5940   -1.7600 C   0  0  1  0  0  0  0  0  0  0  0  0
    1.9880   10.2480   -1.2600 C   0  0  0  0  0  0  0  0  0  0  0  0
    2.9050   10.4240   -0.0530 C   0  0  0  0  0  0  0  0  0  0  0  0
    2.1630   11.0900    1.1030 C   0  0  2  0  0  0  0  0  0  0  0  0
    1.1520   10.1970    1.5780 O   0  0  0  0  0  0  0  0  0  0  0  0
    1.5190   12.4500    0.7140 C   0  0  0  0  0  0  0  0  0  0  0  0
    2.6290   13.5070    0.4910 C   0  0  0  0  0  0  0  0  0  0  0  0
    0.6850   12.9470    1.9260 C   0  0  0  0  0  0  0  0  0  0  0  0
    0.5370   11.4280   -3.0850 C   0  0  1  0  0  0  0  0  0  0  0  0
   -0.3230   10.1300   -3.0010 C   0  0  0  0  0  0  0  0  0  0  0  0
    1.5080   11.2370   -4.3100 C   0  0  0  0  0  0  0  0  0  0  0  0
    2.0070   12.5180   -5.0070 C   0  0  0  0  0  0  0  0  0  0  0  0
    0.8410   13.4590   -5.3240 C   0  0  2  0  0  0  0  0  0  0  0  0
   -0.1080   12.7230   -6.3290 C   0  0  0  0  0  0  0  0  0  0  0  0
    3.5756   14.8203   -6.5496 H   0  0  0  0  0  0  0  0  0  0  0  0
    3.4009   13.9269   -8.0981 H   0  0  0  0  0  0  0  0  0  0  0  0
    3.4539   15.7224   -8.0981 H   0  0  0  0  0  0  0  0  0  0  0  0
    1.1796   13.9961   -7.9146 H   0  0  0  0  0  0  0  0  0  0  0  0
    0.0564   15.8267   -8.5900 H   0  0  0  0  0  0  0  0  0  0  0  0
    0.7899   16.8599   -7.2716 H   0  0  0  0  0  0  0  0  0  0  0  0
    1.8042   17.8904   -8.9942 H   0  0  0  0  0  0  0  0  0  0  0  0
    2.9386   16.4817   -8.8667 H   0  0  0  0  0  0  0  0  0  0  0  0
    1.3667   17.4369  -10.7666 H   0  0  0  0  0  0  0  0  0  0  0  0
    3.2905   14.5559   -9.4796 H   0  0  0  0  0  0  0  0  0  0  0  0
    3.3159   13.4324  -10.8809 H   0  0  0  0  0  0  0  0  0  0  0  0
    4.3628   14.8922  -10.8809 H   0  0  0  0  0  0  0  0  0  0  0  0
    1.2615   14.9628  -13.0649 H   0  0  0  0  0  0  0  0  0  0  0  0
    2.4931   16.2700  -13.0974 H   0  0  0  0  0  0  0  0  0  0  0  0
    3.0093   14.5495  -13.0974 H   0  0  0  0  0  0  0  0  0  0  0  0
    2.1425   15.2076   -5.4821 H   0  0  0  0  0  0  0  0  0  0  0  0
    0.2520   16.6960   -5.2656 H   0  0  0  0  0  0  0  0  0  0  0  0
   -0.6741   15.8255   -6.5068 H   0  0  0  0  0  0  0  0  0  0  0  0
   -1.1042   15.6520   -3.6869 H   0  0  0  0  0  0  0  0  0  0  0  0
   -1.7642   14.5135   -4.8581 H   0  0  0  0  0  0  0  0  0  0  0  0
    0.8152   14.4203   -1.9518 H   0  0  0  0  0  0  0  0  0  0  0  0
    2.1429   14.3458   -3.1594 H   0  0  0  0  0  0  0  0  0  0  0  0
    1.0059   15.7364   -3.1594 H   0  0  0  0  0  0  0  0  0  0  0  0
   -1.2028   12.3000   -4.0543 H   0  0  0  0  0  0  0  0  0  0  0  0
   -1.7256   13.9135   -2.1159 H   0  0  0  0  0  0  0  0  0  0  0  0
   -2.0393   12.1062   -1.9610 H   0  0  0  0  0  0  0  0  0  0  0  0
   -0.9879   13.2926    0.1431 H   0  0  0  0  0  0  0  0  0  0  0  0
    2.2138   12.2579   -2.0869 H   0  0  0  0  0  0  0  0  0  0  0  0
    1.1580    9.5832   -0.9786 H   0  0  0  0  0  0  0  0  0  0  0  0
    2.5885    9.8213   -2.0769 H   0  0  0  0  0  0  0  0  0  0  0  0
    3.2660    9.4370    0.2719 H   0  0  0  0  0  0  0  0  0  0  0  0
    3.7497   11.0656   -0.3443 H   0  0  0  0  0  0  0  0  0  0  0  0
    2.9020   11.3060    1.8887 H   0  0  0  0  0  0  0  0  0  0  0  0
    0.9190   10.4690    2.4820 H   0  0  0  0  0  0  0  0  0  0  0  0
    2.9999   13.8602    1.4645 H   0  0  0  0  0  0  0  0  0  0  0  0
    3.4571   13.0553   -0.0749 H   0  0  0  0  0  0  0  0  0  0  0  0
    2.2183   14.3562   -0.0749 H   0  0  0  0  0  0  0  0  0  0  0  0
    1.1834   12.6500    2.8605 H   0  0  0  0  0  0  0  0  0  0  0  0
    0.6002   14.0431    1.8880 H   0  0  0  0  0  0  0  0  0  0  0  0
   -0.3194   12.5000    1.8880 H   0  0  0  0  0  0  0  0  0  0  0  0
   -0.4944    9.8714   -1.9457 H   0  0  0  0  0  0  0  0  0  0  0  0
   -1.2894   10.2976   -3.4990 H   0  0  0  0  0  0  0  0  0  0  0  0
    0.2081    9.3054   -3.4990 H   0  0  0  0  0  0  0  0  0  0  0  0
    2.3910   10.6872   -3.9523 H   0  0  0  0  0  0  0  0  0  0  0  0
    0.9129   10.7089   -5.0696 H   0  0  0  0  0  0  0  0  0  0  0  0
    2.7168   13.0350   -4.3445 H   0  0  0  0  0  0  0  0  0  0  0  0
    2.4967   12.2359   -5.9507 H   0  0  0  0  0  0  0  0  0  0  0  0
   -0.8561   12.1428   -5.7690 H   0  0  0  0  0  0  0  0  0  0  0  0
   -0.6177   13.4643   -6.9620 H   0  0  0  0  0  0  0  0  0  0  0  0
    0.4832   12.0449   -6.9620 H   0  0  0  0  0  0  0  0  0  0  0  0
  1  2  1  0
  2  3  1  0
  3  4  1  0
  4  5  1  0
  5  6  1  0
  6  7  1  0
  7  8  1  0
  7  9  1  0
  2 10  1  0
 10 11  1  0
 11 12  1  0
 12 13  1  0
 13 14  1  1
 13 15  1  0
 15 16  1  0
 16 17  1  0
 17 18  2  0
 18 19  1  0
 19 20  1  0
 20 21  1  0
 21 22  1  0
 22 23  1  0
 22 24  1  0
 24 25  1  0
 24 26  1  0
 19 27  1  0
 27 28  1  1
 27 29  1  0
 29 30  1  0
 30 31  1  0
 31 32  1  6
  7  5  1  0
 31 10  1  0
 31 13  1  0
 27 15  1  0
 24 18  1  0
  1 33  1  0
  1 34  1  0
  1 35  1  0
  2 36  1  6
  3 37  1  0
  3 38  1  0
  4 39  1  0
  4 40  1  0
  5 41  1  6
  8 42  1  0
  8 43  1  0
  8 44  1  0
  9 45  1  0
  9 46  1  0
  9 47  1  0
 10 48  1  1
 11 49  1  0
 11 50  1  0
 12 51  1  0
 12 52  1  0
 14 53  1  0
 14 54  1  0
 14 55  1  0
 15 56  1  6
 16 57  1  0
 16 58  1  0
 17 59  1  0
 19 60  1  6
 20 61  1  0
 20 62  1  0
 21 63  1  0
 21 64  1  0
 22 65  1  1
 23 66  1  0
 25 67  1  0
 25 68  1  0
 25 69  1  0
 26 70  1  0
 26 71  1  0
 26 72  1  0
 28 73  1  0
 28 74  1  0
 28 75  1  0
 29 76  1  0
 29 77  1  0
 30 78  1  0
 30 79  1  0
 32 80  1  0
 32 81  1  0
 32 82  1  0
M  END
>  <meeko>  (19) 
{"is_sidechain": [false], "intermolecular_energy": 2.731, "internal_energy": -0.839}

$$$$
