EPH_relaxed_0001_pdb2pqr_Repair_367_r2_0001_out
     RDKit          3D

 82 86  0  0  0  0  0  0  0  0999 V2000
   -1.6230    8.6190   -1.7360 C   0  0  0  0  0  0  0  0  0  0  0  0
   -2.0540    9.2480   -0.4080 C   0  0  2  0  0  0  0  0  0  0  0  0
   -3.5330    9.6840   -0.4240 C   0  0  0  0  0  0  0  0  0  0  0  0
   -4.4810    8.6660    0.2140 C   0  0  0  0  0  0  0  0  0  0  0  0
   -5.2400    7.8910   -0.8200 C   0  0  2  0  0  0  0  0  0  0  0  0
   -6.2680    8.6320   -1.4890 O   0  0  0  0  0  0  0  0  0  0  0  0
   -6.7070    7.5270   -0.6840 C   0  0  0  0  0  0  0  0  0  0  0  0
   -7.5020    7.9270    0.5190 C   0  0  0  0  0  0  0  0  0  0  0  0
   -7.2350    6.3730   -1.4790 C   0  0  0  0  0  0  0  0  0  0  0  0
   -1.1630   10.4420   -0.0860 C   0  0  1  0  0  0  0  0  0  0  0  0
   -0.0790   10.1100    0.9750 C   0  0  0  0  0  0  0  0  0  0  0  0
    1.1830   10.9270    0.5960 C   0  0  0  0  0  0  0  0  0  0  0  0
    0.6870   11.9440   -0.4590 C   0  0  1  0  0  0  0  0  0  0  0  0
    0.0350   13.0950    0.3690 C   0  0  0  0  0  0  0  0  0  0  0  0
    1.7630   12.4860   -1.4550 C   0  0  2  0  0  0  0  0  0  0  0  0
    2.9100   13.2800   -0.8070 C   0  0  0  0  0  0  0  0  0  0  0  0
    2.6820   14.7510   -0.6910 C   0  0  0  0  0  0  0  0  0  0  0  0
    1.7330   15.4490   -1.3420 C   0  0  0  0  0  0  0  0  0  0  0  0
    0.8250   14.7700   -2.3760 C   0  0  1  0  0  0  0  0  0  0  0  0
    0.7420   15.6510   -3.6500 C   0  0  0  0  0  0  0  0  0  0  0  0
    0.3100   17.0820   -3.3450 C   0  0  0  0  0  0  0  0  0  0  0  0
    1.2700   17.7430   -2.3590 C   0  0  2  0  0  0  0  0  0  0  0  0
    2.5430   17.9040   -2.9920 O   0  0  0  0  0  0  0  0  0  0  0  0
    1.4410   16.9390   -1.0390 C   0  0  0  0  0  0  0  0  0  0  0  0
    0.1370   17.0210   -0.2070 C   0  0  0  0  0  0  0  0  0  0  0  0
    2.5400   17.6390   -0.1940 C   0  0  0  0  0  0  0  0  0  0  0  0
    1.1630   13.2520   -2.7040 C   0  0  1  0  0  0  0  0  0  0  0  0
    2.2380   13.1770   -3.8300 C   0  0  0  0  0  0  0  0  0  0  0  0
   -0.1260   12.5500   -3.2730 C   0  0  0  0  0  0  0  0  0  0  0  0
   -1.0910   11.9290   -2.2450 C   0  0  0  0  0  0  0  0  0  0  0  0
   -0.3350   11.0450   -1.2480 C   0  0  2  0  0  0  0  0  0  0  0  0
    0.3130    9.8650   -2.0490 C   0  0  0  0  0  0  0  0  0  0  0  0
   -1.0114    7.7265   -1.5376 H   0  0  0  0  0  0  0  0  0  0  0  0
   -2.5149    8.3317   -2.3122 H   0  0  0  0  0  0  0  0  0  0  0  0
   -1.0331    9.3470   -2.3122 H   0  0  0  0  0  0  0  0  0  0  0  0
   -1.9449    8.4805    0.3724 H   0  0  0  0  0  0  0  0  0  0  0  0
   -3.6214   10.6328    0.1255 H   0  0  0  0  0  0  0  0  0  0  0  0
   -3.8283    9.7812   -1.4792 H   0  0  0  0  0  0  0  0  0  0  0  0
   -3.8928    7.9649    0.8243 H   0  0  0  0  0  0  0  0  0  0  0  0
   -5.2068    9.2143    0.8326 H   0  0  0  0  0  0  0  0  0  0  0  0
   -4.3494    7.2902   -1.0565 H   0  0  0  0  0  0  0  0  0  0  0  0
   -6.9520    7.6503    1.4306 H   0  0  0  0  0  0  0  0  0  0  0  0
   -7.6655    9.0147    0.5054 H   0  0  0  0  0  0  0  0  0  0  0  0
   -8.4729    7.4101    0.5054 H   0  0  0  0  0  0  0  0  0  0  0  0
   -7.5934    5.5898   -0.7948 H   0  0  0  0  0  0  0  0  0  0  0  0
   -8.0665    6.7144   -2.1131 H   0  0  0  0  0  0  0  0  0  0  0  0
   -6.4330    5.9671   -2.1131 H   0  0  0  0  0  0  0  0  0  0  0  0
   -1.9287   11.1602    0.2426 H   0  0  0  0  0  0  0  0  0  0  0  0
   -0.4294   10.3974    1.9773 H   0  0  0  0  0  0  0  0  0  0  0  0
    0.1391    9.0320    0.9928 H   0  0  0  0  0  0  0  0  0  0  0  0
    1.5878   11.4472    1.4766 H   0  0  0  0  0  0  0  0  0  0  0  0
    1.9931   10.2894    0.2123 H   0  0  0  0  0  0  0  0  0  0  0  0
    0.1530   12.8867    1.4426 H   0  0  0  0  0  0  0  0  0  0  0  0
    0.5277   14.0475    0.1240 H   0  0  0  0  0  0  0  0  0  0  0  0
   -1.0353   13.1621    0.1240 H   0  0  0  0  0  0  0  0  0  0  0  0
    2.2186   11.5605   -1.8369 H   0  0  0  0  0  0  0  0  0  0  0  0
    3.0707   12.8802    0.2051 H   0  0  0  0  0  0  0  0  0  0  0  0
    3.7778   13.1583   -1.4720 H   0  0  0  0  0  0  0  0  0  0  0  0
    3.3458   15.3117   -0.0164 H   0  0  0  0  0  0  0  0  0  0  0  0
   -0.1678   14.6968   -1.9081 H   0  0  0  0  0  0  0  0  0  0  0  0
    1.7331   15.6759   -4.1266 H   0  0  0  0  0  0  0  0  0  0  0  0
   -0.0154   15.2080   -4.3134 H   0  0  0  0  0  0  0  0  0  0  0  0
    0.2985   17.6616   -4.2798 H   0  0  0  0  0  0  0  0  0  0  0  0
   -0.6936   17.0576   -2.8953 H   0  0  0  0  0  0  0  0  0  0  0  0
    0.8391   18.7161   -2.0808 H   0  0  0  0  0  0  0  0  0  0  0  0
    3.1040   18.4280   -2.3950 H   0  0  0  0  0  0  0  0  0  0  0  0
    0.3843   17.0055    0.8647 H   0  0  0  0  0  0  0  0  0  0  0  0
   -0.3933   17.9543   -0.4474 H   0  0  0  0  0  0  0  0  0  0  0  0
   -0.5060   16.1615   -0.4474 H   0  0  0  0  0  0  0  0  0  0  0  0
    2.3235   17.5011    0.8756 H   0  0  0  0  0  0  0  0  0  0  0  0
    3.5200   17.1983   -0.4296 H   0  0  0  0  0  0  0  0  0  0  0  0
    2.5549   18.7134   -0.4296 H   0  0  0  0  0  0  0  0  0  0  0  0
    3.2383   13.1072   -3.3778 H   0  0  0  0  0  0  0  0  0  0  0  0
    2.0547   12.2895   -4.4534 H   0  0  0  0  0  0  0  0  0  0  0  0
    2.1797   14.0814   -4.4534 H   0  0  0  0  0  0  0  0  0  0  0  0
   -0.6889   13.3018   -3.8457 H   0  0  0  0  0  0  0  0  0  0  0  0
    0.2467   11.7020   -3.8662 H   0  0  0  0  0  0  0  0  0  0  0  0
   -1.6005   12.7352   -1.6969 H   0  0  0  0  0  0  0  0  0  0  0  0
   -1.8222   11.3066   -2.7816 H   0  0  0  0  0  0  0  0  0  0  0  0
    0.7199    9.1240   -1.3452 H   0  0  0  0  0  0  0  0  0  0  0  0
   -0.4502    9.3889   -2.6821 H   0  0  0  0  0  0  0  0  0  0  0  0
    1.1243   10.2535   -2.6821 H   0  0  0  0  0  0  0  0  0  0  0  0
  1  2  1  0
  2  3  1  0
  3  4  1  0
  4  5  1  0
  5  6  1  0
  6  7  1  0
  7  8  1  0
  7  9  1  0
  2 10  1  0
 10 11  1  0
 11 12  1  0
 12 13  1  0
 13 14  1  1
 13 15  1  0
 15 16  1  0
 16 17  1  0
 17 18  2  0
 18 19  1  0
 19 20  1  0
 20 21  1  0
 21 22  1  0
 22 23  1  0
 22 24  1  0
 24 25  1  0
 24 26  1  0
 19 27  1  0
 27 28  1  6
 27 29  1  0
 29 30  1  0
 30 31  1  0
 31 32  1  6
  7  5  1  0
 31 10  1  0
 31 13  1  0
 27 15  1  0
 24 18  1  0
  1 33  1  0
  1 34  1  0
  1 35  1  0
  2 36  1  1
  3 37  1  0
  3 38  1  0
  4 39  1  0
  4 40  1  0
  5 41  1  6
  8 42  1  0
  8 43  1  0
  8 44  1  0
  9 45  1  0
  9 46  1  0
  9 47  1  0
 10 48  1  1
 11 49  1  0
 11 50  1  0
 12 51  1  0
 12 52  1  0
 14 53  1  0
 14 54  1  0
 14 55  1  0
 15 56  1  6
 16 57  1  0
 16 58  1  0
 17 59  1  0
 19 60  1  1
 20 61  1  0
 20 62  1  0
 21 63  1  0
 21 64  1  0
 22 65  1  1
 23 66  1  0
 25 67  1  0
 25 68  1  0
 25 69  1  0
 26 70  1  0
 26 71  1  0
 26 72  1  0
 28 73  1  0
 28 74  1  0
 28 75  1  0
 29 76  1  0
 29 77  1  0
 30 78  1  0
 30 79  1  0
 32 80  1  0
 32 81  1  0
 32 82  1  0
M  END
>  <meeko>  (1) 
{"is_sidechain": [false], "intermolecular_energy": 2.731, "internal_energy": -0.839}

$$$$
EPH_relaxed_0001_pdb2pqr_Repair_367_r2_0001_out
     RDKit          3D

 82 86  0  0  0  0  0  0  0  0999 V2000
    1.9670   19.6640   -0.5700 C   0  0  0  0  0  0  0  0  0  0  0  0
    2.3640   18.4370    0.2550 C   0  0  2  0  0  0  0  0  0  0  0  0
    3.8180   18.0010   -0.0160 C   0  0  0  0  0  0  0  0  0  0  0  0
    4.7610   18.2310    1.1680 C   0  0  0  0  0  0  0  0  0  0  0  0
    4.0910   18.9970    2.2690 C   0  0  2  0  0  0  0  0  0  0  0  0
    4.7730   20.1930    2.6670 O   0  0  0  0  0  0  0  0  0  0  0  0
    4.6840   19.1560    3.6570 C   0  0  0  0  0  0  0  0  0  0  0  0
    6.0010   18.5440    4.0180 C   0  0  0  0  0  0  0  0  0  0  0  0
    3.7660   19.4850    4.7930 C   0  0  0  0  0  0  0  0  0  0  0  0
    1.4110   17.2840   -0.0360 C   0  0  1  0  0  0  0  0  0  0  0  0
    0.1430   17.7380   -0.8070 C   0  0  0  0  0  0  0  0  0  0  0  0
   -0.2380   16.5790   -1.7640 C   0  0  0  0  0  0  0  0  0  0  0  0
    0.6120   15.3800   -1.2820 C   0  0  1  0  0  0  0  0  0  0  0  0
   -0.1710   14.7980   -0.0630 C   0  0  0  0  0  0  0  0  0  0  0  0
    0.9210   14.2790   -2.3480 C   0  0  2  0  0  0  0  0  0  0  0  0
   -0.3120   13.5510   -2.9110 C   0  0  0  0  0  0  0  0  0  0  0  0
   -0.7190   12.3210   -2.1690 C   0  0  0  0  0  0  0  0  0  0  0  0
    0.0380   11.6610   -1.2730 C   0  0  0  0  0  0  0  0  0  0  0  0
    1.4860   12.0880   -0.9990 C   0  0  1  0  0  0  0  0  0  0  0  0
    2.4030   10.8380   -0.9970 C   0  0  0  0  0  0  0  0  0  0  0  0
    1.9200    9.7590   -0.0310 C   0  0  0  0  0  0  0  0  0  0  0  0
    0.4990    9.3190   -0.3720 C   0  0  2  0  0  0  0  0  0  0  0  0
    0.5140    8.6530   -1.6380 O   0  0  0  0  0  0  0  0  0  0  0  0
   -0.5140   10.4970   -0.4130 C   0  0  0  0  0  0  0  0  0  0  0  0
   -0.7560   11.0260    1.0220 C   0  0  0  0  0  0  0  0  0  0  0  0
   -1.8760    9.9380   -0.9060 C   0  0  0  0  0  0  0  0  0  0  0  0
    2.0490   13.2570   -1.9160 C   0  0  1  0  0  0  0  0  0  0  0  0
    2.6390   12.6630   -3.2320 C   0  0  0  0  0  0  0  0  0  0  0  0
    3.2440   13.9640   -1.1730 C   0  0  0  0  0  0  0  0  0  0  0  0
    2.8840   15.1220   -0.2240 C   0  0  0  0  0  0  0  0  0  0  0  0
    1.9470   16.1220   -0.9090 C   0  0  2  0  0  0  0  0  0  0  0  0
    2.7150   16.7400   -2.1270 C   0  0  0  0  0  0  0  0  0  0  0  0
    1.6999   20.4896    0.1060 H   0  0  0  0  0  0  0  0  0  0  0  0
    2.8125   19.9685   -1.2044 H   0  0  0  0  0  0  0  0  0  0  0  0
    1.1034   19.4155   -1.2044 H   0  0  0  0  0  0  0  0  0  0  0  0
    2.2957   18.7159    1.3168 H   0  0  0  0  0  0  0  0  0  0  0  0
    3.8193   16.9278   -0.2575 H   0  0  0  0  0  0  0  0  0  0  0  0
    4.1891   18.6190   -0.8469 H   0  0  0  0  0  0  0  0  0  0  0  0
    5.0868   17.2559    1.5591 H   0  0  0  0  0  0  0  0  0  0  0  0
    5.6197   18.8200    0.8134 H   0  0  0  0  0  0  0  0  0  0  0  0
    3.0983   18.6732    1.9229 H   0  0  0  0  0  0  0  0  0  0  0  0
    6.0968   18.4995    5.1129 H   0  0  0  0  0  0  0  0  0  0  0  0
    6.0587   17.5268    3.6032 H   0  0  0  0  0  0  0  0  0  0  0  0
    6.8156   19.1558    3.6032 H   0  0  0  0  0  0  0  0  0  0  0  0
    4.2820   19.3001    5.7467 H   0  0  0  0  0  0  0  0  0  0  0  0
    3.4738   20.5438    4.7335 H   0  0  0  0  0  0  0  0  0  0  0  0
    2.8678   18.8528    4.7335 H   0  0  0  0  0  0  0  0  0  0  0  0
    1.2289   16.9312    0.9898 H   0  0  0  0  0  0  0  0  0  0  0  0
   -0.6790   17.9332   -0.1025 H   0  0  0  0  0  0  0  0  0  0  0  0
    0.3322   18.6660   -1.3665 H   0  0  0  0  0  0  0  0  0  0  0  0
   -1.3112   16.3497   -1.6883 H   0  0  0  0  0  0  0  0  0  0  0  0
   -0.0474   16.8286   -2.8182 H   0  0  0  0  0  0  0  0  0  0  0  0
    0.2950   15.1444    0.8713 H   0  0  0  0  0  0  0  0  0  0  0  0
   -1.2156   15.1406   -0.1007 H   0  0  0  0  0  0  0  0  0  0  0  0
   -0.1440   13.6990   -0.1007 H   0  0  0  0  0  0  0  0  0  0  0  0
    1.3270   14.8677   -3.1838 H   0  0  0  0  0  0  0  0  0  0  0  0
   -1.1584   14.2534   -2.8952 H   0  0  0  0  0  0  0  0  0  0  0  0
   -0.0346   13.2191   -3.9224 H   0  0  0  0  0  0  0  0  0  0  0  0
   -1.7230   11.9201   -2.3719 H   0  0  0  0  0  0  0  0  0  0  0  0
    1.4832   12.5497   -0.0006 H   0  0  0  0  0  0  0  0  0  0  0  0
    2.4270   10.4167   -2.0128 H   0  0  0  0  0  0  0  0  0  0  0  0
    3.4026   11.1578   -0.6676 H   0  0  0  0  0  0  0  0  0  0  0  0
    2.5915    8.8902   -0.0966 H   0  0  0  0  0  0  0  0  0  0  0  0
    1.9248   10.1723    0.9884 H   0  0  0  0  0  0  0  0  0  0  0  0
    0.1619    8.6436    0.4281 H   0  0  0  0  0  0  0  0  0  0  0  0
    1.4430    8.5020   -1.8800 H   0  0  0  0  0  0  0  0  0  0  0  0
   -0.4135   10.2773    1.7514 H   0  0  0  0  0  0  0  0  0  0  0  0
   -0.1965   11.9619    1.1670 H   0  0  0  0  0  0  0  0  0  0  0  0
   -1.8300   11.2146    1.1670 H   0  0  0  0  0  0  0  0  0  0  0  0
   -2.5023    9.6810   -0.0390 H   0  0  0  0  0  0  0  0  0  0  0  0
   -2.3863   10.6994   -1.5141 H   0  0  0  0  0  0  0  0  0  0  0  0
   -1.7043    9.0376   -1.5141 H   0  0  0  0  0  0  0  0  0  0  0  0
    3.3943   11.9025   -2.9847 H   0  0  0  0  0  0  0  0  0  0  0  0
    1.8322   12.2008   -3.8197 H   0  0  0  0  0  0  0  0  0  0  0  0
    3.1066   13.4667   -3.8197 H   0  0  0  0  0  0  0  0  0  0  0  0
    3.7670   13.1987   -0.5807 H   0  0  0  0  0  0  0  0  0  0  0  0
    3.8477   14.4223   -1.9702 H   0  0  0  0  0  0  0  0  0  0  0  0
    2.3854   14.7145    0.6678 H   0  0  0  0  0  0  0  0  0  0  0  0
    3.8098   15.6452    0.0574 H   0  0  0  0  0  0  0  0  0  0  0  0
    3.5228   17.3900   -1.7596 H   0  0  0  0  0  0  0  0  0  0  0  0
    3.1438   15.9322   -2.7382 H   0  0  0  0  0  0  0  0  0  0  0  0
    2.0176   17.3317   -2.7382 H   0  0  0  0  0  0  0  0  0  0  0  0
  1  2  1  0
  2  3  1  0
  3  4  1  0
  4  5  1  0
  5  6  1  0
  6  7  1  0
  7  8  1  0
  7  9  1  0
  2 10  1  0
 10 11  1  0
 11 12  1  0
 12 13  1  0
 13 14  1  1
 13 15  1  0
 15 16  1  0
 16 17  1  0
 17 18  2  0
 18 19  1  0
 19 20  1  0
 20 21  1  0
 21 22  1  0
 22 23  1  0
 22 24  1  0
 24 25  1  0
 24 26  1  0
 19 27  1  0
 27 28  1  6
 27 29  1  0
 29 30  1  0
 30 31  1  0
 31 32  1  6
  7  5  1  0
 31 10  1  0
 31 13  1  0
 27 15  1  0
 24 18  1  0
  1 33  1  0
  1 34  1  0
  1 35  1  0
  2 36  1  1
  3 37  1  0
  3 38  1  0
  4 39  1  0
  4 40  1  0
  5 41  1  1
  8 42  1  0
  8 43  1  0
  8 44  1  0
  9 45  1  0
  9 46  1  0
  9 47  1  0
 10 48  1  1
 11 49  1  0
 11 50  1  0
 12 51  1  0
 12 52  1  0
 14 53  1  0
 14 54  1  0
 14 55  1  0
 15 56  1  6
 16 57  1  0
 16 58  1  0
 17 59  1  0
 19 60  1  1
 20 61  1  0
 20 62  1  0
 21 63  1  0
 21 64  1  0
 22 65  1  1
 23 66  1  0
 25 67  1  0
 25 68  1  0
 25 69  1  0
 26 70  1  0
 26 71  1  0
 26 72  1  0
 28 73  1  0
 28 74  1  0
 28 75  1  0
 29 76  1  0
 29 77  1  0
 30 78  1  0
 30 79  1  0
 32 80  1  0
 32 81  1  0
 32 82  1  0
M  END
>  <meeko>  (2) 
{"is_sidechain": [false], "intermolecular_energy": 2.731, "internal_energy": -0.839}

$$$$
EPH_relaxed_0001_pdb2pqr_Repair_367_r2_0001_out
     RDKit          3D

 82 86  0  0  0  0  0  0  0  0999 V2000
    0.4350   18.4610    0.0480 C   0  0  0  0  0  0  0  0  0  0  0  0
    1.5210   17.4070   -0.1860 C   0  0  2  0  0  0  0  0  0  0  0  0
    2.7330   17.9810   -0.9480 C   0  0  0  0  0  0  0  0  0  0  0  0
    3.9740   18.1730   -0.0730 C   0  0  0  0  0  0  0  0  0  0  0  0
    3.6140   18.6390    1.3060 C   0  0  2  0  0  0  0  0  0  0  0  0
    3.8810   20.0250    1.5580 O   0  0  0  0  0  0  0  0  0  0  0  0
    4.6390   19.0830    2.3330 C   0  0  0  0  0  0  0  0  0  0  0  0
    6.1040   19.0810    2.0250 C   0  0  0  0  0  0  0  0  0  0  0  0
    4.2610   19.0510    3.7810 C   0  0  0  0  0  0  0  0  0  0  0  0
    0.9400   16.2230   -0.9500 C   0  0  1  0  0  0  0  0  0  0  0  0
    0.7740   16.5120   -2.4660 C   0  0  0  0  0  0  0  0  0  0  0  0
    1.0580   15.1810   -3.2090 C   0  0  0  0  0  0  0  0  0  0  0  0
    1.0500   14.1050   -2.0980 C   0  0  1  0  0  0  0  0  0  0  0  0
   -0.4590   13.7920   -1.8540 C   0  0  0  0  0  0  0  0  0  0  0  0
    1.8690   12.8050   -2.3900 C   0  0  2  0  0  0  0  0  0  0  0  0
    1.3790   11.9810   -3.5930 C   0  0  0  0  0  0  0  0  0  0  0  0
    0.3640   10.9340   -3.2770 C   0  0  0  0  0  0  0  0  0  0  0  0
    0.0730   10.4710   -2.0470 C   0  0  0  0  0  0  0  0  0  0  0  0
    0.8680   10.9400   -0.8220 C   0  0  1  0  0  0  0  0  0  0  0  0
    1.2540    9.7130    0.0450 C   0  0  0  0  0  0  0  0  0  0  0  0
    0.0470    8.8610    0.4240 C   0  0  0  0  0  0  0  0  0  0  0  0
   -0.6830    8.3660   -0.8220 C   0  0  2  0  0  0  0  0  0  0  0  0
    0.1660    7.4510   -1.5210 O   0  0  0  0  0  0  0  0  0  0  0  0
   -1.1140    9.5140   -1.7770 C   0  0  0  0  0  0  0  0  0  0  0  0
   -2.2580   10.3300   -1.1270 C   0  0  0  0  0  0  0  0  0  0  0  0
   -1.7110    8.8710   -3.0570 C   0  0  0  0  0  0  0  0  0  0  0  0
    2.1060   11.8900   -1.1200 C   0  0  1  0  0  0  0  0  0  0  0  0
    3.3740   11.0340   -1.4200 C   0  0  0  0  0  0  0  0  0  0  0  0
    2.4330   12.7310    0.1700 C   0  0  0  0  0  0  0  0  0  0  0  0
    1.6780   14.0630    0.3420 C   0  0  0  0  0  0  0  0  0  0  0  0
    1.7500   14.9020   -0.9380 C   0  0  2  0  0  0  0  0  0  0  0  0
    3.2550   15.2510   -1.1970 C   0  0  0  0  0  0  0  0  0  0  0  0
    0.2887   18.6030    1.1289 H   0  0  0  0  0  0  0  0  0  0  0  0
    0.7436   19.4131   -0.4084 H   0  0  0  0  0  0  0  0  0  0  0  0
   -0.5074   18.1240   -0.4084 H   0  0  0  0  0  0  0  0  0  0  0  0
    1.8776   17.0750    0.8002 H   0  0  0  0  0  0  0  0  0  0  0  0
    2.9879   17.2909   -1.7658 H   0  0  0  0  0  0  0  0  0  0  0  0
    2.4408   18.9760   -1.3149 H   0  0  0  0  0  0  0  0  0  0  0  0
    4.5084   17.2145    0.0028 H   0  0  0  0  0  0  0  0  0  0  0  0
    4.6072   18.9417   -0.5402 H   0  0  0  0  0  0  0  0  0  0  0  0
    2.7812   17.9221    1.3567 H   0  0  0  0  0  0  0  0  0  0  0  0
    6.6762   19.0802    2.9645 H   0  0  0  0  0  0  0  0  0  0  0  0
    6.3549   18.1825    1.4421 H   0  0  0  0  0  0  0  0  0  0  0  0
    6.3574   19.9788    1.4421 H   0  0  0  0  0  0  0  0  0  0  0  0
    5.1681   19.1278    4.3985 H   0  0  0  0  0  0  0  0  0  0  0  0
    3.5928   19.8958    4.0043 H   0  0  0  0  0  0  0  0  0  0  0  0
    3.7443   18.1059    4.0043 H   0  0  0  0  0  0  0  0  0  0  0  0
   -0.0020   16.0924   -0.3972 H   0  0  0  0  0  0  0  0  0  0  0  0
   -0.2506   16.8523   -2.6768 H   0  0  0  0  0  0  0  0  0  0  0  0
    1.4640   17.3030   -2.7951 H   0  0  0  0  0  0  0  0  0  0  0  0
    0.2741   14.9767   -3.9532 H   0  0  0  0  0  0  0  0  0  0  0  0
    2.0100   15.2053   -3.7595 H   0  0  0  0  0  0  0  0  0  0  0  0
   -0.6548   13.7514   -0.7723 H   0  0  0  0  0  0  0  0  0  0  0  0
   -1.0754   14.5814   -2.3088 H   0  0  0  0  0  0  0  0  0  0  0  0
   -0.7106   12.8226   -2.3088 H   0  0  0  0  0  0  0  0  0  0  0  0
    2.8507   13.2054   -2.6833 H   0  0  0  0  0  0  0  0  0  0  0  0
    0.9359   12.6749   -4.3225 H   0  0  0  0  0  0  0  0  0  0  0  0
    2.2607   11.4450   -3.9743 H   0  0  0  0  0  0  0  0  0  0  0  0
   -0.1943   10.5036   -4.1215 H   0  0  0  0  0  0  0  0  0  0  0  0
    0.1935   11.5999   -0.2567 H   0  0  0  0  0  0  0  0  0  0  0  0
    1.9616    9.0897   -0.5214 H   0  0  0  0  0  0  0  0  0  0  0  0
    1.7019   10.0901    0.9762 H   0  0  0  0  0  0  0  0  0  0  0  0
    0.3875    7.9946    1.0100 H   0  0  0  0  0  0  0  0  0  0  0  0
   -0.6460    9.4768    1.0160 H   0  0  0  0  0  0  0  0  0  0  0  0
   -1.6079    7.8731   -0.4880 H   0  0  0  0  0  0  0  0  0  0  0  0
   -0.4010    6.8860   -2.0730 H   0  0  0  0  0  0  0  0  0  0  0  0
   -2.1745   10.2704   -0.0318 H   0  0  0  0  0  0  0  0  0  0  0  0
   -2.1846   11.3809   -1.4437 H   0  0  0  0  0  0  0  0  0  0  0  0
   -3.2277    9.9185   -1.4437 H   0  0  0  0  0  0  0  0  0  0  0  0
   -2.4341    8.0922   -2.7731 H   0  0  0  0  0  0  0  0  0  0  0  0
   -2.2192    9.6436   -3.6526 H   0  0  0  0  0  0  0  0  0  0  0  0
   -0.9029    8.4214   -3.6526 H   0  0  0  0  0  0  0  0  0  0  0  0
    3.8376   10.7210   -0.4728 H   0  0  0  0  0  0  0  0  0  0  0  0
    3.0870   10.1441   -1.9994 H   0  0  0  0  0  0  0  0  0  0  0  0
    4.0920   11.6329   -1.9994 H   0  0  0  0  0  0  0  0  0  0  0  0
    2.2030   12.1032    1.0435 H   0  0  0  0  0  0  0  0  0  0  0  0
    3.4918   13.0117    0.0693 H   0  0  0  0  0  0  0  0  0  0  0  0
    0.6240   13.8519    0.5753 H   0  0  0  0  0  0  0  0  0  0  0  0
    2.1469   14.6294    1.1601 H   0  0  0  0  0  0  0  0  0  0  0  0
    3.7743   15.3714   -0.2348 H   0  0  0  0  0  0  0  0  0  0  0  0
    3.7266   14.4384   -1.7690 H   0  0  0  0  0  0  0  0  0  0  0  0
    3.3209   16.1883   -1.7690 H   0  0  0  0  0  0  0  0  0  0  0  0
  1  2  1  0
  2  3  1  0
  3  4  1  0
  4  5  1  0
  5  6  1  0
  6  7  1  0
  7  8  1  0
  7  9  1  0
  2 10  1  0
 10 11  1  0
 11 12  1  0
 12 13  1  0
 13 14  1  1
 13 15  1  0
 15 16  1  0
 16 17  1  0
 17 18  2  0
 18 19  1  0
 19 20  1  0
 20 21  1  0
 21 22  1  0
 22 23  1  0
 22 24  1  0
 24 25  1  0
 24 26  1  0
 19 27  1  0
 27 28  1  6
 27 29  1  0
 29 30  1  0
 30 31  1  0
 31 32  1  6
  7  5  1  0
 31 10  1  0
 31 13  1  0
 27 15  1  0
 24 18  1  0
  1 33  1  0
  1 34  1  0
  1 35  1  0
  2 36  1  1
  3 37  1  0
  3 38  1  0
  4 39  1  0
  4 40  1  0
  5 41  1  1
  8 42  1  0
  8 43  1  0
  8 44  1  0
  9 45  1  0
  9 46  1  0
  9 47  1  0
 10 48  1  1
 11 49  1  0
 11 50  1  0
 12 51  1  0
 12 52  1  0
 14 53  1  0
 14 54  1  0
 14 55  1  0
 15 56  1  6
 16 57  1  0
 16 58  1  0
 17 59  1  0
 19 60  1  1
 20 61  1  0
 20 62  1  0
 21 63  1  0
 21 64  1  0
 22 65  1  1
 23 66  1  0
 25 67  1  0
 25 68  1  0
 25 69  1  0
 26 70  1  0
 26 71  1  0
 26 72  1  0
 28 73  1  0
 28 74  1  0
 28 75  1  0
 29 76  1  0
 29 77  1  0
 30 78  1  0
 30 79  1  0
 32 80  1  0
 32 81  1  0
 32 82  1  0
M  END
>  <meeko>  (3) 
{"is_sidechain": [false], "intermolecular_energy": 2.731, "internal_energy": -0.839}

$$$$
EPH_relaxed_0001_pdb2pqr_Repair_367_r2_0001_out
     RDKit          3D

 82 86  0  0  0  0  0  0  0  0999 V2000
    2.1350   18.1100   -2.5950 C   0  0  0  0  0  0  0  0  0  0  0  0
    0.6140   17.9370   -2.6260 C   0  0  2  0  0  0  0  0  0  0  0  0
   -0.0490   18.3910   -1.3100 C   0  0  0  0  0  0  0  0  0  0  0  0
    0.7150   17.9600   -0.0550 C   0  0  0  0  0  0  0  0  0  0  0  0
    1.2610   19.1370    0.6940 C   0  0  2  0  0  0  0  0  0  0  0  0
    2.1570   19.9640   -0.0610 O   0  0  0  0  0  0  0  0  0  0  0  0
    2.7230   19.2840    1.0710 C   0  0  0  0  0  0  0  0  0  0  0  0
    3.7310   18.2370    0.7110 C   0  0  0  0  0  0  0  0  0  0  0  0
    3.0820   20.1940    2.2040 C   0  0  0  0  0  0  0  0  0  0  0  0
    0.2630   16.4810   -2.9110 C   0  0  1  0  0  0  0  0  0  0  0  0
    0.3200   16.1370   -4.4230 C   0  0  0  0  0  0  0  0  0  0  0  0
    0.8290   14.6770   -4.5310 C   0  0  0  0  0  0  0  0  0  0  0  0
    0.7290   14.1220   -3.0910 C   0  0  1  0  0  0  0  0  0  0  0  0
   -0.7690   13.7210   -2.9170 C   0  0  0  0  0  0  0  0  0  0  0  0
    1.6880   12.9380   -2.7390 C   0  0  2  0  0  0  0  0  0  0  0  0
    1.4680   11.6540   -3.5570 C   0  0  0  0  0  0  0  0  0  0  0  0
    0.5030   10.6790   -2.9670 C   0  0  0  0  0  0  0  0  0  0  0  0
    0.0570   10.6920   -1.6970 C   0  0  0  0  0  0  0  0  0  0  0  0
    0.6030   11.7030   -0.6800 C   0  0  1  0  0  0  0  0  0  0  0  0
    0.9430   10.9720    0.6450 C   0  0  0  0  0  0  0  0  0  0  0  0
   -0.2360   10.1720    1.1920 C   0  0  0  0  0  0  0  0  0  0  0  0
   -0.7130    9.1390    0.1750 C   0  0  2  0  0  0  0  0  0  0  0  0
    0.3100    8.1530    0.0050 O   0  0  0  0  0  0  0  0  0  0  0  0
   -1.0750    9.7580   -1.2040 C   0  0  0  0  0  0  0  0  0  0  0  0
   -2.3730   10.5940   -1.0740 C   0  0  0  0  0  0  0  0  0  0  0  0
   -1.4040    8.5940   -2.1780 C   0  0  0  0  0  0  0  0  0  0  0  0
    1.7910   12.6260   -1.1910 C   0  0  1  0  0  0  0  0  0  0  0  0
    3.1570   11.9060   -0.9720 C   0  0  0  0  0  0  0  0  0  0  0  0
    1.8360   13.9360   -0.3180 C   0  0  0  0  0  0  0  0  0  0  0  0
    0.9570   15.1120   -0.7850 C   0  0  0  0  0  0  0  0  0  0  0  0
    1.1650   15.3940   -2.2760 C   0  0  2  0  0  0  0  0  0  0  0  0
    2.6590   15.8220   -2.4780 C   0  0  0  0  0  0  0  0  0  0  0  0
    2.4784   18.1491   -1.5507 H   0  0  0  0  0  0  0  0  0  0  0  0
    2.6112   17.2602   -3.1060 H   0  0  0  0  0  0  0  0  0  0  0  0
    2.4082   19.0450   -3.1060 H   0  0  0  0  0  0  0  0  0  0  0  0
    0.2239   18.5782   -3.4302 H   0  0  0  0  0  0  0  0  0  0  0  0
   -0.1161   19.4889   -1.3157 H   0  0  0  0  0  0  0  0  0  0  0  0
   -1.0374   17.9102   -1.2655 H   0  0  0  0  0  0  0  0  0  0  0  0
    0.0324   17.4036    0.6042 H   0  0  0  0  0  0  0  0  0  0  0  0
    1.5612   17.3309   -0.3683 H   0  0  0  0  0  0  0  0  0  0  0  0
    0.3354   19.2218    1.2822 H   0  0  0  0  0  0  0  0  0  0  0  0
    4.1508   17.8010    1.6295 H   0  0  0  0  0  0  0  0  0  0  0  0
    3.2444   17.4475    0.1195 H   0  0  0  0  0  0  0  0  0  0  0  0
    4.5384   18.6933    0.1195 H   0  0  0  0  0  0  0  0  0  0  0  0
    2.8819   19.6867    3.1593 H   0  0  0  0  0  0  0  0  0  0  0  0
    4.1495   20.4524    2.1427 H   0  0  0  0  0  0  0  0  0  0  0  0
    2.4785   21.1116    2.1427 H   0  0  0  0  0  0  0  0  0  0  0  0
   -0.7416   16.4438   -2.4646 H   0  0  0  0  0  0  0  0  0  0  0  0
   -0.6819   16.2227   -4.8689 H   0  0  0  0  0  0  0  0  0  0  0  0
    0.9862   16.8281   -4.9603 H   0  0  0  0  0  0  0  0  0  0  0  0
    0.1959   14.0946   -5.2166 H   0  0  0  0  0  0  0  0  0  0  0  0
    1.8525   14.6203   -4.9300 H   0  0  0  0  0  0  0  0  0  0  0  0
   -1.0093   13.6567   -1.8455 H   0  0  0  0  0  0  0  0  0  0  0  0
   -1.4091   14.4794   -3.3914 H   0  0  0  0  0  0  0  0  0  0  0  0
   -0.9446   12.7442   -3.3914 H   0  0  0  0  0  0  0  0  0  0  0  0
    2.6677   13.3274   -3.0527 H   0  0  0  0  0  0  0  0  0  0  0  0
    1.0941   11.9436   -4.5501 H   0  0  0  0  0  0  0  0  0  0  0  0
    2.4405   11.1406   -3.5847 H   0  0  0  0  0  0  0  0  0  0  0  0
    0.1248    9.8832   -3.6256 H   0  0  0  0  0  0  0  0  0  0  0  0
   -0.2050   12.4293   -0.5080 H   0  0  0  0  0  0  0  0  0  0  0  0
    1.7817   10.2839    0.4628 H   0  0  0  0  0  0  0  0  0  0  0  0
    1.2017   11.7375    1.3914 H   0  0  0  0  0  0  0  0  0  0  0  0
    0.0756    9.6547    2.1114 H   0  0  0  0  0  0  0  0  0  0  0  0
   -1.0635   10.8656    1.4024 H   0  0  0  0  0  0  0  0  0  0  0  0
   -1.6365    8.6903    0.5697 H   0  0  0  0  0  0  0  0  0  0  0  0
    0.9910    8.5320   -0.5760 H   0  0  0  0  0  0  0  0  0  0  0  0
   -2.6070   10.7447   -0.0098 H   0  0  0  0  0  0  0  0  0  0  0  0
   -2.2304   11.5705   -1.5600 H   0  0  0  0  0  0  0  0  0  0  0  0
   -3.2031   10.0603   -1.5600 H   0  0  0  0  0  0  0  0  0  0  0  0
   -1.6586    7.6933   -1.6002 H   0  0  0  0  0  0  0  0  0  0  0  0
   -2.2575    8.8764   -2.8118 H   0  0  0  0  0  0  0  0  0  0  0  0
   -0.5289    8.3878   -2.8118 H   0  0  0  0  0  0  0  0  0  0  0  0
    3.3493   11.8046    0.1063 H   0  0  0  0  0  0  0  0  0  0  0  0
    3.1238   10.9082   -1.4339 H   0  0  0  0  0  0  0  0  0  0  0  0
    3.9614   12.4973   -1.4339 H   0  0  0  0  0  0  0  0  0  0  0  0
    1.5196   13.6680    0.7009 H   0  0  0  0  0  0  0  0  0  0  0  0
    2.8708   14.3002   -0.3983 H   0  0  0  0  0  0  0  0  0  0  0  0
   -0.1000   14.8628   -0.6100 H   0  0  0  0  0  0  0  0  0  0  0  0
    1.2406   16.0094   -0.2156 H   0  0  0  0  0  0  0  0  0  0  0  0
    3.1370   15.9590   -1.4968 H   0  0  0  0  0  0  0  0  0  0  0  0
    3.1916   15.0403   -3.0395 H   0  0  0  0  0  0  0  0  0  0  0  0
    2.6969   16.7671   -3.0395 H   0  0  0  0  0  0  0  0  0  0  0  0
  1  2  1  0
  2  3  1  0
  3  4  1  0
  4  5  1  0
  5  6  1  0
  6  7  1  0
  7  8  1  0
  7  9  1  0
  2 10  1  0
 10 11  1  0
 11 12  1  0
 12 13  1  0
 13 14  1  1
 13 15  1  0
 15 16  1  0
 16 17  1  0
 17 18  2  0
 18 19  1  0
 19 20  1  0
 20 21  1  0
 21 22  1  0
 22 23  1  0
 22 24  1  0
 24 25  1  0
 24 26  1  0
 19 27  1  0
 27 28  1  6
 27 29  1  0
 29 30  1  0
 30 31  1  0
 31 32  1  1
  7  5  1  0
 31 10  1  0
 31 13  1  0
 27 15  1  0
 24 18  1  0
  1 33  1  0
  1 34  1  0
  1 35  1  0
  2 36  1  6
  3 37  1  0
  3 38  1  0
  4 39  1  0
  4 40  1  0
  5 41  1  1
  8 42  1  0
  8 43  1  0
  8 44  1  0
  9 45  1  0
  9 46  1  0
  9 47  1  0
 10 48  1  1
 11 49  1  0
 11 50  1  0
 12 51  1  0
 12 52  1  0
 14 53  1  0
 14 54  1  0
 14 55  1  0
 15 56  1  6
 16 57  1  0
 16 58  1  0
 17 59  1  0
 19 60  1  1
 20 61  1  0
 20 62  1  0
 21 63  1  0
 21 64  1  0
 22 65  1  1
 23 66  1  0
 25 67  1  0
 25 68  1  0
 25 69  1  0
 26 70  1  0
 26 71  1  0
 26 72  1  0
 28 73  1  0
 28 74  1  0
 28 75  1  0
 29 76  1  0
 29 77  1  0
 30 78  1  0
 30 79  1  0
 32 80  1  0
 32 81  1  0
 32 82  1  0
M  END
>  <meeko>  (4) 
{"is_sidechain": [false], "intermolecular_energy": 2.731, "internal_energy": -0.839}

$$$$
EPH_relaxed_0001_pdb2pqr_Repair_367_r2_0001_out
     RDKit          3D

 82 86  0  0  0  0  0  0  0  0999 V2000
    2.1090   18.2340   -2.8110 C   0  0  0  0  0  0  0  0  0  0  0  0
    0.9720   17.7170   -1.9250 C   0  0  2  0  0  0  0  0  0  0  0  0
    1.3570   17.7060   -0.4320 C   0  0  0  0  0  0  0  0  0  0  0  0
    1.2610   19.0780    0.2390 C   0  0  0  0  0  0  0  0  0  0  0  0
   -0.0300   19.7650   -0.0860 C   0  0  2  0  0  0  0  0  0  0  0  0
   -0.7930   20.1790    1.0550 O   0  0  0  0  0  0  0  0  0  0  0  0
   -1.3930   19.1740    0.2210 C   0  0  0  0  0  0  0  0  0  0  0  0
   -1.5330   17.8390    0.8830 C   0  0  0  0  0  0  0  0  0  0  0  0
   -2.5770   19.6630   -0.5540 C   0  0  0  0  0  0  0  0  0  0  0  0
    0.5630   16.3180   -2.3680 C   0  0  1  0  0  0  0  0  0  0  0  0
    0.6700   16.1220   -3.9040 C   0  0  0  0  0  0  0  0  0  0  0  0
    1.1110   14.6550   -4.1390 C   0  0  0  0  0  0  0  0  0  0  0  0
    0.9220   13.9670   -2.7670 C   0  0  1  0  0  0  0  0  0  0  0  0
   -0.6010   13.6300   -2.6930 C   0  0  0  0  0  0  0  0  0  0  0  0
    1.8050   12.7050   -2.4980 C   0  0  2  0  0  0  0  0  0  0  0  0
    1.5590   11.5220   -3.4500 C   0  0  0  0  0  0  0  0  0  0  0  0
    0.5230   10.5450   -2.9990 C   0  0  0  0  0  0  0  0  0  0  0  0
    0.0230   10.4560   -1.7530 C   0  0  0  0  0  0  0  0  0  0  0  0
    0.5720   11.3310   -0.6190 C   0  0  1  0  0  0  0  0  0  0  0  0
    0.8180   10.4560    0.6380 C   0  0  0  0  0  0  0  0  0  0  0  0
   -0.4220    9.6700    1.0550 C   0  0  0  0  0  0  0  0  0  0  0  0
   -0.9030    8.7690   -0.0790 C   0  0  2  0  0  0  0  0  0  0  0  0
    0.0770    7.7520   -0.3070 O   0  0  0  0  0  0  0  0  0  0  0  0
   -1.1740    9.5390   -1.4010 C   0  0  0  0  0  0  0  0  0  0  0  0
   -2.4340   10.4250   -1.2380 C   0  0  0  0  0  0  0  0  0  0  0  0
   -1.5160    8.4960   -2.4990 C   0  0  0  0  0  0  0  0  0  0  0  0
    1.8250   12.2370   -0.9870 C   0  0  1  0  0  0  0  0  0  0  0  0
    3.1430   11.4270   -0.7890 C   0  0  0  0  0  0  0  0  0  0  0  0
    1.8940   13.4500    0.0140 C   0  0  0  0  0  0  0  0  0  0  0  0
    1.0950   14.7110   -0.3660 C   0  0  0  0  0  0  0  0  0  0  0  0
    1.3830   15.1270   -1.8110 C   0  0  2  0  0  0  0  0  0  0  0  0
    2.9030   15.4930   -1.9110 C   0  0  0  0  0  0  0  0  0  0  0  0
    2.9275   18.6062   -2.1773 H   0  0  0  0  0  0  0  0  0  0  0  0
    2.4799   17.4160   -3.4461 H   0  0  0  0  0  0  0  0  0  0  0  0
    1.7364   19.0512   -3.4461 H   0  0  0  0  0  0  0  0  0  0  0  0
    0.1230   18.4067   -2.0411 H   0  0  0  0  0  0  0  0  0  0  0  0
    0.6837   17.0140    0.0950 H   0  0  0  0  0  0  0  0  0  0  0  0
    2.4100   17.3933   -0.3742 H   0  0  0  0  0  0  0  0  0  0  0  0
    1.3307   18.9473    1.3290 H   0  0  0  0  0  0  0  0  0  0  0  0
    2.0853   19.7018   -0.1369 H   0  0  0  0  0  0  0  0  0  0  0  0
    0.4005   20.1883   -1.0055 H   0  0  0  0  0  0  0  0  0  0  0  0
   -1.5195   17.9682    1.9753 H   0  0  0  0  0  0  0  0  0  0  0  0
   -2.4845   17.3775    0.5801 H   0  0  0  0  0  0  0  0  0  0  0  0
   -0.6980   17.1902    0.5801 H   0  0  0  0  0  0  0  0  0  0  0  0
   -3.3631   19.9877    0.1435 H   0  0  0  0  0  0  0  0  0  0  0  0
   -2.2760   20.5104   -1.1875 H   0  0  0  0  0  0  0  0  0  0  0  0
   -2.9617   18.8502   -1.1875 H   0  0  0  0  0  0  0  0  0  0  0  0
   -0.4609   16.2903   -1.9670 H   0  0  0  0  0  0  0  0  0  0  0  0
   -0.3058   16.3045   -4.3779 H   0  0  0  0  0  0  0  0  0  0  0  0
    1.3926   16.8262   -4.3422 H   0  0  0  0  0  0  0  0  0  0  0  0
    0.4802   14.1774   -4.9032 H   0  0  0  0  0  0  0  0  0  0  0  0
    2.1467   14.5836   -4.5026 H   0  0  0  0  0  0  0  0  0  0  0  0
   -0.9106   13.5615   -1.6397 H   0  0  0  0  0  0  0  0  0  0  0  0
   -1.1766   14.4225   -3.1936 H   0  0  0  0  0  0  0  0  0  0  0  0
   -0.7886   12.6686   -3.1936 H   0  0  0  0  0  0  0  0  0  0  0  0
    2.8158   13.0709   -2.7312 H   0  0  0  0  0  0  0  0  0  0  0  0
    1.2429   11.9281   -4.4222 H   0  0  0  0  0  0  0  0  0  0  0  0
    2.5058   10.9637   -3.4926 H   0  0  0  0  0  0  0  0  0  0  0  0
    0.1363    9.8389   -3.7486 H   0  0  0  0  0  0  0  0  0  0  0  0
   -0.2073   12.0778   -0.4067 H   0  0  0  0  0  0  0  0  0  0  0  0
    1.6291    9.7457    0.4201 H   0  0  0  0  0  0  0  0  0  0  0  0
    1.0816   11.1290    1.4672 H   0  0  0  0  0  0  0  0  0  0  0  0
   -0.1775    9.0489    1.9293 H   0  0  0  0  0  0  0  0  0  0  0  0
   -1.2231   10.3824    1.3015 H   0  0  0  0  0  0  0  0  0  0  0  0
   -1.8637    8.3326    0.2318 H   0  0  0  0  0  0  0  0  0  0  0  0
    0.1240    7.5970   -1.2650 H   0  0  0  0  0  0  0  0  0  0  0  0
   -2.6430   10.5720   -0.1681 H   0  0  0  0  0  0  0  0  0  0  0  0
   -2.2603   11.4008   -1.7151 H   0  0  0  0  0  0  0  0  0  0  0  0
   -3.2935    9.9314   -1.7151 H   0  0  0  0  0  0  0  0  0  0  0  0
   -1.8253    7.5527   -2.0251 H   0  0  0  0  0  0  0  0  0  0  0  0
   -2.3359    8.8780   -3.1249 H   0  0  0  0  0  0  0  0  0  0  0  0
   -0.6291    8.3183   -3.1249 H   0  0  0  0  0  0  0  0  0  0  0  0
    3.3407   11.3055    0.2862 H   0  0  0  0  0  0  0  0  0  0  0  0
    3.0387   10.4369   -1.2568 H   0  0  0  0  0  0  0  0  0  0  0  0
    3.9792   11.9673   -1.2568 H   0  0  0  0  0  0  0  0  0  0  0  0
    1.5198   13.0998    0.9873 H   0  0  0  0  0  0  0  0  0  0  0  0
    2.9478   13.7655    0.0113 H   0  0  0  0  0  0  0  0  0  0  0  0
    0.0204   14.5020   -0.2590 H   0  0  0  0  0  0  0  0  0  0  0  0
    1.3958   15.5316    0.3020 H   0  0  0  0  0  0  0  0  0  0  0  0
    3.3231   15.5942   -0.8994 H   0  0  0  0  0  0  0  0  0  0  0  0
    3.4368   14.6977   -2.4519 H   0  0  0  0  0  0  0  0  0  0  0  0
    3.0163   16.4441   -2.4519 H   0  0  0  0  0  0  0  0  0  0  0  0
  1  2  1  0
  2  3  1  0
  3  4  1  0
  4  5  1  0
  5  6  1  0
  6  7  1  0
  7  8  1  0
  7  9  1  0
  2 10  1  0
 10 11  1  0
 11 12  1  0
 12 13  1  0
 13 14  1  1
 13 15  1  0
 15 16  1  0
 16 17  1  0
 17 18  2  0
 18 19  1  0
 19 20  1  0
 20 21  1  0
 21 22  1  0
 22 23  1  0
 22 24  1  0
 24 25  1  0
 24 26  1  0
 19 27  1  0
 27 28  1  6
 27 29  1  0
 29 30  1  0
 30 31  1  0
 31 32  1  1
  7  5  1  0
 31 10  1  0
 31 13  1  0
 27 15  1  0
 24 18  1  0
  1 33  1  0
  1 34  1  0
  1 35  1  0
  2 36  1  1
  3 37  1  0
  3 38  1  0
  4 39  1  0
  4 40  1  0
  5 41  1  6
  8 42  1  0
  8 43  1  0
  8 44  1  0
  9 45  1  0
  9 46  1  0
  9 47  1  0
 10 48  1  1
 11 49  1  0
 11 50  1  0
 12 51  1  0
 12 52  1  0
 14 53  1  0
 14 54  1  0
 14 55  1  0
 15 56  1  6
 16 57  1  0
 16 58  1  0
 17 59  1  0
 19 60  1  1
 20 61  1  0
 20 62  1  0
 21 63  1  0
 21 64  1  0
 22 65  1  1
 23 66  1  0
 25 67  1  0
 25 68  1  0
 25 69  1  0
 26 70  1  0
 26 71  1  0
 26 72  1  0
 28 73  1  0
 28 74  1  0
 28 75  1  0
 29 76  1  0
 29 77  1  0
 30 78  1  0
 30 79  1  0
 32 80  1  0
 32 81  1  0
 32 82  1  0
M  END
>  <meeko>  (5) 
{"is_sidechain": [false], "intermolecular_energy": 2.731, "internal_energy": -0.839}

$$$$
EPH_relaxed_0001_pdb2pqr_Repair_367_r2_0001_out
     RDKit          3D

 82 86  0  0  0  0  0  0  0  0999 V2000
    3.7410   17.9320    0.8130 C   0  0  0  0  0  0  0  0  0  0  0  0
    2.7340   18.3650   -0.2560 C   0  0  2  0  0  0  0  0  0  0  0  0
    2.0070   19.6700    0.1260 C   0  0  0  0  0  0  0  0  0  0  0  0
    0.7990   19.4570    1.0420 C   0  0  0  0  0  0  0  0  0  0  0  0
   -0.4390   20.0910    0.4840 C   0  0  2  0  0  0  0  0  0  0  0  0
   -1.5280   20.1940    1.4100 O   0  0  0  0  0  0  0  0  0  0  0  0
   -1.7410   19.3400    0.2740 C   0  0  0  0  0  0  0  0  0  0  0  0
   -1.8700   17.8900    0.6200 C   0  0  0  0  0  0  0  0  0  0  0  0
   -2.7290   19.8820   -0.7110 C   0  0  0  0  0  0  0  0  0  0  0  0
    1.7180   17.2540   -0.4930 C   0  0  1  0  0  0  0  0  0  0  0  0
    0.5080   17.7220   -1.3440 C   0  0  0  0  0  0  0  0  0  0  0  0
    0.0850   16.5170   -2.2220 C   0  0  0  0  0  0  0  0  0  0  0  0
    0.8390   15.3100   -1.6170 C   0  0  1  0  0  0  0  0  0  0  0  0
   -0.0200   14.8770   -0.3870 C   0  0  0  0  0  0  0  0  0  0  0  0
    1.1110   14.1100   -2.5820 C   0  0  2  0  0  0  0  0  0  0  0  0
   -0.1470   13.4170   -3.1330 C   0  0  0  0  0  0  0  0  0  0  0  0
   -0.6580   12.2780   -2.3140 C   0  0  0  0  0  0  0  0  0  0  0  0
    0.0250   11.6460   -1.3410 C   0  0  0  0  0  0  0  0  0  0  0  0
    1.4880   12.0030   -1.0460 C   0  0  1  0  0  0  0  0  0  0  0  0
    2.3220   10.7020   -0.9110 C   0  0  0  0  0  0  0  0  0  0  0  0
    1.7380    9.7370    0.1160 C   0  0  0  0  0  0  0  0  0  0  0  0
    0.3030    9.3600   -0.2440 C   0  0  2  0  0  0  0  0  0  0  0  0
    0.3170    8.5950   -1.4530 O   0  0  0  0  0  0  0  0  0  0  0  0
   -0.6290   10.5910   -0.4150 C   0  0  0  0  0  0  0  0  0  0  0  0
   -0.8850   11.2470    0.9650 C   0  0  0  0  0  0  0  0  0  0  0  0
   -2.0080   10.0800   -0.9140 C   0  0  0  0  0  0  0  0  0  0  0  0
    2.1560   13.0580   -2.0290 C   0  0  1  0  0  0  0  0  0  0  0  0
    2.7490   12.3250   -3.2710 C   0  0  0  0  0  0  0  0  0  0  0  0
    3.3690   13.7460   -1.2980 C   0  0  0  0  0  0  0  0  0  0  0  0
    3.0530   14.9970   -0.4560 C   0  0  0  0  0  0  0  0  0  0  0  0
    2.2060   15.9940   -1.2520 C   0  0  2  0  0  0  0  0  0  0  0  0
    3.0530   16.4650   -2.4840 C   0  0  0  0  0  0  0  0  0  0  0  0
    3.3170   18.1143    1.8115 H   0  0  0  0  0  0  0  0  0  0  0  0
    3.9600   16.8602    0.6978 H   0  0  0  0  0  0  0  0  0  0  0  0
    4.6695   18.5104    0.6978 H   0  0  0  0  0  0  0  0  0  0  0  0
    3.2964   18.5586   -1.1813 H   0  0  0  0  0  0  0  0  0  0  0  0
    2.7222   20.3275    0.6419 H   0  0  0  0  0  0  0  0  0  0  0  0
    1.6282   20.1116   -0.8075 H   0  0  0  0  0  0  0  0  0  0  0  0
    0.6253   18.3770    1.1574 H   0  0  0  0  0  0  0  0  0  0  0  0
    1.0174   19.9273    2.0121 H   0  0  0  0  0  0  0  0  0  0  0  0
    0.1595   20.7306   -0.1814 H   0  0  0  0  0  0  0  0  0  0  0  0
   -1.8804   17.7736    1.7138 H   0  0  0  0  0  0  0  0  0  0  0  0
   -2.8068   17.4948    0.2003 H   0  0  0  0  0  0  0  0  0  0  0  0
   -1.0176   17.3356    0.2003 H   0  0  0  0  0  0  0  0  0  0  0  0
   -3.5694   20.3430   -0.1715 H   0  0  0  0  0  0  0  0  0  0  0  0
   -2.2399   20.6381   -1.3427 H   0  0  0  0  0  0  0  0  0  0  0  0
   -3.1038   19.0632   -1.3427 H   0  0  0  0  0  0  0  0  0  0  0  0
    1.4798   16.9970    0.5497 H   0  0  0  0  0  0  0  0  0  0  0  0
   -0.3224   18.0227   -0.6883 H   0  0  0  0  0  0  0  0  0  0  0  0
    0.7749   18.5891   -1.9661 H   0  0  0  0  0  0  0  0  0  0  0  0
   -1.0027   16.3613   -2.1698 H   0  0  0  0  0  0  0  0  0  0  0  0
    0.3262   16.6698   -3.2843 H   0  0  0  0  0  0  0  0  0  0  0  0
    0.5078   15.1430    0.5407 H   0  0  0  0  0  0  0  0  0  0  0  0
   -0.9907   15.3935   -0.4176 H   0  0  0  0  0  0  0  0  0  0  0  0
   -0.1822   13.7895   -0.4176 H   0  0  0  0  0  0  0  0  0  0  0  0
    1.5813   14.6036   -3.4453 H   0  0  0  0  0  0  0  0  0  0  0  0
   -0.9460   14.1697   -3.2044 H   0  0  0  0  0  0  0  0  0  0  0  0
    0.1423   12.9881   -4.1038 H   0  0  0  0  0  0  0  0  0  0  0  0
   -1.6787   11.9254   -2.5232 H   0  0  0  0  0  0  0  0  0  0  0  0
    1.4819   12.5426   -0.0875 H   0  0  0  0  0  0  0  0  0  0  0  0
    2.3528   10.1998   -1.8892 H   0  0  0  0  0  0  0  0  0  0  0  0
    3.3286   10.9845   -0.5692 H   0  0  0  0  0  0  0  0  0  0  0  0
    2.3534    8.8257    0.1443 H   0  0  0  0  0  0  0  0  0  0  0  0
    1.7354   10.2300    1.0993 H   0  0  0  0  0  0  0  0  0  0  0  0
   -0.1038    8.7730    0.5926 H   0  0  0  0  0  0  0  0  0  0  0  0
    1.0460    7.9550   -1.3880 H   0  0  0  0  0  0  0  0  0  0  0  0
   -0.6098   10.5417    1.7630 H   0  0  0  0  0  0  0  0  0  0  0  0
   -0.2768   12.1591    1.0559 H   0  0  0  0  0  0  0  0  0  0  0  0
   -1.9502   11.5060    1.0559 H   0  0  0  0  0  0  0  0  0  0  0  0
   -2.6461    9.8436   -0.0497 H   0  0  0  0  0  0  0  0  0  0  0  0
   -2.4894   10.8594   -1.5229 H   0  0  0  0  0  0  0  0  0  0  0  0
   -1.8653    9.1751   -1.5229 H   0  0  0  0  0  0  0  0  0  0  0  0
    3.4080   11.5104   -2.9360 H   0  0  0  0  0  0  0  0  0  0  0  0
    1.9304   11.9088   -3.8766 H   0  0  0  0  0  0  0  0  0  0  0  0
    3.3269   13.0386   -3.8766 H   0  0  0  0  0  0  0  0  0  0  0  0
    3.8210   12.9995   -0.6284 H   0  0  0  0  0  0  0  0  0  0  0  0
    4.0279   14.1004   -2.1044 H   0  0  0  0  0  0  0  0  0  0  0  0
    2.4998   14.6939    0.4452 H   0  0  0  0  0  0  0  0  0  0  0  0
    4.0006   15.4831   -0.1809 H   0  0  0  0  0  0  0  0  0  0  0  0
    3.9635   16.9713   -2.1310 H   0  0  0  0  0  0  0  0  0  0  0  0
    3.3314   15.5922   -3.0928 H   0  0  0  0  0  0  0  0  0  0  0  0
    2.4584   17.1621   -3.0928 H   0  0  0  0  0  0  0  0  0  0  0  0
  1  2  1  0
  2  3  1  0
  3  4  1  0
  4  5  1  0
  5  6  1  0
  6  7  1  0
  7  8  1  0
  7  9  1  0
  2 10  1  0
 10 11  1  0
 11 12  1  0
 12 13  1  0
 13 14  1  1
 13 15  1  0
 15 16  1  0
 16 17  1  0
 17 18  2  0
 18 19  1  0
 19 20  1  0
 20 21  1  0
 21 22  1  0
 22 23  1  0
 22 24  1  0
 24 25  1  0
 24 26  1  0
 19 27  1  0
 27 28  1  6
 27 29  1  0
 29 30  1  0
 30 31  1  0
 31 32  1  6
  7  5  1  0
 31 10  1  0
 31 13  1  0
 27 15  1  0
 24 18  1  0
  1 33  1  0
  1 34  1  0
  1 35  1  0
  2 36  1  6
  3 37  1  0
  3 38  1  0
  4 39  1  0
  4 40  1  0
  5 41  1  6
  8 42  1  0
  8 43  1  0
  8 44  1  0
  9 45  1  0
  9 46  1  0
  9 47  1  0
 10 48  1  1
 11 49  1  0
 11 50  1  0
 12 51  1  0
 12 52  1  0
 14 53  1  0
 14 54  1  0
 14 55  1  0
 15 56  1  6
 16 57  1  0
 16 58  1  0
 17 59  1  0
 19 60  1  1
 20 61  1  0
 20 62  1  0
 21 63  1  0
 21 64  1  0
 22 65  1  1
 23 66  1  0
 25 67  1  0
 25 68  1  0
 25 69  1  0
 26 70  1  0
 26 71  1  0
 26 72  1  0
 28 73  1  0
 28 74  1  0
 28 75  1  0
 29 76  1  0
 29 77  1  0
 30 78  1  0
 30 79  1  0
 32 80  1  0
 32 81  1  0
 32 82  1  0
M  END
>  <meeko>  (6) 
{"is_sidechain": [false], "intermolecular_energy": 2.731, "internal_energy": -0.839}

$$$$
EPH_relaxed_0001_pdb2pqr_Repair_367_r2_0001_out
     RDKit          3D

 82 86  0  0  0  0  0  0  0  0999 V2000
   -5.2630    8.9590    1.0080 C   0  0  0  0  0  0  0  0  0  0  0  0
   -5.1620    8.1310   -0.2760 C   0  0  2  0  0  0  0  0  0  0  0  0
   -4.0100    8.6060   -1.1840 C   0  0  0  0  0  0  0  0  0  0  0  0
   -2.9100    9.3650   -0.4360 C   0  0  0  0  0  0  0  0  0  0  0  0
   -1.5740    9.1930   -1.0930 C   0  0  2  0  0  0  0  0  0  0  0  0
   -0.4740    9.7610   -0.3690 O   0  0  0  0  0  0  0  0  0  0  0  0
   -0.7600   10.3460   -1.6500 C   0  0  0  0  0  0  0  0  0  0  0  0
   -1.2550   11.7570   -1.5770 C   0  0  0  0  0  0  0  0  0  0  0  0
    0.2750   10.0550   -2.6910 C   0  0  0  0  0  0  0  0  0  0  0  0
   -6.4820    8.1870   -1.0360 C   0  0  1  0  0  0  0  0  0  0  0  0
   -6.4060    7.4840   -2.4170 C   0  0  0  0  0  0  0  0  0  0  0  0
   -7.7910    6.8320   -2.6640 C   0  0  0  0  0  0  0  0  0  0  0  0
   -8.7120    7.4530   -1.5870 C   0  0  1  0  0  0  0  0  0  0  0  0
   -9.1230    8.8430   -2.1650 C   0  0  0  0  0  0  0  0  0  0  0  0
   -9.9600    6.6070   -1.1740 C   0  0  2  0  0  0  0  0  0  0  0  0
  -10.9730    6.3450   -2.3020 C   0  0  0  0  0  0  0  0  0  0  0  0
  -12.0570    7.3620   -2.4360 C   0  0  0  0  0  0  0  0  0  0  0  0
  -12.3800    8.2860   -1.5120 C   0  0  0  0  0  0  0  0  0  0  0  0
  -11.6890    8.3070   -0.1430 C   0  0  1  0  0  0  0  0  0  0  0  0
  -12.7540    8.4650    0.9740 C   0  0  0  0  0  0  0  0  0  0  0  0
  -13.6540    9.6770    0.7560 C   0  0  0  0  0  0  0  0  0  0  0  0
  -14.3690    9.5910   -0.5900 C   0  0  2  0  0  0  0  0  0  0  0  0
  -15.2870    8.4940   -0.5550 O   0  0  0  0  0  0  0  0  0  0  0  0
  -13.3970    9.4210   -1.7900 C   0  0  0  0  0  0  0  0  0  0  0  0
  -12.6080   10.7350   -2.0120 C   0  0  0  0  0  0  0  0  0  0  0  0
  -14.2500    9.2050   -3.0690 C   0  0  0  0  0  0  0  0  0  0  0  0
  -10.6790    7.1130    0.1420 C   0  0  1  0  0  0  0  0  0  0  0  0
  -11.4510    5.8910    0.7260 C   0  0  0  0  0  0  0  0  0  0  0  0
   -9.6530    7.5610    1.2500 C   0  0  0  0  0  0  0  0  0  0  0  0
   -8.3820    8.2860    0.7680 C   0  0  0  0  0  0  0  0  0  0  0  0
   -7.7120    7.5180   -0.3750 C   0  0  2  0  0  0  0  0  0  0  0  0
   -7.2670    6.1230    0.1830 C   0  0  0  0  0  0  0  0  0  0  0  0
   -5.1819    8.2940    1.8805 H   0  0  0  0  0  0  0  0  0  0  0  0
   -4.4483    9.6977    1.0330 H   0  0  0  0  0  0  0  0  0  0  0  0
   -6.2314    9.4802    1.0330 H   0  0  0  0  0  0  0  0  0  0  0  0
   -4.9453    7.0928    0.0159 H   0  0  0  0  0  0  0  0  0  0  0  0
   -3.5594    7.7244   -1.6633 H   0  0  0  0  0  0  0  0  0  0  0  0
   -4.4434    9.3050   -1.9144 H   0  0  0  0  0  0  0  0  0  0  0  0
   -3.1637   10.4352   -0.4186 H   0  0  0  0  0  0  0  0  0  0  0  0
   -2.8456    8.9589    0.5843 H   0  0  0  0  0  0  0  0  0  0  0  0
   -1.8856    8.2322   -1.5286 H   0  0  0  0  0  0  0  0  0  0  0  0
   -1.3595   12.0549   -0.5233 H   0  0  0  0  0  0  0  0  0  0  0  0
   -0.5371   12.4238   -2.0770 H   0  0  0  0  0  0  0  0  0  0  0  0
   -2.2321   11.8291   -2.0770 H   0  0  0  0  0  0  0  0  0  0  0  0
    1.2231    9.7884   -2.2010 H   0  0  0  0  0  0  0  0  0  0  0  0
   -0.0617    9.2167   -3.3186 H   0  0  0  0  0  0  0  0  0  0  0  0
    0.4244   10.9460   -3.3186 H   0  0  0  0  0  0  0  0  0  0  0  0
   -6.6246    9.2769   -1.0779 H   0  0  0  0  0  0  0  0  0  0  0  0
   -6.1877    8.2197   -3.2051 H   0  0  0  0  0  0  0  0  0  0  0  0
   -5.6058    6.7293   -2.4325 H   0  0  0  0  0  0  0  0  0  0  0  0
   -8.1580    7.0703   -3.6732 H   0  0  0  0  0  0  0  0  0  0  0  0
   -7.7533    5.7346   -2.5984 H   0  0  0  0  0  0  0  0  0  0  0  0
   -9.3285    9.5380   -1.3375 H   0  0  0  0  0  0  0  0  0  0  0  0
   -8.3038    9.2401   -2.7825 H   0  0  0  0  0  0  0  0  0  0  0  0
  -10.0264    8.7308   -2.7825 H   0  0  0  0  0  0  0  0  0  0  0  0
   -9.5148    5.6289   -0.9391 H   0  0  0  0  0  0  0  0  0  0  0  0
  -10.4210    6.3097   -3.2528 H   0  0  0  0  0  0  0  0  0  0  0  0
  -11.4736    5.3993   -2.0470 H   0  0  0  0  0  0  0  0  0  0  0  0
  -12.6411    7.3560   -3.3681 H   0  0  0  0  0  0  0  0  0  0  0  0
  -11.0253    9.1841   -0.1518 H   0  0  0  0  0  0  0  0  0  0  0  0
  -13.3796    7.5604    0.9954 H   0  0  0  0  0  0  0  0  0  0  0  0
  -12.2213    8.6111    1.9253 H   0  0  0  0  0  0  0  0  0  0  0  0
  -14.4038    9.7178    1.5599 H   0  0  0  0  0  0  0  0  0  0  0  0
  -13.0305   10.5832    0.7649 H   0  0  0  0  0  0  0  0  0  0  0  0
  -14.8952   10.5444   -0.7456 H   0  0  0  0  0  0  0  0  0  0  0  0
  -14.8840    7.7570   -1.0440 H   0  0  0  0  0  0  0  0  0  0  0  0
  -12.3447   11.1736   -1.0382 H   0  0  0  0  0  0  0  0  0  0  0  0
  -11.6895   10.5200   -2.5778 H   0  0  0  0  0  0  0  0  0  0  0  0
  -13.2295   11.4447   -2.5778 H   0  0  0  0  0  0  0  0  0  0  0  0
  -15.2797    8.9442   -2.7833 H   0  0  0  0  0  0  0  0  0  0  0  0
  -14.2578   10.1295   -3.6650 H   0  0  0  0  0  0  0  0  0  0  0  0
  -13.8169    8.3882   -3.6650 H   0  0  0  0  0  0  0  0  0  0  0  0
  -11.4251    5.9320    1.8249 H   0  0  0  0  0  0  0  0  0  0  0  0
  -12.4956    5.9191    0.3826 H   0  0  0  0  0  0  0  0  0  0  0  0
  -10.9770    4.9597    0.3826 H   0  0  0  0  0  0  0  0  0  0  0  0
  -10.1810    8.2373    1.9384 H   0  0  0  0  0  0  0  0  0  0  0  0
   -9.2954    6.6259    1.7058 H   0  0  0  0  0  0  0  0  0  0  0  0
   -8.6536    9.2918    0.4149 H   0  0  0  0  0  0  0  0  0  0  0  0
   -7.6753    8.3504    1.6085 H   0  0  0  0  0  0  0  0  0  0  0  0
   -7.2751    6.1484    1.2827 H   0  0  0  0  0  0  0  0  0  0  0  0
   -7.9624    5.3477   -0.1710 H   0  0  0  0  0  0  0  0  0  0  0  0
   -6.2511    5.8936   -0.1710 H   0  0  0  0  0  0  0  0  0  0  0  0
  1  2  1  0
  2  3  1  0
  3  4  1  0
  4  5  1  0
  5  6  1  0
  6  7  1  0
  7  8  1  0
  7  9  1  0
  2 10  1  0
 10 11  1  0
 11 12  1  0
 12 13  1  0
 13 14  1  6
 13 15  1  0
 15 16  1  0
 16 17  1  0
 17 18  2  0
 18 19  1  0
 19 20  1  0
 20 21  1  0
 21 22  1  0
 22 23  1  0
 22 24  1  0
 24 25  1  0
 24 26  1  0
 19 27  1  0
 27 28  1  1
 27 29  1  0
 29 30  1  0
 30 31  1  0
 31 32  1  1
  7  5  1  0
 31 10  1  0
 31 13  1  0
 27 15  1  0
 24 18  1  0
  1 33  1  0
  1 34  1  0
  1 35  1  0
  2 36  1  1
  3 37  1  0
  3 38  1  0
  4 39  1  0
  4 40  1  0
  5 41  1  6
  8 42  1  0
  8 43  1  0
  8 44  1  0
  9 45  1  0
  9 46  1  0
  9 47  1  0
 10 48  1  6
 11 49  1  0
 11 50  1  0
 12 51  1  0
 12 52  1  0
 14 53  1  0
 14 54  1  0
 14 55  1  0
 15 56  1  1
 16 57  1  0
 16 58  1  0
 17 59  1  0
 19 60  1  6
 20 61  1  0
 20 62  1  0
 21 63  1  0
 21 64  1  0
 22 65  1  6
 23 66  1  0
 25 67  1  0
 25 68  1  0
 25 69  1  0
 26 70  1  0
 26 71  1  0
 26 72  1  0
 28 73  1  0
 28 74  1  0
 28 75  1  0
 29 76  1  0
 29 77  1  0
 30 78  1  0
 30 79  1  0
 32 80  1  0
 32 81  1  0
 32 82  1  0
M  END
>  <meeko>  (7) 
{"is_sidechain": [false], "intermolecular_energy": 2.731, "internal_energy": -0.839}

$$$$
EPH_relaxed_0001_pdb2pqr_Repair_367_r2_0001_out
     RDKit          3D

 82 86  0  0  0  0  0  0  0  0999 V2000
    4.5220   16.3660   -0.1680 C   0  0  0  0  0  0  0  0  0  0  0  0
    3.1840   17.0590   -0.4420 C   0  0  2  0  0  0  0  0  0  0  0  0
    2.9520   18.2650    0.4900 C   0  0  0  0  0  0  0  0  0  0  0  0
    2.3520   19.4830   -0.2170 C   0  0  0  0  0  0  0  0  0  0  0  0
    1.6200   19.0950   -1.4650 C   0  0  2  0  0  0  0  0  0  0  0  0
    1.2360   20.1940   -2.3010 O   0  0  0  0  0  0  0  0  0  0  0  0
    0.1630   19.4350   -1.7210 C   0  0  0  0  0  0  0  0  0  0  0  0
   -0.6480   20.1940   -0.7190 C   0  0  0  0  0  0  0  0  0  0  0  0
   -0.6000   18.6140   -2.7130 C   0  0  0  0  0  0  0  0  0  0  0  0
    2.0420   16.0600   -0.2950 C   0  0  1  0  0  0  0  0  0  0  0  0
    0.6570   16.7500   -0.1740 C   0  0  0  0  0  0  0  0  0  0  0  0
   -0.3650   15.8320   -0.8930 C   0  0  0  0  0  0  0  0  0  0  0  0
    0.3930   14.5010   -1.1110 C   0  0  1  0  0  0  0  0  0  0  0  0
    0.2930   13.7540    0.2560 C   0  0  0  0  0  0  0  0  0  0  0  0
   -0.1050   13.6080   -2.2940 C   0  0  2  0  0  0  0  0  0  0  0  0
   -1.5510   13.0980   -2.1640 C   0  0  0  0  0  0  0  0  0  0  0  0
   -1.7030   11.7820   -1.4760 C   0  0  0  0  0  0  0  0  0  0  0  0
   -0.7100   10.9050   -1.2360 C   0  0  0  0  0  0  0  0  0  0  0  0
    0.7090   11.1600   -1.7590 C   0  0  1  0  0  0  0  0  0  0  0  0
    1.2590    9.8670   -2.4160 C   0  0  0  0  0  0  0  0  0  0  0  0
    1.1890    8.6620   -1.4840 C   0  0  0  0  0  0  0  0  0  0  0  0
   -0.2470    8.4050   -1.0320 C   0  0  2  0  0  0  0  0  0  0  0  0
   -1.0210    7.9980   -2.1650 O   0  0  0  0  0  0  0  0  0  0  0  0
   -0.9090    9.6420   -0.3630 C   0  0  0  0  0  0  0  0  0  0  0  0
   -0.2570    9.8980    1.0180 C   0  0  0  0  0  0  0  0  0  0  0  0
   -2.3960    9.2940   -0.0840 C   0  0  0  0  0  0  0  0  0  0  0  0
    0.8870   12.4390   -2.6860 C   0  0  1  0  0  0  0  0  0  0  0  0
    0.5760   12.0700   -4.1680 C   0  0  0  0  0  0  0  0  0  0  0  0
    2.3940   12.8950   -2.6480 C   0  0  0  0  0  0  0  0  0  0  0  0
    2.7970   13.8710   -1.5270 C   0  0  0  0  0  0  0  0  0  0  0  0
    1.8250   15.0530   -1.4520 C   0  0  2  0  0  0  0  0  0  0  0  0
    1.9200   15.8360   -2.8060 C   0  0  0  0  0  0  0  0  0  0  0  0
    4.6776   16.2854    0.9180 H   0  0  0  0  0  0  0  0  0  0  0  0
    4.5116   15.3599   -0.6126 H   0  0  0  0  0  0  0  0  0  0  0  0
    5.3378   16.9549   -0.6126 H   0  0  0  0  0  0  0  0  0  0  0  0
    3.2145   17.4406   -1.4732 H   0  0  0  0  0  0  0  0  0  0  0  0
    2.2660   17.9566    1.2927 H   0  0  0  0  0  0  0  0  0  0  0  0
    3.9372   18.5690    0.8734 H   0  0  0  0  0  0  0  0  0  0  0  0
    1.6502   19.9823    0.4672 H   0  0  0  0  0  0  0  0  0  0  0  0
    3.1753   20.1562   -0.4979 H   0  0  0  0  0  0  0  0  0  0  0  0
    2.1791   18.1497   -1.5264 H   0  0  0  0  0  0  0  0  0  0  0  0
   -0.3396   19.9054    0.2967 H   0  0  0  0  0  0  0  0  0  0  0  0
   -0.4867   21.2731   -0.8584 H   0  0  0  0  0  0  0  0  0  0  0  0
   -1.7141   19.9616   -0.8584 H   0  0  0  0  0  0  0  0  0  0  0  0
   -1.2548   17.9094   -2.1794 H   0  0  0  0  0  0  0  0  0  0  0  0
   -1.2109   19.2760   -3.3443 H   0  0  0  0  0  0  0  0  0  0  0  0
    0.1049   18.0532   -3.3443 H   0  0  0  0  0  0  0  0  0  0  0  0
    2.3764   15.5290    0.6084 H   0  0  0  0  0  0  0  0  0  0  0  0
    0.3827   16.8656    0.8850 H   0  0  0  0  0  0  0  0  0  0  0  0
    0.6744   17.7522   -0.6270 H   0  0  0  0  0  0  0  0  0  0  0  0
   -1.2543   15.6742   -0.2652 H   0  0  0  0  0  0  0  0  0  0  0  0
   -0.7248   16.2670   -1.8371 H   0  0  0  0  0  0  0  0  0  0  0  0
    0.3900   14.4787    1.0778 H   0  0  0  0  0  0  0  0  0  0  0  0
   -0.6809   13.2476    0.3267 H   0  0  0  0  0  0  0  0  0  0  0  0
    1.0995   13.0093    0.3267 H   0  0  0  0  0  0  0  0  0  0  0  0
   -0.1130   14.3160   -3.1358 H   0  0  0  0  0  0  0  0  0  0  0  0
   -2.1257   13.8459   -1.5980 H   0  0  0  0  0  0  0  0  0  0  0  0
   -1.9147   12.9484   -3.1913 H   0  0  0  0  0  0  0  0  0  0  0  0
   -2.7120   11.5053   -1.1362 H   0  0  0  0  0  0  0  0  0  0  0  0
    1.3157   11.4183   -0.8785 H   0  0  0  0  0  0  0  0  0  0  0  0
    0.6671    9.6503   -3.3175 H   0  0  0  0  0  0  0  0  0  0  0  0
    2.3178   10.0402   -2.6587 H   0  0  0  0  0  0  0  0  0  0  0  0
    1.5639    7.7742   -2.0144 H   0  0  0  0  0  0  0  0  0  0  0  0
    1.8052    8.8681   -0.5964 H   0  0  0  0  0  0  0  0  0  0  0  0
   -0.2163    7.6145   -0.2677 H   0  0  0  0  0  0  0  0  0  0  0  0
   -1.9390    7.8840   -1.8680 H   0  0  0  0  0  0  0  0  0  0  0  0
   -0.9635    9.6206    1.8141 H   0  0  0  0  0  0  0  0  0  0  0  0
    0.6561    9.2916    1.1104 H   0  0  0  0  0  0  0  0  0  0  0  0
   -0.0004   10.9636    1.1104 H   0  0  0  0  0  0  0  0  0  0  0  0
   -2.5657    9.2543    1.0021 H   0  0  0  0  0  0  0  0  0  0  0  0
   -3.0426   10.0651   -0.5282 H   0  0  0  0  0  0  0  0  0  0  0  0
   -2.6333    8.3161   -0.5282 H   0  0  0  0  0  0  0  0  0  0  0  0
   -0.1327   11.2292   -4.1955 H   0  0  0  0  0  0  0  0  0  0  0  0
    0.1338   12.9390   -4.6772 H   0  0  0  0  0  0  0  0  0  0  0  0
    1.5074   11.7814   -4.6772 H   0  0  0  0  0  0  0  0  0  0  0  0
    3.0123   11.9916   -2.5406 H   0  0  0  0  0  0  0  0  0  0  0  0
    2.5494   13.4520   -3.5837 H   0  0  0  0  0  0  0  0  0  0  0  0
    2.7890   13.3372   -0.5652 H   0  0  0  0  0  0  0  0  0  0  0  0
    3.8033   14.2582   -1.7446 H   0  0  0  0  0  0  0  0  0  0  0  0
    2.0502   16.9088   -2.6008 H   0  0  0  0  0  0  0  0  0  0  0  0
    2.7799   15.4662   -3.3838 H   0  0  0  0  0  0  0  0  0  0  0  0
    0.9967   15.6826   -3.3838 H   0  0  0  0  0  0  0  0  0  0  0  0
  1  2  1  0
  2  3  1  0
  3  4  1  0
  4  5  1  0
  5  6  1  0
  6  7  1  0
  7  8  1  0
  7  9  1  0
  2 10  1  0
 10 11  1  0
 11 12  1  0
 12 13  1  0
 13 14  1  1
 13 15  1  0
 15 16  1  0
 16 17  1  0
 17 18  2  0
 18 19  1  0
 19 20  1  0
 20 21  1  0
 21 22  1  0
 22 23  1  0
 22 24  1  0
 24 25  1  0
 24 26  1  0
 19 27  1  0
 27 28  1  6
 27 29  1  0
 29 30  1  0
 30 31  1  0
 31 32  1  6
  7  5  1  0
 31 10  1  0
 31 13  1  0
 27 15  1  0
 24 18  1  0
  1 33  1  0
  1 34  1  0
  1 35  1  0
  2 36  1  6
  3 37  1  0
  3 38  1  0
  4 39  1  0
  4 40  1  0
  5 41  1  6
  8 42  1  0
  8 43  1  0
  8 44  1  0
  9 45  1  0
  9 46  1  0
  9 47  1  0
 10 48  1  1
 11 49  1  0
 11 50  1  0
 12 51  1  0
 12 52  1  0
 14 53  1  0
 14 54  1  0
 14 55  1  0
 15 56  1  6
 16 57  1  0
 16 58  1  0
 17 59  1  0
 19 60  1  1
 20 61  1  0
 20 62  1  0
 21 63  1  0
 21 64  1  0
 22 65  1  1
 23 66  1  0
 25 67  1  0
 25 68  1  0
 25 69  1  0
 26 70  1  0
 26 71  1  0
 26 72  1  0
 28 73  1  0
 28 74  1  0
 28 75  1  0
 29 76  1  0
 29 77  1  0
 30 78  1  0
 30 79  1  0
 32 80  1  0
 32 81  1  0
 32 82  1  0
M  END
>  <meeko>  (8) 
{"is_sidechain": [false], "intermolecular_energy": 2.731, "internal_energy": -0.839}

$$$$
EPH_relaxed_0001_pdb2pqr_Repair_367_r2_0001_out
     RDKit          3D

 82 86  0  0  0  0  0  0  0  0999 V2000
    0.4540    8.7930   -2.3570 C   0  0  0  0  0  0  0  0  0  0  0  0
    1.1890    9.9350   -3.0640 C   0  0  2  0  0  0  0  0  0  0  0  0
    2.6910    9.9620   -2.7160 C   0  0  0  0  0  0  0  0  0  0  0  0
    3.5650   10.5830   -3.8090 C   0  0  0  0  0  0  0  0  0  0  0  0
    4.9650   10.8220   -3.3300 C   0  0  2  0  0  0  0  0  0  0  0  0
    5.5660   12.0290   -3.8170 O   0  0  0  0  0  0  0  0  0  0  0  0
    6.1760   10.8000   -4.2440 C   0  0  0  0  0  0  0  0  0  0  0  0
    6.0430   10.5330   -5.7100 C   0  0  0  0  0  0  0  0  0  0  0  0
    7.5230   10.5540   -3.6400 C   0  0  0  0  0  0  0  0  0  0  0  0
    0.5470   11.2690   -2.7010 C   0  0  1  0  0  0  0  0  0  0  0  0
   -0.8330   11.1000   -2.0100 C   0  0  0  0  0  0  0  0  0  0  0  0
   -0.9540   12.2410   -0.9680 C   0  0  0  0  0  0  0  0  0  0  0  0
    0.1960   13.2140   -1.3200 C   0  0  1  0  0  0  0  0  0  0  0  0
   -0.3510   14.0690   -2.5060 C   0  0  0  0  0  0  0  0  0  0  0  0
    0.7210   14.1140   -0.1540 C   0  0  2  0  0  0  0  0  0  0  0  0
   -0.3140   15.0910    0.4330 C   0  0  0  0  0  0  0  0  0  0  0  0
   -0.3570   16.4370   -0.2110 C   0  0  0  0  0  0  0  0  0  0  0  0
    0.5870   16.9450   -1.0250 C   0  0  0  0  0  0  0  0  0  0  0  0
    1.8900   16.1820   -1.2930 C   0  0  1  0  0  0  0  0  0  0  0  0
    3.0950   17.1510   -1.1600 C   0  0  0  0  0  0  0  0  0  0  0  0
    2.9510   18.3870   -2.0430 C   0  0  0  0  0  0  0  0  0  0  0  0
    1.6720   19.1510   -1.7070 C   0  0  2  0  0  0  0  0  0  0  0  0
    1.7930   19.6930   -0.3880 O   0  0  0  0  0  0  0  0  0  0  0  0
    0.3930   18.2740   -1.7970 C   0  0  0  0  0  0  0  0  0  0  0  0
    0.0960   17.9360   -3.2790 C   0  0  0  0  0  0  0  0  0  0  0  0
   -0.8060   19.1250   -1.2980 C   0  0  0  0  0  0  0  0  0  0  0  0
    2.0920   14.8410   -0.4630 C   0  0  1  0  0  0  0  0  0  0  0  0
    2.7460   15.1620    0.9150 C   0  0  0  0  0  0  0  0  0  0  0  0
    3.1040   13.9100   -1.2300 C   0  0  0  0  0  0  0  0  0  0  0  0
    2.5090   12.9580   -2.2850 C   0  0  0  0  0  0  0  0  0  0  0  0
    1.3160   12.1850   -1.7160 C   0  0  2  0  0  0  0  0  0  0  0  0
    1.8390   11.2990   -0.5350 C   0  0  0  0  0  0  0  0  0  0  0  0
    0.5372    8.9222   -1.2678 H   0  0  0  0  0  0  0  0  0  0  0  0
   -0.6069    8.8042   -2.6476 H   0  0  0  0  0  0  0  0  0  0  0  0
    0.9036    7.8321   -2.6476 H   0  0  0  0  0  0  0  0  0  0  0  0
    1.1038    9.7632   -4.1472 H   0  0  0  0  0  0  0  0  0  0  0  0
    2.8231   10.5451   -1.7926 H   0  0  0  0  0  0  0  0  0  0  0  0
    3.0134    8.9165   -2.6020 H   0  0  0  0  0  0  0  0  0  0  0  0
    3.5949    9.9013   -4.6718 H   0  0  0  0  0  0  0  0  0  0  0  0
    3.1277   11.5530   -4.0880 H   0  0  0  0  0  0  0  0  0  0  0  0
    4.7509   10.3171   -2.3764 H   0  0  0  0  0  0  0  0  0  0  0  0
    5.5573    9.5579   -5.8625 H   0  0  0  0  0  0  0  0  0  0  0  0
    5.4330   11.3228   -6.1727 H   0  0  0  0  0  0  0  0  0  0  0  0
    7.0409   10.5219   -6.1727 H   0  0  0  0  0  0  0  0  0  0  0  0
    7.4413   10.5689   -2.5431 H   0  0  0  0  0  0  0  0  0  0  0  0
    7.8975    9.5726   -3.9665 H   0  0  0  0  0  0  0  0  0  0  0  0
    8.2203   11.3397   -3.9665 H   0  0  0  0  0  0  0  0  0  0  0  0
    0.5131   11.7335   -3.6975 H   0  0  0  0  0  0  0  0  0  0  0  0
   -1.6406   11.1781   -2.7527 H   0  0  0  0  0  0  0  0  0  0  0  0
   -0.9154   10.1146   -1.5281 H   0  0  0  0  0  0  0  0  0  0  0  0
   -1.9284   12.7440   -1.0542 H   0  0  0  0  0  0  0  0  0  0  0  0
   -0.8859   11.8711    0.0657 H   0  0  0  0  0  0  0  0  0  0  0  0
   -0.9041   14.9336   -2.1102 H   0  0  0  0  0  0  0  0  0  0  0  0
    0.4894   14.4220   -3.1217 H   0  0  0  0  0  0  0  0  0  0  0  0
   -1.0237   13.4539   -3.1217 H   0  0  0  0  0  0  0  0  0  0  0  0
    0.9216   13.3790    0.6394 H   0  0  0  0  0  0  0  0  0  0  0  0
   -1.3092   14.6335    0.3312 H   0  0  0  0  0  0  0  0  0  0  0  0
   -0.0127   15.2626    1.4769 H   0  0  0  0  0  0  0  0  0  0  0  0
   -1.2343   17.0670   -0.0027 H   0  0  0  0  0  0  0  0  0  0  0  0
    1.8189   15.8139   -2.3272 H   0  0  0  0  0  0  0  0  0  0  0  0
    3.1740   17.4738   -0.1114 H   0  0  0  0  0  0  0  0  0  0  0  0
    3.9960   16.6106   -1.4858 H   0  0  0  0  0  0  0  0  0  0  0  0
    3.8168   19.0464   -1.8834 H   0  0  0  0  0  0  0  0  0  0  0  0
    2.9020   18.0646   -3.0935 H   0  0  0  0  0  0  0  0  0  0  0  0
    1.5573   19.9488   -2.4555 H   0  0  0  0  0  0  0  0  0  0  0  0
    1.0140   20.2530   -0.2280 H   0  0  0  0  0  0  0  0  0  0  0  0
   -0.6293   17.1105   -3.3286 H   0  0  0  0  0  0  0  0  0  0  0  0
   -0.3215   18.8216   -3.7805 H   0  0  0  0  0  0  0  0  0  0  0  0
    1.0279   17.6359   -3.7805 H   0  0  0  0  0  0  0  0  0  0  0  0
   -0.8173   19.1331   -0.1981 H   0  0  0  0  0  0  0  0  0  0  0  0
   -0.7052   20.1548   -1.6712 H   0  0  0  0  0  0  0  0  0  0  0  0
   -1.7449   18.6900   -1.6712 H   0  0  0  0  0  0  0  0  0  0  0  0
    2.0768   14.8335    1.7239 H   0  0  0  0  0  0  0  0  0  0  0  0
    3.7071   14.6332    0.9968 H   0  0  0  0  0  0  0  0  0  0  0  0
    2.9156   16.2458    0.9968 H   0  0  0  0  0  0  0  0  0  0  0  0
    3.8320   14.5583   -1.7396 H   0  0  0  0  0  0  0  0  0  0  0  0
    3.5325   13.2533   -0.4586 H   0  0  0  0  0  0  0  0  0  0  0  0
    2.1758   13.5460   -3.1529 H   0  0  0  0  0  0  0  0  0  0  0  0
    3.2841   12.2366   -2.5829 H   0  0  0  0  0  0  0  0  0  0  0  0
    1.5639   11.7650    0.4227 H   0  0  0  0  0  0  0  0  0  0  0  0
    1.3867   10.2983   -0.5991 H   0  0  0  0  0  0  0  0  0  0  0  0
    2.9336   11.2114   -0.5991 H   0  0  0  0  0  0  0  0  0  0  0  0
  1  2  1  0
  2  3  1  0
  3  4  1  0
  4  5  1  0
  5  6  1  0
  6  7  1  0
  7  8  1  0
  7  9  1  0
  2 10  1  0
 10 11  1  0
 11 12  1  0
 12 13  1  0
 13 14  1  6
 13 15  1  0
 15 16  1  0
 16 17  1  0
 17 18  2  0
 18 19  1  0
 19 20  1  0
 20 21  1  0
 21 22  1  0
 22 23  1  0
 22 24  1  0
 24 25  1  0
 24 26  1  0
 19 27  1  0
 27 28  1  1
 27 29  1  0
 29 30  1  0
 30 31  1  0
 31 32  1  1
  7  5  1  0
 31 10  1  0
 31 13  1  0
 27 15  1  0
 24 18  1  0
  1 33  1  0
  1 34  1  0
  1 35  1  0
  2 36  1  6
  3 37  1  0
  3 38  1  0
  4 39  1  0
  4 40  1  0
  5 41  1  1
  8 42  1  0
  8 43  1  0
  8 44  1  0
  9 45  1  0
  9 46  1  0
  9 47  1  0
 10 48  1  6
 11 49  1  0
 11 50  1  0
 12 51  1  0
 12 52  1  0
 14 53  1  0
 14 54  1  0
 14 55  1  0
 15 56  1  1
 16 57  1  0
 16 58  1  0
 17 59  1  0
 19 60  1  6
 20 61  1  0
 20 62  1  0
 21 63  1  0
 21 64  1  0
 22 65  1  6
 23 66  1  0
 25 67  1  0
 25 68  1  0
 25 69  1  0
 26 70  1  0
 26 71  1  0
 26 72  1  0
 28 73  1  0
 28 74  1  0
 28 75  1  0
 29 76  1  0
 29 77  1  0
 30 78  1  0
 30 79  1  0
 32 80  1  0
 32 81  1  0
 32 82  1  0
M  END
>  <meeko>  (9) 
{"is_sidechain": [false], "intermolecular_energy": 2.731, "internal_energy": -0.839}

$$$$
EPH_relaxed_0001_pdb2pqr_Repair_367_r2_0001_out
     RDKit          3D

 82 86  0  0  0  0  0  0  0  0999 V2000
    2.1240   19.1770   -2.2090 C   0  0  0  0  0  0  0  0  0  0  0  0
    1.6050   19.1280   -0.7690 C   0  0  2  0  0  0  0  0  0  0  0  0
    2.6380   19.6680    0.2400 C   0  0  0  0  0  0  0  0  0  0  0  0
    3.4820   18.5760    0.9010 C   0  0  0  0  0  0  0  0  0  0  0  0
    3.7210   18.8620    2.3530 C   0  0  2  0  0  0  0  0  0  0  0  0
    4.1900   20.1870    2.6330 O   0  0  0  0  0  0  0  0  0  0  0  0
    5.0960   19.1160    2.9410 C   0  0  0  0  0  0  0  0  0  0  0  0
    6.3250   19.0940    2.0870 C   0  0  0  0  0  0  0  0  0  0  0  0
    5.2980   18.9000    4.4080 C   0  0  0  0  0  0  0  0  0  0  0  0
    1.2180   17.7000   -0.4040 C   0  0  1  0  0  0  0  0  0  0  0  0
   -0.1020   17.6280    0.4080 C   0  0  0  0  0  0  0  0  0  0  0  0
   -0.8250   16.3270   -0.0270 C   0  0  0  0  0  0  0  0  0  0  0  0
    0.2420   15.5340   -0.8170 C   0  0  1  0  0  0  0  0  0  0  0  0
    1.1110   14.8340    0.2750 C   0  0  0  0  0  0  0  0  0  0  0  0
   -0.2960   14.5100   -1.8690 C   0  0  2  0  0  0  0  0  0  0  0  0
   -1.1390   13.3610   -1.2900 C   0  0  0  0  0  0  0  0  0  0  0  0
   -0.3730   12.1380   -0.9080 C   0  0  0  0  0  0  0  0  0  0  0  0
    0.8890   11.8560   -1.2830 C   0  0  0  0  0  0  0  0  0  0  0  0
    1.6430   12.7700   -2.2580 C   0  0  1  0  0  0  0  0  0  0  0  0
    2.3330   11.9070   -3.3480 C   0  0  0  0  0  0  0  0  0  0  0  0
    3.2260   10.8210   -2.7560 C   0  0  0  0  0  0  0  0  0  0  0  0
    2.4270    9.8990   -1.8380 C   0  0  2  0  0  0  0  0  0  0  0  0
    1.4860    9.1650   -2.6280 O   0  0  0  0  0  0  0  0  0  0  0  0
    1.6800   10.6570   -0.7060 C   0  0  0  0  0  0  0  0  0  0  0  0
    2.7050   11.2000    0.3200 C   0  0  0  0  0  0  0  0  0  0  0  0
    0.8030    9.6290    0.0590 C   0  0  0  0  0  0  0  0  0  0  0  0
    0.8040   13.9720   -2.8710 C   0  0  1  0  0  0  0  0  0  0  0  0
    0.0480   13.4960   -4.1490 C   0  0  0  0  0  0  0  0  0  0  0  0
    1.7940   15.1040   -3.3380 C   0  0  0  0  0  0  0  0  0  0  0  0
    2.1940   16.1540   -2.2840 C   0  0  0  0  0  0  0  0  0  0  0  0
    0.9600   16.7130   -1.5700 C   0  0  2  0  0  0  0  0  0  0  0  0
    0.0770   17.4420   -2.6390 C   0  0  0  0  0  0  0  0  0  0  0  0
    3.2191   19.2804   -2.2007 H   0  0  0  0  0  0  0  0  0  0  0  0
    1.8473   18.2487   -2.7303 H   0  0  0  0  0  0  0  0  0  0  0  0
    1.6784   20.0371   -2.7303 H   0  0  0  0  0  0  0  0  0  0  0  0
    0.7197   19.7786   -0.7147 H   0  0  0  0  0  0  0  0  0  0  0  0
    3.3135   20.3562   -0.2893 H   0  0  0  0  0  0  0  0  0  0  0  0
    2.0736   20.1671    1.0415 H   0  0  0  0  0  0  0  0  0  0  0  0
    2.9559   17.6143    0.8091 H   0  0  0  0  0  0  0  0  0  0  0  0
    4.4573   18.5422    0.3933 H   0  0  0  0  0  0  0  0  0  0  0  0
    2.9084   18.1803    2.6447 H   0  0  0  0  0  0  0  0  0  0  0  0
    7.2177   19.0780    2.7295 H   0  0  0  0  0  0  0  0  0  0  0  0
    6.3142   18.1959    1.4519 H   0  0  0  0  0  0  0  0  0  0  0  0
    6.3463   19.9919    1.4519 H   0  0  0  0  0  0  0  0  0  0  0  0
    4.6531   19.5896    4.9724 H   0  0  0  0  0  0  0  0  0  0  0  0
    5.0387   17.8623    4.6650 H   0  0  0  0  0  0  0  0  0  0  0  0
    6.3507   19.0893    4.6650 H   0  0  0  0  0  0  0  0  0  0  0  0
    2.1199   17.4004    0.1498 H   0  0  0  0  0  0  0  0  0  0  0  0
    0.1174   17.5972    1.4855 H   0  0  0  0  0  0  0  0  0  0  0  0
   -0.7304   18.5109    0.2191 H   0  0  0  0  0  0  0  0  0  0  0  0
   -1.1610   15.7570    0.8517 H   0  0  0  0  0  0  0  0  0  0  0  0
   -1.7239   16.5299   -0.6277 H   0  0  0  0  0  0  0  0  0  0  0  0
    0.7502   15.1246    1.2727 H   0  0  0  0  0  0  0  0  0  0  0  0
    1.0341   13.7426    0.1608 H   0  0  0  0  0  0  0  0  0  0  0  0
    2.1609   15.1415    0.1608 H   0  0  0  0  0  0  0  0  0  0  0  0
   -0.9930   15.1231   -2.4592 H   0  0  0  0  0  0  0  0  0  0  0  0
   -1.6521   13.7351   -0.3918 H   0  0  0  0  0  0  0  0  0  0  0  0
   -1.8248   13.0522   -2.0927 H   0  0  0  0  0  0  0  0  0  0  0  0
   -0.8829   11.4050   -0.2656 H   0  0  0  0  0  0  0  0  0  0  0  0
    2.4034   13.2927   -1.6592 H   0  0  0  0  0  0  0  0  0  0  0  0
    1.5564   11.4286   -3.9629 H   0  0  0  0  0  0  0  0  0  0  0  0
    2.9706   12.5735   -3.9474 H   0  0  0  0  0  0  0  0  0  0  0  0
    3.6606   10.2269   -3.5734 H   0  0  0  0  0  0  0  0  0  0  0  0
    4.0202   11.3019   -2.1662 H   0  0  0  0  0  0  0  0  0  0  0  0
    3.1426    9.2254   -1.3439 H   0  0  0  0  0  0  0  0  0  0  0  0
    0.8400    8.7660   -2.0210 H   0  0  0  0  0  0  0  0  0  0  0  0
    2.3405   11.0069    1.3397 H   0  0  0  0  0  0  0  0  0  0  0  0
    3.6717   10.6957    0.1745 H   0  0  0  0  0  0  0  0  0  0  0  0
    2.8308   12.2831    0.1745 H   0  0  0  0  0  0  0  0  0  0  0  0
    0.9275    9.7750    1.1421 H   0  0  0  0  0  0  0  0  0  0  0  0
   -0.2532    9.7748   -0.2116 H   0  0  0  0  0  0  0  0  0  0  0  0
    1.1134    8.6090   -0.2116 H   0  0  0  0  0  0  0  0  0  0  0  0
   -0.8491   12.9312   -3.8553 H   0  0  0  0  0  0  0  0  0  0  0  0
   -0.2487   14.3706   -4.7466 H   0  0  0  0  0  0  0  0  0  0  0  0
    0.7084   12.8505   -4.7466 H   0  0  0  0  0  0  0  0  0  0  0  0
    2.7156   14.6165   -3.6887 H   0  0  0  0  0  0  0  0  0  0  0  0
    1.2470   15.6647   -4.1103 H   0  0  0  0  0  0  0  0  0  0  0  0
    2.8569   15.6846   -1.5422 H   0  0  0  0  0  0  0  0  0  0  0  0
    2.7096   16.9820   -2.7925 H   0  0  0  0  0  0  0  0  0  0  0  0
   -0.6754   18.0632   -2.1311 H   0  0  0  0  0  0  0  0  0  0  0  0
    0.7150   18.0799   -3.2683 H   0  0  0  0  0  0  0  0  0  0  0  0
   -0.4286   16.6947   -3.2683 H   0  0  0  0  0  0  0  0  0  0  0  0
  1  2  1  0
  2  3  1  0
  3  4  1  0
  4  5  1  0
  5  6  1  0
  6  7  1  0
  7  8  1  0
  7  9  1  0
  2 10  1  0
 10 11  1  0
 11 12  1  0
 12 13  1  0
 13 14  1  1
 13 15  1  0
 15 16  1  0
 16 17  1  0
 17 18  2  0
 18 19  1  0
 19 20  1  0
 20 21  1  0
 21 22  1  0
 22 23  1  0
 22 24  1  0
 24 25  1  0
 24 26  1  0
 19 27  1  0
 27 28  1  6
 27 29  1  0
 29 30  1  0
 30 31  1  0
 31 32  1  6
  7  5  1  0
 31 10  1  0
 31 13  1  0
 27 15  1  0
 24 18  1  0
  1 33  1  0
  1 34  1  0
  1 35  1  0
  2 36  1  6
  3 37  1  0
  3 38  1  0
  4 39  1  0
  4 40  1  0
  5 41  1  1
  8 42  1  0
  8 43  1  0
  8 44  1  0
  9 45  1  0
  9 46  1  0
  9 47  1  0
 10 48  1  1
 11 49  1  0
 11 50  1  0
 12 51  1  0
 12 52  1  0
 14 53  1  0
 14 54  1  0
 14 55  1  0
 15 56  1  6
 16 57  1  0
 16 58  1  0
 17 59  1  0
 19 60  1  1
 20 61  1  0
 20 62  1  0
 21 63  1  0
 21 64  1  0
 22 65  1  1
 23 66  1  0
 25 67  1  0
 25 68  1  0
 25 69  1  0
 26 70  1  0
 26 71  1  0
 26 72  1  0
 28 73  1  0
 28 74  1  0
 28 75  1  0
 29 76  1  0
 29 77  1  0
 30 78  1  0
 30 79  1  0
 32 80  1  0
 32 81  1  0
 32 82  1  0
M  END
>  <meeko>  (10) 
{"is_sidechain": [false], "intermolecular_energy": 2.731, "internal_energy": -0.839}

$$$$
EPH_relaxed_0001_pdb2pqr_Repair_367_r2_0001_out
     RDKit          3D

 82 86  0  0  0  0  0  0  0  0999 V2000
   -7.4720    7.9520   -2.5640 C   0  0  0  0  0  0  0  0  0  0  0  0
   -6.7950    7.6240   -1.2300 C   0  0  2  0  0  0  0  0  0  0  0  0
   -7.8120    7.4990   -0.0780 C   0  0  0  0  0  0  0  0  0  0  0  0
   -9.1690    6.9380   -0.5130 C   0  0  0  0  0  0  0  0  0  0  0  0
  -10.2840    7.4560    0.3440 C   0  0  2  0  0  0  0  0  0  0  0  0
  -11.3590    6.5310    0.5530 O   0  0  0  0  0  0  0  0  0  0  0  0
  -11.6830    7.7260   -0.1760 C   0  0  0  0  0  0  0  0  0  0  0  0
  -12.0430    7.4850   -1.6090 C   0  0  0  0  0  0  0  0  0  0  0  0
  -12.5580    8.6760    0.5810 C   0  0  0  0  0  0  0  0  0  0  0  0
   -5.7600    8.6910   -0.8970 C   0  0  1  0  0  0  0  0  0  0  0  0
   -5.9030    9.2320    0.5510 C   0  0  0  0  0  0  0  0  0  0  0  0
   -4.4700    9.5360    1.0590 C   0  0  0  0  0  0  0  0  0  0  0  0
   -3.5870    9.4790   -0.2090 C   0  0  1  0  0  0  0  0  0  0  0  0
   -3.7760   10.8700   -0.8930 C   0  0  0  0  0  0  0  0  0  0  0  0
   -2.0760    9.1470    0.0160 C   0  0  2  0  0  0  0  0  0  0  0  0
   -1.3010   10.1740    0.8610 C   0  0  0  0  0  0  0  0  0  0  0  0
   -0.6540   11.2760    0.0900 C   0  0  0  0  0  0  0  0  0  0  0  0
   -0.4510   11.2860   -1.2410 C   0  0  0  0  0  0  0  0  0  0  0  0
   -0.8000   10.0630   -2.1000 C   0  0  1  0  0  0  0  0  0  0  0  0
    0.3740    9.7570   -3.0660 C   0  0  0  0  0  0  0  0  0  0  0  0
    0.7700   10.9670   -3.9070 C   0  0  0  0  0  0  0  0  0  0  0  0
    1.1670   12.1420   -3.0180 C   0  0  2  0  0  0  0  0  0  0  0  0
    2.3720   11.8090   -2.3220 O   0  0  0  0  0  0  0  0  0  0  0  0
    0.0640   12.5360   -1.9950 C   0  0  0  0  0  0  0  0  0  0  0  0
   -1.1300   13.1810   -2.7400 C   0  0  0  0  0  0  0  0  0  0  0  0
    0.6440   13.6390   -1.0690 C   0  0  0  0  0  0  0  0  0  0  0  0
   -1.2900    8.7760   -1.3070 C   0  0  1  0  0  0  0  0  0  0  0  0
   -0.0610    7.9210   -0.8690 C   0  0  0  0  0  0  0  0  0  0  0  0
   -2.1390    7.8690   -2.2730 C   0  0  0  0  0  0  0  0  0  0  0  0
   -3.6480    8.1700   -2.3610 C   0  0  0  0  0  0  0  0  0  0  0  0
   -4.2670    8.2800   -0.9650 C   0  0  2  0  0  0  0  0  0  0  0  0
   -4.1120    6.8890   -0.2610 C   0  0  0  0  0  0  0  0  0  0  0  0
   -8.4470    8.4244   -2.3740 H   0  0  0  0  0  0  0  0  0  0  0  0
   -6.8360    8.6419   -3.1381 H   0  0  0  0  0  0  0  0  0  0  0  0
   -7.6192    7.0253   -3.1381 H   0  0  0  0  0  0  0  0  0  0  0  0
   -6.3004    6.6477   -1.3410 H   0  0  0  0  0  0  0  0  0  0  0  0
   -7.3894    6.8314    0.6874 H   0  0  0  0  0  0  0  0  0  0  0  0
   -7.9916    8.5148    0.3039 H   0  0  0  0  0  0  0  0  0  0  0  0
   -9.3570    7.2293   -1.5569 H   0  0  0  0  0  0  0  0  0  0  0  0
   -9.1367    5.8434   -0.4086 H   0  0  0  0  0  0  0  0  0  0  0  0
   -9.5817    8.0710    0.9257 H   0  0  0  0  0  0  0  0  0  0  0  0
  -12.9561    6.8737   -1.6599 H   0  0  0  0  0  0  0  0  0  0  0  0
  -12.2183    8.4484   -2.1100 H   0  0  0  0  0  0  0  0  0  0  0  0
  -11.2191    6.9558   -2.1100 H   0  0  0  0  0  0  0  0  0  0  0  0
  -12.4170    8.5229    1.6611 H   0  0  0  0  0  0  0  0  0  0  0  0
  -12.2893    9.7100    0.3190 H   0  0  0  0  0  0  0  0  0  0  0  0
  -13.6106    8.4931    0.3190 H   0  0  0  0  0  0  0  0  0  0  0  0
   -5.9864    9.4201   -1.6889 H   0  0  0  0  0  0  0  0  0  0  0  0
   -6.5087   10.1502    0.5541 H   0  0  0  0  0  0  0  0  0  0  0  0
   -6.4041    8.4979    1.1990 H   0  0  0  0  0  0  0  0  0  0  0  0
   -4.4247   10.5340    1.5194 H   0  0  0  0  0  0  0  0  0  0  0  0
   -4.1404    8.8235    1.8295 H   0  0  0  0  0  0  0  0  0  0  0  0
   -3.8815   11.6468   -0.1213 H   0  0  0  0  0  0  0  0  0  0  0  0
   -2.8998   11.0925   -1.5198 H   0  0  0  0  0  0  0  0  0  0  0  0
   -4.6798   10.8506   -1.5198 H   0  0  0  0  0  0  0  0  0  0  0  0
   -2.1234    8.2330    0.6262 H   0  0  0  0  0  0  0  0  0  0  0  0
   -2.0045   10.6266    1.5753 H   0  0  0  0  0  0  0  0  0  0  0  0
   -0.4826    9.6174    1.3410 H   0  0  0  0  0  0  0  0  0  0  0  0
   -0.3140   12.1549    0.6575 H   0  0  0  0  0  0  0  0  0  0  0  0
   -1.6945   10.3413   -2.6766 H   0  0  0  0  0  0  0  0  0  0  0  0
    1.2446    9.4392   -2.4735 H   0  0  0  0  0  0  0  0  0  0  0  0
    0.0424    8.9658   -3.7545 H   0  0  0  0  0  0  0  0  0  0  0  0
    1.6219   10.6966   -4.5482 H   0  0  0  0  0  0  0  0  0  0  0  0
   -0.0928   11.2662   -4.5202 H   0  0  0  0  0  0  0  0  0  0  0  0
    1.3151   13.0142   -3.6717 H   0  0  0  0  0  0  0  0  0  0  0  0
    2.1350   11.2100   -1.5940 H   0  0  0  0  0  0  0  0  0  0  0  0
   -1.8519   13.5710   -2.0073 H   0  0  0  0  0  0  0  0  0  0  0  0
   -0.7664   14.0054   -3.3710 H   0  0  0  0  0  0  0  0  0  0  0  0
   -1.6201   12.4249   -3.3710 H   0  0  0  0  0  0  0  0  0  0  0  0
    0.4931   13.3520   -0.0179 H   0  0  0  0  0  0  0  0  0  0  0  0
    1.7199   13.7552   -1.2665 H   0  0  0  0  0  0  0  0  0  0  0  0
    0.1300   14.5912   -1.2665 H   0  0  0  0  0  0  0  0  0  0  0  0
   -0.0112    7.8863    0.2293 H   0  0  0  0  0  0  0  0  0  0  0  0
   -0.1655    6.8996   -1.2637 H   0  0  0  0  0  0  0  0  0  0  0  0
    0.8603    8.3742   -1.2637 H   0  0  0  0  0  0  0  0  0  0  0  0
   -1.7189    7.9751   -3.2841 H   0  0  0  0  0  0  0  0  0  0  0  0
   -2.0717    6.8558   -1.8500 H   0  0  0  0  0  0  0  0  0  0  0  0
   -3.7949    9.1200   -2.8957 H   0  0  0  0  0  0  0  0  0  0  0  0
   -4.1394    7.3457   -2.8987 H   0  0  0  0  0  0  0  0  0  0  0  0
   -4.1273    7.0266    0.8303 H   0  0  0  0  0  0  0  0  0  0  0  0
   -4.9425    6.2324   -0.5595 H   0  0  0  0  0  0  0  0  0  0  0  0
   -3.1573    6.4313   -0.5595 H   0  0  0  0  0  0  0  0  0  0  0  0
  1  2  1  0
  2  3  1  0
  3  4  1  0
  4  5  1  0
  5  6  1  0
  6  7  1  0
  7  8  1  0
  7  9  1  0
  2 10  1  0
 10 11  1  0
 11 12  1  0
 12 13  1  0
 13 14  1  6
 13 15  1  0
 15 16  1  0
 16 17  1  0
 17 18  2  0
 18 19  1  0
 19 20  1  0
 20 21  1  0
 21 22  1  0
 22 23  1  0
 22 24  1  0
 24 25  1  0
 24 26  1  0
 19 27  1  0
 27 28  1  1
 27 29  1  0
 29 30  1  0
 30 31  1  0
 31 32  1  1
  7  5  1  0
 31 10  1  0
 31 13  1  0
 27 15  1  0
 24 18  1  0
  1 33  1  0
  1 34  1  0
  1 35  1  0
  2 36  1  6
  3 37  1  0
  3 38  1  0
  4 39  1  0
  4 40  1  0
  5 41  1  1
  8 42  1  0
  8 43  1  0
  8 44  1  0
  9 45  1  0
  9 46  1  0
  9 47  1  0
 10 48  1  6
 11 49  1  0
 11 50  1  0
 12 51  1  0
 12 52  1  0
 14 53  1  0
 14 54  1  0
 14 55  1  0
 15 56  1  1
 16 57  1  0
 16 58  1  0
 17 59  1  0
 19 60  1  6
 20 61  1  0
 20 62  1  0
 21 63  1  0
 21 64  1  0
 22 65  1  6
 23 66  1  0
 25 67  1  0
 25 68  1  0
 25 69  1  0
 26 70  1  0
 26 71  1  0
 26 72  1  0
 28 73  1  0
 28 74  1  0
 28 75  1  0
 29 76  1  0
 29 77  1  0
 30 78  1  0
 30 79  1  0
 32 80  1  0
 32 81  1  0
 32 82  1  0
M  END
>  <meeko>  (11) 
{"is_sidechain": [false], "intermolecular_energy": 2.731, "internal_energy": -0.839}

$$$$
EPH_relaxed_0001_pdb2pqr_Repair_367_r2_0001_out
     RDKit          3D

 82 86  0  0  0  0  0  0  0  0999 V2000
   -0.1920   20.1810   -2.1950 C   0  0  0  0  0  0  0  0  0  0  0  0
   -0.0720   19.1380   -1.0800 C   0  0  2  0  0  0  0  0  0  0  0  0
    0.6510   19.6960    0.1620 C   0  0  0  0  0  0  0  0  0  0  0  0
    2.1370   19.9820   -0.0680 C   0  0  0  0  0  0  0  0  0  0  0  0
    2.8870   20.0940    1.2250 C   0  0  2  0  0  0  0  0  0  0  0  0
    4.3100   20.1870    1.0860 O   0  0  0  0  0  0  0  0  0  0  0  0
    3.8140   19.0140    1.7500 C   0  0  0  0  0  0  0  0  0  0  0  0
    4.0410   17.7430    0.9920 C   0  0  0  0  0  0  0  0  0  0  0  0
    4.1140   18.9790    3.2160 C   0  0  0  0  0  0  0  0  0  0  0  0
    0.6590   17.9050   -1.5990 C   0  0  1  0  0  0  0  0  0  0  0  0
    2.1780   18.1510   -1.8000 C   0  0  0  0  0  0  0  0  0  0  0  0
    2.8970   16.8250   -1.4450 C   0  0  0  0  0  0  0  0  0  0  0  0
    1.7640   15.7740   -1.3750 C   0  0  1  0  0  0  0  0  0  0  0  0
    1.4940   15.3760   -2.8600 C   0  0  0  0  0  0  0  0  0  0  0  0
    2.0400   14.5190   -0.4830 C   0  0  2  0  0  0  0  0  0  0  0  0
    3.2190   13.6420   -0.9370 C   0  0  0  0  0  0  0  0  0  0  0  0
    2.8690   12.5430   -1.8850 C   0  0  0  0  0  0  0  0  0  0  0  0
    1.6250   12.0900   -2.1320 C   0  0  0  0  0  0  0  0  0  0  0  0
    0.4200   12.6320   -1.3520 C   0  0  1  0  0  0  0  0  0  0  0  0
   -0.4670   11.4490   -0.8820 C   0  0  0  0  0  0  0  0  0  0  0  0
   -0.8790   10.5340   -2.0320 C   0  0  0  0  0  0  0  0  0  0  0  0
    0.3470    9.9700   -2.7460 C   0  0  2  0  0  0  0  0  0  0  0  0
    1.0380    9.0920   -1.8510 O   0  0  0  0  0  0  0  0  0  0  0  0
    1.3200   11.0690   -3.2560 C   0  0  0  0  0  0  0  0  0  0  0  0
    0.6720   11.8290   -4.4390 C   0  0  0  0  0  0  0  0  0  0  0  0
    2.5790   10.3650   -3.8290 C   0  0  0  0  0  0  0  0  0  0  0  0
    0.7550   13.6470   -0.1760 C   0  0  1  0  0  0  0  0  0  0  0  0
    1.0540   12.8620    1.1370 C   0  0  0  0  0  0  0  0  0  0  0  0
   -0.5140   14.5330    0.1150 C   0  0  0  0  0  0  0  0  0  0  0  0
   -0.6670   15.8210   -0.7170 C   0  0  0  0  0  0  0  0  0  0  0  0
    0.6300   16.6360   -0.7110 C   0  0  2  0  0  0  0  0  0  0  0  0
    0.9160   17.0680    0.7680 C   0  0  0  0  0  0  0  0  0  0  0  0
   -0.3070   21.1808   -1.7510 H   0  0  0  0  0  0  0  0  0  0  0  0
    0.7147   20.1583   -2.8174 H   0  0  0  0  0  0  0  0  0  0  0  0
   -1.0698   19.9530   -2.8174 H   0  0  0  0  0  0  0  0  0  0  0  0
   -1.0917   18.8636   -0.7720 H   0  0  0  0  0  0  0  0  0  0  0  0
    0.1586   20.6339    0.4583 H   0  0  0  0  0  0  0  0  0  0  0  0
    0.5893   18.9245    0.9437 H   0  0  0  0  0  0  0  0  0  0  0  0
    2.5699   19.1631   -0.6614 H   0  0  0  0  0  0  0  0  0  0  0  0
    2.2232   20.9418   -0.5985 H   0  0  0  0  0  0  0  0  0  0  0  0
    2.0522   20.6398    1.6890 H   0  0  0  0  0  0  0  0  0  0  0  0
    4.1889   16.9148    1.7007 H   0  0  0  0  0  0  0  0  0  0  0  0
    3.1663   17.5323    0.3592 H   0  0  0  0  0  0  0  0  0  0  0  0
    4.9346   17.8481    0.3592 H   0  0  0  0  0  0  0  0  0  0  0  0
    3.1786   19.0881    3.7844 H   0  0  0  0  0  0  0  0  0  0  0  0
    4.5879   18.0195    3.4705 H   0  0  0  0  0  0  0  0  0  0  0  0
    4.7960   19.8037    3.4705 H   0  0  0  0  0  0  0  0  0  0  0  0
    0.0915   17.7301   -2.5249 H   0  0  0  0  0  0  0  0  0  0  0  0
    2.3823   18.4243   -2.8457 H   0  0  0  0  0  0  0  0  0  0  0  0
    2.5321   18.9749   -1.1630 H   0  0  0  0  0  0  0  0  0  0  0  0
    3.6267   16.5583   -2.2237 H   0  0  0  0  0  0  0  0  0  0  0  0
    3.4602   16.8949   -0.5027 H   0  0  0  0  0  0  0  0  0  0  0  0
    0.8767   14.4660   -2.8893 H   0  0  0  0  0  0  0  0  0  0  0  0
    0.9643   16.1950   -3.3686 H   0  0  0  0  0  0  0  0  0  0  0  0
    2.4508   15.1865   -3.3686 H   0  0  0  0  0  0  0  0  0  0  0  0
    2.3542   14.9711    0.4693 H   0  0  0  0  0  0  0  0  0  0  0  0
    3.9570   14.2928   -1.4288 H   0  0  0  0  0  0  0  0  0  0  0  0
    3.5998   13.1509   -0.0294 H   0  0  0  0  0  0  0  0  0  0  0  0
    3.6969   12.0629   -2.4274 H   0  0  0  0  0  0  0  0  0  0  0  0
   -0.1407   13.2621   -2.0581 H   0  0  0  0  0  0  0  0  0  0  0  0
    0.0957   10.8574   -0.1448 H   0  0  0  0  0  0  0  0  0  0  0  0
   -1.3843   11.8718   -0.4463 H   0  0  0  0  0  0  0  0  0  0  0  0
   -1.4780    9.7020   -1.6333 H   0  0  0  0  0  0  0  0  0  0  0  0
   -1.4672   11.1199   -2.7536 H   0  0  0  0  0  0  0  0  0  0  0  0
   -0.0090    9.4306   -3.6361 H   0  0  0  0  0  0  0  0  0  0  0  0
    1.7340    9.6090   -1.4120 H   0  0  0  0  0  0  0  0  0  0  0  0
    0.0044   12.6120   -4.0501 H   0  0  0  0  0  0  0  0  0  0  0  0
    1.4590   12.2902   -5.0537 H   0  0  0  0  0  0  0  0  0  0  0  0
    0.0922   11.1248   -5.0537 H   0  0  0  0  0  0  0  0  0  0  0  0
    3.2106   10.0118   -3.0005 H   0  0  0  0  0  0  0  0  0  0  0  0
    2.2710    9.5082   -4.4463 H   0  0  0  0  0  0  0  0  0  0  0  0
    3.1477   11.0760   -4.4463 H   0  0  0  0  0  0  0  0  0  0  0  0
    0.8134   13.4937    2.0048 H   0  0  0  0  0  0  0  0  0  0  0  0
    0.4405   11.9495    1.1664 H   0  0  0  0  0  0  0  0  0  0  0  0
    2.1191   12.5888    1.1664 H   0  0  0  0  0  0  0  0  0  0  0  0
   -1.4030   13.9113   -0.0674 H   0  0  0  0  0  0  0  0  0  0  0  0
   -0.3954   14.8737    1.1542 H   0  0  0  0  0  0  0  0  0  0  0  0
   -0.9179   15.5519   -1.7536 H   0  0  0  0  0  0  0  0  0  0  0  0
   -1.4667   16.4320   -0.2730 H   0  0  0  0  0  0  0  0  0  0  0  0
    0.4426   16.3529    1.4569 H   0  0  0  0  0  0  0  0  0  0  0  0
    2.0020   17.0813    0.9426 H   0  0  0  0  0  0  0  0  0  0  0  0
    0.5042   18.0729    0.9426 H   0  0  0  0  0  0  0  0  0  0  0  0
  1  2  1  0
  2  3  1  0
  3  4  1  0
  4  5  1  0
  5  6  1  0
  6  7  1  0
  7  8  1  0
  7  9  1  0
  2 10  1  0
 10 11  1  0
 11 12  1  0
 12 13  1  0
 13 14  1  6
 13 15  1  0
 15 16  1  0
 16 17  1  0
 17 18  2  0
 18 19  1  0
 19 20  1  0
 20 21  1  0
 21 22  1  0
 22 23  1  0
 22 24  1  0
 24 25  1  0
 24 26  1  0
 19 27  1  0
 27 28  1  1
 27 29  1  0
 29 30  1  0
 30 31  1  0
 31 32  1  1
  7  5  1  0
 31 10  1  0
 31 13  1  0
 27 15  1  0
 24 18  1  0
  1 33  1  0
  1 34  1  0
  1 35  1  0
  2 36  1  1
  3 37  1  0
  3 38  1  0
  4 39  1  0
  4 40  1  0
  5 41  1  1
  8 42  1  0
  8 43  1  0
  8 44  1  0
  9 45  1  0
  9 46  1  0
  9 47  1  0
 10 48  1  6
 11 49  1  0
 11 50  1  0
 12 51  1  0
 12 52  1  0
 14 53  1  0
 14 54  1  0
 14 55  1  0
 15 56  1  1
 16 57  1  0
 16 58  1  0
 17 59  1  0
 19 60  1  6
 20 61  1  0
 20 62  1  0
 21 63  1  0
 21 64  1  0
 22 65  1  6
 23 66  1  0
 25 67  1  0
 25 68  1  0
 25 69  1  0
 26 70  1  0
 26 71  1  0
 26 72  1  0
 28 73  1  0
 28 74  1  0
 28 75  1  0
 29 76  1  0
 29 77  1  0
 30 78  1  0
 30 79  1  0
 32 80  1  0
 32 81  1  0
 32 82  1  0
M  END
>  <meeko>  (12) 
{"is_sidechain": [false], "intermolecular_energy": 2.731, "internal_energy": -0.839}

$$$$
EPH_relaxed_0001_pdb2pqr_Repair_367_r2_0001_out
     RDKit          3D

 82 86  0  0  0  0  0  0  0  0999 V2000
   -2.3430    7.9530   -1.9990 C   0  0  0  0  0  0  0  0  0  0  0  0
   -2.2780    8.5890   -0.6070 C   0  0  2  0  0  0  0  0  0  0  0  0
   -3.6590    8.6290    0.0780 C   0  0  0  0  0  0  0  0  0  0  0  0
   -4.8310    8.4330   -0.8880 C   0  0  0  0  0  0  0  0  0  0  0  0
   -5.9620    7.6890   -0.2430 C   0  0  2  0  0  0  0  0  0  0  0  0
   -6.2980    6.4460   -0.8740 O   0  0  0  0  0  0  0  0  0  0  0  0
   -7.3060    7.4690   -0.9100 C   0  0  0  0  0  0  0  0  0  0  0  0
   -7.5920    7.9930   -2.2830 C   0  0  0  0  0  0  0  0  0  0  0  0
   -8.4940    7.1750   -0.0480 C   0  0  0  0  0  0  0  0  0  0  0  0
   -1.7040    9.9970   -0.7060 C   0  0  1  0  0  0  0  0  0  0  0  0
   -1.1950   10.5320    0.6590 C   0  0  0  0  0  0  0  0  0  0  0  0
    0.0480   11.4090    0.3600 C   0  0  0  0  0  0  0  0  0  0  0  0
    0.0170   11.6210   -1.1720 C   0  0  1  0  0  0  0  0  0  0  0  0
   -1.0080   12.7760   -1.3960 C   0  0  0  0  0  0  0  0  0  0  0  0
    1.3890   11.9260   -1.8550 C   0  0  2  0  0  0  0  0  0  0  0  0
    2.0700   13.2280   -1.3980 C   0  0  0  0  0  0  0  0  0  0  0  0
    1.7230   14.4430   -2.1930 C   0  0  0  0  0  0  0  0  0  0  0  0
    1.1250   14.4440   -3.4000 C   0  0  0  0  0  0  0  0  0  0  0  0
    0.8240   13.1290   -4.1300 C   0  0  1  0  0  0  0  0  0  0  0  0
    1.2680   13.2470   -5.6120 C   0  0  0  0  0  0  0  0  0  0  0  0
    0.6560   14.4560   -6.3120 C   0  0  0  0  0  0  0  0  0  0  0  0
    1.0260   15.7490   -5.5890 C   0  0  2  0  0  0  0  0  0  0  0  0
    2.4340   15.9640   -5.7200 O   0  0  0  0  0  0  0  0  0  0  0  0
    0.6350   15.7430   -4.0850 C   0  0  0  0  0  0  0  0  0  0  0  0
   -0.9050   15.8150   -3.9460 C   0  0  0  0  0  0  0  0  0  0  0  0
    1.1900   17.0440   -3.4430 C   0  0  0  0  0  0  0  0  0  0  0  0
    1.3680   11.8080   -3.4330 C   0  0  1  0  0  0  0  0  0  0  0  0
    2.8370   11.5380   -3.8800 C   0  0  0  0  0  0  0  0  0  0  0  0
    0.5200   10.5780   -3.9300 C   0  0  0  0  0  0  0  0  0  0  0  0
   -0.7630   10.2550   -3.1400 C   0  0  0  0  0  0  0  0  0  0  0  0
   -0.4820   10.2040   -1.6350 C   0  0  2  0  0  0  0  0  0  0  0  0
    0.5300    9.0360   -1.3770 C   0  0  0  0  0  0  0  0  0  0  0  0
   -2.4544    6.8632   -1.8994 H   0  0  0  0  0  0  0  0  0  0  0  0
   -3.2041    8.3609   -2.5486 H   0  0  0  0  0  0  0  0  0  0  0  0
   -1.4172    8.1782   -2.5486 H   0  0  0  0  0  0  0  0  0  0  0  0
   -1.6204    7.9624    0.0134 H   0  0  0  0  0  0  0  0  0  0  0  0
   -3.6949    7.8309    0.8341 H   0  0  0  0  0  0  0  0  0  0  0  0
   -3.7701    9.6304    0.5194 H   0  0  0  0  0  0  0  0  0  0  0  0
   -5.1930    9.4192   -1.2143 H   0  0  0  0  0  0  0  0  0  0  0  0
   -4.4749    7.8412   -1.7441 H   0  0  0  0  0  0  0  0  0  0  0  0
   -5.6850    8.0790    0.7475 H   0  0  0  0  0  0  0  0  0  0  0  0
   -8.1177    8.9562   -2.2057 H   0  0  0  0  0  0  0  0  0  0  0  0
   -6.6459    8.1342   -2.8260 H   0  0  0  0  0  0  0  0  0  0  0  0
   -8.2226    7.2736   -2.8260 H   0  0  0  0  0  0  0  0  0  0  0  0
   -8.2053    7.2465    1.0110 H   0  0  0  0  0  0  0  0  0  0  0  0
   -9.2906    7.9031   -0.2608 H   0  0  0  0  0  0  0  0  0  0  0  0
   -8.8591    6.1594   -0.2608 H   0  0  0  0  0  0  0  0  0  0  0  0
   -2.5793   10.5240   -1.1136 H   0  0  0  0  0  0  0  0  0  0  0  0
   -1.9763   11.1352    1.1446 H   0  0  0  0  0  0  0  0  0  0  0  0
   -0.9407    9.7045    1.3377 H   0  0  0  0  0  0  0  0  0  0  0  0
   -0.0206   12.3722    0.8867 H   0  0  0  0  0  0  0  0  0  0  0  0
    0.9825   10.9365    0.6968 H   0  0  0  0  0  0  0  0  0  0  0  0
   -1.3477   13.1588   -0.4223 H   0  0  0  0  0  0  0  0  0  0  0  0
   -0.5277   13.5879   -1.9618 H   0  0  0  0  0  0  0  0  0  0  0  0
   -1.8712   12.3956   -1.9618 H   0  0  0  0  0  0  0  0  0  0  0  0
    2.0247   11.1093   -1.4823 H   0  0  0  0  0  0  0  0  0  0  0  0
    1.7828   13.4127   -0.3523 H   0  0  0  0  0  0  0  0  0  0  0  0
    3.1498   13.0715   -1.5377 H   0  0  0  0  0  0  0  0  0  0  0  0
    1.9771   15.4200   -1.7562 H   0  0  0  0  0  0  0  0  0  0  0  0
   -0.2663   12.9937   -4.0761 H   0  0  0  0  0  0  0  0  0  0  0  0
    2.3638   13.3375   -5.6456 H   0  0  0  0  0  0  0  0  0  0  0  0
    0.9197   12.3456   -6.1374 H   0  0  0  0  0  0  0  0  0  0  0  0
    1.0301   14.5014   -7.3454 H   0  0  0  0  0  0  0  0  0  0  0  0
   -0.4388   14.3498   -6.3042 H   0  0  0  0  0  0  0  0  0  0  0  0
    0.4552   16.5641   -6.0577 H   0  0  0  0  0  0  0  0  0  0  0  0
    2.5620   16.8230   -6.1570 H   0  0  0  0  0  0  0  0  0  0  0  0
   -1.1768   15.8277   -2.8802 H   0  0  0  0  0  0  0  0  0  0  0  0
   -1.2744   16.7314   -4.4295 H   0  0  0  0  0  0  0  0  0  0  0  0
   -1.3582   14.9371   -4.4295 H   0  0  0  0  0  0  0  0  0  0  0  0
    1.1528   16.9568   -2.3471 H   0  0  0  0  0  0  0  0  0  0  0  0
    2.2312   17.1958   -3.7636 H   0  0  0  0  0  0  0  0  0  0  0  0
    0.5790   17.9007   -3.7636 H   0  0  0  0  0  0  0  0  0  0  0  0
    3.4749   11.4207   -2.9916 H   0  0  0  0  0  0  0  0  0  0  0  0
    2.8739   10.6180   -4.4819 H   0  0  0  0  0  0  0  0  0  0  0  0
    3.1986   12.3847   -4.4819 H   0  0  0  0  0  0  0  0  0  0  0  0
    0.2287   10.7739   -4.9725 H   0  0  0  0  0  0  0  0  0  0  0  0
    1.1721    9.7032   -3.7907 H   0  0  0  0  0  0  0  0  0  0  0  0
   -1.5141   11.0335   -3.3396 H   0  0  0  0  0  0  0  0  0  0  0  0
   -1.1341    9.2705   -3.4611 H   0  0  0  0  0  0  0  0  0  0  0  0
    0.6550    8.8917   -0.2937 H   0  0  0  0  0  0  0  0  0  0  0  0
    0.1439    8.1100   -1.8281 H   0  0  0  0  0  0  0  0  0  0  0  0
    1.5015    9.2863   -1.8281 H   0  0  0  0  0  0  0  0  0  0  0  0
  1  2  1  0
  2  3  1  0
  3  4  1  0
  4  5  1  0
  5  6  1  0
  6  7  1  0
  7  8  1  0
  7  9  1  0
  2 10  1  0
 10 11  1  0
 11 12  1  0
 12 13  1  0
 13 14  1  1
 13 15  1  0
 15 16  1  0
 16 17  1  0
 17 18  2  0
 18 19  1  0
 19 20  1  0
 20 21  1  0
 21 22  1  0
 22 23  1  0
 22 24  1  0
 24 25  1  0
 24 26  1  0
 19 27  1  0
 27 28  1  6
 27 29  1  0
 29 30  1  0
 30 31  1  0
 31 32  1  6
  7  5  1  0
 31 10  1  0
 31 13  1  0
 27 15  1  0
 24 18  1  0
  1 33  1  0
  1 34  1  0
  1 35  1  0
  2 36  1  1
  3 37  1  0
  3 38  1  0
  4 39  1  0
  4 40  1  0
  5 41  1  1
  8 42  1  0
  8 43  1  0
  8 44  1  0
  9 45  1  0
  9 46  1  0
  9 47  1  0
 10 48  1  6
 11 49  1  0
 11 50  1  0
 12 51  1  0
 12 52  1  0
 14 53  1  0
 14 54  1  0
 14 55  1  0
 15 56  1  1
 16 57  1  0
 16 58  1  0
 17 59  1  0
 19 60  1  6
 20 61  1  0
 20 62  1  0
 21 63  1  0
 21 64  1  0
 22 65  1  6
 23 66  1  0
 25 67  1  0
 25 68  1  0
 25 69  1  0
 26 70  1  0
 26 71  1  0
 26 72  1  0
 28 73  1  0
 28 74  1  0
 28 75  1  0
 29 76  1  0
 29 77  1  0
 30 78  1  0
 30 79  1  0
 32 80  1  0
 32 81  1  0
 32 82  1  0
M  END
>  <meeko>  (13) 
{"is_sidechain": [false], "intermolecular_energy": 2.731, "internal_energy": -0.839}

$$$$
EPH_relaxed_0001_pdb2pqr_Repair_367_r2_0001_out
     RDKit          3D

 82 86  0  0  0  0  0  0  0  0999 V2000
   -0.9190   16.3950   -5.8850 C   0  0  0  0  0  0  0  0  0  0  0  0
    0.1820   15.6950   -6.6870 C   0  0  2  0  0  0  0  0  0  0  0  0
   -0.2130   15.4930   -8.1630 C   0  0  0  0  0  0  0  0  0  0  0  0
    0.4350   16.5000   -9.1170 C   0  0  0  0  0  0  0  0  0  0  0  0
    1.8420   16.1120   -9.4590 C   0  0  2  0  0  0  0  0  0  0  0  0
    2.3390   16.6780  -10.6790 O   0  0  0  0  0  0  0  0  0  0  0  0
    2.2050   15.2470  -10.6520 C   0  0  0  0  0  0  0  0  0  0  0  0
    1.1570   14.7160  -11.5780 C   0  0  0  0  0  0  0  0  0  0  0  0
    3.5130   14.5200  -10.6360 C   0  0  0  0  0  0  0  0  0  0  0  0
    0.5150   14.3510   -6.0490 C   0  0  1  0  0  0  0  0  0  0  0  0
    1.7400   13.6630   -6.7080 C   0  0  0  0  0  0  0  0  0  0  0  0
    2.4930   12.9130   -5.5790 C   0  0  0  0  0  0  0  0  0  0  0  0
    1.5090   12.9150   -4.3860 C   0  0  1  0  0  0  0  0  0  0  0  0
    0.5220   11.7420   -4.6780 C   0  0  0  0  0  0  0  0  0  0  0  0
    2.1480   12.7920   -2.9640 C   0  0  2  0  0  0  0  0  0  0  0  0
    2.9130   11.4830   -2.7040 C   0  0  0  0  0  0  0  0  0  0  0  0
    2.0990   10.3720   -2.1280 C   0  0  0  0  0  0  0  0  0  0  0  0
    0.8830   10.5030   -1.5670 C   0  0  0  0  0  0  0  0  0  0  0  0
    0.2450   11.8860   -1.3820 C   0  0  1  0  0  0  0  0  0  0  0  0
   -0.3310   12.0030    0.0530 C   0  0  0  0  0  0  0  0  0  0  0  0
   -1.2930   10.8680    0.3920 C   0  0  0  0  0  0  0  0  0  0  0  0
   -0.6060    9.5120    0.2530 C   0  0  2  0  0  0  0  0  0  0  0  0
    0.4080    9.4030    1.2570 O   0  0  0  0  0  0  0  0  0  0  0  0
    0.0230    9.2840   -1.1500 C   0  0  0  0  0  0  0  0  0  0  0  0
   -1.1010    9.1010   -2.2000 C   0  0  0  0  0  0  0  0  0  0  0  0
    0.8040    7.9430   -1.1120 C   0  0  0  0  0  0  0  0  0  0  0  0
    1.1560   13.1270   -1.7770 C   0  0  1  0  0  0  0  0  0  0  0  0
    2.0410   13.5460   -0.5630 C   0  0  0  0  0  0  0  0  0  0  0  0
    0.2320   14.3610   -2.0990 C   0  0  0  0  0  0  0  0  0  0  0  0
   -0.2690   14.4930   -3.5500 C   0  0  0  0  0  0  0  0  0  0  0  0
    0.8870   14.3500   -4.5450 C   0  0  2  0  0  0  0  0  0  0  0  0
    1.8860   15.5300   -4.2900 C   0  0  0  0  0  0  0  0  0  0  0  0
   -0.7243   16.2712   -4.8095 H   0  0  0  0  0  0  0  0  0  0  0  0
   -0.9299   17.4662   -6.1347 H   0  0  0  0  0  0  0  0  0  0  0  0
   -1.8936   15.9504   -6.1347 H   0  0  0  0  0  0  0  0  0  0  0  0
    1.0686   16.3459   -6.6688 H   0  0  0  0  0  0  0  0  0  0  0  0
    0.0903   14.4807   -8.4682 H   0  0  0  0  0  0  0  0  0  0  0  0
   -1.3008   15.6428   -8.2280 H   0  0  0  0  0  0  0  0  0  0  0  0
   -0.1573   16.5463  -10.0428 H   0  0  0  0  0  0  0  0  0  0  0  0
    0.4608   17.4793   -8.6168 H   0  0  0  0  0  0  0  0  0  0  0  0
    2.1088   16.0488   -8.3937 H   0  0  0  0  0  0  0  0  0  0  0  0
    0.3275   14.2957  -10.9905 H   0  0  0  0  0  0  0  0  0  0  0  0
    0.7805   15.5321  -12.2122 H   0  0  0  0  0  0  0  0  0  0  0  0
    1.5924   13.9298  -12.2122 H   0  0  0  0  0  0  0  0  0  0  0  0
    3.8238   14.3473   -9.5950 H   0  0  0  0  0  0  0  0  0  0  0  0
    3.4020   13.5541  -11.1506 H   0  0  0  0  0  0  0  0  0  0  0  0
    4.2746   15.1242  -11.1506 H   0  0  0  0  0  0  0  0  0  0  0  0
   -0.4439   13.8336   -6.1999 H   0  0  0  0  0  0  0  0  0  0  0  0
    1.4062   12.9519   -7.4780 H   0  0  0  0  0  0  0  0  0  0  0  0
    2.3932   14.4019   -7.1951 H   0  0  0  0  0  0  0  0  0  0  0  0
    2.7284   11.8834   -5.8866 H   0  0  0  0  0  0  0  0  0  0  0  0
    3.4525   13.3895   -5.3293 H   0  0  0  0  0  0  0  0  0  0  0  0
    0.1652   11.3179   -3.7278 H   0  0  0  0  0  0  0  0  0  0  0  0
   -0.3347   12.1189   -5.2560 H   0  0  0  0  0  0  0  0  0  0  0  0
    1.0398   10.9624   -5.2560 H   0  0  0  0  0  0  0  0  0  0  0  0
    2.9096   13.5856   -2.9777 H   0  0  0  0  0  0  0  0  0  0  0  0
    3.3305   11.1375   -3.6613 H   0  0  0  0  0  0  0  0  0  0  0  0
    3.6777   11.7222   -1.9504 H   0  0  0  0  0  0  0  0  0  0  0  0
    2.5298    9.3606   -2.1654 H   0  0  0  0  0  0  0  0  0  0  0  0
   -0.5711   11.9456   -2.1171 H   0  0  0  0  0  0  0  0  0  0  0  0
    0.5028   11.9845    0.7702 H   0  0  0  0  0  0  0  0  0  0  0  0
   -0.8940   12.9462    0.1108 H   0  0  0  0  0  0  0  0  0  0  0  0
   -1.6432   10.9899    1.4276 H   0  0  0  0  0  0  0  0  0  0  0  0
   -2.1413   10.9056   -0.3073 H   0  0  0  0  0  0  0  0  0  0  0  0
   -1.3772    8.7381    0.3809 H   0  0  0  0  0  0  0  0  0  0  0  0
    0.7920   10.2870    1.3840 H   0  0  0  0  0  0  0  0  0  0  0  0
   -2.0609    8.9447   -1.6861 H   0  0  0  0  0  0  0  0  0  0  0  0
   -1.1645   10.0006   -2.8298 H   0  0  0  0  0  0  0  0  0  0  0  0
   -0.8758    8.2277   -2.8298 H   0  0  0  0  0  0  0  0  0  0  0  0
    0.9757    7.6482   -0.0662 H   0  0  0  0  0  0  0  0  0  0  0  0
    0.2188    7.1633   -1.6214 H   0  0  0  0  0  0  0  0  0  0  0  0
    1.7710    8.0673   -1.6214 H   0  0  0  0  0  0  0  0  0  0  0  0
    1.5195   13.2991    0.3735 H   0  0  0  0  0  0  0  0  0  0  0  0
    2.9982   13.0055   -0.6031 H   0  0  0  0  0  0  0  0  0  0  0  0
    2.2295   14.6290   -0.6031 H   0  0  0  0  0  0  0  0  0  0  0  0
   -0.6512   14.2948   -1.4466 H   0  0  0  0  0  0  0  0  0  0  0  0
    0.8637   15.2456   -1.9307 H   0  0  0  0  0  0  0  0  0  0  0  0
   -1.0124   13.7065   -3.7468 H   0  0  0  0  0  0  0  0  0  0  0  0
   -0.7189   15.4888   -3.6762 H   0  0  0  0  0  0  0  0  0  0  0  0
    2.0107   15.6773   -3.2071 H   0  0  0  0  0  0  0  0  0  0  0  0
    2.8598   15.2902   -4.7420 H   0  0  0  0  0  0  0  0  0  0  0  0
    1.4888   16.4509   -4.7420 H   0  0  0  0  0  0  0  0  0  0  0  0
  1  2  1  0
  2  3  1  0
  3  4  1  0
  4  5  1  0
  5  6  1  0
  6  7  1  0
  7  8  1  0
  7  9  1  0
  2 10  1  0
 10 11  1  0
 11 12  1  0
 12 13  1  0
 13 14  1  6
 13 15  1  0
 15 16  1  0
 16 17  1  0
 17 18  2  0
 18 19  1  0
 19 20  1  0
 20 21  1  0
 21 22  1  0
 22 23  1  0
 22 24  1  0
 24 25  1  0
 24 26  1  0
 19 27  1  0
 27 28  1  1
 27 29  1  0
 29 30  1  0
 30 31  1  0
 31 32  1  6
  7  5  1  0
 31 10  1  0
 31 13  1  0
 27 15  1  0
 24 18  1  0
  1 33  1  0
  1 34  1  0
  1 35  1  0
  2 36  1  6
  3 37  1  0
  3 38  1  0
  4 39  1  0
  4 40  1  0
  5 41  1  1
  8 42  1  0
  8 43  1  0
  8 44  1  0
  9 45  1  0
  9 46  1  0
  9 47  1  0
 10 48  1  1
 11 49  1  0
 11 50  1  0
 12 51  1  0
 12 52  1  0
 14 53  1  0
 14 54  1  0
 14 55  1  0
 15 56  1  6
 16 57  1  0
 16 58  1  0
 17 59  1  0
 19 60  1  6
 20 61  1  0
 20 62  1  0
 21 63  1  0
 21 64  1  0
 22 65  1  1
 23 66  1  0
 25 67  1  0
 25 68  1  0
 25 69  1  0
 26 70  1  0
 26 71  1  0
 26 72  1  0
 28 73  1  0
 28 74  1  0
 28 75  1  0
 29 76  1  0
 29 77  1  0
 30 78  1  0
 30 79  1  0
 32 80  1  0
 32 81  1  0
 32 82  1  0
M  END
>  <meeko>  (14) 
{"is_sidechain": [false], "intermolecular_energy": 2.731, "internal_energy": -0.839}

$$$$
EPH_relaxed_0001_pdb2pqr_Repair_367_r2_0001_out
     RDKit          3D

 82 86  0  0  0  0  0  0  0  0999 V2000
    0.0830    9.4180   -2.5760 C   0  0  0  0  0  0  0  0  0  0  0  0
    1.1720   10.4200   -2.9670 C   0  0  2  0  0  0  0  0  0  0  0  0
    2.5680    9.7680   -3.0260 C   0  0  0  0  0  0  0  0  0  0  0  0
    3.5300   10.4590   -3.9960 C   0  0  0  0  0  0  0  0  0  0  0  0
    4.8910   10.6350   -3.3950 C   0  0  2  0  0  0  0  0  0  0  0  0
    5.5040   11.9040   -3.6610 O   0  0  0  0  0  0  0  0  0  0  0  0
    6.1600   10.7540   -4.2190 C   0  0  0  0  0  0  0  0  0  0  0  0
    6.1280   10.7000   -5.7140 C   0  0  0  0  0  0  0  0  0  0  0  0
    7.4690   10.4320   -3.5670 C   0  0  0  0  0  0  0  0  0  0  0  0
    1.1820   11.5850   -1.9850 C   0  0  1  0  0  0  0  0  0  0  0  0
    2.2550   11.4220   -0.8750 C   0  0  0  0  0  0  0  0  0  0  0  0
    2.7850   12.8430   -0.5530 C   0  0  0  0  0  0  0  0  0  0  0  0
    1.7790   13.7990   -1.2360 C   0  0  1  0  0  0  0  0  0  0  0  0
    0.5740   13.8860   -0.2470 C   0  0  0  0  0  0  0  0  0  0  0  0
    2.3200   15.2160   -1.6140 C   0  0  2  0  0  0  0  0  0  0  0  0
    2.7750   16.0790   -0.4240 C   0  0  0  0  0  0  0  0  0  0  0  0
    1.7200   16.9500    0.1730 C   0  0  0  0  0  0  0  0  0  0  0  0
    0.5390   17.2520   -0.3990 C   0  0  0  0  0  0  0  0  0  0  0  0
    0.2080   16.7770   -1.8200 C   0  0  1  0  0  0  0  0  0  0  0  0
   -0.3850   17.9560   -2.6350 C   0  0  0  0  0  0  0  0  0  0  0  0
   -1.5810   18.6030   -1.9420 C   0  0  0  0  0  0  0  0  0  0  0  0
   -1.1970   19.1140   -0.5560 C   0  0  2  0  0  0  0  0  0  0  0  0
   -0.2710   20.1940   -0.7030 O   0  0  0  0  0  0  0  0  0  0  0  0
   -0.5790   18.0150    0.3530 C   0  0  0  0  0  0  0  0  0  0  0  0
   -1.6740   16.9980    0.7590 C   0  0  0  0  0  0  0  0  0  0  0  0
   -0.1070   18.6930    1.6680 C   0  0  0  0  0  0  0  0  0  0  0  0
    1.3790   16.0290   -2.5920 C   0  0  1  0  0  0  0  0  0  0  0  0
    2.2850   17.0690   -3.3190 C   0  0  0  0  0  0  0  0  0  0  0  0
    0.7560   15.1210   -3.7160 C   0  0  0  0  0  0  0  0  0  0  0  0
    0.3510   13.6910   -3.3090 C   0  0  0  0  0  0  0  0  0  0  0  0
    1.4870   12.9940   -2.5540 C   0  0  2  0  0  0  0  0  0  0  0  0
    2.7060   12.8710   -3.5310 C   0  0  0  0  0  0  0  0  0  0  0  0
    0.0171    9.3574   -1.4797 H   0  0  0  0  0  0  0  0  0  0  0  0
   -0.8835    9.7492   -2.9837 H   0  0  0  0  0  0  0  0  0  0  0  0
    0.3328    8.4273   -2.9837 H   0  0  0  0  0  0  0  0  0  0  0  0
    0.9370   10.7868   -3.9771 H   0  0  0  0  0  0  0  0  0  0  0  0
    3.0087    9.7994   -2.0186 H   0  0  0  0  0  0  0  0  0  0  0  0
    2.4272    8.7399   -3.3910 H   0  0  0  0  0  0  0  0  0  0  0  0
    3.6185    9.8478   -4.9063 H   0  0  0  0  0  0  0  0  0  0  0  0
    3.1261   11.4555   -4.2281 H   0  0  0  0  0  0  0  0  0  0  0  0
    4.6226    9.9956   -2.5411 H   0  0  0  0  0  0  0  0  0  0  0  0
    5.5919    9.7954   -6.0368 H   0  0  0  0  0  0  0  0  0  0  0  0
    5.6116   11.5904   -6.1021 H   0  0  0  0  0  0  0  0  0  0  0  0
    7.1569   10.6746   -6.1021 H   0  0  0  0  0  0  0  0  0  0  0  0
    7.3510   10.4610   -2.4737 H   0  0  0  0  0  0  0  0  0  0  0  0
    7.7942    9.4271   -3.8742 H   0  0  0  0  0  0  0  0  0  0  0  0
    8.2233   11.1714   -3.8742 H   0  0  0  0  0  0  0  0  0  0  0  0
    0.1404   11.5383   -1.6345 H   0  0  0  0  0  0  0  0  0  0  0  0
    1.8058   10.9728    0.0230 H   0  0  0  0  0  0  0  0  0  0  0  0
    3.0701   10.7624   -1.2075 H   0  0  0  0  0  0  0  0  0  0  0  0
    2.8056   13.0127    0.5336 H   0  0  0  0  0  0  0  0  0  0  0  0
    3.8139   12.9953   -0.9109 H   0  0  0  0  0  0  0  0  0  0  0  0
    0.9462   13.8591    0.7878 H   0  0  0  0  0  0  0  0  0  0  0  0
    0.0281   14.8259   -0.4160 H   0  0  0  0  0  0  0  0  0  0  0  0
   -0.1013   13.0343   -0.4160 H   0  0  0  0  0  0  0  0  0  0  0  0
    3.2346   14.9776   -2.1767 H   0  0  0  0  0  0  0  0  0  0  0  0
    3.1445   15.4050    0.3629 H   0  0  0  0  0  0  0  0  0  0  0  0
    3.5439   16.7596   -0.8185 H   0  0  0  0  0  0  0  0  0  0  0  0
    1.9246   17.3816    1.1639 H   0  0  0  0  0  0  0  0  0  0  0  0
   -0.5463   15.9843   -1.7075 H   0  0  0  0  0  0  0  0  0  0  0  0
    0.3967   18.7174   -2.7735 H   0  0  0  0  0  0  0  0  0  0  0  0
   -0.7339   17.5544   -3.5978 H   0  0  0  0  0  0  0  0  0  0  0  0
   -1.9368   19.4470   -2.5511 H   0  0  0  0  0  0  0  0  0  0  0  0
   -2.3733   17.8481   -1.8310 H   0  0  0  0  0  0  0  0  0  0  0  0
   -2.1205   19.4477   -0.0601 H   0  0  0  0  0  0  0  0  0  0  0  0
    0.5720   19.9160   -0.3060 H   0  0  0  0  0  0  0  0  0  0  0  0
   -1.7340   16.9422    1.8559 H   0  0  0  0  0  0  0  0  0  0  0  0
   -2.6441   17.3228    0.3547 H   0  0  0  0  0  0  0  0  0  0  0  0
   -1.4217   16.0066    0.3547 H   0  0  0  0  0  0  0  0  0  0  0  0
   -0.4973   18.1324    2.5302 H   0  0  0  0  0  0  0  0  0  0  0  0
    0.9924   18.7003    1.7026 H   0  0  0  0  0  0  0  0  0  0  0  0
   -0.4818   19.7266    1.7026 H   0  0  0  0  0  0  0  0  0  0  0  0
    2.8157   17.6782   -2.5725 H   0  0  0  0  0  0  0  0  0  0  0  0
    3.0165   16.5413   -3.9487 H   0  0  0  0  0  0  0  0  0  0  0  0
    1.6620   17.7212   -3.9487 H   0  0  0  0  0  0  0  0  0  0  0  0
   -0.1450   15.6278   -4.0919 H   0  0  0  0  0  0  0  0  0  0  0  0
    1.5567   14.9928   -4.4592 H   0  0  0  0  0  0  0  0  0  0  0  0
   -0.5361   13.7390   -2.6603 H   0  0  0  0  0  0  0  0  0  0  0  0
    0.1305   13.1158   -4.2204 H   0  0  0  0  0  0  0  0  0  0  0  0
    3.6346   12.7773   -2.9488 H   0  0  0  0  0  0  0  0  0  0  0  0
    2.5794   11.9811   -4.1650 H   0  0  0  0  0  0  0  0  0  0  0  0
    2.7597   13.7683   -4.1650 H   0  0  0  0  0  0  0  0  0  0  0  0
  1  2  1  0
  2  3  1  0
  3  4  1  0
  4  5  1  0
  5  6  1  0
  6  7  1  0
  7  8  1  0
  7  9  1  0
  2 10  1  0
 10 11  1  0
 11 12  1  0
 12 13  1  0
 13 14  1  1
 13 15  1  0
 15 16  1  0
 16 17  1  0
 17 18  2  0
 18 19  1  0
 19 20  1  0
 20 21  1  0
 21 22  1  0
 22 23  1  0
 22 24  1  0
 24 25  1  0
 24 26  1  0
 19 27  1  0
 27 28  1  6
 27 29  1  0
 29 30  1  0
 30 31  1  0
 31 32  1  6
  7  5  1  0
 31 10  1  0
 31 13  1  0
 27 15  1  0
 24 18  1  0
  1 33  1  0
  1 34  1  0
  1 35  1  0
  2 36  1  6
  3 37  1  0
  3 38  1  0
  4 39  1  0
  4 40  1  0
  5 41  1  1
  8 42  1  0
  8 43  1  0
  8 44  1  0
  9 45  1  0
  9 46  1  0
  9 47  1  0
 10 48  1  1
 11 49  1  0
 11 50  1  0
 12 51  1  0
 12 52  1  0
 14 53  1  0
 14 54  1  0
 14 55  1  0
 15 56  1  6
 16 57  1  0
 16 58  1  0
 17 59  1  0
 19 60  1  1
 20 61  1  0
 20 62  1  0
 21 63  1  0
 21 64  1  0
 22 65  1  1
 23 66  1  0
 25 67  1  0
 25 68  1  0
 25 69  1  0
 26 70  1  0
 26 71  1  0
 26 72  1  0
 28 73  1  0
 28 74  1  0
 28 75  1  0
 29 76  1  0
 29 77  1  0
 30 78  1  0
 30 79  1  0
 32 80  1  0
 32 81  1  0
 32 82  1  0
M  END
>  <meeko>  (15) 
{"is_sidechain": [false], "intermolecular_energy": 2.731, "internal_energy": -0.839}

$$$$
EPH_relaxed_0001_pdb2pqr_Repair_367_r2_0001_out
     RDKit          3D

 82 86  0  0  0  0  0  0  0  0999 V2000
   -3.8580    7.0980   -3.3390 C   0  0  0  0  0  0  0  0  0  0  0  0
   -3.9320    7.2420   -1.8160 C   0  0  2  0  0  0  0  0  0  0  0  0
   -5.3720    7.0820   -1.2870 C   0  0  0  0  0  0  0  0  0  0  0  0
   -6.4470    7.4940   -2.2960 C   0  0  0  0  0  0  0  0  0  0  0  0
   -7.7900    7.6390   -1.6470 C   0  0  2  0  0  0  0  0  0  0  0  0
   -8.3130    6.4310   -1.0770 O   0  0  0  0  0  0  0  0  0  0  0  0
   -9.0520    6.9840   -2.1790 C   0  0  0  0  0  0  0  0  0  0  0  0
   -9.0300    6.1370   -3.4120 C   0  0  0  0  0  0  0  0  0  0  0  0
  -10.3770    7.5600   -1.7870 C   0  0  0  0  0  0  0  0  0  0  0  0
   -3.3700    8.5940   -1.3940 C   0  0  1  0  0  0  0  0  0  0  0  0
   -3.9820    9.1060   -0.0630 C   0  0  0  0  0  0  0  0  0  0  0  0
   -2.8560    9.8680    0.6830 C   0  0  0  0  0  0  0  0  0  0  0  0
   -1.7440   10.0550   -0.3750 C   0  0  1  0  0  0  0  0  0  0  0  0
   -2.1950   11.2900   -1.2160 C   0  0  0  0  0  0  0  0  0  0  0  0
   -0.2910   10.2290    0.1740 C   0  0  2  0  0  0  0  0  0  0  0  0
   -0.0680   11.4760    1.0490 C   0  0  0  0  0  0  0  0  0  0  0  0
    0.3630   12.7020    0.3140 C   0  0  0  0  0  0  0  0  0  0  0  0
    0.8370   12.7330   -0.9450 C   0  0  0  0  0  0  0  0  0  0  0  0
    1.0730   11.4360   -1.7300 C   0  0  1  0  0  0  0  0  0  0  0  0
    2.4650   11.4890   -2.4130 C   0  0  0  0  0  0  0  0  0  0  0  0
    2.6460   12.7340   -3.2750 C   0  0  0  0  0  0  0  0  0  0  0  0
    2.4620   14.0030   -2.4470 C   0  0  2  0  0  0  0  0  0  0  0  0
    3.5300   14.0940   -1.4980 O   0  0  0  0  0  0  0  0  0  0  0  0
    1.0980   14.0570   -1.7040 C   0  0  0  0  0  0  0  0  0  0  0  0
   -0.0450   14.2630   -2.7290 C   0  0  0  0  0  0  0  0  0  0  0  0
    1.0990   15.3160   -0.7950 C   0  0  0  0  0  0  0  0  0  0  0  0
    0.8390   10.0860   -0.9250 C   0  0  1  0  0  0  0  0  0  0  0  0
    2.1440    9.6820   -0.1730 C   0  0  0  0  0  0  0  0  0  0  0  0
    0.5370    8.9250   -1.9450 C   0  0  0  0  0  0  0  0  0  0  0  0
   -0.9340    8.7260   -2.3570 C   0  0  0  0  0  0  0  0  0  0  0  0
   -1.8460    8.6780   -1.1270 C   0  0  2  0  0  0  0  0  0  0  0  0
   -1.4310    7.4320   -0.2720 C   0  0  0  0  0  0  0  0  0  0  0  0
   -3.3689    6.1463   -3.5940 H   0  0  0  0  0  0  0  0  0  0  0  0
   -4.8748    7.1116   -3.7584 H   0  0  0  0  0  0  0  0  0  0  0  0
   -3.2771    7.9327   -3.7584 H   0  0  0  0  0  0  0  0  0  0  0  0
   -3.3272    6.4346   -1.3775 H   0  0  0  0  0  0  0  0  0  0  0  0
   -5.5298    6.0258   -1.0231 H   0  0  0  0  0  0  0  0  0  0  0  0
   -5.4721    7.7506   -0.4193 H   0  0  0  0  0  0  0  0  0  0  0  0
   -6.1630    8.4565   -2.7464 H   0  0  0  0  0  0  0  0  0  0  0  0
   -6.5190    6.7068   -3.0609 H   0  0  0  0  0  0  0  0  0  0  0  0
   -7.5634    8.6751   -1.3551 H   0  0  0  0  0  0  0  0  0  0  0  0
   -9.0024    5.0750   -3.1268 H   0  0  0  0  0  0  0  0  0  0  0  0
   -9.9335    6.3333   -4.0079 H   0  0  0  0  0  0  0  0  0  0  0  0
   -8.1379    6.3800   -4.0079 H   0  0  0  0  0  0  0  0  0  0  0  0
  -10.4525    7.5928   -0.6901 H   0  0  0  0  0  0  0  0  0  0  0  0
  -10.4680    8.5789   -2.1914 H   0  0  0  0  0  0  0  0  0  0  0  0
  -11.1841    6.9315   -2.1914 H   0  0  0  0  0  0  0  0  0  0  0  0
   -3.6301    9.1878   -2.2827 H   0  0  0  0  0  0  0  0  0  0  0  0
   -4.8249    9.7821   -0.2689 H   0  0  0  0  0  0  0  0  0  0  0  0
   -4.3630    8.2712    0.5436 H   0  0  0  0  0  0  0  0  0  0  0  0
   -3.2185   10.8426    1.0417 H   0  0  0  0  0  0  0  0  0  0  0  0
   -2.5004    9.3230    1.5699 H   0  0  0  0  0  0  0  0  0  0  0  0
   -2.4926   12.1051   -0.5399 H   0  0  0  0  0  0  0  0  0  0  0  0
   -1.3615   11.6258   -1.8504 H   0  0  0  0  0  0  0  0  0  0  0  0
   -3.0488   11.0096   -1.8504 H   0  0  0  0  0  0  0  0  0  0  0  0
   -0.1906    9.3672    0.8502 H   0  0  0  0  0  0  0  0  0  0  0  0
   -1.0130   11.7031    1.5642 H   0  0  0  0  0  0  0  0  0  0  0  0
    0.7569   11.2249    1.7321 H   0  0  0  0  0  0  0  0  0  0  0  0
    0.2866   13.6613    0.8468 H   0  0  0  0  0  0  0  0  0  0  0  0
    0.2837   11.3963   -2.4952 H   0  0  0  0  0  0  0  0  0  0  0  0
    3.2409   11.4841   -1.6332 H   0  0  0  0  0  0  0  0  0  0  0  0
    2.5476   10.6118   -3.0716 H   0  0  0  0  0  0  0  0  0  0  0  0
    3.6580   12.7292   -3.7062 H   0  0  0  0  0  0  0  0  0  0  0  0
    1.8879   12.7221   -4.0720 H   0  0  0  0  0  0  0  0  0  0  0  0
    2.4749   14.8550   -3.1426 H   0  0  0  0  0  0  0  0  0  0  0  0
    4.3510   13.8430   -1.9550 H   0  0  0  0  0  0  0  0  0  0  0  0
   -0.9909   14.4335   -2.1940 H   0  0  0  0  0  0  0  0  0  0  0  0
    0.1814   15.1348   -3.3604 H   0  0  0  0  0  0  0  0  0  0  0  0
   -0.1372   13.3670   -3.3604 H   0  0  0  0  0  0  0  0  0  0  0  0
    1.0988   15.0062    0.2605 H   0  0  0  0  0  0  0  0  0  0  0  0
    1.9976   15.9161   -1.0008 H   0  0  0  0  0  0  0  0  0  0  0  0
    0.2013   15.9175   -1.0008 H   0  0  0  0  0  0  0  0  0  0  0  0
    1.9731    9.7349    0.9124 H   0  0  0  0  0  0  0  0  0  0  0  0
    2.4241    8.6551   -0.4504 H   0  0  0  0  0  0  0  0  0  0  0  0
    2.9553   10.3710   -0.4504 H   0  0  0  0  0  0  0  0  0  0  0  0
    1.1140    9.1272   -2.8594 H   0  0  0  0  0  0  0  0  0  0  0  0
    0.8155    8.0003   -1.4184 H   0  0  0  0  0  0  0  0  0  0  0  0
   -1.2433    9.5617   -3.0020 H   0  0  0  0  0  0  0  0  0  0  0  0
   -1.0213    7.7711   -2.8960 H   0  0  0  0  0  0  0  0  0  0  0  0
   -1.5127    7.6773    0.7972 H   0  0  0  0  0  0  0  0  0  0  0  0
   -2.0966    6.5882   -0.5065 H   0  0  0  0  0  0  0  0  0  0  0  0
   -0.3924    7.1559   -0.5065 H   0  0  0  0  0  0  0  0  0  0  0  0
  1  2  1  0
  2  3  1  0
  3  4  1  0
  4  5  1  0
  5  6  1  0
  6  7  1  0
  7  8  1  0
  7  9  1  0
  2 10  1  0
 10 11  1  0
 11 12  1  0
 12 13  1  0
 13 14  1  6
 13 15  1  0
 15 16  1  0
 16 17  1  0
 17 18  2  0
 18 19  1  0
 19 20  1  0
 20 21  1  0
 21 22  1  0
 22 23  1  0
 22 24  1  0
 24 25  1  0
 24 26  1  0
 19 27  1  0
 27 28  1  1
 27 29  1  0
 29 30  1  0
 30 31  1  0
 31 32  1  1
  7  5  1  0
 31 10  1  0
 31 13  1  0
 27 15  1  0
 24 18  1  0
  1 33  1  0
  1 34  1  0
  1 35  1  0
  2 36  1  1
  3 37  1  0
  3 38  1  0
  4 39  1  0
  4 40  1  0
  5 41  1  1
  8 42  1  0
  8 43  1  0
  8 44  1  0
  9 45  1  0
  9 46  1  0
  9 47  1  0
 10 48  1  6
 11 49  1  0
 11 50  1  0
 12 51  1  0
 12 52  1  0
 14 53  1  0
 14 54  1  0
 14 55  1  0
 15 56  1  1
 16 57  1  0
 16 58  1  0
 17 59  1  0
 19 60  1  6
 20 61  1  0
 20 62  1  0
 21 63  1  0
 21 64  1  0
 22 65  1  6
 23 66  1  0
 25 67  1  0
 25 68  1  0
 25 69  1  0
 26 70  1  0
 26 71  1  0
 26 72  1  0
 28 73  1  0
 28 74  1  0
 28 75  1  0
 29 76  1  0
 29 77  1  0
 30 78  1  0
 30 79  1  0
 32 80  1  0
 32 81  1  0
 32 82  1  0
M  END
>  <meeko>  (16) 
{"is_sidechain": [false], "intermolecular_energy": 2.731, "internal_energy": -0.839}

$$$$
EPH_relaxed_0001_pdb2pqr_Repair_367_r2_0001_out
     RDKit          3D

 82 86  0  0  0  0  0  0  0  0999 V2000
   -3.2840    7.5730   -0.7800 C   0  0  0  0  0  0  0  0  0  0  0  0
   -3.1100    8.9280   -0.0880 C   0  0  2  0  0  0  0  0  0  0  0  0
   -4.4610    9.5460    0.3270 C   0  0  0  0  0  0  0  0  0  0  0  0
   -5.5300    8.5080    0.6790 C   0  0  0  0  0  0  0  0  0  0  0  0
   -6.7140    8.6000   -0.2350 C   0  0  2  0  0  0  0  0  0  0  0  0
   -7.7980    7.7240    0.0990 O   0  0  0  0  0  0  0  0  0  0  0  0
   -7.1470    7.4760   -1.1580 C   0  0  0  0  0  0  0  0  0  0  0  0
   -6.4020    6.1800   -1.2130 C   0  0  0  0  0  0  0  0  0  0  0  0
   -7.9900    7.8130   -2.3490 C   0  0  0  0  0  0  0  0  0  0  0  0
   -2.3580    9.8870   -1.0030 C   0  0  1  0  0  0  0  0  0  0  0  0
   -3.0240   11.2860   -1.0800 C   0  0  0  0  0  0  0  0  0  0  0  0
   -1.8770   12.3210   -1.2150 C   0  0  0  0  0  0  0  0  0  0  0  0
   -0.6250   11.4750   -1.5430 C   0  0  1  0  0  0  0  0  0  0  0  0
   -0.7210   11.1940   -3.0760 C   0  0  0  0  0  0  0  0  0  0  0  0
    0.7540   12.1020   -1.1570 C   0  0  2  0  0  0  0  0  0  0  0  0
    1.0980   13.4170   -1.8780 C   0  0  0  0  0  0  0  0  0  0  0  0
    1.8440   13.2640   -3.1620 C   0  0  0  0  0  0  0  0  0  0  0  0
    2.4710   12.1460   -3.5730 C   0  0  0  0  0  0  0  0  0  0  0  0
    2.5520   10.9100   -2.6690 C   0  0  1  0  0  0  0  0  0  0  0  0
    4.0040   10.3620   -2.6680 C   0  0  0  0  0  0  0  0  0  0  0  0
    4.5270   10.0910   -4.0750 C   0  0  0  0  0  0  0  0  0  0  0  0
    4.4850   11.3580   -4.9260 C   0  0  2  0  0  0  0  0  0  0  0  0
    5.4220   12.3000   -4.3960 O   0  0  0  0  0  0  0  0  0  0  0  0
    3.0740   12.0050   -4.9930 C   0  0  0  0  0  0  0  0  0  0  0  0
    2.1300   11.1110   -5.8350 C   0  0  0  0  0  0  0  0  0  0  0  0
    3.2000   13.3480   -5.7630 C   0  0  0  0  0  0  0  0  0  0  0  0
    1.9650   11.0840   -1.2020 C   0  0  1  0  0  0  0  0  0  0  0  0
    3.0630   11.6560   -0.2540 C   0  0  0  0  0  0  0  0  0  0  0  0
    1.5780    9.6690   -0.6320 C   0  0  0  0  0  0  0  0  0  0  0  0
    0.1600    9.1560   -0.9470 C   0  0  0  0  0  0  0  0  0  0  0  0
   -0.8920   10.2230   -0.6300 C   0  0  2  0  0  0  0  0  0  0  0  0
   -0.8340   10.5090    0.9090 C   0  0  0  0  0  0  0  0  0  0  0  0
   -3.3853    6.7838   -0.0205 H   0  0  0  0  0  0  0  0  0  0  0  0
   -4.1866    7.5954   -1.4083 H   0  0  0  0  0  0  0  0  0  0  0  0
   -2.4050    7.3666   -1.4083 H   0  0  0  0  0  0  0  0  0  0  0  0
   -2.5286    8.7579    0.8301 H   0  0  0  0  0  0  0  0  0  0  0  0
   -4.2949   10.1855    1.2065 H   0  0  0  0  0  0  0  0  0  0  0  0
   -4.8352   10.1121   -0.5387 H   0  0  0  0  0  0  0  0  0  0  0  0
   -5.0920    7.5025    0.5948 H   0  0  0  0  0  0  0  0  0  0  0  0
   -5.8732    8.7038    1.7056 H   0  0  0  0  0  0  0  0  0  0  0  0
   -6.5237    9.6688   -0.4125 H   0  0  0  0  0  0  0  0  0  0  0  0
   -6.2004    5.8293   -0.1901 H   0  0  0  0  0  0  0  0  0  0  0  0
   -7.0075    5.4312   -1.7447 H   0  0  0  0  0  0  0  0  0  0  0  0
   -5.4502    6.3265   -1.7447 H   0  0  0  0  0  0  0  0  0  0  0  0
   -8.9623    8.2017   -2.0119 H   0  0  0  0  0  0  0  0  0  0  0  0
   -7.4801    8.5764   -2.9550 H   0  0  0  0  0  0  0  0  0  0  0  0
   -8.1469    6.9085   -2.9550 H   0  0  0  0  0  0  0  0  0  0  0  0
   -2.3855    9.3087   -1.9383 H   0  0  0  0  0  0  0  0  0  0  0  0
   -3.6889   11.3413   -1.9545 H   0  0  0  0  0  0  0  0  0  0  0  0
   -3.6312   11.4841   -0.1844 H   0  0  0  0  0  0  0  0  0  0  0  0
   -2.0890   13.0319   -2.0272 H   0  0  0  0  0  0  0  0  0  0  0  0
   -1.7474   12.9215   -0.3025 H   0  0  0  0  0  0  0  0  0  0  0  0
   -1.0727   10.1645   -3.2388 H   0  0  0  0  0  0  0  0  0  0  0  0
   -1.4289   11.9001   -3.5346 H   0  0  0  0  0  0  0  0  0  0  0  0
    0.2710   11.3194   -3.5346 H   0  0  0  0  0  0  0  0  0  0  0  0
    0.6027   12.3711   -0.1012 H   0  0  0  0  0  0  0  0  0  0  0  0
    0.1563   13.9433   -2.0927 H   0  0  0  0  0  0  0  0  0  0  0  0
    1.7669   13.9690   -1.2014 H   0  0  0  0  0  0  0  0  0  0  0  0
    1.8847   14.1383   -3.8282 H   0  0  0  0  0  0  0  0  0  0  0  0
    1.8727   10.1661   -3.1108 H   0  0  0  0  0  0  0  0  0  0  0  0
    4.6596   11.1010   -2.1842 H   0  0  0  0  0  0  0  0  0  0  0  0
    4.0003    9.4065   -2.1230 H   0  0  0  0  0  0  0  0  0  0  0  0
    5.5657    9.7348   -4.0106 H   0  0  0  0  0  0  0  0  0  0  0  0
    3.8881    9.3299   -4.5466 H   0  0  0  0  0  0  0  0  0  0  0  0
    4.7475   11.0728   -5.9554 H   0  0  0  0  0  0  0  0  0  0  0  0
    5.1600   13.1830   -4.7080 H   0  0  0  0  0  0  0  0  0  0  0  0
    1.4972   10.5117   -5.1638 H   0  0  0  0  0  0  0  0  0  0  0  0
    1.4936   11.7453   -6.4696 H   0  0  0  0  0  0  0  0  0  0  0  0
    2.7288   10.4411   -6.4696 H   0  0  0  0  0  0  0  0  0  0  0  0
    3.2778   14.1769   -5.0441 H   0  0  0  0  0  0  0  0  0  0  0  0
    4.1000   13.3252   -6.3951 H   0  0  0  0  0  0  0  0  0  0  0  0
    2.3115   13.4930   -6.3951 H   0  0  0  0  0  0  0  0  0  0  0  0
    2.7620   11.4992    0.7923 H   0  0  0  0  0  0  0  0  0  0  0  0
    4.0157   11.1396   -0.4428 H   0  0  0  0  0  0  0  0  0  0  0  0
    3.1858   12.7327   -0.4428 H   0  0  0  0  0  0  0  0  0  0  0  0
    2.2936    8.9395   -1.0390 H   0  0  0  0  0  0  0  0  0  0  0  0
    1.6061    9.7824    0.4618 H   0  0  0  0  0  0  0  0  0  0  0  0
    0.0998    8.8973   -2.0144 H   0  0  0  0  0  0  0  0  0  0  0  0
   -0.0392    8.2712   -0.3245 H   0  0  0  0  0  0  0  0  0  0  0  0
   -1.0229    9.5773    1.4625 H   0  0  0  0  0  0  0  0  0  0  0  0
    0.1611   10.8967    1.1726 H   0  0  0  0  0  0  0  0  0  0  0  0
   -1.5994   11.2538    1.1726 H   0  0  0  0  0  0  0  0  0  0  0  0
  1  2  1  0
  2  3  1  0
  3  4  1  0
  4  5  1  0
  5  6  1  0
  6  7  1  0
  7  8  1  0
  7  9  1  0
  2 10  1  0
 10 11  1  0
 11 12  1  0
 12 13  1  0
 13 14  1  6
 13 15  1  0
 15 16  1  0
 16 17  1  0
 17 18  2  0
 18 19  1  0
 19 20  1  0
 20 21  1  0
 21 22  1  0
 22 23  1  0
 22 24  1  0
 24 25  1  0
 24 26  1  0
 19 27  1  0
 27 28  1  1
 27 29  1  0
 29 30  1  0
 30 31  1  0
 31 32  1  1
  7  5  1  0
 31 10  1  0
 31 13  1  0
 27 15  1  0
 24 18  1  0
  1 33  1  0
  1 34  1  0
  1 35  1  0
  2 36  1  1
  3 37  1  0
  3 38  1  0
  4 39  1  0
  4 40  1  0
  5 41  1  6
  8 42  1  0
  8 43  1  0
  8 44  1  0
  9 45  1  0
  9 46  1  0
  9 47  1  0
 10 48  1  6
 11 49  1  0
 11 50  1  0
 12 51  1  0
 12 52  1  0
 14 53  1  0
 14 54  1  0
 14 55  1  0
 15 56  1  1
 16 57  1  0
 16 58  1  0
 17 59  1  0
 19 60  1  6
 20 61  1  0
 20 62  1  0
 21 63  1  0
 21 64  1  0
 22 65  1  6
 23 66  1  0
 25 67  1  0
 25 68  1  0
 25 69  1  0
 26 70  1  0
 26 71  1  0
 26 72  1  0
 28 73  1  0
 28 74  1  0
 28 75  1  0
 29 76  1  0
 29 77  1  0
 30 78  1  0
 30 79  1  0
 32 80  1  0
 32 81  1  0
 32 82  1  0
M  END
>  <meeko>  (17) 
{"is_sidechain": [false], "intermolecular_energy": 2.731, "internal_energy": -0.839}

$$$$
EPH_relaxed_0001_pdb2pqr_Repair_367_r2_0001_out
     RDKit          3D

 82 86  0  0  0  0  0  0  0  0999 V2000
   -4.8720    6.2500   -3.0490 C   0  0  0  0  0  0  0  0  0  0  0  0
   -5.4590    7.4310   -2.2720 C   0  0  2  0  0  0  0  0  0  0  0  0
   -5.3000    7.2610   -0.7480 C   0  0  0  0  0  0  0  0  0  0  0  0
   -4.9740    8.5650   -0.0140 C   0  0  0  0  0  0  0  0  0  0  0  0
   -5.8620    8.7680    1.1750 C   0  0  2  0  0  0  0  0  0  0  0  0
   -5.1690    9.0430    2.4000 O   0  0  0  0  0  0  0  0  0  0  0  0
   -5.9120    7.8140    2.3550 C   0  0  0  0  0  0  0  0  0  0  0  0
   -5.0600    6.5850    2.4010 C   0  0  0  0  0  0  0  0  0  0  0  0
   -7.1310    7.8150    3.2240 C   0  0  0  0  0  0  0  0  0  0  0  0
   -6.9320    7.6050   -2.6260 C   0  0  1  0  0  0  0  0  0  0  0  0
   -7.3220    6.8720   -3.9370 C   0  0  0  0  0  0  0  0  0  0  0  0
   -8.7720    6.3570   -3.7470 C   0  0  0  0  0  0  0  0  0  0  0  0
   -9.2830    7.0850   -2.4820 C   0  0  1  0  0  0  0  0  0  0  0  0
   -9.7170    8.4990   -2.9820 C   0  0  0  0  0  0  0  0  0  0  0  0
  -10.4290    6.3750   -1.6910 C   0  0  2  0  0  0  0  0  0  0  0  0
  -11.7440    6.1940   -2.4700 C   0  0  0  0  0  0  0  0  0  0  0  0
  -12.7240    7.3120   -2.3350 C   0  0  0  0  0  0  0  0  0  0  0  0
  -12.6830    8.2790   -1.4000 C   0  0  0  0  0  0  0  0  0  0  0  0
  -11.6260    8.2560   -0.2880 C   0  0  1  0  0  0  0  0  0  0  0  0
  -12.3060    8.5390    1.0770 C   0  0  0  0  0  0  0  0  0  0  0  0
  -13.1170    9.8310    1.0710 C   0  0  0  0  0  0  0  0  0  0  0  0
  -14.1950    9.7920   -0.0100 C   0  0  2  0  0  0  0  0  0  0  0  0
  -15.1590    8.7930    0.3360 O   0  0  0  0  0  0  0  0  0  0  0  0
  -13.6300    9.5040   -1.4290 C   0  0  0  0  0  0  0  0  0  0  0  0
  -12.8250   10.7300   -1.9270 C   0  0  0  0  0  0  0  0  0  0  0  0
  -14.8320    9.3510   -2.3990 C   0  0  0  0  0  0  0  0  0  0  0  0
  -10.6890    6.9740   -0.2500 C   0  0  1  0  0  0  0  0  0  0  0  0
  -11.3660    5.8440    0.5860 C   0  0  0  0  0  0  0  0  0  0  0  0
   -9.3510    7.3370    0.4970 C   0  0  0  0  0  0  0  0  0  0  0  0
   -8.2140    7.9240   -0.3600 C   0  0  0  0  0  0  0  0  0  0  0  0
   -7.9740    7.0720   -1.6110 C   0  0  2  0  0  0  0  0  0  0  0  0
   -7.5140    5.6500   -1.1400 C   0  0  0  0  0  0  0  0  0  0  0  0
   -4.4971    5.4957   -2.3416 H   0  0  0  0  0  0  0  0  0  0  0  0
   -5.6528    5.8031   -3.6819 H   0  0  0  0  0  0  0  0  0  0  0  0
   -4.0443    6.6026   -3.6819 H   0  0  0  0  0  0  0  0  0  0  0  0
   -4.8972    8.3307   -2.5636 H   0  0  0  0  0  0  0  0  0  0  0  0
   -6.2411    6.8605   -0.3431 H   0  0  0  0  0  0  0  0  0  0  0  0
   -4.4508    6.5805   -0.5872 H   0  0  0  0  0  0  0  0  0  0  0  0
   -3.9277    8.5320    0.3239 H   0  0  0  0  0  0  0  0  0  0  0  0
   -5.1369    9.4007   -0.7105 H   0  0  0  0  0  0  0  0  0  0  0  0
   -6.6506    9.2005    0.5418 H   0  0  0  0  0  0  0  0  0  0  0  0
   -4.8694    6.3100    3.4489 H   0  0  0  0  0  0  0  0  0  0  0  0
   -5.5802    5.7590    1.8940 H   0  0  0  0  0  0  0  0  0  0  0  0
   -4.1040    6.7824    1.8940 H   0  0  0  0  0  0  0  0  0  0  0  0
   -6.8276    7.8148    4.2813 H   0  0  0  0  0  0  0  0  0  0  0  0
   -7.7298    8.7136    3.0146 H   0  0  0  0  0  0  0  0  0  0  0  0
   -7.7313    6.9173    3.0146 H   0  0  0  0  0  0  0  0  0  0  0  0
   -6.9816    8.7027   -2.6761 H   0  0  0  0  0  0  0  0  0  0  0  0
   -7.2754    7.5674   -4.7880 H   0  0  0  0  0  0  0  0  0  0  0  0
   -6.6318    6.0412   -4.1454 H   0  0  0  0  0  0  0  0  0  0  0  0
   -9.3920    6.6124   -4.6190 H   0  0  0  0  0  0  0  0  0  0  0  0
   -8.8155    5.2627   -3.6442 H   0  0  0  0  0  0  0  0  0  0  0  0
   -9.9164    9.1486   -2.1169 H   0  0  0  0  0  0  0  0  0  0  0  0
   -8.9116    8.9359   -3.5907 H   0  0  0  0  0  0  0  0  0  0  0  0
  -10.6288    8.4088   -3.5907 H   0  0  0  0  0  0  0  0  0  0  0  0
  -10.0246    5.3621   -1.5475 H   0  0  0  0  0  0  0  0  0  0  0  0
  -11.4955    6.0867   -3.5362 H   0  0  0  0  0  0  0  0  0  0  0  0
  -12.2328    5.3072   -2.0402 H   0  0  0  0  0  0  0  0  0  0  0  0
  -13.5494    7.3485   -3.0612 H   0  0  0  0  0  0  0  0  0  0  0  0
  -10.9157    9.0618   -0.5249 H   0  0  0  0  0  0  0  0  0  0  0  0
  -12.9784    7.7019    1.3160 H   0  0  0  0  0  0  0  0  0  0  0  0
  -11.5110    8.6479    1.8294 H   0  0  0  0  0  0  0  0  0  0  0  0
  -13.5959    9.9603    2.0528 H   0  0  0  0  0  0  0  0  0  0  0  0
  -12.4386   10.6711    0.8611 H   0  0  0  0  0  0  0  0  0  0  0  0
  -14.6553   10.7902   -0.0527 H   0  0  0  0  0  0  0  0  0  0  0  0
  -14.8970    7.9660   -0.1040 H   0  0  0  0  0  0  0  0  0  0  0  0
  -12.4514   11.2990   -1.0629 H   0  0  0  0  0  0  0  0  0  0  0  0
  -11.9752   10.3879   -2.5359 H   0  0  0  0  0  0  0  0  0  0  0  0
  -13.4767   11.3738   -2.5359 H   0  0  0  0  0  0  0  0  0  0  0  0
  -15.7589    9.2330   -1.8185 H   0  0  0  0  0  0  0  0  0  0  0  0
  -14.9079   10.2467   -3.0330 H   0  0  0  0  0  0  0  0  0  0  0  0
  -14.6811    8.4648   -3.0330 H   0  0  0  0  0  0  0  0  0  0  0  0
  -11.2395    6.0551    1.6581 H   0  0  0  0  0  0  0  0  0  0  0  0
  -12.4384    5.8017    0.3447 H   0  0  0  0  0  0  0  0  0  0  0  0
  -10.8975    4.8785    0.3447 H   0  0  0  0  0  0  0  0  0  0  0  0
   -9.5945    8.0739    1.2765 H   0  0  0  0  0  0  0  0  0  0  0  0
   -8.9626    6.3791    0.8731 H   0  0  0  0  0  0  0  0  0  0  0  0
   -8.4849    8.9451   -0.6666 H   0  0  0  0  0  0  0  0  0  0  0  0
   -7.2920    7.9339    0.2398 H   0  0  0  0  0  0  0  0  0  0  0  0
   -7.5023    5.6139   -0.0407 H   0  0  0  0  0  0  0  0  0  0  0  0
   -8.2129    4.8925   -1.5244 H   0  0  0  0  0  0  0  0  0  0  0  0
   -6.5038    5.4454   -1.5244 H   0  0  0  0  0  0  0  0  0  0  0  0
  1  2  1  0
  2  3  1  0
  3  4  1  0
  4  5  1  0
  5  6  1  0
  6  7  1  0
  7  8  1  0
  7  9  1  0
  2 10  1  0
 10 11  1  0
 11 12  1  0
 12 13  1  0
 13 14  1  6
 13 15  1  0
 15 16  1  0
 16 17  1  0
 17 18  2  0
 18 19  1  0
 19 20  1  0
 20 21  1  0
 21 22  1  0
 22 23  1  0
 22 24  1  0
 24 25  1  0
 24 26  1  0
 19 27  1  0
 27 28  1  1
 27 29  1  0
 29 30  1  0
 30 31  1  0
 31 32  1  1
  7  5  1  0
 31 10  1  0
 31 13  1  0
 27 15  1  0
 24 18  1  0
  1 33  1  0
  1 34  1  0
  1 35  1  0
  2 36  1  6
  3 37  1  0
  3 38  1  0
  4 39  1  0
  4 40  1  0
  5 41  1  6
  8 42  1  0
  8 43  1  0
  8 44  1  0
  9 45  1  0
  9 46  1  0
  9 47  1  0
 10 48  1  6
 11 49  1  0
 11 50  1  0
 12 51  1  0
 12 52  1  0
 14 53  1  0
 14 54  1  0
 14 55  1  0
 15 56  1  1
 16 57  1  0
 16 58  1  0
 17 59  1  0
 19 60  1  6
 20 61  1  0
 20 62  1  0
 21 63  1  0
 21 64  1  0
 22 65  1  6
 23 66  1  0
 25 67  1  0
 25 68  1  0
 25 69  1  0
 26 70  1  0
 26 71  1  0
 26 72  1  0
 28 73  1  0
 28 74  1  0
 28 75  1  0
 29 76  1  0
 29 77  1  0
 30 78  1  0
 30 79  1  0
 32 80  1  0
 32 81  1  0
 32 82  1  0
M  END
>  <meeko>  (18) 
{"is_sidechain": [false], "intermolecular_energy": 2.731, "internal_energy": -0.839}

$$$$
