EPH_relaxed_0001_pdb2pqr_Repair_337_r2_0001_out
     RDKit          3D

 82 86  0  0  0  0  0  0  0  0999 V2000
   -5.1310    5.8810   -1.8050 C   0  0  0  0  0  0  0  0  0  0  0  0
   -5.4540    7.3780   -1.8160 C   0  0  2  0  0  0  0  0  0  0  0  0
   -5.2410    8.0280   -0.4350 C   0  0  0  0  0  0  0  0  0  0  0  0
   -4.1910    9.1420   -0.4330 C   0  0  0  0  0  0  0  0  0  0  0  0
   -2.8270    8.6180   -0.7690 C   0  0  2  0  0  0  0  0  0  0  0  0
   -1.8080    8.9470    0.1840 O   0  0  0  0  0  0  0  0  0  0  0  0
   -1.6540    9.5100   -1.1290 C   0  0  0  0  0  0  0  0  0  0  0  0
   -1.7900   10.9990   -1.1730 C   0  0  0  0  0  0  0  0  0  0  0  0
   -0.5190    8.9200   -1.9080 C   0  0  0  0  0  0  0  0  0  0  0  0
   -6.8890    7.5970   -2.2800 C   0  0  1  0  0  0  0  0  0  0  0  0
   -7.1950    6.8930   -3.6290 C   0  0  0  0  0  0  0  0  0  0  0  0
   -8.6680    6.4150   -3.5600 C   0  0  0  0  0  0  0  0  0  0  0  0
   -9.2570    7.1420   -2.3280 C   0  0  1  0  0  0  0  0  0  0  0  0
   -9.6130    8.5730   -2.8380 C   0  0  0  0  0  0  0  0  0  0  0  0
  -10.4800    6.4540   -1.6390 C   0  0  2  0  0  0  0  0  0  0  0  0
  -11.7340    6.3190   -2.5190 C   0  0  0  0  0  0  0  0  0  0  0  0
  -12.6920    7.4620   -2.4440 C   0  0  0  0  0  0  0  0  0  0  0  0
  -12.6980    8.4160   -1.4950 C   0  0  0  0  0  0  0  0  0  0  0  0
  -11.7320    8.3490   -0.3050 C   0  0  1  0  0  0  0  0  0  0  0  0
  -12.5080    8.6330    1.0080 C   0  0  0  0  0  0  0  0  0  0  0  0
  -13.2820    9.9470    0.9580 C   0  0  0  0  0  0  0  0  0  0  0  0
  -14.2730    9.9520   -0.2030 C   0  0  2  0  0  0  0  0  0  0  0  0
  -15.2870    8.9750    0.0520 O   0  0  0  0  0  0  0  0  0  0  0  0
  -13.6070    9.6670   -1.5780 C   0  0  0  0  0  0  0  0  0  0  0  0
  -12.7330   10.8760   -1.9940 C   0  0  0  0  0  0  0  0  0  0  0  0
  -14.7330    9.5600   -2.6420 C   0  0  0  0  0  0  0  0  0  0  0  0
  -10.8350    7.0400   -0.2130 C   0  0  1  0  0  0  0  0  0  0  0  0
  -11.6060    5.9200    0.5510 C   0  0  0  0  0  0  0  0  0  0  0  0
   -9.5510    7.3570    0.6410 C   0  0  0  0  0  0  0  0  0  0  0  0
   -8.3350    7.9230   -0.1170 C   0  0  0  0  0  0  0  0  0  0  0  0
   -8.0210    7.0810   -1.3570 C   0  0  2  0  0  0  0  0  0  0  0  0
   -7.6380    5.6410   -0.8740 C   0  0  0  0  0  0  0  0  0  0  0  0
   -5.0552    5.5299   -0.7653 H   0  0  0  0  0  0  0  0  0  0  0  0
   -5.9308    5.3295   -2.3209 H   0  0  0  0  0  0  0  0  0  0  0  0
   -4.1749    5.7084   -2.3209 H   0  0  0  0  0  0  0  0  0  0  0  0
   -4.7590    7.8613   -2.5184 H   0  0  0  0  0  0  0  0  0  0  0  0
   -6.1987    8.4532   -0.1002 H   0  0  0  0  0  0  0  0  0  0  0  0
   -4.8731    7.2392    0.2376 H   0  0  0  0  0  0  0  0  0  0  0  0
   -4.4748    9.9009   -1.1771 H   0  0  0  0  0  0  0  0  0  0  0  0
   -4.1528    9.5758    0.5771 H   0  0  0  0  0  0  0  0  0  0  0  0
   -3.2613    7.7356   -1.2617 H   0  0  0  0  0  0  0  0  0  0  0  0
   -1.8261   11.3944   -0.1471 H   0  0  0  0  0  0  0  0  0  0  0  0
   -0.9275   11.4305   -1.7021 H   0  0  0  0  0  0  0  0  0  0  0  0
   -2.7164   11.2671   -1.7021 H   0  0  0  0  0  0  0  0  0  0  0  0
    0.2375    8.5268   -1.2129 H   0  0  0  0  0  0  0  0  0  0  0  0
   -0.8947    8.1030   -2.5416 H   0  0  0  0  0  0  0  0  0  0  0  0
   -0.0662    9.6969   -2.5416 H   0  0  0  0  0  0  0  0  0  0  0  0
   -6.9052    8.6963   -2.3168 H   0  0  0  0  0  0  0  0  0  0  0  0
   -7.0644    7.5986   -4.4627 H   0  0  0  0  0  0  0  0  0  0  0  0
   -6.5126    6.0467   -3.7966 H   0  0  0  0  0  0  0  0  0  0  0  0
   -9.2111    6.6974   -4.4739 H   0  0  0  0  0  0  0  0  0  0  0  0
   -8.7481    5.3211   -3.4765 H   0  0  0  0  0  0  0  0  0  0  0  0
   -9.7785    9.2382   -1.9777 H   0  0  0  0  0  0  0  0  0  0  0  0
   -8.7842    8.9616   -3.4479 H   0  0  0  0  0  0  0  0  0  0  0  0
  -10.5273    8.5280   -3.4479 H   0  0  0  0  0  0  0  0  0  0  0  0
  -10.1147    5.4286   -1.4807 H   0  0  0  0  0  0  0  0  0  0  0  0
  -11.4065    6.2181   -3.5642 H   0  0  0  0  0  0  0  0  0  0  0  0
  -12.2779    5.4408   -2.1410 H   0  0  0  0  0  0  0  0  0  0  0  0
  -13.4575    7.5299   -3.2310 H   0  0  0  0  0  0  0  0  0  0  0  0
  -10.9845    9.1379   -0.4749 H   0  0  0  0  0  0  0  0  0  0  0  0
  -13.2186    7.8116    1.1822 H   0  0  0  0  0  0  0  0  0  0  0  0
  -11.7712    8.7104    1.8211 H   0  0  0  0  0  0  0  0  0  0  0  0
  -13.8322   10.0770    1.9016 H   0  0  0  0  0  0  0  0  0  0  0  0
  -12.5672   10.7705    0.8133 H   0  0  0  0  0  0  0  0  0  0  0  0
  -14.7022   10.9629   -0.2659 H   0  0  0  0  0  0  0  0  0  0  0  0
  -16.1490    9.4100   -0.0610 H   0  0  0  0  0  0  0  0  0  0  0  0
  -12.3629   11.3880   -1.0935 H   0  0  0  0  0  0  0  0  0  0  0  0
  -11.8798   10.5232   -2.5920 H   0  0  0  0  0  0  0  0  0  0  0  0
  -13.3355   11.5755   -2.5920 H   0  0  0  0  0  0  0  0  0  0  0  0
  -15.7063    9.4675   -2.1378 H   0  0  0  0  0  0  0  0  0  0  0  0
  -14.7301   10.4625   -3.2709 H   0  0  0  0  0  0  0  0  0  0  0  0
  -14.5602    8.6742   -3.2709 H   0  0  0  0  0  0  0  0  0  0  0  0
  -11.4992    6.0752    1.6348 H   0  0  0  0  0  0  0  0  0  0  0  0
  -12.6711    5.9567    0.2785 H   0  0  0  0  0  0  0  0  0  0  0  0
  -11.1915    4.9382    0.2785 H   0  0  0  0  0  0  0  0  0  0  0  0
   -9.8353    8.0910    1.4094 H   0  0  0  0  0  0  0  0  0  0  0  0
   -9.2187    6.3844    1.0330 H   0  0  0  0  0  0  0  0  0  0  0  0
   -8.5539    8.9549   -0.4288 H   0  0  0  0  0  0  0  0  0  0  0  0
   -7.4626    7.8997    0.5526 H   0  0  0  0  0  0  0  0  0  0  0  0
   -7.6305    5.6130    0.2256 H   0  0  0  0  0  0  0  0  0  0  0  0
   -8.3752    4.9185   -1.2542 H   0  0  0  0  0  0  0  0  0  0  0  0
   -6.6393    5.3803   -1.2542 H   0  0  0  0  0  0  0  0  0  0  0  0
  1  2  1  0
  2  3  1  0
  3  4  1  0
  4  5  1  0
  5  6  1  0
  6  7  1  0
  7  8  1  0
  7  9  1  0
  2 10  1  0
 10 11  1  0
 11 12  1  0
 12 13  1  0
 13 14  1  6
 13 15  1  0
 15 16  1  0
 16 17  1  0
 17 18  2  0
 18 19  1  0
 19 20  1  0
 20 21  1  0
 21 22  1  0
 22 23  1  0
 22 24  1  0
 24 25  1  0
 24 26  1  0
 19 27  1  0
 27 28  1  1
 27 29  1  0
 29 30  1  0
 30 31  1  0
 31 32  1  1
  7  5  1  0
 31 10  1  0
 31 13  1  0
 27 15  1  0
 24 18  1  0
  1 33  1  0
  1 34  1  0
  1 35  1  0
  2 36  1  6
  3 37  1  0
  3 38  1  0
  4 39  1  0
  4 40  1  0
  5 41  1  6
  8 42  1  0
  8 43  1  0
  8 44  1  0
  9 45  1  0
  9 46  1  0
  9 47  1  0
 10 48  1  6
 11 49  1  0
 11 50  1  0
 12 51  1  0
 12 52  1  0
 14 53  1  0
 14 54  1  0
 14 55  1  0
 15 56  1  1
 16 57  1  0
 16 58  1  0
 17 59  1  0
 19 60  1  6
 20 61  1  0
 20 62  1  0
 21 63  1  0
 21 64  1  0
 22 65  1  6
 23 66  1  0
 25 67  1  0
 25 68  1  0
 25 69  1  0
 26 70  1  0
 26 71  1  0
 26 72  1  0
 28 73  1  0
 28 74  1  0
 28 75  1  0
 29 76  1  0
 29 77  1  0
 30 78  1  0
 30 79  1  0
 32 80  1  0
 32 81  1  0
 32 82  1  0
M  END
>  <meeko>  (1) 
{"is_sidechain": [false], "intermolecular_energy": 2.731, "internal_energy": -0.839}

$$$$
EPH_relaxed_0001_pdb2pqr_Repair_337_r2_0001_out
     RDKit          3D

 82 86  0  0  0  0  0  0  0  0999 V2000
   -0.6550   16.5130   -5.7290 C   0  0  0  0  0  0  0  0  0  0  0  0
    0.2930   15.7270   -6.6400 C   0  0  2  0  0  0  0  0  0  0  0  0
   -0.2610   15.5860   -8.0720 C   0  0  0  0  0  0  0  0  0  0  0  0
    0.3730   16.5530   -9.0750 C   0  0  0  0  0  0  0  0  0  0  0  0
    1.7820   16.1620   -9.4070 C   0  0  2  0  0  0  0  0  0  0  0  0
    2.2870   16.7210  -10.6260 O   0  0  0  0  0  0  0  0  0  0  0  0
    2.1510   15.2910  -10.5940 C   0  0  0  0  0  0  0  0  0  0  0  0
    1.1070   14.7580  -11.5240 C   0  0  0  0  0  0  0  0  0  0  0  0
    3.4580   14.5620  -10.5670 C   0  0  0  0  0  0  0  0  0  0  0  0
    0.5600   14.3490   -6.0470 C   0  0  1  0  0  0  0  0  0  0  0  0
    1.7380   13.6170   -6.7440 C   0  0  0  0  0  0  0  0  0  0  0  0
    2.4640   12.7940   -5.6490 C   0  0  0  0  0  0  0  0  0  0  0  0
    1.4980   12.8130   -4.4420 C   0  0  1  0  0  0  0  0  0  0  0  0
    0.4440   11.7040   -4.7540 C   0  0  0  0  0  0  0  0  0  0  0  0
    2.1470   12.6120   -3.0330 C   0  0  2  0  0  0  0  0  0  0  0  0
    2.8440   11.2560   -2.8240 C   0  0  0  0  0  0  0  0  0  0  0  0
    1.9780   10.1740   -2.2680 C   0  0  0  0  0  0  0  0  0  0  0  0
    0.7780   10.3530   -1.6860 C   0  0  0  0  0  0  0  0  0  0  0  0
    0.2190   11.7620   -1.4510 C   0  0  1  0  0  0  0  0  0  0  0  0
   -0.3310   11.8670   -0.0050 C   0  0  0  0  0  0  0  0  0  0  0  0
   -1.3480   10.7750    0.3140 C   0  0  0  0  0  0  0  0  0  0  0  0
   -0.7380    9.3890    0.1250 C   0  0  2  0  0  0  0  0  0  0  0  0
    0.2810    9.1960    1.1110 O   0  0  0  0  0  0  0  0  0  0  0  0
   -0.1410    9.1700   -1.2930 C   0  0  0  0  0  0  0  0  0  0  0  0
   -1.2870    9.0800   -2.3310 C   0  0  0  0  0  0  0  0  0  0  0  0
    0.5670    7.7880   -1.3060 C   0  0  0  0  0  0  0  0  0  0  0  0
    1.1910   12.9640   -1.8230 C   0  0  1  0  0  0  0  0  0  0  0  0
    2.1120   13.2970   -0.6100 C   0  0  0  0  0  0  0  0  0  0  0  0
    0.3310   14.2550   -2.0950 C   0  0  0  0  0  0  0  0  0  0  0  0
   -0.1810   14.4570   -3.5340 C   0  0  0  0  0  0  0  0  0  0  0  0
    0.9520   14.2830   -4.5490 C   0  0  2  0  0  0  0  0  0  0  0  0
    2.0170   15.3990   -4.2740 C   0  0  0  0  0  0  0  0  0  0  0  0
   -0.4071   16.3075   -4.6772 H   0  0  0  0  0  0  0  0  0  0  0  0
   -0.5461   17.5894   -5.9278 H   0  0  0  0  0  0  0  0  0  0  0  0
   -1.6926   16.2066   -5.9278 H   0  0  0  0  0  0  0  0  0  0  0  0
    1.2341   16.2927   -6.7047 H   0  0  0  0  0  0  0  0  0  0  0  0
   -0.0759   14.5578   -8.4163 H   0  0  0  0  0  0  0  0  0  0  0  0
   -1.3334   15.8269   -8.0270 H   0  0  0  0  0  0  0  0  0  0  0  0
   -0.2246   16.5513   -9.9985 H   0  0  0  0  0  0  0  0  0  0  0  0
    0.3929   17.5545   -8.6205 H   0  0  0  0  0  0  0  0  0  0  0  0
    2.0422   16.1038   -8.3398 H   0  0  0  0  0  0  0  0  0  0  0  0
    0.2771   14.3343  -10.9394 H   0  0  0  0  0  0  0  0  0  0  0  0
    0.7298   15.5739  -12.1581 H   0  0  0  0  0  0  0  0  0  0  0  0
    1.5466   13.9740  -12.1581 H   0  0  0  0  0  0  0  0  0  0  0  0
    3.7618   14.3925   -9.5235 H   0  0  0  0  0  0  0  0  0  0  0  0
    3.3488   13.5945  -11.0788 H   0  0  0  0  0  0  0  0  0  0  0  0
    4.2238   15.1632  -11.0788 H   0  0  0  0  0  0  0  0  0  0  0  0
   -0.4274   13.8885   -6.1985 H   0  0  0  0  0  0  0  0  0  0  0  0
    1.3567   12.9485   -7.5299 H   0  0  0  0  0  0  0  0  0  0  0  0
    2.4236   14.3346   -7.2183 H   0  0  0  0  0  0  0  0  0  0  0  0
    2.6390   11.7630   -5.9901 H   0  0  0  0  0  0  0  0  0  0  0  0
    3.4511   13.2105   -5.3998 H   0  0  0  0  0  0  0  0  0  0  0  0
    0.0537   11.2934   -3.8111 H   0  0  0  0  0  0  0  0  0  0  0  0
   -0.3831   12.1374   -5.3354 H   0  0  0  0  0  0  0  0  0  0  0  0
    0.9189   10.8999   -5.3354 H   0  0  0  0  0  0  0  0  0  0  0  0
    2.9501   13.3637   -3.0330 H   0  0  0  0  0  0  0  0  0  0  0  0
    3.2284   10.9175   -3.7975 H   0  0  0  0  0  0  0  0  0  0  0  0
    3.6319   11.4303   -2.0764 H   0  0  0  0  0  0  0  0  0  0  0  0
    2.3531    9.1425   -2.3404 H   0  0  0  0  0  0  0  0  0  0  0  0
   -0.6022   11.8874   -2.1721 H   0  0  0  0  0  0  0  0  0  0  0  0
    0.5098   11.7826    0.6992 H   0  0  0  0  0  0  0  0  0  0  0  0
   -0.8414   12.8369    0.0889 H   0  0  0  0  0  0  0  0  0  0  0  0
   -1.6776   10.8839    1.3578 H   0  0  0  0  0  0  0  0  0  0  0  0
   -2.2016   10.8792   -0.3719 H   0  0  0  0  0  0  0  0  0  0  0  0
   -1.5478    8.6537    0.2408 H   0  0  0  0  0  0  0  0  0  0  0  0
    0.6900   10.0600    1.2850 H   0  0  0  0  0  0  0  0  0  0  0  0
   -2.2512    9.0043   -1.8070 H   0  0  0  0  0  0  0  0  0  0  0  0
   -1.2822    9.9813   -2.9616 H   0  0  0  0  0  0  0  0  0  0  0  0
   -1.1415    8.1905   -2.9616 H   0  0  0  0  0  0  0  0  0  0  0  0
    0.7381    7.4540   -0.2720 H   0  0  0  0  0  0  0  0  0  0  0  0
   -0.0672    7.0560   -1.8276 H   0  0  0  0  0  0  0  0  0  0  0  0
    1.5316    7.8750   -1.8276 H   0  0  0  0  0  0  0  0  0  0  0  0
    1.5698   13.1009    0.3268 H   0  0  0  0  0  0  0  0  0  0  0  0
    3.0134   12.6679   -0.6505 H   0  0  0  0  0  0  0  0  0  0  0  0
    2.4026   14.3571   -0.6505 H   0  0  0  0  0  0  0  0  0  0  0  0
   -0.5458   14.2168   -1.4319 H   0  0  0  0  0  0  0  0  0  0  0  0
    1.0117   15.0991   -1.9101 H   0  0  0  0  0  0  0  0  0  0  0  0
   -0.9679   13.7173   -3.7430 H   0  0  0  0  0  0  0  0  0  0  0  0
   -0.5786   15.4786   -3.6243 H   0  0  0  0  0  0  0  0  0  0  0  0
    2.1406   15.5285   -3.1887 H   0  0  0  0  0  0  0  0  0  0  0  0
    2.9788   15.1059   -4.7201 H   0  0  0  0  0  0  0  0  0  0  0  0
    1.6793   16.3460   -4.7201 H   0  0  0  0  0  0  0  0  0  0  0  0
  1  2  1  0
  2  3  1  0
  3  4  1  0
  4  5  1  0
  5  6  1  0
  6  7  1  0
  7  8  1  0
  7  9  1  0
  2 10  1  0
 10 11  1  0
 11 12  1  0
 12 13  1  0
 13 14  1  6
 13 15  1  0
 15 16  1  0
 16 17  1  0
 17 18  2  0
 18 19  1  0
 19 20  1  0
 20 21  1  0
 21 22  1  0
 22 23  1  0
 22 24  1  0
 24 25  1  0
 24 26  1  0
 19 27  1  0
 27 28  1  1
 27 29  1  0
 29 30  1  0
 30 31  1  0
 31 32  1  1
  7  5  1  0
 31 10  1  0
 31 13  1  0
 27 15  1  0
 24 18  1  0
  1 33  1  0
  1 34  1  0
  1 35  1  0
  2 36  1  6
  3 37  1  0
  3 38  1  0
  4 39  1  0
  4 40  1  0
  5 41  1  1
  8 42  1  0
  8 43  1  0
  8 44  1  0
  9 45  1  0
  9 46  1  0
  9 47  1  0
 10 48  1  1
 11 49  1  0
 11 50  1  0
 12 51  1  0
 12 52  1  0
 14 53  1  0
 14 54  1  0
 14 55  1  0
 15 56  1  6
 16 57  1  0
 16 58  1  0
 17 59  1  0
 19 60  1  6
 20 61  1  0
 20 62  1  0
 21 63  1  0
 21 64  1  0
 22 65  1  1
 23 66  1  0
 25 67  1  0
 25 68  1  0
 25 69  1  0
 26 70  1  0
 26 71  1  0
 26 72  1  0
 28 73  1  0
 28 74  1  0
 28 75  1  0
 29 76  1  0
 29 77  1  0
 30 78  1  0
 30 79  1  0
 32 80  1  0
 32 81  1  0
 32 82  1  0
M  END
>  <meeko>  (2) 
{"is_sidechain": [false], "intermolecular_energy": 2.731, "internal_energy": -0.839}

$$$$
EPH_relaxed_0001_pdb2pqr_Repair_337_r2_0001_out
     RDKit          3D

 82 86  0  0  0  0  0  0  0  0999 V2000
   -4.2200    7.2250   -3.6060 C   0  0  0  0  0  0  0  0  0  0  0  0
   -3.8740    7.1130   -2.1190 C   0  0  2  0  0  0  0  0  0  0  0  0
   -5.0780    6.6490   -1.2750 C   0  0  0  0  0  0  0  0  0  0  0  0
   -6.3690    6.4890   -2.0820 C   0  0  0  0  0  0  0  0  0  0  0  0
   -7.5600    6.3030   -1.1920 C   0  0  2  0  0  0  0  0  0  0  0  0
   -8.6590    5.6100   -1.7980 O   0  0  0  0  0  0  0  0  0  0  0  0
   -8.8980    6.9790   -1.4320 C   0  0  0  0  0  0  0  0  0  0  0  0
   -9.1130    7.8910   -2.5980 C   0  0  0  0  0  0  0  0  0  0  0  0
   -9.8360    7.1390   -0.2770 C   0  0  0  0  0  0  0  0  0  0  0  0
   -3.3620    8.4530   -1.6030 C   0  0  1  0  0  0  0  0  0  0  0  0
   -4.0230    8.8680   -0.2610 C   0  0  0  0  0  0  0  0  0  0  0  0
   -2.9390    9.6150    0.5590 C   0  0  0  0  0  0  0  0  0  0  0  0
   -1.8060    9.8950   -0.4560 C   0  0  1  0  0  0  0  0  0  0  0  0
   -2.2710   11.1650   -1.2350 C   0  0  0  0  0  0  0  0  0  0  0  0
   -0.3730   10.0770    0.1420 C   0  0  2  0  0  0  0  0  0  0  0  0
   -0.2100   11.2750    1.0940 C   0  0  0  0  0  0  0  0  0  0  0  0
    0.2040   12.5540    0.4440 C   0  0  0  0  0  0  0  0  0  0  0  0
    0.7100   12.6730   -0.7970 C   0  0  0  0  0  0  0  0  0  0  0  0
    1.0030   11.4320   -1.6510 C   0  0  1  0  0  0  0  0  0  0  0  0
    2.4100   11.5640   -2.2900 C   0  0  0  0  0  0  0  0  0  0  0  0
    2.5770   12.8630   -3.0730 C   0  0  0  0  0  0  0  0  0  0  0  0
    2.3350   14.0740   -2.1770 C   0  0  2  0  0  0  0  0  0  0  0  0
    3.3750   14.1380   -1.1960 O   0  0  0  0  0  0  0  0  0  0  0  0
    0.9510   14.0470   -1.4700 C   0  0  0  0  0  0  0  0  0  0  0  0
   -0.1710   14.2810   -2.5120 C   0  0  0  0  0  0  0  0  0  0  0  0
    0.8920   15.2490   -0.4900 C   0  0  0  0  0  0  0  0  0  0  0  0
    0.7880   10.0300   -0.9330 C   0  0  1  0  0  0  0  0  0  0  0  0
    2.0840    9.6190   -0.1700 C   0  0  0  0  0  0  0  0  0  0  0  0
    0.5470    8.9240   -2.0270 C   0  0  0  0  0  0  0  0  0  0  0  0
   -0.9070    8.7100   -2.4890 C   0  0  0  0  0  0  0  0  0  0  0  0
   -1.8480    8.5630   -1.2900 C   0  0  2  0  0  0  0  0  0  0  0  0
   -1.4190    7.2810   -0.4990 C   0  0  0  0  0  0  0  0  0  0  0  0
   -5.2613    7.5621   -3.7158 H   0  0  0  0  0  0  0  0  0  0  0  0
   -3.5471    7.9512   -4.0854 H   0  0  0  0  0  0  0  0  0  0  0  0
   -4.1003    6.2422   -4.0854 H   0  0  0  0  0  0  0  0  0  0  0  0
   -3.0879    6.3501   -2.0188 H   0  0  0  0  0  0  0  0  0  0  0  0
   -4.8301    5.6786   -0.8201 H   0  0  0  0  0  0  0  0  0  0  0  0
   -5.2635    7.4296   -0.5225 H   0  0  0  0  0  0  0  0  0  0  0  0
   -6.5197    7.3895   -2.6955 H   0  0  0  0  0  0  0  0  0  0  0  0
   -6.2698    5.5937   -2.7133 H   0  0  0  0  0  0  0  0  0  0  0  0
   -6.9148    6.2379   -0.3035 H   0  0  0  0  0  0  0  0  0  0  0  0
   -9.3512    8.9014   -2.2342 H   0  0  0  0  0  0  0  0  0  0  0  0
   -8.1988    7.9272   -3.2086 H   0  0  0  0  0  0  0  0  0  0  0  0
   -9.9471    7.5150   -3.2086 H   0  0  0  0  0  0  0  0  0  0  0  0
   -9.2768    7.0436    0.6654 H   0  0  0  0  0  0  0  0  0  0  0  0
  -10.3093    8.1309   -0.3237 H   0  0  0  0  0  0  0  0  0  0  0  0
  -10.6114    6.3601   -0.3237 H   0  0  0  0  0  0  0  0  0  0  0  0
   -3.6160    9.0912   -2.4622 H   0  0  0  0  0  0  0  0  0  0  0  0
   -4.8796    9.5317   -0.4499 H   0  0  0  0  0  0  0  0  0  0  0  0
   -4.3951    7.9884    0.2848 H   0  0  0  0  0  0  0  0  0  0  0  0
   -3.3386   10.5563    0.9643 H   0  0  0  0  0  0  0  0  0  0  0  0
   -2.5906    9.0284    1.4218 H   0  0  0  0  0  0  0  0  0  0  0  0
   -2.5582   11.9494   -0.5193 H   0  0  0  0  0  0  0  0  0  0  0  0
   -1.4479   11.5291   -1.8673 H   0  0  0  0  0  0  0  0  0  0  0  0
   -3.1346   10.9115   -1.8673 H   0  0  0  0  0  0  0  0  0  0  0  0
   -0.2635    9.1805    0.7700 H   0  0  0  0  0  0  0  0  0  0  0  0
   -1.1745   11.4449    1.5949 H   0  0  0  0  0  0  0  0  0  0  0  0
    0.6035   11.0070    1.7842 H   0  0  0  0  0  0  0  0  0  0  0  0
    0.0852   13.4775    1.0296 H   0  0  0  0  0  0  0  0  0  0  0  0
    0.2353   11.4163   -2.4386 H   0  0  0  0  0  0  0  0  0  0  0  0
    3.1647   11.5347   -1.4903 H   0  0  0  0  0  0  0  0  0  0  0  0
    2.5359   10.7299   -2.9959 H   0  0  0  0  0  0  0  0  0  0  0  0
    3.5994   12.9117   -3.4759 H   0  0  0  0  0  0  0  0  0  0  0  0
    1.8408   12.8778   -3.8902 H   0  0  0  0  0  0  0  0  0  0  0  0
    2.3409   14.9660   -2.8207 H   0  0  0  0  0  0  0  0  0  0  0  0
    3.2040   13.4410   -0.5400 H   0  0  0  0  0  0  0  0  0  0  0  0
   -1.1195   14.4788   -1.9913 H   0  0  0  0  0  0  0  0  0  0  0  0
    0.0883   15.1444   -3.1423 H   0  0  0  0  0  0  0  0  0  0  0  0
   -0.2785   13.3859   -3.1423 H   0  0  0  0  0  0  0  0  0  0  0  0
    0.9102   14.8789    0.5457 H   0  0  0  0  0  0  0  0  0  0  0  0
    1.7591   15.9041   -0.6606 H   0  0  0  0  0  0  0  0  0  0  0  0
   -0.0351   15.8160   -0.6606 H   0  0  0  0  0  0  0  0  0  0  0  0
    1.9050    9.6758    0.9139 H   0  0  0  0  0  0  0  0  0  0  0  0
    2.3592    8.5895   -0.4428 H   0  0  0  0  0  0  0  0  0  0  0  0
    2.9022   10.3018   -0.4428 H   0  0  0  0  0  0  0  0  0  0  0  0
    1.1409    9.1962   -2.9120 H   0  0  0  0  0  0  0  0  0  0  0  0
    0.8397    7.9775   -1.5491 H   0  0  0  0  0  0  0  0  0  0  0  0
   -1.2240    9.5743   -3.0911 H   0  0  0  0  0  0  0  0  0  0  0  0
   -0.9528    7.7869   -3.0856 H   0  0  0  0  0  0  0  0  0  0  0  0
   -1.4848    7.4776    0.5813 H   0  0  0  0  0  0  0  0  0  0  0  0
   -2.0872    6.4475   -0.7614 H   0  0  0  0  0  0  0  0  0  0  0  0
   -0.3837    7.0176   -0.7614 H   0  0  0  0  0  0  0  0  0  0  0  0
  1  2  1  0
  2  3  1  0
  3  4  1  0
  4  5  1  0
  5  6  1  0
  6  7  1  0
  7  8  1  0
  7  9  1  0
  2 10  1  0
 10 11  1  0
 11 12  1  0
 12 13  1  0
 13 14  1  6
 13 15  1  0
 15 16  1  0
 16 17  1  0
 17 18  2  0
 18 19  1  0
 19 20  1  0
 20 21  1  0
 21 22  1  0
 22 23  1  0
 22 24  1  0
 24 25  1  0
 24 26  1  0
 19 27  1  0
 27 28  1  1
 27 29  1  0
 29 30  1  0
 30 31  1  0
 31 32  1  1
  7  5  1  0
 31 10  1  0
 31 13  1  0
 27 15  1  0
 24 18  1  0
  1 33  1  0
  1 34  1  0
  1 35  1  0
  2 36  1  6
  3 37  1  0
  3 38  1  0
  4 39  1  0
  4 40  1  0
  5 41  1  1
  8 42  1  0
  8 43  1  0
  8 44  1  0
  9 45  1  0
  9 46  1  0
  9 47  1  0
 10 48  1  6
 11 49  1  0
 11 50  1  0
 12 51  1  0
 12 52  1  0
 14 53  1  0
 14 54  1  0
 14 55  1  0
 15 56  1  1
 16 57  1  0
 16 58  1  0
 17 59  1  0
 19 60  1  6
 20 61  1  0
 20 62  1  0
 21 63  1  0
 21 64  1  0
 22 65  1  6
 23 66  1  0
 25 67  1  0
 25 68  1  0
 25 69  1  0
 26 70  1  0
 26 71  1  0
 26 72  1  0
 28 73  1  0
 28 74  1  0
 28 75  1  0
 29 76  1  0
 29 77  1  0
 30 78  1  0
 30 79  1  0
 32 80  1  0
 32 81  1  0
 32 82  1  0
M  END
>  <meeko>  (3) 
{"is_sidechain": [false], "intermolecular_energy": 2.731, "internal_energy": -0.839}

$$$$
EPH_relaxed_0001_pdb2pqr_Repair_337_r2_0001_out
     RDKit          3D

 82 86  0  0  0  0  0  0  0  0999 V2000
    0.1980   16.0540   -8.1440 C   0  0  0  0  0  0  0  0  0  0  0  0
    1.4450   16.1160   -7.2580 C   0  0  2  0  0  0  0  0  0  0  0  0
    2.5700   15.1970   -7.7740 C   0  0  0  0  0  0  0  0  0  0  0  0
    2.2530   14.5300   -9.1150 C   0  0  0  0  0  0  0  0  0  0  0  0
    2.7780   15.3290  -10.2690 C   0  0  2  0  0  0  0  0  0  0  0  0
    1.9080   16.3760  -10.7180 O   0  0  0  0  0  0  0  0  0  0  0  0
    2.1530   15.3120  -11.6520 C   0  0  0  0  0  0  0  0  0  0  0  0
    0.9480   14.4770  -11.9530 C   0  0  0  0  0  0  0  0  0  0  0  0
    2.9930   15.7190  -12.8220 C   0  0  0  0  0  0  0  0  0  0  0  0
    1.0840   15.7440   -5.8250 C   0  0  1  0  0  0  0  0  0  0  0  0
   -0.2630   16.3650   -5.3680 C   0  0  0  0  0  0  0  0  0  0  0  0
   -0.9330   15.3330   -4.4240 C   0  0  0  0  0  0  0  0  0  0  0  0
    0.1830   14.3110   -4.1070 C   0  0  1  0  0  0  0  0  0  0  0  0
    1.0310   14.9800   -2.9800 C   0  0  0  0  0  0  0  0  0  0  0  0
   -0.2880   12.8760   -3.7020 C   0  0  2  0  0  0  0  0  0  0  0  0
   -1.1200   12.8040   -2.4090 C   0  0  0  0  0  0  0  0  0  0  0  0
   -0.3350   12.5960   -1.1570 C   0  0  0  0  0  0  0  0  0  0  0  0
    0.9460   12.1890   -1.0950 C   0  0  0  0  0  0  0  0  0  0  0  0
    1.7110   11.7980   -2.3660 C   0  0  1  0  0  0  0  0  0  0  0  0
    2.4630   10.4620   -2.1280 C   0  0  0  0  0  0  0  0  0  0  0  0
    3.3630   10.5090   -0.8970 C   0  0  0  0  0  0  0  0  0  0  0  0
    2.5570   10.8430    0.3550 C   0  0  2  0  0  0  0  0  0  0  0  0
    1.6660    9.7590    0.6330 O   0  0  0  0  0  0  0  0  0  0  0  0
    1.7490   12.1650    0.2300 C   0  0  0  0  0  0  0  0  0  0  0  0
    2.7200   13.3710    0.2310 C   0  0  0  0  0  0  0  0  0  0  0  0
    0.8720   12.3110    1.5030 C   0  0  0  0  0  0  0  0  0  0  0  0
    0.8630   11.7900   -3.7100 C   0  0  1  0  0  0  0  0  0  0  0  0
    0.1670   10.4060   -3.8920 C   0  0  0  0  0  0  0  0  0  0  0  0
    1.8380   11.9600   -4.9340 C   0  0  0  0  0  0  0  0  0  0  0  0
    2.1710   13.4020   -5.3620 C   0  0  0  0  0  0  0  0  0  0  0  0
    0.8960   14.2390   -5.5070 C   0  0  2  0  0  0  0  0  0  0  0  0
    0.0330   13.6040   -6.6500 C   0  0  0  0  0  0  0  0  0  0  0  0
   -0.7001   16.0093   -7.5104 H   0  0  0  0  0  0  0  0  0  0  0  0
    0.1545   16.9511   -8.7791 H   0  0  0  0  0  0  0  0  0  0  0  0
    0.2437   15.1570   -8.7791 H   0  0  0  0  0  0  0  0  0  0  0  0
    1.8222   17.1488   -7.2896 H   0  0  0  0  0  0  0  0  0  0  0  0
    3.4831   15.7988   -7.8927 H   0  0  0  0  0  0  0  0  0  0  0  0
    2.6915   14.3914   -7.0349 H   0  0  0  0  0  0  0  0  0  0  0  0
    2.7135   13.5312   -9.1341 H   0  0  0  0  0  0  0  0  0  0  0  0
    1.1596   14.4618   -9.2142 H   0  0  0  0  0  0  0  0  0  0  0  0
    3.8134   15.1883   -9.9253 H   0  0  0  0  0  0  0  0  0  0  0  0
    0.4813   14.1536  -11.0108 H   0  0  0  0  0  0  0  0  0  0  0  0
    0.2269   15.0701  -12.5347 H   0  0  0  0  0  0  0  0  0  0  0  0
    1.2500   13.5936  -12.5347 H   0  0  0  0  0  0  0  0  0  0  0  0
    3.9284   16.1722  -12.4619 H   0  0  0  0  0  0  0  0  0  0  0  0
    3.2256   14.8337  -13.4320 H   0  0  0  0  0  0  0  0  0  0  0  0
    2.4424   16.4502  -13.4320 H   0  0  0  0  0  0  0  0  0  0  0  0
    1.9727   16.1302   -5.3044 H   0  0  0  0  0  0  0  0  0  0  0  0
   -0.0828   17.3082   -4.8315 H   0  0  0  0  0  0  0  0  0  0  0  0
   -0.9080   16.5888   -6.2305 H   0  0  0  0  0  0  0  0  0  0  0  0
   -1.2856   15.8208   -3.5033 H   0  0  0  0  0  0  0  0  0  0  0  0
   -1.8139   14.8595   -4.8821 H   0  0  0  0  0  0  0  0  0  0  0  0
    0.6423   14.6734   -1.9977 H   0  0  0  0  0  0  0  0  0  0  0  0
    2.0804   14.6639   -3.0741 H   0  0  0  0  0  0  0  0  0  0  0  0
    0.9678   16.0741   -3.0741 H   0  0  0  0  0  0  0  0  0  0  0  0
   -0.9787   12.6146   -4.5172 H   0  0  0  0  0  0  0  0  0  0  0  0
   -1.6754   13.7482   -2.3091 H   0  0  0  0  0  0  0  0  0  0  0  0
   -1.7677   11.9209   -2.5125 H   0  0  0  0  0  0  0  0  0  0  0  0
   -0.8473   12.7921   -0.2035 H   0  0  0  0  0  0  0  0  0  0  0  0
    2.4350   12.6063   -2.5461 H   0  0  0  0  0  0  0  0  0  0  0  0
    1.7226    9.6597   -1.9932 H   0  0  0  0  0  0  0  0  0  0  0  0
    3.1035   10.2786   -3.0033 H   0  0  0  0  0  0  0  0  0  0  0  0
    3.8437    9.5285   -0.7648 H   0  0  0  0  0  0  0  0  0  0  0  0
    4.1212   11.2919   -1.0459 H   0  0  0  0  0  0  0  0  0  0  0  0
    3.2724   10.9899    1.1775 H   0  0  0  0  0  0  0  0  0  0  0  0
    1.7970    9.5010    1.5610 H   0  0  0  0  0  0  0  0  0  0  0  0
    2.9495   13.6561    1.2683 H   0  0  0  0  0  0  0  0  0  0  0  0
    3.6497   13.0936   -0.2873 H   0  0  0  0  0  0  0  0  0  0  0  0
    2.2506   14.2201   -0.2873 H   0  0  0  0  0  0  0  0  0  0  0  0
    1.5036   12.2059    2.3974 H   0  0  0  0  0  0  0  0  0  0  0  0
    0.3930   13.3012    1.5067 H   0  0  0  0  0  0  0  0  0  0  0  0
    0.0981   11.5293    1.5067 H   0  0  0  0  0  0  0  0  0  0  0  0
   -0.0510    9.9726   -2.9048 H   0  0  0  0  0  0  0  0  0  0  0  0
   -0.7718   10.5382   -4.4498 H   0  0  0  0  0  0  0  0  0  0  0  0
    0.8330    9.7312   -4.4498 H   0  0  0  0  0  0  0  0  0  0  0  0
    2.7846   11.4622   -4.6770 H   0  0  0  0  0  0  0  0  0  0  0  0
    1.3042   11.5217   -5.7901 H   0  0  0  0  0  0  0  0  0  0  0  0
    2.8192   13.8624   -4.6019 H   0  0  0  0  0  0  0  0  0  0  0  0
    2.6822   13.3698   -6.3355 H   0  0  0  0  0  0  0  0  0  0  0  0
   -0.7784   13.0070   -6.2082 H   0  0  0  0  0  0  0  0  0  0  0  0
   -0.3966   14.4030   -7.2721 H   0  0  0  0  0  0  0  0  0  0  0  0
    0.6680   12.9562   -7.2721 H   0  0  0  0  0  0  0  0  0  0  0  0
  1  2  1  0
  2  3  1  0
  3  4  1  0
  4  5  1  0
  5  6  1  0
  6  7  1  0
  7  8  1  0
  7  9  1  0
  2 10  1  0
 10 11  1  0
 11 12  1  0
 12 13  1  0
 13 14  1  1
 13 15  1  0
 15 16  1  0
 16 17  1  0
 17 18  2  0
 18 19  1  0
 19 20  1  0
 20 21  1  0
 21 22  1  0
 22 23  1  0
 22 24  1  0
 24 25  1  0
 24 26  1  0
 19 27  1  0
 27 28  1  6
 27 29  1  0
 29 30  1  0
 30 31  1  0
 31 32  1  6
  7  5  1  0
 31 10  1  0
 31 13  1  0
 27 15  1  0
 24 18  1  0
  1 33  1  0
  1 34  1  0
  1 35  1  0
  2 36  1  1
  3 37  1  0
  3 38  1  0
  4 39  1  0
  4 40  1  0
  5 41  1  6
  8 42  1  0
  8 43  1  0
  8 44  1  0
  9 45  1  0
  9 46  1  0
  9 47  1  0
 10 48  1  1
 11 49  1  0
 11 50  1  0
 12 51  1  0
 12 52  1  0
 14 53  1  0
 14 54  1  0
 14 55  1  0
 15 56  1  6
 16 57  1  0
 16 58  1  0
 17 59  1  0
 19 60  1  6
 20 61  1  0
 20 62  1  0
 21 63  1  0
 21 64  1  0
 22 65  1  1
 23 66  1  0
 25 67  1  0
 25 68  1  0
 25 69  1  0
 26 70  1  0
 26 71  1  0
 26 72  1  0
 28 73  1  0
 28 74  1  0
 28 75  1  0
 29 76  1  0
 29 77  1  0
 30 78  1  0
 30 79  1  0
 32 80  1  0
 32 81  1  0
 32 82  1  0
M  END
>  <meeko>  (4) 
{"is_sidechain": [false], "intermolecular_energy": 2.731, "internal_energy": -0.839}

$$$$
EPH_relaxed_0001_pdb2pqr_Repair_337_r2_0001_out
     RDKit          3D

 82 86  0  0  0  0  0  0  0  0999 V2000
   -2.0370    7.8710   -2.3270 C   0  0  0  0  0  0  0  0  0  0  0  0
   -1.8910    8.5530   -0.9640 C   0  0  2  0  0  0  0  0  0  0  0  0
   -3.1640    8.4170   -0.1070 C   0  0  0  0  0  0  0  0  0  0  0  0
   -4.4620    8.6010   -0.8980 C   0  0  0  0  0  0  0  0  0  0  0  0
   -5.2880    7.3510   -0.9080 C   0  0  2  0  0  0  0  0  0  0  0  0
   -5.3930    6.7140   -2.1880 O   0  0  0  0  0  0  0  0  0  0  0  0
   -6.6140    7.2300   -1.6350 C   0  0  0  0  0  0  0  0  0  0  0  0
   -7.1910    8.3790   -2.4020 C   0  0  0  0  0  0  0  0  0  0  0  0
   -7.5750    6.1690   -1.1990 C   0  0  0  0  0  0  0  0  0  0  0  0
   -1.5470   10.0260   -1.1550 C   0  0  1  0  0  0  0  0  0  0  0  0
   -1.3040   10.7620    0.1900 C   0  0  0  0  0  0  0  0  0  0  0  0
   -0.1930   11.8120   -0.0690 C   0  0  0  0  0  0  0  0  0  0  0  0
   -0.0690   11.8770   -1.6100 C   0  0  1  0  0  0  0  0  0  0  0  0
   -1.2340   12.8110   -2.0670 C   0  0  0  0  0  0  0  0  0  0  0  0
    1.3080   12.3550   -2.1730 C   0  0  2  0  0  0  0  0  0  0  0  0
    1.7060   13.7920   -1.7910 C   0  0  0  0  0  0  0  0  0  0  0  0
    1.2650   14.8510   -2.7470 C   0  0  0  0  0  0  0  0  0  0  0  0
    0.8300   14.6390   -4.0030 C   0  0  0  0  0  0  0  0  0  0  0  0
    0.8400   13.2310   -4.6130 C   0  0  1  0  0  0  0  0  0  0  0  0
    1.4380   13.2920   -6.0430 C   0  0  0  0  0  0  0  0  0  0  0  0
    0.7280   14.3080   -6.9320 C   0  0  0  0  0  0  0  0  0  0  0  0
    0.7900   15.7050   -6.3200 C   0  0  2  0  0  0  0  0  0  0  0  0
    2.1500   16.1500   -6.3230 O   0  0  0  0  0  0  0  0  0  0  0  0
    0.2230   15.7660   -4.8740 C   0  0  0  0  0  0  0  0  0  0  0  0
   -1.3140   15.5790   -4.9090 C   0  0  0  0  0  0  0  0  0  0  0  0
    0.4730   17.1960   -4.3230 C   0  0  0  0  0  0  0  0  0  0  0  0
    1.5020   12.0940   -3.7210 C   0  0  1  0  0  0  0  0  0  0  0  0
    3.0400   12.0460   -3.9760 C   0  0  0  0  0  0  0  0  0  0  0  0
    0.9340   10.6950   -4.1680 C   0  0  0  0  0  0  0  0  0  0  0  0
   -0.3660   10.2240   -3.4880 C   0  0  0  0  0  0  0  0  0  0  0  0
   -0.2690   10.3590   -1.9660 C   0  0  2  0  0  0  0  0  0  0  0  0
    0.8800    9.4140   -1.4750 C   0  0  0  0  0  0  0  0  0  0  0  0
   -2.2652    6.8049   -2.1810 H   0  0  0  0  0  0  0  0  0  0  0  0
   -2.8536    8.3471   -2.8896 H   0  0  0  0  0  0  0  0  0  0  0  0
   -1.0971    7.9711   -2.8896 H   0  0  0  0  0  0  0  0  0  0  0  0
   -1.0759    8.0466   -0.4262 H   0  0  0  0  0  0  0  0  0  0  0  0
   -3.1724    7.4144    0.3455 H   0  0  0  0  0  0  0  0  0  0  0  0
   -3.1309    9.2177    0.6465 H   0  0  0  0  0  0  0  0  0  0  0  0
   -5.0473    9.4112   -0.4387 H   0  0  0  0  0  0  0  0  0  0  0  0
   -4.1979    8.8452   -1.9375 H   0  0  0  0  0  0  0  0  0  0  0  0
   -4.9886    7.1165    0.1242 H   0  0  0  0  0  0  0  0  0  0  0  0
   -7.5707    9.1352   -1.6992 H   0  0  0  0  0  0  0  0  0  0  0  0
   -6.4105    8.8261   -3.0352 H   0  0  0  0  0  0  0  0  0  0  0  0
   -8.0157    8.0199   -3.0352 H   0  0  0  0  0  0  0  0  0  0  0  0
   -7.6076    6.1330   -0.1001 H   0  0  0  0  0  0  0  0  0  0  0  0
   -8.5776    6.4000   -1.5882 H   0  0  0  0  0  0  0  0  0  0  0  0
   -7.2462    5.1941   -1.5882 H   0  0  0  0  0  0  0  0  0  0  0  0
   -2.4395   10.3534   -1.7084 H   0  0  0  0  0  0  0  0  0  0  0  0
   -2.2269   11.2608    0.5210 H   0  0  0  0  0  0  0  0  0  0  0  0
   -1.0039   10.0557    0.9781 H   0  0  0  0  0  0  0  0  0  0  0  0
   -0.4820   12.7918    0.3390 H   0  0  0  0  0  0  0  0  0  0  0  0
    0.7572   11.5420    0.4149 H   0  0  0  0  0  0  0  0  0  0  0  0
   -1.7444   13.2202   -1.1826 H   0  0  0  0  0  0  0  0  0  0  0  0
   -0.8274   13.6361   -2.6702 H   0  0  0  0  0  0  0  0  0  0  0  0
   -1.9510   12.2346   -2.6702 H   0  0  0  0  0  0  0  0  0  0  0  0
    2.0174   11.6986   -1.6478 H   0  0  0  0  0  0  0  0  0  0  0  0
    1.2662   14.0167   -0.8081 H   0  0  0  0  0  0  0  0  0  0  0  0
    2.8057   13.8152   -1.7969 H   0  0  0  0  0  0  0  0  0  0  0  0
    1.2985   15.8926   -2.3949 H   0  0  0  0  0  0  0  0  0  0  0  0
   -0.2115   12.9116   -4.6617 H   0  0  0  0  0  0  0  0  0  0  0  0
    2.4999   13.5693   -5.9694 H   0  0  0  0  0  0  0  0  0  0  0  0
    1.3089   12.3003   -6.5011 H   0  0  0  0  0  0  0  0  0  0  0  0
    1.2142   14.3252   -7.9186 H   0  0  0  0  0  0  0  0  0  0  0  0
   -0.3274   14.0133   -7.0287 H   0  0  0  0  0  0  0  0  0  0  0  0
    0.1560   16.3622   -6.9333 H   0  0  0  0  0  0  0  0  0  0  0  0
    2.4780   16.0980   -5.4090 H   0  0  0  0  0  0  0  0  0  0  0  0
   -1.7012   15.5319   -3.8805 H   0  0  0  0  0  0  0  0  0  0  0  0
   -1.7747   16.4277   -5.4357 H   0  0  0  0  0  0  0  0  0  0  0  0
   -1.5578   14.6446   -5.4357 H   0  0  0  0  0  0  0  0  0  0  0  0
    0.4687   17.1712   -3.2233 H   0  0  0  0  0  0  0  0  0  0  0  0
    1.4485   17.5603   -4.6777 H   0  0  0  0  0  0  0  0  0  0  0  0
   -0.3210   17.8696   -4.6777 H   0  0  0  0  0  0  0  0  0  0  0  0
    3.5710   12.0294   -3.0128 H   0  0  0  0  0  0  0  0  0  0  0  0
    3.2888   11.1397   -4.5475 H   0  0  0  0  0  0  0  0  0  0  0  0
    3.3448   12.9351   -4.5475 H   0  0  0  0  0  0  0  0  0  0  0  0
    0.7449   10.7430   -5.2506 H   0  0  0  0  0  0  0  0  0  0  0  0
    1.6983    9.9639   -3.8658 H   0  0  0  0  0  0  0  0  0  0  0  0
   -1.2042   10.8369   -3.8508 H   0  0  0  0  0  0  0  0  0  0  0  0
   -0.5275    9.1646   -3.7363 H   0  0  0  0  0  0  0  0  0  0  0  0
    0.8979    9.3993   -0.3752 H   0  0  0  0  0  0  0  0  0  0  0  0
    0.7039    8.3959   -1.8525 H   0  0  0  0  0  0  0  0  0  0  0  0
    1.8450    9.7833   -1.8525 H   0  0  0  0  0  0  0  0  0  0  0  0
  1  2  1  0
  2  3  1  0
  3  4  1  0
  4  5  1  0
  5  6  1  0
  6  7  1  0
  7  8  1  0
  7  9  1  0
  2 10  1  0
 10 11  1  0
 11 12  1  0
 12 13  1  0
 13 14  1  6
 13 15  1  0
 15 16  1  0
 16 17  1  0
 17 18  2  0
 18 19  1  0
 19 20  1  0
 20 21  1  0
 21 22  1  0
 22 23  1  0
 22 24  1  0
 24 25  1  0
 24 26  1  0
 19 27  1  0
 27 28  1  1
 27 29  1  0
 29 30  1  0
 30 31  1  0
 31 32  1  1
  7  5  1  0
 31 10  1  0
 31 13  1  0
 27 15  1  0
 24 18  1  0
  1 33  1  0
  1 34  1  0
  1 35  1  0
  2 36  1  1
  3 37  1  0
  3 38  1  0
  4 39  1  0
  4 40  1  0
  5 41  1  1
  8 42  1  0
  8 43  1  0
  8 44  1  0
  9 45  1  0
  9 46  1  0
  9 47  1  0
 10 48  1  6
 11 49  1  0
 11 50  1  0
 12 51  1  0
 12 52  1  0
 14 53  1  0
 14 54  1  0
 14 55  1  0
 15 56  1  1
 16 57  1  0
 16 58  1  0
 17 59  1  0
 19 60  1  6
 20 61  1  0
 20 62  1  0
 21 63  1  0
 21 64  1  0
 22 65  1  6
 23 66  1  0
 25 67  1  0
 25 68  1  0
 25 69  1  0
 26 70  1  0
 26 71  1  0
 26 72  1  0
 28 73  1  0
 28 74  1  0
 28 75  1  0
 29 76  1  0
 29 77  1  0
 30 78  1  0
 30 79  1  0
 32 80  1  0
 32 81  1  0
 32 82  1  0
M  END
>  <meeko>  (5) 
{"is_sidechain": [false], "intermolecular_energy": 2.731, "internal_energy": -0.839}

$$$$
EPH_relaxed_0001_pdb2pqr_Repair_337_r2_0001_out
     RDKit          3D

 82 86  0  0  0  0  0  0  0  0999 V2000
    0.1940   14.9340   -7.1640 C   0  0  0  0  0  0  0  0  0  0  0  0
    1.6240   14.6240   -6.7140 C   0  0  2  0  0  0  0  0  0  0  0  0
    2.5730   14.3980   -7.9090 C   0  0  0  0  0  0  0  0  0  0  0  0
    2.8270   15.6600   -8.7390 C   0  0  0  0  0  0  0  0  0  0  0  0
    2.7020   15.3910  -10.2080 C   0  0  2  0  0  0  0  0  0  0  0  0
    2.1660   16.4800  -10.9720 O   0  0  0  0  0  0  0  0  0  0  0  0
    1.3710   15.2840  -10.9280 C   0  0  0  0  0  0  0  0  0  0  0  0
    0.0740   15.4430  -10.1980 C   0  0  0  0  0  0  0  0  0  0  0  0
    1.3190   14.5470  -12.2300 C   0  0  0  0  0  0  0  0  0  0  0  0
    1.6290   13.3990   -5.8070 C   0  0  1  0  0  0  0  0  0  0  0  0
    3.0430   12.7800   -5.6470 C   0  0  0  0  0  0  0  0  0  0  0  0
    3.1340   12.2390   -4.1970 C   0  0  0  0  0  0  0  0  0  0  0  0
    1.6760   12.2630   -3.6800 C   0  0  1  0  0  0  0  0  0  0  0  0
    1.0250   10.9670   -4.2570 C   0  0  0  0  0  0  0  0  0  0  0  0
    1.4940   12.3610   -2.1300 C   0  0  2  0  0  0  0  0  0  0  0  0
    2.0630   11.1760   -1.3310 C   0  0  0  0  0  0  0  0  0  0  0  0
    1.1100   10.0520   -1.0900 C   0  0  0  0  0  0  0  0  0  0  0  0
   -0.2250   10.1120   -1.2480 C   0  0  0  0  0  0  0  0  0  0  0  0
   -0.9170   11.4310   -1.6150 C   0  0  1  0  0  0  0  0  0  0  0  0
   -2.1550   11.6380   -0.7040 C   0  0  0  0  0  0  0  0  0  0  0  0
   -3.1110   10.4490   -0.7370 C   0  0  0  0  0  0  0  0  0  0  0  0
   -2.4010    9.1670   -0.3090 C   0  0  2  0  0  0  0  0  0  0  0  0
   -2.0480    9.2750    1.0730 O   0  0  0  0  0  0  0  0  0  0  0  0
   -1.1310    8.8590   -1.1510 C   0  0  0  0  0  0  0  0  0  0  0  0
   -1.5450    8.4460   -2.5850 C   0  0  0  0  0  0  0  0  0  0  0  0
   -0.4330    7.6210   -0.5270 C   0  0  0  0  0  0  0  0  0  0  0  0
    0.0210   12.7130   -1.6720 C   0  0  1  0  0  0  0  0  0  0  0  0
    0.1360   13.3500   -0.2540 C   0  0  0  0  0  0  0  0  0  0  0  0
   -0.6490   13.7990   -2.5940 C   0  0  0  0  0  0  0  0  0  0  0  0
   -0.3350   13.7220   -4.1000 C   0  0  0  0  0  0  0  0  0  0  0  0
    1.1730   13.5980   -4.3400 C   0  0  2  0  0  0  0  0  0  0  0  0
    1.8520   14.8980   -3.7900 C   0  0  0  0  0  0  0  0  0  0  0  0
   -0.4464   15.0728   -6.2805 H   0  0  0  0  0  0  0  0  0  0  0  0
    0.1907   15.8537   -7.7674 H   0  0  0  0  0  0  0  0  0  0  0  0
   -0.1898   14.0982   -7.7674 H   0  0  0  0  0  0  0  0  0  0  0  0
    1.9935   15.4993   -6.1596 H   0  0  0  0  0  0  0  0  0  0  0  0
    3.5374   14.0358   -7.5233 H   0  0  0  0  0  0  0  0  0  0  0  0
    2.0866   13.6683   -8.5730 H   0  0  0  0  0  0  0  0  0  0  0  0
    2.0934   16.4283   -8.4535 H   0  0  0  0  0  0  0  0  0  0  0  0
    3.8533   16.0016   -8.5388 H   0  0  0  0  0  0  0  0  0  0  0  0
    3.5846   14.7347  -10.1875 H   0  0  0  0  0  0  0  0  0  0  0  0
    0.2583   15.4204   -9.1138 H   0  0  0  0  0  0  0  0  0  0  0  0
   -0.3855   16.4042  -10.4719 H   0  0  0  0  0  0  0  0  0  0  0  0
   -0.6040   14.6213  -10.4719 H   0  0  0  0  0  0  0  0  0  0  0  0
    1.2428   13.4667  -12.0371 H   0  0  0  0  0  0  0  0  0  0  0  0
    0.4421   14.8796  -12.8048 H   0  0  0  0  0  0  0  0  0  0  0  0
    2.2339   14.7531  -12.8048 H   0  0  0  0  0  0  0  0  0  0  0  0
    0.9046   12.7693   -6.3443 H   0  0  0  0  0  0  0  0  0  0  0  0
    3.1808   11.9595   -6.3666 H   0  0  0  0  0  0  0  0  0  0  0  0
    3.8256   13.5289   -5.8386 H   0  0  0  0  0  0  0  0  0  0  0  0
    3.5321   11.2136   -4.1893 H   0  0  0  0  0  0  0  0  0  0  0  0
    3.8094   12.8389   -3.5693 H   0  0  0  0  0  0  0  0  0  0  0  0
    0.7000   10.3200   -3.4289 H   0  0  0  0  0  0  0  0  0  0  0  0
    0.1555   11.2370   -4.8744 H   0  0  0  0  0  0  0  0  0  0  0  0
    1.7607   10.4307   -4.8744 H   0  0  0  0  0  0  0  0  0  0  0  0
    2.1235   13.2253   -1.8718 H   0  0  0  0  0  0  0  0  0  0  0  0
    2.9263   10.7769   -1.8836 H   0  0  0  0  0  0  0  0  0  0  0  0
    2.3206   11.5743   -0.3385 H   0  0  0  0  0  0  0  0  0  0  0  0
    1.5350    9.0943   -0.7551 H   0  0  0  0  0  0  0  0  0  0  0  0
   -1.2386   11.3249   -2.6616 H   0  0  0  0  0  0  0  0  0  0  0  0
   -1.8110   11.7853    0.3304 H   0  0  0  0  0  0  0  0  0  0  0  0
   -2.7015   12.5164   -1.0778 H   0  0  0  0  0  0  0  0  0  0  0  0
   -3.9497   10.6421   -0.0519 H   0  0  0  0  0  0  0  0  0  0  0  0
   -3.4773   10.3210   -1.7663 H   0  0  0  0  0  0  0  0  0  0  0  0
   -3.0977    8.3325   -0.4768 H   0  0  0  0  0  0  0  0  0  0  0  0
   -1.0810    9.1880    1.1380 H   0  0  0  0  0  0  0  0  0  0  0  0
   -2.3229    7.6700   -2.5329 H   0  0  0  0  0  0  0  0  0  0  0  0
   -1.9374    9.3232   -3.1203 H   0  0  0  0  0  0  0  0  0  0  0  0
   -0.6688    8.0515   -3.1203 H   0  0  0  0  0  0  0  0  0  0  0  0
   -0.4729    7.6917    0.5700 H   0  0  0  0  0  0  0  0  0  0  0  0
   -0.9481    6.7059   -0.8544 H   0  0  0  0  0  0  0  0  0  0  0  0
    0.6166    7.5881   -0.8544 H   0  0  0  0  0  0  0  0  0  0  0  0
   -0.0046   12.5714    0.5102 H   0  0  0  0  0  0  0  0  0  0  0  0
    1.1307   13.8045   -0.1358 H   0  0  0  0  0  0  0  0  0  0  0  0
   -0.6370   14.1236   -0.1358 H   0  0  0  0  0  0  0  0  0  0  0  0
   -1.7390   13.7086   -2.4764 H   0  0  0  0  0  0  0  0  0  0  0  0
   -0.2270   14.7587   -2.2611 H   0  0  0  0  0  0  0  0  0  0  0  0
   -0.8410   12.8444   -4.5287 H   0  0  0  0  0  0  0  0  0  0  0  0
   -0.6919   14.6450   -4.5804 H   0  0  0  0  0  0  0  0  0  0  0  0
    1.8424   14.8795   -2.6902 H   0  0  0  0  0  0  0  0  0  0  0  0
    2.8913   14.9479   -4.1468 H   0  0  0  0  0  0  0  0  0  0  0  0
    1.2991   15.7795   -4.1468 H   0  0  0  0  0  0  0  0  0  0  0  0
  1  2  1  0
  2  3  1  0
  3  4  1  0
  4  5  1  0
  5  6  1  0
  6  7  1  0
  7  8  1  0
  7  9  1  0
  2 10  1  0
 10 11  1  0
 11 12  1  0
 12 13  1  0
 13 14  1  6
 13 15  1  0
 15 16  1  0
 16 17  1  0
 17 18  2  0
 18 19  1  0
 19 20  1  0
 20 21  1  0
 21 22  1  0
 22 23  1  0
 22 24  1  0
 24 25  1  0
 24 26  1  0
 19 27  1  0
 27 28  1  1
 27 29  1  0
 29 30  1  0
 30 31  1  0
 31 32  1  1
  7  5  1  0
 31 10  1  0
 31 13  1  0
 27 15  1  0
 24 18  1  0
  1 33  1  0
  1 34  1  0
  1 35  1  0
  2 36  1  1
  3 37  1  0
  3 38  1  0
  4 39  1  0
  4 40  1  0
  5 41  1  6
  8 42  1  0
  8 43  1  0
  8 44  1  0
  9 45  1  0
  9 46  1  0
  9 47  1  0
 10 48  1  6
 11 49  1  0
 11 50  1  0
 12 51  1  0
 12 52  1  0
 14 53  1  0
 14 54  1  0
 14 55  1  0
 15 56  1  1
 16 57  1  0
 16 58  1  0
 17 59  1  0
 19 60  1  6
 20 61  1  0
 20 62  1  0
 21 63  1  0
 21 64  1  0
 22 65  1  1
 23 66  1  0
 25 67  1  0
 25 68  1  0
 25 69  1  0
 26 70  1  0
 26 71  1  0
 26 72  1  0
 28 73  1  0
 28 74  1  0
 28 75  1  0
 29 76  1  0
 29 77  1  0
 30 78  1  0
 30 79  1  0
 32 80  1  0
 32 81  1  0
 32 82  1  0
M  END
>  <meeko>  (6) 
{"is_sidechain": [false], "intermolecular_energy": 2.731, "internal_energy": -0.839}

$$$$
EPH_relaxed_0001_pdb2pqr_Repair_337_r2_0001_out
     RDKit          3D

 82 86  0  0  0  0  0  0  0  0999 V2000
    0.8510   14.7600   -2.5970 C   0  0  0  0  0  0  0  0  0  0  0  0
    1.1400   14.0830   -3.9390 C   0  0  2  0  0  0  0  0  0  0  0  0
    0.4710   14.8200   -5.1170 C   0  0  0  0  0  0  0  0  0  0  0  0
    1.1890   14.6210   -6.4550 C   0  0  0  0  0  0  0  0  0  0  0  0
    0.9160   15.7480   -7.4040 C   0  0  2  0  0  0  0  0  0  0  0  0
    0.3470   15.3510   -8.6580 O   0  0  0  0  0  0  0  0  0  0  0  0
    1.6570   15.9380   -8.7140 C   0  0  0  0  0  0  0  0  0  0  0  0
    2.7310   14.9890   -9.1470 C   0  0  0  0  0  0  0  0  0  0  0  0
    1.6820   17.3010   -9.3320 C   0  0  0  0  0  0  0  0  0  0  0  0
    0.6740   12.6320   -3.9000 C   0  0  1  0  0  0  0  0  0  0  0  0
    1.8020   11.6330   -4.2720 C   0  0  0  0  0  0  0  0  0  0  0  0
    1.5780   10.3650   -3.4080 C   0  0  0  0  0  0  0  0  0  0  0  0
    0.1580   10.5380   -2.8220 C   0  0  1  0  0  0  0  0  0  0  0  0
   -0.8060   10.0850   -3.9630 C   0  0  0  0  0  0  0  0  0  0  0  0
   -0.1350    9.7820   -1.4850 C   0  0  2  0  0  0  0  0  0  0  0  0
   -0.0440    8.2480   -1.5690 C   0  0  0  0  0  0  0  0  0  0  0  0
   -1.3180    7.5520   -1.9150 C   0  0  0  0  0  0  0  0  0  0  0  0
   -2.5470    8.1010   -1.8700 C   0  0  0  0  0  0  0  0  0  0  0  0
   -2.7530    9.5270   -1.3440 C   0  0  1  0  0  0  0  0  0  0  0  0
   -3.9470    9.5460   -0.3540 C   0  0  0  0  0  0  0  0  0  0  0  0
   -5.2180    8.9580   -0.9590 C   0  0  0  0  0  0  0  0  0  0  0  0
   -4.9890    7.5190   -1.4170 C   0  0  2  0  0  0  0  0  0  0  0  0
   -4.7560    6.7010   -0.2670 O   0  0  0  0  0  0  0  0  0  0  0  0
   -3.8030    7.3750   -2.4110 C   0  0  0  0  0  0  0  0  0  0  0  0
   -4.1830    8.0090   -3.7710 C   0  0  0  0  0  0  0  0  0  0  0  0
   -3.5900    5.8610   -2.6830 C   0  0  0  0  0  0  0  0  0  0  0  0
   -1.4620   10.2430   -0.7560 C   0  0  1  0  0  0  0  0  0  0  0  0
   -1.2920    9.8800    0.7510 C   0  0  0  0  0  0  0  0  0  0  0  0
   -1.6670   11.8030   -0.8170 C   0  0  0  0  0  0  0  0  0  0  0  0
   -1.2470   12.5090   -2.1200 C   0  0  0  0  0  0  0  0  0  0  0  0
    0.1620   12.0860   -2.5440 C   0  0  2  0  0  0  0  0  0  0  0  0
    1.1570   12.5480   -1.4250 C   0  0  0  0  0  0  0  0  0  0  0  0
    1.1388   14.0859   -1.7768 H   0  0  0  0  0  0  0  0  0  0  0  0
    1.4293   15.6929   -2.5249 H   0  0  0  0  0  0  0  0  0  0  0  0
   -0.2228   14.9877   -2.5249 H   0  0  0  0  0  0  0  0  0  0  0  0
    2.2273   14.1200   -4.1012 H   0  0  0  0  0  0  0  0  0  0  0  0
   -0.5600   14.4500   -5.2177 H   0  0  0  0  0  0  0  0  0  0  0  0
    0.5104   15.8951   -4.8877 H   0  0  0  0  0  0  0  0  0  0  0  0
    2.2723   14.5628   -6.2730 H   0  0  0  0  0  0  0  0  0  0  0  0
    0.8150   13.6918   -6.9097 H   0  0  0  0  0  0  0  0  0  0  0  0
    0.7090   16.4319   -6.5677 H   0  0  0  0  0  0  0  0  0  0  0  0
    3.2188   14.5580   -8.2603 H   0  0  0  0  0  0  0  0  0  0  0  0
    2.2869   14.1828   -9.7494 H   0  0  0  0  0  0  0  0  0  0  0  0
    3.4764   15.5289   -9.7494 H   0  0  0  0  0  0  0  0  0  0  0  0
    1.6960   18.0630   -8.5388 H   0  0  0  0  0  0  0  0  0  0  0  0
    2.5822   17.4044   -9.9557 H   0  0  0  0  0  0  0  0  0  0  0  0
    0.7862   17.4373   -9.9557 H   0  0  0  0  0  0  0  0  0  0  0  0
   -0.1552   12.6845   -4.6209 H   0  0  0  0  0  0  0  0  0  0  0  0
    1.7455   11.3783   -5.3406 H   0  0  0  0  0  0  0  0  0  0  0  0
    2.7942   12.0692   -4.0842 H   0  0  0  0  0  0  0  0  0  0  0  0
    1.6345    9.4579   -4.0277 H   0  0  0  0  0  0  0  0  0  0  0  0
    2.3419   10.2540   -2.6243 H   0  0  0  0  0  0  0  0  0  0  0  0
   -1.7186    9.6562   -3.5233 H   0  0  0  0  0  0  0  0  0  0  0  0
   -1.0714   10.9527   -4.5849 H   0  0  0  0  0  0  0  0  0  0  0  0
   -0.3074    9.3269   -4.5849 H   0  0  0  0  0  0  0  0  0  0  0  0
    0.7047   10.0969   -0.8480 H   0  0  0  0  0  0  0  0  0  0  0  0
    0.7018    7.9932   -2.3364 H   0  0  0  0  0  0  0  0  0  0  0  0
    0.2268    7.9034   -0.5601 H   0  0  0  0  0  0  0  0  0  0  0  0
   -1.2473    6.5016   -2.2338 H   0  0  0  0  0  0  0  0  0  0  0  0
   -2.9871   10.1444   -2.2238 H   0  0  0  0  0  0  0  0  0  0  0  0
   -3.6762    8.9595    0.5363 H   0  0  0  0  0  0  0  0  0  0  0  0
   -4.1532   10.5962   -0.0997 H   0  0  0  0  0  0  0  0  0  0  0  0
   -6.0168    8.9724   -0.2028 H   0  0  0  0  0  0  0  0  0  0  0  0
   -5.5040    9.5631   -1.8319 H   0  0  0  0  0  0  0  0  0  0  0  0
   -5.8914    7.1962   -1.9569 H   0  0  0  0  0  0  0  0  0  0  0  0
   -5.4110    6.9480    0.4080 H   0  0  0  0  0  0  0  0  0  0  0  0
   -4.7415    8.9408   -3.5979 H   0  0  0  0  0  0  0  0  0  0  0  0
   -3.2684    8.2301   -4.3408 H   0  0  0  0  0  0  0  0  0  0  0  0
   -4.8092    7.3067   -4.3408 H   0  0  0  0  0  0  0  0  0  0  0  0
   -3.5144    5.3236   -1.7262 H   0  0  0  0  0  0  0  0  0  0  0  0
   -4.4417    5.4683   -3.2578 H   0  0  0  0  0  0  0  0  0  0  0  0
   -2.6630    5.7186   -3.2578 H   0  0  0  0  0  0  0  0  0  0  0  0
   -1.6771   10.7023    1.3719 H   0  0  0  0  0  0  0  0  0  0  0  0
   -1.8529    8.9599    0.9721 H   0  0  0  0  0  0  0  0  0  0  0  0
   -0.2261    9.7217    0.9721 H   0  0  0  0  0  0  0  0  0  0  0  0
   -2.7369   12.0043   -0.6596 H   0  0  0  0  0  0  0  0  0  0  0  0
   -1.0018   12.2109   -0.0417 H   0  0  0  0  0  0  0  0  0  0  0  0
   -1.9571   12.2446   -2.9174 H   0  0  0  0  0  0  0  0  0  0  0  0
   -1.2493   13.5952   -1.9463 H   0  0  0  0  0  0  0  0  0  0  0  0
    0.7181   12.3442   -0.4371 H   0  0  0  0  0  0  0  0  0  0  0  0
    2.1039   11.9974   -1.5262 H   0  0  0  0  0  0  0  0  0  0  0  0
    1.3474   13.6267   -1.5262 H   0  0  0  0  0  0  0  0  0  0  0  0
  1  2  1  0
  2  3  1  0
  3  4  1  0
  4  5  1  0
  5  6  1  0
  6  7  1  0
  7  8  1  0
  7  9  1  0
  2 10  1  0
 10 11  1  0
 11 12  1  0
 12 13  1  0
 13 14  1  6
 13 15  1  0
 15 16  1  0
 16 17  1  0
 17 18  2  0
 18 19  1  0
 19 20  1  0
 20 21  1  0
 21 22  1  0
 22 23  1  0
 22 24  1  0
 24 25  1  0
 24 26  1  0
 19 27  1  0
 27 28  1  1
 27 29  1  0
 29 30  1  0
 30 31  1  0
 31 32  1  1
  7  5  1  0
 31 10  1  0
 31 13  1  0
 27 15  1  0
 24 18  1  0
  1 33  1  0
  1 34  1  0
  1 35  1  0
  2 36  1  6
  3 37  1  0
  3 38  1  0
  4 39  1  0
  4 40  1  0
  5 41  1  1
  8 42  1  0
  8 43  1  0
  8 44  1  0
  9 45  1  0
  9 46  1  0
  9 47  1  0
 10 48  1  6
 11 49  1  0
 11 50  1  0
 12 51  1  0
 12 52  1  0
 14 53  1  0
 14 54  1  0
 14 55  1  0
 15 56  1  1
 16 57  1  0
 16 58  1  0
 17 59  1  0
 19 60  1  6
 20 61  1  0
 20 62  1  0
 21 63  1  0
 21 64  1  0
 22 65  1  6
 23 66  1  0
 25 67  1  0
 25 68  1  0
 25 69  1  0
 26 70  1  0
 26 71  1  0
 26 72  1  0
 28 73  1  0
 28 74  1  0
 28 75  1  0
 29 76  1  0
 29 77  1  0
 30 78  1  0
 30 79  1  0
 32 80  1  0
 32 81  1  0
 32 82  1  0
M  END
>  <meeko>  (7) 
{"is_sidechain": [false], "intermolecular_energy": 2.731, "internal_energy": -0.839}

$$$$
EPH_relaxed_0001_pdb2pqr_Repair_337_r2_0001_out
     RDKit          3D

 82 86  0  0  0  0  0  0  0  0999 V2000
   -2.4350    7.7770   -0.0780 C   0  0  0  0  0  0  0  0  0  0  0  0
   -3.0570    9.1760   -0.0700 C   0  0  2  0  0  0  0  0  0  0  0  0
   -4.5480    9.1500   -0.4620 C   0  0  0  0  0  0  0  0  0  0  0  0
   -5.1540    7.7440   -0.4860 C   0  0  0  0  0  0  0  0  0  0  0  0
   -5.8410    7.4590   -1.7870 C   0  0  2  0  0  0  0  0  0  0  0  0
   -6.7910    8.4530   -2.1930 O   0  0  0  0  0  0  0  0  0  0  0  0
   -7.3220    7.1500   -1.9010 C   0  0  0  0  0  0  0  0  0  0  0  0
   -8.2060    7.1090   -0.6940 C   0  0  0  0  0  0  0  0  0  0  0  0
   -7.8090    6.4120   -3.1090 C   0  0  0  0  0  0  0  0  0  0  0  0
   -2.2870   10.0930   -1.0140 C   0  0  1  0  0  0  0  0  0  0  0  0
   -2.9260   11.5020   -1.1300 C   0  0  0  0  0  0  0  0  0  0  0  0
   -1.7590   12.5100   -1.2960 C   0  0  0  0  0  0  0  0  0  0  0  0
   -0.5240   11.6300   -1.6010 C   0  0  1  0  0  0  0  0  0  0  0  0
   -0.6280   11.3070   -3.1240 C   0  0  0  0  0  0  0  0  0  0  0  0
    0.8680   12.2400   -1.2340 C   0  0  2  0  0  0  0  0  0  0  0  0
    1.2360   13.5270   -1.9930 C   0  0  0  0  0  0  0  0  0  0  0  0
    1.9780   13.3220   -3.2730 C   0  0  0  0  0  0  0  0  0  0  0  0
    2.5820   12.1810   -3.6520 C   0  0  0  0  0  0  0  0  0  0  0  0
    2.6390   10.9690   -2.7120 C   0  0  1  0  0  0  0  0  0  0  0  0
    4.0800   10.3930   -2.6970 C   0  0  0  0  0  0  0  0  0  0  0  0
    4.5960   10.0710   -4.0960 C   0  0  0  0  0  0  0  0  0  0  0  0
    4.5780   11.3130   -4.9830 C   0  0  2  0  0  0  0  0  0  0  0  0
    5.5350   12.2520   -4.4810 O   0  0  0  0  0  0  0  0  0  0  0  0
    3.1800   11.9860   -5.0680 C   0  0  0  0  0  0  0  0  0  0  0  0
    2.2170   11.0870   -5.8820 C   0  0  0  0  0  0  0  0  0  0  0  0
    3.3320   13.3030   -5.8760 C   0  0  0  0  0  0  0  0  0  0  0  0
    2.0580   11.1980   -1.2510 C   0  0  1  0  0  0  0  0  0  0  0  0
    3.1680   11.7740   -0.3200 C   0  0  0  0  0  0  0  0  0  0  0  0
    1.6440    9.8070   -0.6390 C   0  0  0  0  0  0  0  0  0  0  0  0
    0.2160    9.3140   -0.9390 C   0  0  0  0  0  0  0  0  0  0  0  0
   -0.8150   10.4100   -0.6520 C   0  0  2  0  0  0  0  0  0  0  0  0
   -0.7490   10.7400    0.8780 C   0  0  0  0  0  0  0  0  0  0  0  0
   -2.2838    7.4370    0.9572 H   0  0  0  0  0  0  0  0  0  0  0  0
   -3.1078    7.0796   -0.5985 H   0  0  0  0  0  0  0  0  0  0  0  0
   -1.4665    7.8093   -0.5985 H   0  0  0  0  0  0  0  0  0  0  0  0
   -2.9918    9.5613    0.9582 H   0  0  0  0  0  0  0  0  0  0  0  0
   -5.1085    9.7573    0.2639 H   0  0  0  0  0  0  0  0  0  0  0  0
   -4.6182    9.5477   -1.4852 H   0  0  0  0  0  0  0  0  0  0  0  0
   -4.3509    7.0070   -0.3380 H   0  0  0  0  0  0  0  0  0  0  0  0
   -5.9017    7.6789    0.3182 H   0  0  0  0  0  0  0  0  0  0  0  0
   -4.9483    6.9448   -2.1726 H   0  0  0  0  0  0  0  0  0  0  0  0
   -7.5871    7.1377    0.2149 H   0  0  0  0  0  0  0  0  0  0  0  0
   -8.8819    7.9768   -0.7049 H   0  0  0  0  0  0  0  0  0  0  0  0
   -8.7987    6.1824   -0.7049 H   0  0  0  0  0  0  0  0  0  0  0  0
   -8.3892    5.5328   -2.7923 H   0  0  0  0  0  0  0  0  0  0  0  0
   -8.4475    7.0752   -3.7112 H   0  0  0  0  0  0  0  0  0  0  0  0
   -6.9482    6.0858   -3.7112 H   0  0  0  0  0  0  0  0  0  0  0  0
   -2.3267    9.4892   -1.9326 H   0  0  0  0  0  0  0  0  0  0  0  0
   -3.5914   11.5454   -2.0049 H   0  0  0  0  0  0  0  0  0  0  0  0
   -3.5277   11.7374   -0.2398 H   0  0  0  0  0  0  0  0  0  0  0  0
   -1.9583   13.2013   -2.1281 H   0  0  0  0  0  0  0  0  0  0  0  0
   -1.6161   13.1339   -0.4014 H   0  0  0  0  0  0  0  0  0  0  0  0
   -0.9627   10.2675   -3.2563 H   0  0  0  0  0  0  0  0  0  0  0  0
   -1.3522   11.9881   -3.5947 H   0  0  0  0  0  0  0  0  0  0  0  0
    0.3576   11.4376   -3.5947 H   0  0  0  0  0  0  0  0  0  0  0  0
    0.7245   12.5415   -0.1859 H   0  0  0  0  0  0  0  0  0  0  0  0
    0.3042   14.0646   -2.2225 H   0  0  0  0  0  0  0  0  0  0  0  0
    1.9157   14.0860   -1.3331 H   0  0  0  0  0  0  0  0  0  0  0  0
    2.0355   14.1759   -3.9641 H   0  0  0  0  0  0  0  0  0  0  0  0
    1.9445   10.2257   -3.1305 H   0  0  0  0  0  0  0  0  0  0  0  0
    4.7506   11.1328   -2.2354 H   0  0  0  0  0  0  0  0  0  0  0  0
    4.0581    9.4537   -2.1249 H   0  0  0  0  0  0  0  0  0  0  0  0
    5.6276    9.6964   -4.0219 H   0  0  0  0  0  0  0  0  0  0  0  0
    3.9417    9.3093   -4.5450 H   0  0  0  0  0  0  0  0  0  0  0  0
    4.8334   10.9926   -6.0038 H   0  0  0  0  0  0  0  0  0  0  0  0
    6.3380   12.1720   -5.0240 H   0  0  0  0  0  0  0  0  0  0  0  0
    1.5905   10.5021   -5.1925 H   0  0  0  0  0  0  0  0  0  0  0  0
    1.5753   11.7167   -6.5159 H   0  0  0  0  0  0  0  0  0  0  0  0
    2.8011   10.4036   -6.5159 H   0  0  0  0  0  0  0  0  0  0  0  0
    3.4298   14.1502   -5.1812 H   0  0  0  0  0  0  0  0  0  0  0  0
    4.2292   13.2430   -6.5096 H   0  0  0  0  0  0  0  0  0  0  0  0
    2.4447   13.4489   -6.5096 H   0  0  0  0  0  0  0  0  0  0  0  0
    2.8794   11.6242    0.7308 H   0  0  0  0  0  0  0  0  0  0  0  0
    4.1176   11.2549   -0.5170 H   0  0  0  0  0  0  0  0  0  0  0  0
    3.2902   12.8493   -0.5170 H   0  0  0  0  0  0  0  0  0  0  0  0
    2.3447    9.0519   -1.0247 H   0  0  0  0  0  0  0  0  0  0  0  0
    1.6758    9.9511    0.4511 H   0  0  0  0  0  0  0  0  0  0  0  0
    0.1499    9.0266   -1.9987 H   0  0  0  0  0  0  0  0  0  0  0  0
   -0.0001    8.4514   -0.2915 H   0  0  0  0  0  0  0  0  0  0  0  0
   -0.9322    9.8240    1.4589 H   0  0  0  0  0  0  0  0  0  0  0  0
    0.2465   11.1377    1.1247 H   0  0  0  0  0  0  0  0  0  0  0  0
   -1.5149   11.4900    1.1247 H   0  0  0  0  0  0  0  0  0  0  0  0
  1  2  1  0
  2  3  1  0
  3  4  1  0
  4  5  1  0
  5  6  1  0
  6  7  1  0
  7  8  1  0
  7  9  1  0
  2 10  1  0
 10 11  1  0
 11 12  1  0
 12 13  1  0
 13 14  1  6
 13 15  1  0
 15 16  1  0
 16 17  1  0
 17 18  2  0
 18 19  1  0
 19 20  1  0
 20 21  1  0
 21 22  1  0
 22 23  1  0
 22 24  1  0
 24 25  1  0
 24 26  1  0
 19 27  1  0
 27 28  1  1
 27 29  1  0
 29 30  1  0
 30 31  1  0
 31 32  1  1
  7  5  1  0
 31 10  1  0
 31 13  1  0
 27 15  1  0
 24 18  1  0
  1 33  1  0
  1 34  1  0
  1 35  1  0
  2 36  1  1
  3 37  1  0
  3 38  1  0
  4 39  1  0
  4 40  1  0
  5 41  1  6
  8 42  1  0
  8 43  1  0
  8 44  1  0
  9 45  1  0
  9 46  1  0
  9 47  1  0
 10 48  1  6
 11 49  1  0
 11 50  1  0
 12 51  1  0
 12 52  1  0
 14 53  1  0
 14 54  1  0
 14 55  1  0
 15 56  1  1
 16 57  1  0
 16 58  1  0
 17 59  1  0
 19 60  1  6
 20 61  1  0
 20 62  1  0
 21 63  1  0
 21 64  1  0
 22 65  1  6
 23 66  1  0
 25 67  1  0
 25 68  1  0
 25 69  1  0
 26 70  1  0
 26 71  1  0
 26 72  1  0
 28 73  1  0
 28 74  1  0
 28 75  1  0
 29 76  1  0
 29 77  1  0
 30 78  1  0
 30 79  1  0
 32 80  1  0
 32 81  1  0
 32 82  1  0
M  END
>  <meeko>  (8) 
{"is_sidechain": [false], "intermolecular_energy": 2.731, "internal_energy": -0.839}

$$$$
EPH_relaxed_0001_pdb2pqr_Repair_337_r2_0001_out
     RDKit          3D

 82 86  0  0  0  0  0  0  0  0999 V2000
   -4.7780    6.7470   -2.5600 C   0  0  0  0  0  0  0  0  0  0  0  0
   -5.4660    7.6280   -1.5130 C   0  0  2  0  0  0  0  0  0  0  0  0
   -6.8390    8.1370   -1.9960 C   0  0  0  0  0  0  0  0  0  0  0  0
   -7.9910    7.1720   -1.7040 C   0  0  0  0  0  0  0  0  0  0  0  0
   -8.4220    7.2400   -0.2700 C   0  0  2  0  0  0  0  0  0  0  0  0
   -9.1770    6.1090    0.1830 O   0  0  0  0  0  0  0  0  0  0  0  0
   -9.8700    7.3670    0.1630 C   0  0  0  0  0  0  0  0  0  0  0  0
  -10.9810    7.4340   -0.8370 C   0  0  0  0  0  0  0  0  0  0  0  0
  -10.1640    7.9140    1.5250 C   0  0  0  0  0  0  0  0  0  0  0  0
   -4.5690    8.8070   -1.1550 C   0  0  1  0  0  0  0  0  0  0  0  0
   -4.9540    9.4610    0.1990 C   0  0  0  0  0  0  0  0  0  0  0  0
   -3.6330    9.9330    0.8590 C   0  0  0  0  0  0  0  0  0  0  0  0
   -2.5780    9.8400   -0.2690 C   0  0  1  0  0  0  0  0  0  0  0  0
   -2.7720   11.1420   -1.1080 C   0  0  0  0  0  0  0  0  0  0  0  0
   -1.0930    9.6630    0.1860 C   0  0  2  0  0  0  0  0  0  0  0  0
   -0.5230   10.8240    1.0190 C   0  0  0  0  0  0  0  0  0  0  0  0
    0.1420   11.9060    0.2330 C   0  0  0  0  0  0  0  0  0  0  0  0
    0.5280   11.8130   -1.0530 C   0  0  0  0  0  0  0  0  0  0  0  0
    0.3940   10.4930   -1.8230 C   0  0  1  0  0  0  0  0  0  0  0  0
    1.7120   10.2050   -2.5900 C   0  0  0  0  0  0  0  0  0  0  0  0
    2.1310   11.3650   -3.4890 C   0  0  0  0  0  0  0  0  0  0  0  0
    2.3100   12.6450   -2.6780 C   0  0  2  0  0  0  0  0  0  0  0  0
    3.4280   12.4820   -1.7990 O   0  0  0  0  0  0  0  0  0  0  0  0
    1.0500   13.0310   -1.8550 C   0  0  0  0  0  0  0  0  0  0  0  0
   -0.0740   13.5000   -2.8120 C   0  0  0  0  0  0  0  0  0  0  0  0
    1.4110   14.2590   -0.9760 C   0  0  0  0  0  0  0  0  0  0  0  0
   -0.1050    9.2440   -0.9760 C   0  0  1  0  0  0  0  0  0  0  0  0
    1.1110    8.5430   -0.2960 C   0  0  0  0  0  0  0  0  0  0  0  0
   -0.7410    8.1840   -1.9510 C   0  0  0  0  0  0  0  0  0  0  0  0
   -2.2400    8.3430   -2.2670 C   0  0  0  0  0  0  0  0  0  0  0  0
   -3.0560    8.5240   -0.9840 C   0  0  2  0  0  0  0  0  0  0  0  0
   -2.8980    7.2200   -0.1290 C   0  0  0  0  0  0  0  0  0  0  0  0
   -4.1769    5.9773   -2.0537 H   0  0  0  0  0  0  0  0  0  0  0  0
   -5.5393    6.2627   -3.1891 H   0  0  0  0  0  0  0  0  0  0  0  0
   -4.1236    7.3683   -3.1891 H   0  0  0  0  0  0  0  0  0  0  0  0
   -5.6386    7.0089   -0.6203 H   0  0  0  0  0  0  0  0  0  0  0  0
   -7.0511    9.0927   -1.4944 H   0  0  0  0  0  0  0  0  0  0  0  0
   -6.7765    8.2413   -3.0893 H   0  0  0  0  0  0  0  0  0  0  0  0
   -8.8456    7.4326   -2.3457 H   0  0  0  0  0  0  0  0  0  0  0  0
   -7.6415    6.1493   -1.9086 H   0  0  0  0  0  0  0  0  0  0  0  0
   -7.5190    7.8078   -0.0014 H   0  0  0  0  0  0  0  0  0  0  0  0
  -11.9451    7.4921   -0.3106 H   0  0  0  0  0  0  0  0  0  0  0  0
  -10.8533    8.3261   -1.4678 H   0  0  0  0  0  0  0  0  0  0  0  0
  -10.9614    6.5330   -1.4678 H   0  0  0  0  0  0  0  0  0  0  0  0
   -9.7893    7.2168    2.2889 H   0  0  0  0  0  0  0  0  0  0  0  0
   -9.6683    8.8888    1.6435 H   0  0  0  0  0  0  0  0  0  0  0  0
  -11.2505    8.0384    1.6435 H   0  0  0  0  0  0  0  0  0  0  0  0
   -4.7350    9.4397   -2.0394 H   0  0  0  0  0  0  0  0  0  0  0  0
   -5.6205   10.3195    0.0291 H   0  0  0  0  0  0  0  0  0  0  0  0
   -5.4856    8.7473    0.8455 H   0  0  0  0  0  0  0  0  0  0  0  0
   -3.7268   10.9683    1.2185 H   0  0  0  0  0  0  0  0  0  0  0  0
   -3.3629    9.3235    1.7340 H   0  0  0  0  0  0  0  0  0  0  0  0
   -2.8997   11.9991   -0.4305 H   0  0  0  0  0  0  0  0  0  0  0  0
   -1.8882   11.3045   -1.7424 H   0  0  0  0  0  0  0  0  0  0  0  0
   -3.6648   11.0398   -1.7424 H   0  0  0  0  0  0  0  0  0  0  0  0
   -1.1571    8.8068    0.8736 H   0  0  0  0  0  0  0  0  0  0  0  0
   -1.3513   11.2750    1.5852 H   0  0  0  0  0  0  0  0  0  0  0  0
    0.2591   10.3861    1.6567 H   0  0  0  0  0  0  0  0  0  0  0  0
    0.3323   12.8589    0.7485 H   0  0  0  0  0  0  0  0  0  0  0  0
   -0.4292   10.6396   -2.5377 H   0  0  0  0  0  0  0  0  0  0  0  0
    2.5122   10.0188   -1.8586 H   0  0  0  0  0  0  0  0  0  0  0  0
    1.5397    9.3293   -3.2331 H   0  0  0  0  0  0  0  0  0  0  0  0
    3.0825   11.1141   -3.9807 H   0  0  0  0  0  0  0  0  0  0  0  0
    1.3433   11.5311   -4.2386 H   0  0  0  0  0  0  0  0  0  0  0  0
    2.4815   13.4650   -3.3908 H   0  0  0  0  0  0  0  0  0  0  0  0
    4.1970   12.9010   -2.2200 H   0  0  0  0  0  0  0  0  0  0  0  0
   -0.9314   13.8578   -2.2231 H   0  0  0  0  0  0  0  0  0  0  0  0
    0.3015   14.3165   -3.4463 H   0  0  0  0  0  0  0  0  0  0  0  0
   -0.3903   12.6588   -3.4463 H   0  0  0  0  0  0  0  0  0  0  0  0
    1.3307   13.9857    0.0865 H   0  0  0  0  0  0  0  0  0  0  0  0
    2.4407   14.5773   -1.1959 H   0  0  0  0  0  0  0  0  0  0  0  0
    0.7174   15.0839   -1.1959 H   0  0  0  0  0  0  0  0  0  0  0  0
    1.0051    8.6040    0.7972 H   0  0  0  0  0  0  0  0  0  0  0  0
    1.1442    7.4872   -0.6028 H   0  0  0  0  0  0  0  0  0  0  0  0
    2.0413    9.0434   -0.6028 H   0  0  0  0  0  0  0  0  0  0  0  0
   -0.1927    8.2365   -2.9032 H   0  0  0  0  0  0  0  0  0  0  0  0
   -0.6583    7.2220   -1.4240 H   0  0  0  0  0  0  0  0  0  0  0  0
   -2.3804    9.2245   -2.9098 H   0  0  0  0  0  0  0  0  0  0  0  0
   -2.5884    7.4334   -2.7781 H   0  0  0  0  0  0  0  0  0  0  0  0
   -2.9291    7.4766    0.9402 H   0  0  0  0  0  0  0  0  0  0  0  0
   -3.7186    6.5261   -0.3636 H   0  0  0  0  0  0  0  0  0  0  0  0
   -1.9354    6.7421   -0.3636 H   0  0  0  0  0  0  0  0  0  0  0  0
  1  2  1  0
  2  3  1  0
  3  4  1  0
  4  5  1  0
  5  6  1  0
  6  7  1  0
  7  8  1  0
  7  9  1  0
  2 10  1  0
 10 11  1  0
 11 12  1  0
 12 13  1  0
 13 14  1  6
 13 15  1  0
 15 16  1  0
 16 17  1  0
 17 18  2  0
 18 19  1  0
 19 20  1  0
 20 21  1  0
 21 22  1  0
 22 23  1  0
 22 24  1  0
 24 25  1  0
 24 26  1  0
 19 27  1  0
 27 28  1  1
 27 29  1  0
 29 30  1  0
 30 31  1  0
 31 32  1  1
  7  5  1  0
 31 10  1  0
 31 13  1  0
 27 15  1  0
 24 18  1  0
  1 33  1  0
  1 34  1  0
  1 35  1  0
  2 36  1  1
  3 37  1  0
  3 38  1  0
  4 39  1  0
  4 40  1  0
  5 41  1  1
  8 42  1  0
  8 43  1  0
  8 44  1  0
  9 45  1  0
  9 46  1  0
  9 47  1  0
 10 48  1  6
 11 49  1  0
 11 50  1  0
 12 51  1  0
 12 52  1  0
 14 53  1  0
 14 54  1  0
 14 55  1  0
 15 56  1  1
 16 57  1  0
 16 58  1  0
 17 59  1  0
 19 60  1  6
 20 61  1  0
 20 62  1  0
 21 63  1  0
 21 64  1  0
 22 65  1  6
 23 66  1  0
 25 67  1  0
 25 68  1  0
 25 69  1  0
 26 70  1  0
 26 71  1  0
 26 72  1  0
 28 73  1  0
 28 74  1  0
 28 75  1  0
 29 76  1  0
 29 77  1  0
 30 78  1  0
 30 79  1  0
 32 80  1  0
 32 81  1  0
 32 82  1  0
M  END
>  <meeko>  (9) 
{"is_sidechain": [false], "intermolecular_energy": 2.731, "internal_energy": -0.839}

$$$$
EPH_relaxed_0001_pdb2pqr_Repair_337_r2_0001_out
     RDKit          3D

 82 86  0  0  0  0  0  0  0  0999 V2000
   -2.0750   14.5560    0.2470 C   0  0  0  0  0  0  0  0  0  0  0  0
   -0.7380   15.2740    0.4540 C   0  0  2  0  0  0  0  0  0  0  0  0
   -0.6150   16.5350   -0.4240 C   0  0  0  0  0  0  0  0  0  0  0  0
   -1.2440   17.7840    0.2000 C   0  0  0  0  0  0  0  0  0  0  0  0
   -0.2310   18.6060    0.9360 C   0  0  2  0  0  0  0  0  0  0  0  0
   -0.6110   19.9710    1.1540 O   0  0  0  0  0  0  0  0  0  0  0  0
    0.5290   19.7590    0.3060 C   0  0  0  0  0  0  0  0  0  0  0  0
    0.3080   20.1520   -1.1210 C   0  0  0  0  0  0  0  0  0  0  0  0
    1.8260   20.1830    0.9220 C   0  0  0  0  0  0  0  0  0  0  0  0
    0.4150   14.3210    0.1610 C   0  0  1  0  0  0  0  0  0  0  0  0
    0.6390   13.2880    1.2980 C   0  0  0  0  0  0  0  0  0  0  0  0
    1.0930   11.9690    0.6210 C   0  0  0  0  0  0  0  0  0  0  0  0
    1.4330   12.3740   -0.8330 C   0  0  1  0  0  0  0  0  0  0  0  0
    2.8710   12.9760   -0.7550 C   0  0  0  0  0  0  0  0  0  0  0  0
    1.3390   11.2410   -1.9060 C   0  0  2  0  0  0  0  0  0  0  0  0
    2.3090   10.0650   -1.6990 C   0  0  0  0  0  0  0  0  0  0  0  0
    3.6340   10.2060   -2.3730 C   0  0  0  0  0  0  0  0  0  0  0  0
    3.9290   11.0930   -3.3410 C   0  0  0  0  0  0  0  0  0  0  0  0
    2.8480   12.0120   -3.9230 C   0  0  1  0  0  0  0  0  0  0  0  0
    2.9420   12.0070   -5.4710 C   0  0  0  0  0  0  0  0  0  0  0  0
    4.3390   12.3590   -5.9730 C   0  0  0  0  0  0  0  0  0  0  0  0
    5.3780   11.3880   -5.4190 C   0  0  2  0  0  0  0  0  0  0  0  0
    5.1400   10.0910   -5.9750 O   0  0  0  0  0  0  0  0  0  0  0  0
    5.3710   11.3010   -3.8680 C   0  0  0  0  0  0  0  0  0  0  0  0
    5.9210   12.6200   -3.2700 C   0  0  0  0  0  0  0  0  0  0  0  0
    6.3650   10.1860   -3.4470 C   0  0  0  0  0  0  0  0  0  0  0  0
    1.3680   11.7590   -3.4010 C   0  0  1  0  0  0  0  0  0  0  0  0
    0.6790   10.6600   -4.2660 C   0  0  0  0  0  0  0  0  0  0  0  0
    0.5220   13.0730   -3.5950 C   0  0  0  0  0  0  0  0  0  0  0  0
    0.5620   14.1010   -2.4480 C   0  0  0  0  0  0  0  0  0  0  0  0
    0.2960   13.4260   -1.0980 C   0  0  2  0  0  0  0  0  0  0  0  0
   -1.1530   12.8310   -1.1380 C   0  0  0  0  0  0  0  0  0  0  0  0
   -2.5185   14.3178    1.2250 H   0  0  0  0  0  0  0  0  0  0  0  0
   -2.7583   15.2085   -0.3163 H   0  0  0  0  0  0  0  0  0  0  0  0
   -1.9084   13.6260   -0.3163 H   0  0  0  0  0  0  0  0  0  0  0  0
   -0.6950   15.5972    1.5046 H   0  0  0  0  0  0  0  0  0  0  0  0
    0.4527   16.7340   -0.5981 H   0  0  0  0  0  0  0  0  0  0  0  0
   -1.1618   16.3317   -1.3566 H   0  0  0  0  0  0  0  0  0  0  0  0
   -1.6878   18.3965   -0.5987 H   0  0  0  0  0  0  0  0  0  0  0  0
   -2.0100   17.4591    0.9195 H   0  0  0  0  0  0  0  0  0  0  0  0
    0.1022   17.7265    1.5065 H   0  0  0  0  0  0  0  0  0  0  0  0
   -0.2309   21.1103   -1.1582 H   0  0  0  0  0  0  0  0  0  0  0  0
    1.2791   20.2575   -1.6269 H   0  0  0  0  0  0  0  0  0  0  0  0
   -0.2866   19.3771   -1.6269 H   0  0  0  0  0  0  0  0  0  0  0  0
    1.7381   20.1543    2.0181 H   0  0  0  0  0  0  0  0  0  0  0  0
    2.6255   19.4995    0.6002 H   0  0  0  0  0  0  0  0  0  0  0  0
    2.0674   21.2068    0.6002 H   0  0  0  0  0  0  0  0  0  0  0  0
    1.2280   15.0501    0.0289 H   0  0  0  0  0  0  0  0  0  0  0  0
    1.4169   13.6469    1.9880 H   0  0  0  0  0  0  0  0  0  0  0  0
   -0.2815   13.1363    1.8808 H   0  0  0  0  0  0  0  0  0  0  0  0
    1.9790   11.5577    1.1269 H   0  0  0  0  0  0  0  0  0  0  0  0
    0.3191   11.1886    0.6667 H   0  0  0  0  0  0  0  0  0  0  0  0
    3.1610   13.0974    0.2991 H   0  0  0  0  0  0  0  0  0  0  0  0
    3.5795   12.2989   -1.2546 H   0  0  0  0  0  0  0  0  0  0  0  0
    2.8859   13.9559   -1.2546 H   0  0  0  0  0  0  0  0  0  0  0  0
    0.3328   10.8327   -1.7303 H   0  0  0  0  0  0  0  0  0  0  0  0
    2.4867    9.9568   -0.6189 H   0  0  0  0  0  0  0  0  0  0  0  0
    1.8266    9.1882   -2.1556 H   0  0  0  0  0  0  0  0  0  0  0  0
    4.4372    9.5270   -2.0508 H   0  0  0  0  0  0  0  0  0  0  0  0
    3.0669   13.0193   -3.5391 H   0  0  0  0  0  0  0  0  0  0  0  0
    2.6780   11.0039   -5.8371 H   0  0  0  0  0  0  0  0  0  0  0  0
    2.2482   12.7717   -5.8503 H   0  0  0  0  0  0  0  0  0  0  0  0
    4.3498   12.3096   -7.0718 H   0  0  0  0  0  0  0  0  0  0  0  0
    4.5896   13.3741   -5.6314 H   0  0  0  0  0  0  0  0  0  0  0  0
    6.3696   11.7677   -5.7065 H   0  0  0  0  0  0  0  0  0  0  0  0
    4.4900   10.1930   -6.6910 H   0  0  0  0  0  0  0  0  0  0  0  0
    5.8971   12.5627   -2.1718 H   0  0  0  0  0  0  0  0  0  0  0  0
    6.9572   12.7713   -3.6068 H   0  0  0  0  0  0  0  0  0  0  0  0
    5.2993   13.4626   -3.6068 H   0  0  0  0  0  0  0  0  0  0  0  0
    6.4126   10.1326   -2.3493 H   0  0  0  0  0  0  0  0  0  0  0  0
    6.0230    9.2199   -3.8466 H   0  0  0  0  0  0  0  0  0  0  0  0
    7.3639   10.4152   -3.8466 H   0  0  0  0  0  0  0  0  0  0  0  0
    0.2113    9.9140   -3.6066 H   0  0  0  0  0  0  0  0  0  0  0  0
   -0.0912   11.1224   -4.9008 H   0  0  0  0  0  0  0  0  0  0  0  0
    1.4307   10.1682   -4.9008 H   0  0  0  0  0  0  0  0  0  0  0  0
    0.8884   13.5736   -4.5034 H   0  0  0  0  0  0  0  0  0  0  0  0
   -0.5243   12.7370   -3.6438 H   0  0  0  0  0  0  0  0  0  0  0  0
    1.5542   14.5752   -2.4241 H   0  0  0  0  0  0  0  0  0  0  0  0
   -0.2201   14.8542   -2.6241 H   0  0  0  0  0  0  0  0  0  0  0  0
   -1.5166   12.6817   -0.1106 H   0  0  0  0  0  0  0  0  0  0  0  0
   -1.8210   13.5276   -1.6657 H   0  0  0  0  0  0  0  0  0  0  0  0
   -1.1387   11.8660   -1.6657 H   0  0  0  0  0  0  0  0  0  0  0  0
  1  2  1  0
  2  3  1  0
  3  4  1  0
  4  5  1  0
  5  6  1  0
  6  7  1  0
  7  8  1  0
  7  9  1  0
  2 10  1  0
 10 11  1  0
 11 12  1  0
 12 13  1  0
 13 14  1  1
 13 15  1  0
 15 16  1  0
 16 17  1  0
 17 18  2  0
 18 19  1  0
 19 20  1  0
 20 21  1  0
 21 22  1  0
 22 23  1  0
 22 24  1  0
 24 25  1  0
 24 26  1  0
 19 27  1  0
 27 28  1  6
 27 29  1  0
 29 30  1  0
 30 31  1  0
 31 32  1  6
  7  5  1  0
 31 10  1  0
 31 13  1  0
 27 15  1  0
 24 18  1  0
  1 33  1  0
  1 34  1  0
  1 35  1  0
  2 36  1  1
  3 37  1  0
  3 38  1  0
  4 39  1  0
  4 40  1  0
  5 41  1  1
  8 42  1  0
  8 43  1  0
  8 44  1  0
  9 45  1  0
  9 46  1  0
  9 47  1  0
 10 48  1  6
 11 49  1  0
 11 50  1  0
 12 51  1  0
 12 52  1  0
 14 53  1  0
 14 54  1  0
 14 55  1  0
 15 56  1  1
 16 57  1  0
 16 58  1  0
 17 59  1  0
 19 60  1  1
 20 61  1  0
 20 62  1  0
 21 63  1  0
 21 64  1  0
 22 65  1  6
 23 66  1  0
 25 67  1  0
 25 68  1  0
 25 69  1  0
 26 70  1  0
 26 71  1  0
 26 72  1  0
 28 73  1  0
 28 74  1  0
 28 75  1  0
 29 76  1  0
 29 77  1  0
 30 78  1  0
 30 79  1  0
 32 80  1  0
 32 81  1  0
 32 82  1  0
M  END
>  <meeko>  (10) 
{"is_sidechain": [false], "intermolecular_energy": 2.731, "internal_energy": -0.839}

$$$$
EPH_relaxed_0001_pdb2pqr_Repair_337_r2_0001_out
     RDKit          3D

 82 86  0  0  0  0  0  0  0  0999 V2000
  -13.9710    9.8020    0.8470 C   0  0  0  0  0  0  0  0  0  0  0  0
  -13.3270    9.3210   -0.4560 C   0  0  2  0  0  0  0  0  0  0  0  0
  -14.2740    8.4210   -1.2750 C   0  0  0  0  0  0  0  0  0  0  0  0
  -15.2680    9.2010   -2.1410 C   0  0  0  0  0  0  0  0  0  0  0  0
  -14.5720    9.9990   -3.2010 C   0  0  2  0  0  0  0  0  0  0  0  0
  -13.4560   10.7690   -2.7350 O   0  0  0  0  0  0  0  0  0  0  0  0
  -14.5740   11.5160   -3.2420 C   0  0  0  0  0  0  0  0  0  0  0  0
  -15.2870   12.3240   -2.2040 C   0  0  0  0  0  0  0  0  0  0  0  0
  -14.3020   12.1970   -4.5470 C   0  0  0  0  0  0  0  0  0  0  0  0
  -12.0330    8.5750   -0.1520 C   0  0  1  0  0  0  0  0  0  0  0  0
  -12.2280    7.4450    0.8940 C   0  0  0  0  0  0  0  0  0  0  0  0
  -11.2670    6.2960    0.4940 C   0  0  0  0  0  0  0  0  0  0  0  0
  -10.3240    6.9240   -0.5580 C   0  0  1  0  0  0  0  0  0  0  0  0
   -9.2530    7.6970    0.2750 C   0  0  0  0  0  0  0  0  0  0  0  0
   -9.6620    5.9340   -1.5710 C   0  0  2  0  0  0  0  0  0  0  0  0
   -8.7330    4.8810   -0.9430 C   0  0  0  0  0  0  0  0  0  0  0  0
   -7.2990    5.2820   -0.8300 C   0  0  0  0  0  0  0  0  0  0  0  0
   -6.7240    6.3170   -1.4700 C   0  0  0  0  0  0  0  0  0  0  0  0
   -7.5120    7.1510   -2.4880 C   0  0  1  0  0  0  0  0  0  0  0  0
   -6.6550    7.3560   -3.7650 C   0  0  0  0  0  0  0  0  0  0  0  0
   -5.2840    7.9520   -3.4600 C   0  0  0  0  0  0  0  0  0  0  0  0
   -4.5080    7.0650   -2.4900 C   0  0  2  0  0  0  0  0  0  0  0  0
   -4.1980    5.8290   -3.1420 O   0  0  0  0  0  0  0  0  0  0  0  0
   -5.2770    6.7810   -1.1690 C   0  0  0  0  0  0  0  0  0  0  0  0
   -5.3470    8.0730   -0.3200 C   0  0  0  0  0  0  0  0  0  0  0  0
   -4.4460    5.7630   -0.3420 C   0  0  0  0  0  0  0  0  0  0  0  0
   -8.9810    6.6380   -2.8140 C   0  0  1  0  0  0  0  0  0  0  0  0
   -8.9330    5.5770   -3.9560 C   0  0  0  0  0  0  0  0  0  0  0  0
   -9.8350    7.8420   -3.3620 C   0  0  0  0  0  0  0  0  0  0  0  0
  -10.5620    8.7110   -2.3180 C   0  0  0  0  0  0  0  0  0  0  0  0
  -11.3420    7.8410   -1.3280 C   0  0  2  0  0  0  0  0  0  0  0  0
  -12.4410    7.0680   -2.1340 C   0  0  0  0  0  0  0  0  0  0  0  0
  -13.4181    9.3890    1.7036 H   0  0  0  0  0  0  0  0  0  0  0  0
  -13.9414   10.9009    0.8868 H   0  0  0  0  0  0  0  0  0  0  0  0
  -15.0163    9.4617    0.8868 H   0  0  0  0  0  0  0  0  0  0  0  0
  -13.1091   10.2108   -1.0649 H   0  0  0  0  0  0  0  0  0  0  0  0
  -13.6650    7.7840   -1.9333 H   0  0  0  0  0  0  0  0  0  0  0  0
  -14.8648    7.8360   -0.5547 H   0  0  0  0  0  0  0  0  0  0  0  0
  -15.9550    8.4901   -2.6233 H   0  0  0  0  0  0  0  0  0  0  0  0
  -15.8157    9.8988   -1.4905 H   0  0  0  0  0  0  0  0  0  0  0  0
  -14.8083    9.2399   -3.9612 H   0  0  0  0  0  0  0  0  0  0  0  0
  -14.9857   11.9825   -1.2027 H   0  0  0  0  0  0  0  0  0  0  0  0
  -15.0263   13.3860   -2.3231 H   0  0  0  0  0  0  0  0  0  0  0  0
  -16.3732   12.1975   -2.3231 H   0  0  0  0  0  0  0  0  0  0  0  0
  -13.9000   13.2034   -4.3586 H   0  0  0  0  0  0  0  0  0  0  0  0
  -13.5690   11.6109   -5.1207 H   0  0  0  0  0  0  0  0  0  0  0  0
  -15.2371   12.2771   -5.1207 H   0  0  0  0  0  0  0  0  0  0  0  0
  -11.4091    9.4162    0.1842 H   0  0  0  0  0  0  0  0  0  0  0  0
  -11.9801    7.8133    1.9004 H   0  0  0  0  0  0  0  0  0  0  0  0
  -13.2720    7.0990    0.9123 H   0  0  0  0  0  0  0  0  0  0  0  0
  -10.6965    5.9455    1.3667 H   0  0  0  0  0  0  0  0  0  0  0  0
  -11.8047    5.4201    0.1019 H   0  0  0  0  0  0  0  0  0  0  0  0
   -9.4501    7.5547    1.3478 H   0  0  0  0  0  0  0  0  0  0  0  0
   -8.2516    7.3121    0.0320 H   0  0  0  0  0  0  0  0  0  0  0  0
   -9.3029    8.7687    0.0320 H   0  0  0  0  0  0  0  0  0  0  0  0
  -10.5285    5.3758   -1.9550 H   0  0  0  0  0  0  0  0  0  0  0  0
   -9.1048    4.6596    0.0683 H   0  0  0  0  0  0  0  0  0  0  0  0
   -8.7542    4.0140   -1.6197 H   0  0  0  0  0  0  0  0  0  0  0  0
   -6.6586    4.6808   -0.1678 H   0  0  0  0  0  0  0  0  0  0  0  0
   -7.6998    8.1218   -2.0061 H   0  0  0  0  0  0  0  0  0  0  0  0
   -6.5147    6.3816   -4.2557 H   0  0  0  0  0  0  0  0  0  0  0  0
   -7.1895    8.0637   -4.4158 H   0  0  0  0  0  0  0  0  0  0  0  0
   -4.7151    8.0448   -4.3969 H   0  0  0  0  0  0  0  0  0  0  0  0
   -5.4253    8.9397   -2.9968 H   0  0  0  0  0  0  0  0  0  0  0  0
   -3.5925    7.6063   -2.2091 H   0  0  0  0  0  0  0  0  0  0  0  0
   -4.8690    5.1790   -2.8740 H   0  0  0  0  0  0  0  0  0  0  0  0
   -5.3328    7.8110    0.7482 H   0  0  0  0  0  0  0  0  0  0  0  0
   -4.4821    8.7118   -0.5524 H   0  0  0  0  0  0  0  0  0  0  0  0
   -6.2758    8.6146   -0.5524 H   0  0  0  0  0  0  0  0  0  0  0  0
   -4.5991    5.9505    0.7310 H   0  0  0  0  0  0  0  0  0  0  0  0
   -4.7709    4.7407   -0.5856 H   0  0  0  0  0  0  0  0  0  0  0  0
   -3.3793    5.8766   -0.5856 H   0  0  0  0  0  0  0  0  0  0  0  0
   -8.8874    4.5689   -3.5182 H   0  0  0  0  0  0  0  0  0  0  0  0
   -9.8361    5.6663   -4.5776 H   0  0  0  0  0  0  0  0  0  0  0  0
   -8.0416    5.7475   -4.5776 H   0  0  0  0  0  0  0  0  0  0  0  0
   -9.1586    8.4989   -3.9286 H   0  0  0  0  0  0  0  0  0  0  0  0
  -10.6352    7.3790   -3.9581 H   0  0  0  0  0  0  0  0  0  0  0  0
   -9.8200    9.3069   -1.7663 H   0  0  0  0  0  0  0  0  0  0  0  0
  -11.2715    9.3685   -2.8418 H   0  0  0  0  0  0  0  0  0  0  0  0
  -13.1345    6.5802   -1.4333 H   0  0  0  0  0  0  0  0  0  0  0  0
  -12.9967    7.7752   -2.7673 H   0  0  0  0  0  0  0  0  0  0  0  0
  -11.9633    6.3059   -2.7673 H   0  0  0  0  0  0  0  0  0  0  0  0
  1  2  1  0
  2  3  1  0
  3  4  1  0
  4  5  1  0
  5  6  1  0
  6  7  1  0
  7  8  1  0
  7  9  1  0
  2 10  1  0
 10 11  1  0
 11 12  1  0
 12 13  1  0
 13 14  1  1
 13 15  1  0
 15 16  1  0
 16 17  1  0
 17 18  2  0
 18 19  1  0
 19 20  1  0
 20 21  1  0
 21 22  1  0
 22 23  1  0
 22 24  1  0
 24 25  1  0
 24 26  1  0
 19 27  1  0
 27 28  1  6
 27 29  1  0
 29 30  1  0
 30 31  1  0
 31 32  1  6
  7  5  1  0
 31 10  1  0
 31 13  1  0
 27 15  1  0
 24 18  1  0
  1 33  1  0
  1 34  1  0
  1 35  1  0
  2 36  1  6
  3 37  1  0
  3 38  1  0
  4 39  1  0
  4 40  1  0
  5 41  1  6
  8 42  1  0
  8 43  1  0
  8 44  1  0
  9 45  1  0
  9 46  1  0
  9 47  1  0
 10 48  1  1
 11 49  1  0
 11 50  1  0
 12 51  1  0
 12 52  1  0
 14 53  1  0
 14 54  1  0
 14 55  1  0
 15 56  1  6
 16 57  1  0
 16 58  1  0
 17 59  1  0
 19 60  1  1
 20 61  1  0
 20 62  1  0
 21 63  1  0
 21 64  1  0
 22 65  1  1
 23 66  1  0
 25 67  1  0
 25 68  1  0
 25 69  1  0
 26 70  1  0
 26 71  1  0
 26 72  1  0
 28 73  1  0
 28 74  1  0
 28 75  1  0
 29 76  1  0
 29 77  1  0
 30 78  1  0
 30 79  1  0
 32 80  1  0
 32 81  1  0
 32 82  1  0
M  END
>  <meeko>  (11) 
{"is_sidechain": [false], "intermolecular_energy": 2.731, "internal_energy": -0.839}

$$$$
EPH_relaxed_0001_pdb2pqr_Repair_337_r2_0001_out
     RDKit          3D

 82 86  0  0  0  0  0  0  0  0999 V2000
    1.4300   16.7410   -5.9640 C   0  0  0  0  0  0  0  0  0  0  0  0
    0.0800   16.0700   -5.6970 C   0  0  2  0  0  0  0  0  0  0  0  0
   -0.6950   16.7580   -4.5550 C   0  0  0  0  0  0  0  0  0  0  0  0
    0.1280   17.8020   -3.7950 C   0  0  0  0  0  0  0  0  0  0  0  0
   -0.7100   18.9750   -3.3830 C   0  0  2  0  0  0  0  0  0  0  0  0
    0.0150   20.0310   -2.7390 O   0  0  0  0  0  0  0  0  0  0  0  0
   -0.9660   19.3530   -1.9360 C   0  0  0  0  0  0  0  0  0  0  0  0
   -0.3860   18.5590   -0.8080 C   0  0  0  0  0  0  0  0  0  0  0  0
   -2.1660   20.1890   -1.6170 C   0  0  0  0  0  0  0  0  0  0  0  0
    0.2880   14.5960   -5.3710 C   0  0  1  0  0  0  0  0  0  0  0  0
    1.3220   13.9170   -6.3090 C   0  0  0  0  0  0  0  0  0  0  0  0
    2.0830   12.8720   -5.4540 C   0  0  0  0  0  0  0  0  0  0  0  0
    1.2500   12.7480   -4.1570 C   0  0  1  0  0  0  0  0  0  0  0  0
    0.0800   11.7820   -4.5220 C   0  0  0  0  0  0  0  0  0  0  0  0
    2.0200   12.2660   -2.8840 C   0  0  2  0  0  0  0  0  0  0  0  0
    2.6170   10.8510   -2.9800 C   0  0  0  0  0  0  0  0  0  0  0  0
    1.7240    9.7490   -2.5130 C   0  0  0  0  0  0  0  0  0  0  0  0
    0.6090    9.9060   -1.7750 C   0  0  0  0  0  0  0  0  0  0  0  0
    0.1990   11.2880   -1.2510 C   0  0  1  0  0  0  0  0  0  0  0  0
   -0.1900   11.1790    0.2470 C   0  0  0  0  0  0  0  0  0  0  0  0
   -1.2580   10.1190    0.4980 C   0  0  0  0  0  0  0  0  0  0  0  0
   -0.7910    8.7490    0.0170 C   0  0  2  0  0  0  0  0  0  0  0  0
    0.3040    8.3220    0.8340 O   0  0  0  0  0  0  0  0  0  0  0  0
   -0.3630    8.7370   -1.4770 C   0  0  0  0  0  0  0  0  0  0  0  0
   -1.6120    8.9020   -2.3780 C   0  0  0  0  0  0  0  0  0  0  0  0
    0.2200    7.3340   -1.7960 C   0  0  0  0  0  0  0  0  0  0  0  0
    1.2260   12.4680   -1.5300 C   0  0  1  0  0  0  0  0  0  0  0  0
    2.2920   12.5260   -0.3940 C   0  0  0  0  0  0  0  0  0  0  0  0
    0.4560   13.8410   -1.4880 C   0  0  0  0  0  0  0  0  0  0  0  0
   -0.1810   14.3210   -2.8060 C   0  0  0  0  0  0  0  0  0  0  0  0
    0.8240   14.2480   -3.9600 C   0  0  2  0  0  0  0  0  0  0  0  0
    2.0020   15.2270   -3.6300 C   0  0  0  0  0  0  0  0  0  0  0  0
    1.9153   16.9822   -5.0067 H   0  0  0  0  0  0  0  0  0  0  0  0
    2.0721   16.0572   -6.5385 H   0  0  0  0  0  0  0  0  0  0  0  0
    1.2726   17.6657   -6.5385 H   0  0  0  0  0  0  0  0  0  0  0  0
   -0.5243   16.1671   -6.6110 H   0  0  0  0  0  0  0  0  0  0  0  0
   -1.5767   17.2561   -4.9844 H   0  0  0  0  0  0  0  0  0  0  0  0
   -0.9664   15.9742   -3.8325 H   0  0  0  0  0  0  0  0  0  0  0  0
    0.5538   17.3343   -2.8950 H   0  0  0  0  0  0  0  0  0  0  0  0
    0.9225   18.1656   -4.4633 H   0  0  0  0  0  0  0  0  0  0  0  0
   -1.3874   18.8213   -4.2359 H   0  0  0  0  0  0  0  0  0  0  0  0
   -0.7050   18.9957    0.1499 H   0  0  0  0  0  0  0  0  0  0  0  0
   -0.7386   17.5190   -0.8723 H   0  0  0  0  0  0  0  0  0  0  0  0
    0.7119   18.5786   -0.8723 H   0  0  0  0  0  0  0  0  0  0  0  0
   -2.2786   20.2674   -0.5256 H   0  0  0  0  0  0  0  0  0  0  0  0
   -2.0372   21.1939   -2.0455 H   0  0  0  0  0  0  0  0  0  0  0  0
   -3.0640   19.7200   -2.0455 H   0  0  0  0  0  0  0  0  0  0  0  0
   -0.7455   14.2357   -5.4805 H   0  0  0  0  0  0  0  0  0  0  0  0
    0.8067   13.4201   -7.1442 H   0  0  0  0  0  0  0  0  0  0  0  0
    2.0143   14.6578   -6.7356 H   0  0  0  0  0  0  0  0  0  0  0  0
    2.1339   11.9055   -5.9767 H   0  0  0  0  0  0  0  0  0  0  0  0
    3.1222   13.1728   -5.2552 H   0  0  0  0  0  0  0  0  0  0  0  0
   -0.3820   11.4006   -3.5994 H   0  0  0  0  0  0  0  0  0  0  0  0
   -0.6732   12.3248   -5.1119 H   0  0  0  0  0  0  0  0  0  0  0  0
    0.4704   10.9397   -5.1119 H   0  0  0  0  0  0  0  0  0  0  0  0
    2.8795   12.9519   -2.8545 H   0  0  0  0  0  0  0  0  0  0  0  0
    2.8706   10.6598   -4.0332 H   0  0  0  0  0  0  0  0  0  0  0  0
    3.4882   10.8420   -2.3085 H   0  0  0  0  0  0  0  0  0  0  0  0
    2.0005    8.7226   -2.7958 H   0  0  0  0  0  0  0  0  0  0  0  0
   -0.6771   11.5902   -1.8435 H   0  0  0  0  0  0  0  0  0  0  0  0
    0.7080   10.9190    0.8266 H   0  0  0  0  0  0  0  0  0  0  0  0
   -0.6040   12.1501    0.5562 H   0  0  0  0  0  0  0  0  0  0  0  0
   -1.4690   10.0691    1.5764 H   0  0  0  0  0  0  0  0  0  0  0  0
   -2.1650   10.3960   -0.0594 H   0  0  0  0  0  0  0  0  0  0  0  0
   -1.6445    8.0606    0.1044 H   0  0  0  0  0  0  0  0  0  0  0  0
    0.1590    7.3860    1.0540 H   0  0  0  0  0  0  0  0  0  0  0  0
   -2.5058    9.0201   -1.7477 H   0  0  0  0  0  0  0  0  0  0  0  0
   -1.4910    9.7920   -3.0131 H   0  0  0  0  0  0  0  0  0  0  0  0
   -1.7263    8.0111   -3.0131 H   0  0  0  0  0  0  0  0  0  0  0  0
    0.4395    6.8058   -0.8564 H   0  0  0  0  0  0  0  0  0  0  0  0
   -0.5126    6.7564   -2.3788 H   0  0  0  0  0  0  0  0  0  0  0  0
    1.1462    7.4457   -2.3788 H   0  0  0  0  0  0  0  0  0  0  0  0
    1.7881   12.4986    0.5834 H   0  0  0  0  0  0  0  0  0  0  0  0
    2.9688   11.6634   -0.4819 H   0  0  0  0  0  0  0  0  0  0  0  0
    2.8712   13.4570   -0.4819 H   0  0  0  0  0  0  0  0  0  0  0  0
   -0.3488   13.7485   -0.7438 H   0  0  0  0  0  0  0  0  0  0  0  0
    1.2219   14.5932   -1.2479 H   0  0  0  0  0  0  0  0  0  0  0  0
   -1.0456   13.6828   -3.0410 H   0  0  0  0  0  0  0  0  0  0  0  0
   -0.4968   15.3674   -2.6819 H   0  0  0  0  0  0  0  0  0  0  0  0
    2.1097   15.3165   -2.5389 H   0  0  0  0  0  0  0  0  0  0  0  0
    2.9357   14.8352   -4.0597 H   0  0  0  0  0  0  0  0  0  0  0  0
    1.7876   16.2166   -4.0597 H   0  0  0  0  0  0  0  0  0  0  0  0
  1  2  1  0
  2  3  1  0
  3  4  1  0
  4  5  1  0
  5  6  1  0
  6  7  1  0
  7  8  1  0
  7  9  1  0
  2 10  1  0
 10 11  1  0
 11 12  1  0
 12 13  1  0
 13 14  1  6
 13 15  1  0
 15 16  1  0
 16 17  1  0
 17 18  2  0
 18 19  1  0
 19 20  1  0
 20 21  1  0
 21 22  1  0
 22 23  1  0
 22 24  1  0
 24 25  1  0
 24 26  1  0
 19 27  1  0
 27 28  1  1
 27 29  1  0
 29 30  1  0
 30 31  1  0
 31 32  1  1
  7  5  1  0
 31 10  1  0
 31 13  1  0
 27 15  1  0
 24 18  1  0
  1 33  1  0
  1 34  1  0
  1 35  1  0
  2 36  1  6
  3 37  1  0
  3 38  1  0
  4 39  1  0
  4 40  1  0
  5 41  1  6
  8 42  1  0
  8 43  1  0
  8 44  1  0
  9 45  1  0
  9 46  1  0
  9 47  1  0
 10 48  1  1
 11 49  1  0
 11 50  1  0
 12 51  1  0
 12 52  1  0
 14 53  1  0
 14 54  1  0
 14 55  1  0
 15 56  1  1
 16 57  1  0
 16 58  1  0
 17 59  1  0
 19 60  1  6
 20 61  1  0
 20 62  1  0
 21 63  1  0
 21 64  1  0
 22 65  1  6
 23 66  1  0
 25 67  1  0
 25 68  1  0
 25 69  1  0
 26 70  1  0
 26 71  1  0
 26 72  1  0
 28 73  1  0
 28 74  1  0
 28 75  1  0
 29 76  1  0
 29 77  1  0
 30 78  1  0
 30 79  1  0
 32 80  1  0
 32 81  1  0
 32 82  1  0
M  END
>  <meeko>  (12) 
{"is_sidechain": [false], "intermolecular_energy": 2.731, "internal_energy": -0.839}

$$$$
EPH_relaxed_0001_pdb2pqr_Repair_337_r2_0001_out
     RDKit          3D

 82 86  0  0  0  0  0  0  0  0999 V2000
  -13.7520    5.5470    0.6360 C   0  0  0  0  0  0  0  0  0  0  0  0
  -13.5880    6.9960    0.1710 C   0  0  2  0  0  0  0  0  0  0  0  0
  -14.9050    7.5840   -0.3750 C   0  0  0  0  0  0  0  0  0  0  0  0
  -14.7170    8.4730   -1.6070 C   0  0  0  0  0  0  0  0  0  0  0  0
  -14.2420    9.8450   -1.2330 C   0  0  2  0  0  0  0  0  0  0  0  0
  -15.2870   10.7850   -0.9530 O   0  0  0  0  0  0  0  0  0  0  0  0
  -14.4660   11.0720   -2.0960 C   0  0  0  0  0  0  0  0  0  0  0  0
  -15.1910   10.9860   -3.4030 C   0  0  0  0  0  0  0  0  0  0  0  0
  -13.5650   12.2530   -1.9100 C   0  0  0  0  0  0  0  0  0  0  0  0
  -12.4990    7.0810   -0.8910 C   0  0  1  0  0  0  0  0  0  0  0  0
  -12.7860    8.1740   -1.9550 C   0  0  0  0  0  0  0  0  0  0  0  0
  -11.4150    8.7720   -2.3640 C   0  0  0  0  0  0  0  0  0  0  0  0
  -10.3720    7.7910   -1.7790 C   0  0  1  0  0  0  0  0  0  0  0  0
  -10.3070    6.6160   -2.8050 C   0  0  0  0  0  0  0  0  0  0  0  0
   -8.9540    8.3820   -1.4890 C   0  0  2  0  0  0  0  0  0  0  0  0
   -8.1990    8.9030   -2.7240 C   0  0  0  0  0  0  0  0  0  0  0  0
   -7.3320    7.9010   -3.4110 C   0  0  0  0  0  0  0  0  0  0  0  0
   -6.9420    6.7200   -2.8960 C   0  0  0  0  0  0  0  0  0  0  0  0
   -7.2980    6.3330   -1.4550 C   0  0  1  0  0  0  0  0  0  0  0  0
   -6.0400    5.7700   -0.7430 C   0  0  0  0  0  0  0  0  0  0  0  0
   -5.3970    4.6210   -1.5140 C   0  0  0  0  0  0  0  0  0  0  0  0
   -5.0040    5.0610   -2.9220 C   0  0  2  0  0  0  0  0  0  0  0  0
   -3.9540    6.0290   -2.8260 O   0  0  0  0  0  0  0  0  0  0  0  0
   -6.1900    5.6550   -3.7320 C   0  0  0  0  0  0  0  0  0  0  0  0
   -7.1880    4.5280   -4.0950 C   0  0  0  0  0  0  0  0  0  0  0  0
   -5.6290    6.1880   -5.0780 C   0  0  0  0  0  0  0  0  0  0  0  0
   -8.0340    7.4520   -0.5990 C   0  0  1  0  0  0  0  0  0  0  0  0
   -6.9820    8.3830    0.0780 C   0  0  0  0  0  0  0  0  0  0  0  0
   -8.8330    6.7620    0.5700 C   0  0  0  0  0  0  0  0  0  0  0  0
  -10.2710    6.3070    0.2550 C   0  0  0  0  0  0  0  0  0  0  0  0
  -11.0670    7.4310   -0.4160 C   0  0  2  0  0  0  0  0  0  0  0  0
  -11.1670    8.6190    0.6020 C   0  0  0  0  0  0  0  0  0  0  0  0
  -13.7559    5.5130    1.7355 H   0  0  0  0  0  0  0  0  0  0  0  0
  -14.7015    5.1443    0.2534 H   0  0  0  0  0  0  0  0  0  0  0  0
  -12.9166    4.9423    0.2534 H   0  0  0  0  0  0  0  0  0  0  0  0
  -13.2990    7.5940    1.0479 H   0  0  0  0  0  0  0  0  0  0  0  0
  -15.5713    6.7516   -0.6456 H   0  0  0  0  0  0  0  0  0  0  0  0
  -15.3274    8.2184    0.4182 H   0  0  0  0  0  0  0  0  0  0  0  0
  -13.9749    8.0078   -2.2725 H   0  0  0  0  0  0  0  0  0  0  0  0
  -15.6901    8.5722   -2.1103 H   0  0  0  0  0  0  0  0  0  0  0  0
  -13.3392    9.4292   -0.7618 H   0  0  0  0  0  0  0  0  0  0  0  0
  -16.2677   10.8583   -3.2173 H   0  0  0  0  0  0  0  0  0  0  0  0
  -15.0248   11.9102   -3.9760 H   0  0  0  0  0  0  0  0  0  0  0  0
  -14.8132   10.1264   -3.9760 H   0  0  0  0  0  0  0  0  0  0  0  0
  -13.4225   12.4398   -0.8354 H   0  0  0  0  0  0  0  0  0  0  0  0
  -12.5912   12.0487   -2.3790 H   0  0  0  0  0  0  0  0  0  0  0  0
  -14.0193   13.1383   -2.3790 H   0  0  0  0  0  0  0  0  0  0  0  0
  -12.5284    6.0477   -1.2671 H   0  0  0  0  0  0  0  0  0  0  0  0
  -13.2815    7.7293   -2.8306 H   0  0  0  0  0  0  0  0  0  0  0  0
  -13.4515    8.9518   -1.5523 H   0  0  0  0  0  0  0  0  0  0  0  0
  -11.3259    8.8261   -3.4591 H   0  0  0  0  0  0  0  0  0  0  0  0
  -11.2788    9.7976   -1.9905 H   0  0  0  0  0  0  0  0  0  0  0  0
  -10.2541    5.6596   -2.2643 H   0  0  0  0  0  0  0  0  0  0  0  0
  -11.2073    6.6307   -3.4368 H   0  0  0  0  0  0  0  0  0  0  0  0
   -9.4138    6.7299   -3.4368 H   0  0  0  0  0  0  0  0  0  0  0  0
   -9.1882    9.2712   -0.8853 H   0  0  0  0  0  0  0  0  0  0  0  0
   -8.9427    9.2635   -3.4499 H   0  0  0  0  0  0  0  0  0  0  0  0
   -7.5232    9.6899   -2.3579 H   0  0  0  0  0  0  0  0  0  0  0  0
   -6.9820    8.1486   -4.4240 H   0  0  0  0  0  0  0  0  0  0  0  0
   -8.0650    5.5483   -1.5318 H   0  0  0  0  0  0  0  0  0  0  0  0
   -5.3029    6.5796   -0.6367 H   0  0  0  0  0  0  0  0  0  0  0  0
   -6.3564    5.3799    0.2356 H   0  0  0  0  0  0  0  0  0  0  0  0
   -4.4971    4.2863   -0.9771 H   0  0  0  0  0  0  0  0  0  0  0  0
   -6.1253    3.8004   -1.5931 H   0  0  0  0  0  0  0  0  0  0  0  0
   -4.6703    4.1653   -3.4664 H   0  0  0  0  0  0  0  0  0  0  0  0
   -3.1090    5.5570   -2.9220 H   0  0  0  0  0  0  0  0  0  0  0  0
   -7.5855    4.0791   -3.1728 H   0  0  0  0  0  0  0  0  0  0  0  0
   -8.0161    4.9476   -4.6851 H   0  0  0  0  0  0  0  0  0  0  0  0
   -6.6713    3.7567   -4.6851 H   0  0  0  0  0  0  0  0  0  0  0  0
   -4.8447    6.9332   -4.8790 H   0  0  0  0  0  0  0  0  0  0  0  0
   -5.2038    5.3531   -5.6543 H   0  0  0  0  0  0  0  0  0  0  0  0
   -6.4410    6.6554   -5.6543 H   0  0  0  0  0  0  0  0  0  0  0  0
   -7.0718    8.3035    1.1714 H   0  0  0  0  0  0  0  0  0  0  0  0
   -5.9708    8.0785   -0.2299 H   0  0  0  0  0  0  0  0  0  0  0  0
   -7.1613    9.4237   -0.2299 H   0  0  0  0  0  0  0  0  0  0  0  0
   -8.2641    5.8741    0.8831 H   0  0  0  0  0  0  0  0  0  0  0  0
   -8.9394    7.5376    1.3427 H   0  0  0  0  0  0  0  0  0  0  0  0
  -10.2342    5.4394   -0.4203 H   0  0  0  0  0  0  0  0  0  0  0  0
  -10.7690    6.0395    1.1986 H   0  0  0  0  0  0  0  0  0  0  0  0
  -11.1339    8.2258    1.6288 H   0  0  0  0  0  0  0  0  0  0  0  0
  -10.3237    9.3077    0.4458 H   0  0  0  0  0  0  0  0  0  0  0  0
  -12.1136    9.1571    0.4458 H   0  0  0  0  0  0  0  0  0  0  0  0
  1  2  1  0
  2  3  1  0
  3  4  1  0
  4  5  1  0
  5  6  1  0
  6  7  1  0
  7  8  1  0
  7  9  1  0
  2 10  1  0
 10 11  1  0
 11 12  1  0
 12 13  1  0
 13 14  1  6
 13 15  1  0
 15 16  1  0
 16 17  1  0
 17 18  2  0
 18 19  1  0
 19 20  1  0
 20 21  1  0
 21 22  1  0
 22 23  1  0
 22 24  1  0
 24 25  1  0
 24 26  1  0
 19 27  1  0
 27 28  1  1
 27 29  1  0
 29 30  1  0
 30 31  1  0
 31 32  1  1
  7  5  1  0
 31 10  1  0
 31 13  1  0
 27 15  1  0
 24 18  1  0
  1 33  1  0
  1 34  1  0
  1 35  1  0
  2 36  1  1
  3 37  1  0
  3 38  1  0
  4 39  1  0
  4 40  1  0
  5 41  1  1
  8 42  1  0
  8 43  1  0
  8 44  1  0
  9 45  1  0
  9 46  1  0
  9 47  1  0
 10 48  1  6
 11 49  1  0
 11 50  1  0
 12 51  1  0
 12 52  1  0
 14 53  1  0
 14 54  1  0
 14 55  1  0
 15 56  1  1
 16 57  1  0
 16 58  1  0
 17 59  1  0
 19 60  1  6
 20 61  1  0
 20 62  1  0
 21 63  1  0
 21 64  1  0
 22 65  1  6
 23 66  1  0
 25 67  1  0
 25 68  1  0
 25 69  1  0
 26 70  1  0
 26 71  1  0
 26 72  1  0
 28 73  1  0
 28 74  1  0
 28 75  1  0
 29 76  1  0
 29 77  1  0
 30 78  1  0
 30 79  1  0
 32 80  1  0
 32 81  1  0
 32 82  1  0
M  END
>  <meeko>  (13) 
{"is_sidechain": [false], "intermolecular_energy": 2.731, "internal_energy": -0.839}

$$$$
EPH_relaxed_0001_pdb2pqr_Repair_337_r2_0001_out
     RDKit          3D

 82 86  0  0  0  0  0  0  0  0999 V2000
   -1.3230   10.4580    1.5950 C   0  0  0  0  0  0  0  0  0  0  0  0
   -2.0490   10.1250    0.2890 C   0  0  2  0  0  0  0  0  0  0  0  0
   -2.9620    8.8910    0.4310 C   0  0  0  0  0  0  0  0  0  0  0  0
   -4.2320    8.9630   -0.4210 C   0  0  0  0  0  0  0  0  0  0  0  0
   -4.7250    7.5990   -0.7990 C   0  0  2  0  0  0  0  0  0  0  0  0
   -4.8270    7.3690   -2.2100 O   0  0  0  0  0  0  0  0  0  0  0  0
   -6.0610    7.3490   -1.4730 C   0  0  0  0  0  0  0  0  0  0  0  0
   -6.9880    8.4750   -1.8090 C   0  0  0  0  0  0  0  0  0  0  0  0
   -6.6750    5.9890   -1.3620 C   0  0  0  0  0  0  0  0  0  0  0  0
   -1.0360    9.8970   -0.8260 C   0  0  1  0  0  0  0  0  0  0  0  0
   -1.6300    9.1040   -2.0210 C   0  0  0  0  0  0  0  0  0  0  0  0
   -0.9650    9.6640   -3.3040 C   0  0  0  0  0  0  0  0  0  0  0  0
    0.2180   10.5170   -2.7910 C   0  0  1  0  0  0  0  0  0  0  0  0
    1.3560    9.4900   -2.4980 C   0  0  0  0  0  0  0  0  0  0  0  0
    0.7050   11.6640   -3.7350 C   0  0  2  0  0  0  0  0  0  0  0  0
    1.2540   11.2000   -5.0960 C   0  0  0  0  0  0  0  0  0  0  0  0
    2.7210   10.9290   -5.1320 C   0  0  0  0  0  0  0  0  0  0  0  0
    3.6130   11.3210   -4.2030 C   0  0  0  0  0  0  0  0  0  0  0  0
    3.1830   12.2010   -3.0220 C   0  0  1  0  0  0  0  0  0  0  0  0
    4.1970   13.3620   -2.8460 C   0  0  0  0  0  0  0  0  0  0  0  0
    5.6350   12.8680   -2.7130 C   0  0  0  0  0  0  0  0  0  0  0  0
    6.0430   12.0460   -3.9330 C   0  0  2  0  0  0  0  0  0  0  0  0
    6.0890   12.9070   -5.0750 O   0  0  0  0  0  0  0  0  0  0  0  0
    5.0890   10.8530   -4.2150 C   0  0  0  0  0  0  0  0  0  0  0  0
    5.2660    9.7730   -3.1190 C   0  0  0  0  0  0  0  0  0  0  0  0
    5.5310   10.1930   -5.5500 C   0  0  0  0  0  0  0  0  0  0  0  0
    1.6760   12.7050   -3.0440 C   0  0  1  0  0  0  0  0  0  0  0  0
    1.5690   14.0270   -3.8650 C   0  0  0  0  0  0  0  0  0  0  0  0
    1.2300   13.0570   -1.5760 C   0  0  0  0  0  0  0  0  0  0  0  0
    0.6460   11.9070   -0.7330 C   0  0  0  0  0  0  0  0  0  0  0  0
   -0.4360   11.1520   -1.5100 C   0  0  2  0  0  0  0  0  0  0  0  0
   -1.6050   12.1550   -1.7990 C   0  0  0  0  0  0  0  0  0  0  0  0
   -1.9533   10.1689    2.4489 H   0  0  0  0  0  0  0  0  0  0  0  0
   -0.3726    9.9058    1.6373 H   0  0  0  0  0  0  0  0  0  0  0  0
   -1.1215   11.5386    1.6373 H   0  0  0  0  0  0  0  0  0  0  0  0
   -2.6898   10.9834    0.0390 H   0  0  0  0  0  0  0  0  0  0  0  0
   -2.3914    8.0004    0.1290 H   0  0  0  0  0  0  0  0  0  0  0  0
   -3.2826    8.8479    1.4824 H   0  0  0  0  0  0  0  0  0  0  0  0
   -5.0165    9.4794    0.1517 H   0  0  0  0  0  0  0  0  0  0  0  0
   -3.9938    9.5095   -1.3454 H   0  0  0  0  0  0  0  0  0  0  0  0
   -4.2538    7.1566    0.0911 H   0  0  0  0  0  0  0  0  0  0  0  0
   -7.3631    8.9306   -0.8807 H   0  0  0  0  0  0  0  0  0  0  0  0
   -6.4477    9.2318   -2.3966 H   0  0  0  0  0  0  0  0  0  0  0  0
   -7.8345    8.0901   -2.3966 H   0  0  0  0  0  0  0  0  0  0  0  0
   -6.7938    5.7259   -0.3006 H   0  0  0  0  0  0  0  0  0  0  0  0
   -7.6599    5.9902   -1.8519 H   0  0  0  0  0  0  0  0  0  0  0  0
   -6.0227    5.2511   -1.8519 H   0  0  0  0  0  0  0  0  0  0  0  0
   -0.2557    9.3673   -0.2598 H   0  0  0  0  0  0  0  0  0  0  0  0
   -1.4045    8.0327   -1.9142 H   0  0  0  0  0  0  0  0  0  0  0  0
   -2.7237    9.2135   -2.0630 H   0  0  0  0  0  0  0  0  0  0  0  0
   -0.6043    8.8448   -3.9434 H   0  0  0  0  0  0  0  0  0  0  0  0
   -1.6670   10.2500   -3.9154 H   0  0  0  0  0  0  0  0  0  0  0  0
    1.4788    9.3792   -1.4105 H   0  0  0  0  0  0  0  0  0  0  0  0
    1.0939    8.5167   -2.9385 H   0  0  0  0  0  0  0  0  0  0  0  0
    2.2974    9.8503   -2.9385 H   0  0  0  0  0  0  0  0  0  0  0  0
   -0.2299   12.1995   -3.9568 H   0  0  0  0  0  0  0  0  0  0  0  0
    0.7302   10.2742   -5.3762 H   0  0  0  0  0  0  0  0  0  0  0  0
    1.0808   12.0323   -5.7941 H   0  0  0  0  0  0  0  0  0  0  0  0
    3.1065   10.3603   -5.9911 H   0  0  0  0  0  0  0  0  0  0  0  0
    3.2021   11.5502   -2.1354 H   0  0  0  0  0  0  0  0  0  0  0  0
    4.1311   14.0236   -3.7223 H   0  0  0  0  0  0  0  0  0  0  0  0
    3.9391   13.8927   -1.9177 H   0  0  0  0  0  0  0  0  0  0  0  0
    6.3065   13.7344   -2.6214 H   0  0  0  0  0  0  0  0  0  0  0  0
    5.7067   12.2305   -1.8194 H   0  0  0  0  0  0  0  0  0  0  0  0
    7.0320   11.6127   -3.7229 H   0  0  0  0  0  0  0  0  0  0  0  0
    5.2510   12.8010   -5.5570 H   0  0  0  0  0  0  0  0  0  0  0  0
    5.1892   10.2415   -2.1267 H   0  0  0  0  0  0  0  0  0  0  0  0
    4.4809    9.0100   -3.2259 H   0  0  0  0  0  0  0  0  0  0  0  0
    6.2536    9.3005   -3.2259 H   0  0  0  0  0  0  0  0  0  0  0  0
    6.1313    9.2967   -5.3348 H   0  0  0  0  0  0  0  0  0  0  0  0
    4.6411    9.9077   -6.1303 H   0  0  0  0  0  0  0  0  0  0  0  0
    6.1336   10.9072   -6.1303 H   0  0  0  0  0  0  0  0  0  0  0  0
    1.4998   14.8818   -3.1762 H   0  0  0  0  0  0  0  0  0  0  0  0
    2.4611   14.1382   -4.4989 H   0  0  0  0  0  0  0  0  0  0  0  0
    0.6706   13.9933   -4.4989 H   0  0  0  0  0  0  0  0  0  0  0  0
    2.1114   13.4451   -1.0444 H   0  0  0  0  0  0  0  0  0  0  0  0
    0.4065   13.7773   -1.6901 H   0  0  0  0  0  0  0  0  0  0  0  0
    1.4535   11.2081   -0.4694 H   0  0  0  0  0  0  0  0  0  0  0  0
    0.1933   12.3326    0.1747 H   0  0  0  0  0  0  0  0  0  0  0  0
   -2.0236   12.5142   -0.8473 H   0  0  0  0  0  0  0  0  0  0  0  0
   -1.2211   13.0090   -2.3763 H   0  0  0  0  0  0  0  0  0  0  0  0
   -2.3908   11.6458   -2.3763 H   0  0  0  0  0  0  0  0  0  0  0  0
  1  2  1  0
  2  3  1  0
  3  4  1  0
  4  5  1  0
  5  6  1  0
  6  7  1  0
  7  8  1  0
  7  9  1  0
  2 10  1  0
 10 11  1  0
 11 12  1  0
 12 13  1  0
 13 14  1  1
 13 15  1  0
 15 16  1  0
 16 17  1  0
 17 18  2  0
 18 19  1  0
 19 20  1  0
 20 21  1  0
 21 22  1  0
 22 23  1  0
 22 24  1  0
 24 25  1  0
 24 26  1  0
 19 27  1  0
 27 28  1  6
 27 29  1  0
 29 30  1  0
 30 31  1  0
 31 32  1  6
  7  5  1  0
 31 10  1  0
 31 13  1  0
 27 15  1  0
 24 18  1  0
  1 33  1  0
  1 34  1  0
  1 35  1  0
  2 36  1  6
  3 37  1  0
  3 38  1  0
  4 39  1  0
  4 40  1  0
  5 41  1  1
  8 42  1  0
  8 43  1  0
  8 44  1  0
  9 45  1  0
  9 46  1  0
  9 47  1  0
 10 48  1  1
 11 49  1  0
 11 50  1  0
 12 51  1  0
 12 52  1  0
 14 53  1  0
 14 54  1  0
 14 55  1  0
 15 56  1  6
 16 57  1  0
 16 58  1  0
 17 59  1  0
 19 60  1  1
 20 61  1  0
 20 62  1  0
 21 63  1  0
 21 64  1  0
 22 65  1  1
 23 66  1  0
 25 67  1  0
 25 68  1  0
 25 69  1  0
 26 70  1  0
 26 71  1  0
 26 72  1  0
 28 73  1  0
 28 74  1  0
 28 75  1  0
 29 76  1  0
 29 77  1  0
 30 78  1  0
 30 79  1  0
 32 80  1  0
 32 81  1  0
 32 82  1  0
M  END
>  <meeko>  (14) 
{"is_sidechain": [false], "intermolecular_energy": 2.731, "internal_energy": -0.839}

$$$$
EPH_relaxed_0001_pdb2pqr_Repair_337_r2_0001_out
     RDKit          3D

 82 86  0  0  0  0  0  0  0  0999 V2000
    1.1120   13.6670   -4.4130 C   0  0  0  0  0  0  0  0  0  0  0  0
    1.4410   12.9770   -3.0870 C   0  0  2  0  0  0  0  0  0  0  0  0
    2.9600   12.8500   -2.8590 C   0  0  0  0  0  0  0  0  0  0  0  0
    3.5870   11.6360   -3.5490 C   0  0  0  0  0  0  0  0  0  0  0  0
    5.0470   11.5110   -3.2320 C   0  0  2  0  0  0  0  0  0  0  0  0
    5.9020   12.3680   -4.0010 O   0  0  0  0  0  0  0  0  0  0  0  0
    6.0690   10.9550   -4.2060 C   0  0  0  0  0  0  0  0  0  0  0  0
    5.6730   10.4880   -5.5720 C   0  0  0  0  0  0  0  0  0  0  0  0
    7.3560   10.4160   -3.6630 C   0  0  0  0  0  0  0  0  0  0  0  0
    0.7910   11.5990   -3.0430 C   0  0  1  0  0  0  0  0  0  0  0  0
    1.8310   10.4510   -2.9400 C   0  0  0  0  0  0  0  0  0  0  0  0
    1.1910    9.3450   -2.0620 C   0  0  0  0  0  0  0  0  0  0  0  0
   -0.3020    9.7380   -1.9660 C   0  0  1  0  0  0  0  0  0  0  0  0
   -0.9380    9.2260   -3.2960 C   0  0  0  0  0  0  0  0  0  0  0  0
   -1.0770    9.2100   -0.7140 C   0  0  2  0  0  0  0  0  0  0  0  0
   -1.1750    7.6790   -0.6060 C   0  0  0  0  0  0  0  0  0  0  0  0
   -2.3730    7.0690   -1.2560 C   0  0  0  0  0  0  0  0  0  0  0  0
   -3.4730    7.7370   -1.6510 C   0  0  0  0  0  0  0  0  0  0  0  0
   -3.6290    9.2360   -1.3670 C   0  0  1  0  0  0  0  0  0  0  0  0
   -5.0480    9.5120   -0.8040 C   0  0  0  0  0  0  0  0  0  0  0  0
   -6.1510    8.9720   -1.7080 C   0  0  0  0  0  0  0  0  0  0  0  0
   -5.9960    7.4680   -1.9200 C   0  0  2  0  0  0  0  0  0  0  0  0
   -6.2260    6.8010   -0.6750 O   0  0  0  0  0  0  0  0  0  0  0  0
   -4.6000    7.0690   -2.4760 C   0  0  0  0  0  0  0  0  0  0  0  0
   -4.4720    7.5400   -3.9460 C   0  0  0  0  0  0  0  0  0  0  0  0
   -4.5250    5.5180   -2.5100 C   0  0  0  0  0  0  0  0  0  0  0  0
   -2.4840    9.8980   -0.4850 C   0  0  1  0  0  0  0  0  0  0  0  0
   -2.8170    9.7350    1.0290 C   0  0  0  0  0  0  0  0  0  0  0  0
   -2.4460   11.4460   -0.7690 C   0  0  0  0  0  0  0  0  0  0  0  0
   -1.5690   11.9160   -1.9440 C   0  0  0  0  0  0  0  0  0  0  0  0
   -0.1680   11.3010   -1.8630 C   0  0  2  0  0  0  0  0  0  0  0  0
    0.5050   11.8170   -0.5460 C   0  0  0  0  0  0  0  0  0  0  0  0
    0.6465   14.6433   -4.2127 H   0  0  0  0  0  0  0  0  0  0  0  0
    2.0372   13.8133   -4.9896 H   0  0  0  0  0  0  0  0  0  0  0  0
    0.4158   13.0402   -4.9896 H   0  0  0  0  0  0  0  0  0  0  0  0
    1.0376   13.6048   -2.2788 H   0  0  0  0  0  0  0  0  0  0  0  0
    3.4461   13.7582   -3.2449 H   0  0  0  0  0  0  0  0  0  0  0  0
    3.1126   12.7192   -1.7775 H   0  0  0  0  0  0  0  0  0  0  0  0
    3.0694   10.7265   -3.2100 H   0  0  0  0  0  0  0  0  0  0  0  0
    3.4820   11.7672   -4.6361 H   0  0  0  0  0  0  0  0  0  0  0  0
    4.8233   11.2732   -2.1816 H   0  0  0  0  0  0  0  0  0  0  0  0
    4.9639    9.6518   -5.4824 H   0  0  0  0  0  0  0  0  0  0  0  0
    5.1970   11.3154   -6.1187 H   0  0  0  0  0  0  0  0  0  0  0  0
    6.5671   10.1536   -6.1187 H   0  0  0  0  0  0  0  0  0  0  0  0
    7.3243   10.4293   -2.5635 H   0  0  0  0  0  0  0  0  0  0  0  0
    7.4977    9.3829   -4.0133 H   0  0  0  0  0  0  0  0  0  0  0  0
    8.1916   11.0398   -4.0133 H   0  0  0  0  0  0  0  0  0  0  0  0
    0.2270   11.6318   -3.9869 H   0  0  0  0  0  0  0  0  0  0  0  0
    2.0590   10.0555   -3.9408 H   0  0  0  0  0  0  0  0  0  0  0  0
    2.7728   10.8097   -2.4991 H   0  0  0  0  0  0  0  0  0  0  0  0
    1.3032    8.3590   -2.5366 H   0  0  0  0  0  0  0  0  0  0  0  0
    1.6670    9.2699   -1.0731 H   0  0  0  0  0  0  0  0  0  0  0  0
   -1.7759    8.5515   -3.0659 H   0  0  0  0  0  0  0  0  0  0  0  0
   -1.3064   10.0824   -3.8798 H   0  0  0  0  0  0  0  0  0  0  0  0
   -0.1800    8.6832   -3.8798 H   0  0  0  0  0  0  0  0  0  0  0  0
   -0.4287    9.5267    0.1163 H   0  0  0  0  0  0  0  0  0  0  0  0
   -0.2778    7.2472   -1.0735 H   0  0  0  0  0  0  0  0  0  0  0  0
   -1.2639    7.4548    0.4672 H   0  0  0  0  0  0  0  0  0  0  0  0
   -2.3552    5.9824   -1.4264 H   0  0  0  0  0  0  0  0  0  0  0  0
   -3.5064    9.7426   -2.3357 H   0  0  0  0  0  0  0  0  0  0  0  0
   -5.1350    9.0337    0.1827 H   0  0  0  0  0  0  0  0  0  0  0  0
   -5.1746   10.6027   -0.7378 H   0  0  0  0  0  0  0  0  0  0  0  0
   -7.1276    9.1711   -1.2425 H   0  0  0  0  0  0  0  0  0  0  0  0
   -6.0809    9.4731   -2.6847 H   0  0  0  0  0  0  0  0  0  0  0  0
   -6.7343    7.1633   -2.6764 H   0  0  0  0  0  0  0  0  0  0  0  0
   -5.4450    6.9450   -0.1150 H   0  0  0  0  0  0  0  0  0  0  0  0
   -4.1836    8.6013   -3.9672 H   0  0  0  0  0  0  0  0  0  0  0  0
   -3.7040    6.9411   -4.4574 H   0  0  0  0  0  0  0  0  0  0  0  0
   -5.4375    7.4121   -4.4574 H   0  0  0  0  0  0  0  0  0  0  0  0
   -4.5062    5.1292   -1.4812 H   0  0  0  0  0  0  0  0  0  0  0  0
   -5.4049    5.1198   -3.0364 H   0  0  0  0  0  0  0  0  0  0  0  0
   -3.6107    5.2066   -3.0364 H   0  0  0  0  0  0  0  0  0  0  0  0
   -1.9906   10.1395    1.6318 H   0  0  0  0  0  0  0  0  0  0  0  0
   -3.7426   10.2819    1.2618 H   0  0  0  0  0  0  0  0  0  0  0  0
   -2.9528    8.6685    1.2618 H   0  0  0  0  0  0  0  0  0  0  0  0
   -3.4767   11.7723   -0.9720 H   0  0  0  0  0  0  0  0  0  0  0  0
   -1.9888   11.8914    0.1269 H   0  0  0  0  0  0  0  0  0  0  0  0
   -2.0414   11.6119   -2.8897 H   0  0  0  0  0  0  0  0  0  0  0  0
   -1.4748   13.0109   -1.8953 H   0  0  0  0  0  0  0  0  0  0  0  0
   -0.0294   11.4072    0.3238 H   0  0  0  0  0  0  0  0  0  0  0  0
    1.5550   11.4903   -0.5185 H   0  0  0  0  0  0  0  0  0  0  0  0
    0.4620   12.9158   -0.5185 H   0  0  0  0  0  0  0  0  0  0  0  0
  1  2  1  0
  2  3  1  0
  3  4  1  0
  4  5  1  0
  5  6  1  0
  6  7  1  0
  7  8  1  0
  7  9  1  0
  2 10  1  0
 10 11  1  0
 11 12  1  0
 12 13  1  0
 13 14  1  6
 13 15  1  0
 15 16  1  0
 16 17  1  0
 17 18  2  0
 18 19  1  0
 19 20  1  0
 20 21  1  0
 21 22  1  0
 22 23  1  0
 22 24  1  0
 24 25  1  0
 24 26  1  0
 19 27  1  0
 27 28  1  1
 27 29  1  0
 29 30  1  0
 30 31  1  0
 31 32  1  1
  7  5  1  0
 31 10  1  0
 31 13  1  0
 27 15  1  0
 24 18  1  0
  1 33  1  0
  1 34  1  0
  1 35  1  0
  2 36  1  1
  3 37  1  0
  3 38  1  0
  4 39  1  0
  4 40  1  0
  5 41  1  1
  8 42  1  0
  8 43  1  0
  8 44  1  0
  9 45  1  0
  9 46  1  0
  9 47  1  0
 10 48  1  6
 11 49  1  0
 11 50  1  0
 12 51  1  0
 12 52  1  0
 14 53  1  0
 14 54  1  0
 14 55  1  0
 15 56  1  1
 16 57  1  0
 16 58  1  0
 17 59  1  0
 19 60  1  6
 20 61  1  0
 20 62  1  0
 21 63  1  0
 21 64  1  0
 22 65  1  6
 23 66  1  0
 25 67  1  0
 25 68  1  0
 25 69  1  0
 26 70  1  0
 26 71  1  0
 26 72  1  0
 28 73  1  0
 28 74  1  0
 28 75  1  0
 29 76  1  0
 29 77  1  0
 30 78  1  0
 30 79  1  0
 32 80  1  0
 32 81  1  0
 32 82  1  0
M  END
>  <meeko>  (15) 
{"is_sidechain": [false], "intermolecular_energy": 2.731, "internal_energy": -0.839}

$$$$
EPH_relaxed_0001_pdb2pqr_Repair_337_r2_0001_out
     RDKit          3D

 82 86  0  0  0  0  0  0  0  0999 V2000
  -13.6010   10.9920   -1.1520 C   0  0  0  0  0  0  0  0  0  0  0  0
  -13.2120    9.6720   -1.8220 C   0  0  2  0  0  0  0  0  0  0  0  0
  -14.3390    8.6230   -1.7380 C   0  0  0  0  0  0  0  0  0  0  0  0
  -15.2840    8.6370   -2.9420 C   0  0  0  0  0  0  0  0  0  0  0  0
  -15.0400    7.4700   -3.8510 C   0  0  2  0  0  0  0  0  0  0  0  0
  -13.8210    7.5410   -4.6030 O   0  0  0  0  0  0  0  0  0  0  0  0
  -15.0380    7.5750   -5.3650 C   0  0  0  0  0  0  0  0  0  0  0  0
  -15.2870    8.8780   -6.0570 C   0  0  0  0  0  0  0  0  0  0  0  0
  -15.2810    6.3350   -6.1680 C   0  0  0  0  0  0  0  0  0  0  0  0
  -11.9400    9.1210   -1.1870 C   0  0  1  0  0  0  0  0  0  0  0  0
  -12.1810    8.5520    0.2360 C   0  0  0  0  0  0  0  0  0  0  0  0
  -11.2330    7.3360    0.3980 C   0  0  0  0  0  0  0  0  0  0  0  0
  -10.2510    7.4460   -0.7920 C   0  0  1  0  0  0  0  0  0  0  0  0
   -9.1880    8.4960   -0.3400 C   0  0  0  0  0  0  0  0  0  0  0  0
   -9.5830    6.1130   -1.2620 C   0  0  2  0  0  0  0  0  0  0  0  0
   -8.6890    5.4270   -0.2140 C   0  0  0  0  0  0  0  0  0  0  0  0
   -7.2510    5.8290   -0.2410 C   0  0  0  0  0  0  0  0  0  0  0  0
   -6.6410    6.4860   -1.2450 C   0  0  0  0  0  0  0  0  0  0  0  0
   -7.3890    6.8050   -2.5460 C   0  0  1  0  0  0  0  0  0  0  0  0
   -6.4960    6.4370   -3.7600 C   0  0  0  0  0  0  0  0  0  0  0  0
   -5.1230    7.0980   -3.6980 C   0  0  0  0  0  0  0  0  0  0  0  0
   -4.3870    6.7100   -2.4180 C   0  0  2  0  0  0  0  0  0  0  0  0
   -4.0840    5.3120   -2.4670 O   0  0  0  0  0  0  0  0  0  0  0  0
   -5.1940    7.0250   -1.1280 C   0  0  0  0  0  0  0  0  0  0  0  0
   -5.2620    8.5580   -0.9180 C   0  0  0  0  0  0  0  0  0  0  0  0
   -4.4030    6.4560    0.0810 C   0  0  0  0  0  0  0  0  0  0  0  0
   -8.8580    6.2110   -2.6650 C   0  0  1  0  0  0  0  0  0  0  0  0
   -8.8000    4.7620   -3.2390 C   0  0  0  0  0  0  0  0  0  0  0  0
   -9.6760    7.0670   -3.7030 C   0  0  0  0  0  0  0  0  0  0  0  0
  -10.4120    8.3050   -3.1560 C   0  0  0  0  0  0  0  0  0  0  0  0
  -11.2330    7.9490   -1.9120 C   0  0  2  0  0  0  0  0  0  0  0  0
  -12.3250    6.9110   -2.3410 C   0  0  0  0  0  0  0  0  0  0  0  0
  -13.5659   10.8728   -0.0590 H   0  0  0  0  0  0  0  0  0  0  0  0
  -12.8968   11.7798   -1.4577 H   0  0  0  0  0  0  0  0  0  0  0  0
  -14.6199   11.2721   -1.4577 H   0  0  0  0  0  0  0  0  0  0  0  0
  -13.0352    9.8821   -2.8872 H   0  0  0  0  0  0  0  0  0  0  0  0
  -13.8805    7.6256   -1.6681 H   0  0  0  0  0  0  0  0  0  0  0  0
  -14.9430    8.8704   -0.8526 H   0  0  0  0  0  0  0  0  0  0  0  0
  -16.3223    8.5968   -2.5809 H   0  0  0  0  0  0  0  0  0  0  0  0
  -15.1006    9.5600   -3.5116 H   0  0  0  0  0  0  0  0  0  0  0  0
  -15.5605    6.7918   -3.1588 H   0  0  0  0  0  0  0  0  0  0  0  0
  -15.4381    9.6684   -5.3071 H   0  0  0  0  0  0  0  0  0  0  0  0
  -14.4208    9.1303   -6.6863 H   0  0  0  0  0  0  0  0  0  0  0  0
  -16.1852    8.7932   -6.6863 H   0  0  0  0  0  0  0  0  0  0  0  0
  -15.4475    5.4855   -5.4894 H   0  0  0  0  0  0  0  0  0  0  0  0
  -16.1684    6.4770   -6.8023 H   0  0  0  0  0  0  0  0  0  0  0  0
  -14.4056    6.1315   -6.8023 H   0  0  0  0  0  0  0  0  0  0  0  0
  -11.3098   10.0218   -1.2257 H   0  0  0  0  0  0  0  0  0  0  0  0
  -11.9504    9.3157    0.9934 H   0  0  0  0  0  0  0  0  0  0  0  0
  -13.2315    8.2544    0.3696 H   0  0  0  0  0  0  0  0  0  0  0  0
  -10.6920    7.3900    1.3542 H   0  0  0  0  0  0  0  0  0  0  0  0
  -11.7774    6.3802    0.4028 H   0  0  0  0  0  0  0  0  0  0  0  0
   -9.1520    8.5316    0.7588 H   0  0  0  0  0  0  0  0  0  0  0  0
   -8.2003    8.2092   -0.7302 H   0  0  0  0  0  0  0  0  0  0  0  0
   -9.4627    9.4871   -0.7302 H   0  0  0  0  0  0  0  0  0  0  0  0
  -10.4496    5.4490   -1.3965 H   0  0  0  0  0  0  0  0  0  0  0  0
   -9.0897    5.6646    0.7825 H   0  0  0  0  0  0  0  0  0  0  0  0
   -8.7094    4.3534   -0.4525 H   0  0  0  0  0  0  0  0  0  0  0  0
   -6.6383    5.5659    0.6338 H   0  0  0  0  0  0  0  0  0  0  0  0
   -7.5727    7.8895   -2.5335 H   0  0  0  0  0  0  0  0  0  0  0  0
   -6.3612    5.3455   -3.7805 H   0  0  0  0  0  0  0  0  0  0  0  0
   -7.0005    6.7999   -4.6676 H   0  0  0  0  0  0  0  0  0  0  0  0
   -4.5292    6.7761   -4.5662 H   0  0  0  0  0  0  0  0  0  0  0  0
   -5.2585    8.1896   -3.7075 H   0  0  0  0  0  0  0  0  0  0  0  0
   -3.4691    7.3142   -2.3686 H   0  0  0  0  0  0  0  0  0  0  0  0
   -4.9190    4.8350   -2.6120 H   0  0  0  0  0  0  0  0  0  0  0  0
   -5.2719    8.7804    0.1592 H   0  0  0  0  0  0  0  0  0  0  0  0
   -4.3840    9.0310   -1.3820 H   0  0  0  0  0  0  0  0  0  0  0  0
   -6.1785    8.9514   -1.3820 H   0  0  0  0  0  0  0  0  0  0  0  0
   -4.8717    6.7932    1.0173 H   0  0  0  0  0  0  0  0  0  0  0  0
   -4.4129    5.3568    0.0411 H   0  0  0  0  0  0  0  0  0  0  0  0
   -3.3640    6.8150    0.0411 H   0  0  0  0  0  0  0  0  0  0  0  0
   -8.7711    4.0400   -2.4096 H   0  0  0  0  0  0  0  0  0  0  0  0
   -9.6914    4.5761   -3.8561 H   0  0  0  0  0  0  0  0  0  0  0  0
   -7.8966    4.6480   -3.8561 H   0  0  0  0  0  0  0  0  0  0  0  0
   -8.9740    7.4120   -4.4765 H   0  0  0  0  0  0  0  0  0  0  0  0
  -10.4697    6.3975   -4.0662 H   0  0  0  0  0  0  0  0  0  0  0  0
   -9.6728    9.0754   -2.8911 H   0  0  0  0  0  0  0  0  0  0  0  0
  -11.0956    8.6786   -3.9326 H   0  0  0  0  0  0  0  0  0  0  0  0
  -12.7865    6.4724   -1.4440 H   0  0  0  0  0  0  0  0  0  0  0  0
  -13.0965    7.4169   -2.9401 H   0  0  0  0  0  0  0  0  0  0  0  0
  -11.8589    6.1149   -2.9401 H   0  0  0  0  0  0  0  0  0  0  0  0
  1  2  1  0
  2  3  1  0
  3  4  1  0
  4  5  1  0
  5  6  1  0
  6  7  1  0
  7  8  1  0
  7  9  1  0
  2 10  1  0
 10 11  1  0
 11 12  1  0
 12 13  1  0
 13 14  1  1
 13 15  1  0
 15 16  1  0
 16 17  1  0
 17 18  2  0
 18 19  1  0
 19 20  1  0
 20 21  1  0
 21 22  1  0
 22 23  1  0
 22 24  1  0
 24 25  1  0
 24 26  1  0
 19 27  1  0
 27 28  1  6
 27 29  1  0
 29 30  1  0
 30 31  1  0
 31 32  1  6
  7  5  1  0
 31 10  1  0
 31 13  1  0
 27 15  1  0
 24 18  1  0
  1 33  1  0
  1 34  1  0
  1 35  1  0
  2 36  1  6
  3 37  1  0
  3 38  1  0
  4 39  1  0
  4 40  1  0
  5 41  1  6
  8 42  1  0
  8 43  1  0
  8 44  1  0
  9 45  1  0
  9 46  1  0
  9 47  1  0
 10 48  1  1
 11 49  1  0
 11 50  1  0
 12 51  1  0
 12 52  1  0
 14 53  1  0
 14 54  1  0
 14 55  1  0
 15 56  1  6
 16 57  1  0
 16 58  1  0
 17 59  1  0
 19 60  1  1
 20 61  1  0
 20 62  1  0
 21 63  1  0
 21 64  1  0
 22 65  1  1
 23 66  1  0
 25 67  1  0
 25 68  1  0
 25 69  1  0
 26 70  1  0
 26 71  1  0
 26 72  1  0
 28 73  1  0
 28 74  1  0
 28 75  1  0
 29 76  1  0
 29 77  1  0
 30 78  1  0
 30 79  1  0
 32 80  1  0
 32 81  1  0
 32 82  1  0
M  END
>  <meeko>  (16) 
{"is_sidechain": [false], "intermolecular_energy": 2.731, "internal_energy": -0.839}

$$$$
EPH_relaxed_0001_pdb2pqr_Repair_337_r2_0001_out
     RDKit          3D

 82 86  0  0  0  0  0  0  0  0999 V2000
  -11.4320    8.8310   -2.7170 C   0  0  0  0  0  0  0  0  0  0  0  0
  -11.0670    7.5890   -1.8990 C   0  0  2  0  0  0  0  0  0  0  0  0
  -12.1650    7.2220   -0.8800 C   0  0  0  0  0  0  0  0  0  0  0  0
  -13.5660    7.6800   -1.2930 C   0  0  0  0  0  0  0  0  0  0  0  0
  -13.8080    9.1150   -0.9360 C   0  0  2  0  0  0  0  0  0  0  0  0
  -15.1830    9.4510   -0.7050 O   0  0  0  0  0  0  0  0  0  0  0  0
  -14.5560   10.0860   -1.8310 C   0  0  0  0  0  0  0  0  0  0  0  0
  -15.1080    9.6590   -3.1550 C   0  0  0  0  0  0  0  0  0  0  0  0
  -14.3260   11.5530   -1.6450 C   0  0  0  0  0  0  0  0  0  0  0  0
   -9.7420    7.8120   -1.1800 C   0  0  1  0  0  0  0  0  0  0  0  0
   -9.8390    7.5480    0.3470 C   0  0  0  0  0  0  0  0  0  0  0  0
   -8.4810    6.9400    0.7830 C   0  0  0  0  0  0  0  0  0  0  0  0
   -7.5410    7.1810   -0.4220 C   0  0  1  0  0  0  0  0  0  0  0  0
   -7.0690    8.6610   -0.2740 C   0  0  0  0  0  0  0  0  0  0  0  0
   -6.3310    6.2010   -0.5610 C   0  0  2  0  0  0  0  0  0  0  0  0
   -5.3240    6.2390    0.6010 C   0  0  0  0  0  0  0  0  0  0  0  0
   -4.1980    7.2050    0.4380 C   0  0  0  0  0  0  0  0  0  0  0  0
   -3.8420    7.8040   -0.7140 C   0  0  0  0  0  0  0  0  0  0  0  0
   -4.5390    7.4510   -2.0330 C   0  0  1  0  0  0  0  0  0  0  0  0
   -3.4740    7.2310   -3.1400 C   0  0  0  0  0  0  0  0  0  0  0  0
   -2.5240    8.4160   -3.2810 C   0  0  0  0  0  0  0  0  0  0  0  0
   -1.8060    8.6990   -1.9640 C   0  0  2  0  0  0  0  0  0  0  0  0
   -0.9340    7.6030   -1.6700 O   0  0  0  0  0  0  0  0  0  0  0  0
   -2.7780    8.9280   -0.7730 C   0  0  0  0  0  0  0  0  0  0  0  0
   -3.5100   10.2810   -0.9510 C   0  0  0  0  0  0  0  0  0  0  0  0
   -1.9270    9.0620    0.5190 C   0  0  0  0  0  0  0  0  0  0  0  0
   -5.5990    6.2690   -1.9630 C   0  0  1  0  0  0  0  0  0  0  0  0
   -4.8810    4.8980   -2.1570 C   0  0  0  0  0  0  0  0  0  0  0  0
   -6.6120    6.4130   -3.1600 C   0  0  0  0  0  0  0  0  0  0  0  0
   -7.8490    7.3000   -2.9200 C   0  0  0  0  0  0  0  0  0  0  0  0
   -8.5440    6.9280   -1.6070 C   0  0  2  0  0  0  0  0  0  0  0  0
   -9.0490    5.4500   -1.7340 C   0  0  0  0  0  0  0  0  0  0  0  0
  -11.6756    9.6599   -2.0361 H   0  0  0  0  0  0  0  0  0  0  0  0
  -10.5796    9.1159   -3.3512 H   0  0  0  0  0  0  0  0  0  0  0  0
  -12.3030    8.6094   -3.3512 H   0  0  0  0  0  0  0  0  0  0  0  0
  -10.9724    6.7464   -2.5998 H   0  0  0  0  0  0  0  0  0  0  0  0
  -12.1779    6.1284   -0.7622 H   0  0  0  0  0  0  0  0  0  0  0  0
  -11.9202    7.7424    0.0577 H   0  0  0  0  0  0  0  0  0  0  0  0
  -13.6738    7.5604   -2.3812 H   0  0  0  0  0  0  0  0  0  0  0  0
  -14.3008    7.0640   -0.7539 H   0  0  0  0  0  0  0  0  0  0  0  0
  -12.8325    9.1782   -0.4317 H   0  0  0  0  0  0  0  0  0  0  0  0
  -15.9689    8.9930   -2.9958 H   0  0  0  0  0  0  0  0  0  0  0  0
  -15.4299   10.5455   -3.7212 H   0  0  0  0  0  0  0  0  0  0  0  0
  -14.3309    9.1247   -3.7212 H   0  0  0  0  0  0  0  0  0  0  0  0
  -14.2896   11.7851   -0.5704 H   0  0  0  0  0  0  0  0  0  0  0  0
  -13.3724   11.8370   -2.1140 H   0  0  0  0  0  0  0  0  0  0  0  0
  -15.1470   12.1152   -2.1140 H   0  0  0  0  0  0  0  0  0  0  0  0
   -9.5549    8.8595   -1.4586 H   0  0  0  0  0  0  0  0  0  0  0  0
  -10.0217    8.4907    0.8835 H   0  0  0  0  0  0  0  0  0  0  0  0
  -10.6698    6.8650    0.5777 H   0  0  0  0  0  0  0  0  0  0  0  0
   -8.0989    7.4472    1.6812 H   0  0  0  0  0  0  0  0  0  0  0  0
   -8.5646    5.8738    1.0403 H   0  0  0  0  0  0  0  0  0  0  0  0
   -6.9880    8.9150    0.7932 H   0  0  0  0  0  0  0  0  0  0  0  0
   -6.0875    8.7827   -0.7554 H   0  0  0  0  0  0  0  0  0  0  0  0
   -7.7988    9.3285   -0.7554 H   0  0  0  0  0  0  0  0  0  0  0  0
   -6.8175    5.2162   -0.5025 H   0  0  0  0  0  0  0  0  0  0  0  0
   -5.8716    6.5068    1.5166 H   0  0  0  0  0  0  0  0  0  0  0  0
   -4.8648    5.2401    0.6383 H   0  0  0  0  0  0  0  0  0  0  0  0
   -3.6093    7.4481    1.3348 H   0  0  0  0  0  0  0  0  0  0  0  0
   -5.1664    8.3184   -2.2859 H   0  0  0  0  0  0  0  0  0  0  0  0
   -2.8861    6.3353   -2.8907 H   0  0  0  0  0  0  0  0  0  0  0  0
   -4.0053    7.1132   -4.0960 H   0  0  0  0  0  0  0  0  0  0  0  0
   -1.7776    8.1888   -4.0564 H   0  0  0  0  0  0  0  0  0  0  0  0
   -3.1097    9.3044   -3.5597 H   0  0  0  0  0  0  0  0  0  0  0  0
   -1.2403    9.6339   -2.0907 H   0  0  0  0  0  0  0  0  0  0  0  0
   -0.3940    7.8550   -0.9020 H   0  0  0  0  0  0  0  0  0  0  0  0
   -3.7400   10.7062    0.0371 H   0  0  0  0  0  0  0  0  0  0  0  0
   -2.8650   10.9763   -1.5083 H   0  0  0  0  0  0  0  0  0  0  0  0
   -4.4449   10.1216   -1.5083 H   0  0  0  0  0  0  0  0  0  0  0  0
   -2.5784    8.9594    1.3994 H   0  0  0  0  0  0  0  0  0  0  0  0
   -1.1602    8.2735    0.5364 H   0  0  0  0  0  0  0  0  0  0  0  0
   -1.4396   10.0480    0.5364 H   0  0  0  0  0  0  0  0  0  0  0  0
   -4.6524    4.4614   -1.1736 H   0  0  0  0  0  0  0  0  0  0  0  0
   -5.5378    4.2162   -2.7171 H   0  0  0  0  0  0  0  0  0  0  0  0
   -3.9465    5.0495   -2.7171 H   0  0  0  0  0  0  0  0  0  0  0  0
   -6.0608    6.8344   -4.0136 H   0  0  0  0  0  0  0  0  0  0  0  0
   -7.0107    5.4009   -3.3232 H   0  0  0  0  0  0  0  0  0  0  0  0
   -7.5335    8.3528   -2.8744 H   0  0  0  0  0  0  0  0  0  0  0  0
   -8.5571    7.1457   -3.7475 H   0  0  0  0  0  0  0  0  0  0  0  0
   -9.1943    5.0246   -0.7300 H   0  0  0  0  0  0  0  0  0  0  0  0
  -10.0035    5.4343   -2.2806 H   0  0  0  0  0  0  0  0  0  0  0  0
   -8.3037    4.8535   -2.2806 H   0  0  0  0  0  0  0  0  0  0  0  0
  1  2  1  0
  2  3  1  0
  3  4  1  0
  4  5  1  0
  5  6  1  0
  6  7  1  0
  7  8  1  0
  7  9  1  0
  2 10  1  0
 10 11  1  0
 11 12  1  0
 12 13  1  0
 13 14  1  1
 13 15  1  0
 15 16  1  0
 16 17  1  0
 17 18  2  0
 18 19  1  0
 19 20  1  0
 20 21  1  0
 21 22  1  0
 22 23  1  0
 22 24  1  0
 24 25  1  0
 24 26  1  0
 19 27  1  0
 27 28  1  6
 27 29  1  0
 29 30  1  0
 30 31  1  0
 31 32  1  6
  7  5  1  0
 31 10  1  0
 31 13  1  0
 27 15  1  0
 24 18  1  0
  1 33  1  0
  1 34  1  0
  1 35  1  0
  2 36  1  6
  3 37  1  0
  3 38  1  0
  4 39  1  0
  4 40  1  0
  5 41  1  1
  8 42  1  0
  8 43  1  0
  8 44  1  0
  9 45  1  0
  9 46  1  0
  9 47  1  0
 10 48  1  1
 11 49  1  0
 11 50  1  0
 12 51  1  0
 12 52  1  0
 14 53  1  0
 14 54  1  0
 14 55  1  0
 15 56  1  6
 16 57  1  0
 16 58  1  0
 17 59  1  0
 19 60  1  6
 20 61  1  0
 20 62  1  0
 21 63  1  0
 21 64  1  0
 22 65  1  6
 23 66  1  0
 25 67  1  0
 25 68  1  0
 25 69  1  0
 26 70  1  0
 26 71  1  0
 26 72  1  0
 28 73  1  0
 28 74  1  0
 28 75  1  0
 29 76  1  0
 29 77  1  0
 30 78  1  0
 30 79  1  0
 32 80  1  0
 32 81  1  0
 32 82  1  0
M  END
>  <meeko>  (17) 
{"is_sidechain": [false], "intermolecular_energy": 2.731, "internal_energy": -0.839}

$$$$
EPH_relaxed_0001_pdb2pqr_Repair_337_r2_0001_out
     RDKit          3D

 82 86  0  0  0  0  0  0  0  0999 V2000
  -15.1780    7.3510   -1.1580 C   0  0  0  0  0  0  0  0  0  0  0  0
  -14.7570    8.7930   -0.8620 C   0  0  2  0  0  0  0  0  0  0  0  0
  -15.0530    9.7380   -2.0450 C   0  0  0  0  0  0  0  0  0  0  0  0
  -15.2330   11.2020   -1.6330 C   0  0  0  0  0  0  0  0  0  0  0  0
  -14.4030   12.1210   -2.4760 C   0  0  2  0  0  0  0  0  0  0  0  0
  -15.1520   13.0820   -3.2310 O   0  0  0  0  0  0  0  0  0  0  0  0
  -14.4190   12.1090   -3.9930 C   0  0  0  0  0  0  0  0  0  0  0  0
  -15.2850   11.1560   -4.7560 C   0  0  0  0  0  0  0  0  0  0  0  0
  -13.2450   12.6780   -4.7260 C   0  0  0  0  0  0  0  0  0  0  0  0
  -13.2730    8.8410   -0.5160 C   0  0  1  0  0  0  0  0  0  0  0  0
  -13.0200    9.1480    0.9840 C   0  0  0  0  0  0  0  0  0  0  0  0
  -11.7570    8.3490    1.3960 C   0  0  0  0  0  0  0  0  0  0  0  0
  -11.1380    7.8790    0.0590 C   0  0  1  0  0  0  0  0  0  0  0  0
  -10.3400    9.1120   -0.4690 C   0  0  0  0  0  0  0  0  0  0  0  0
  -10.2450    6.5980    0.1230 C   0  0  2  0  0  0  0  0  0  0  0  0
   -8.9840    6.7240    0.9950 C   0  0  0  0  0  0  0  0  0  0  0  0
   -7.7610    7.1990    0.2820 C   0  0  0  0  0  0  0  0  0  0  0  0
   -7.6000    7.2410   -1.0540 C   0  0  0  0  0  0  0  0  0  0  0  0
   -8.6790    6.6880   -1.9940 C   0  0  1  0  0  0  0  0  0  0  0  0
   -8.0150    5.8030   -3.0810 C   0  0  0  0  0  0  0  0  0  0  0  0
   -6.9050    6.5330   -3.8310 C   0  0  0  0  0  0  0  0  0  0  0  0
   -5.8230    7.0160   -2.8690 C   0  0  2  0  0  0  0  0  0  0  0  0
   -5.1580    5.8770   -2.3130 O   0  0  0  0  0  0  0  0  0  0  0  0
   -6.3750    7.9100   -1.7240 C   0  0  0  0  0  0  0  0  0  0  0  0
   -6.8230    9.2760   -2.3000 C   0  0  0  0  0  0  0  0  0  0  0  0
   -5.2070    8.2120   -0.7480 C   0  0  0  0  0  0  0  0  0  0  0  0
   -9.9100    5.9700   -1.2910 C   0  0  1  0  0  0  0  0  0  0  0  0
   -9.5780    4.4660   -1.0430 C   0  0  0  0  0  0  0  0  0  0  0  0
  -11.1470    5.9960   -2.2650 C   0  0  0  0  0  0  0  0  0  0  0  0
  -12.0590    7.2360   -2.1970 C   0  0  0  0  0  0  0  0  0  0  0  0
  -12.4470    7.5520   -0.7490 C   0  0  2  0  0  0  0  0  0  0  0  0
  -13.2710    6.3380   -0.1990 C   0  0  0  0  0  0  0  0  0  0  0  0
  -15.3350    6.8132   -0.2114 H   0  0  0  0  0  0  0  0  0  0  0  0
  -16.1129    7.3536   -1.7376 H   0  0  0  0  0  0  0  0  0  0  0  0
  -14.3886    6.8502   -1.7376 H   0  0  0  0  0  0  0  0  0  0  0  0
  -15.3500    9.1416   -0.0037 H   0  0  0  0  0  0  0  0  0  0  0  0
  -14.2156    9.6776   -2.7557 H   0  0  0  0  0  0  0  0  0  0  0  0
  -16.0044    9.4095   -2.4887 H   0  0  0  0  0  0  0  0  0  0  0  0
  -16.2925   11.4759   -1.7442 H   0  0  0  0  0  0  0  0  0  0  0  0
  -14.9063   11.3067   -0.5879 H   0  0  0  0  0  0  0  0  0  0  0  0
  -13.5804   12.0839   -1.7467 H   0  0  0  0  0  0  0  0  0  0  0  0
  -15.8527   10.5313   -4.0507 H   0  0  0  0  0  0  0  0  0  0  0  0
  -15.9841   11.7222   -5.3890 H   0  0  0  0  0  0  0  0  0  0  0  0
  -14.6547   10.5142   -5.3890 H   0  0  0  0  0  0  0  0  0  0  0  0
  -12.5002   13.0390   -4.0014 H   0  0  0  0  0  0  0  0  0  0  0  0
  -12.7942   11.8984   -5.3577 H   0  0  0  0  0  0  0  0  0  0  0  0
  -13.5776   13.5149   -5.3577 H   0  0  0  0  0  0  0  0  0  0  0  0
  -12.9459    9.6276   -1.2118 H   0  0  0  0  0  0  0  0  0  0  0  0
  -12.8503   10.2254    1.1270 H   0  0  0  0  0  0  0  0  0  0  0  0
  -13.8867    8.8617    1.5979 H   0  0  0  0  0  0  0  0  0  0  0  0
  -11.0530    8.9917    1.9449 H   0  0  0  0  0  0  0  0  0  0  0  0
  -11.9954    7.5077    2.0634 H   0  0  0  0  0  0  0  0  0  0  0  0
   -9.9619    9.6962    0.3829 H   0  0  0  0  0  0  0  0  0  0  0  0
   -9.4938    8.7664   -1.0810 H   0  0  0  0  0  0  0  0  0  0  0  0
  -11.0018    9.7424   -1.0810 H   0  0  0  0  0  0  0  0  0  0  0  0
  -10.8974    5.8819    0.6440 H   0  0  0  0  0  0  0  0  0  0  0  0
   -9.2015    7.4337    1.8068 H   0  0  0  0  0  0  0  0  0  0  0  0
   -8.7552    5.7077    1.3483 H   0  0  0  0  0  0  0  0  0  0  0  0
   -6.9198    7.5440    0.9012 H   0  0  0  0  0  0  0  0  0  0  0  0
   -9.1511    7.5640   -2.4628 H   0  0  0  0  0  0  0  0  0  0  0  0
   -7.5874    4.9121   -2.5978 H   0  0  0  0  0  0  0  0  0  0  0  0
   -8.7911    5.5333   -3.8124 H   0  0  0  0  0  0  0  0  0  0  0  0
   -6.4549    5.8476   -4.5643 H   0  0  0  0  0  0  0  0  0  0  0  0
   -7.3398    7.4071   -4.3379 H   0  0  0  0  0  0  0  0  0  0  0  0
   -5.1250    7.6411   -3.4452 H   0  0  0  0  0  0  0  0  0  0  0  0
   -4.2030    6.0590   -2.3250 H   0  0  0  0  0  0  0  0  0  0  0  0
   -7.0493    9.9659   -1.4737 H   0  0  0  0  0  0  0  0  0  0  0  0
   -6.0155    9.6960   -2.9177 H   0  0  0  0  0  0  0  0  0  0  0  0
   -7.7224    9.1363   -2.9177 H   0  0  0  0  0  0  0  0  0  0  0  0
   -5.5625    8.1201    0.2889 H   0  0  0  0  0  0  0  0  0  0  0  0
   -4.3904    7.4955   -0.9205 H   0  0  0  0  0  0  0  0  0  0  0  0
   -4.8401    9.2346   -0.9205 H   0  0  0  0  0  0  0  0  0  0  0  0
   -9.5355    4.2735    0.0392 H   0  0  0  0  0  0  0  0  0  0  0  0
  -10.3592    3.8384   -1.4967 H   0  0  0  0  0  0  0  0  0  0  0  0
   -8.6052    4.2256   -1.4967 H   0  0  0  0  0  0  0  0  0  0  0  0
  -10.7627    5.9216   -3.2930 H   0  0  0  0  0  0  0  0  0  0  0  0
  -11.7809    5.1549   -1.9477 H   0  0  0  0  0  0  0  0  0  0  0  0
  -11.5259    8.0987   -2.6232 H   0  0  0  0  0  0  0  0  0  0  0  0
  -12.9757    7.0292   -2.7688 H   0  0  0  0  0  0  0  0  0  0  0  0
  -13.2594    6.3551    0.9008 H   0  0  0  0  0  0  0  0  0  0  0  0
  -14.3092    6.4077   -0.5559 H   0  0  0  0  0  0  0  0  0  0  0  0
  -12.8229    5.3989   -0.5559 H   0  0  0  0  0  0  0  0  0  0  0  0
  1  2  1  0
  2  3  1  0
  3  4  1  0
  4  5  1  0
  5  6  1  0
  6  7  1  0
  7  8  1  0
  7  9  1  0
  2 10  1  0
 10 11  1  0
 11 12  1  0
 12 13  1  0
 13 14  1  6
 13 15  1  0
 15 16  1  0
 16 17  1  0
 17 18  2  0
 18 19  1  0
 19 20  1  0
 20 21  1  0
 21 22  1  0
 22 23  1  0
 22 24  1  0
 24 25  1  0
 24 26  1  0
 19 27  1  0
 27 28  1  1
 27 29  1  0
 29 30  1  0
 30 31  1  0
 31 32  1  1
  7  5  1  0
 31 10  1  0
 31 13  1  0
 27 15  1  0
 24 18  1  0
  1 33  1  0
  1 34  1  0
  1 35  1  0
  2 36  1  1
  3 37  1  0
  3 38  1  0
  4 39  1  0
  4 40  1  0
  5 41  1  6
  8 42  1  0
  8 43  1  0
  8 44  1  0
  9 45  1  0
  9 46  1  0
  9 47  1  0
 10 48  1  6
 11 49  1  0
 11 50  1  0
 12 51  1  0
 12 52  1  0
 14 53  1  0
 14 54  1  0
 14 55  1  0
 15 56  1  1
 16 57  1  0
 16 58  1  0
 17 59  1  0
 19 60  1  6
 20 61  1  0
 20 62  1  0
 21 63  1  0
 21 64  1  0
 22 65  1  6
 23 66  1  0
 25 67  1  0
 25 68  1  0
 25 69  1  0
 26 70  1  0
 26 71  1  0
 26 72  1  0
 28 73  1  0
 28 74  1  0
 28 75  1  0
 29 76  1  0
 29 77  1  0
 30 78  1  0
 30 79  1  0
 32 80  1  0
 32 81  1  0
 32 82  1  0
M  END
>  <meeko>  (18) 
{"is_sidechain": [false], "intermolecular_energy": 2.731, "internal_energy": -0.839}

$$$$
