EPH_relaxed_0001_pdb2pqr_Repair_185_r2_0001_out
     RDKit          3D

 82 86  0  0  0  0  0  0  0  0999 V2000
   -1.6850    8.6120   -1.8930 C   0  0  0  0  0  0  0  0  0  0  0  0
   -2.0780    9.1160   -0.5020 C   0  0  2  0  0  0  0  0  0  0  0  0
   -3.5790    9.4600   -0.4120 C   0  0  0  0  0  0  0  0  0  0  0  0
   -4.4850    8.2330   -0.2890 C   0  0  0  0  0  0  0  0  0  0  0  0
   -5.1840    7.9280   -1.5800 C   0  0  2  0  0  0  0  0  0  0  0  0
   -6.3620    8.7070   -1.8220 O   0  0  0  0  0  0  0  0  0  0  0  0
   -6.5600    7.2940   -1.6570 C   0  0  0  0  0  0  0  0  0  0  0  0
   -7.3190    6.9250   -0.4220 C   0  0  0  0  0  0  0  0  0  0  0  0
   -6.9540    6.5900   -2.9180 C   0  0  0  0  0  0  0  0  0  0  0  0
   -1.2410   10.3360   -0.1360 C   0  0  1  0  0  0  0  0  0  0  0  0
   -0.2420   10.0510    1.0160 C   0  0  0  0  0  0  0  0  0  0  0  0
    1.0300   10.8880    0.7230 C   0  0  0  0  0  0  0  0  0  0  0  0
    0.6010   11.8710   -0.3910 C   0  0  1  0  0  0  0  0  0  0  0  0
   -0.1390   13.0250    0.3550 C   0  0  0  0  0  0  0  0  0  0  0  0
    1.7440   12.4170   -1.3090 C   0  0  2  0  0  0  0  0  0  0  0  0
    2.8180   13.2490   -0.5880 C   0  0  0  0  0  0  0  0  0  0  0  0
    2.5510   14.7170   -0.5240 C   0  0  0  0  0  0  0  0  0  0  0  0
    1.6430   15.3800   -1.2650 C   0  0  0  0  0  0  0  0  0  0  0  0
    0.8380   14.6590   -2.3540 C   0  0  1  0  0  0  0  0  0  0  0  0
    0.8410   15.5110   -3.6500 C   0  0  0  0  0  0  0  0  0  0  0  0
    0.3560   16.9380   -3.4140 C   0  0  0  0  0  0  0  0  0  0  0  0
    1.2180   17.6400   -2.3680 C   0  0  2  0  0  0  0  0  0  0  0  0
    2.5350   17.8180   -2.8990 O   0  0  0  0  0  0  0  0  0  0  0  0
    1.2970   16.8690   -1.0210 C   0  0  0  0  0  0  0  0  0  0  0  0
   -0.0720   16.9380   -0.3000 C   0  0  0  0  0  0  0  0  0  0  0  0
    2.3080   17.6110   -0.1050 C   0  0  0  0  0  0  0  0  0  0  0  0
    1.2320   13.1420   -2.6190 C   0  0  1  0  0  0  0  0  0  0  0  0
    2.3970   13.0680   -3.6520 C   0  0  0  0  0  0  0  0  0  0  0  0
    0.0090   12.4000   -3.2750 C   0  0  0  0  0  0  0  0  0  0  0  0
   -1.0240   11.7790   -2.3150 C   0  0  0  0  0  0  0  0  0  0  0  0
   -0.3330   10.9340   -1.2400 C   0  0  2  0  0  0  0  0  0  0  0  0
    0.4020    9.7520   -1.9590 C   0  0  0  0  0  0  0  0  0  0  0  0
   -1.0114    7.7481   -1.7932 H   0  0  0  0  0  0  0  0  0  0  0  0
   -2.5889    8.3106   -2.4427 H   0  0  0  0  0  0  0  0  0  0  0  0
   -1.1723    9.4151   -2.4427 H   0  0  0  0  0  0  0  0  0  0  0  0
   -1.8822    8.3030    0.2126 H   0  0  0  0  0  0  0  0  0  0  0  0
   -3.7368   10.0980    0.4701 H   0  0  0  0  0  0  0  0  0  0  0  0
   -3.8495    9.9666   -1.3502 H   0  0  0  0  0  0  0  0  0  0  0  0
   -3.8730    7.3654   -0.0014 H   0  0  0  0  0  0  0  0  0  0  0  0
   -5.2494    8.4462    0.4727 H   0  0  0  0  0  0  0  0  0  0  0  0
   -4.2287    7.6790   -2.0651 H   0  0  0  0  0  0  0  0  0  0  0  0
   -6.7350    7.2089    0.4659 H   0  0  0  0  0  0  0  0  0  0  0  0
   -8.2828    7.4551   -0.4118 H   0  0  0  0  0  0  0  0  0  0  0  0
   -7.4974    5.8396   -0.4118 H   0  0  0  0  0  0  0  0  0  0  0  0
   -7.4772    5.6552   -2.6680 H   0  0  0  0  0  0  0  0  0  0  0  0
   -7.6209    7.2374   -3.5063 H   0  0  0  0  0  0  0  0  0  0  0  0
   -6.0534    6.3601   -3.5063 H   0  0  0  0  0  0  0  0  0  0  0  0
   -2.0460   11.0433    0.1123 H   0  0  0  0  0  0  0  0  0  0  0  0
   -0.6794   10.3514    1.9796 H   0  0  0  0  0  0  0  0  0  0  0  0
   -0.0039    8.9787    1.0758 H   0  0  0  0  0  0  0  0  0  0  0  0
    1.3505   11.4353    1.6218 H   0  0  0  0  0  0  0  0  0  0  0  0
    1.8820   10.2610    0.4212 H   0  0  0  0  0  0  0  0  0  0  0  0
   -0.0453   12.8788    1.4412 H   0  0  0  0  0  0  0  0  0  0  0  0
    0.3094   13.9896    0.0748 H   0  0  0  0  0  0  0  0  0  0  0  0
   -1.2027   13.0199    0.0748 H   0  0  0  0  0  0  0  0  0  0  0  0
    2.2489   11.4947   -1.6321 H   0  0  0  0  0  0  0  0  0  0  0  0
    2.9037   12.8738    0.4425 H   0  0  0  0  0  0  0  0  0  0  0  0
    3.7396   13.1326   -1.1771 H   0  0  0  0  0  0  0  0  0  0  0  0
    3.1464   15.3065    0.1887 H   0  0  0  0  0  0  0  0  0  0  0  0
   -0.1879   14.5730   -1.9666 H   0  0  0  0  0  0  0  0  0  0  0  0
    1.8670   15.5482   -4.0450 H   0  0  0  0  0  0  0  0  0  0  0  0
    0.1495   15.0372   -4.3623 H   0  0  0  0  0  0  0  0  0  0  0  0
    0.4097   17.4977   -4.3595 H   0  0  0  0  0  0  0  0  0  0  0  0
   -0.6806   16.9010   -3.0479 H   0  0  0  0  0  0  0  0  0  0  0  0
    0.7449   18.6082   -2.1473 H   0  0  0  0  0  0  0  0  0  0  0  0
    2.4800   17.7100   -3.8640 H   0  0  0  0  0  0  0  0  0  0  0  0
    0.0861   16.9300    0.7886 H   0  0  0  0  0  0  0  0  0  0  0  0
   -0.5920   17.8635   -0.5882 H   0  0  0  0  0  0  0  0  0  0  0  0
   -0.6824   16.0695   -0.5882 H   0  0  0  0  0  0  0  0  0  0  0  0
    2.0536   17.4243    0.9487 H   0  0  0  0  0  0  0  0  0  0  0  0
    3.3247   17.2431   -0.3075 H   0  0  0  0  0  0  0  0  0  0  0  0
    2.2619   18.6912   -0.3075 H   0  0  0  0  0  0  0  0  0  0  0  0
    3.3569   13.0070   -3.1183 H   0  0  0  0  0  0  0  0  0  0  0  0
    2.2712   12.1760   -4.2833 H   0  0  0  0  0  0  0  0  0  0  0  0
    2.3850   13.9687   -4.2833 H   0  0  0  0  0  0  0  0  0  0  0  0
   -0.5204   13.1270   -3.9083 H   0  0  0  0  0  0  0  0  0  0  0  0
    0.4463   11.5484   -3.8168 H   0  0  0  0  0  0  0  0  0  0  0  0
   -1.5936   12.5847   -1.8287 H   0  0  0  0  0  0  0  0  0  0  0  0
   -1.6960   11.1290   -2.8946 H   0  0  0  0  0  0  0  0  0  0  0  0
    0.8254    9.0712   -1.2059 H   0  0  0  0  0  0  0  0  0  0  0  0
   -0.3144    9.2032   -2.5880 H   0  0  0  0  0  0  0  0  0  0  0  0
    1.2111   10.1517   -2.5880 H   0  0  0  0  0  0  0  0  0  0  0  0
  1  2  1  0
  2  3  1  0
  3  4  1  0
  4  5  1  0
  5  6  1  0
  6  7  1  0
  7  8  1  0
  7  9  1  0
  2 10  1  0
 10 11  1  0
 11 12  1  0
 12 13  1  0
 13 14  1  1
 13 15  1  0
 15 16  1  0
 16 17  1  0
 17 18  2  0
 18 19  1  0
 19 20  1  0
 20 21  1  0
 21 22  1  0
 22 23  1  0
 22 24  1  0
 24 25  1  0
 24 26  1  0
 19 27  1  0
 27 28  1  6
 27 29  1  0
 29 30  1  0
 30 31  1  0
 31 32  1  6
  7  5  1  0
 31 10  1  0
 31 13  1  0
 27 15  1  0
 24 18  1  0
  1 33  1  0
  1 34  1  0
  1 35  1  0
  2 36  1  1
  3 37  1  0
  3 38  1  0
  4 39  1  0
  4 40  1  0
  5 41  1  6
  8 42  1  0
  8 43  1  0
  8 44  1  0
  9 45  1  0
  9 46  1  0
  9 47  1  0
 10 48  1  1
 11 49  1  0
 11 50  1  0
 12 51  1  0
 12 52  1  0
 14 53  1  0
 14 54  1  0
 14 55  1  0
 15 56  1  6
 16 57  1  0
 16 58  1  0
 17 59  1  0
 19 60  1  1
 20 61  1  0
 20 62  1  0
 21 63  1  0
 21 64  1  0
 22 65  1  1
 23 66  1  0
 25 67  1  0
 25 68  1  0
 25 69  1  0
 26 70  1  0
 26 71  1  0
 26 72  1  0
 28 73  1  0
 28 74  1  0
 28 75  1  0
 29 76  1  0
 29 77  1  0
 30 78  1  0
 30 79  1  0
 32 80  1  0
 32 81  1  0
 32 82  1  0
M  END
>  <meeko>  (1) 
{"is_sidechain": [false], "intermolecular_energy": 2.731, "internal_energy": -0.839}

$$$$
EPH_relaxed_0001_pdb2pqr_Repair_185_r2_0001_out
     RDKit          3D

 82 86  0  0  0  0  0  0  0  0999 V2000
    2.3270   18.0560   -2.6990 C   0  0  0  0  0  0  0  0  0  0  0  0
    1.0550   17.6550   -1.9460 C   0  0  2  0  0  0  0  0  0  0  0  0
    1.2460   17.7010   -0.4170 C   0  0  0  0  0  0  0  0  0  0  0  0
    0.9200   19.0620    0.2040 C   0  0  0  0  0  0  0  0  0  0  0  0
   -0.5270   19.1670    0.5800 C   0  0  2  0  0  0  0  0  0  0  0  0
   -1.3940   18.2630   -0.1180 O   0  0  0  0  0  0  0  0  0  0  0  0
   -1.6030   19.6630   -0.3680 C   0  0  0  0  0  0  0  0  0  0  0  0
   -1.2770   20.0870   -1.7660 C   0  0  0  0  0  0  0  0  0  0  0  0
   -2.8770   20.1940    0.2110 C   0  0  0  0  0  0  0  0  0  0  0  0
    0.6140   16.2610   -2.3750 C   0  0  1  0  0  0  0  0  0  0  0  0
    0.7240   16.0440   -3.9080 C   0  0  0  0  0  0  0  0  0  0  0  0
    1.1310   14.5640   -4.1220 C   0  0  0  0  0  0  0  0  0  0  0  0
    0.9190   13.8970   -2.7430 C   0  0  1  0  0  0  0  0  0  0  0  0
   -0.6110   13.5980   -2.6730 C   0  0  0  0  0  0  0  0  0  0  0  0
    1.7710   12.6180   -2.4550 C   0  0  2  0  0  0  0  0  0  0  0  0
    1.5010   11.4290   -3.3940 C   0  0  0  0  0  0  0  0  0  0  0  0
    0.4400   10.4840   -2.9370 C   0  0  0  0  0  0  0  0  0  0  0  0
   -0.0690   10.4210   -1.6920 C   0  0  0  0  0  0  0  0  0  0  0  0
    0.4960   11.2970   -0.5660 C   0  0  1  0  0  0  0  0  0  0  0  0
    0.7140   10.4310    0.7030 C   0  0  0  0  0  0  0  0  0  0  0  0
   -0.5460    9.6810    1.1230 C   0  0  0  0  0  0  0  0  0  0  0  0
   -1.0430    8.7770   -0.0020 C   0  0  2  0  0  0  0  0  0  0  0  0
   -0.0860    7.7340   -0.2130 O   0  0  0  0  0  0  0  0  0  0  0  0
   -1.2890    9.5370   -1.3350 C   0  0  0  0  0  0  0  0  0  0  0  0
   -2.5280   10.4550   -1.1890 C   0  0  0  0  0  0  0  0  0  0  0  0
   -1.6510    8.4900   -2.4230 C   0  0  0  0  0  0  0  0  0  0  0  0
    1.7720   12.1680   -0.9380 C   0  0  1  0  0  0  0  0  0  0  0  0
    3.0690   11.3290   -0.7230 C   0  0  0  0  0  0  0  0  0  0  0  0
    1.8650   13.3910    0.0490 C   0  0  0  0  0  0  0  0  0  0  0  0
    1.0990   14.6660   -0.3500 C   0  0  0  0  0  0  0  0  0  0  0  0
    1.4030   15.0580   -1.7990 C   0  0  2  0  0  0  0  0  0  0  0  0
    2.9320   15.3860   -1.8950 C   0  0  0  0  0  0  0  0  0  0  0  0
    3.1178   18.3053   -1.9762 H   0  0  0  0  0  0  0  0  0  0  0  0
    2.6584   17.2188   -3.3308 H   0  0  0  0  0  0  0  0  0  0  0  0
    2.1183   18.9319   -3.3308 H   0  0  0  0  0  0  0  0  0  0  0  0
    0.2745   18.3864   -2.2026 H   0  0  0  0  0  0  0  0  0  0  0  0
    0.5885   16.9454    0.0379 H   0  0  0  0  0  0  0  0  0  0  0  0
    2.3103   17.5049   -0.2203 H   0  0  0  0  0  0  0  0  0  0  0  0
    1.5337   19.1983    1.1066 H   0  0  0  0  0  0  0  0  0  0  0  0
    1.1380   19.8405   -0.5419 H   0  0  0  0  0  0  0  0  0  0  0  0
   -0.2637   19.4495    1.6100 H   0  0  0  0  0  0  0  0  0  0  0  0
   -0.6067   20.9588   -1.7379 H   0  0  0  0  0  0  0  0  0  0  0  0
   -0.7803   19.2595   -2.2937 H   0  0  0  0  0  0  0  0  0  0  0  0
   -2.2044   20.3544   -2.2937 H   0  0  0  0  0  0  0  0  0  0  0  0
   -2.8188   20.1697    1.3092 H   0  0  0  0  0  0  0  0  0  0  0  0
   -3.0287   21.2303   -0.1253 H   0  0  0  0  0  0  0  0  0  0  0  0
   -3.7198   19.5722   -0.1253 H   0  0  0  0  0  0  0  0  0  0  0  0
   -0.4127   16.2625   -1.9801 H   0  0  0  0  0  0  0  0  0  0  0  0
   -0.2447   16.2439   -4.3893 H   0  0  0  0  0  0  0  0  0  0  0  0
    1.4651   16.7255   -4.3512 H   0  0  0  0  0  0  0  0  0  0  0  0
    0.4929   14.0921   -4.8837 H   0  0  0  0  0  0  0  0  0  0  0  0
    2.1668   14.4639   -4.4786 H   0  0  0  0  0  0  0  0  0  0  0  0
   -0.9248   13.5367   -1.6205 H   0  0  0  0  0  0  0  0  0  0  0  0
   -1.1656   14.4048   -3.1746 H   0  0  0  0  0  0  0  0  0  0  0  0
   -0.8211   12.6418   -3.1746 H   0  0  0  0  0  0  0  0  0  0  0  0
    2.7913   12.9568   -2.6880 H   0  0  0  0  0  0  0  0  0  0  0  0
    1.2000   11.8305   -4.3729 H   0  0  0  0  0  0  0  0  0  0  0  0
    2.4341   10.8473   -3.4245 H   0  0  0  0  0  0  0  0  0  0  0  0
    0.0398    9.7790   -3.6805 H   0  0  0  0  0  0  0  0  0  0  0  0
   -0.2653   12.0657   -0.3673 H   0  0  0  0  0  0  0  0  0  0  0  0
    1.5085    9.6984    0.4977 H   0  0  0  0  0  0  0  0  0  0  0  0
    0.9896   11.1074    1.5255 H   0  0  0  0  0  0  0  0  0  0  0  0
   -0.3210    9.0656    2.0066 H   0  0  0  0  0  0  0  0  0  0  0  0
   -1.3308   10.4157    1.3558 H   0  0  0  0  0  0  0  0  0  0  0  0
   -2.0150    8.3671    0.3098 H   0  0  0  0  0  0  0  0  0  0  0  0
   -0.5000    7.0670   -0.7860 H   0  0  0  0  0  0  0  0  0  0  0  0
   -2.7428   10.6141   -0.1220 H   0  0  0  0  0  0  0  0  0  0  0  0
   -2.3259   11.4231   -1.6707 H   0  0  0  0  0  0  0  0  0  0  0  0
   -3.3953    9.9798   -1.6707 H   0  0  0  0  0  0  0  0  0  0  0  0
   -1.9739    7.5560   -1.9400 H   0  0  0  0  0  0  0  0  0  0  0  0
   -2.4666    8.8796   -3.0499 H   0  0  0  0  0  0  0  0  0  0  0  0
   -0.7689    8.2927   -3.0499 H   0  0  0  0  0  0  0  0  0  0  0  0
    3.2539   11.2094    0.3547 H   0  0  0  0  0  0  0  0  0  0  0  0
    2.9461   10.3388   -1.1860 H   0  0  0  0  0  0  0  0  0  0  0  0
    3.9218   11.8470   -1.1860 H   0  0  0  0  0  0  0  0  0  0  0  0
    1.4774   13.0616    1.0243 H   0  0  0  0  0  0  0  0  0  0  0  0
    2.9261   13.6810    0.0483 H   0  0  0  0  0  0  0  0  0  0  0  0
    0.0191   14.4845   -0.2454 H   0  0  0  0  0  0  0  0  0  0  0  0
    1.4173   15.4869    0.3093 H   0  0  0  0  0  0  0  0  0  0  0  0
    3.3520   15.4761   -0.8823 H   0  0  0  0  0  0  0  0  0  0  0  0
    3.4472   14.5779   -2.4350 H   0  0  0  0  0  0  0  0  0  0  0  0
    3.0704   16.3343   -2.4350 H   0  0  0  0  0  0  0  0  0  0  0  0
  1  2  1  0
  2  3  1  0
  3  4  1  0
  4  5  1  0
  5  6  1  0
  6  7  1  0
  7  8  1  0
  7  9  1  0
  2 10  1  0
 10 11  1  0
 11 12  1  0
 12 13  1  0
 13 14  1  1
 13 15  1  0
 15 16  1  0
 16 17  1  0
 17 18  2  0
 18 19  1  0
 19 20  1  0
 20 21  1  0
 21 22  1  0
 22 23  1  0
 22 24  1  0
 24 25  1  0
 24 26  1  0
 19 27  1  0
 27 28  1  6
 27 29  1  0
 29 30  1  0
 30 31  1  0
 31 32  1  1
  7  5  1  0
 31 10  1  0
 31 13  1  0
 27 15  1  0
 24 18  1  0
  1 33  1  0
  1 34  1  0
  1 35  1  0
  2 36  1  1
  3 37  1  0
  3 38  1  0
  4 39  1  0
  4 40  1  0
  5 41  1  1
  8 42  1  0
  8 43  1  0
  8 44  1  0
  9 45  1  0
  9 46  1  0
  9 47  1  0
 10 48  1  1
 11 49  1  0
 11 50  1  0
 12 51  1  0
 12 52  1  0
 14 53  1  0
 14 54  1  0
 14 55  1  0
 15 56  1  6
 16 57  1  0
 16 58  1  0
 17 59  1  0
 19 60  1  1
 20 61  1  0
 20 62  1  0
 21 63  1  0
 21 64  1  0
 22 65  1  1
 23 66  1  0
 25 67  1  0
 25 68  1  0
 25 69  1  0
 26 70  1  0
 26 71  1  0
 26 72  1  0
 28 73  1  0
 28 74  1  0
 28 75  1  0
 29 76  1  0
 29 77  1  0
 30 78  1  0
 30 79  1  0
 32 80  1  0
 32 81  1  0
 32 82  1  0
M  END
>  <meeko>  (2) 
{"is_sidechain": [false], "intermolecular_energy": 2.731, "internal_energy": -0.839}

$$$$
EPH_relaxed_0001_pdb2pqr_Repair_185_r2_0001_out
     RDKit          3D

 82 86  0  0  0  0  0  0  0  0999 V2000
    4.2450   17.5890   -0.5860 C   0  0  0  0  0  0  0  0  0  0  0  0
    2.8840   18.1590   -0.1740 C   0  0  2  0  0  0  0  0  0  0  0  0
    2.9390   18.8590    1.1980 C   0  0  0  0  0  0  0  0  0  0  0  0
    4.2740   18.6820    1.9260 C   0  0  0  0  0  0  0  0  0  0  0  0
    4.2190   19.2210    3.3240 C   0  0  2  0  0  0  0  0  0  0  0  0
    5.2260   20.1930    3.6310 O   0  0  0  0  0  0  0  0  0  0  0  0
    5.2920   18.9590    4.3640 C   0  0  0  0  0  0  0  0  0  0  0  0
    6.4960   18.1280    4.0510 C   0  0  0  0  0  0  0  0  0  0  0  0
    4.9340   19.0980    5.8110 C   0  0  0  0  0  0  0  0  0  0  0  0
    1.8410   17.0470   -0.1500 C   0  0  1  0  0  0  0  0  0  0  0  0
    0.4060   17.5690   -0.4280 C   0  0  0  0  0  0  0  0  0  0  0  0
   -0.3260   16.4590   -1.2250 C   0  0  0  0  0  0  0  0  0  0  0  0
    0.5860   15.2170   -1.0930 C   0  0  1  0  0  0  0  0  0  0  0  0
    0.2430   14.6140    0.3050 C   0  0  0  0  0  0  0  0  0  0  0  0
    0.4660   14.1480   -2.2270 C   0  0  2  0  0  0  0  0  0  0  0  0
   -0.9140   13.4790   -2.3510 C   0  0  0  0  0  0  0  0  0  0  0  0
   -1.0950   12.2350   -1.5450 C   0  0  0  0  0  0  0  0  0  0  0  0
   -0.1050   11.5200   -0.9790 C   0  0  0  0  0  0  0  0  0  0  0  0
    1.3660   11.8910   -1.2070 C   0  0  1  0  0  0  0  0  0  0  0  0
    2.1760   10.6140   -1.5500 C   0  0  0  0  0  0  0  0  0  0  0  0
    2.0060    9.5160   -0.5040 C   0  0  0  0  0  0  0  0  0  0  0  0
    0.5370    9.1330   -0.3480 C   0  0  2  0  0  0  0  0  0  0  0  0
    0.0910    8.5140   -1.5590 O   0  0  0  0  0  0  0  0  0  0  0  0
   -0.3790   10.3420   -0.0110 C   0  0  0  0  0  0  0  0  0  0  0  0
   -0.0950   10.8240    1.4330 C   0  0  0  0  0  0  0  0  0  0  0  0
   -1.8500    9.8450   -0.0210 C   0  0  0  0  0  0  0  0  0  0  0  0
    1.6300   13.0760   -2.2330 C   0  0  1  0  0  0  0  0  0  0  0  0
    1.7110   12.5130   -3.6850 C   0  0  0  0  0  0  0  0  0  0  0  0
    3.0360   13.7170   -1.9270 C   0  0  0  0  0  0  0  0  0  0  0  0
    3.0700   14.8500   -0.8840 C   0  0  0  0  0  0  0  0  0  0  0  0
    1.9980   15.9020   -1.1820 C   0  0  2  0  0  0  0  0  0  0  0  0
    2.3300   16.5420   -2.5730 C   0  0  0  0  0  0  0  0  0  0  0  0
    4.8280   17.3448    0.3143 H   0  0  0  0  0  0  0  0  0  0  0  0
    4.0952   16.6780   -1.1841 H   0  0  0  0  0  0  0  0  0  0  0  0
    4.7891   18.3349   -1.1841 H   0  0  0  0  0  0  0  0  0  0  0  0
    2.6029   18.9169   -0.9200 H   0  0  0  0  0  0  0  0  0  0  0  0
    2.7661   19.9347    1.0462 H   0  0  0  0  0  0  0  0  0  0  0  0
    2.1656   18.3943    1.8272 H   0  0  0  0  0  0  0  0  0  0  0  0
    4.5186   17.6103    1.9665 H   0  0  0  0  0  0  0  0  0  0  0  0
    5.0430   19.2412    1.3729 H   0  0  0  0  0  0  0  0  0  0  0  0
    3.1248   19.1105    3.3487 H   0  0  0  0  0  0  0  0  0  0  0  0
    6.9697   17.8011    4.9884 H   0  0  0  0  0  0  0  0  0  0  0  0
    6.1916   17.2468    3.4672 H   0  0  0  0  0  0  0  0  0  0  0  0
    7.2120   18.7251    3.4672 H   0  0  0  0  0  0  0  0  0  0  0  0
    5.7807   18.7692    6.4314 H   0  0  0  0  0  0  0  0  0  0  0  0
    4.7042   20.1507    6.0324 H   0  0  0  0  0  0  0  0  0  0  0  0
    4.0540   18.4762    6.0324 H   0  0  0  0  0  0  0  0  0  0  0  0
    2.0054   16.6612    0.8669 H   0  0  0  0  0  0  0  0  0  0  0  0
   -0.1172   17.7625    0.5201 H   0  0  0  0  0  0  0  0  0  0  0  0
    0.4310   18.5115   -0.9946 H   0  0  0  0  0  0  0  0  0  0  0  0
   -1.3176   16.2602   -0.7924 H   0  0  0  0  0  0  0  0  0  0  0  0
   -0.4956   16.7421   -2.2743 H   0  0  0  0  0  0  0  0  0  0  0  0
    0.6217   15.2798    1.0944 H   0  0  0  0  0  0  0  0  0  0  0  0
   -0.8479   14.5126    0.4030 H   0  0  0  0  0  0  0  0  0  0  0  0
    0.7134   13.6245    0.4030 H   0  0  0  0  0  0  0  0  0  0  0  0
    0.5859   14.7554   -3.1362 H   0  0  0  0  0  0  0  0  0  0  0  0
   -1.6742   14.2060   -2.0292 H   0  0  0  0  0  0  0  0  0  0  0  0
   -1.0116   13.1760   -3.4039 H   0  0  0  0  0  0  0  0  0  0  0  0
   -2.1237   11.8726   -1.4018 H   0  0  0  0  0  0  0  0  0  0  0  0
    1.7238   12.3143   -0.2568 H   0  0  0  0  0  0  0  0  0  0  0  0
    1.8347   10.2304   -2.5228 H   0  0  0  0  0  0  0  0  0  0  0  0
    3.2405   10.8900   -1.5751 H   0  0  0  0  0  0  0  0  0  0  0  0
    2.5777    8.6297   -0.8164 H   0  0  0  0  0  0  0  0  0  0  0  0
    2.3751    9.8914    0.4618 H   0  0  0  0  0  0  0  0  0  0  0  0
    0.4655    8.4392    0.5026 H   0  0  0  0  0  0  0  0  0  0  0  0
    0.0010    7.5610   -1.3870 H   0  0  0  0  0  0  0  0  0  0  0  0
   -0.5187   10.1049    2.1496 H   0  0  0  0  0  0  0  0  0  0  0  0
    0.9915   10.8988    1.5876 H   0  0  0  0  0  0  0  0  0  0  0  0
   -0.5561   11.8107    1.5876 H   0  0  0  0  0  0  0  0  0  0  0  0
   -2.2037    9.7255    1.0137 H   0  0  0  0  0  0  0  0  0  0  0  0
   -2.4817   10.5796   -0.5419 H   0  0  0  0  0  0  0  0  0  0  0  0
   -1.9067    8.8778   -0.5419 H   0  0  0  0  0  0  0  0  0  0  0  0
    1.8676   11.4248   -3.6481 H   0  0  0  0  0  0  0  0  0  0  0  0
    0.7723   12.7306   -4.2155 H   0  0  0  0  0  0  0  0  0  0  0  0
    2.5503   12.9864   -4.2155 H   0  0  0  0  0  0  0  0  0  0  0  0
    3.6968   12.9142   -1.5681 H   0  0  0  0  0  0  0  0  0  0  0  0
    3.3508   14.1852   -2.8713 H   0  0  0  0  0  0  0  0  0  0  0  0
    2.8896   14.4253    0.1146 H   0  0  0  0  0  0  0  0  0  0  0  0
    4.0570   15.3340   -0.9241 H   0  0  0  0  0  0  0  0  0  0  0  0
    2.8317   17.5091   -2.4213 H   0  0  0  0  0  0  0  0  0  0  0  0
    2.9930   15.8695   -3.1372 H   0  0  0  0  0  0  0  0  0  0  0  0
    1.3984   16.6967   -3.1372 H   0  0  0  0  0  0  0  0  0  0  0  0
  1  2  1  0
  2  3  1  0
  3  4  1  0
  4  5  1  0
  5  6  1  0
  6  7  1  0
  7  8  1  0
  7  9  1  0
  2 10  1  0
 10 11  1  0
 11 12  1  0
 12 13  1  0
 13 14  1  1
 13 15  1  0
 15 16  1  0
 16 17  1  0
 17 18  2  0
 18 19  1  0
 19 20  1  0
 20 21  1  0
 21 22  1  0
 22 23  1  0
 22 24  1  0
 24 25  1  0
 24 26  1  0
 19 27  1  0
 27 28  1  6
 27 29  1  0
 29 30  1  0
 30 31  1  0
 31 32  1  6
  7  5  1  0
 31 10  1  0
 31 13  1  0
 27 15  1  0
 24 18  1  0
  1 33  1  0
  1 34  1  0
  1 35  1  0
  2 36  1  6
  3 37  1  0
  3 38  1  0
  4 39  1  0
  4 40  1  0
  5 41  1  1
  8 42  1  0
  8 43  1  0
  8 44  1  0
  9 45  1  0
  9 46  1  0
  9 47  1  0
 10 48  1  1
 11 49  1  0
 11 50  1  0
 12 51  1  0
 12 52  1  0
 14 53  1  0
 14 54  1  0
 14 55  1  0
 15 56  1  6
 16 57  1  0
 16 58  1  0
 17 59  1  0
 19 60  1  1
 20 61  1  0
 20 62  1  0
 21 63  1  0
 21 64  1  0
 22 65  1  1
 23 66  1  0
 25 67  1  0
 25 68  1  0
 25 69  1  0
 26 70  1  0
 26 71  1  0
 26 72  1  0
 28 73  1  0
 28 74  1  0
 28 75  1  0
 29 76  1  0
 29 77  1  0
 30 78  1  0
 30 79  1  0
 32 80  1  0
 32 81  1  0
 32 82  1  0
M  END
>  <meeko>  (3) 
{"is_sidechain": [false], "intermolecular_energy": 2.731, "internal_energy": -0.839}

$$$$
EPH_relaxed_0001_pdb2pqr_Repair_185_r2_0001_out
     RDKit          3D

 82 86  0  0  0  0  0  0  0  0999 V2000
    0.3020   18.4000   -0.2650 C   0  0  0  0  0  0  0  0  0  0  0  0
    1.4160   17.3590   -0.4040 C   0  0  2  0  0  0  0  0  0  0  0  0
    2.6510   17.9230   -1.1340 C   0  0  0  0  0  0  0  0  0  0  0  0
    3.8550   18.1540   -0.2180 C   0  0  0  0  0  0  0  0  0  0  0  0
    3.4380   18.6590    1.1300 C   0  0  2  0  0  0  0  0  0  0  0  0
    3.6860   20.0540    1.3500 O   0  0  0  0  0  0  0  0  0  0  0  0
    4.4180   19.1410    2.1830 C   0  0  0  0  0  0  0  0  0  0  0  0
    5.8940   19.1400    1.9350 C   0  0  0  0  0  0  0  0  0  0  0  0
    3.9820   19.1500    3.6150 C   0  0  0  0  0  0  0  0  0  0  0  0
    0.8910   16.1310   -1.1400 C   0  0  1  0  0  0  0  0  0  0  0  0
    0.8850   16.3160   -2.6810 C   0  0  0  0  0  0  0  0  0  0  0  0
    1.2160   14.9330   -3.2980 C   0  0  0  0  0  0  0  0  0  0  0  0
    1.0730   13.9370   -2.1230 C   0  0  1  0  0  0  0  0  0  0  0  0
   -0.4590   13.6630   -2.0140 C   0  0  0  0  0  0  0  0  0  0  0  0
    1.8910   12.6090   -2.2390 C   0  0  2  0  0  0  0  0  0  0  0  0
    1.5080   11.7090   -3.4270 C   0  0  0  0  0  0  0  0  0  0  0  0
    0.4440   10.7010   -3.1470 C   0  0  0  0  0  0  0  0  0  0  0  0
    0.0210   10.3300   -1.9240 C   0  0  0  0  0  0  0  0  0  0  0  0
    0.6970   10.8720   -0.6580 C   0  0  1  0  0  0  0  0  0  0  0  0
    0.9680    9.7040    0.3260 C   0  0  0  0  0  0  0  0  0  0  0  0
   -0.2890    8.8970    0.6360 C   0  0  0  0  0  0  0  0  0  0  0  0
   -0.8990    8.3260   -0.6410 C   0  0  2  0  0  0  0  0  0  0  0  0
   -0.0020    7.3530   -1.1850 O   0  0  0  0  0  0  0  0  0  0  0  0
   -1.2060    9.4100   -1.7120 C   0  0  0  0  0  0  0  0  0  0  0  0
   -2.3940   10.2850   -1.2400 C   0  0  0  0  0  0  0  0  0  0  0  0
   -1.6840    8.6860   -3.0000 C   0  0  0  0  0  0  0  0  0  0  0  0
    1.9790   11.7830   -0.8930 C   0  0  1  0  0  0  0  0  0  0  0  0
    3.2530   10.8900   -1.0010 C   0  0  0  0  0  0  0  0  0  0  0  0
    2.1900   12.7070    0.3640 C   0  0  0  0  0  0  0  0  0  0  0  0
    1.4500   14.0580    0.3650 C   0  0  0  0  0  0  0  0  0  0  0  0
    1.6680   14.8040   -0.9540 C   0  0  2  0  0  0  0  0  0  0  0  0
    3.1990   15.1140   -1.0810 C   0  0  0  0  0  0  0  0  0  0  0  0
    0.1040   18.5850    0.8011 H   0  0  0  0  0  0  0  0  0  0  0  0
    0.6140   19.3377   -0.7481 H   0  0  0  0  0  0  0  0  0  0  0  0
   -0.6124   18.0252   -0.7481 H   0  0  0  0  0  0  0  0  0  0  0  0
    1.7335   17.0770    0.6107 H   0  0  0  0  0  0  0  0  0  0  0  0
    2.9443   17.2120   -1.9204 H   0  0  0  0  0  0  0  0  0  0  0  0
    2.3638   18.9038   -1.5408 H   0  0  0  0  0  0  0  0  0  0  0  0
    4.3940   17.2035   -0.0914 H   0  0  0  0  0  0  0  0  0  0  0  0
    4.4994   18.9139   -0.6842 H   0  0  0  0  0  0  0  0  0  0  0  0
    2.6083   17.9378    1.1693 H   0  0  0  0  0  0  0  0  0  0  0  0
    6.4274   19.1396    2.8970 H   0  0  0  0  0  0  0  0  0  0  0  0
    6.1691   18.2417    1.3629 H   0  0  0  0  0  0  0  0  0  0  0  0
    6.1703   20.0380    1.3629 H   0  0  0  0  0  0  0  0  0  0  0  0
    4.8671   19.1317    4.2679 H   0  0  0  0  0  0  0  0  0  0  0  0
    3.3978   20.0604    3.8147 H   0  0  0  0  0  0  0  0  0  0  0  0
    3.3607   18.2645    3.8147 H   0  0  0  0  0  0  0  0  0  0  0  0
   -0.1044   16.0509   -0.6788 H   0  0  0  0  0  0  0  0  0  0  0  0
   -0.1060   16.6540   -3.0182 H   0  0  0  0  0  0  0  0  0  0  0  0
    1.6201   17.0733   -2.9910 H   0  0  0  0  0  0  0  0  0  0  0  0
    0.5081   14.6876   -4.1034 H   0  0  0  0  0  0  0  0  0  0  0  0
    2.2196   14.9063   -3.7476 H   0  0  0  0  0  0  0  0  0  0  0  0
   -0.7477   13.6114   -0.9538 H   0  0  0  0  0  0  0  0  0  0  0  0
   -1.0128   14.4763   -2.5057 H   0  0  0  0  0  0  0  0  0  0  0  0
   -0.6966   12.7081   -2.5057 H   0  0  0  0  0  0  0  0  0  0  0  0
    2.9056   12.9744   -2.4559 H   0  0  0  0  0  0  0  0  0  0  0  0
    1.1563   12.3562   -4.2440 H   0  0  0  0  0  0  0  0  0  0  0  0
    2.4123   11.1349   -3.6773 H   0  0  0  0  0  0  0  0  0  0  0  0
   -0.0351   10.2206   -4.0128 H   0  0  0  0  0  0  0  0  0  0  0  0
   -0.0179   11.5778   -0.2099 H   0  0  0  0  0  0  0  0  0  0  0  0
    1.7166    9.0331   -0.1206 H   0  0  0  0  0  0  0  0  0  0  0  0
    1.3268   10.1393    1.2703 H   0  0  0  0  0  0  0  0  0  0  0  0
   -0.0279    8.0692    1.3117 H   0  0  0  0  0  0  0  0  0  0  0  0
   -1.0256    9.5625    1.1100 H   0  0  0  0  0  0  0  0  0  0  0  0
   -1.8632    7.8707   -0.3708 H   0  0  0  0  0  0  0  0  0  0  0  0
   -0.2060    7.2600   -2.1310 H   0  0  0  0  0  0  0  0  0  0  0  0
   -2.4208   10.3047   -0.1405 H   0  0  0  0  0  0  0  0  0  0  0  0
   -2.2698   11.3090   -1.6222 H   0  0  0  0  0  0  0  0  0  0  0  0
   -3.3350    9.8626   -1.6222 H   0  0  0  0  0  0  0  0  0  0  0  0
   -2.2708    7.7972   -2.7247 H   0  0  0  0  0  0  0  0  0  0  0  0
   -2.3094    9.3688   -3.5938 H   0  0  0  0  0  0  0  0  0  0  0  0
   -0.8104    8.3791   -3.5938 H   0  0  0  0  0  0  0  0  0  0  0  0
    3.6113   10.6388    0.0082 H   0  0  0  0  0  0  0  0  0  0  0  0
    3.0076    9.9652   -1.5437 H   0  0  0  0  0  0  0  0  0  0  0  0
    4.0386   11.4361   -1.5437 H   0  0  0  0  0  0  0  0  0  0  0  0
    1.8581   12.1451    1.2495 H   0  0  0  0  0  0  0  0  0  0  0  0
    3.2594   12.9646    0.3556 H   0  0  0  0  0  0  0  0  0  0  0  0
    0.3736   13.8784    0.5030 H   0  0  0  0  0  0  0  0  0  0  0  0
    1.8463   14.6740    1.1856 H   0  0  0  0  0  0  0  0  0  0  0  0
    3.6396   15.2032   -0.0770 H   0  0  0  0  0  0  0  0  0  0  0  0
    3.6943   14.2979   -1.6276 H   0  0  0  0  0  0  0  0  0  0  0  0
    3.3378   16.0585   -1.6276 H   0  0  0  0  0  0  0  0  0  0  0  0
  1  2  1  0
  2  3  1  0
  3  4  1  0
  4  5  1  0
  5  6  1  0
  6  7  1  0
  7  8  1  0
  7  9  1  0
  2 10  1  0
 10 11  1  0
 11 12  1  0
 12 13  1  0
 13 14  1  1
 13 15  1  0
 15 16  1  0
 16 17  1  0
 17 18  2  0
 18 19  1  0
 19 20  1  0
 20 21  1  0
 21 22  1  0
 22 23  1  0
 22 24  1  0
 24 25  1  0
 24 26  1  0
 19 27  1  0
 27 28  1  6
 27 29  1  0
 29 30  1  0
 30 31  1  0
 31 32  1  6
  7  5  1  0
 31 10  1  0
 31 13  1  0
 27 15  1  0
 24 18  1  0
  1 33  1  0
  1 34  1  0
  1 35  1  0
  2 36  1  1
  3 37  1  0
  3 38  1  0
  4 39  1  0
  4 40  1  0
  5 41  1  1
  8 42  1  0
  8 43  1  0
  8 44  1  0
  9 45  1  0
  9 46  1  0
  9 47  1  0
 10 48  1  1
 11 49  1  0
 11 50  1  0
 12 51  1  0
 12 52  1  0
 14 53  1  0
 14 54  1  0
 14 55  1  0
 15 56  1  6
 16 57  1  0
 16 58  1  0
 17 59  1  0
 19 60  1  1
 20 61  1  0
 20 62  1  0
 21 63  1  0
 21 64  1  0
 22 65  1  1
 23 66  1  0
 25 67  1  0
 25 68  1  0
 25 69  1  0
 26 70  1  0
 26 71  1  0
 26 72  1  0
 28 73  1  0
 28 74  1  0
 28 75  1  0
 29 76  1  0
 29 77  1  0
 30 78  1  0
 30 79  1  0
 32 80  1  0
 32 81  1  0
 32 82  1  0
M  END
>  <meeko>  (4) 
{"is_sidechain": [false], "intermolecular_energy": 2.731, "internal_energy": -0.839}

$$$$
EPH_relaxed_0001_pdb2pqr_Repair_185_r2_0001_out
     RDKit          3D

 82 86  0  0  0  0  0  0  0  0999 V2000
   -5.1610    5.9170   -1.6400 C   0  0  0  0  0  0  0  0  0  0  0  0
   -5.4460    7.4140   -1.7890 C   0  0  2  0  0  0  0  0  0  0  0  0
   -5.1950    8.1860   -0.4780 C   0  0  0  0  0  0  0  0  0  0  0  0
   -4.1890    9.3310   -0.6200 C   0  0  0  0  0  0  0  0  0  0  0  0
   -2.7960    8.8900   -0.2850 C   0  0  2  0  0  0  0  0  0  0  0  0
   -2.1420    9.6820    0.7150 O   0  0  0  0  0  0  0  0  0  0  0  0
   -1.5600    9.7130   -0.5980 C   0  0  0  0  0  0  0  0  0  0  0  0
   -1.6590   11.0430   -1.2770 C   0  0  0  0  0  0  0  0  0  0  0  0
   -0.2400    9.0140   -0.6890 C   0  0  0  0  0  0  0  0  0  0  0  0
   -6.8820    7.6260   -2.2510 C   0  0  1  0  0  0  0  0  0  0  0  0
   -7.1860    6.9230   -3.6010 C   0  0  0  0  0  0  0  0  0  0  0  0
   -8.6560    6.4370   -3.5320 C   0  0  0  0  0  0  0  0  0  0  0  0
   -9.2480    7.1590   -2.2980 C   0  0  1  0  0  0  0  0  0  0  0  0
   -9.6120    8.5890   -2.8060 C   0  0  0  0  0  0  0  0  0  0  0  0
  -10.4670    6.4630   -1.6090 C   0  0  2  0  0  0  0  0  0  0  0  0
  -11.7210    6.3230   -2.4900 C   0  0  0  0  0  0  0  0  0  0  0  0
  -12.6850    7.4610   -2.4120 C   0  0  0  0  0  0  0  0  0  0  0  0
  -12.6950    8.4130   -1.4610 C   0  0  0  0  0  0  0  0  0  0  0  0
  -11.7290    8.3500   -0.2720 C   0  0  1  0  0  0  0  0  0  0  0  0
  -12.5050    8.6270    1.0420 C   0  0  0  0  0  0  0  0  0  0  0  0
  -13.2860    9.9370    0.9950 C   0  0  0  0  0  0  0  0  0  0  0  0
  -14.2770    9.9390   -0.1660 C   0  0  2  0  0  0  0  0  0  0  0  0
  -15.2860    8.9570    0.0880 O   0  0  0  0  0  0  0  0  0  0  0  0
  -13.6110    9.6600   -1.5420 C   0  0  0  0  0  0  0  0  0  0  0  0
  -12.7430   10.8740   -1.9560 C   0  0  0  0  0  0  0  0  0  0  0  0
  -14.7370    9.5490   -2.6050 C   0  0  0  0  0  0  0  0  0  0  0  0
  -10.8240    7.0460   -0.1820 C   0  0  1  0  0  0  0  0  0  0  0  0
  -11.5880    5.9200    0.5800 C   0  0  0  0  0  0  0  0  0  0  0  0
   -9.5410    7.3670    0.6710 C   0  0  0  0  0  0  0  0  0  0  0  0
   -8.3290    7.9410   -0.0860 C   0  0  0  0  0  0  0  0  0  0  0  0
   -8.0110    7.1030   -1.3280 C   0  0  2  0  0  0  0  0  0  0  0  0
   -7.6200    5.6640   -0.8470 C   0  0  0  0  0  0  0  0  0  0  0  0
   -5.1116    5.6577   -0.5722 H   0  0  0  0  0  0  0  0  0  0  0  0
   -5.9656    5.3410   -2.1204 H   0  0  0  0  0  0  0  0  0  0  0  0
   -4.2010    5.6769   -2.1204 H   0  0  0  0  0  0  0  0  0  0  0  0
   -4.7504    7.8098   -2.5437 H   0  0  0  0  0  0  0  0  0  0  0  0
   -6.1518    8.6053   -0.1335 H   0  0  0  0  0  0  0  0  0  0  0  0
   -4.7674    7.4701    0.2393 H   0  0  0  0  0  0  0  0  0  0  0  0
   -4.2077    9.6953   -1.6578 H   0  0  0  0  0  0  0  0  0  0  0  0
   -4.4748   10.1276    0.0827 H   0  0  0  0  0  0  0  0  0  0  0  0
   -3.0541    7.8401   -0.4875 H   0  0  0  0  0  0  0  0  0  0  0  0
   -1.7182   11.8381   -0.5191 H   0  0  0  0  0  0  0  0  0  0  0  0
   -0.7701   11.2009   -1.9055 H   0  0  0  0  0  0  0  0  0  0  0  0
   -2.5615   11.0676   -1.9055 H   0  0  0  0  0  0  0  0  0  0  0  0
    0.1392    8.8132    0.3239 H   0  0  0  0  0  0  0  0  0  0  0  0
   -0.3647    8.0638   -1.2289 H   0  0  0  0  0  0  0  0  0  0  0  0
    0.4759    9.6512   -1.2289 H   0  0  0  0  0  0  0  0  0  0  0  0
   -6.9034    8.7252   -2.2856 H   0  0  0  0  0  0  0  0  0  0  0  0
   -7.0599    7.6310   -4.4334 H   0  0  0  0  0  0  0  0  0  0  0  0
   -6.4994    6.0805   -3.7706 H   0  0  0  0  0  0  0  0  0  0  0  0
   -9.2012    6.7181   -4.4451 H   0  0  0  0  0  0  0  0  0  0  0  0
   -8.7302    5.3425   -3.4505 H   0  0  0  0  0  0  0  0  0  0  0  0
   -9.7808    9.2521   -1.9447 H   0  0  0  0  0  0  0  0  0  0  0  0
   -8.7855    8.9830   -3.4157 H   0  0  0  0  0  0  0  0  0  0  0  0
  -10.5263    8.5399   -3.4157 H   0  0  0  0  0  0  0  0  0  0  0  0
  -10.0973    5.4391   -1.4513 H   0  0  0  0  0  0  0  0  0  0  0  0
  -11.3930    6.2263   -3.5355 H   0  0  0  0  0  0  0  0  0  0  0  0
  -12.2602    5.4408   -2.1144 H   0  0  0  0  0  0  0  0  0  0  0  0
  -13.4515    7.5265   -3.1982 H   0  0  0  0  0  0  0  0  0  0  0  0
  -10.9870    9.1441   -0.4417 H   0  0  0  0  0  0  0  0  0  0  0  0
  -13.2111    7.8015    1.2153 H   0  0  0  0  0  0  0  0  0  0  0  0
  -11.7680    8.7065    1.8547 H   0  0  0  0  0  0  0  0  0  0  0  0
  -13.8368   10.0619    1.9389 H   0  0  0  0  0  0  0  0  0  0  0  0
  -12.5757   10.7647    0.8522 H   0  0  0  0  0  0  0  0  0  0  0  0
  -14.7105   10.9481   -0.2273 H   0  0  0  0  0  0  0  0  0  0  0  0
  -15.0020    8.4350    0.8580 H   0  0  0  0  0  0  0  0  0  0  0  0
  -12.3763   11.3869   -1.0547 H   0  0  0  0  0  0  0  0  0  0  0  0
  -11.8875   10.5263   -2.5537 H   0  0  0  0  0  0  0  0  0  0  0  0
  -13.3487   11.5710   -2.5537 H   0  0  0  0  0  0  0  0  0  0  0  0
  -15.7096    9.4531   -2.1002 H   0  0  0  0  0  0  0  0  0  0  0  0
  -14.7377   10.4514   -3.2340 H   0  0  0  0  0  0  0  0  0  0  0  0
  -14.5615    8.6638   -3.2340 H   0  0  0  0  0  0  0  0  0  0  0  0
  -11.4831    6.0746    1.6640 H   0  0  0  0  0  0  0  0  0  0  0  0
  -12.6531    5.9499    0.3067 H   0  0  0  0  0  0  0  0  0  0  0  0
  -11.1667    4.9413    0.3067 H   0  0  0  0  0  0  0  0  0  0  0  0
   -9.8281    8.0973    1.4418 H   0  0  0  0  0  0  0  0  0  0  0  0
   -9.2033    6.3949    1.0596 H   0  0  0  0  0  0  0  0  0  0  0  0
   -8.5537    8.9723   -0.3957 H   0  0  0  0  0  0  0  0  0  0  0  0
   -7.4562    7.9213    0.5832 H   0  0  0  0  0  0  0  0  0  0  0  0
   -7.6120    5.6345    0.2526 H   0  0  0  0  0  0  0  0  0  0  0  0
   -8.3535    4.9381   -1.2279 H   0  0  0  0  0  0  0  0  0  0  0  0
   -6.6200    5.4091   -1.2279 H   0  0  0  0  0  0  0  0  0  0  0  0
  1  2  1  0
  2  3  1  0
  3  4  1  0
  4  5  1  0
  5  6  1  0
  6  7  1  0
  7  8  1  0
  7  9  1  0
  2 10  1  0
 10 11  1  0
 11 12  1  0
 12 13  1  0
 13 14  1  6
 13 15  1  0
 15 16  1  0
 16 17  1  0
 17 18  2  0
 18 19  1  0
 19 20  1  0
 20 21  1  0
 21 22  1  0
 22 23  1  0
 22 24  1  0
 24 25  1  0
 24 26  1  0
 19 27  1  0
 27 28  1  1
 27 29  1  0
 29 30  1  0
 30 31  1  0
 31 32  1  1
  7  5  1  0
 31 10  1  0
 31 13  1  0
 27 15  1  0
 24 18  1  0
  1 33  1  0
  1 34  1  0
  1 35  1  0
  2 36  1  6
  3 37  1  0
  3 38  1  0
  4 39  1  0
  4 40  1  0
  5 41  1  1
  8 42  1  0
  8 43  1  0
  8 44  1  0
  9 45  1  0
  9 46  1  0
  9 47  1  0
 10 48  1  6
 11 49  1  0
 11 50  1  0
 12 51  1  0
 12 52  1  0
 14 53  1  0
 14 54  1  0
 14 55  1  0
 15 56  1  1
 16 57  1  0
 16 58  1  0
 17 59  1  0
 19 60  1  6
 20 61  1  0
 20 62  1  0
 21 63  1  0
 21 64  1  0
 22 65  1  6
 23 66  1  0
 25 67  1  0
 25 68  1  0
 25 69  1  0
 26 70  1  0
 26 71  1  0
 26 72  1  0
 28 73  1  0
 28 74  1  0
 28 75  1  0
 29 76  1  0
 29 77  1  0
 30 78  1  0
 30 79  1  0
 32 80  1  0
 32 81  1  0
 32 82  1  0
M  END
>  <meeko>  (5) 
{"is_sidechain": [false], "intermolecular_energy": 2.731, "internal_energy": -0.839}

$$$$
EPH_relaxed_0001_pdb2pqr_Repair_185_r2_0001_out
     RDKit          3D

 82 86  0  0  0  0  0  0  0  0999 V2000
   -0.2170   10.3850   -3.5950 C   0  0  0  0  0  0  0  0  0  0  0  0
    0.9270   10.2200   -2.5910 C   0  0  2  0  0  0  0  0  0  0  0  0
    0.7660    8.9520   -1.7290 C   0  0  0  0  0  0  0  0  0  0  0  0
    0.0910    9.2060   -0.3790 C   0  0  0  0  0  0  0  0  0  0  0  0
   -1.3310    8.7330   -0.3720 C   0  0  2  0  0  0  0  0  0  0  0  0
   -1.9920    8.8040   -1.6420 O   0  0  0  0  0  0  0  0  0  0  0  0
   -2.5180    9.6480   -0.6050 C   0  0  0  0  0  0  0  0  0  0  0  0
   -2.3370   11.1110   -0.8610 C   0  0  0  0  0  0  0  0  0  0  0  0
   -3.8620    9.2190   -0.1020 C   0  0  0  0  0  0  0  0  0  0  0  0
    1.0140   11.4500   -1.6950 C   0  0  1  0  0  0  0  0  0  0  0  0
    2.0930   11.3100   -0.5890 C   0  0  0  0  0  0  0  0  0  0  0  0
    2.7010   12.7200   -0.3750 C   0  0  0  0  0  0  0  0  0  0  0  0
    1.7370   13.6760   -1.1150 C   0  0  1  0  0  0  0  0  0  0  0  0
    0.5540   13.8990   -0.1220 C   0  0  0  0  0  0  0  0  0  0  0  0
    2.3460   15.0320   -1.6000 C   0  0  2  0  0  0  0  0  0  0  0  0
    2.8640   15.9530   -0.4810 C   0  0  0  0  0  0  0  0  0  0  0  0
    1.8640   16.9190    0.0630 C   0  0  0  0  0  0  0  0  0  0  0  0
    0.6930   17.2420   -0.5160 C   0  0  0  0  0  0  0  0  0  0  0  0
    0.3160   16.6850   -1.8950 C   0  0  1  0  0  0  0  0  0  0  0  0
   -0.2270   17.8330   -2.7860 C   0  0  0  0  0  0  0  0  0  0  0  0
   -1.3760   18.5900   -2.1290 C   0  0  0  0  0  0  0  0  0  0  0  0
   -0.9450   19.1780   -0.7880 C   0  0  2  0  0  0  0  0  0  0  0  0
    0.0340   20.1940   -1.0230 O   0  0  0  0  0  0  0  0  0  0  0  0
   -0.3720   18.1160    0.1910 C   0  0  0  0  0  0  0  0  0  0  0  0
   -1.5130   17.1910    0.6820 C   0  0  0  0  0  0  0  0  0  0  0  0
    0.1540   18.8600    1.4480 C   0  0  0  0  0  0  0  0  0  0  0  0
    1.4350   15.8230   -2.6240 C   0  0  1  0  0  0  0  0  0  0  0  0
    2.3830   16.7580   -3.4340 C   0  0  0  0  0  0  0  0  0  0  0  0
    0.7480   14.8700   -3.6730 C   0  0  0  0  0  0  0  0  0  0  0  0
    0.2750   13.4970   -3.1590 C   0  0  0  0  0  0  0  0  0  0  0  0
    1.3840   12.7960   -2.3680 C   0  0  2  0  0  0  0  0  0  0  0  0
    2.5800   12.5390   -3.3470 C   0  0  0  0  0  0  0  0  0  0  0  0
   -1.1641   10.5216   -3.0525 H   0  0  0  0  0  0  0  0  0  0  0  0
   -0.0262   11.2649   -4.2269 H   0  0  0  0  0  0  0  0  0  0  0  0
   -0.2826    9.4870   -4.2269 H   0  0  0  0  0  0  0  0  0  0  0  0
    1.8581   10.1119   -3.1666 H   0  0  0  0  0  0  0  0  0  0  0  0
    0.1587    8.2261   -2.2895 H   0  0  0  0  0  0  0  0  0  0  0  0
    1.7783    8.5778   -1.5163 H   0  0  0  0  0  0  0  0  0  0  0  0
    0.6483    8.6713    0.4043 H   0  0  0  0  0  0  0  0  0  0  0  0
    0.0924   10.2903   -0.1938 H   0  0  0  0  0  0  0  0  0  0  0  0
   -1.1080    8.0005    0.4178 H   0  0  0  0  0  0  0  0  0  0  0  0
   -2.2709   11.6456    0.0981 H   0  0  0  0  0  0  0  0  0  0  0  0
   -1.4122   11.2712   -1.4346 H   0  0  0  0  0  0  0  0  0  0  0  0
   -3.1949   11.4918   -1.4346 H   0  0  0  0  0  0  0  0  0  0  0  0
   -3.8592    9.2199    0.9980 H   0  0  0  0  0  0  0  0  0  0  0  0
   -4.6300    9.9166   -0.4673 H   0  0  0  0  0  0  0  0  0  0  0  0
   -4.0838    8.2054   -0.4673 H   0  0  0  0  0  0  0  0  0  0  0  0
   -0.0229   11.4839   -1.3294 H   0  0  0  0  0  0  0  0  0  0  0  0
    1.6346   10.9498    0.3438 H   0  0  0  0  0  0  0  0  0  0  0  0
    2.8678   10.5866   -0.8829 H   0  0  0  0  0  0  0  0  0  0  0  0
    2.7451   12.9655    0.6963 H   0  0  0  0  0  0  0  0  0  0  0  0
    3.7317   12.7919   -0.7525 H   0  0  0  0  0  0  0  0  0  0  0  0
    0.9245   13.8292    0.9114 H   0  0  0  0  0  0  0  0  0  0  0  0
    0.1182   14.8951   -0.2887 H   0  0  0  0  0  0  0  0  0  0  0  0
   -0.2146   13.1299   -0.2887 H   0  0  0  0  0  0  0  0  0  0  0  0
    3.2381   14.7041   -2.1537 H   0  0  0  0  0  0  0  0  0  0  0  0
    3.2102   15.3188    0.3484 H   0  0  0  0  0  0  0  0  0  0  0  0
    3.6614   16.5617   -0.9322 H   0  0  0  0  0  0  0  0  0  0  0  0
    2.1049   17.4083    1.0183 H   0  0  0  0  0  0  0  0  0  0  0  0
   -0.4769   15.9435   -1.7176 H   0  0  0  0  0  0  0  0  0  0  0  0
    0.5913   18.5399   -2.9877 H   0  0  0  0  0  0  0  0  0  0  0  0
   -0.6110   17.3827   -3.7133 H   0  0  0  0  0  0  0  0  0  0  0  0
   -1.6964   19.4059   -2.7936 H   0  0  0  0  0  0  0  0  0  0  0  0
   -2.2049   17.8882   -1.9547 H   0  0  0  0  0  0  0  0  0  0  0  0
   -1.8423   19.5951   -0.3075 H   0  0  0  0  0  0  0  0  0  0  0  0
    0.5920   20.2550   -0.2290 H   0  0  0  0  0  0  0  0  0  0  0  0
   -1.5277   17.1791    1.7818 H   0  0  0  0  0  0  0  0  0  0  0  0
   -2.4764   17.5662    0.3064 H   0  0  0  0  0  0  0  0  0  0  0  0
   -1.3452   16.1708    0.3064 H   0  0  0  0  0  0  0  0  0  0  0  0
   -0.2065   18.3501    2.3535 H   0  0  0  0  0  0  0  0  0  0  0  0
    1.2540   18.8601    1.4405 H   0  0  0  0  0  0  0  0  0  0  0  0
   -0.2128   19.8970    1.4405 H   0  0  0  0  0  0  0  0  0  0  0  0
    2.9898   17.3565   -2.7385 H   0  0  0  0  0  0  0  0  0  0  0  0
    3.0448   16.1493   -4.0676 H   0  0  0  0  0  0  0  0  0  0  0  0
    1.7835   17.4282   -4.0676 H   0  0  0  0  0  0  0  0  0  0  0  0
   -0.1308   15.3957   -4.0746 H   0  0  0  0  0  0  0  0  0  0  0  0
    1.5298   14.6462   -4.4137 H   0  0  0  0  0  0  0  0  0  0  0  0
   -0.5985   13.6388   -2.5056 H   0  0  0  0  0  0  0  0  0  0  0  0
    0.0113   12.8705   -4.0238 H   0  0  0  0  0  0  0  0  0  0  0  0
    3.4934   12.3427   -2.7664 H   0  0  0  0  0  0  0  0  0  0  0  0
    2.3544   11.6688   -3.9810 H   0  0  0  0  0  0  0  0  0  0  0  0
    2.7318   13.4250   -3.9810 H   0  0  0  0  0  0  0  0  0  0  0  0
  1  2  1  0
  2  3  1  0
  3  4  1  0
  4  5  1  0
  5  6  1  0
  6  7  1  0
  7  8  1  0
  7  9  1  0
  2 10  1  0
 10 11  1  0
 11 12  1  0
 12 13  1  0
 13 14  1  1
 13 15  1  0
 15 16  1  0
 16 17  1  0
 17 18  2  0
 18 19  1  0
 19 20  1  0
 20 21  1  0
 21 22  1  0
 22 23  1  0
 22 24  1  0
 24 25  1  0
 24 26  1  0
 19 27  1  0
 27 28  1  6
 27 29  1  0
 29 30  1  0
 30 31  1  0
 31 32  1  6
  7  5  1  0
 31 10  1  0
 31 13  1  0
 27 15  1  0
 24 18  1  0
  1 33  1  0
  1 34  1  0
  1 35  1  0
  2 36  1  6
  3 37  1  0
  3 38  1  0
  4 39  1  0
  4 40  1  0
  5 41  1  1
  8 42  1  0
  8 43  1  0
  8 44  1  0
  9 45  1  0
  9 46  1  0
  9 47  1  0
 10 48  1  1
 11 49  1  0
 11 50  1  0
 12 51  1  0
 12 52  1  0
 14 53  1  0
 14 54  1  0
 14 55  1  0
 15 56  1  6
 16 57  1  0
 16 58  1  0
 17 59  1  0
 19 60  1  1
 20 61  1  0
 20 62  1  0
 21 63  1  0
 21 64  1  0
 22 65  1  1
 23 66  1  0
 25 67  1  0
 25 68  1  0
 25 69  1  0
 26 70  1  0
 26 71  1  0
 26 72  1  0
 28 73  1  0
 28 74  1  0
 28 75  1  0
 29 76  1  0
 29 77  1  0
 30 78  1  0
 30 79  1  0
 32 80  1  0
 32 81  1  0
 32 82  1  0
M  END
>  <meeko>  (6) 
{"is_sidechain": [false], "intermolecular_energy": 2.731, "internal_energy": -0.839}

$$$$
EPH_relaxed_0001_pdb2pqr_Repair_185_r2_0001_out
     RDKit          3D

 82 86  0  0  0  0  0  0  0  0999 V2000
   -0.3550   19.3370   -2.5290 C   0  0  0  0  0  0  0  0  0  0  0  0
    0.5660   18.8850   -1.3920 C   0  0  2  0  0  0  0  0  0  0  0  0
    1.6960   19.8990   -1.1210 C   0  0  0  0  0  0  0  0  0  0  0  0
    1.9130   20.1940    0.3660 C   0  0  0  0  0  0  0  0  0  0  0  0
    3.3340   19.9500    0.7770 C   0  0  2  0  0  0  0  0  0  0  0  0
    3.5470   18.7290    1.4960 O   0  0  0  0  0  0  0  0  0  0  0  0
    3.7970   19.9440    2.2220 C   0  0  0  0  0  0  0  0  0  0  0  0
    2.8420   20.1870    3.3480 C   0  0  0  0  0  0  0  0  0  0  0  0
    5.2460   20.1870    2.5100 C   0  0  0  0  0  0  0  0  0  0  0  0
    1.1600   17.5190   -1.7170 C   0  0  1  0  0  0  0  0  0  0  0  0
    2.7100   17.5410   -1.7790 C   0  0  0  0  0  0  0  0  0  0  0  0
    3.1990   16.1750   -1.2320 C   0  0  0  0  0  0  0  0  0  0  0  0
    1.9280   15.2950   -1.1870 C   0  0  1  0  0  0  0  0  0  0  0  0
    1.7410   14.7850   -2.6500 C   0  0  0  0  0  0  0  0  0  0  0  0
    1.9400   14.1150   -0.1610 C   0  0  2  0  0  0  0  0  0  0  0  0
    3.0200   13.0480   -0.4070 C   0  0  0  0  0  0  0  0  0  0  0  0
    2.6050   11.9120   -1.2830 C   0  0  0  0  0  0  0  0  0  0  0  0
    1.3390   11.6040   -1.6170 C   0  0  0  0  0  0  0  0  0  0  0  0
    0.1560   12.3780   -1.0200 C   0  0  1  0  0  0  0  0  0  0  0  0
   -0.9290   11.3770   -0.5420 C   0  0  0  0  0  0  0  0  0  0  0  0
   -1.3590   10.4110   -1.6410 C   0  0  0  0  0  0  0  0  0  0  0  0
   -0.1660    9.6180   -2.1680 C   0  0  2  0  0  0  0  0  0  0  0  0
    0.3100    8.7550   -1.1300 O   0  0  0  0  0  0  0  0  0  0  0  0
    0.9960   10.5210   -2.6700 C   0  0  0  0  0  0  0  0  0  0  0  0
    0.5740   11.2320   -3.9790 C   0  0  0  0  0  0  0  0  0  0  0  0
    2.1900    9.6000   -3.0420 C   0  0  0  0  0  0  0  0  0  0  0  0
    0.5220   13.4570    0.0870 C   0  0  1  0  0  0  0  0  0  0  0  0
    0.5840   12.7800    1.4900 C   0  0  0  0  0  0  0  0  0  0  0  0
   -0.6300   14.5280    0.1610 C   0  0  0  0  0  0  0  0  0  0  0  0
   -0.5230   15.7320   -0.7940 C   0  0  0  0  0  0  0  0  0  0  0  0
    0.8710   16.3640   -0.7260 C   0  0  2  0  0  0  0  0  0  0  0  0
    1.0790   16.9070    0.7290 C   0  0  0  0  0  0  0  0  0  0  0  0
   -1.2667   19.7844   -2.1065 H   0  0  0  0  0  0  0  0  0  0  0  0
    0.1658   20.0819   -3.1486 H   0  0  0  0  0  0  0  0  0  0  0  0
   -0.6256   18.4693   -3.1486 H   0  0  0  0  0  0  0  0  0  0  0  0
   -0.0439   18.8187   -0.4789 H   0  0  0  0  0  0  0  0  0  0  0  0
    2.6317   19.4956   -1.5354 H   0  0  0  0  0  0  0  0  0  0  0  0
    1.4005   20.8455   -1.5973 H   0  0  0  0  0  0  0  0  0  0  0  0
    1.6610   21.2468    0.5613 H   0  0  0  0  0  0  0  0  0  0  0  0
    1.2668   19.5201    0.9476 H   0  0  0  0  0  0  0  0  0  0  0  0
    3.7075   20.4742   -0.1150 H   0  0  0  0  0  0  0  0  0  0  0  0
    3.3643   20.0541    4.3069 H   0  0  0  0  0  0  0  0  0  0  0  0
    2.4513   21.2132    3.2824 H   0  0  0  0  0  0  0  0  0  0  0  0
    2.0083   19.4724    3.2824 H   0  0  0  0  0  0  0  0  0  0  0  0
    5.4041   20.2135    3.5983 H   0  0  0  0  0  0  0  0  0  0  0  0
    5.8478   19.3772    2.0717 H   0  0  0  0  0  0  0  0  0  0  0  0
    5.5507   21.1488    2.0717 H   0  0  0  0  0  0  0  0  0  0  0  0
    0.6603   17.3246   -2.6775 H   0  0  0  0  0  0  0  0  0  0  0  0
    3.0457   17.6751   -2.8179 H   0  0  0  0  0  0  0  0  0  0  0  0
    3.1173   18.3728   -1.1855 H   0  0  0  0  0  0  0  0  0  0  0  0
    3.9521   15.7354   -1.9025 H   0  0  0  0  0  0  0  0  0  0  0  0
    3.6773   16.2677   -0.2458 H   0  0  0  0  0  0  0  0  0  0  0  0
    1.3624   13.7524   -2.6327 H   0  0  0  0  0  0  0  0  0  0  0  0
    1.0212   15.4308   -3.1742 H   0  0  0  0  0  0  0  0  0  0  0  0
    2.7077   14.8124   -3.1742 H   0  0  0  0  0  0  0  0  0  0  0  0
    2.2256   14.6184    0.7744 H   0  0  0  0  0  0  0  0  0  0  0  0
    3.8844   13.5408   -0.8759 H   0  0  0  0  0  0  0  0  0  0  0  0
    3.2439   12.6086    0.5763 H   0  0  0  0  0  0  0  0  0  0  0  0
    3.4025   11.2728   -1.6897 H   0  0  0  0  0  0  0  0  0  0  0  0
   -0.2435   13.0000   -1.8346 H   0  0  0  0  0  0  0  0  0  0  0  0
   -0.5258   10.7957    0.3003 H   0  0  0  0  0  0  0  0  0  0  0  0
   -1.8134   11.9600   -0.2454 H   0  0  0  0  0  0  0  0  0  0  0  0
   -2.1046    9.7119   -1.2343 H   0  0  0  0  0  0  0  0  0  0  0  0
   -1.7885   10.9918   -2.4706 H   0  0  0  0  0  0  0  0  0  0  0  0
   -0.5128    9.0398   -3.0371 H   0  0  0  0  0  0  0  0  0  0  0  0
   -0.3070    8.8280   -0.3820 H   0  0  0  0  0  0  0  0  0  0  0  0
    0.0265   12.1544   -3.7352 H   0  0  0  0  0  0  0  0  0  0  0  0
    1.4702   11.4818   -4.5659 H   0  0  0  0  0  0  0  0  0  0  0  0
   -0.0745   10.5650   -4.5659 H   0  0  0  0  0  0  0  0  0  0  0  0
    2.6686    9.2309   -2.1229 H   0  0  0  0  0  0  0  0  0  0  0  0
    1.8250    8.7473   -3.6333 H   0  0  0  0  0  0  0  0  0  0  0  0
    2.9221   10.1696   -3.6333 H   0  0  0  0  0  0  0  0  0  0  0  0
    0.5135   13.5502    2.2722 H   0  0  0  0  0  0  0  0  0  0  0  0
   -0.2533   12.0742    1.5939 H   0  0  0  0  0  0  0  0  0  0  0  0
    1.5355   12.2380    1.5939 H   0  0  0  0  0  0  0  0  0  0  0  0
   -1.5772   14.0132   -0.0577 H   0  0  0  0  0  0  0  0  0  0  0  0
   -0.5599   14.9560    1.1719 H   0  0  0  0  0  0  0  0  0  0  0  0
   -0.7147   15.3933   -1.8229 H   0  0  0  0  0  0  0  0  0  0  0  0
   -1.2649   16.4860   -0.4922 H   0  0  0  0  0  0  0  0  0  0  0  0
    0.7832   16.1348    1.4543 H   0  0  0  0  0  0  0  0  0  0  0  0
    2.1386   17.1624    0.8771 H   0  0  0  0  0  0  0  0  0  0  0  0
    0.4612   17.8050    0.8771 H   0  0  0  0  0  0  0  0  0  0  0  0
  1  2  1  0
  2  3  1  0
  3  4  1  0
  4  5  1  0
  5  6  1  0
  6  7  1  0
  7  8  1  0
  7  9  1  0
  2 10  1  0
 10 11  1  0
 11 12  1  0
 12 13  1  0
 13 14  1  6
 13 15  1  0
 15 16  1  0
 16 17  1  0
 17 18  2  0
 18 19  1  0
 19 20  1  0
 20 21  1  0
 21 22  1  0
 22 23  1  0
 22 24  1  0
 24 25  1  0
 24 26  1  0
 19 27  1  0
 27 28  1  1
 27 29  1  0
 29 30  1  0
 30 31  1  0
 31 32  1  1
  7  5  1  0
 31 10  1  0
 31 13  1  0
 27 15  1  0
 24 18  1  0
  1 33  1  0
  1 34  1  0
  1 35  1  0
  2 36  1  1
  3 37  1  0
  3 38  1  0
  4 39  1  0
  4 40  1  0
  5 41  1  6
  8 42  1  0
  8 43  1  0
  8 44  1  0
  9 45  1  0
  9 46  1  0
  9 47  1  0
 10 48  1  6
 11 49  1  0
 11 50  1  0
 12 51  1  0
 12 52  1  0
 14 53  1  0
 14 54  1  0
 14 55  1  0
 15 56  1  1
 16 57  1  0
 16 58  1  0
 17 59  1  0
 19 60  1  6
 20 61  1  0
 20 62  1  0
 21 63  1  0
 21 64  1  0
 22 65  1  6
 23 66  1  0
 25 67  1  0
 25 68  1  0
 25 69  1  0
 26 70  1  0
 26 71  1  0
 26 72  1  0
 28 73  1  0
 28 74  1  0
 28 75  1  0
 29 76  1  0
 29 77  1  0
 30 78  1  0
 30 79  1  0
 32 80  1  0
 32 81  1  0
 32 82  1  0
M  END
>  <meeko>  (7) 
{"is_sidechain": [false], "intermolecular_energy": 2.731, "internal_energy": -0.839}

$$$$
EPH_relaxed_0001_pdb2pqr_Repair_185_r2_0001_out
     RDKit          3D

 82 86  0  0  0  0  0  0  0  0999 V2000
   -0.2950   15.0840   -7.6660 C   0  0  0  0  0  0  0  0  0  0  0  0
    1.0700   15.0820   -6.9730 C   0  0  2  0  0  0  0  0  0  0  0  0
    2.2330   15.1870   -7.9800 C   0  0  0  0  0  0  0  0  0  0  0  0
    2.2570   16.5050   -8.7580 C   0  0  0  0  0  0  0  0  0  0  0  0
    1.8710   16.3100  -10.1930 C   0  0  2  0  0  0  0  0  0  0  0  0
    1.2060   15.0710  -10.4700 O   0  0  0  0  0  0  0  0  0  0  0  0
    2.4900   15.2530  -11.0880 C   0  0  0  0  0  0  0  0  0  0  0  0
    3.5460   14.3220  -10.5820 C   0  0  0  0  0  0  0  0  0  0  0  0
    2.4230   15.4430  -12.5720 C   0  0  0  0  0  0  0  0  0  0  0  0
    1.2230   13.8220   -6.1300 C   0  0  1  0  0  0  0  0  0  0  0  0
    2.6570   13.2310   -6.1930 C   0  0  0  0  0  0  0  0  0  0  0  0
    2.9570   12.6340   -4.7930 C   0  0  0  0  0  0  0  0  0  0  0  0
    1.5840   12.6020   -4.0810 C   0  0  1  0  0  0  0  0  0  0  0  0
    0.8840   11.3150   -4.6190 C   0  0  0  0  0  0  0  0  0  0  0  0
    1.6160   12.6310   -2.5180 C   0  0  2  0  0  0  0  0  0  0  0  0
    2.3120   11.4290   -1.8570 C   0  0  0  0  0  0  0  0  0  0  0  0
    1.4230   10.2740   -1.5370 C   0  0  0  0  0  0  0  0  0  0  0  0
    0.0780   10.3070   -1.5070 C   0  0  0  0  0  0  0  0  0  0  0  0
   -0.6830   11.6230   -1.7180 C   0  0  1  0  0  0  0  0  0  0  0  0
   -1.7870   11.7620   -0.6380 C   0  0  0  0  0  0  0  0  0  0  0  0
   -2.7150   10.5520   -0.5910 C   0  0  0  0  0  0  0  0  0  0  0  0
   -1.9300    9.2720   -0.3210 C   0  0  2  0  0  0  0  0  0  0  0  0
   -1.3910    9.3320    1.0030 O   0  0  0  0  0  0  0  0  0  0  0  0
   -0.7830    9.0300   -1.3420 C   0  0  0  0  0  0  0  0  0  0  0  0
   -1.3830    8.6660   -2.7220 C   0  0  0  0  0  0  0  0  0  0  0  0
    0.0180    7.7850   -0.8740 C   0  0  0  0  0  0  0  0  0  0  0  0
    0.2140   12.9280   -1.8470 C   0  0  1  0  0  0  0  0  0  0  0  0
    0.5130   13.5100   -0.4310 C   0  0  0  0  0  0  0  0  0  0  0  0
   -0.5970   14.0350   -2.6200 C   0  0  0  0  0  0  0  0  0  0  0  0
   -0.4920   14.0270   -4.1570 C   0  0  0  0  0  0  0  0  0  0  0  0
    0.9700   13.9500   -4.6060 C   0  0  2  0  0  0  0  0  0  0  0  0
    1.6950   15.2430   -4.0990 C   0  0  0  0  0  0  0  0  0  0  0  0
   -1.0914   15.0852   -6.9072 H   0  0  0  0  0  0  0  0  0  0  0  0
   -0.3859   15.9823   -8.2944 H   0  0  0  0  0  0  0  0  0  0  0  0
   -0.3885   14.1860   -8.2944 H   0  0  0  0  0  0  0  0  0  0  0  0
    1.1134   15.9700   -6.3253 H   0  0  0  0  0  0  0  0  0  0  0  0
    3.1798   15.0924   -7.4280 H   0  0  0  0  0  0  0  0  0  0  0  0
    2.0939   14.3818   -8.7164 H   0  0  0  0  0  0  0  0  0  0  0  0
    1.5505   17.2071   -8.2913 H   0  0  0  0  0  0  0  0  0  0  0  0
    3.2831   16.9005   -8.7301 H   0  0  0  0  0  0  0  0  0  0  0  0
    1.7187   17.3914  -10.3247 H   0  0  0  0  0  0  0  0  0  0  0  0
    3.5417   14.3258   -9.4820 H   0  0  0  0  0  0  0  0  0  0  0  0
    3.3424   13.3041  -10.9460 H   0  0  0  0  0  0  0  0  0  0  0  0
    4.5304   14.6515  -10.9460 H   0  0  0  0  0  0  0  0  0  0  0  0
    2.0648   16.4587  -12.7958 H   0  0  0  0  0  0  0  0  0  0  0  0
    3.4245   15.3036  -13.0051 H   0  0  0  0  0  0  0  0  0  0  0  0
    1.7305   14.7062  -13.0051 H   0  0  0  0  0  0  0  0  0  0  0  0
    0.4431   13.1973   -6.5899 H   0  0  0  0  0  0  0  0  0  0  0  0
    2.7089   12.4438   -6.9595 H   0  0  0  0  0  0  0  0  0  0  0  0
    3.3920   14.0053   -6.4579 H   0  0  0  0  0  0  0  0  0  0  0  0
    3.3711   11.6190   -4.8841 H   0  0  0  0  0  0  0  0  0  0  0  0
    3.7013   13.2241   -4.2383 H   0  0  0  0  0  0  0  0  0  0  0  0
    0.5487   10.6986   -3.7719 H   0  0  0  0  0  0  0  0  0  0  0  0
    0.0160   11.5988   -5.2322 H   0  0  0  0  0  0  0  0  0  0  0  0
    1.5939   10.7405   -5.2322 H   0  0  0  0  0  0  0  0  0  0  0  0
    2.2595   13.4989   -2.3112 H   0  0  0  0  0  0  0  0  0  0  0  0
    3.0980   11.0739   -2.5397 H   0  0  0  0  0  0  0  0  0  0  0  0
    2.6968   11.7928   -0.8929 H   0  0  0  0  0  0  0  0  0  0  0  0
    1.9082    9.3142   -1.3060 H   0  0  0  0  0  0  0  0  0  0  0  0
   -1.1441   11.5521   -2.7142 H   0  0  0  0  0  0  0  0  0  0  0  0
   -1.3064   11.8762    0.3449 H   0  0  0  0  0  0  0  0  0  0  0  0
   -2.3968   12.6407   -0.8950 H   0  0  0  0  0  0  0  0  0  0  0  0
   -3.4544   10.6965    0.2105 H   0  0  0  0  0  0  0  0  0  0  0  0
   -3.2168   10.4568   -1.5652 H   0  0  0  0  0  0  0  0  0  0  0  0
   -2.6279    8.4284   -0.4276 H   0  0  0  0  0  0  0  0  0  0  0  0
   -1.1420    8.4280    1.2610 H   0  0  0  0  0  0  0  0  0  0  0  0
   -2.3155    8.1003   -2.5787 H   0  0  0  0  0  0  0  0  0  0  0  0
   -1.5958    9.5874   -3.2839 H   0  0  0  0  0  0  0  0  0  0  0  0
   -0.6641    8.0516   -3.2839 H   0  0  0  0  0  0  0  0  0  0  0  0
    0.0380    7.7539    0.2254 H   0  0  0  0  0  0  0  0  0  0  0  0
   -0.4636    6.8736   -1.2579 H   0  0  0  0  0  0  0  0  0  0  0  0
    1.0471    7.8455   -1.2579 H   0  0  0  0  0  0  0  0  0  0  0  0
    0.1531   12.8094    0.3369 H   0  0  0  0  0  0  0  0  0  0  0  0
    1.5973   13.6551   -0.3157 H   0  0  0  0  0  0  0  0  0  0  0  0
   -0.0005   14.4759   -0.3157 H   0  0  0  0  0  0  0  0  0  0  0  0
   -1.6585   13.9135   -2.3583 H   0  0  0  0  0  0  0  0  0  0  0  0
   -0.1512   14.9903   -2.3060 H   0  0  0  0  0  0  0  0  0  0  0  0
   -1.0356   13.1553   -4.5503 H   0  0  0  0  0  0  0  0  0  0  0  0
   -0.9289   14.9597   -4.5433 H   0  0  0  0  0  0  0  0  0  0  0  0
    1.7005   15.2529   -2.9991 H   0  0  0  0  0  0  0  0  0  0  0  0
    2.7301   15.2527   -4.4710 H   0  0  0  0  0  0  0  0  0  0  0  0
    1.1634   16.1312   -4.4710 H   0  0  0  0  0  0  0  0  0  0  0  0
  1  2  1  0
  2  3  1  0
  3  4  1  0
  4  5  1  0
  5  6  1  0
  6  7  1  0
  7  8  1  0
  7  9  1  0
  2 10  1  0
 10 11  1  0
 11 12  1  0
 12 13  1  0
 13 14  1  1
 13 15  1  0
 15 16  1  0
 16 17  1  0
 17 18  2  0
 18 19  1  0
 19 20  1  0
 20 21  1  0
 21 22  1  0
 22 23  1  0
 22 24  1  0
 24 25  1  0
 24 26  1  0
 19 27  1  0
 27 28  1  1
 27 29  1  0
 29 30  1  0
 30 31  1  0
 31 32  1  1
  7  5  1  0
 31 10  1  0
 31 13  1  0
 27 15  1  0
 24 18  1  0
  1 33  1  0
  1 34  1  0
  1 35  1  0
  2 36  1  1
  3 37  1  0
  3 38  1  0
  4 39  1  0
  4 40  1  0
  5 41  1  6
  8 42  1  0
  8 43  1  0
  8 44  1  0
  9 45  1  0
  9 46  1  0
  9 47  1  0
 10 48  1  6
 11 49  1  0
 11 50  1  0
 12 51  1  0
 12 52  1  0
 14 53  1  0
 14 54  1  0
 14 55  1  0
 15 56  1  6
 16 57  1  0
 16 58  1  0
 17 59  1  0
 19 60  1  6
 20 61  1  0
 20 62  1  0
 21 63  1  0
 21 64  1  0
 22 65  1  1
 23 66  1  0
 25 67  1  0
 25 68  1  0
 25 69  1  0
 26 70  1  0
 26 71  1  0
 26 72  1  0
 28 73  1  0
 28 74  1  0
 28 75  1  0
 29 76  1  0
 29 77  1  0
 30 78  1  0
 30 79  1  0
 32 80  1  0
 32 81  1  0
 32 82  1  0
M  END
>  <meeko>  (8) 
{"is_sidechain": [false], "intermolecular_energy": 2.731, "internal_energy": -0.839}

$$$$
EPH_relaxed_0001_pdb2pqr_Repair_185_r2_0001_out
     RDKit          3D

 82 86  0  0  0  0  0  0  0  0999 V2000
   -3.7140    7.1770   -3.4360 C   0  0  0  0  0  0  0  0  0  0  0  0
   -3.7560    7.2390   -1.9070 C   0  0  2  0  0  0  0  0  0  0  0  0
   -5.1710    6.9800   -1.3530 C   0  0  0  0  0  0  0  0  0  0  0  0
   -6.2880    7.2610   -2.3620 C   0  0  0  0  0  0  0  0  0  0  0  0
   -7.6060    7.4810   -1.6840 C   0  0  2  0  0  0  0  0  0  0  0  0
   -8.1860    6.3040   -1.1060 O   0  0  0  0  0  0  0  0  0  0  0  0
   -8.9140    6.9030   -2.1900 C   0  0  0  0  0  0  0  0  0  0  0  0
   -8.9690    6.0590   -3.4250 C   0  0  0  0  0  0  0  0  0  0  0  0
  -10.1950    7.5540   -1.7690 C   0  0  0  0  0  0  0  0  0  0  0  0
   -3.2490    8.5940   -1.4280 C   0  0  1  0  0  0  0  0  0  0  0  0
   -3.8610    9.0130   -0.0650 C   0  0  0  0  0  0  0  0  0  0  0  0
   -2.7590    9.7900    0.7010 C   0  0  0  0  0  0  0  0  0  0  0  0
   -1.6750   10.0790   -0.3640 C   0  0  1  0  0  0  0  0  0  0  0  0
   -2.1970   11.3310   -1.1370 C   0  0  0  0  0  0  0  0  0  0  0  0
   -0.2220   10.2960    0.1710 C   0  0  2  0  0  0  0  0  0  0  0  0
   -0.0430   11.5080    1.1020 C   0  0  0  0  0  0  0  0  0  0  0  0
    0.3190   12.7860    0.4210 C   0  0  0  0  0  0  0  0  0  0  0  0
    0.7700   12.9000   -0.8420 C   0  0  0  0  0  0  0  0  0  0  0  0
    1.0510   11.6540   -1.6920 C   0  0  1  0  0  0  0  0  0  0  0  0
    2.4280   11.8050   -2.3920 C   0  0  0  0  0  0  0  0  0  0  0  0
    2.5370   13.0970   -3.1960 C   0  0  0  0  0  0  0  0  0  0  0  0
    2.3080   14.3150   -2.3040 C   0  0  2  0  0  0  0  0  0  0  0  0
    3.3870   14.4100   -1.3690 O   0  0  0  0  0  0  0  0  0  0  0  0
    0.9560   14.2700   -1.5390 C   0  0  0  0  0  0  0  0  0  0  0  0
   -0.2120   14.4710   -2.5360 C   0  0  0  0  0  0  0  0  0  0  0  0
    0.9140   15.4830   -0.5710 C   0  0  0  0  0  0  0  0  0  0  0  0
    0.8940   10.2580   -0.9500 C   0  0  1  0  0  0  0  0  0  0  0  0
    2.2290    9.8800   -0.2380 C   0  0  0  0  0  0  0  0  0  0  0  0
    0.6290    9.1340   -2.0200 C   0  0  0  0  0  0  0  0  0  0  0  0
   -0.8390    8.8860   -2.4190 C   0  0  0  0  0  0  0  0  0  0  0  0
   -1.7260    8.7370   -1.1800 C   0  0  2  0  0  0  0  0  0  0  0  0
   -1.2400    7.4720   -0.3930 C   0  0  0  0  0  0  0  0  0  0  0  0
   -3.1230    6.3046   -3.7515 H   0  0  0  0  0  0  0  0  0  0  0  0
   -4.7380    7.0872   -3.8276 H   0  0  0  0  0  0  0  0  0  0  0  0
   -3.2508    8.0947   -3.8276 H   0  0  0  0  0  0  0  0  0  0  0  0
   -3.1019    6.4410   -1.5258 H   0  0  0  0  0  0  0  0  0  0  0  0
   -5.2365    5.9254   -1.0471 H   0  0  0  0  0  0  0  0  0  0  0  0
   -5.3178    7.6714   -0.5101 H   0  0  0  0  0  0  0  0  0  0  0  0
   -6.0292    8.1614   -2.9385 H   0  0  0  0  0  0  0  0  0  0  0  0
   -6.3834    6.3848   -3.0202 H   0  0  0  0  0  0  0  0  0  0  0  0
   -7.3132    8.5010   -1.3944 H   0  0  0  0  0  0  0  0  0  0  0  0
   -9.0381    4.9984   -3.1415 H   0  0  0  0  0  0  0  0  0  0  0  0
   -9.8509    6.3376   -4.0205 H   0  0  0  0  0  0  0  0  0  0  0  0
   -8.0584    6.2208   -4.0205 H   0  0  0  0  0  0  0  0  0  0  0  0
  -10.2487    7.5813   -0.6707 H   0  0  0  0  0  0  0  0  0  0  0  0
  -10.2318    8.5802   -2.1635 H   0  0  0  0  0  0  0  0  0  0  0  0
  -11.0456    6.9788   -2.1635 H   0  0  0  0  0  0  0  0  0  0  0  0
   -3.5510    9.2163   -2.2833 H   0  0  0  0  0  0  0  0  0  0  0  0
   -4.7372    9.6583   -0.2257 H   0  0  0  0  0  0  0  0  0  0  0  0
   -4.1929    8.1332    0.5058 H   0  0  0  0  0  0  0  0  0  0  0  0
   -3.1596   10.7283    1.1121 H   0  0  0  0  0  0  0  0  0  0  0  0
   -2.3638    9.2208    1.5553 H   0  0  0  0  0  0  0  0  0  0  0  0
   -2.5172   12.0990   -0.4175 H   0  0  0  0  0  0  0  0  0  0  0  0
   -1.3918   11.7337   -1.7691 H   0  0  0  0  0  0  0  0  0  0  0  0
   -3.0498   11.0424   -1.7691 H   0  0  0  0  0  0  0  0  0  0  0  0
   -0.0692    9.4091    0.8035 H   0  0  0  0  0  0  0  0  0  0  0  0
   -0.9891   11.6658    1.6406 H   0  0  0  0  0  0  0  0  0  0  0  0
    0.8031   11.2636    1.7611 H   0  0  0  0  0  0  0  0  0  0  0  0
    0.2077   13.7140    1.0010 H   0  0  0  0  0  0  0  0  0  0  0  0
    0.2508   11.6134   -2.4457 H   0  0  0  0  0  0  0  0  0  0  0  0
    3.2161   11.7997   -1.6246 H   0  0  0  0  0  0  0  0  0  0  0  0
    2.5400   10.9649   -3.0932 H   0  0  0  0  0  0  0  0  0  0  0  0
    3.5408   13.1604   -3.6413 H   0  0  0  0  0  0  0  0  0  0  0  0
    1.7677   13.0876   -3.9822 H   0  0  0  0  0  0  0  0  0  0  0  0
    2.2684   15.1992   -2.9571 H   0  0  0  0  0  0  0  0  0  0  0  0
    4.0460   15.0210   -1.7400 H   0  0  0  0  0  0  0  0  0  0  0  0
   -1.1465   14.6318   -1.9784 H   0  0  0  0  0  0  0  0  0  0  0  0
   -0.0072   15.3471   -3.1689 H   0  0  0  0  0  0  0  0  0  0  0  0
   -0.3119   13.5768   -3.1689 H   0  0  0  0  0  0  0  0  0  0  0  0
    0.9265   15.1232    0.4684 H   0  0  0  0  0  0  0  0  0  0  0  0
    1.7905   16.1237   -0.7478 H   0  0  0  0  0  0  0  0  0  0  0  0
   -0.0047   16.0615   -0.7478 H   0  0  0  0  0  0  0  0  0  0  0  0
    2.0873    9.9201    0.8521 H   0  0  0  0  0  0  0  0  0  0  0  0
    2.5260    8.8625   -0.5319 H   0  0  0  0  0  0  0  0  0  0  0  0
    3.0154   10.5908   -0.5319 H   0  0  0  0  0  0  0  0  0  0  0  0
    1.1802    9.4064   -2.9321 H   0  0  0  0  0  0  0  0  0  0  0  0
    0.9593    8.1994   -1.5432 H   0  0  0  0  0  0  0  0  0  0  0  0
   -1.1976    9.7360   -3.0181 H   0  0  0  0  0  0  0  0  0  0  0  0
   -0.8915    7.9546   -3.0020 H   0  0  0  0  0  0  0  0  0  0  0  0
   -1.3131    7.6622    0.6880 H   0  0  0  0  0  0  0  0  0  0  0  0
   -1.8713    6.6108   -0.6573 H   0  0  0  0  0  0  0  0  0  0  0  0
   -0.1945    7.2550   -0.6573 H   0  0  0  0  0  0  0  0  0  0  0  0
  1  2  1  0
  2  3  1  0
  3  4  1  0
  4  5  1  0
  5  6  1  0
  6  7  1  0
  7  8  1  0
  7  9  1  0
  2 10  1  0
 10 11  1  0
 11 12  1  0
 12 13  1  0
 13 14  1  6
 13 15  1  0
 15 16  1  0
 16 17  1  0
 17 18  2  0
 18 19  1  0
 19 20  1  0
 20 21  1  0
 21 22  1  0
 22 23  1  0
 22 24  1  0
 24 25  1  0
 24 26  1  0
 19 27  1  0
 27 28  1  1
 27 29  1  0
 29 30  1  0
 30 31  1  0
 31 32  1  1
  7  5  1  0
 31 10  1  0
 31 13  1  0
 27 15  1  0
 24 18  1  0
  1 33  1  0
  1 34  1  0
  1 35  1  0
  2 36  1  1
  3 37  1  0
  3 38  1  0
  4 39  1  0
  4 40  1  0
  5 41  1  1
  8 42  1  0
  8 43  1  0
  8 44  1  0
  9 45  1  0
  9 46  1  0
  9 47  1  0
 10 48  1  6
 11 49  1  0
 11 50  1  0
 12 51  1  0
 12 52  1  0
 14 53  1  0
 14 54  1  0
 14 55  1  0
 15 56  1  1
 16 57  1  0
 16 58  1  0
 17 59  1  0
 19 60  1  6
 20 61  1  0
 20 62  1  0
 21 63  1  0
 21 64  1  0
 22 65  1  6
 23 66  1  0
 25 67  1  0
 25 68  1  0
 25 69  1  0
 26 70  1  0
 26 71  1  0
 26 72  1  0
 28 73  1  0
 28 74  1  0
 28 75  1  0
 29 76  1  0
 29 77  1  0
 30 78  1  0
 30 79  1  0
 32 80  1  0
 32 81  1  0
 32 82  1  0
M  END
>  <meeko>  (9) 
{"is_sidechain": [false], "intermolecular_energy": 2.731, "internal_energy": -0.839}

$$$$
EPH_relaxed_0001_pdb2pqr_Repair_185_r2_0001_out
     RDKit          3D

 82 86  0  0  0  0  0  0  0  0999 V2000
    2.7760   18.8490   -1.4360 C   0  0  0  0  0  0  0  0  0  0  0  0
    2.2970   17.7620   -2.4020 C   0  0  2  0  0  0  0  0  0  0  0  0
    0.8280   17.9650   -2.8230 C   0  0  0  0  0  0  0  0  0  0  0  0
    0.2120   19.2650   -2.3000 C   0  0  0  0  0  0  0  0  0  0  0  0
   -1.0610   19.0120   -1.5510 C   0  0  2  0  0  0  0  0  0  0  0  0
   -1.7890   20.1940   -1.1920 O   0  0  0  0  0  0  0  0  0  0  0  0
   -1.2730   19.4120   -0.1030 C   0  0  0  0  0  0  0  0  0  0  0  0
   -0.1980   20.0960    0.6830 C   0  0  0  0  0  0  0  0  0  0  0  0
   -2.3310   18.7060    0.6870 C   0  0  0  0  0  0  0  0  0  0  0  0
    2.4710   16.3880   -1.7650 C   0  0  1  0  0  0  0  0  0  0  0  0
    3.1130   16.4600   -0.3540 C   0  0  0  0  0  0  0  0  0  0  0  0
    2.4690   15.3300    0.4890 C   0  0  0  0  0  0  0  0  0  0  0  0
    1.7340   14.4430   -0.5440 C   0  0  1  0  0  0  0  0  0  0  0  0
    2.8450   13.5300   -1.1510 C   0  0  0  0  0  0  0  0  0  0  0  0
    0.5300   13.6060   -0.0030 C   0  0  2  0  0  0  0  0  0  0  0  0
    0.8900   12.5610    1.0680 C   0  0  0  0  0  0  0  0  0  0  0  0
    1.2360   11.2060    0.5460 C   0  0  0  0  0  0  0  0  0  0  0  0
    0.9840   10.7590   -0.6980 C   0  0  0  0  0  0  0  0  0  0  0  0
    0.1990   11.6170   -1.6990 C   0  0  1  0  0  0  0  0  0  0  0  0
   -0.8830   10.7470   -2.3910 C   0  0  0  0  0  0  0  0  0  0  0  0
   -0.3010    9.4890   -3.0300 C   0  0  0  0  0  0  0  0  0  0  0  0
    0.4210    8.6340   -1.9920 C   0  0  2  0  0  0  0  0  0  0  0  0
   -0.5420    8.1240   -1.0640 O   0  0  0  0  0  0  0  0  0  0  0  0
    1.5280    9.4080   -1.2230 C   0  0  0  0  0  0  0  0  0  0  0  0
    2.7160    9.6980   -2.1740 C   0  0  0  0  0  0  0  0  0  0  0  0
    2.0790    8.4740   -0.1120 C   0  0  0  0  0  0  0  0  0  0  0  0
   -0.3850   12.9820   -1.1330 C   0  0  1  0  0  0  0  0  0  0  0  0
   -1.7830   12.7360   -0.4880 C   0  0  0  0  0  0  0  0  0  0  0  0
   -0.6180   13.9770   -2.3310 C   0  0  0  0  0  0  0  0  0  0  0  0
    0.5740   14.8630   -2.7400 C   0  0  0  0  0  0  0  0  0  0  0  0
    1.1910   15.5510   -1.5190 C   0  0  2  0  0  0  0  0  0  0  0  0
    0.1040   16.4930   -0.9000 C   0  0  0  0  0  0  0  0  0  0  0  0
    2.6269   18.5105   -0.4000 H   0  0  0  0  0  0  0  0  0  0  0  0
    3.8445   19.0465   -1.6070 H   0  0  0  0  0  0  0  0  0  0  0  0
    2.2008   19.7709   -1.6070 H   0  0  0  0  0  0  0  0  0  0  0  0
    2.9131   17.8319   -3.3106 H   0  0  0  0  0  0  0  0  0  0  0  0
    0.7800   17.9754   -3.9219 H   0  0  0  0  0  0  0  0  0  0  0  0
    0.2509   17.1370   -2.3855 H   0  0  0  0  0  0  0  0  0  0  0  0
    0.9308   19.7546   -1.6265 H   0  0  0  0  0  0  0  0  0  0  0  0
   -0.0192   19.9068   -3.1629 H   0  0  0  0  0  0  0  0  0  0  0  0
   -1.2137   18.0619   -2.0839 H   0  0  0  0  0  0  0  0  0  0  0  0
   -0.3941   19.9712    1.7582 H   0  0  0  0  0  0  0  0  0  0  0  0
    0.7771   19.6519    0.4342 H   0  0  0  0  0  0  0  0  0  0  0  0
   -0.1872   21.1674    0.4342 H   0  0  0  0  0  0  0  0  0  0  0  0
   -2.1349   18.8368    1.7614 H   0  0  0  0  0  0  0  0  0  0  0  0
   -3.3162   19.1283    0.4400 H   0  0  0  0  0  0  0  0  0  0  0  0
   -2.3191   17.6342    0.4400 H   0  0  0  0  0  0  0  0  0  0  0  0
    3.0936   15.9065   -2.5335 H   0  0  0  0  0  0  0  0  0  0  0  0
    4.2001   16.3074   -0.4243 H   0  0  0  0  0  0  0  0  0  0  0  0
    2.9419   17.4436    0.1079 H   0  0  0  0  0  0  0  0  0  0  0  0
    3.2411   14.7518    1.0178 H   0  0  0  0  0  0  0  0  0  0  0  0
    1.7902   15.7208    1.2613 H   0  0  0  0  0  0  0  0  0  0  0  0
    3.4176   13.0595   -0.3381 H   0  0  0  0  0  0  0  0  0  0  0  0
    2.3800   12.7497   -1.7713 H   0  0  0  0  0  0  0  0  0  0  0  0
    3.5204   14.1375   -1.7713 H   0  0  0  0  0  0  0  0  0  0  0  0
   -0.0731   14.3676    0.5130 H   0  0  0  0  0  0  0  0  0  0  0  0
    1.7546   12.9382    1.6338 H   0  0  0  0  0  0  0  0  0  0  0  0
   -0.0141   12.4293    1.6806 H   0  0  0  0  0  0  0  0  0  0  0  0
    1.7398   10.5141    1.2370 H   0  0  0  0  0  0  0  0  0  0  0  0
    0.9315   11.9623   -2.4435 H   0  0  0  0  0  0  0  0  0  0  0  0
   -1.6290   10.4483   -1.6398 H   0  0  0  0  0  0  0  0  0  0  0  0
   -1.3349   11.3503   -3.1921 H   0  0  0  0  0  0  0  0  0  0  0  0
   -1.1169    8.9013   -3.4760 H   0  0  0  0  0  0  0  0  0  0  0  0
    0.4227    9.7899   -3.8019 H   0  0  0  0  0  0  0  0  0  0  0  0
    0.9252    7.8180   -2.5304 H   0  0  0  0  0  0  0  0  0  0  0  0
   -1.2140    7.6390   -1.5740 H   0  0  0  0  0  0  0  0  0  0  0  0
    3.6157    9.9176   -1.5804 H   0  0  0  0  0  0  0  0  0  0  0  0
    2.9009    8.8186   -2.8084 H   0  0  0  0  0  0  0  0  0  0  0  0
    2.4750   10.5637   -2.8084 H   0  0  0  0  0  0  0  0  0  0  0  0
    1.8320    8.8926    0.8748 H   0  0  0  0  0  0  0  0  0  0  0  0
    1.6241    7.4774   -0.2118 H   0  0  0  0  0  0  0  0  0  0  0  0
    3.1712    8.3902   -0.2118 H   0  0  0  0  0  0  0  0  0  0  0  0
   -1.6892   12.7525    0.6079 H   0  0  0  0  0  0  0  0  0  0  0  0
   -2.4787   13.5255   -0.8084 H   0  0  0  0  0  0  0  0  0  0  0  0
   -2.1674   11.7564   -0.8084 H   0  0  0  0  0  0  0  0  0  0  0  0
   -0.9051   13.3795   -3.2088 H   0  0  0  0  0  0  0  0  0  0  0  0
   -1.3892   14.6773   -1.9777 H   0  0  0  0  0  0  0  0  0  0  0  0
    1.3379   14.2371   -3.2244 H   0  0  0  0  0  0  0  0  0  0  0  0
    0.2135   15.6371   -3.4334 H   0  0  0  0  0  0  0  0  0  0  0  0
    0.1593   16.4451    0.1976 H   0  0  0  0  0  0  0  0  0  0  0  0
    0.2828   17.5266   -1.2314 H   0  0  0  0  0  0  0  0  0  0  0  0
   -0.8936   16.1691   -1.2314 H   0  0  0  0  0  0  0  0  0  0  0  0
  1  2  1  0
  2  3  1  0
  3  4  1  0
  4  5  1  0
  5  6  1  0
  6  7  1  0
  7  8  1  0
  7  9  1  0
  2 10  1  0
 10 11  1  0
 11 12  1  0
 12 13  1  0
 13 14  1  6
 13 15  1  0
 15 16  1  0
 16 17  1  0
 17 18  2  0
 18 19  1  0
 19 20  1  0
 20 21  1  0
 21 22  1  0
 22 23  1  0
 22 24  1  0
 24 25  1  0
 24 26  1  0
 19 27  1  0
 27 28  1  1
 27 29  1  0
 29 30  1  0
 30 31  1  0
 31 32  1  1
  7  5  1  0
 31 10  1  0
 31 13  1  0
 27 15  1  0
 24 18  1  0
  1 33  1  0
  1 34  1  0
  1 35  1  0
  2 36  1  6
  3 37  1  0
  3 38  1  0
  4 39  1  0
  4 40  1  0
  5 41  1  1
  8 42  1  0
  8 43  1  0
  8 44  1  0
  9 45  1  0
  9 46  1  0
  9 47  1  0
 10 48  1  6
 11 49  1  0
 11 50  1  0
 12 51  1  0
 12 52  1  0
 14 53  1  0
 14 54  1  0
 14 55  1  0
 15 56  1  1
 16 57  1  0
 16 58  1  0
 17 59  1  0
 19 60  1  6
 20 61  1  0
 20 62  1  0
 21 63  1  0
 21 64  1  0
 22 65  1  6
 23 66  1  0
 25 67  1  0
 25 68  1  0
 25 69  1  0
 26 70  1  0
 26 71  1  0
 26 72  1  0
 28 73  1  0
 28 74  1  0
 28 75  1  0
 29 76  1  0
 29 77  1  0
 30 78  1  0
 30 79  1  0
 32 80  1  0
 32 81  1  0
 32 82  1  0
M  END
>  <meeko>  (10) 
{"is_sidechain": [false], "intermolecular_energy": 2.731, "internal_energy": -0.839}

$$$$
EPH_relaxed_0001_pdb2pqr_Repair_185_r2_0001_out
     RDKit          3D

 82 86  0  0  0  0  0  0  0  0999 V2000
   -0.7550   16.3080   -5.7520 C   0  0  0  0  0  0  0  0  0  0  0  0
    0.2860   15.5690   -6.5970 C   0  0  2  0  0  0  0  0  0  0  0  0
   -0.1720   15.3920   -8.0580 C   0  0  0  0  0  0  0  0  0  0  0  0
    0.4340   16.4150   -9.0230 C   0  0  0  0  0  0  0  0  0  0  0  0
    1.8420   16.0610   -9.3940 C   0  0  2  0  0  0  0  0  0  0  0  0
    2.3170   16.6760  -10.5980 O   0  0  0  0  0  0  0  0  0  0  0  0
    2.2040   15.2440  -10.6200 C   0  0  0  0  0  0  0  0  0  0  0  0
    1.1520   14.7310  -11.5540 C   0  0  0  0  0  0  0  0  0  0  0  0
    3.5220   14.5360  -10.6450 C   0  0  0  0  0  0  0  0  0  0  0  0
    0.5900   14.2100   -5.9770 C   0  0  1  0  0  0  0  0  0  0  0  0
    1.8870   13.5720   -6.5430 C   0  0  0  0  0  0  0  0  0  0  0  0
    2.5490   12.7970   -5.3750 C   0  0  0  0  0  0  0  0  0  0  0  0
    1.4600   12.7360   -4.2790 C   0  0  1  0  0  0  0  0  0  0  0  0
    0.5310   11.5540   -4.7030 C   0  0  0  0  0  0  0  0  0  0  0  0
    1.9660   12.5730   -2.8090 C   0  0  2  0  0  0  0  0  0  0  0  0
    2.7350   11.2710   -2.5240 C   0  0  0  0  0  0  0  0  0  0  0  0
    1.8980   10.1240   -2.0650 C   0  0  0  0  0  0  0  0  0  0  0  0
    0.6320   10.2100   -1.6160 C   0  0  0  0  0  0  0  0  0  0  0  0
   -0.0520   11.5720   -1.4440 C   0  0  1  0  0  0  0  0  0  0  0  0
   -0.7620   11.6250   -0.0650 C   0  0  0  0  0  0  0  0  0  0  0  0
   -1.7240   10.4590    0.1430 C   0  0  0  0  0  0  0  0  0  0  0  0
   -0.9950    9.1230    0.0220 C   0  0  2  0  0  0  0  0  0  0  0  0
   -0.0770    8.9980    1.1120 O   0  0  0  0  0  0  0  0  0  0  0  0
   -0.2340    8.9590   -1.3240 C   0  0  0  0  0  0  0  0  0  0  0  0
   -1.2510    8.7920   -2.4800 C   0  0  0  0  0  0  0  0  0  0  0  0
    0.5710    7.6340   -1.2590 C   0  0  0  0  0  0  0  0  0  0  0  0
    0.8620   12.8450   -1.7090 C   0  0  1  0  0  0  0  0  0  0  0  0
    1.6200   13.2370   -0.4040 C   0  0  0  0  0  0  0  0  0  0  0  0
   -0.0570   14.0710   -2.0740 C   0  0  0  0  0  0  0  0  0  0  0  0
   -0.4250   14.2450   -3.5600 C   0  0  0  0  0  0  0  0  0  0  0  0
    0.8210   14.1630   -4.4460 C   0  0  2  0  0  0  0  0  0  0  0  0
    1.7640   15.3520   -4.0580 C   0  0  0  0  0  0  0  0  0  0  0  0
   -0.5376   16.1536   -4.6848 H   0  0  0  0  0  0  0  0  0  0  0  0
   -0.7178   17.3830   -5.9820 H   0  0  0  0  0  0  0  0  0  0  0  0
   -1.7576   15.9183   -5.9820 H   0  0  0  0  0  0  0  0  0  0  0  0
    1.1984   16.1833   -6.6096 H   0  0  0  0  0  0  0  0  0  0  0  0
    0.1177   14.3851   -8.3929 H   0  0  0  0  0  0  0  0  0  0  0  0
   -1.2615   15.5430   -8.0731 H   0  0  0  0  0  0  0  0  0  0  0  0
   -0.1776   16.4489   -9.9367 H   0  0  0  0  0  0  0  0  0  0  0  0
    0.4475   17.3937   -8.5210 H   0  0  0  0  0  0  0  0  0  0  0  0
    2.1215   15.9650   -8.3344 H   0  0  0  0  0  0  0  0  0  0  0  0
    0.3130   14.3219  -10.9721 H   0  0  0  0  0  0  0  0  0  0  0  0
    0.7915   15.5544  -12.1880 H   0  0  0  0  0  0  0  0  0  0  0  0
    1.5788   13.9399  -12.1880 H   0  0  0  0  0  0  0  0  0  0  0  0
    3.8602   14.3543   -9.6142 H   0  0  0  0  0  0  0  0  0  0  0  0
    3.4123   13.5754  -11.1696 H   0  0  0  0  0  0  0  0  0  0  0  0
    4.2624   15.1578  -11.1696 H   0  0  0  0  0  0  0  0  0  0  0  0
   -0.3380   13.6780   -6.2335 H   0  0  0  0  0  0  0  0  0  0  0  0
    1.6430   12.8829   -7.3650 H   0  0  0  0  0  0  0  0  0  0  0  0
    2.5648   14.3412   -6.9417 H   0  0  0  0  0  0  0  0  0  0  0  0
    2.8355   11.7841   -5.6943 H   0  0  0  0  0  0  0  0  0  0  0  0
    3.4697   13.2837   -5.0209 H   0  0  0  0  0  0  0  0  0  0  0  0
    0.1390   11.0552   -3.8044 H   0  0  0  0  0  0  0  0  0  0  0  0
   -0.3062   11.9422   -5.3016 H   0  0  0  0  0  0  0  0  0  0  0  0
    1.1061   10.8322   -5.3016 H   0  0  0  0  0  0  0  0  0  0  0  0
    2.7066   13.3819   -2.7240 H   0  0  0  0  0  0  0  0  0  0  0  0
    3.2471   10.9692   -3.4495 H   0  0  0  0  0  0  0  0  0  0  0  0
    3.4212   11.4981   -1.6948 H   0  0  0  0  0  0  0  0  0  0  0  0
    2.3542    9.1236   -2.0962 H   0  0  0  0  0  0  0  0  0  0  0  0
   -0.7971   11.6420   -2.2502 H   0  0  0  0  0  0  0  0  0  0  0  0
    0.0018   11.5974    0.7261 H   0  0  0  0  0  0  0  0  0  0  0  0
   -1.3501   12.5538   -0.0277 H   0  0  0  0  0  0  0  0  0  0  0  0
   -2.1715   10.5356    1.1449 H   0  0  0  0  0  0  0  0  0  0  0  0
   -2.5044   10.5049   -0.6309 H   0  0  0  0  0  0  0  0  0  0  0  0
   -1.7558    8.3290    0.0505 H   0  0  0  0  0  0  0  0  0  0  0  0
   -0.5850    9.0840    1.9360 H   0  0  0  0  0  0  0  0  0  0  0  0
   -2.2557    8.6270   -2.0635 H   0  0  0  0  0  0  0  0  0  0  0  0
   -1.2554    9.7015   -3.0988 H   0  0  0  0  0  0  0  0  0  0  0  0
   -0.9643    7.9289   -3.0988 H   0  0  0  0  0  0  0  0  0  0  0  0
    0.7387    7.3580   -0.2075 H   0  0  0  0  0  0  0  0  0  0  0  0
    0.0049    6.8360   -1.7617 H   0  0  0  0  0  0  0  0  0  0  0  0
    1.5401    7.7687   -1.7617 H   0  0  0  0  0  0  0  0  0  0  0  0
    1.0273   12.9305    0.4705 H   0  0  0  0  0  0  0  0  0  0  0  0
    2.5963   12.7308   -0.3809 H   0  0  0  0  0  0  0  0  0  0  0  0
    1.7712   14.3263   -0.3809 H   0  0  0  0  0  0  0  0  0  0  0  0
   -0.9948   13.9637   -1.5092 H   0  0  0  0  0  0  0  0  0  0  0  0
    0.5359   14.9615   -1.8180 H   0  0  0  0  0  0  0  0  0  0  0  0
   -1.1274   13.4505   -3.8523 H   0  0  0  0  0  0  0  0  0  0  0  0
   -0.8861   15.2347   -3.6937 H   0  0  0  0  0  0  0  0  0  0  0  0
    1.8251   15.4291   -2.9624 H   0  0  0  0  0  0  0  0  0  0  0  0
    2.7683   15.1729   -4.4696 H   0  0  0  0  0  0  0  0  0  0  0  0
    1.3609   16.2891   -4.4696 H   0  0  0  0  0  0  0  0  0  0  0  0
  1  2  1  0
  2  3  1  0
  3  4  1  0
  4  5  1  0
  5  6  1  0
  6  7  1  0
  7  8  1  0
  7  9  1  0
  2 10  1  0
 10 11  1  0
 11 12  1  0
 12 13  1  0
 13 14  1  6
 13 15  1  0
 15 16  1  0
 16 17  1  0
 17 18  2  0
 18 19  1  0
 19 20  1  0
 20 21  1  0
 21 22  1  0
 22 23  1  0
 22 24  1  0
 24 25  1  0
 24 26  1  0
 19 27  1  0
 27 28  1  1
 27 29  1  0
 29 30  1  0
 30 31  1  0
 31 32  1  1
  7  5  1  0
 31 10  1  0
 31 13  1  0
 27 15  1  0
 24 18  1  0
  1 33  1  0
  1 34  1  0
  1 35  1  0
  2 36  1  6
  3 37  1  0
  3 38  1  0
  4 39  1  0
  4 40  1  0
  5 41  1  1
  8 42  1  0
  8 43  1  0
  8 44  1  0
  9 45  1  0
  9 46  1  0
  9 47  1  0
 10 48  1  1
 11 49  1  0
 11 50  1  0
 12 51  1  0
 12 52  1  0
 14 53  1  0
 14 54  1  0
 14 55  1  0
 15 56  1  1
 16 57  1  0
 16 58  1  0
 17 59  1  0
 19 60  1  6
 20 61  1  0
 20 62  1  0
 21 63  1  0
 21 64  1  0
 22 65  1  1
 23 66  1  0
 25 67  1  0
 25 68  1  0
 25 69  1  0
 26 70  1  0
 26 71  1  0
 26 72  1  0
 28 73  1  0
 28 74  1  0
 28 75  1  0
 29 76  1  0
 29 77  1  0
 30 78  1  0
 30 79  1  0
 32 80  1  0
 32 81  1  0
 32 82  1  0
M  END
>  <meeko>  (11) 
{"is_sidechain": [false], "intermolecular_energy": 2.731, "internal_energy": -0.839}

$$$$
EPH_relaxed_0001_pdb2pqr_Repair_185_r2_0001_out
     RDKit          3D

 82 86  0  0  0  0  0  0  0  0999 V2000
   -2.3940    7.8390   -2.1740 C   0  0  0  0  0  0  0  0  0  0  0  0
   -2.3210    8.4320   -0.7640 C   0  0  2  0  0  0  0  0  0  0  0  0
   -3.6940    8.4320   -0.0620 C   0  0  0  0  0  0  0  0  0  0  0  0
   -4.8800    8.4720   -1.0290 C   0  0  0  0  0  0  0  0  0  0  0  0
   -5.7030    7.2220   -0.9480 C   0  0  2  0  0  0  0  0  0  0  0  0
   -5.7410    6.4510   -2.1560 O   0  0  0  0  0  0  0  0  0  0  0  0
   -6.9900    7.0160   -1.7270 C   0  0  0  0  0  0  0  0  0  0  0  0
   -7.5260    8.0730   -2.6410 C   0  0  0  0  0  0  0  0  0  0  0  0
   -7.9720    6.0020   -1.2300 C   0  0  0  0  0  0  0  0  0  0  0  0
   -1.7670    9.8500   -0.8240 C   0  0  1  0  0  0  0  0  0  0  0  0
   -1.2880   10.3640    0.5600 C   0  0  0  0  0  0  0  0  0  0  0  0
   -0.0530   11.2650    0.2990 C   0  0  0  0  0  0  0  0  0  0  0  0
   -0.0630   11.5080   -1.2280 C   0  0  1  0  0  0  0  0  0  0  0  0
   -1.1010   12.6530   -1.4460 C   0  0  0  0  0  0  0  0  0  0  0  0
    1.3160   11.8480   -1.8820 C   0  0  2  0  0  0  0  0  0  0  0  0
    1.9700   13.1500   -1.3870 C   0  0  0  0  0  0  0  0  0  0  0  0
    1.6170   14.3750   -2.1640 C   0  0  0  0  0  0  0  0  0  0  0  0
    1.0400   14.3920   -3.3790 C   0  0  0  0  0  0  0  0  0  0  0  0
    0.7710   13.0880   -4.1410 C   0  0  1  0  0  0  0  0  0  0  0  0
    1.2370   13.2420   -5.6130 C   0  0  0  0  0  0  0  0  0  0  0  0
    0.6190   14.4570   -6.2980 C   0  0  0  0  0  0  0  0  0  0  0  0
    0.9570   15.7400   -5.5440 C   0  0  2  0  0  0  0  0  0  0  0  0
    2.3640   15.9780   -5.6460 O   0  0  0  0  0  0  0  0  0  0  0  0
    0.5420   15.6980   -4.0460 C   0  0  0  0  0  0  0  0  0  0  0  0
   -1.0020   15.7440   -3.9330 C   0  0  0  0  0  0  0  0  0  0  0  0
    1.0660   16.9930   -3.3690 C   0  0  0  0  0  0  0  0  0  0  0  0
    1.3230   11.7610   -3.4620 C   0  0  1  0  0  0  0  0  0  0  0  0
    2.8030   11.5220   -3.8890 C   0  0  0  0  0  0  0  0  0  0  0  0
    0.5020   10.5290   -3.9980 C   0  0  0  0  0  0  0  0  0  0  0  0
   -0.7890   10.1710   -3.2360 C   0  0  0  0  0  0  0  0  0  0  0  0
   -0.5320   10.0930   -1.7280 C   0  0  2  0  0  0  0  0  0  0  0  0
    0.4920    8.9350   -1.4760 C   0  0  0  0  0  0  0  0  0  0  0  0
   -2.5281    6.7493   -2.1070 H   0  0  0  0  0  0  0  0  0  0  0  0
   -3.2446    8.2806   -2.7139 H   0  0  0  0  0  0  0  0  0  0  0  0
   -1.4617    8.0611   -2.7139 H   0  0  0  0  0  0  0  0  0  0  0  0
   -1.6475    7.7948   -0.1720 H   0  0  0  0  0  0  0  0  0  0  0  0
   -3.7728    7.5190    0.5465 H   0  0  0  0  0  0  0  0  0  0  0  0
   -3.7441    9.3474    0.5458 H   0  0  0  0  0  0  0  0  0  0  0  0
   -5.5155    9.3342   -0.7784 H   0  0  0  0  0  0  0  0  0  0  0  0
   -4.4857    8.5575   -2.0523 H   0  0  0  0  0  0  0  0  0  0  0  0
   -5.4574    7.1007    0.1173 H   0  0  0  0  0  0  0  0  0  0  0  0
   -7.9438    8.8968   -2.0437 H   0  0  0  0  0  0  0  0  0  0  0  0
   -6.7131    8.4557   -3.2755 H   0  0  0  0  0  0  0  0  0  0  0  0
   -8.3151    7.6433   -3.2755 H   0  0  0  0  0  0  0  0  0  0  0  0
   -7.9730    6.0010   -0.1300 H   0  0  0  0  0  0  0  0  0  0  0  0
   -8.9776    6.2547   -1.5973 H   0  0  0  0  0  0  0  0  0  0  0  0
   -7.6872    5.0050   -1.5973 H   0  0  0  0  0  0  0  0  0  0  0  0
   -2.6433   10.3729   -1.2347 H   0  0  0  0  0  0  0  0  0  0  0  0
   -2.0857   10.9457    1.0450 H   0  0  0  0  0  0  0  0  0  0  0  0
   -1.0326    9.5265    1.2259 H   0  0  0  0  0  0  0  0  0  0  0  0
   -0.1440   12.2161    0.8441 H   0  0  0  0  0  0  0  0  0  0  0  0
    0.8829   10.7991    0.6411 H   0  0  0  0  0  0  0  0  0  0  0  0
   -1.4421   13.0293   -0.4703 H   0  0  0  0  0  0  0  0  0  0  0  0
   -0.6308   13.4716   -2.0107 H   0  0  0  0  0  0  0  0  0  0  0  0
   -1.9616   12.2651   -2.0107 H   0  0  0  0  0  0  0  0  0  0  0  0
    1.9582   11.0338   -1.5151 H   0  0  0  0  0  0  0  0  0  0  0  0
    1.6629   13.3093   -0.3428 H   0  0  0  0  0  0  0  0  0  0  0  0
    3.0544   13.0126   -1.5105 H   0  0  0  0  0  0  0  0  0  0  0  0
    1.8486   15.3468   -1.7035 H   0  0  0  0  0  0  0  0  0  0  0  0
   -0.3180   12.9366   -4.1082 H   0  0  0  0  0  0  0  0  0  0  0  0
    2.3318   13.3481   -5.6270 H   0  0  0  0  0  0  0  0  0  0  0  0
    0.9101   12.3467   -6.1622 H   0  0  0  0  0  0  0  0  0  0  0  0
    1.0094   14.5290   -7.3238 H   0  0  0  0  0  0  0  0  0  0  0  0
   -0.4741   14.3347   -6.3097 H   0  0  0  0  0  0  0  0  0  0  0  0
    0.3815   16.5553   -6.0066 H   0  0  0  0  0  0  0  0  0  0  0  0
    2.5140   16.5240   -6.4360 H   0  0  0  0  0  0  0  0  0  0  0  0
   -1.2919   15.7526   -2.8719 H   0  0  0  0  0  0  0  0  0  0  0  0
   -1.3786   16.6538   -4.4234 H   0  0  0  0  0  0  0  0  0  0  0  0
   -1.4321   14.8583   -4.4234 H   0  0  0  0  0  0  0  0  0  0  0  0
    1.0201   16.8796   -2.2758 H   0  0  0  0  0  0  0  0  0  0  0  0
    2.1072   17.1716   -3.6757 H   0  0  0  0  0  0  0  0  0  0  0  0
    0.4420   17.8454   -3.6757 H   0  0  0  0  0  0  0  0  0  0  0  0
    3.4316   11.4205   -2.9920 H   0  0  0  0  0  0  0  0  0  0  0  0
    2.8677   10.6018   -4.4882 H   0  0  0  0  0  0  0  0  0  0  0  0
    3.1541   12.3751   -4.4882 H   0  0  0  0  0  0  0  0  0  0  0  0
    0.2249   10.7419   -5.0410 H   0  0  0  0  0  0  0  0  0  0  0  0
    1.1649    9.6612   -3.8657 H   0  0  0  0  0  0  0  0  0  0  0  0
   -1.5483   10.9424   -3.4322 H   0  0  0  0  0  0  0  0  0  0  0  0
   -1.1400    9.1880   -3.5832 H   0  0  0  0  0  0  0  0  0  0  0  0
    0.6212    8.7889   -0.3934 H   0  0  0  0  0  0  0  0  0  0  0  0
    0.1142    8.0064   -1.9288 H   0  0  0  0  0  0  0  0  0  0  0  0
    1.4598    9.1964   -1.9288 H   0  0  0  0  0  0  0  0  0  0  0  0
  1  2  1  0
  2  3  1  0
  3  4  1  0
  4  5  1  0
  5  6  1  0
  6  7  1  0
  7  8  1  0
  7  9  1  0
  2 10  1  0
 10 11  1  0
 11 12  1  0
 12 13  1  0
 13 14  1  1
 13 15  1  0
 15 16  1  0
 16 17  1  0
 17 18  2  0
 18 19  1  0
 19 20  1  0
 20 21  1  0
 21 22  1  0
 22 23  1  0
 22 24  1  0
 24 25  1  0
 24 26  1  0
 19 27  1  0
 27 28  1  6
 27 29  1  0
 29 30  1  0
 30 31  1  0
 31 32  1  6
  7  5  1  0
 31 10  1  0
 31 13  1  0
 27 15  1  0
 24 18  1  0
  1 33  1  0
  1 34  1  0
  1 35  1  0
  2 36  1  1
  3 37  1  0
  3 38  1  0
  4 39  1  0
  4 40  1  0
  5 41  1  1
  8 42  1  0
  8 43  1  0
  8 44  1  0
  9 45  1  0
  9 46  1  0
  9 47  1  0
 10 48  1  6
 11 49  1  0
 11 50  1  0
 12 51  1  0
 12 52  1  0
 14 53  1  0
 14 54  1  0
 14 55  1  0
 15 56  1  1
 16 57  1  0
 16 58  1  0
 17 59  1  0
 19 60  1  6
 20 61  1  0
 20 62  1  0
 21 63  1  0
 21 64  1  0
 22 65  1  6
 23 66  1  0
 25 67  1  0
 25 68  1  0
 25 69  1  0
 26 70  1  0
 26 71  1  0
 26 72  1  0
 28 73  1  0
 28 74  1  0
 28 75  1  0
 29 76  1  0
 29 77  1  0
 30 78  1  0
 30 79  1  0
 32 80  1  0
 32 81  1  0
 32 82  1  0
M  END
>  <meeko>  (12) 
{"is_sidechain": [false], "intermolecular_energy": 2.731, "internal_energy": -0.839}

$$$$
EPH_relaxed_0001_pdb2pqr_Repair_185_r2_0001_out
     RDKit          3D

 82 86  0  0  0  0  0  0  0  0999 V2000
    0.9010   14.9200   -2.6140 C   0  0  0  0  0  0  0  0  0  0  0  0
    1.1760   14.2460   -3.9610 C   0  0  2  0  0  0  0  0  0  0  0  0
    0.4800   14.9740   -5.1280 C   0  0  0  0  0  0  0  0  0  0  0  0
    1.0500   14.6180   -6.5030 C   0  0  0  0  0  0  0  0  0  0  0  0
    0.8260   15.7170   -7.4980 C   0  0  2  0  0  0  0  0  0  0  0  0
    0.3870   15.2750   -8.7890 O   0  0  0  0  0  0  0  0  0  0  0  0
    1.6770   15.9070   -8.7400 C   0  0  0  0  0  0  0  0  0  0  0  0
    2.8170   14.9900   -9.0530 C   0  0  0  0  0  0  0  0  0  0  0  0
    1.7100   17.2590   -9.3830 C   0  0  0  0  0  0  0  0  0  0  0  0
    0.7280   12.7900   -3.9140 C   0  0  1  0  0  0  0  0  0  0  0  0
    1.8610   11.8040   -4.3040 C   0  0  0  0  0  0  0  0  0  0  0  0
    1.6660   10.5330   -3.4370 C   0  0  0  0  0  0  0  0  0  0  0  0
    0.2540   10.6900   -2.8270 C   0  0  1  0  0  0  0  0  0  0  0  0
   -0.7240   10.2260   -3.9520 C   0  0  0  0  0  0  0  0  0  0  0  0
   -0.0080    9.9310   -1.4850 C   0  0  2  0  0  0  0  0  0  0  0  0
    0.0990    8.3990   -1.5710 C   0  0  0  0  0  0  0  0  0  0  0  0
   -1.1730    7.6880   -1.8960 C   0  0  0  0  0  0  0  0  0  0  0  0
   -2.4060    8.2220   -1.8300 C   0  0  0  0  0  0  0  0  0  0  0  0
   -2.6200    9.6460   -1.3010 C   0  0  1  0  0  0  0  0  0  0  0  0
   -3.7980    9.6510   -0.2910 C   0  0  0  0  0  0  0  0  0  0  0  0
   -5.0720    9.0480   -0.8750 C   0  0  0  0  0  0  0  0  0  0  0  0
   -4.8340    7.6130   -1.3360 C   0  0  2  0  0  0  0  0  0  0  0  0
   -4.5720    6.7970   -0.1900 O   0  0  0  0  0  0  0  0  0  0  0  0
   -3.6630    7.4810   -2.3500 C   0  0  0  0  0  0  0  0  0  0  0  0
   -4.0730    8.1120   -3.7040 C   0  0  0  0  0  0  0  0  0  0  0  0
   -3.4370    5.9700   -2.6250 C   0  0  0  0  0  0  0  0  0  0  0  0
   -1.3280   10.3770   -0.7350 C   0  0  1  0  0  0  0  0  0  0  0  0
   -1.1280   10.0160    0.7690 C   0  0  0  0  0  0  0  0  0  0  0  0
   -1.5510   11.9340   -0.7920 C   0  0  0  0  0  0  0  0  0  0  0  0
   -1.1620   12.6450   -2.1020 C   0  0  0  0  0  0  0  0  0  0  0  0
    0.2450   12.2380   -2.5490 C   0  0  2  0  0  0  0  0  0  0  0  0
    1.2530   12.7120   -1.4470 C   0  0  0  0  0  0  0  0  0  0  0  0
    1.1798   14.2366   -1.7984 H   0  0  0  0  0  0  0  0  0  0  0  0
    1.4944   15.8431   -2.5380 H   0  0  0  0  0  0  0  0  0  0  0  0
   -0.1688   15.1645   -2.5380 H   0  0  0  0  0  0  0  0  0  0  0  0
    2.2600   14.2962   -4.1409 H   0  0  0  0  0  0  0  0  0  0  0  0
   -0.5875   14.7089   -5.1154 H   0  0  0  0  0  0  0  0  0  0  0  0
    0.6468   16.0512   -4.9800 H   0  0  0  0  0  0  0  0  0  0  0  0
    2.1312   14.4404   -6.4055 H   0  0  0  0  0  0  0  0  0  0  0  0
    0.5334   13.7170   -6.8654 H   0  0  0  0  0  0  0  0  0  0  0  0
    0.5206   16.4097   -6.7000 H   0  0  0  0  0  0  0  0  0  0  0  0
    3.2654   14.6293   -8.1156 H   0  0  0  0  0  0  0  0  0  0  0  0
    2.4489   14.1334   -9.6368 H   0  0  0  0  0  0  0  0  0  0  0  0
    3.5748   15.5331   -9.6368 H   0  0  0  0  0  0  0  0  0  0  0  0
    1.7289   18.0352   -8.6038 H   0  0  0  0  0  0  0  0  0  0  0  0
    2.6105   17.3455  -10.0088 H   0  0  0  0  0  0  0  0  0  0  0  0
    0.8148   17.3894  -10.0088 H   0  0  0  0  0  0  0  0  0  0  0  0
   -0.1135   12.8329   -4.6212 H   0  0  0  0  0  0  0  0  0  0  0  0
    1.7902   11.5488   -5.3716 H   0  0  0  0  0  0  0  0  0  0  0  0
    2.8509   12.2517   -4.1317 H   0  0  0  0  0  0  0  0  0  0  0  0
    1.7222    9.6269   -4.0581 H   0  0  0  0  0  0  0  0  0  0  0  0
    2.4443   10.4301   -2.6665 H   0  0  0  0  0  0  0  0  0  0  0  0
   -1.6289    9.7967   -3.4971 H   0  0  0  0  0  0  0  0  0  0  0  0
   -1.0011   11.0886   -4.5758 H   0  0  0  0  0  0  0  0  0  0  0  0
   -0.2311    9.4657   -4.5758 H   0  0  0  0  0  0  0  0  0  0  0  0
    0.8382   10.2553   -0.8614 H   0  0  0  0  0  0  0  0  0  0  0  0
    0.8347    8.1529   -2.3508 H   0  0  0  0  0  0  0  0  0  0  0  0
    0.3904    8.0575   -0.5668 H   0  0  0  0  0  0  0  0  0  0  0  0
   -1.0954    6.6386   -2.2166 H   0  0  0  0  0  0  0  0  0  0  0  0
   -2.8759   10.2606   -2.1766 H   0  0  0  0  0  0  0  0  0  0  0  0
   -3.5056    9.0677    0.5946 H   0  0  0  0  0  0  0  0  0  0  0  0
   -4.0123   10.6987   -0.0332 H   0  0  0  0  0  0  0  0  0  0  0  0
   -5.8583    9.0534   -0.1058 H   0  0  0  0  0  0  0  0  0  0  0  0
   -5.3794    9.6495   -1.7432 H   0  0  0  0  0  0  0  0  0  0  0  0
   -5.7421    7.2810   -1.8605 H   0  0  0  0  0  0  0  0  0  0  0  0
   -3.6640    6.9850    0.1030 H   0  0  0  0  0  0  0  0  0  0  0  0
   -4.6640    9.0215   -3.5207 H   0  0  0  0  0  0  0  0  0  0  0  0
   -3.1700    8.3706   -4.2764 H   0  0  0  0  0  0  0  0  0  0  0  0
   -4.6762    7.3919   -4.2764 H   0  0  0  0  0  0  0  0  0  0  0  0
   -3.3564    5.4314   -1.6693 H   0  0  0  0  0  0  0  0  0  0  0  0
   -4.2855    5.5711   -3.2003 H   0  0  0  0  0  0  0  0  0  0  0  0
   -2.5089    5.8368   -3.2003 H   0  0  0  0  0  0  0  0  0  0  0  0
   -1.5657   10.8060    1.3970 H   0  0  0  0  0  0  0  0  0  0  0  0
   -1.6243    9.0585    0.9854 H   0  0  0  0  0  0  0  0  0  0  0  0
   -0.0530    9.9290    0.9854 H   0  0  0  0  0  0  0  0  0  0  0  0
   -2.6201   12.1235   -0.6156 H   0  0  0  0  0  0  0  0  0  0  0  0
   -0.8765   12.3490   -0.0286 H   0  0  0  0  0  0  0  0  0  0  0  0
   -1.8822   12.3720   -2.8873 H   0  0  0  0  0  0  0  0  0  0  0  0
   -1.1748   13.7312   -1.9290 H   0  0  0  0  0  0  0  0  0  0  0  0
    0.8288   12.5125   -0.4519 H   0  0  0  0  0  0  0  0  0  0  0  0
    2.2011   12.1653   -1.5577 H   0  0  0  0  0  0  0  0  0  0  0  0
    1.4367   13.7909   -1.5577 H   0  0  0  0  0  0  0  0  0  0  0  0
  1  2  1  0
  2  3  1  0
  3  4  1  0
  4  5  1  0
  5  6  1  0
  6  7  1  0
  7  8  1  0
  7  9  1  0
  2 10  1  0
 10 11  1  0
 11 12  1  0
 12 13  1  0
 13 14  1  6
 13 15  1  0
 15 16  1  0
 16 17  1  0
 17 18  2  0
 18 19  1  0
 19 20  1  0
 20 21  1  0
 21 22  1  0
 22 23  1  0
 22 24  1  0
 24 25  1  0
 24 26  1  0
 19 27  1  0
 27 28  1  1
 27 29  1  0
 29 30  1  0
 30 31  1  0
 31 32  1  1
  7  5  1  0
 31 10  1  0
 31 13  1  0
 27 15  1  0
 24 18  1  0
  1 33  1  0
  1 34  1  0
  1 35  1  0
  2 36  1  6
  3 37  1  0
  3 38  1  0
  4 39  1  0
  4 40  1  0
  5 41  1  1
  8 42  1  0
  8 43  1  0
  8 44  1  0
  9 45  1  0
  9 46  1  0
  9 47  1  0
 10 48  1  6
 11 49  1  0
 11 50  1  0
 12 51  1  0
 12 52  1  0
 14 53  1  0
 14 54  1  0
 14 55  1  0
 15 56  1  1
 16 57  1  0
 16 58  1  0
 17 59  1  0
 19 60  1  6
 20 61  1  0
 20 62  1  0
 21 63  1  0
 21 64  1  0
 22 65  1  6
 23 66  1  0
 25 67  1  0
 25 68  1  0
 25 69  1  0
 26 70  1  0
 26 71  1  0
 26 72  1  0
 28 73  1  0
 28 74  1  0
 28 75  1  0
 29 76  1  0
 29 77  1  0
 30 78  1  0
 30 79  1  0
 32 80  1  0
 32 81  1  0
 32 82  1  0
M  END
>  <meeko>  (13) 
{"is_sidechain": [false], "intermolecular_energy": 2.731, "internal_energy": -0.839}

$$$$
EPH_relaxed_0001_pdb2pqr_Repair_185_r2_0001_out
     RDKit          3D

 82 86  0  0  0  0  0  0  0  0999 V2000
    0.4550   10.0000   -4.5390 C   0  0  0  0  0  0  0  0  0  0  0  0
    1.3780   10.7520   -3.5760 C   0  0  2  0  0  0  0  0  0  0  0  0
    1.8010    9.8810   -2.3770 C   0  0  0  0  0  0  0  0  0  0  0  0
    0.8070    8.7640   -2.0470 C   0  0  0  0  0  0  0  0  0  0  0  0
   -0.0880    9.1380   -0.9040 C   0  0  2  0  0  0  0  0  0  0  0  0
   -0.5850    8.0280   -0.1440 O   0  0  0  0  0  0  0  0  0  0  0  0
   -1.5670    8.8000   -0.8550 C   0  0  0  0  0  0  0  0  0  0  0  0
   -2.2350    8.0570   -1.9690 C   0  0  0  0  0  0  0  0  0  0  0  0
   -2.4560    9.6100    0.0360 C   0  0  0  0  0  0  0  0  0  0  0  0
    0.6910   12.0200   -3.0820 C   0  0  1  0  0  0  0  0  0  0  0  0
   -0.6840   11.7360   -2.4220 C   0  0  0  0  0  0  0  0  0  0  0  0
   -0.8460   12.7590   -1.2680 C   0  0  0  0  0  0  0  0  0  0  0  0
    0.2720   13.7990   -1.5100 C   0  0  1  0  0  0  0  0  0  0  0  0
   -0.2980   14.7540   -2.6050 C   0  0  0  0  0  0  0  0  0  0  0  0
    0.7630   14.5900   -0.2530 C   0  0  2  0  0  0  0  0  0  0  0  0
   -0.3040   15.4670    0.4240 C   0  0  0  0  0  0  0  0  0  0  0  0
   -0.3890   16.8700   -0.0780 C   0  0  0  0  0  0  0  0  0  0  0  0
    0.5410   17.4900   -0.8270 C   0  0  0  0  0  0  0  0  0  0  0  0
    1.8690   16.8010   -1.1640 C   0  0  1  0  0  0  0  0  0  0  0  0
    3.0410   17.7890   -0.9230 C   0  0  0  0  0  0  0  0  0  0  0  0
    2.8600   19.1050   -1.6740 C   0  0  0  0  0  0  0  0  0  0  0  0
    1.5560   19.7890   -1.2700 C   0  0  2  0  0  0  0  0  0  0  0  0
    1.6540   20.1940    0.0990 O   0  0  0  0  0  0  0  0  0  0  0  0
    0.3060   18.8850   -1.4590 C   0  0  0  0  0  0  0  0  0  0  0  0
    0.0260   18.6930   -2.9700 C   0  0  0  0  0  0  0  0  0  0  0  0
   -0.9210   19.6410   -0.8830 C   0  0  0  0  0  0  0  0  0  0  0  0
    2.1110   15.3890   -0.4760 C   0  0  1  0  0  0  0  0  0  0  0  0
    2.7500   15.5850    0.9330 C   0  0  0  0  0  0  0  0  0  0  0  0
    3.1560   14.5740   -1.3270 C   0  0  0  0  0  0  0  0  0  0  0  0
    2.5960   13.7190   -2.4800 C   0  0  0  0  0  0  0  0  0  0  0  0
    1.4270   12.8530   -2.0020 C   0  0  2  0  0  0  0  0  0  0  0  0
    1.9740   11.8660   -0.9150 C   0  0  0  0  0  0  0  0  0  0  0  0
   -0.2717    9.4080   -3.9633 H   0  0  0  0  0  0  0  0  0  0  0  0
   -0.0805   10.7222   -5.1728 H   0  0  0  0  0  0  0  0  0  0  0  0
    1.0541    9.3296   -5.1728 H   0  0  0  0  0  0  0  0  0  0  0  0
    2.2909   11.0150   -4.1305 H   0  0  0  0  0  0  0  0  0  0  0  0
    2.7744    9.4231   -2.6066 H   0  0  0  0  0  0  0  0  0  0  0  0
    1.8451   10.5421   -1.4989 H   0  0  0  0  0  0  0  0  0  0  0  0
    0.1878    8.5643   -2.9340 H   0  0  0  0  0  0  0  0  0  0  0  0
    1.3792    7.8706   -1.7563 H   0  0  0  0  0  0  0  0  0  0  0  0
    0.4593   10.0801   -0.7526 H   0  0  0  0  0  0  0  0  0  0  0  0
   -2.9149    7.3008   -1.5495 H   0  0  0  0  0  0  0  0  0  0  0  0
   -2.8085    8.7625   -2.5882 H   0  0  0  0  0  0  0  0  0  0  0  0
   -1.4727    7.5615   -2.5882 H   0  0  0  0  0  0  0  0  0  0  0  0
   -2.2174    9.3926    1.0876 H   0  0  0  0  0  0  0  0  0  0  0  0
   -2.2971   10.6802   -0.1624 H   0  0  0  0  0  0  0  0  0  0  0  0
   -3.5069    9.3524   -0.1624 H   0  0  0  0  0  0  0  0  0  0  0  0
    0.6446   12.5841   -4.0252 H   0  0  0  0  0  0  0  0  0  0  0  0
   -1.4913   11.8643   -3.1581 H   0  0  0  0  0  0  0  0  0  0  0  0
   -0.7356   10.7039   -2.0451 H   0  0  0  0  0  0  0  0  0  0  0  0
   -1.8361   13.2365   -1.3084 H   0  0  0  0  0  0  0  0  0  0  0  0
   -0.7694   12.2866   -0.2776 H   0  0  0  0  0  0  0  0  0  0  0  0
   -0.8048   15.6031   -2.1232 H   0  0  0  0  0  0  0  0  0  0  0  0
    0.5258   15.1263   -3.2318 H   0  0  0  0  0  0  0  0  0  0  0  0
   -1.0167   14.2057   -3.2318 H   0  0  0  0  0  0  0  0  0  0  0  0
    0.9839   13.7834    0.4616 H   0  0  0  0  0  0  0  0  0  0  0  0
   -1.2834   14.9908    0.2693 H   0  0  0  0  0  0  0  0  0  0  0  0
   -0.0114   15.5397    1.4819 H   0  0  0  0  0  0  0  0  0  0  0  0
   -1.2880   17.4459    0.1868 H   0  0  0  0  0  0  0  0  0  0  0  0
    1.8140   16.5401   -2.2312 H   0  0  0  0  0  0  0  0  0  0  0  0
    3.1057   18.0035    0.1539 H   0  0  0  0  0  0  0  0  0  0  0  0
    3.9603   17.3146   -1.2970 H   0  0  0  0  0  0  0  0  0  0  0  0
    3.7034   19.7715   -1.4408 H   0  0  0  0  0  0  0  0  0  0  0  0
    2.8251   18.8918   -2.7526 H   0  0  0  0  0  0  0  0  0  0  0  0
    1.4187   20.6562   -1.9326 H   0  0  0  0  0  0  0  0  0  0  0  0
    2.3140   20.9070    0.1480 H   0  0  0  0  0  0  0  0  0  0  0  0
   -0.8748   18.0753   -3.1004 H   0  0  0  0  0  0  0  0  0  0  0  0
   -0.1310   19.6744   -3.4414 H   0  0  0  0  0  0  0  0  0  0  0  0
    0.8849   18.1929   -3.4414 H   0  0  0  0  0  0  0  0  0  0  0  0
   -0.8832   19.6177    0.2161 H   0  0  0  0  0  0  0  0  0  0  0  0
   -0.9036   20.6852   -1.2284 H   0  0  0  0  0  0  0  0  0  0  0  0
   -1.8459   19.1559   -1.2284 H   0  0  0  0  0  0  0  0  0  0  0  0
    2.0044   15.3563    1.7088 H   0  0  0  0  0  0  0  0  0  0  0  0
    3.6115   14.9098    1.0420 H   0  0  0  0  0  0  0  0  0  0  0  0
    3.0848   16.6271    1.0420 H   0  0  0  0  0  0  0  0  0  0  0  0
    3.8660   15.2937   -1.7606 H   0  0  0  0  0  0  0  0  0  0  0  0
    3.6012   13.8542   -0.6244 H   0  0  0  0  0  0  0  0  0  0  0  0
    2.2465   14.3835   -3.2839 H   0  0  0  0  0  0  0  0  0  0  0  0
    3.3951   13.0582   -2.8470 H   0  0  0  0  0  0  0  0  0  0  0  0
    1.7532   12.2643    0.0863 H   0  0  0  0  0  0  0  0  0  0  0  0
    1.4908   10.8850   -1.0341 H   0  0  0  0  0  0  0  0  0  0  0  0
    3.0620   11.7557   -1.0341 H   0  0  0  0  0  0  0  0  0  0  0  0
  1  2  1  0
  2  3  1  0
  3  4  1  0
  4  5  1  0
  5  6  1  0
  6  7  1  0
  7  8  1  0
  7  9  1  0
  2 10  1  0
 10 11  1  0
 11 12  1  0
 12 13  1  0
 13 14  1  6
 13 15  1  0
 15 16  1  0
 16 17  1  0
 17 18  2  0
 18 19  1  0
 19 20  1  0
 20 21  1  0
 21 22  1  0
 22 23  1  0
 22 24  1  0
 24 25  1  0
 24 26  1  0
 19 27  1  0
 27 28  1  1
 27 29  1  0
 29 30  1  0
 30 31  1  0
 31 32  1  1
  7  5  1  0
 31 10  1  0
 31 13  1  0
 27 15  1  0
 24 18  1  0
  1 33  1  0
  1 34  1  0
  1 35  1  0
  2 36  1  6
  3 37  1  0
  3 38  1  0
  4 39  1  0
  4 40  1  0
  5 41  1  1
  8 42  1  0
  8 43  1  0
  8 44  1  0
  9 45  1  0
  9 46  1  0
  9 47  1  0
 10 48  1  6
 11 49  1  0
 11 50  1  0
 12 51  1  0
 12 52  1  0
 14 53  1  0
 14 54  1  0
 14 55  1  0
 15 56  1  1
 16 57  1  0
 16 58  1  0
 17 59  1  0
 19 60  1  6
 20 61  1  0
 20 62  1  0
 21 63  1  0
 21 64  1  0
 22 65  1  6
 23 66  1  0
 25 67  1  0
 25 68  1  0
 25 69  1  0
 26 70  1  0
 26 71  1  0
 26 72  1  0
 28 73  1  0
 28 74  1  0
 28 75  1  0
 29 76  1  0
 29 77  1  0
 30 78  1  0
 30 79  1  0
 32 80  1  0
 32 81  1  0
 32 82  1  0
M  END
>  <meeko>  (14) 
{"is_sidechain": [false], "intermolecular_energy": 2.731, "internal_energy": -0.839}

$$$$
EPH_relaxed_0001_pdb2pqr_Repair_185_r2_0001_out
     RDKit          3D

 82 86  0  0  0  0  0  0  0  0999 V2000
    3.1470   14.8700   -7.5440 C   0  0  0  0  0  0  0  0  0  0  0  0
    1.6220   14.8980   -7.4080 C   0  0  2  0  0  0  0  0  0  0  0  0
    1.0020   16.1400   -8.0790 C   0  0  0  0  0  0  0  0  0  0  0  0
    1.9260   16.8160   -9.0960 C   0  0  0  0  0  0  0  0  0  0  0  0
    1.5980   16.4080  -10.5000 C   0  0  2  0  0  0  0  0  0  0  0  0
    1.0040   15.1100  -10.6240 O   0  0  0  0  0  0  0  0  0  0  0  0
    2.2970   15.2750  -11.2280 C   0  0  0  0  0  0  0  0  0  0  0  0
    3.3810   14.4780  -10.5730 C   0  0  0  0  0  0  0  0  0  0  0  0
    2.2690   15.2610  -12.7240 C   0  0  0  0  0  0  0  0  0  0  0  0
    1.2320   14.8530   -5.9350 C   0  0  1  0  0  0  0  0  0  0  0  0
   -0.0320   15.7000   -5.6260 C   0  0  0  0  0  0  0  0  0  0  0  0
   -0.8090   14.9530   -4.5110 C   0  0  0  0  0  0  0  0  0  0  0  0
    0.1860   13.8910   -3.9870 C   0  0  1  0  0  0  0  0  0  0  0  0
    1.1120   14.6640   -2.9970 C   0  0  0  0  0  0  0  0  0  0  0  0
   -0.4440   12.6250   -3.3190 C   0  0  2  0  0  0  0  0  0  0  0  0
   -1.2690   12.8980   -2.0500 C   0  0  0  0  0  0  0  0  0  0  0  0
   -0.5040   12.8480   -0.7690 C   0  0  0  0  0  0  0  0  0  0  0  0
    0.7230   12.3180   -0.6110 C   0  0  0  0  0  0  0  0  0  0  0  0
    1.4280   11.6040   -1.7720 C   0  0  1  0  0  0  0  0  0  0  0  0
    2.0240   10.2630   -1.2700 C   0  0  0  0  0  0  0  0  0  0  0  0
    2.9330   10.4440   -0.0580 C   0  0  0  0  0  0  0  0  0  0  0  0
    2.1800   11.1030    1.0950 C   0  0  2  0  0  0  0  0  0  0  0  0
    1.1730   10.2010    1.5630 O   0  0  0  0  0  0  0  0  0  0  0  0
    1.5270   12.4590    0.7050 C   0  0  0  0  0  0  0  0  0  0  0  0
    2.6300   13.5240    0.4890 C   0  0  0  0  0  0  0  0  0  0  0  0
    0.6830   12.9470    1.9130 C   0  0  0  0  0  0  0  0  0  0  0  0
    0.5750   11.4330   -3.1010 C   0  0  1  0  0  0  0  0  0  0  0  0
   -0.2770   10.1290   -3.0230 C   0  0  0  0  0  0  0  0  0  0  0  0
    1.5540   11.2520   -4.3210 C   0  0  0  0  0  0  0  0  0  0  0  0
    2.0460   12.5370   -5.0140 C   0  0  0  0  0  0  0  0  0  0  0  0
    0.8750   13.4700   -5.3360 C   0  0  2  0  0  0  0  0  0  0  0  0
   -0.0630   12.7280   -6.3480 C   0  0  0  0  0  0  0  0  0  0  0  0
    3.6042   14.8616   -6.5436 H   0  0  0  0  0  0  0  0  0  0  0  0
    3.4496   13.9661   -8.0931 H   0  0  0  0  0  0  0  0  0  0  0  0
    3.4826   15.7621   -8.0931 H   0  0  0  0  0  0  0  0  0  0  0  0
    1.2266   14.0115   -7.9254 H   0  0  0  0  0  0  0  0  0  0  0  0
    0.0818   15.8319   -8.5969 H   0  0  0  0  0  0  0  0  0  0  0  0
    0.8096   16.8735   -7.2822 H   0  0  0  0  0  0  0  0  0  0  0  0
    1.8165   17.9069   -9.0070 H   0  0  0  0  0  0  0  0  0  0  0  0
    2.9588   16.5045   -8.8809 H   0  0  0  0  0  0  0  0  0  0  0  0
    1.3975   17.4526  -10.7805 H   0  0  0  0  0  0  0  0  0  0  0  0
    3.2809   14.5516   -9.4800 H   0  0  0  0  0  0  0  0  0  0  0  0
    3.2975   13.4247  -10.8787 H   0  0  0  0  0  0  0  0  0  0  0  0
    4.3615   14.8719  -10.8787 H   0  0  0  0  0  0  0  0  0  0  0  0
    1.3347   14.7939  -13.0689 H   0  0  0  0  0  0  0  0  0  0  0  0
    2.3242   16.2927  -13.1014 H   0  0  0  0  0  0  0  0  0  0  0  0
    3.1275   14.6861  -13.1014 H   0  0  0  0  0  0  0  0  0  0  0  0
    2.1633   15.2283   -5.4857 H   0  0  0  0  0  0  0  0  0  0  0  0
    0.2592   16.7023   -5.2786 H   0  0  0  0  0  0  0  0  0  0  0  0
   -0.6535   15.8249   -6.5250 H   0  0  0  0  0  0  0  0  0  0  0  0
   -1.0965   15.6462   -3.7067 H   0  0  0  0  0  0  0  0  0  0  0  0
   -1.7420   14.5036   -4.8818 H   0  0  0  0  0  0  0  0  0  0  0  0
    0.8245   14.4240   -1.9627 H   0  0  0  0  0  0  0  0  0  0  0  0
    2.1577   14.3670   -3.1652 H   0  0  0  0  0  0  0  0  0  0  0  0
    1.0066   15.7459   -3.1652 H   0  0  0  0  0  0  0  0  0  0  0  0
   -1.1672   12.2930   -4.0785 H   0  0  0  0  0  0  0  0  0  0  0  0
   -1.7126   13.9004   -2.1421 H   0  0  0  0  0  0  0  0  0  0  0  0
   -2.0135   12.0904   -1.9915 H   0  0  0  0  0  0  0  0  0  0  0  0
   -0.9838   13.2810    0.1211 H   0  0  0  0  0  0  0  0  0  0  0  0
    2.2380   12.2748   -2.0943 H   0  0  0  0  0  0  0  0  0  0  0  0
    1.1978    9.5913   -0.9939 H   0  0  0  0  0  0  0  0  0  0  0  0
    2.6327    9.8426   -2.0841 H   0  0  0  0  0  0  0  0  0  0  0  0
    3.2994    9.4592    0.2675 H   0  0  0  0  0  0  0  0  0  0  0  0
    3.7745   11.0922   -0.3439 H   0  0  0  0  0  0  0  0  0  0  0  0
    2.9134   11.3239    1.8845 H   0  0  0  0  0  0  0  0  0  0  0  0
    0.3090   10.5670    1.3090 H   0  0  0  0  0  0  0  0  0  0  0  0
    2.9953   13.8767    1.4648 H   0  0  0  0  0  0  0  0  0  0  0  0
    3.4630   13.0798   -0.0756 H   0  0  0  0  0  0  0  0  0  0  0  0
    2.2153   14.3721   -0.0756 H   0  0  0  0  0  0  0  0  0  0  0  0
    1.1823   12.6583    2.8497 H   0  0  0  0  0  0  0  0  0  0  0  0
    0.5839   14.0418    1.8727 H   0  0  0  0  0  0  0  0  0  0  0  0
   -0.3153   12.4867    1.8727 H   0  0  0  0  0  0  0  0  0  0  0  0
   -0.4489    9.8659   -1.9689 H   0  0  0  0  0  0  0  0  0  0  0  0
   -1.2434   10.2920   -3.5226 H   0  0  0  0  0  0  0  0  0  0  0  0
    0.2604    9.3095   -3.5226 H   0  0  0  0  0  0  0  0  0  0  0  0
    2.4397   10.7092   -3.9592 H   0  0  0  0  0  0  0  0  0  0  0  0
    0.9671   10.7202   -5.0843 H   0  0  0  0  0  0  0  0  0  0  0  0
    2.7487   13.0586   -4.3476 H   0  0  0  0  0  0  0  0  0  0  0  0
    2.5419   12.2593   -5.9558 H   0  0  0  0  0  0  0  0  0  0  0  0
   -0.8079   12.1387   -5.7931 H   0  0  0  0  0  0  0  0  0  0  0  0
   -0.5770   13.4665   -6.9807 H   0  0  0  0  0  0  0  0  0  0  0  0
    0.5374   12.0577   -6.9807 H   0  0  0  0  0  0  0  0  0  0  0  0
  1  2  1  0
  2  3  1  0
  3  4  1  0
  4  5  1  0
  5  6  1  0
  6  7  1  0
  7  8  1  0
  7  9  1  0
  2 10  1  0
 10 11  1  0
 11 12  1  0
 12 13  1  0
 13 14  1  1
 13 15  1  0
 15 16  1  0
 16 17  1  0
 17 18  2  0
 18 19  1  0
 19 20  1  0
 20 21  1  0
 21 22  1  0
 22 23  1  0
 22 24  1  0
 24 25  1  0
 24 26  1  0
 19 27  1  0
 27 28  1  1
 27 29  1  0
 29 30  1  0
 30 31  1  0
 31 32  1  6
  7  5  1  0
 31 10  1  0
 31 13  1  0
 27 15  1  0
 24 18  1  0
  1 33  1  0
  1 34  1  0
  1 35  1  0
  2 36  1  6
  3 37  1  0
  3 38  1  0
  4 39  1  0
  4 40  1  0
  5 41  1  6
  8 42  1  0
  8 43  1  0
  8 44  1  0
  9 45  1  0
  9 46  1  0
  9 47  1  0
 10 48  1  1
 11 49  1  0
 11 50  1  0
 12 51  1  0
 12 52  1  0
 14 53  1  0
 14 54  1  0
 14 55  1  0
 15 56  1  6
 16 57  1  0
 16 58  1  0
 17 59  1  0
 19 60  1  6
 20 61  1  0
 20 62  1  0
 21 63  1  0
 21 64  1  0
 22 65  1  1
 23 66  1  0
 25 67  1  0
 25 68  1  0
 25 69  1  0
 26 70  1  0
 26 71  1  0
 26 72  1  0
 28 73  1  0
 28 74  1  0
 28 75  1  0
 29 76  1  0
 29 77  1  0
 30 78  1  0
 30 79  1  0
 32 80  1  0
 32 81  1  0
 32 82  1  0
M  END
>  <meeko>  (15) 
{"is_sidechain": [false], "intermolecular_energy": 2.731, "internal_energy": -0.839}

$$$$
EPH_relaxed_0001_pdb2pqr_Repair_185_r2_0001_out
     RDKit          3D

 82 86  0  0  0  0  0  0  0  0999 V2000
    0.3340    9.0070    0.4620 C   0  0  0  0  0  0  0  0  0  0  0  0
   -0.8000   10.0270    0.5970 C   0  0  2  0  0  0  0  0  0  0  0  0
   -1.7050   10.0570   -0.6510 C   0  0  0  0  0  0  0  0  0  0  0  0
   -1.2810    9.0710   -1.7430 C   0  0  0  0  0  0  0  0  0  0  0  0
   -0.8840    9.7780   -3.0040 C   0  0  2  0  0  0  0  0  0  0  0  0
   -0.2820    8.9370   -3.9970 O   0  0  0  0  0  0  0  0  0  0  0  0
    0.5570    9.9620   -3.4410 C   0  0  0  0  0  0  0  0  0  0  0  0
    1.6950    9.4390   -2.6210 C   0  0  0  0  0  0  0  0  0  0  0  0
    0.8780   11.0650   -4.4010 C   0  0  0  0  0  0  0  0  0  0  0  0
   -0.2230   11.4140    0.8560 C   0  0  1  0  0  0  0  0  0  0  0  0
    0.8940   11.4050    1.9330 C   0  0  0  0  0  0  0  0  0  0  0  0
    1.9300   12.4790    1.5120 C   0  0  0  0  0  0  0  0  0  0  0  0
    1.2200   13.2920    0.4040 C   0  0  1  0  0  0  0  0  0  0  0  0
    0.3020   14.2960    1.1690 C   0  0  0  0  0  0  0  0  0  0  0  0
    2.1490   14.0230   -0.6190 C   0  0  2  0  0  0  0  0  0  0  0  0
    3.0660   15.1010   -0.0140 C   0  0  0  0  0  0  0  0  0  0  0  0
    2.4930   16.4790    0.0240 C   0  0  0  0  0  0  0  0  0  0  0  0
    1.4130   16.8950   -0.6640 C   0  0  0  0  0  0  0  0  0  0  0  0
    0.7070   15.9670   -1.6600 C   0  0  1  0  0  0  0  0  0  0  0  0
    0.4340   16.7350   -2.9800 C   0  0  0  0  0  0  0  0  0  0  0  0
   -0.3310   18.0360   -2.7520 C   0  0  0  0  0  0  0  0  0  0  0  0
    0.4310   18.9560   -1.8020 C   0  0  2  0  0  0  0  0  0  0  0  0
    1.6370   19.3840   -2.4420 O   0  0  0  0  0  0  0  0  0  0  0  0
    0.7710   18.2870   -0.4410 C   0  0  0  0  0  0  0  0  0  0  0  0
   -0.5260   18.0970    0.3840 C   0  0  0  0  0  0  0  0  0  0  0  0
    1.6590   19.2710    0.3670 C   0  0  0  0  0  0  0  0  0  0  0  0
    1.4010   14.5580   -1.9070 C   0  0  1  0  0  0  0  0  0  0  0  0
    2.4780   14.6850   -3.0270 C   0  0  0  0  0  0  0  0  0  0  0  0
    0.3240   13.5410   -2.4390 C   0  0  0  0  0  0  0  0  0  0  0  0
   -0.4780   12.7610   -1.3790 C   0  0  0  0  0  0  0  0  0  0  0  0
    0.4530   12.1360   -0.3360 C   0  0  2  0  0  0  0  0  0  0  0  0
    1.3740   11.1050   -1.0730 C   0  0  0  0  0  0  0  0  0  0  0  0
    0.6735    8.7016    1.4627 H   0  0  0  0  0  0  0  0  0  0  0  0
   -0.0291    8.1256   -0.0869 H   0  0  0  0  0  0  0  0  0  0  0  0
    1.1722    9.4611   -0.0869 H   0  0  0  0  0  0  0  0  0  0  0  0
   -1.4233    9.7187    1.4493 H   0  0  0  0  0  0  0  0  0  0  0  0
   -2.7317    9.8118   -0.3414 H   0  0  0  0  0  0  0  0  0  0  0  0
   -1.6259   11.0663   -1.0811 H   0  0  0  0  0  0  0  0  0  0  0  0
   -0.4255    8.4827   -1.3796 H   0  0  0  0  0  0  0  0  0  0  0  0
   -2.1386    8.4205   -1.9698 H   0  0  0  0  0  0  0  0  0  0  0  0
   -1.7192   10.4861   -2.8985 H   0  0  0  0  0  0  0  0  0  0  0  0
    1.4576    9.5481   -1.5525 H   0  0  0  0  0  0  0  0  0  0  0  0
    1.8568    8.3762   -2.8540 H   0  0  0  0  0  0  0  0  0  0  0  0
    2.6069   10.0084   -2.8540 H   0  0  0  0  0  0  0  0  0  0  0  0
    1.1425   11.9737   -3.8403 H   0  0  0  0  0  0  0  0  0  0  0  0
    1.7261   10.7649   -5.0340 H   0  0  0  0  0  0  0  0  0  0  0  0
    0.0013   11.2668   -5.0340 H   0  0  0  0  0  0  0  0  0  0  0  0
   -1.1417   11.9450    1.1458 H   0  0  0  0  0  0  0  0  0  0  0  0
    0.4720   11.6515    2.9185 H   0  0  0  0  0  0  0  0  0  0  0  0
    1.3623   10.4125    2.0080 H   0  0  0  0  0  0  0  0  0  0  0  0
    2.1872   13.1256    2.3639 H   0  0  0  0  0  0  0  0  0  0  0  0
    2.8739   12.0345    1.1636 H   0  0  0  0  0  0  0  0  0  0  0  0
    0.4294   14.1567    2.2527 H   0  0  0  0  0  0  0  0  0  0  0  0
    0.5777   15.3255    0.8967 H   0  0  0  0  0  0  0  0  0  0  0  0
   -0.7480   14.1134    0.8967 H   0  0  0  0  0  0  0  0  0  0  0  0
    2.8167   13.2140   -0.9501 H   0  0  0  0  0  0  0  0  0  0  0  0
    3.3048   14.8038    1.0178 H   0  0  0  0  0  0  0  0  0  0  0  0
    3.9457   15.1558   -0.6721 H   0  0  0  0  0  0  0  0  0  0  0  0
    2.9951   17.2161    0.6679 H   0  0  0  0  0  0  0  0  0  0  0  0
   -0.2458   15.6842   -1.1886 H   0  0  0  0  0  0  0  0  0  0  0  0
    1.3970   16.9709   -3.4565 H   0  0  0  0  0  0  0  0  0  0  0  0
   -0.1866   16.0901   -3.6196 H   0  0  0  0  0  0  0  0  0  0  0  0
   -0.4676   18.5473   -3.7163 H   0  0  0  0  0  0  0  0  0  0  0  0
   -1.3061   17.7965   -2.3028 H   0  0  0  0  0  0  0  0  0  0  0  0
   -0.2237   19.8106   -1.5761 H   0  0  0  0  0  0  0  0  0  0  0  0
    1.9410   20.1880   -1.9880 H   0  0  0  0  0  0  0  0  0  0  0  0
   -0.2865   18.1321    1.4570 H   0  0  0  0  0  0  0  0  0  0  0  0
   -1.2365   18.9006    0.1404 H   0  0  0  0  0  0  0  0  0  0  0  0
   -0.9762   17.1233    0.1404 H   0  0  0  0  0  0  0  0  0  0  0  0
    1.5071   19.1027    1.4434 H   0  0  0  0  0  0  0  0  0  0  0  0
    2.7164   19.1021    0.1151 H   0  0  0  0  0  0  0  0  0  0  0  0
    1.3828   20.3055    0.1151 H   0  0  0  0  0  0  0  0  0  0  0  0
    3.4712   14.8021   -2.5690 H   0  0  0  0  0  0  0  0  0  0  0  0
    2.4665   13.7793   -3.6511 H   0  0  0  0  0  0  0  0  0  0  0  0
    2.2562   15.5632   -3.6511 H   0  0  0  0  0  0  0  0  0  0  0  0
   -0.3945   14.1066   -3.0504 H   0  0  0  0  0  0  0  0  0  0  0  0
    0.8951   12.7775   -2.9875 H   0  0  0  0  0  0  0  0  0  0  0  0
   -1.1723   13.4494   -0.8749 H   0  0  0  0  0  0  0  0  0  0  0  0
   -1.0319   11.9547   -1.8821 H   0  0  0  0  0  0  0  0  0  0  0  0
    1.9146   10.4999   -0.3303 H   0  0  0  0  0  0  0  0  0  0  0  0
    0.7572   10.4473   -1.7031 H   0  0  0  0  0  0  0  0  0  0  0  0
    2.0969   11.6440   -1.7031 H   0  0  0  0  0  0  0  0  0  0  0  0
  1  2  1  0
  2  3  1  0
  3  4  1  0
  4  5  1  0
  5  6  1  0
  6  7  1  0
  7  8  1  0
  7  9  1  0
  2 10  1  0
 10 11  1  0
 11 12  1  0
 12 13  1  0
 13 14  1  1
 13 15  1  0
 15 16  1  0
 16 17  1  0
 17 18  2  0
 18 19  1  0
 19 20  1  0
 20 21  1  0
 21 22  1  0
 22 23  1  0
 22 24  1  0
 24 25  1  0
 24 26  1  0
 19 27  1  0
 27 28  1  6
 27 29  1  0
 29 30  1  0
 30 31  1  0
 31 32  1  6
  7  5  1  0
 31 10  1  0
 31 13  1  0
 27 15  1  0
 24 18  1  0
  1 33  1  0
  1 34  1  0
  1 35  1  0
  2 36  1  1
  3 37  1  0
  3 38  1  0
  4 39  1  0
  4 40  1  0
  5 41  1  6
  8 42  1  0
  8 43  1  0
  8 44  1  0
  9 45  1  0
  9 46  1  0
  9 47  1  0
 10 48  1  1
 11 49  1  0
 11 50  1  0
 12 51  1  0
 12 52  1  0
 14 53  1  0
 14 54  1  0
 14 55  1  0
 15 56  1  6
 16 57  1  0
 16 58  1  0
 17 59  1  0
 19 60  1  1
 20 61  1  0
 20 62  1  0
 21 63  1  0
 21 64  1  0
 22 65  1  1
 23 66  1  0
 25 67  1  0
 25 68  1  0
 25 69  1  0
 26 70  1  0
 26 71  1  0
 26 72  1  0
 28 73  1  0
 28 74  1  0
 28 75  1  0
 29 76  1  0
 29 77  1  0
 30 78  1  0
 30 79  1  0
 32 80  1  0
 32 81  1  0
 32 82  1  0
M  END
>  <meeko>  (16) 
{"is_sidechain": [false], "intermolecular_energy": 2.731, "internal_energy": -0.839}

$$$$
EPH_relaxed_0001_pdb2pqr_Repair_185_r2_0001_out
     RDKit          3D

 82 86  0  0  0  0  0  0  0  0999 V2000
   -0.0570    8.6860   -3.9750 C   0  0  0  0  0  0  0  0  0  0  0  0
   -0.0250    9.0150   -2.4800 C   0  0  2  0  0  0  0  0  0  0  0  0
   -1.0090    8.1460   -1.6720 C   0  0  0  0  0  0  0  0  0  0  0  0
   -2.4720    8.3270   -2.0860 C   0  0  0  0  0  0  0  0  0  0  0  0
   -3.0290    7.0830   -2.7100 C   0  0  2  0  0  0  0  0  0  0  0  0
   -4.0570    7.3110   -3.6840 O   0  0  0  0  0  0  0  0  0  0  0  0
   -4.4540    6.6060   -2.4970 C   0  0  0  0  0  0  0  0  0  0  0  0
   -5.4090    7.3640   -1.6290 C   0  0  0  0  0  0  0  0  0  0  0  0
   -4.7660    5.1610   -2.7310 C   0  0  0  0  0  0  0  0  0  0  0  0
   -0.3380   10.4920   -2.2660 C   0  0  1  0  0  0  0  0  0  0  0  0
   -1.8050   10.7330   -1.8210 C   0  0  0  0  0  0  0  0  0  0  0  0
   -1.7830   11.9360   -0.8430 C   0  0  0  0  0  0  0  0  0  0  0  0
   -0.3750   12.5520   -1.0130 C   0  0  1  0  0  0  0  0  0  0  0  0
   -0.4750   13.4350   -2.2960 C   0  0  0  0  0  0  0  0  0  0  0  0
    0.1770   13.3630    0.2040 C   0  0  2  0  0  0  0  0  0  0  0  0
   -0.6400   14.6120    0.5790 C   0  0  0  0  0  0  0  0  0  0  0  0
   -0.2190   15.8760   -0.0950 C   0  0  0  0  0  0  0  0  0  0  0  0
    0.9450   16.0660   -0.7440 C   0  0  0  0  0  0  0  0  0  0  0  0
    2.0230   14.9750   -0.7640 C   0  0  1  0  0  0  0  0  0  0  0  0
    3.4040   15.6060   -0.4480 C   0  0  0  0  0  0  0  0  0  0  0  0
    3.7390   16.7730   -1.3710 C   0  0  0  0  0  0  0  0  0  0  0  0
    2.6740   17.8630   -1.2800 C   0  0  2  0  0  0  0  0  0  0  0  0
    2.7200   18.4450    0.0260 O   0  0  0  0  0  0  0  0  0  0  0  0
    1.2380   17.3430   -1.5690 C   0  0  0  0  0  0  0  0  0  0  0  0
    1.1050   16.9920   -3.0720 C   0  0  0  0  0  0  0  0  0  0  0  0
    0.2460   18.5080   -1.3060 C   0  0  0  0  0  0  0  0  0  0  0  0
    1.7230   13.6880    0.1200 C   0  0  1  0  0  0  0  0  0  0  0  0
    2.2090   13.9220    1.5830 C   0  0  0  0  0  0  0  0  0  0  0  0
    2.5590   12.4760   -0.4370 C   0  0  0  0  0  0  0  0  0  0  0  0
    1.9110   11.6400   -1.5570 C   0  0  0  0  0  0  0  0  0  0  0  0
    0.4790   11.2430   -1.1850 C   0  0  2  0  0  0  0  0  0  0  0  0
    0.5500   10.3350    0.0900 C   0  0  0  0  0  0  0  0  0  0  0  0
   -0.1627    7.5993   -4.1091 H   0  0  0  0  0  0  0  0  0  0  0  0
   -0.9096    9.1981   -4.4450 H   0  0  0  0  0  0  0  0  0  0  0  0
    0.8783    9.0242   -4.4450 H   0  0  0  0  0  0  0  0  0  0  0  0
    0.9883    8.7923   -2.1144 H   0  0  0  0  0  0  0  0  0  0  0  0
   -0.7362    7.0897   -1.8130 H   0  0  0  0  0  0  0  0  0  0  0  0
   -0.9303    8.4628   -0.6216 H   0  0  0  0  0  0  0  0  0  0  0  0
   -3.0666    8.5759   -1.1947 H   0  0  0  0  0  0  0  0  0  0  0  0
   -2.5205    9.1356   -2.8302 H   0  0  0  0  0  0  0  0  0  0  0  0
   -2.0586    6.5732   -2.6175 H   0  0  0  0  0  0  0  0  0  0  0  0
   -5.1719    7.1758   -0.5715 H   0  0  0  0  0  0  0  0  0  0  0  0
   -5.3202    8.4401   -1.8388 H   0  0  0  0  0  0  0  0  0  0  0  0
   -6.4369    7.0332   -1.8388 H   0  0  0  0  0  0  0  0  0  0  0  0
   -4.8767    4.6485   -1.7640 H   0  0  0  0  0  0  0  0  0  0  0  0
   -5.7032    5.0758   -3.3005 H   0  0  0  0  0  0  0  0  0  0  0  0
   -3.9474    4.6967   -3.3005 H   0  0  0  0  0  0  0  0  0  0  0  0
   -0.0865   10.8804   -3.2640 H   0  0  0  0  0  0  0  0  0  0  0  0
   -2.4324   10.9658   -2.6940 H   0  0  0  0  0  0  0  0  0  0  0  0
   -2.2235    9.8380   -1.3374 H   0  0  0  0  0  0  0  0  0  0  0  0
   -2.5611   12.6667   -1.1088 H   0  0  0  0  0  0  0  0  0  0  0  0
   -1.9828   11.6329    0.1953 H   0  0  0  0  0  0  0  0  0  0  0  0
   -0.5944   14.4896   -2.0069 H   0  0  0  0  0  0  0  0  0  0  0  0
    0.4419   13.3199   -2.8927 H   0  0  0  0  0  0  0  0  0  0  0  0
   -1.3430   13.1178   -2.8927 H   0  0  0  0  0  0  0  0  0  0  0  0
    0.0449   12.6570    1.0371 H   0  0  0  0  0  0  0  0  0  0  0  0
   -1.6914   14.4214    0.3176 H   0  0  0  0  0  0  0  0  0  0  0  0
   -0.4752   14.7715    1.6548 H   0  0  0  0  0  0  0  0  0  0  0  0
   -0.9191   16.7236   -0.0581 H   0  0  0  0  0  0  0  0  0  0  0  0
    2.0243   14.5670   -1.7855 H   0  0  0  0  0  0  0  0  0  0  0  0
    3.3966   15.9687    0.5905 H   0  0  0  0  0  0  0  0  0  0  0  0
    4.1684   14.8298   -0.6004 H   0  0  0  0  0  0  0  0  0  0  0  0
    4.7120   17.1950   -1.0793 H   0  0  0  0  0  0  0  0  0  0  0  0
    3.7754   16.4029   -2.4062 H   0  0  0  0  0  0  0  0  0  0  0  0
    2.8997   18.6092   -2.0561 H   0  0  0  0  0  0  0  0  0  0  0  0
    3.2910   17.8840    0.5780 H   0  0  0  0  0  0  0  0  0  0  0  0
    0.7170   15.9680   -3.1765 H   0  0  0  0  0  0  0  0  0  0  0  0
    0.4119   17.6976   -3.5534 H   0  0  0  0  0  0  0  0  0  0  0  0
    2.0917   17.0611   -3.5534 H   0  0  0  0  0  0  0  0  0  0  0  0
    0.1256   18.6494   -0.2218 H   0  0  0  0  0  0  0  0  0  0  0  0
    0.6386   19.4323   -1.7549 H   0  0  0  0  0  0  0  0  0  0  0  0
   -0.7291   18.2677   -1.7549 H   0  0  0  0  0  0  0  0  0  0  0  0
    1.4466   13.5549    2.2858 H   0  0  0  0  0  0  0  0  0  0  0  0
    3.1513   13.3789    1.7476 H   0  0  0  0  0  0  0  0  0  0  0  0
    2.3720   14.9973    1.7476 H   0  0  0  0  0  0  0  0  0  0  0  0
    3.5064   12.8767   -0.8268 H   0  0  0  0  0  0  0  0  0  0  0  0
    2.6646   11.7853    0.4126 H   0  0  0  0  0  0  0  0  0  0  0  0
    1.8911   12.2330   -2.4833 H   0  0  0  0  0  0  0  0  0  0  0  0
    2.5036   10.7242   -1.6993 H   0  0  0  0  0  0  0  0  0  0  0  0
    0.5008   10.9639    0.9912 H   0  0  0  0  0  0  0  0  0  0  0  0
   -0.2959    9.6318    0.0870 H   0  0  0  0  0  0  0  0  0  0  0  0
    1.4949    9.7719    0.0870 H   0  0  0  0  0  0  0  0  0  0  0  0
  1  2  1  0
  2  3  1  0
  3  4  1  0
  4  5  1  0
  5  6  1  0
  6  7  1  0
  7  8  1  0
  7  9  1  0
  2 10  1  0
 10 11  1  0
 11 12  1  0
 12 13  1  0
 13 14  1  6
 13 15  1  0
 15 16  1  0
 16 17  1  0
 17 18  2  0
 18 19  1  0
 19 20  1  0
 20 21  1  0
 21 22  1  0
 22 23  1  0
 22 24  1  0
 24 25  1  0
 24 26  1  0
 19 27  1  0
 27 28  1  1
 27 29  1  0
 29 30  1  0
 30 31  1  0
 31 32  1  1
  7  5  1  0
 31 10  1  0
 31 13  1  0
 27 15  1  0
 24 18  1  0
  1 33  1  0
  1 34  1  0
  1 35  1  0
  2 36  1  1
  3 37  1  0
  3 38  1  0
  4 39  1  0
  4 40  1  0
  5 41  1  6
  8 42  1  0
  8 43  1  0
  8 44  1  0
  9 45  1  0
  9 46  1  0
  9 47  1  0
 10 48  1  6
 11 49  1  0
 11 50  1  0
 12 51  1  0
 12 52  1  0
 14 53  1  0
 14 54  1  0
 14 55  1  0
 15 56  1  1
 16 57  1  0
 16 58  1  0
 17 59  1  0
 19 60  1  6
 20 61  1  0
 20 62  1  0
 21 63  1  0
 21 64  1  0
 22 65  1  6
 23 66  1  0
 25 67  1  0
 25 68  1  0
 25 69  1  0
 26 70  1  0
 26 71  1  0
 26 72  1  0
 28 73  1  0
 28 74  1  0
 28 75  1  0
 29 76  1  0
 29 77  1  0
 30 78  1  0
 30 79  1  0
 32 80  1  0
 32 81  1  0
 32 82  1  0
M  END
>  <meeko>  (17) 
{"is_sidechain": [false], "intermolecular_energy": 2.731, "internal_energy": -0.839}

$$$$
EPH_relaxed_0001_pdb2pqr_Repair_185_r2_0001_out
     RDKit          3D

 82 86  0  0  0  0  0  0  0  0999 V2000
    0.8590   14.7230   -4.9140 C   0  0  0  0  0  0  0  0  0  0  0  0
    0.5860   14.1950   -3.5030 C   0  0  2  0  0  0  0  0  0  0  0  0
    1.7920   14.3980   -2.5630 C   0  0  0  0  0  0  0  0  0  0  0  0
    1.5420   15.4230   -1.4540 C   0  0  0  0  0  0  0  0  0  0  0  0
    1.1490   16.7580   -2.0110 C   0  0  2  0  0  0  0  0  0  0  0  0
    2.1210   17.3530   -2.8810 O   0  0  0  0  0  0  0  0  0  0  0  0
    1.8540   18.0540   -1.6560 C   0  0  0  0  0  0  0  0  0  0  0  0
    3.0100   18.0770   -0.7050 C   0  0  0  0  0  0  0  0  0  0  0  0
    1.1200   19.3440   -1.8460 C   0  0  0  0  0  0  0  0  0  0  0  0
    0.2170   12.7170   -3.5640 C   0  0  1  0  0  0  0  0  0  0  0  0
    1.4290   11.8120   -3.9100 C   0  0  0  0  0  0  0  0  0  0  0  0
    1.2380   10.4890   -3.1260 C   0  0  0  0  0  0  0  0  0  0  0  0
   -0.2240   10.5410   -2.6230 C   0  0  1  0  0  0  0  0  0  0  0  0
   -1.0850   10.0890   -3.8440 C   0  0  0  0  0  0  0  0  0  0  0  0
   -0.5470    9.6990   -1.3460 C   0  0  2  0  0  0  0  0  0  0  0  0
   -0.3490    8.1800   -1.4990 C   0  0  0  0  0  0  0  0  0  0  0  0
   -1.5510    7.4240   -1.9590 C   0  0  0  0  0  0  0  0  0  0  0  0
   -2.8130    7.8910   -1.9660 C   0  0  0  0  0  0  0  0  0  0  0  0
   -3.1460    9.2710   -1.3860 C   0  0  1  0  0  0  0  0  0  0  0  0
   -4.3970    9.1630   -0.4750 C   0  0  0  0  0  0  0  0  0  0  0  0
   -5.5870    8.5270   -1.1880 C   0  0  0  0  0  0  0  0  0  0  0  0
   -5.2350    7.1330   -1.6990 C   0  0  2  0  0  0  0  0  0  0  0  0
   -5.0180    6.2720   -0.5770 O   0  0  0  0  0  0  0  0  0  0  0  0
   -3.9830    7.1160   -2.6210 C   0  0  0  0  0  0  0  0  0  0  0  0
   -4.3220    7.7960   -3.9710 C   0  0  0  0  0  0  0  0  0  0  0  0
   -3.6540    5.6350   -2.9520 C   0  0  0  0  0  0  0  0  0  0  0  0
   -1.9430   10.0360   -0.6830 C   0  0  1  0  0  0  0  0  0  0  0  0
   -1.8410    9.6060    0.8130 C   0  0  0  0  0  0  0  0  0  0  0  0
   -2.2470   11.5810   -0.6810 C   0  0  0  0  0  0  0  0  0  0  0  0
   -1.7970   12.3790   -1.9190 C   0  0  0  0  0  0  0  0  0  0  0  0
   -0.3390   12.0690   -2.2710 C   0  0  2  0  0  0  0  0  0  0  0  0
    0.5530   12.5340   -1.0700 C   0  0  0  0  0  0  0  0  0  0  0  0
    1.3633   15.6984   -4.8493 H   0  0  0  0  0  0  0  0  0  0  0  0
    1.5027   14.0125   -5.4532 H   0  0  0  0  0  0  0  0  0  0  0  0
   -0.0929   14.8375   -5.4532 H   0  0  0  0  0  0  0  0  0  0  0  0
   -0.2548   14.7722   -3.0907 H   0  0  0  0  0  0  0  0  0  0  0  0
    2.0341   13.4323   -2.0952 H   0  0  0  0  0  0  0  0  0  0  0  0
    2.6176   14.7850   -3.1783 H   0  0  0  0  0  0  0  0  0  0  0  0
    0.7336   15.0557   -0.8048 H   0  0  0  0  0  0  0  0  0  0  0  0
    2.4762   15.5496   -0.8872 H   0  0  0  0  0  0  0  0  0  0  0  0
    0.0869   16.4719   -2.0100 H   0  0  0  0  0  0  0  0  0  0  0  0
    2.6345   18.0695    0.3289 H   0  0  0  0  0  0  0  0  0  0  0  0
    3.6403   17.1912   -0.8726 H   0  0  0  0  0  0  0  0  0  0  0  0
    3.6046   18.9872   -0.8726 H   0  0  0  0  0  0  0  0  0  0  0  0
    0.8750   19.7746   -0.8639 H   0  0  0  0  0  0  0  0  0  0  0  0
    1.7533   20.0471   -2.4069 H   0  0  0  0  0  0  0  0  0  0  0  0
    0.1921   19.1587   -2.4069 H   0  0  0  0  0  0  0  0  0  0  0  0
   -0.5679   12.7548   -4.3338 H   0  0  0  0  0  0  0  0  0  0  0  0
    1.4552   11.6111   -4.9912 H   0  0  0  0  0  0  0  0  0  0  0  0
    2.3764   12.2995   -3.6367 H   0  0  0  0  0  0  0  0  0  0  0  0
    1.3914    9.6216   -3.7848 H   0  0  0  0  0  0  0  0  0  0  0  0
    1.9592   10.3846   -2.3020 H   0  0  0  0  0  0  0  0  0  0  0  0
   -2.0055    9.6057   -3.4847 H   0  0  0  0  0  0  0  0  0  0  0  0
   -1.3456   10.9666   -4.4539 H   0  0  0  0  0  0  0  0  0  0  0  0
   -0.5106    9.3761   -4.4539 H   0  0  0  0  0  0  0  0  0  0  0  0
    0.2290   10.0323   -0.6412 H   0  0  0  0  0  0  0  0  0  0  0  0
    0.4570    8.0140   -2.2290 H   0  0  0  0  0  0  0  0  0  0  0  0
   -0.1170    7.8003   -0.4930 H   0  0  0  0  0  0  0  0  0  0  0  0
   -1.3917    6.3983   -2.3231 H   0  0  0  0  0  0  0  0  0  0  0  0
   -3.3678    9.9172   -2.2481 H   0  0  0  0  0  0  0  0  0  0  0  0
   -4.1426    8.5498    0.4021 H   0  0  0  0  0  0  0  0  0  0  0  0
   -4.6879   10.1834   -0.1850 H   0  0  0  0  0  0  0  0  0  0  0  0
   -6.4293    8.4505   -0.4846 H   0  0  0  0  0  0  0  0  0  0  0  0
   -5.8595    9.1575   -2.0472 H   0  0  0  0  0  0  0  0  0  0  0  0
   -6.0795    6.7831   -2.3109 H   0  0  0  0  0  0  0  0  0  0  0  0
   -4.3430    6.6870   -0.0140 H   0  0  0  0  0  0  0  0  0  0  0  0
   -4.8055    8.7658   -3.7819 H   0  0  0  0  0  0  0  0  0  0  0  0
   -3.3968    7.9532   -4.5449 H   0  0  0  0  0  0  0  0  0  0  0  0
   -5.0044    7.1518   -4.5449 H   0  0  0  0  0  0  0  0  0  0  0  0
   -3.5284    5.0695   -2.0169 H   0  0  0  0  0  0  0  0  0  0  0  0
   -4.4771    5.1984   -3.5368 H   0  0  0  0  0  0  0  0  0  0  0  0
   -2.7235    5.5880   -3.5368 H   0  0  0  0  0  0  0  0  0  0  0  0
   -2.0466   10.4727    1.4585 H   0  0  0  0  0  0  0  0  0  0  0  0
   -2.5761    8.8138    1.0177 H   0  0  0  0  0  0  0  0  0  0  0  0
   -0.8283    9.2283    1.0177 H   0  0  0  0  0  0  0  0  0  0  0  0
   -3.3354   11.7058   -0.5822 H   0  0  0  0  0  0  0  0  0  0  0  0
   -1.6584   11.9890    0.1539 H   0  0  0  0  0  0  0  0  0  0  0  0
   -2.4378   12.1114   -2.7721 H   0  0  0  0  0  0  0  0  0  0  0  0
   -1.8830   13.4524   -1.6946 H   0  0  0  0  0  0  0  0  0  0  0  0
    0.0568   12.2753   -0.1230 H   0  0  0  0  0  0  0  0  0  0  0  0
    1.5295   12.0302   -1.1219 H   0  0  0  0  0  0  0  0  0  0  0  0
    0.6991   13.6230   -1.1219 H   0  0  0  0  0  0  0  0  0  0  0  0
  1  2  1  0
  2  3  1  0
  3  4  1  0
  4  5  1  0
  5  6  1  0
  6  7  1  0
  7  8  1  0
  7  9  1  0
  2 10  1  0
 10 11  1  0
 11 12  1  0
 12 13  1  0
 13 14  1  6
 13 15  1  0
 15 16  1  0
 16 17  1  0
 17 18  2  0
 18 19  1  0
 19 20  1  0
 20 21  1  0
 21 22  1  0
 22 23  1  0
 22 24  1  0
 24 25  1  0
 24 26  1  0
 19 27  1  0
 27 28  1  1
 27 29  1  0
 29 30  1  0
 30 31  1  0
 31 32  1  1
  7  5  1  0
 31 10  1  0
 31 13  1  0
 27 15  1  0
 24 18  1  0
  1 33  1  0
  1 34  1  0
  1 35  1  0
  2 36  1  1
  3 37  1  0
  3 38  1  0
  4 39  1  0
  4 40  1  0
  5 41  1  6
  8 42  1  0
  8 43  1  0
  8 44  1  0
  9 45  1  0
  9 46  1  0
  9 47  1  0
 10 48  1  6
 11 49  1  0
 11 50  1  0
 12 51  1  0
 12 52  1  0
 14 53  1  0
 14 54  1  0
 14 55  1  0
 15 56  1  1
 16 57  1  0
 16 58  1  0
 17 59  1  0
 19 60  1  6
 20 61  1  0
 20 62  1  0
 21 63  1  0
 21 64  1  0
 22 65  1  6
 23 66  1  0
 25 67  1  0
 25 68  1  0
 25 69  1  0
 26 70  1  0
 26 71  1  0
 26 72  1  0
 28 73  1  0
 28 74  1  0
 28 75  1  0
 29 76  1  0
 29 77  1  0
 30 78  1  0
 30 79  1  0
 32 80  1  0
 32 81  1  0
 32 82  1  0
M  END
>  <meeko>  (18) 
{"is_sidechain": [false], "intermolecular_energy": 2.731, "internal_energy": -0.839}

$$$$
