EPH_relaxed_0001_pdb2pqr_Repair_126_r2_0001_out
     RDKit          3D

 82 86  0  0  0  0  0  0  0  0999 V2000
   -1.1560    8.4480   -1.0160 C   0  0  0  0  0  0  0  0  0  0  0  0
   -1.8720    9.3830   -0.0370 C   0  0  2  0  0  0  0  0  0  0  0  0
   -3.2560    9.8200   -0.5580 C   0  0  0  0  0  0  0  0  0  0  0  0
   -4.3430    8.7570   -0.3810 C   0  0  0  0  0  0  0  0  0  0  0  0
   -4.7720    8.1780   -1.6950 C   0  0  2  0  0  0  0  0  0  0  0  0
   -5.8900    8.8370   -2.3040 O   0  0  0  0  0  0  0  0  0  0  0  0
   -6.0990    7.4730   -1.9060 C   0  0  0  0  0  0  0  0  0  0  0  0
   -7.0810    7.3080   -0.7890 C   0  0  0  0  0  0  0  0  0  0  0  0
   -6.2290    6.5230   -3.0560 C   0  0  0  0  0  0  0  0  0  0  0  0
   -1.0080   10.6090    0.2360 C   0  0  1  0  0  0  0  0  0  0  0  0
    0.0920   10.3400    1.2980 C   0  0  0  0  0  0  0  0  0  0  0  0
    1.3300   11.1740    0.8810 C   0  0  0  0  0  0  0  0  0  0  0  0
    0.8010   12.1410   -0.2040 C   0  0  1  0  0  0  0  0  0  0  0  0
    0.1280   13.3040    0.5900 C   0  0  0  0  0  0  0  0  0  0  0  0
    1.8560   12.6750   -1.2270 C   0  0  2  0  0  0  0  0  0  0  0  0
    2.9890   13.5190   -0.6170 C   0  0  0  0  0  0  0  0  0  0  0  0
    2.7250   14.9870   -0.5490 C   0  0  0  0  0  0  0  0  0  0  0  0
    1.7540   15.6380   -1.2150 C   0  0  0  0  0  0  0  0  0  0  0  0
    0.8560   14.9020   -2.2170 C   0  0  1  0  0  0  0  0  0  0  0  0
    0.7410   15.7360   -3.5200 C   0  0  0  0  0  0  0  0  0  0  0  0
    0.2770   17.1660   -3.2610 C   0  0  0  0  0  0  0  0  0  0  0  0
    1.2270   17.8840   -2.3060 C   0  0  2  0  0  0  0  0  0  0  0  0
    2.4910   18.0550   -2.9550 O   0  0  0  0  0  0  0  0  0  0  0  0
    1.4280   17.1310   -0.9610 C   0  0  0  0  0  0  0  0  0  0  0  0
    0.1290   17.2090   -0.1210 C   0  0  0  0  0  0  0  0  0  0  0  0
    2.5160   17.8860   -0.1490 C   0  0  0  0  0  0  0  0  0  0  0  0
    1.2280   13.3830   -2.4960 C   0  0  1  0  0  0  0  0  0  0  0  0
    2.2960   13.2960   -3.6290 C   0  0  0  0  0  0  0  0  0  0  0  0
   -0.0480   12.6300   -3.0300 C   0  0  0  0  0  0  0  0  0  0  0  0
   -0.9890   12.0210   -1.9730 C   0  0  0  0  0  0  0  0  0  0  0  0
   -0.2040   11.1920   -0.9530 C   0  0  2  0  0  0  0  0  0  0  0  0
    0.4670   10.0010   -1.7190 C   0  0  0  0  0  0  0  0  0  0  0  0
   -0.5815    7.6978   -0.4529 H   0  0  0  0  0  0  0  0  0  0  0  0
   -1.8992    7.9413   -1.6492 H   0  0  0  0  0  0  0  0  0  0  0  0
   -0.4730    9.0334   -1.6492 H   0  0  0  0  0  0  0  0  0  0  0  0
   -2.0321    8.8246    0.8971 H   0  0  0  0  0  0  0  0  0  0  0  0
   -3.5627   10.7247   -0.0126 H   0  0  0  0  0  0  0  0  0  0  0  0
   -3.1519    9.9969   -1.6387 H   0  0  0  0  0  0  0  0  0  0  0  0
   -3.9509    7.9486    0.2537 H   0  0  0  0  0  0  0  0  0  0  0  0
   -5.2174    9.2352    0.0846 H   0  0  0  0  0  0  0  0  0  0  0  0
   -3.7372    7.8895   -1.9317 H   0  0  0  0  0  0  0  0  0  0  0  0
   -6.5582    7.3958    0.1748 H   0  0  0  0  0  0  0  0  0  0  0  0
   -7.8522    8.0892   -0.8604 H   0  0  0  0  0  0  0  0  0  0  0  0
   -7.5545    6.3177   -0.8604 H   0  0  0  0  0  0  0  0  0  0  0  0
   -6.3688    5.5012   -2.6735 H   0  0  0  0  0  0  0  0  0  0  0  0
   -7.0967    6.8067   -3.6697 H   0  0  0  0  0  0  0  0  0  0  0  0
   -5.3170    6.5632   -3.6697 H   0  0  0  0  0  0  0  0  0  0  0  0
   -1.7887   11.3192    0.5461 H   0  0  0  0  0  0  0  0  0  0  0  0
   -0.2576   10.6526    2.2930 H   0  0  0  0  0  0  0  0  0  0  0  0
    0.3369    9.2689    1.3503 H   0  0  0  0  0  0  0  0  0  0  0  0
    1.7281   11.7342    1.7399 H   0  0  0  0  0  0  0  0  0  0  0  0
    2.1530   10.5438    0.5129 H   0  0  0  0  0  0  0  0  0  0  0  0
    0.2341   13.1206    1.6694 H   0  0  0  0  0  0  0  0  0  0  0  0
    0.6151   14.2554    0.3301 H   0  0  0  0  0  0  0  0  0  0  0  0
   -0.9396   13.3557    0.3301 H   0  0  0  0  0  0  0  0  0  0  0  0
    2.3311   11.7478   -1.5800 H   0  0  0  0  0  0  0  0  0  0  0  0
    3.1684   13.1581    0.4065 H   0  0  0  0  0  0  0  0  0  0  0  0
    3.8539   13.3960   -1.2854 H   0  0  0  0  0  0  0  0  0  0  0  0
    3.3796   15.5869    0.1004 H   0  0  0  0  0  0  0  0  0  0  0  0
   -0.1307   14.8209   -1.7376 H   0  0  0  0  0  0  0  0  0  0  0  0
    1.7272   15.7680   -4.0062 H   0  0  0  0  0  0  0  0  0  0  0  0
   -0.0110   15.2521   -4.1605 H   0  0  0  0  0  0  0  0  0  0  0  0
    0.2450   17.7124   -4.2152 H   0  0  0  0  0  0  0  0  0  0  0  0
   -0.7224   17.1329   -2.8027 H   0  0  0  0  0  0  0  0  0  0  0  0
    0.7735   18.8549   -2.0574 H   0  0  0  0  0  0  0  0  0  0  0  0
    2.3490   17.9390   -3.9100 H   0  0  0  0  0  0  0  0  0  0  0  0
    0.3829   17.1938    0.9492 H   0  0  0  0  0  0  0  0  0  0  0  0
   -0.4054   18.1409   -0.3578 H   0  0  0  0  0  0  0  0  0  0  0  0
   -0.5131   16.3478   -0.3578 H   0  0  0  0  0  0  0  0  0  0  0  0
    2.3274   17.7551    0.9268 H   0  0  0  0  0  0  0  0  0  0  0  0
    3.5075   17.4809   -0.3994 H   0  0  0  0  0  0  0  0  0  0  0  0
    2.4835   18.9566   -0.3994 H   0  0  0  0  0  0  0  0  0  0  0  0
    3.2981   13.2144   -3.1828 H   0  0  0  0  0  0  0  0  0  0  0  0
    2.0987   12.4110   -4.2517 H   0  0  0  0  0  0  0  0  0  0  0  0
    2.2445   14.2013   -4.2517 H   0  0  0  0  0  0  0  0  0  0  0  0
   -0.6339   13.3476   -3.6230 H   0  0  0  0  0  0  0  0  0  0  0  0
    0.3410   11.7717   -3.5974 H   0  0  0  0  0  0  0  0  0  0  0  0
   -1.5147   12.8327   -1.4488 H   0  0  0  0  0  0  0  0  0  0  0  0
   -1.7080   11.3620   -2.4816 H   0  0  0  0  0  0  0  0  0  0  0  0
    0.8729    9.2806   -0.9935 H   0  0  0  0  0  0  0  0  0  0  0  0
   -0.2829    9.5023   -2.3506 H   0  0  0  0  0  0  0  0  0  0  0  0
    1.2821   10.3840   -2.3506 H   0  0  0  0  0  0  0  0  0  0  0  0
  1  2  1  0
  2  3  1  0
  3  4  1  0
  4  5  1  0
  5  6  1  0
  6  7  1  0
  7  8  1  0
  7  9  1  0
  2 10  1  0
 10 11  1  0
 11 12  1  0
 12 13  1  0
 13 14  1  1
 13 15  1  0
 15 16  1  0
 16 17  1  0
 17 18  2  0
 18 19  1  0
 19 20  1  0
 20 21  1  0
 21 22  1  0
 22 23  1  0
 22 24  1  0
 24 25  1  0
 24 26  1  0
 19 27  1  0
 27 28  1  6
 27 29  1  0
 29 30  1  0
 30 31  1  0
 31 32  1  6
  7  5  1  0
 31 10  1  0
 31 13  1  0
 27 15  1  0
 24 18  1  0
  1 33  1  0
  1 34  1  0
  1 35  1  0
  2 36  1  1
  3 37  1  0
  3 38  1  0
  4 39  1  0
  4 40  1  0
  5 41  1  6
  8 42  1  0
  8 43  1  0
  8 44  1  0
  9 45  1  0
  9 46  1  0
  9 47  1  0
 10 48  1  1
 11 49  1  0
 11 50  1  0
 12 51  1  0
 12 52  1  0
 14 53  1  0
 14 54  1  0
 14 55  1  0
 15 56  1  6
 16 57  1  0
 16 58  1  0
 17 59  1  0
 19 60  1  1
 20 61  1  0
 20 62  1  0
 21 63  1  0
 21 64  1  0
 22 65  1  1
 23 66  1  0
 25 67  1  0
 25 68  1  0
 25 69  1  0
 26 70  1  0
 26 71  1  0
 26 72  1  0
 28 73  1  0
 28 74  1  0
 28 75  1  0
 29 76  1  0
 29 77  1  0
 30 78  1  0
 30 79  1  0
 32 80  1  0
 32 81  1  0
 32 82  1  0
M  END
>  <meeko>  (1) 
{"is_sidechain": [false], "intermolecular_energy": 2.731, "internal_energy": -0.839}

$$$$
EPH_relaxed_0001_pdb2pqr_Repair_126_r2_0001_out
     RDKit          3D

 82 86  0  0  0  0  0  0  0  0999 V2000
    0.8910   13.2170   -9.2780 C   0  0  0  0  0  0  0  0  0  0  0  0
    0.5100   13.7900   -7.9100 C   0  0  2  0  0  0  0  0  0  0  0  0
    1.2030   15.1380   -7.6320 C   0  0  0  0  0  0  0  0  0  0  0  0
    2.1860   15.5630   -8.7260 C   0  0  0  0  0  0  0  0  0  0  0  0
    1.7920   16.8680   -9.3490 C   0  0  2  0  0  0  0  0  0  0  0  0
    0.4710   16.8930   -9.9040 O   0  0  0  0  0  0  0  0  0  0  0  0
    1.5530   17.0470  -10.8370 C   0  0  0  0  0  0  0  0  0  0  0  0
    1.7000   15.9060  -11.7930 C   0  0  0  0  0  0  0  0  0  0  0  0
    1.6560   18.4230  -11.4170 C   0  0  0  0  0  0  0  0  0  0  0  0
    0.8550   12.7900   -6.8130 C   0  0  1  0  0  0  0  0  0  0  0  0
    2.0980   11.9270   -7.1610 C   0  0  0  0  0  0  0  0  0  0  0  0
    2.8500   11.6690   -5.8300 C   0  0  0  0  0  0  0  0  0  0  0  0
    1.8540   12.1010   -4.7290 C   0  0  1  0  0  0  0  0  0  0  0  0
    0.8870   10.8870   -4.5640 C   0  0  0  0  0  0  0  0  0  0  0  0
    2.4790   12.5310   -3.3620 C   0  0  2  0  0  0  0  0  0  0  0  0
    3.2610   11.4290   -2.6260 C   0  0  0  0  0  0  0  0  0  0  0  0
    2.4580   10.6010   -1.6790 C   0  0  0  0  0  0  0  0  0  0  0  0
    1.2330   10.9120   -1.2130 C   0  0  0  0  0  0  0  0  0  0  0  0
    0.5730   12.2510   -1.5640 C   0  0  1  0  0  0  0  0  0  0  0  0
   -0.0200   12.8880   -0.2800 C   0  0  0  0  0  0  0  0  0  0  0  0
   -0.9680   11.9450    0.4560 C   0  0  0  0  0  0  0  0  0  0  0  0
   -0.2590   10.6490    0.8390 C   0  0  2  0  0  0  0  0  0  0  0  0
    0.7450   10.9430    1.8150 O   0  0  0  0  0  0  0  0  0  0  0  0
    0.3870    9.9230   -0.3740 C   0  0  0  0  0  0  0  0  0  0  0  0
   -0.7220    9.3390   -1.2830 C   0  0  0  0  0  0  0  0  0  0  0  0
    1.1880    8.7080    0.1690 C   0  0  0  0  0  0  0  0  0  0  0  0
    1.4700   13.2700   -2.3920 C   0  0  1  0  0  0  0  0  0  0  0  0
    2.3350   14.1290   -1.4200 C   0  0  0  0  0  0  0  0  0  0  0  0
    0.5310   14.2750   -3.1580 C   0  0  0  0  0  0  0  0  0  0  0  0
    0.0430   13.8450   -4.5540 C   0  0  0  0  0  0  0  0  0  0  0  0
    1.2120   13.3600   -5.4180 C   0  0  2  0  0  0  0  0  0  0  0  0
    2.1900   14.5670   -5.6190 C   0  0  0  0  0  0  0  0  0  0  0  0
    1.4952   12.3083   -9.1395 H   0  0  0  0  0  0  0  0  0  0  0  0
   -0.0222   12.9683   -9.8386 H   0  0  0  0  0  0  0  0  0  0  0  0
    1.4736   13.9628   -9.8386 H   0  0  0  0  0  0  0  0  0  0  0  0
   -0.5747   13.9725   -7.9181 H   0  0  0  0  0  0  0  0  0  0  0  0
    0.4287   15.9140   -7.5406 H   0  0  0  0  0  0  0  0  0  0  0  0
    1.7857   15.0147   -6.7072 H   0  0  0  0  0  0  0  0  0  0  0  0
    3.1879   15.6671   -8.2841 H   0  0  0  0  0  0  0  0  0  0  0  0
    2.1794   14.7925   -9.5110 H   0  0  0  0  0  0  0  0  0  0  0  0
    2.4097   17.4244   -8.6286 H   0  0  0  0  0  0  0  0  0  0  0  0
    1.8207   14.9689  -11.2297 H   0  0  0  0  0  0  0  0  0  0  0  0
    0.8029   15.8402  -12.4262 H   0  0  0  0  0  0  0  0  0  0  0  0
    2.5845   16.0698  -12.4262 H   0  0  0  0  0  0  0  0  0  0  0  0
    1.7112   19.1608  -10.6030 H   0  0  0  0  0  0  0  0  0  0  0  0
    2.5619   18.4927  -12.0371 H   0  0  0  0  0  0  0  0  0  0  0  0
    0.7706   18.6267  -12.0371 H   0  0  0  0  0  0  0  0  0  0  0  0
   -0.0946   12.2372   -6.7620 H   0  0  0  0  0  0  0  0  0  0  0  0
    1.7834   10.9731   -7.6094 H   0  0  0  0  0  0  0  0  0  0  0  0
    2.7450   12.4410   -7.8871 H   0  0  0  0  0  0  0  0  0  0  0  0
    3.1038   10.6036   -5.7276 H   0  0  0  0  0  0  0  0  0  0  0  0
    3.7995   12.2215   -5.7736 H   0  0  0  0  0  0  0  0  0  0  0  0
    0.7281   10.6876   -3.4940 H   0  0  0  0  0  0  0  0  0  0  0  0
   -0.0768   11.1185   -5.0409 H   0  0  0  0  0  0  0  0  0  0  0  0
    1.3282    9.9993   -5.0409 H   0  0  0  0  0  0  0  0  0  0  0  0
    3.2292   13.2745   -3.6694 H   0  0  0  0  0  0  0  0  0  0  0  0
    3.6941   10.7572   -3.3817 H   0  0  0  0  0  0  0  0  0  0  0  0
    4.0137   11.9474   -2.0138 H   0  0  0  0  0  0  0  0  0  0  0  0
    2.9041    9.6572   -1.3323 H   0  0  0  0  0  0  0  0  0  0  0  0
   -0.2354   12.0155   -2.2718 H   0  0  0  0  0  0  0  0  0  0  0  0
    0.8063   13.1553    0.3952 H   0  0  0  0  0  0  0  0  0  0  0  0
   -0.5978   13.7738   -0.5825 H   0  0  0  0  0  0  0  0  0  0  0  0
   -1.3314   12.4399    1.3687 H   0  0  0  0  0  0  0  0  0  0  0  0
   -1.8088   11.7018   -0.2102 H   0  0  0  0  0  0  0  0  0  0  0  0
   -1.0187    9.9651    1.2454 H   0  0  0  0  0  0  0  0  0  0  0  0
    1.5650   11.1550    1.3380 H   0  0  0  0  0  0  0  0  0  0  0  0
   -1.5234    8.9170   -0.6587 H   0  0  0  0  0  0  0  0  0  0  0  0
   -1.1337   10.1372   -1.9180 H   0  0  0  0  0  0  0  0  0  0  0  0
   -0.2968    8.5479   -1.9180 H   0  0  0  0  0  0  0  0  0  0  0  0
    1.1775    8.7239    1.2688 H   0  0  0  0  0  0  0  0  0  0  0  0
    0.7270    7.7755   -0.1886 H   0  0  0  0  0  0  0  0  0  0  0  0
    2.2267    8.7642   -0.1886 H   0  0  0  0  0  0  0  0  0  0  0  0
    2.0797   13.8754   -0.3805 H   0  0  0  0  0  0  0  0  0  0  0  0
    3.4007   13.9215   -1.5969 H   0  0  0  0  0  0  0  0  0  0  0  0
    2.1349   15.1961   -1.5969 H   0  0  0  0  0  0  0  0  0  0  0  0
   -0.3579   14.4424   -2.5320 H   0  0  0  0  0  0  0  0  0  0  0  0
    1.1482   15.1687   -3.3322 H   0  0  0  0  0  0  0  0  0  0  0  0
   -0.6865   13.0290   -4.4447 H   0  0  0  0  0  0  0  0  0  0  0  0
   -0.4208   14.7126   -5.0462 H   0  0  0  0  0  0  0  0  0  0  0  0
    2.5027   14.9529   -4.6375 H   0  0  0  0  0  0  0  0  0  0  0  0
    3.0749   14.2324   -6.1803 H   0  0  0  0  0  0  0  0  0  0  0  0
    1.6792   15.3633   -6.1803 H   0  0  0  0  0  0  0  0  0  0  0  0
  1  2  1  0
  2  3  1  0
  3  4  1  0
  4  5  1  0
  5  6  1  0
  6  7  1  0
  7  8  1  0
  7  9  1  0
  2 10  1  0
 10 11  1  0
 11 12  1  0
 12 13  1  0
 13 14  1  1
 13 15  1  0
 15 16  1  0
 16 17  1  0
 17 18  2  0
 18 19  1  0
 19 20  1  0
 20 21  1  0
 21 22  1  0
 22 23  1  0
 22 24  1  0
 24 25  1  0
 24 26  1  0
 19 27  1  0
 27 28  1  1
 27 29  1  0
 29 30  1  0
 30 31  1  0
 31 32  1  6
  7  5  1  0
 31 10  1  0
 31 13  1  0
 27 15  1  0
 24 18  1  0
  1 33  1  0
  1 34  1  0
  1 35  1  0
  2 36  1  6
  3 37  1  0
  3 38  1  0
  4 39  1  0
  4 40  1  0
  5 41  1  1
  8 42  1  0
  8 43  1  0
  8 44  1  0
  9 45  1  0
  9 46  1  0
  9 47  1  0
 10 48  1  1
 11 49  1  0
 11 50  1  0
 12 51  1  0
 12 52  1  0
 14 53  1  0
 14 54  1  0
 14 55  1  0
 15 56  1  6
 16 57  1  0
 16 58  1  0
 17 59  1  0
 19 60  1  6
 20 61  1  0
 20 62  1  0
 21 63  1  0
 21 64  1  0
 22 65  1  1
 23 66  1  0
 25 67  1  0
 25 68  1  0
 25 69  1  0
 26 70  1  0
 26 71  1  0
 26 72  1  0
 28 73  1  0
 28 74  1  0
 28 75  1  0
 29 76  1  0
 29 77  1  0
 30 78  1  0
 30 79  1  0
 32 80  1  0
 32 81  1  0
 32 82  1  0
M  END
>  <meeko>  (2) 
{"is_sidechain": [false], "intermolecular_energy": 2.731, "internal_energy": -0.839}

$$$$
EPH_relaxed_0001_pdb2pqr_Repair_126_r2_0001_out
     RDKit          3D

 82 86  0  0  0  0  0  0  0  0999 V2000
    1.9800   18.2170   -2.6780 C   0  0  0  0  0  0  0  0  0  0  0  0
    0.4710   17.9580   -2.6610 C   0  0  2  0  0  0  0  0  0  0  0  0
   -0.1820   18.4110   -1.3400 C   0  0  0  0  0  0  0  0  0  0  0  0
    0.5970   17.9860   -0.0920 C   0  0  0  0  0  0  0  0  0  0  0  0
    1.1900   19.1650    0.6200 C   0  0  2  0  0  0  0  0  0  0  0  0
    2.1250   19.9250   -0.1570 O   0  0  0  0  0  0  0  0  0  0  0  0
    2.6550   19.2610    1.0010 C   0  0  0  0  0  0  0  0  0  0  0  0
    3.6180   18.1600    0.6850 C   0  0  0  0  0  0  0  0  0  0  0  0
    3.0470   20.1940    2.1040 C   0  0  0  0  0  0  0  0  0  0  0  0
    0.1950   16.4770   -2.8970 C   0  0  1  0  0  0  0  0  0  0  0  0
    0.2550   16.0910   -4.3990 C   0  0  0  0  0  0  0  0  0  0  0  0
    0.8390   14.6570   -4.4690 C   0  0  0  0  0  0  0  0  0  0  0  0
    0.7860   14.1420   -3.0110 C   0  0  1  0  0  0  0  0  0  0  0  0
   -0.6870   13.6670   -2.8080 C   0  0  0  0  0  0  0  0  0  0  0  0
    1.8100   13.0230   -2.6360 C   0  0  2  0  0  0  0  0  0  0  0  0
    1.6500   11.7040   -3.4120 C   0  0  0  0  0  0  0  0  0  0  0  0
    0.7460   10.6980   -2.7810 C   0  0  0  0  0  0  0  0  0  0  0  0
    0.3140   10.7260   -1.5070 C   0  0  0  0  0  0  0  0  0  0  0  0
    0.8150   11.7950   -0.5280 C   0  0  1  0  0  0  0  0  0  0  0  0
    1.2090   11.1240    0.8150 C   0  0  0  0  0  0  0  0  0  0  0  0
    0.0800   10.2810    1.4000 C   0  0  0  0  0  0  0  0  0  0  0  0
   -0.3510    9.1920    0.4210 C   0  0  2  0  0  0  0  0  0  0  0  0
    0.7220    8.2570    0.2690 O   0  0  0  0  0  0  0  0  0  0  0  0
   -0.7620    9.7480   -0.9710 C   0  0  0  0  0  0  0  0  0  0  0  0
   -2.1010   10.5170   -0.8510 C   0  0  0  0  0  0  0  0  0  0  0  0
   -1.0380    8.5390   -1.9060 C   0  0  0  0  0  0  0  0  0  0  0  0
    1.9470   12.7640   -1.0800 C   0  0  1  0  0  0  0  0  0  0  0  0
    3.3510   12.1250   -0.8570 C   0  0  0  0  0  0  0  0  0  0  0  0
    1.9300   14.1010   -0.2480 C   0  0  0  0  0  0  0  0  0  0  0  0
    0.9850   15.2140   -0.7400 C   0  0  0  0  0  0  0  0  0  0  0  0
    1.1610   15.4600   -2.2410 C   0  0  2  0  0  0  0  0  0  0  0  0
    2.6280   15.9600   -2.4740 C   0  0  0  0  0  0  0  0  0  0  0  0
    2.3527   18.2810   -1.6450 H   0  0  0  0  0  0  0  0  0  0  0  0
    2.4876   17.3928   -3.2006 H   0  0  0  0  0  0  0  0  0  0  0  0
    2.1838   19.1632   -3.2006 H   0  0  0  0  0  0  0  0  0  0  0  0
    0.0245   18.5536   -3.4709 H   0  0  0  0  0  0  0  0  0  0  0  0
   -0.2551   19.5085   -1.3470 H   0  0  0  0  0  0  0  0  0  0  0  0
   -1.1676   17.9256   -1.2851 H   0  0  0  0  0  0  0  0  0  0  0  0
   -0.0858   17.4622    0.5932 H   0  0  0  0  0  0  0  0  0  0  0  0
    1.4193   17.3276   -0.4088 H   0  0  0  0  0  0  0  0  0  0  0  0
    0.2659   19.3108    1.1987 H   0  0  0  0  0  0  0  0  0  0  0  0
    3.9981   17.7254    1.6213 H   0  0  0  0  0  0  0  0  0  0  0  0
    3.1058   17.3813    0.1007 H   0  0  0  0  0  0  0  0  0  0  0  0
    4.4579   18.5640    0.1007 H   0  0  0  0  0  0  0  0  0  0  0  0
    2.8470   19.7180    3.0753 H   0  0  0  0  0  0  0  0  0  0  0  0
    4.1191   20.4269    2.0236 H   0  0  0  0  0  0  0  0  0  0  0  0
    2.4630   21.1227    2.0236 H   0  0  0  0  0  0  0  0  0  0  0  0
   -0.8012   16.3994   -2.4371 H   0  0  0  0  0  0  0  0  0  0  0  0
   -0.7544   16.1107   -4.8358 H   0  0  0  0  0  0  0  0  0  0  0  0
    0.8783   16.7994   -4.9643 H   0  0  0  0  0  0  0  0  0  0  0  0
    0.2293   14.0212   -5.1278 H   0  0  0  0  0  0  0  0  0  0  0  0
    1.8593   14.6419   -4.8798 H   0  0  0  0  0  0  0  0  0  0  0  0
   -0.9046   13.5968   -1.7320 H   0  0  0  0  0  0  0  0  0  0  0  0
   -1.3728   14.3895   -3.2745 H   0  0  0  0  0  0  0  0  0  0  0  0
   -0.8215   12.6799   -3.2745 H   0  0  0  0  0  0  0  0  0  0  0  0
    2.7636   13.4548   -2.9739 H   0  0  0  0  0  0  0  0  0  0  0  0
    1.2500   11.9425   -4.4085 H   0  0  0  0  0  0  0  0  0  0  0  0
    2.6483   11.2426   -3.4364 H   0  0  0  0  0  0  0  0  0  0  0  0
    0.4040    9.8633   -3.4105 H   0  0  0  0  0  0  0  0  0  0  0  0
   -0.0298   12.4813   -0.3689 H   0  0  0  0  0  0  0  0  0  0  0  0
    2.0808   10.4756    0.6430 H   0  0  0  0  0  0  0  0  0  0  0  0
    1.4361   11.9243    1.5346 H   0  0  0  0  0  0  0  0  0  0  0  0
    0.4275    9.8106    2.3317 H   0  0  0  0  0  0  0  0  0  0  0  0
   -0.7812   10.9361    1.5980 H   0  0  0  0  0  0  0  0  0  0  0  0
   -1.2441    8.7058    0.8404 H   0  0  0  0  0  0  0  0  0  0  0  0
    0.9050    7.8750    1.1430 H   0  0  0  0  0  0  0  0  0  0  0  0
   -2.3483   10.6590    0.2114 H   0  0  0  0  0  0  0  0  0  0  0  0
   -2.0056   11.4979   -1.3396 H   0  0  0  0  0  0  0  0  0  0  0  0
   -2.9001    9.9402   -1.3396 H   0  0  0  0  0  0  0  0  0  0  0  0
   -1.2421    7.6449   -1.2986 H   0  0  0  0  0  0  0  0  0  0  0  0
   -1.9093    8.7578   -2.5408 H   0  0  0  0  0  0  0  0  0  0  0  0
   -0.1581    8.3580   -2.5408 H   0  0  0  0  0  0  0  0  0  0  0  0
    3.5462   12.0361    0.2219 H   0  0  0  0  0  0  0  0  0  0  0  0
    3.3768   11.1265   -1.3177 H   0  0  0  0  0  0  0  0  0  0  0  0
    4.1209   12.7614   -1.3177 H   0  0  0  0  0  0  0  0  0  0  0  0
    1.6383   13.8482    0.7820 H   0  0  0  0  0  0  0  0  0  0  0  0
    2.9430   14.5171   -0.3516 H   0  0  0  0  0  0  0  0  0  0  0  0
   -0.0553   14.9152   -0.5441 H   0  0  0  0  0  0  0  0  0  0  0  0
    1.2273   16.1424   -0.2021 H   0  0  0  0  0  0  0  0  0  0  0  0
    3.1171   16.1267   -1.5029 H   0  0  0  0  0  0  0  0  0  0  0  0
    3.1880   15.2020   -3.0413 H   0  0  0  0  0  0  0  0  0  0  0  0
    2.6085   16.9022   -3.0413 H   0  0  0  0  0  0  0  0  0  0  0  0
  1  2  1  0
  2  3  1  0
  3  4  1  0
  4  5  1  0
  5  6  1  0
  6  7  1  0
  7  8  1  0
  7  9  1  0
  2 10  1  0
 10 11  1  0
 11 12  1  0
 12 13  1  0
 13 14  1  1
 13 15  1  0
 15 16  1  0
 16 17  1  0
 17 18  2  0
 18 19  1  0
 19 20  1  0
 20 21  1  0
 21 22  1  0
 22 23  1  0
 22 24  1  0
 24 25  1  0
 24 26  1  0
 19 27  1  0
 27 28  1  6
 27 29  1  0
 29 30  1  0
 30 31  1  0
 31 32  1  1
  7  5  1  0
 31 10  1  0
 31 13  1  0
 27 15  1  0
 24 18  1  0
  1 33  1  0
  1 34  1  0
  1 35  1  0
  2 36  1  6
  3 37  1  0
  3 38  1  0
  4 39  1  0
  4 40  1  0
  5 41  1  1
  8 42  1  0
  8 43  1  0
  8 44  1  0
  9 45  1  0
  9 46  1  0
  9 47  1  0
 10 48  1  1
 11 49  1  0
 11 50  1  0
 12 51  1  0
 12 52  1  0
 14 53  1  0
 14 54  1  0
 14 55  1  0
 15 56  1  6
 16 57  1  0
 16 58  1  0
 17 59  1  0
 19 60  1  1
 20 61  1  0
 20 62  1  0
 21 63  1  0
 21 64  1  0
 22 65  1  1
 23 66  1  0
 25 67  1  0
 25 68  1  0
 25 69  1  0
 26 70  1  0
 26 71  1  0
 26 72  1  0
 28 73  1  0
 28 74  1  0
 28 75  1  0
 29 76  1  0
 29 77  1  0
 30 78  1  0
 30 79  1  0
 32 80  1  0
 32 81  1  0
 32 82  1  0
M  END
>  <meeko>  (3) 
{"is_sidechain": [false], "intermolecular_energy": 2.731, "internal_energy": -0.839}

$$$$
EPH_relaxed_0001_pdb2pqr_Repair_126_r2_0001_out
     RDKit          3D

 82 86  0  0  0  0  0  0  0  0999 V2000
   -5.1700    5.9780   -1.7410 C   0  0  0  0  0  0  0  0  0  0  0  0
   -5.4700    7.4700   -1.9070 C   0  0  2  0  0  0  0  0  0  0  0  0
   -5.1970    8.2650   -0.6140 C   0  0  0  0  0  0  0  0  0  0  0  0
   -4.1640    9.3820   -0.7840 C   0  0  0  0  0  0  0  0  0  0  0  0
   -2.7960    8.9410   -0.3610 C   0  0  2  0  0  0  0  0  0  0  0  0
   -2.2400    9.6810    0.7330 O   0  0  0  0  0  0  0  0  0  0  0  0
   -1.5530    9.7970   -0.5240 C   0  0  0  0  0  0  0  0  0  0  0  0
   -1.6210   11.1630   -1.1300 C   0  0  0  0  0  0  0  0  0  0  0  0
   -0.2170    9.1220   -0.5450 C   0  0  0  0  0  0  0  0  0  0  0  0
   -6.9170    7.6640   -2.3420 C   0  0  1  0  0  0  0  0  0  0  0  0
   -7.2390    6.9490   -3.6810 C   0  0  0  0  0  0  0  0  0  0  0  0
   -8.7030    6.4480   -3.5800 C   0  0  0  0  0  0  0  0  0  0  0  0
   -9.2780    7.1700   -2.3390 C   0  0  1  0  0  0  0  0  0  0  0  0
   -9.6670    8.5940   -2.8490 C   0  0  0  0  0  0  0  0  0  0  0  0
  -10.4760    6.4660   -1.6220 C   0  0  2  0  0  0  0  0  0  0  0  0
  -11.7450    6.3070   -2.4770 C   0  0  0  0  0  0  0  0  0  0  0  0
  -12.7200    7.4350   -2.3870 C   0  0  0  0  0  0  0  0  0  0  0  0
  -12.7220    8.3930   -1.4420 C   0  0  0  0  0  0  0  0  0  0  0  0
  -11.7310    8.3480   -0.2720 C   0  0  1  0  0  0  0  0  0  0  0  0
  -12.4840    8.6260    1.0560 C   0  0  0  0  0  0  0  0  0  0  0  0
  -13.2800    9.9270    1.0150 C   0  0  0  0  0  0  0  0  0  0  0  0
  -14.2940    9.9100   -0.1250 C   0  0  2  0  0  0  0  0  0  0  0  0
  -15.2870    8.9190    0.1550 O   0  0  0  0  0  0  0  0  0  0  0  0
  -13.6520    9.6290   -1.5130 C   0  0  0  0  0  0  0  0  0  0  0  0
  -12.8060   10.8500   -1.9510 C   0  0  0  0  0  0  0  0  0  0  0  0
  -14.7980    9.4990   -2.5520 C   0  0  0  0  0  0  0  0  0  0  0  0
  -10.8110    7.0540   -0.1920 C   0  0  1  0  0  0  0  0  0  0  0  0
  -11.5480    5.9250    0.5920 C   0  0  0  0  0  0  0  0  0  0  0  0
   -9.5150    7.3950    0.6340 C   0  0  0  0  0  0  0  0  0  0  0  0
   -8.3240    7.9770   -0.1510 C   0  0  0  0  0  0  0  0  0  0  0  0
   -8.0220    7.1340   -1.3940 C   0  0  2  0  0  0  0  0  0  0  0  0
   -7.6060    5.7030   -0.9120 C   0  0  0  0  0  0  0  0  0  0  0  0
   -5.1203    5.7309   -0.6703 H   0  0  0  0  0  0  0  0  0  0  0  0
   -5.9676    5.3885   -2.2167 H   0  0  0  0  0  0  0  0  0  0  0  0
   -4.2065    5.7426   -2.2167 H   0  0  0  0  0  0  0  0  0  0  0  0
   -4.7936    7.8590   -2.6824 H   0  0  0  0  0  0  0  0  0  0  0  0
   -6.1425    8.7149   -0.2770 H   0  0  0  0  0  0  0  0  0  0  0  0
   -4.7849    7.5552    0.1184 H   0  0  0  0  0  0  0  0  0  0  0  0
   -4.1313    9.6791   -1.8426 H   0  0  0  0  0  0  0  0  0  0  0  0
   -4.4643   10.2266   -0.1465 H   0  0  0  0  0  0  0  0  0  0  0  0
   -3.0182    7.9014   -0.6436 H   0  0  0  0  0  0  0  0  0  0  0  0
   -1.6586   11.9174   -0.3303 H   0  0  0  0  0  0  0  0  0  0  0  0
   -0.7302   11.3327   -1.7526 H   0  0  0  0  0  0  0  0  0  0  0  0
   -2.5243   11.2434   -1.7526 H   0  0  0  0  0  0  0  0  0  0  0  0
    0.1232    8.9501    0.4868 H   0  0  0  0  0  0  0  0  0  0  0  0
   -0.3013    8.1583   -1.0686 H   0  0  0  0  0  0  0  0  0  0  0  0
    0.5088    9.7616   -1.0686 H   0  0  0  0  0  0  0  0  0  0  0  0
   -6.9515    8.7627   -2.3827 H   0  0  0  0  0  0  0  0  0  0  0  0
   -7.1365    7.6526   -4.5203 H   0  0  0  0  0  0  0  0  0  0  0  0
   -6.5468    6.1127   -3.8586 H   0  0  0  0  0  0  0  0  0  0  0  0
   -9.2691    6.7184   -4.4835 H   0  0  0  0  0  0  0  0  0  0  0  0
   -8.7640    5.3533   -3.4911 H   0  0  0  0  0  0  0  0  0  0  0  0
   -9.8476    9.2550   -1.9885 H   0  0  0  0  0  0  0  0  0  0  0  0
   -8.8473    9.0017   -3.4589 H   0  0  0  0  0  0  0  0  0  0  0  0
  -10.5801    8.5283   -3.4589 H   0  0  0  0  0  0  0  0  0  0  0  0
  -10.0924    5.4470   -1.4654 H   0  0  0  0  0  0  0  0  0  0  0  0
  -11.4364    6.2074   -3.5281 H   0  0  0  0  0  0  0  0  0  0  0  0
  -12.2670    5.4214   -2.0855 H   0  0  0  0  0  0  0  0  0  0  0  0
  -13.5025    7.4870   -3.1584 H   0  0  0  0  0  0  0  0  0  0  0  0
  -11.0006    9.1483   -0.4616 H   0  0  0  0  0  0  0  0  0  0  0  0
  -13.1774    7.7942    1.2492 H   0  0  0  0  0  0  0  0  0  0  0  0
  -11.7320    8.7192    1.8534 H   0  0  0  0  0  0  0  0  0  0  0  0
  -13.8129   10.0532    1.9690 H   0  0  0  0  0  0  0  0  0  0  0  0
  -12.5816   10.7610    0.8514 H   0  0  0  0  0  0  0  0  0  0  0  0
  -14.7402   10.9137   -0.1834 H   0  0  0  0  0  0  0  0  0  0  0  0
  -15.2870    8.2850   -0.5830 H   0  0  0  0  0  0  0  0  0  0  0  0
  -12.4387   11.3802   -1.0600 H   0  0  0  0  0  0  0  0  0  0  0  0
  -11.9510   10.5070   -2.5521 H   0  0  0  0  0  0  0  0  0  0  0  0
  -13.4275   11.5301   -2.5521 H   0  0  0  0  0  0  0  0  0  0  0  0
  -15.7584    9.3901   -2.0269 H   0  0  0  0  0  0  0  0  0  0  0  0
  -14.8251   10.3998   -3.1827 H   0  0  0  0  0  0  0  0  0  0  0  0
  -14.6226    8.6150   -3.1827 H   0  0  0  0  0  0  0  0  0  0  0  0
  -11.4363    6.0961    1.6729 H   0  0  0  0  0  0  0  0  0  0  0  0
  -12.6158    5.9323    0.3280 H   0  0  0  0  0  0  0  0  0  0  0  0
  -11.1117    4.9503    0.3280 H   0  0  0  0  0  0  0  0  0  0  0  0
   -9.7951    8.1276    1.4052 H   0  0  0  0  0  0  0  0  0  0  0  0
   -9.1592    6.4295    1.0228 H   0  0  0  0  0  0  0  0  0  0  0  0
   -8.5657    9.0039   -0.4627 H   0  0  0  0  0  0  0  0  0  0  0  0
   -7.4378    7.9709    0.5007 H   0  0  0  0  0  0  0  0  0  0  0  0
   -7.5977    5.6745    0.1876 H   0  0  0  0  0  0  0  0  0  0  0  0
   -8.3265    4.9640   -1.2925 H   0  0  0  0  0  0  0  0  0  0  0  0
   -6.6016    5.4655   -1.2925 H   0  0  0  0  0  0  0  0  0  0  0  0
  1  2  1  0
  2  3  1  0
  3  4  1  0
  4  5  1  0
  5  6  1  0
  6  7  1  0
  7  8  1  0
  7  9  1  0
  2 10  1  0
 10 11  1  0
 11 12  1  0
 12 13  1  0
 13 14  1  6
 13 15  1  0
 15 16  1  0
 16 17  1  0
 17 18  2  0
 18 19  1  0
 19 20  1  0
 20 21  1  0
 21 22  1  0
 22 23  1  0
 22 24  1  0
 24 25  1  0
 24 26  1  0
 19 27  1  0
 27 28  1  1
 27 29  1  0
 29 30  1  0
 30 31  1  0
 31 32  1  1
  7  5  1  0
 31 10  1  0
 31 13  1  0
 27 15  1  0
 24 18  1  0
  1 33  1  0
  1 34  1  0
  1 35  1  0
  2 36  1  6
  3 37  1  0
  3 38  1  0
  4 39  1  0
  4 40  1  0
  5 41  1  1
  8 42  1  0
  8 43  1  0
  8 44  1  0
  9 45  1  0
  9 46  1  0
  9 47  1  0
 10 48  1  6
 11 49  1  0
 11 50  1  0
 12 51  1  0
 12 52  1  0
 14 53  1  0
 14 54  1  0
 14 55  1  0
 15 56  1  1
 16 57  1  0
 16 58  1  0
 17 59  1  0
 19 60  1  6
 20 61  1  0
 20 62  1  0
 21 63  1  0
 21 64  1  0
 22 65  1  6
 23 66  1  0
 25 67  1  0
 25 68  1  0
 25 69  1  0
 26 70  1  0
 26 71  1  0
 26 72  1  0
 28 73  1  0
 28 74  1  0
 28 75  1  0
 29 76  1  0
 29 77  1  0
 30 78  1  0
 30 79  1  0
 32 80  1  0
 32 81  1  0
 32 82  1  0
M  END
>  <meeko>  (4) 
{"is_sidechain": [false], "intermolecular_energy": 2.731, "internal_energy": -0.839}

$$$$
EPH_relaxed_0001_pdb2pqr_Repair_126_r2_0001_out
     RDKit          3D

 82 86  0  0  0  0  0  0  0  0999 V2000
    3.6980   11.5650   -5.1010 C   0  0  0  0  0  0  0  0  0  0  0  0
    2.1800   11.3790   -5.0300 C   0  0  2  0  0  0  0  0  0  0  0  0
    1.5560   11.1540   -6.4220 C   0  0  0  0  0  0  0  0  0  0  0  0
    1.9960   12.1830   -7.4660 C   0  0  0  0  0  0  0  0  0  0  0  0
    0.8870   13.1310   -7.8110 C   0  0  2  0  0  0  0  0  0  0  0  0
    0.6680   13.3110   -9.2160 O   0  0  0  0  0  0  0  0  0  0  0  0
    1.1120   14.4690   -8.4910 C   0  0  0  0  0  0  0  0  0  0  0  0
    2.4840   14.9340   -8.8650 C   0  0  0  0  0  0  0  0  0  0  0  0
    0.0640   15.5290   -8.3490 C   0  0  0  0  0  0  0  0  0  0  0  0
    1.5390   12.5890   -4.3600 C   0  0  1  0  0  0  0  0  0  0  0  0
   -0.0080   12.4790   -4.2830 C   0  0  0  0  0  0  0  0  0  0  0  0
   -0.4380   13.1500   -2.9530 C   0  0  0  0  0  0  0  0  0  0  0  0
    0.8220   13.9100   -2.4750 C   0  0  1  0  0  0  0  0  0  0  0  0
    0.8230   15.2400   -3.2920 C   0  0  0  0  0  0  0  0  0  0  0  0
    0.9250   14.1770   -0.9380 C   0  0  2  0  0  0  0  0  0  0  0  0
   -0.1870   15.0660   -0.3540 C   0  0  0  0  0  0  0  0  0  0  0  0
    0.1060   16.5300   -0.3440 C   0  0  0  0  0  0  0  0  0  0  0  0
    1.3200   17.0860   -0.5190 C   0  0  0  0  0  0  0  0  0  0  0  0
    2.5740   16.2130   -0.6560 C   0  0  1  0  0  0  0  0  0  0  0  0
    3.7000   16.7780    0.2480 C   0  0  0  0  0  0  0  0  0  0  0  0
    3.9830   18.2530   -0.0220 C   0  0  0  0  0  0  0  0  0  0  0  0
    2.7260   19.0960    0.1820 C   0  0  2  0  0  0  0  0  0  0  0  0
    2.3750   19.0710    1.5690 O   0  0  0  0  0  0  0  0  0  0  0  0
    1.5200   18.6140   -0.6720 C   0  0  0  0  0  0  0  0  0  0  0  0
    1.7850   18.9220   -2.1670 C   0  0  0  0  0  0  0  0  0  0  0  0
    0.2820   19.4580   -0.2680 C   0  0  0  0  0  0  0  0  0  0  0  0
    2.3560   14.6510   -0.4570 C   0  0  1  0  0  0  0  0  0  0  0  0
    2.4610   14.2880    1.0560 C   0  0  0  0  0  0  0  0  0  0  0  0
    3.5180   13.8740   -1.1820 C   0  0  0  0  0  0  0  0  0  0  0  0
    3.3060   13.5350   -2.6690 C   0  0  0  0  0  0  0  0  0  0  0  0
    1.9370   12.8840   -2.8930 C   0  0  2  0  0  0  0  0  0  0  0  0
    1.9140   11.5330   -2.1000 C   0  0  0  0  0  0  0  0  0  0  0  0
    4.1093   11.6154   -4.0820 H   0  0  0  0  0  0  0  0  0  0  0  0
    4.1469   10.7151   -5.6360 H   0  0  0  0  0  0  0  0  0  0  0  0
    3.9285   12.4981   -5.6360 H   0  0  0  0  0  0  0  0  0  0  0  0
    1.9849   10.4765   -4.4322 H   0  0  0  0  0  0  0  0  0  0  0  0
    1.8470   10.1539   -6.7757 H   0  0  0  0  0  0  0  0  0  0  0  0
    0.4669   11.2575   -6.3071 H   0  0  0  0  0  0  0  0  0  0  0  0
    2.8443   12.7573   -7.0652 H   0  0  0  0  0  0  0  0  0  0  0  0
    2.2828   11.6430   -8.3804 H   0  0  0  0  0  0  0  0  0  0  0  0
    0.3311   12.8476   -6.9051 H   0  0  0  0  0  0  0  0  0  0  0  0
    3.0658   15.1312   -7.9525 H   0  0  0  0  0  0  0  0  0  0  0  0
    2.9858   14.1557   -9.4587 H   0  0  0  0  0  0  0  0  0  0  0  0
    2.4092   15.8570   -9.4587 H   0  0  0  0  0  0  0  0  0  0  0  0
   -0.1235   15.7186   -7.2818 H   0  0  0  0  0  0  0  0  0  0  0  0
    0.4115   16.4550   -8.8304 H   0  0  0  0  0  0  0  0  0  0  0  0
   -0.8659   15.1921   -8.8304 H   0  0  0  0  0  0  0  0  0  0  0  0
    1.9156   13.3854   -5.0187 H   0  0  0  0  0  0  0  0  0  0  0  0
   -0.4678   12.9996   -5.1360 H   0  0  0  0  0  0  0  0  0  0  0  0
   -0.3317   11.4283   -4.3182 H   0  0  0  0  0  0  0  0  0  0  0  0
   -1.2717   13.8475   -3.1216 H   0  0  0  0  0  0  0  0  0  0  0  0
   -0.7907   12.4183   -2.2112 H   0  0  0  0  0  0  0  0  0  0  0  0
    0.8236   16.0953   -2.6002 H   0  0  0  0  0  0  0  0  0  0  0  0
    1.7212   15.2803   -3.9258 H   0  0  0  0  0  0  0  0  0  0  0  0
   -0.0751   15.2817   -3.9258 H   0  0  0  0  0  0  0  0  0  0  0  0
    0.7608   13.1756   -0.5133 H   0  0  0  0  0  0  0  0  0  0  0  0
   -1.0980   14.9058   -0.9493 H   0  0  0  0  0  0  0  0  0  0  0  0
   -0.2916   14.7694    0.7001 H   0  0  0  0  0  0  0  0  0  0  0  0
   -0.7413   17.2120   -0.1798 H   0  0  0  0  0  0  0  0  0  0  0  0
    2.8763   16.2781   -1.7116 H   0  0  0  0  0  0  0  0  0  0  0  0
    3.3985   16.6636    1.2997 H   0  0  0  0  0  0  0  0  0  0  0  0
    4.6193   16.2159    0.0267 H   0  0  0  0  0  0  0  0  0  0  0  0
    4.7660   18.6015    0.6675 H   0  0  0  0  0  0  0  0  0  0  0  0
    4.3133   18.3619   -1.0656 H   0  0  0  0  0  0  0  0  0  0  0  0
    2.9563   20.1188   -0.1509 H   0  0  0  0  0  0  0  0  0  0  0  0
    1.7900   19.8290    1.7380 H   0  0  0  0  0  0  0  0  0  0  0  0
    2.5004   19.7535   -2.2488 H   0  0  0  0  0  0  0  0  0  0  0  0
    2.2022   18.0298   -2.6568 H   0  0  0  0  0  0  0  0  0  0  0  0
    0.8405   19.2014   -2.6568 H   0  0  0  0  0  0  0  0  0  0  0  0
    0.2126   19.5053    0.8288 H   0  0  0  0  0  0  0  0  0  0  0  0
    0.3839   20.4756   -0.6732 H   0  0  0  0  0  0  0  0  0  0  0  0
   -0.6280   18.9914   -0.6732 H   0  0  0  0  0  0  0  0  0  0  0  0
    2.2061   15.1692    1.6630 H   0  0  0  0  0  0  0  0  0  0  0  0
    1.7627   13.4698    1.2861 H   0  0  0  0  0  0  0  0  0  0  0  0
    3.4883   13.9689    1.2861 H   0  0  0  0  0  0  0  0  0  0  0  0
    4.4267   14.4895   -1.1075 H   0  0  0  0  0  0  0  0  0  0  0  0
    3.5759   12.9016   -0.6711 H   0  0  0  0  0  0  0  0  0  0  0  0
    3.3658   14.4601   -3.2611 H   0  0  0  0  0  0  0  0  0  0  0  0
    4.0869   12.8264   -2.9822 H   0  0  0  0  0  0  0  0  0  0  0  0
    1.9176   11.7417   -1.0200 H   0  0  0  0  0  0  0  0  0  0  0  0
    1.0061   10.9697   -2.3616 H   0  0  0  0  0  0  0  0  0  0  0  0
    2.8022   10.9391   -2.3616 H   0  0  0  0  0  0  0  0  0  0  0  0
  1  2  1  0
  2  3  1  0
  3  4  1  0
  4  5  1  0
  5  6  1  0
  6  7  1  0
  7  8  1  0
  7  9  1  0
  2 10  1  0
 10 11  1  0
 11 12  1  0
 12 13  1  0
 13 14  1  6
 13 15  1  0
 15 16  1  0
 16 17  1  0
 17 18  2  0
 18 19  1  0
 19 20  1  0
 20 21  1  0
 21 22  1  0
 22 23  1  0
 22 24  1  0
 24 25  1  0
 24 26  1  0
 19 27  1  0
 27 28  1  1
 27 29  1  0
 29 30  1  0
 30 31  1  0
 31 32  1  1
  7  5  1  0
 31 10  1  0
 31 13  1  0
 27 15  1  0
 24 18  1  0
  1 33  1  0
  1 34  1  0
  1 35  1  0
  2 36  1  1
  3 37  1  0
  3 38  1  0
  4 39  1  0
  4 40  1  0
  5 41  1  1
  8 42  1  0
  8 43  1  0
  8 44  1  0
  9 45  1  0
  9 46  1  0
  9 47  1  0
 10 48  1  6
 11 49  1  0
 11 50  1  0
 12 51  1  0
 12 52  1  0
 14 53  1  0
 14 54  1  0
 14 55  1  0
 15 56  1  1
 16 57  1  0
 16 58  1  0
 17 59  1  0
 19 60  1  6
 20 61  1  0
 20 62  1  0
 21 63  1  0
 21 64  1  0
 22 65  1  6
 23 66  1  0
 25 67  1  0
 25 68  1  0
 25 69  1  0
 26 70  1  0
 26 71  1  0
 26 72  1  0
 28 73  1  0
 28 74  1  0
 28 75  1  0
 29 76  1  0
 29 77  1  0
 30 78  1  0
 30 79  1  0
 32 80  1  0
 32 81  1  0
 32 82  1  0
M  END
>  <meeko>  (5) 
{"is_sidechain": [false], "intermolecular_energy": 2.731, "internal_energy": -0.839}

$$$$
EPH_relaxed_0001_pdb2pqr_Repair_126_r2_0001_out
     RDKit          3D

 82 86  0  0  0  0  0  0  0  0999 V2000
    2.7100   15.9930   -8.3570 C   0  0  0  0  0  0  0  0  0  0  0  0
    2.4970   14.5740   -7.8230 C   0  0  2  0  0  0  0  0  0  0  0  0
    1.5550   13.7500   -8.7240 C   0  0  0  0  0  0  0  0  0  0  0  0
    0.7610   14.5970   -9.7210 C   0  0  0  0  0  0  0  0  0  0  0  0
    1.3900   14.5870  -11.0820 C   0  0  2  0  0  0  0  0  0  0  0  0
    2.7600   15.0080  -11.1110 O   0  0  0  0  0  0  0  0  0  0  0  0
    1.8250   15.8440  -11.8120 C   0  0  0  0  0  0  0  0  0  0  0  0
    1.6470   17.2000  -11.2040 C   0  0  0  0  0  0  0  0  0  0  0  0
    1.9690   15.7930  -13.3010 C   0  0  0  0  0  0  0  0  0  0  0  0
    1.9440   14.6300   -6.4040 C   0  0  1  0  0  0  0  0  0  0  0  0
    0.6310   15.4500   -6.3060 C   0  0  0  0  0  0  0  0  0  0  0  0
   -0.2460   14.7650   -5.2270 C   0  0  0  0  0  0  0  0  0  0  0  0
    0.7130   13.7850   -4.5110 C   0  0  1  0  0  0  0  0  0  0  0  0
    1.5000   14.6670   -3.4910 C   0  0  0  0  0  0  0  0  0  0  0  0
    0.0480   12.5520   -3.8150 C   0  0  2  0  0  0  0  0  0  0  0  0
   -0.9220   12.8940   -2.6710 C   0  0  0  0  0  0  0  0  0  0  0  0
   -0.3060   12.9730   -1.3140 C   0  0  0  0  0  0  0  0  0  0  0  0
    0.9100   12.5030   -0.9780 C   0  0  0  0  0  0  0  0  0  0  0  0
    1.7620   11.7270   -1.9920 C   0  0  1  0  0  0  0  0  0  0  0  0
    2.3350   10.4530   -1.3190 C   0  0  0  0  0  0  0  0  0  0  0  0
    3.0960   10.7620   -0.0330 C   0  0  0  0  0  0  0  0  0  0  0  0
    2.1990   11.4810    0.9720 C   0  0  2  0  0  0  0  0  0  0  0  0
    1.1710   10.5810    1.3990 O   0  0  0  0  0  0  0  0  0  0  0  0
    1.5570   12.7760    0.4020 C   0  0  0  0  0  0  0  0  0  0  0  0
    2.6460   13.8620    0.2220 C   0  0  0  0  0  0  0  0  0  0  0  0
    0.5680   13.3260    1.4650 C   0  0  0  0  0  0  0  0  0  0  0  0
    1.0690   11.4210   -3.3890 C   0  0  1  0  0  0  0  0  0  0  0  0
    0.2520   10.0960   -3.2980 C   0  0  0  0  0  0  0  0  0  0  0  0
    2.1840   11.1810   -4.4740 C   0  0  0  0  0  0  0  0  0  0  0  0
    2.7150   12.4250   -5.2110 C   0  0  0  0  0  0  0  0  0  0  0  0
    1.5620   13.2850   -5.7360 C   0  0  2  0  0  0  0  0  0  0  0  0
    0.7650   12.4320   -6.7810 C   0  0  0  0  0  0  0  0  0  0  0  0
    2.8147   16.6905   -7.5129 H   0  0  0  0  0  0  0  0  0  0  0  0
    3.6224   16.0207   -8.9709 H   0  0  0  0  0  0  0  0  0  0  0  0
    1.8460   16.2873   -8.9709 H   0  0  0  0  0  0  0  0  0  0  0  0
    3.4752   14.0709   -7.8207 H   0  0  0  0  0  0  0  0  0  0  0  0
    2.1602   13.0254   -9.2885 H   0  0  0  0  0  0  0  0  0  0  0  0
    0.8238   13.2615   -8.0631 H   0  0  0  0  0  0  0  0  0  0  0  0
   -0.2598   14.1944   -9.7972 H   0  0  0  0  0  0  0  0  0  0  0  0
    0.7494   15.6347   -9.3563 H   0  0  0  0  0  0  0  0  0  0  0  0
    0.7678   13.7335  -11.3893 H   0  0  0  0  0  0  0  0  0  0  0  0
    1.6582   17.1145  -10.1074 H   0  0  0  0  0  0  0  0  0  0  0  0
    2.4665   17.8580  -11.5289 H   0  0  0  0  0  0  0  0  0  0  0  0
    0.6855   17.6242  -11.5289 H   0  0  0  0  0  0  0  0  0  0  0  0
    2.9768   15.4361  -13.5599 H   0  0  0  0  0  0  0  0  0  0  0  0
    1.2182   15.1061  -13.7187 H   0  0  0  0  0  0  0  0  0  0  0  0
    1.8179   16.7993  -13.7187 H   0  0  0  0  0  0  0  0  0  0  0  0
    2.8074   15.0747   -5.8874 H   0  0  0  0  0  0  0  0  0  0  0  0
    0.8530   16.4863   -6.0115 H   0  0  0  0  0  0  0  0  0  0  0  0
    0.1118   15.4806   -7.2753 H   0  0  0  0  0  0  0  0  0  0  0  0
   -0.6420   15.5080   -4.5191 H   0  0  0  0  0  0  0  0  0  0  0  0
   -1.1183   14.2539   -5.6605 H   0  0  0  0  0  0  0  0  0  0  0  0
    1.2337   14.3686   -2.4663 H   0  0  0  0  0  0  0  0  0  0  0  0
    2.5805   14.5289   -3.6440 H   0  0  0  0  0  0  0  0  0  0  0  0
    1.2402   15.7249   -3.6440 H   0  0  0  0  0  0  0  0  0  0  0  0
   -0.5749   12.1333   -4.6192 H   0  0  0  0  0  0  0  0  0  0  0  0
   -1.3796   13.8692   -2.8937 H   0  0  0  0  0  0  0  0  0  0  0  0
   -1.6457   12.0667   -2.6286 H   0  0  0  0  0  0  0  0  0  0  0  0
   -0.8956   13.4563   -0.5210 H   0  0  0  0  0  0  0  0  0  0  0  0
    2.5842   12.3998   -2.2771 H   0  0  0  0  0  0  0  0  0  0  0  0
    1.5022    9.7748   -1.0815 H   0  0  0  0  0  0  0  0  0  0  0  0
    3.0435    9.9932   -2.0237 H   0  0  0  0  0  0  0  0  0  0  0  0
    3.4509    9.8200    0.4106 H   0  0  0  0  0  0  0  0  0  0  0  0
    3.9459   11.4165   -0.2764 H   0  0  0  0  0  0  0  0  0  0  0  0
    2.8315   11.7905    1.8171 H   0  0  0  0  0  0  0  0  0  0  0  0
    0.3330   10.8890    1.0150 H   0  0  0  0  0  0  0  0  0  0  0  0
    2.9892   14.2043    1.2094 H   0  0  0  0  0  0  0  0  0  0  0  0
    3.4954   13.4406   -0.3357 H   0  0  0  0  0  0  0  0  0  0  0  0
    2.2270   14.7126   -0.3357 H   0  0  0  0  0  0  0  0  0  0  0  0
    0.9550   13.1108    2.4719 H   0  0  0  0  0  0  0  0  0  0  0  0
    0.4607   14.4134    1.3381 H   0  0  0  0  0  0  0  0  0  0  0  0
   -0.4124   12.8435    1.3381 H   0  0  0  0  0  0  0  0  0  0  0  0
    0.0917    9.8359   -2.2413 H   0  0  0  0  0  0  0  0  0  0  0  0
   -0.7205   10.2301   -3.7943 H   0  0  0  0  0  0  0  0  0  0  0  0
    0.8085    9.2873   -3.7943 H   0  0  0  0  0  0  0  0  0  0  0  0
    3.0378   10.7011   -3.9733 H   0  0  0  0  0  0  0  0  0  0  0  0
    1.7024   10.5696   -5.2513 H   0  0  0  0  0  0  0  0  0  0  0  0
    3.3224   13.0231   -4.5158 H   0  0  0  0  0  0  0  0  0  0  0  0
    3.3226   12.0934   -6.0659 H   0  0  0  0  0  0  0  0  0  0  0  0
    0.1062   11.7270   -6.2528 H   0  0  0  0  0  0  0  0  0  0  0  0
    0.1583   13.0983   -7.4119 H   0  0  0  0  0  0  0  0  0  0  0  0
    1.4709   11.8719   -7.4119 H   0  0  0  0  0  0  0  0  0  0  0  0
  1  2  1  0
  2  3  1  0
  3  4  1  0
  4  5  1  0
  5  6  1  0
  6  7  1  0
  7  8  1  0
  7  9  1  0
  2 10  1  0
 10 11  1  0
 11 12  1  0
 12 13  1  0
 13 14  1  1
 13 15  1  0
 15 16  1  0
 16 17  1  0
 17 18  2  0
 18 19  1  0
 19 20  1  0
 20 21  1  0
 21 22  1  0
 22 23  1  0
 22 24  1  0
 24 25  1  0
 24 26  1  0
 19 27  1  0
 27 28  1  1
 27 29  1  0
 29 30  1  0
 30 31  1  0
 31 32  1  6
  7  5  1  0
 31 10  1  0
 31 13  1  0
 27 15  1  0
 24 18  1  0
  1 33  1  0
  1 34  1  0
  1 35  1  0
  2 36  1  1
  3 37  1  0
  3 38  1  0
  4 39  1  0
  4 40  1  0
  5 41  1  6
  8 42  1  0
  8 43  1  0
  8 44  1  0
  9 45  1  0
  9 46  1  0
  9 47  1  0
 10 48  1  1
 11 49  1  0
 11 50  1  0
 12 51  1  0
 12 52  1  0
 14 53  1  0
 14 54  1  0
 14 55  1  0
 15 56  1  6
 16 57  1  0
 16 58  1  0
 17 59  1  0
 19 60  1  6
 20 61  1  0
 20 62  1  0
 21 63  1  0
 21 64  1  0
 22 65  1  1
 23 66  1  0
 25 67  1  0
 25 68  1  0
 25 69  1  0
 26 70  1  0
 26 71  1  0
 26 72  1  0
 28 73  1  0
 28 74  1  0
 28 75  1  0
 29 76  1  0
 29 77  1  0
 30 78  1  0
 30 79  1  0
 32 80  1  0
 32 81  1  0
 32 82  1  0
M  END
>  <meeko>  (6) 
{"is_sidechain": [false], "intermolecular_energy": 2.731, "internal_energy": -0.839}

$$$$
EPH_relaxed_0001_pdb2pqr_Repair_126_r2_0001_out
     RDKit          3D

 82 86  0  0  0  0  0  0  0  0999 V2000
    4.1830   11.4930   -4.3660 C   0  0  0  0  0  0  0  0  0  0  0  0
    2.7840   12.0890   -4.5470 C   0  0  2  0  0  0  0  0  0  0  0  0
    1.6950   11.2310   -3.8730 C   0  0  0  0  0  0  0  0  0  0  0  0
    2.1700   10.5200   -2.6040 C   0  0  0  0  0  0  0  0  0  0  0  0
    2.0950   11.4160   -1.4050 C   0  0  2  0  0  0  0  0  0  0  0  0
    2.8020   10.9360   -0.2530 O   0  0  0  0  0  0  0  0  0  0  0  0
    1.3750   11.0410   -0.1230 C   0  0  0  0  0  0  0  0  0  0  0  0
    0.6790    9.7240    0.0240 C   0  0  0  0  0  0  0  0  0  0  0  0
    0.9320   12.1360    0.7960 C   0  0  0  0  0  0  0  0  0  0  0  0
    2.4770   12.2500   -6.0320 C   0  0  1  0  0  0  0  0  0  0  0  0
    1.7010   11.0390   -6.6150 C   0  0  0  0  0  0  0  0  0  0  0  0
    0.7320   11.6030   -7.6860 C   0  0  0  0  0  0  0  0  0  0  0  0
    1.2100   13.0560   -7.9190 C   0  0  1  0  0  0  0  0  0  0  0  0
    2.4190   12.9270   -8.8990 C   0  0  0  0  0  0  0  0  0  0  0  0
    0.1370   14.0590   -8.4540 C   0  0  2  0  0  0  0  0  0  0  0  0
   -0.4400   13.7200   -9.8400 C   0  0  0  0  0  0  0  0  0  0  0  0
    0.2890   14.3180  -10.9980 C   0  0  0  0  0  0  0  0  0  0  0  0
    1.1860   15.3190  -10.9250 C   0  0  0  0  0  0  0  0  0  0  0  0
    1.4740   16.0230   -9.5930 C   0  0  1  0  0  0  0  0  0  0  0  0
    1.4730   17.5600   -9.8080 C   0  0  0  0  0  0  0  0  0  0  0  0
    2.4260   17.9960  -10.9170 C   0  0  0  0  0  0  0  0  0  0  0  0
    2.0720   17.3190  -12.2380 C   0  0  2  0  0  0  0  0  0  0  0  0
    0.8000   17.8060  -12.6790 O   0  0  0  0  0  0  0  0  0  0  0  0
    2.0320   15.7680  -12.1420 C   0  0  0  0  0  0  0  0  0  0  0  0
    3.4700   15.2210  -11.9620 C   0  0  0  0  0  0  0  0  0  0  0  0
    1.5250   15.2180  -13.5020 C   0  0  0  0  0  0  0  0  0  0  0  0
    0.5700   15.5790   -8.3640 C   0  0  1  0  0  0  0  0  0  0  0  0
   -0.7460   16.4150   -8.3420 C   0  0  0  0  0  0  0  0  0  0  0  0
    1.3270   15.9070   -7.0230 C   0  0  0  0  0  0  0  0  0  0  0  0
    2.2830   14.8260   -6.4830 C   0  0  0  0  0  0  0  0  0  0  0  0
    1.5980   13.4560   -6.4490 C   0  0  2  0  0  0  0  0  0  0  0  0
    0.3910   13.5480   -5.4540 C   0  0  0  0  0  0  0  0  0  0  0  0
    4.4052   11.3983   -3.2928 H   0  0  0  0  0  0  0  0  0  0  0  0
    4.2223   10.5000   -4.8376 H   0  0  0  0  0  0  0  0  0  0  0  0
    4.9264   12.1526   -4.8376 H   0  0  0  0  0  0  0  0  0  0  0  0
    2.7772   13.0736   -4.0567 H   0  0  0  0  0  0  0  0  0  0  0  0
    0.8511   11.8854   -3.6093 H   0  0  0  0  0  0  0  0  0  0  0  0
    1.4108   10.4490   -4.5925 H   0  0  0  0  0  0  0  0  0  0  0  0
    1.5352    9.6386   -2.4305 H   0  0  0  0  0  0  0  0  0  0  0  0
    3.2205   10.2273   -2.7479 H   0  0  0  0  0  0  0  0  0  0  0  0
    2.0432   12.3082   -2.0463 H   0  0  0  0  0  0  0  0  0  0  0  0
    0.5561    9.4914    1.0921 H   0  0  0  0  0  0  0  0  0  0  0  0
   -0.3094    9.7760   -0.4560 H   0  0  0  0  0  0  0  0  0  0  0  0
    1.2788    8.9367   -0.4560 H   0  0  0  0  0  0  0  0  0  0  0  0
    1.0623   11.8139    1.8397 H   0  0  0  0  0  0  0  0  0  0  0  0
    1.5366   13.0363    0.6119 H   0  0  0  0  0  0  0  0  0  0  0  0
   -0.1285   12.3626    0.6119 H   0  0  0  0  0  0  0  0  0  0  0  0
    3.4984   12.3769   -6.4201 H   0  0  0  0  0  0  0  0  0  0  0  0
    2.4012   10.3263   -7.0753 H   0  0  0  0  0  0  0  0  0  0  0  0
    1.1507   10.5053   -5.8261 H   0  0  0  0  0  0  0  0  0  0  0  0
    0.7982   11.0187   -8.6156 H   0  0  0  0  0  0  0  0  0  0  0  0
   -0.3187   11.5563   -7.3636 H   0  0  0  0  0  0  0  0  0  0  0  0
    3.3500   12.8277   -8.3216 H   0  0  0  0  0  0  0  0  0  0  0  0
    2.2840   12.0382   -9.5328 H   0  0  0  0  0  0  0  0  0  0  0  0
    2.4746   13.8243   -9.5328 H   0  0  0  0  0  0  0  0  0  0  0  0
   -0.6915   13.9198   -7.7439 H   0  0  0  0  0  0  0  0  0  0  0  0
   -0.4242   12.6263   -9.9565 H   0  0  0  0  0  0  0  0  0  0  0  0
   -1.4519   14.1508   -9.8621 H   0  0  0  0  0  0  0  0  0  0  0  0
    0.0749   13.9056  -11.9950 H   0  0  0  0  0  0  0  0  0  0  0  0
    2.4758   15.6897   -9.2842 H   0  0  0  0  0  0  0  0  0  0  0  0
    0.4540   17.8783  -10.0733 H   0  0  0  0  0  0  0  0  0  0  0  0
    1.8127   18.0284   -8.8724 H   0  0  0  0  0  0  0  0  0  0  0  0
    2.3579   19.0868  -11.0419 H   0  0  0  0  0  0  0  0  0  0  0  0
    3.4486   17.7040  -10.6359 H   0  0  0  0  0  0  0  0  0  0  0  0
    2.8653   17.5678  -12.9582 H   0  0  0  0  0  0  0  0  0  0  0  0
    0.1850   17.0530  -12.6930 H   0  0  0  0  0  0  0  0  0  0  0  0
    3.6977   15.1344  -10.8893 H   0  0  0  0  0  0  0  0  0  0  0  0
    3.5474   14.2306  -12.4344 H   0  0  0  0  0  0  0  0  0  0  0  0
    4.1860   15.9096  -12.4344 H   0  0  0  0  0  0  0  0  0  0  0  0
    0.7893   14.4199  -13.3235 H   0  0  0  0  0  0  0  0  0  0  0  0
    1.0528   16.0309  -14.0732 H   0  0  0  0  0  0  0  0  0  0  0  0
    2.3736   14.8134  -14.0732 H   0  0  0  0  0  0  0  0  0  0  0  0
   -1.0431   16.6037   -7.2998 H   0  0  0  0  0  0  0  0  0  0  0  0
   -0.5800   17.3736   -8.8553 H   0  0  0  0  0  0  0  0  0  0  0  0
   -1.5432   15.8574   -8.8553 H   0  0  0  0  0  0  0  0  0  0  0  0
    1.9170   16.8205   -7.1887 H   0  0  0  0  0  0  0  0  0  0  0  0
    0.5380   15.9998   -6.2622 H   0  0  0  0  0  0  0  0  0  0  0  0
    3.1676   14.7700   -7.1344 H   0  0  0  0  0  0  0  0  0  0  0  0
    2.5762   15.0972   -5.4581 H   0  0  0  0  0  0  0  0  0  0  0  0
    0.7652   13.5195   -4.4200 H   0  0  0  0  0  0  0  0  0  0  0  0
   -0.1515   14.4901   -5.6218 H   0  0  0  0  0  0  0  0  0  0  0  0
   -0.2880   12.6990   -5.6218 H   0  0  0  0  0  0  0  0  0  0  0  0
  1  2  1  0
  2  3  1  0
  3  4  1  0
  4  5  1  0
  5  6  1  0
  6  7  1  0
  7  8  1  0
  7  9  1  0
  2 10  1  0
 10 11  1  0
 11 12  1  0
 12 13  1  0
 13 14  1  6
 13 15  1  0
 15 16  1  0
 16 17  1  0
 17 18  2  0
 18 19  1  0
 19 20  1  0
 20 21  1  0
 21 22  1  0
 22 23  1  0
 22 24  1  0
 24 25  1  0
 24 26  1  0
 19 27  1  0
 27 28  1  1
 27 29  1  0
 29 30  1  0
 30 31  1  0
 31 32  1  1
  7  5  1  0
 31 10  1  0
 31 13  1  0
 27 15  1  0
 24 18  1  0
  1 33  1  0
  1 34  1  0
  1 35  1  0
  2 36  1  1
  3 37  1  0
  3 38  1  0
  4 39  1  0
  4 40  1  0
  5 41  1  6
  8 42  1  0
  8 43  1  0
  8 44  1  0
  9 45  1  0
  9 46  1  0
  9 47  1  0
 10 48  1  6
 11 49  1  0
 11 50  1  0
 12 51  1  0
 12 52  1  0
 14 53  1  0
 14 54  1  0
 14 55  1  0
 15 56  1  1
 16 57  1  0
 16 58  1  0
 17 59  1  0
 19 60  1  1
 20 61  1  0
 20 62  1  0
 21 63  1  0
 21 64  1  0
 22 65  1  6
 23 66  1  0
 25 67  1  0
 25 68  1  0
 25 69  1  0
 26 70  1  0
 26 71  1  0
 26 72  1  0
 28 73  1  0
 28 74  1  0
 28 75  1  0
 29 76  1  0
 29 77  1  0
 30 78  1  0
 30 79  1  0
 32 80  1  0
 32 81  1  0
 32 82  1  0
M  END
>  <meeko>  (7) 
{"is_sidechain": [false], "intermolecular_energy": 2.731, "internal_energy": -0.839}

$$$$
EPH_relaxed_0001_pdb2pqr_Repair_126_r2_0001_out
     RDKit          3D

 82 86  0  0  0  0  0  0  0  0999 V2000
   -0.9610    8.3260   -0.8640 C   0  0  0  0  0  0  0  0  0  0  0  0
   -1.4010    9.5690   -0.0850 C   0  0  2  0  0  0  0  0  0  0  0  0
   -2.8870    9.5030    0.3220 C   0  0  0  0  0  0  0  0  0  0  0  0
   -3.8460    9.3870   -0.8660 C   0  0  0  0  0  0  0  0  0  0  0  0
   -4.6170    8.1020   -0.8320 C   0  0  2  0  0  0  0  0  0  0  0  0
   -4.6950    7.4170   -2.0890 O   0  0  0  0  0  0  0  0  0  0  0  0
   -5.9370    7.9000   -1.5510 C   0  0  0  0  0  0  0  0  0  0  0  0
   -6.5640    8.9950   -2.3550 C   0  0  0  0  0  0  0  0  0  0  0  0
   -6.8510    6.8130   -1.0770 C   0  0  0  0  0  0  0  0  0  0  0  0
   -1.1430   10.8210   -0.9150 C   0  0  1  0  0  0  0  0  0  0  0  0
   -1.2450   12.1240   -0.0790 C   0  0  0  0  0  0  0  0  0  0  0  0
   -0.1920   13.1070   -0.6510 C   0  0  0  0  0  0  0  0  0  0  0  0
    0.2440   12.4730   -1.9930 C   0  0  1  0  0  0  0  0  0  0  0  0
   -0.8700   12.8760   -3.0090 C   0  0  0  0  0  0  0  0  0  0  0  0
    1.6670   12.8630   -2.5110 C   0  0  2  0  0  0  0  0  0  0  0  0
    1.8610   14.3570   -2.8220 C   0  0  0  0  0  0  0  0  0  0  0  0
    1.5460   14.7630   -4.2240 C   0  0  0  0  0  0  0  0  0  0  0  0
    1.4000   13.9240   -5.2670 C   0  0  0  0  0  0  0  0  0  0  0  0
    1.6500   12.4180   -5.1070 C   0  0  1  0  0  0  0  0  0  0  0  0
    2.5260   11.9120   -6.2830 C   0  0  0  0  0  0  0  0  0  0  0  0
    1.9390   12.2650   -7.6460 C   0  0  0  0  0  0  0  0  0  0  0  0
    1.7600   13.7740   -7.7880 C   0  0  2  0  0  0  0  0  0  0  0  0
    3.0510   14.3910   -7.8100 O   0  0  0  0  0  0  0  0  0  0  0  0
    0.9010   14.3990   -6.6540 C   0  0  0  0  0  0  0  0  0  0  0  0
   -0.5750   13.9580   -6.8160 C   0  0  0  0  0  0  0  0  0  0  0  0
    0.9160   15.9400   -6.8370 C   0  0  0  0  0  0  0  0  0  0  0  0
    2.1990   11.9530   -3.6910 C   0  0  1  0  0  0  0  0  0  0  0  0
    3.7550   12.0550   -3.6640 C   0  0  0  0  0  0  0  0  0  0  0  0
    1.8500   10.4320   -3.4780 C   0  0  0  0  0  0  0  0  0  0  0  0
    0.4780   10.1160   -2.8520 C   0  0  0  0  0  0  0  0  0  0  0  0
    0.2450   10.9530   -1.5910 C   0  0  2  0  0  0  0  0  0  0  0  0
    1.3380   10.5530   -0.5420 C   0  0  0  0  0  0  0  0  0  0  0  0
   -0.6796    7.5311   -0.1576 H   0  0  0  0  0  0  0  0  0  0  0  0
   -1.7903    7.9773   -1.4970 H   0  0  0  0  0  0  0  0  0  0  0  0
   -0.0970    8.5767   -1.4970 H   0  0  0  0  0  0  0  0  0  0  0  0
   -0.8069    9.6076    0.8399 H   0  0  0  0  0  0  0  0  0  0  0  0
   -3.0307    8.6267    0.9711 H   0  0  0  0  0  0  0  0  0  0  0  0
   -3.1223   10.4477    0.8340 H   0  0  0  0  0  0  0  0  0  0  0  0
   -4.5539   10.2285   -0.8363 H   0  0  0  0  0  0  0  0  0  0  0  0
   -3.2506    9.4055   -1.7907 H   0  0  0  0  0  0  0  0  0  0  0  0
   -4.3066    7.9157    0.2067 H   0  0  0  0  0  0  0  0  0  0  0  0
   -6.9946    9.7470   -1.6774 H   0  0  0  0  0  0  0  0  0  0  0  0
   -5.7998    9.4678   -2.9894 H   0  0  0  0  0  0  0  0  0  0  0  0
   -7.3586    8.5752   -2.9894 H   0  0  0  0  0  0  0  0  0  0  0  0
   -6.8635    6.7981    0.0228 H   0  0  0  0  0  0  0  0  0  0  0  0
   -7.8679    6.9992   -1.4528 H   0  0  0  0  0  0  0  0  0  0  0  0
   -6.4931    5.8431   -1.4528 H   0  0  0  0  0  0  0  0  0  0  0  0
   -1.9240   10.6986   -1.6799 H   0  0  0  0  0  0  0  0  0  0  0  0
   -2.2533   12.5542   -0.1699 H   0  0  0  0  0  0  0  0  0  0  0  0
   -1.0604   11.9244    0.9869 H   0  0  0  0  0  0  0  0  0  0  0  0
   -0.6366   14.0994   -0.8165 H   0  0  0  0  0  0  0  0  0  0  0  0
    0.6550   13.2569    0.0346 H   0  0  0  0  0  0  0  0  0  0  0  0
   -1.7666   13.2004   -2.4605 H   0  0  0  0  0  0  0  0  0  0  0  0
   -0.5088   13.7004   -3.6413 H   0  0  0  0  0  0  0  0  0  0  0  0
   -1.1198   12.0113   -3.6413 H   0  0  0  0  0  0  0  0  0  0  0  0
    2.3015   12.6551   -1.6368 H   0  0  0  0  0  0  0  0  0  0  0  0
    1.2098   14.9320   -2.1472 H   0  0  0  0  0  0  0  0  0  0  0  0
    2.9326   14.5607   -2.6798 H   0  0  0  0  0  0  0  0  0  0  0  0
    1.4228   15.8381   -4.4214 H   0  0  0  0  0  0  0  0  0  0  0  0
    0.6607   11.9387   -5.1456 H   0  0  0  0  0  0  0  0  0  0  0  0
    3.5238   12.3676   -6.2005 H   0  0  0  0  0  0  0  0  0  0  0  0
    2.5739   10.8152   -6.2148 H   0  0  0  0  0  0  0  0  0  0  0  0
    2.6179   11.9072   -8.4341 H   0  0  0  0  0  0  0  0  0  0  0  0
    0.9541   11.7841   -7.7396 H   0  0  0  0  0  0  0  0  0  0  0  0
    1.2171   13.9547   -8.7275 H   0  0  0  0  0  0  0  0  0  0  0  0
    3.4330   14.3060   -6.9200 H   0  0  0  0  0  0  0  0  0  0  0  0
   -1.0283   13.8226   -5.8229 H   0  0  0  0  0  0  0  0  0  0  0  0
   -1.1296   14.7297   -7.3701 H   0  0  0  0  0  0  0  0  0  0  0  0
   -0.6153   13.0086   -7.3701 H   0  0  0  0  0  0  0  0  0  0  0  0
    0.9207   16.4264   -5.8504 H   0  0  0  0  0  0  0  0  0  0  0  0
    1.8171   16.2342   -7.3952 H   0  0  0  0  0  0  0  0  0  0  0  0
    0.0208   16.2517   -7.3952 H   0  0  0  0  0  0  0  0  0  0  0  0
    4.1029   12.0778   -2.6207 H   0  0  0  0  0  0  0  0  0  0  0  0
    4.1885   11.1833   -4.1761 H   0  0  0  0  0  0  0  0  0  0  0  0
    4.0710   12.9758   -4.1761 H   0  0  0  0  0  0  0  0  0  0  0  0
    1.8884    9.9407   -4.4614 H   0  0  0  0  0  0  0  0  0  0  0  0
    2.5898   10.0656   -2.7510 H   0  0  0  0  0  0  0  0  0  0  0  0
   -0.3118   10.3406   -3.5840 H   0  0  0  0  0  0  0  0  0  0  0  0
    0.4554    9.0515   -2.5755 H   0  0  0  0  0  0  0  0  0  0  0  0
    0.9417   10.6980    0.4738 H   0  0  0  0  0  0  0  0  0  0  0  0
    1.6111    9.4966   -0.6817 H   0  0  0  0  0  0  0  0  0  0  0  0
    2.2285   11.1835   -0.6817 H   0  0  0  0  0  0  0  0  0  0  0  0
  1  2  1  0
  2  3  1  0
  3  4  1  0
  4  5  1  0
  5  6  1  0
  6  7  1  0
  7  8  1  0
  7  9  1  0
  2 10  1  0
 10 11  1  0
 11 12  1  0
 12 13  1  0
 13 14  1  6
 13 15  1  0
 15 16  1  0
 16 17  1  0
 17 18  2  0
 18 19  1  0
 19 20  1  0
 20 21  1  0
 21 22  1  0
 22 23  1  0
 22 24  1  0
 24 25  1  0
 24 26  1  0
 19 27  1  0
 27 28  1  6
 27 29  1  0
 29 30  1  0
 30 31  1  0
 31 32  1  1
  7  5  1  0
 31 10  1  0
 31 13  1  0
 27 15  1  0
 24 18  1  0
  1 33  1  0
  1 34  1  0
  1 35  1  0
  2 36  1  1
  3 37  1  0
  3 38  1  0
  4 39  1  0
  4 40  1  0
  5 41  1  1
  8 42  1  0
  8 43  1  0
  8 44  1  0
  9 45  1  0
  9 46  1  0
  9 47  1  0
 10 48  1  6
 11 49  1  0
 11 50  1  0
 12 51  1  0
 12 52  1  0
 14 53  1  0
 14 54  1  0
 14 55  1  0
 15 56  1  1
 16 57  1  0
 16 58  1  0
 17 59  1  0
 19 60  1  6
 20 61  1  0
 20 62  1  0
 21 63  1  0
 21 64  1  0
 22 65  1  6
 23 66  1  0
 25 67  1  0
 25 68  1  0
 25 69  1  0
 26 70  1  0
 26 71  1  0
 26 72  1  0
 28 73  1  0
 28 74  1  0
 28 75  1  0
 29 76  1  0
 29 77  1  0
 30 78  1  0
 30 79  1  0
 32 80  1  0
 32 81  1  0
 32 82  1  0
M  END
>  <meeko>  (8) 
{"is_sidechain": [false], "intermolecular_energy": 2.731, "internal_energy": -0.839}

$$$$
EPH_relaxed_0001_pdb2pqr_Repair_126_r2_0001_out
     RDKit          3D

 82 86  0  0  0  0  0  0  0  0999 V2000
    2.3400   14.3760   -1.1660 C   0  0  0  0  0  0  0  0  0  0  0  0
    2.0180   12.9360   -1.5750 C   0  0  2  0  0  0  0  0  0  0  0  0
    2.8500   11.9070   -0.7840 C   0  0  0  0  0  0  0  0  0  0  0  0
    2.0190   10.7620   -0.1980 C   0  0  0  0  0  0  0  0  0  0  0  0
    0.5730   11.1340   -0.0750 C   0  0  2  0  0  0  0  0  0  0  0  0
   -0.2350   10.1740    0.6190 O   0  0  0  0  0  0  0  0  0  0  0  0
   -0.5470   10.3810   -0.7690 C   0  0  0  0  0  0  0  0  0  0  0  0
   -0.2680    9.1960   -1.6390 C   0  0  0  0  0  0  0  0  0  0  0  0
   -1.8490   11.0840   -0.9960 C   0  0  0  0  0  0  0  0  0  0  0  0
    2.2510   12.7550   -3.0700 C   0  0  1  0  0  0  0  0  0  0  0  0
    2.1840   11.2690   -3.5100 C   0  0  0  0  0  0  0  0  0  0  0  0
    1.5580   11.2500   -4.9290 C   0  0  0  0  0  0  0  0  0  0  0  0
    1.5930   12.7260   -5.3900 C   0  0  1  0  0  0  0  0  0  0  0  0
    3.0510   12.9520   -5.8990 C   0  0  0  0  0  0  0  0  0  0  0  0
    0.5360   13.1400   -6.4650 C   0  0  2  0  0  0  0  0  0  0  0  0
    0.6590   12.4130   -7.8150 C   0  0  0  0  0  0  0  0  0  0  0  0
    1.5330   13.0840   -8.8230 C   0  0  0  0  0  0  0  0  0  0  0  0
    1.9630   14.3580   -8.7600 C   0  0  0  0  0  0  0  0  0  0  0  0
    1.4900   15.2950   -7.6410 C   0  0  1  0  0  0  0  0  0  0  0  0
    1.0740   16.6600   -8.2500 C   0  0  0  0  0  0  0  0  0  0  0  0
    2.1760   17.2800   -9.1040 C   0  0  0  0  0  0  0  0  0  0  0  0
    2.5790   16.3430  -10.2400 C   0  0  2  0  0  0  0  0  0  0  0  0
    1.4800   16.2220  -11.1480 O   0  0  0  0  0  0  0  0  0  0  0  0
    3.0080   14.9330   -9.7480 C   0  0  0  0  0  0  0  0  0  0  0  0
    4.3680   15.0290   -9.0140 C   0  0  0  0  0  0  0  0  0  0  0  0
    3.2510   14.0450  -10.9980 C   0  0  0  0  0  0  0  0  0  0  0  0
    0.3880   14.7030   -6.6610 C   0  0  1  0  0  0  0  0  0  0  0  0
   -1.0350   14.9450   -7.2510 C   0  0  0  0  0  0  0  0  0  0  0  0
    0.4420   15.4850   -5.2950 C   0  0  0  0  0  0  0  0  0  0  0  0
    1.4200   14.9560   -4.2300 C   0  0  0  0  0  0  0  0  0  0  0  0
    1.2540   13.4460   -4.0340 C   0  0  2  0  0  0  0  0  0  0  0  0
   -0.1970   13.1890   -3.5010 C   0  0  0  0  0  0  0  0  0  0  0  0
    2.3567   14.4505   -0.0687 H   0  0  0  0  0  0  0  0  0  0  0  0
    3.3238   14.6600   -1.5678 H   0  0  0  0  0  0  0  0  0  0  0  0
    1.5708   15.0520   -1.5678 H   0  0  0  0  0  0  0  0  0  0  0  0
    0.9589   12.7551   -1.3393 H   0  0  0  0  0  0  0  0  0  0  0  0
    3.6046   11.4778   -1.4595 H   0  0  0  0  0  0  0  0  0  0  0  0
    3.3014   12.4428    0.0640 H   0  0  0  0  0  0  0  0  0  0  0  0
    2.1068    9.8847   -0.8558 H   0  0  0  0  0  0  0  0  0  0  0  0
    2.4029   10.5396    0.8086 H   0  0  0  0  0  0  0  0  0  0  0  0
    0.8273   12.2034   -0.0331 H   0  0  0  0  0  0  0  0  0  0  0  0
   -0.0614    8.3187   -1.0084 H   0  0  0  0  0  0  0  0  0  0  0  0
   -1.1430    8.9933   -2.2741 H   0  0  0  0  0  0  0  0  0  0  0  0
    0.6055    9.4049   -2.2741 H   0  0  0  0  0  0  0  0  0  0  0  0
   -2.3063   11.3309   -0.0265 H   0  0  0  0  0  0  0  0  0  0  0  0
   -1.6720   12.0091   -1.5642 H   0  0  0  0  0  0  0  0  0  0  0  0
   -2.5254   10.4285   -1.5642 H   0  0  0  0  0  0  0  0  0  0  0  0
    3.2439   13.2200   -3.1590 H   0  0  0  0  0  0  0  0  0  0  0  0
    3.1948   10.8358   -3.5361 H   0  0  0  0  0  0  0  0  0  0  0  0
    1.5832   10.6753   -2.8054 H   0  0  0  0  0  0  0  0  0  0  0  0
    2.1503   10.6173   -5.6064 H   0  0  0  0  0  0  0  0  0  0  0  0
    0.5387   10.8365   -4.9300 H   0  0  0  0  0  0  0  0  0  0  0  0
    3.7278   13.0569   -5.0382 H   0  0  0  0  0  0  0  0  0  0  0  0
    3.3640   12.0916   -6.5088 H   0  0  0  0  0  0  0  0  0  0  0  0
    3.0888   13.8667   -6.5088 H   0  0  0  0  0  0  0  0  0  0  0  0
   -0.4047   12.7844   -6.0193 H   0  0  0  0  0  0  0  0  0  0  0  0
    1.0677   11.4096   -7.6248 H   0  0  0  0  0  0  0  0  0  0  0  0
   -0.3521   12.4017   -8.2480 H   0  0  0  0  0  0  0  0  0  0  0  0
    1.8523   12.4869   -9.6899 H   0  0  0  0  0  0  0  0  0  0  0  0
    2.3534   15.4318   -6.9733 H   0  0  0  0  0  0  0  0  0  0  0  0
    0.1838   16.5091   -8.8783 H   0  0  0  0  0  0  0  0  0  0  0  0
    0.8697   17.3488   -7.4171 H   0  0  0  0  0  0  0  0  0  0  0  0
    1.8116   18.2264   -9.5302 H   0  0  0  0  0  0  0  0  0  0  0  0
    3.0552   17.4579   -8.4673 H   0  0  0  0  0  0  0  0  0  0  0  0
    3.4575   16.7826  -10.7351 H   0  0  0  0  0  0  0  0  0  0  0  0
    1.6330   16.8430  -11.8800 H   0  0  0  0  0  0  0  0  0  0  0  0
    4.1997   15.0171   -7.9270 H   0  0  0  0  0  0  0  0  0  0  0  0
    4.9985   14.1731   -9.2968 H   0  0  0  0  0  0  0  0  0  0  0  0
    4.8720   15.9650   -9.2968 H   0  0  0  0  0  0  0  0  0  0  0  0
    3.5288   13.0298  -10.6782 H   0  0  0  0  0  0  0  0  0  0  0  0
    2.3319   14.0009  -11.6007 H   0  0  0  0  0  0  0  0  0  0  0  0
    4.0645   14.4750  -11.6007 H   0  0  0  0  0  0  0  0  0  0  0  0
   -1.7564   15.0677   -6.4297 H   0  0  0  0  0  0  0  0  0  0  0  0
   -1.0256   15.8544   -7.8697 H   0  0  0  0  0  0  0  0  0  0  0  0
   -1.3268   14.0836   -7.8697 H   0  0  0  0  0  0  0  0  0  0  0  0
    0.7233   16.5248   -5.5178 H   0  0  0  0  0  0  0  0  0  0  0  0
   -0.5580   15.3622   -4.8535 H   0  0  0  0  0  0  0  0  0  0  0  0
    2.4506   15.1658   -4.5522 H   0  0  0  0  0  0  0  0  0  0  0  0
    1.2046   15.4590   -3.2757 H   0  0  0  0  0  0  0  0  0  0  0  0
   -0.1892   13.1904   -2.4010 H   0  0  0  0  0  0  0  0  0  0  0  0
   -0.8668   13.9825   -3.8639 H   0  0  0  0  0  0  0  0  0  0  0  0
   -0.5536   12.2137   -3.8639 H   0  0  0  0  0  0  0  0  0  0  0  0
  1  2  1  0
  2  3  1  0
  3  4  1  0
  4  5  1  0
  5  6  1  0
  6  7  1  0
  7  8  1  0
  7  9  1  0
  2 10  1  0
 10 11  1  0
 11 12  1  0
 12 13  1  0
 13 14  1  6
 13 15  1  0
 15 16  1  0
 16 17  1  0
 17 18  2  0
 18 19  1  0
 19 20  1  0
 20 21  1  0
 21 22  1  0
 22 23  1  0
 22 24  1  0
 24 25  1  0
 24 26  1  0
 19 27  1  0
 27 28  1  6
 27 29  1  0
 29 30  1  0
 30 31  1  0
 31 32  1  1
  7  5  1  0
 31 10  1  0
 31 13  1  0
 27 15  1  0
 24 18  1  0
  1 33  1  0
  1 34  1  0
  1 35  1  0
  2 36  1  6
  3 37  1  0
  3 38  1  0
  4 39  1  0
  4 40  1  0
  5 41  1  1
  8 42  1  0
  8 43  1  0
  8 44  1  0
  9 45  1  0
  9 46  1  0
  9 47  1  0
 10 48  1  6
 11 49  1  0
 11 50  1  0
 12 51  1  0
 12 52  1  0
 14 53  1  0
 14 54  1  0
 14 55  1  0
 15 56  1  1
 16 57  1  0
 16 58  1  0
 17 59  1  0
 19 60  1  1
 20 61  1  0
 20 62  1  0
 21 63  1  0
 21 64  1  0
 22 65  1  6
 23 66  1  0
 25 67  1  0
 25 68  1  0
 25 69  1  0
 26 70  1  0
 26 71  1  0
 26 72  1  0
 28 73  1  0
 28 74  1  0
 28 75  1  0
 29 76  1  0
 29 77  1  0
 30 78  1  0
 30 79  1  0
 32 80  1  0
 32 81  1  0
 32 82  1  0
M  END
>  <meeko>  (9) 
{"is_sidechain": [false], "intermolecular_energy": 2.731, "internal_energy": -0.839}

$$$$
EPH_relaxed_0001_pdb2pqr_Repair_126_r2_0001_out
     RDKit          3D

 82 86  0  0  0  0  0  0  0  0999 V2000
    3.4280   11.1140   -3.9420 C   0  0  0  0  0  0  0  0  0  0  0  0
    2.6890   12.4110   -4.2830 C   0  0  2  0  0  0  0  0  0  0  0  0
    1.3520   12.5340   -3.5250 C   0  0  0  0  0  0  0  0  0  0  0  0
    1.5000   13.0670   -2.0980 C   0  0  0  0  0  0  0  0  0  0  0  0
    0.7950   14.3770   -1.9190 C   0  0  2  0  0  0  0  0  0  0  0  0
    1.3980   15.4800   -2.6070 O   0  0  0  0  0  0  0  0  0  0  0  0
    1.3930   15.5540   -1.1720 C   0  0  0  0  0  0  0  0  0  0  0  0
    2.7540   15.4760   -0.5540 C   0  0  0  0  0  0  0  0  0  0  0  0
    0.4700   16.5980   -0.6250 C   0  0  0  0  0  0  0  0  0  0  0  0
    2.4450   12.4900   -5.7860 C   0  0  1  0  0  0  0  0  0  0  0  0
    1.7650   11.2130   -6.3480 C   0  0  0  0  0  0  0  0  0  0  0  0
    0.8190   11.6750   -7.4870 C   0  0  0  0  0  0  0  0  0  0  0  0
    1.2300   13.1400   -7.7640 C   0  0  1  0  0  0  0  0  0  0  0  0
    2.4890   13.0380   -8.6800 C   0  0  0  0  0  0  0  0  0  0  0  0
    0.1310   14.0580   -8.3930 C   0  0  2  0  0  0  0  0  0  0  0  0
   -0.3590   13.6280   -9.7870 C   0  0  0  0  0  0  0  0  0  0  0  0
    0.3920   14.2150  -10.9360 C   0  0  0  0  0  0  0  0  0  0  0  0
    1.2280   15.2670  -10.8690 C   0  0  0  0  0  0  0  0  0  0  0  0
    1.4130   16.0430   -9.5580 C   0  0  1  0  0  0  0  0  0  0  0  0
    1.3390   17.5660   -9.8430 C   0  0  0  0  0  0  0  0  0  0  0  0
    2.3200   18.0070  -10.9260 C   0  0  0  0  0  0  0  0  0  0  0  0
    2.0670   17.2550  -12.2300 C   0  0  2  0  0  0  0  0  0  0  0  0
    0.7940   17.6500  -12.7500 O   0  0  0  0  0  0  0  0  0  0  0  0
    2.1070   15.7100  -12.0640 C   0  0  0  0  0  0  0  0  0  0  0  0
    3.5620   15.2530  -11.7940 C   0  0  0  0  0  0  0  0  0  0  0  0
    1.6970   15.0740  -13.4200 C   0  0  0  0  0  0  0  0  0  0  0  0
    0.4760   15.6020   -8.3530 C   0  0  1  0  0  0  0  0  0  0  0  0
   -0.8830   16.3630   -8.4290 C   0  0  0  0  0  0  0  0  0  0  0  0
    1.1480   16.0300   -6.9950 C   0  0  0  0  0  0  0  0  0  0  0  0
    2.1340   15.0290   -6.3630 C   0  0  0  0  0  0  0  0  0  0  0  0
    1.5240   13.6250   -6.2980 C   0  0  2  0  0  0  0  0  0  0  0  0
    0.2670   13.6920   -5.3650 C   0  0  0  0  0  0  0  0  0  0  0  0
    3.4906   11.0041   -2.8493 H   0  0  0  0  0  0  0  0  0  0  0  0
    2.8818   10.2584   -4.3659 H   0  0  0  0  0  0  0  0  0  0  0  0
    4.4425   11.1477   -4.3659 H   0  0  0  0  0  0  0  0  0  0  0  0
    3.3268   13.2490   -3.9651 H   0  0  0  0  0  0  0  0  0  0  0  0
    0.6971   13.2179   -4.0849 H   0  0  0  0  0  0  0  0  0  0  0  0
    0.9323   11.5202   -3.4473 H   0  0  0  0  0  0  0  0  0  0  0  0
    1.0730   12.3340   -1.3977 H   0  0  0  0  0  0  0  0  0  0  0  0
    2.5706   13.2243   -1.9004 H   0  0  0  0  0  0  0  0  0  0  0  0
   -0.1774   13.8692   -1.8380 H   0  0  0  0  0  0  0  0  0  0  0  0
    2.6599   15.4814    0.5420 H   0  0  0  0  0  0  0  0  0  0  0  0
    3.2498   14.5480   -0.8749 H   0  0  0  0  0  0  0  0  0  0  0  0
    3.3525   16.3413   -0.8749 H   0  0  0  0  0  0  0  0  0  0  0  0
    0.4949   16.5698    0.4744 H   0  0  0  0  0  0  0  0  0  0  0  0
    0.7913   17.5906   -0.9737 H   0  0  0  0  0  0  0  0  0  0  0  0
   -0.5545   16.4008   -0.9737 H   0  0  0  0  0  0  0  0  0  0  0  0
    3.4756   12.6574   -6.1321 H   0  0  0  0  0  0  0  0  0  0  0  0
    2.5243   10.5220   -6.7429 H   0  0  0  0  0  0  0  0  0  0  0  0
    1.2074   10.6834   -5.5615 H   0  0  0  0  0  0  0  0  0  0  0  0
    0.9605   11.0554   -8.3848 H   0  0  0  0  0  0  0  0  0  0  0  0
   -0.2420   11.5840   -7.2113 H   0  0  0  0  0  0  0  0  0  0  0  0
    3.3917   12.9649   -8.0557 H   0  0  0  0  0  0  0  0  0  0  0  0
    2.4089   12.1434   -9.3150 H   0  0  0  0  0  0  0  0  0  0  0  0
    2.5540   13.9338   -9.3150 H   0  0  0  0  0  0  0  0  0  0  0  0
   -0.7218   13.9033   -7.7156 H   0  0  0  0  0  0  0  0  0  0  0  0
   -0.2790   12.5329   -9.8525 H   0  0  0  0  0  0  0  0  0  0  0  0
   -1.3902   14.0005   -9.8754 H   0  0  0  0  0  0  0  0  0  0  0  0
    0.2497   13.7475  -11.9215 H   0  0  0  0  0  0  0  0  0  0  0  0
    2.4152   15.7804   -9.1883 H   0  0  0  0  0  0  0  0  0  0  0  0
    0.3183   17.8145  -10.1693 H   0  0  0  0  0  0  0  0  0  0  0  0
    1.6069   18.0928   -8.9152 H   0  0  0  0  0  0  0  0  0  0  0  0
    2.1994   19.0859  -11.1033 H   0  0  0  0  0  0  0  0  0  0  0  0
    3.3421   17.7852  -10.5854 H   0  0  0  0  0  0  0  0  0  0  0  0
    2.8787   17.5168  -12.9247 H   0  0  0  0  0  0  0  0  0  0  0  0
    0.1210   17.0730  -12.3520 H   0  0  0  0  0  0  0  0  0  0  0  0
    3.7340   15.1990  -10.7089 H   0  0  0  0  0  0  0  0  0  0  0  0
    3.7236   14.2608  -12.2407 H   0  0  0  0  0  0  0  0  0  0  0  0
    4.2618   15.9746  -12.2407 H   0  0  0  0  0  0  0  0  0  0  0  0
    1.1095   14.1627  -13.2348 H   0  0  0  0  0  0  0  0  0  0  0  0
    1.0907   15.7910  -13.9929 H   0  0  0  0  0  0  0  0  0  0  0  0
    2.6004   14.8178  -13.9929 H   0  0  0  0  0  0  0  0  0  0  0  0
   -1.2466   16.5666   -7.4110 H   0  0  0  0  0  0  0  0  0  0  0  0
   -0.7417   17.3132   -8.9648 H   0  0  0  0  0  0  0  0  0  0  0  0
   -1.6193   15.7459   -8.9648 H   0  0  0  0  0  0  0  0  0  0  0  0
    1.6948   16.9674   -7.1750 H   0  0  0  0  0  0  0  0  0  0  0  0
    0.3192   16.1110   -6.2763 H   0  0  0  0  0  0  0  0  0  0  0  0
    3.0509   14.9952   -6.9698 H   0  0  0  0  0  0  0  0  0  0  0  0
    2.3618   15.3601   -5.3391 H   0  0  0  0  0  0  0  0  0  0  0  0
    0.5895   13.6748   -4.3135 H   0  0  0  0  0  0  0  0  0  0  0  0
   -0.2877   14.6210   -5.5633 H   0  0  0  0  0  0  0  0  0  0  0  0
   -0.3833   12.8272   -5.5633 H   0  0  0  0  0  0  0  0  0  0  0  0
  1  2  1  0
  2  3  1  0
  3  4  1  0
  4  5  1  0
  5  6  1  0
  6  7  1  0
  7  8  1  0
  7  9  1  0
  2 10  1  0
 10 11  1  0
 11 12  1  0
 12 13  1  0
 13 14  1  6
 13 15  1  0
 15 16  1  0
 16 17  1  0
 17 18  2  0
 18 19  1  0
 19 20  1  0
 20 21  1  0
 21 22  1  0
 22 23  1  0
 22 24  1  0
 24 25  1  0
 24 26  1  0
 19 27  1  0
 27 28  1  6
 27 29  1  0
 29 30  1  0
 30 31  1  0
 31 32  1  1
  7  5  1  0
 31 10  1  0
 31 13  1  0
 27 15  1  0
 24 18  1  0
  1 33  1  0
  1 34  1  0
  1 35  1  0
  2 36  1  1
  3 37  1  0
  3 38  1  0
  4 39  1  0
  4 40  1  0
  5 41  1  6
  8 42  1  0
  8 43  1  0
  8 44  1  0
  9 45  1  0
  9 46  1  0
  9 47  1  0
 10 48  1  6
 11 49  1  0
 11 50  1  0
 12 51  1  0
 12 52  1  0
 14 53  1  0
 14 54  1  0
 14 55  1  0
 15 56  1  1
 16 57  1  0
 16 58  1  0
 17 59  1  0
 19 60  1  1
 20 61  1  0
 20 62  1  0
 21 63  1  0
 21 64  1  0
 22 65  1  6
 23 66  1  0
 25 67  1  0
 25 68  1  0
 25 69  1  0
 26 70  1  0
 26 71  1  0
 26 72  1  0
 28 73  1  0
 28 74  1  0
 28 75  1  0
 29 76  1  0
 29 77  1  0
 30 78  1  0
 30 79  1  0
 32 80  1  0
 32 81  1  0
 32 82  1  0
M  END
>  <meeko>  (10) 
{"is_sidechain": [false], "intermolecular_energy": 2.731, "internal_energy": -0.839}

$$$$
EPH_relaxed_0001_pdb2pqr_Repair_126_r2_0001_out
     RDKit          3D

 82 86  0  0  0  0  0  0  0  0999 V2000
    1.0600   12.0510   -0.9400 C   0  0  0  0  0  0  0  0  0  0  0  0
    2.1270   13.0100   -1.4740 C   0  0  2  0  0  0  0  0  0  0  0  0
    1.7770   14.4850   -1.1880 C   0  0  0  0  0  0  0  0  0  0  0  0
    2.9870   15.3410   -0.8050 C   0  0  0  0  0  0  0  0  0  0  0  0
    2.5740   16.6210   -0.1430 C   0  0  2  0  0  0  0  0  0  0  0  0
    1.2330   17.0380   -0.4320 O   0  0  0  0  0  0  0  0  0  0  0  0
    2.2810   17.8990   -0.9050 C   0  0  0  0  0  0  0  0  0  0  0  0
    2.3900   17.9620   -2.3970 C   0  0  0  0  0  0  0  0  0  0  0  0
    2.3650   19.2030   -0.1740 C   0  0  0  0  0  0  0  0  0  0  0  0
    2.3120   12.8000   -2.9730 C   0  0  1  0  0  0  0  0  0  0  0  0
    2.1890   11.3100   -3.3860 C   0  0  0  0  0  0  0  0  0  0  0  0
    1.5220   11.2870   -4.7860 C   0  0  0  0  0  0  0  0  0  0  0  0
    1.5860   12.7540   -5.2720 C   0  0  1  0  0  0  0  0  0  0  0  0
    3.0350   12.9300   -5.8260 C   0  0  0  0  0  0  0  0  0  0  0  0
    0.5100   13.1820   -6.3230 C   0  0  2  0  0  0  0  0  0  0  0  0
    0.5740   12.4310   -7.6640 C   0  0  0  0  0  0  0  0  0  0  0  0
    1.4360   13.0610   -8.7070 C   0  0  0  0  0  0  0  0  0  0  0  0
    1.9040   14.3220   -8.6780 C   0  0  0  0  0  0  0  0  0  0  0  0
    1.4910   15.2900   -7.5610 C   0  0  1  0  0  0  0  0  0  0  0  0
    1.0970   16.6570   -8.1800 C   0  0  0  0  0  0  0  0  0  0  0  0
    2.1910   17.2310   -9.0740 C   0  0  0  0  0  0  0  0  0  0  0  0
    2.5330   16.2660  -10.2060 C   0  0  2  0  0  0  0  0  0  0  0  0
    1.4060   16.1630  -11.0810 O   0  0  0  0  0  0  0  0  0  0  0  0
    2.9360   14.8510   -9.7040 C   0  0  0  0  0  0  0  0  0  0  0  0
    4.3200   14.9190   -9.0110 C   0  0  0  0  0  0  0  0  0  0  0  0
    3.1180   13.9370  -10.9460 C   0  0  0  0  0  0  0  0  0  0  0  0
    0.4020   14.7450   -6.5400 C   0  0  1  0  0  0  0  0  0  0  0  0
   -1.0300   15.0200   -7.0930 C   0  0  0  0  0  0  0  0  0  0  0  0
    0.5170   15.5470   -5.1890 C   0  0  0  0  0  0  0  0  0  0  0  0
    1.5110   15.0060   -4.1430 C   0  0  0  0  0  0  0  0  0  0  0  0
    1.3070   13.5050   -3.9190 C   0  0  2  0  0  0  0  0  0  0  0  0
   -0.1340   13.2990   -3.3400 C   0  0  0  0  0  0  0  0  0  0  0  0
    1.0735   12.0631    0.1599 H   0  0  0  0  0  0  0  0  0  0  0  0
    0.0695   12.3684   -1.2981 H   0  0  0  0  0  0  0  0  0  0  0  0
    1.2703   11.0324   -1.2981 H   0  0  0  0  0  0  0  0  0  0  0  0
    3.0668   12.7852   -0.9485 H   0  0  0  0  0  0  0  0  0  0  0  0
    1.3193   14.9148   -2.0912 H   0  0  0  0  0  0  0  0  0  0  0  0
    1.0925   14.4920   -0.3269 H   0  0  0  0  0  0  0  0  0  0  0  0
    3.6224   14.7701   -0.1119 H   0  0  0  0  0  0  0  0  0  0  0  0
    3.5342   15.5923   -1.7256 H   0  0  0  0  0  0  0  0  0  0  0  0
    3.2187   16.4096    0.7229 H   0  0  0  0  0  0  0  0  0  0  0  0
    3.3114   18.4946   -2.6752 H   0  0  0  0  0  0  0  0  0  0  0  0
    2.4188   16.9413   -2.8060 H   0  0  0  0  0  0  0  0  0  0  0  0
    1.5199   18.4965   -2.8060 H   0  0  0  0  0  0  0  0  0  0  0  0
    2.3530   19.0170    0.9101 H   0  0  0  0  0  0  0  0  0  0  0  0
    3.2981   19.7172   -0.4475 H   0  0  0  0  0  0  0  0  0  0  0  0
    1.5056   19.8327   -0.4475 H   0  0  0  0  0  0  0  0  0  0  0  0
    3.3147   13.2346   -3.0986 H   0  0  0  0  0  0  0  0  0  0  0  0
    3.1855   10.8467   -3.4336 H   0  0  0  0  0  0  0  0  0  0  0  0
    1.5917   10.7456   -2.6548 H   0  0  0  0  0  0  0  0  0  0  0  0
    2.0761   10.6268   -5.4695 H   0  0  0  0  0  0  0  0  0  0  0  0
    0.4917   10.9033   -4.7513 H   0  0  0  0  0  0  0  0  0  0  0  0
    3.7406   13.0157   -4.9865 H   0  0  0  0  0  0  0  0  0  0  0  0
    3.3009   12.0576   -6.4409 H   0  0  0  0  0  0  0  0  0  0  0  0
    3.0844   13.8407   -6.4409 H   0  0  0  0  0  0  0  0  0  0  0  0
   -0.4276   12.8612   -5.8455 H   0  0  0  0  0  0  0  0  0  0  0  0
    0.9604   11.4197   -7.4691 H   0  0  0  0  0  0  0  0  0  0  0  0
   -0.4492   12.4415   -8.0678 H   0  0  0  0  0  0  0  0  0  0  0  0
    1.7121   12.4416   -9.5731 H   0  0  0  0  0  0  0  0  0  0  0  0
    2.3770   15.4124   -6.9207 H   0  0  0  0  0  0  0  0  0  0  0  0
    0.1853   16.5225   -8.7805 H   0  0  0  0  0  0  0  0  0  0  0  0
    0.9363   17.3642   -7.3529 H   0  0  0  0  0  0  0  0  0  0  0  0
    1.8425   18.1815   -9.5042 H   0  0  0  0  0  0  0  0  0  0  0  0
    3.0931   17.3920   -8.4655 H   0  0  0  0  0  0  0  0  0  0  0  0
    3.4086   16.6731  -10.7329 H   0  0  0  0  0  0  0  0  0  0  0  0
    1.5800   16.7270  -11.8530 H   0  0  0  0  0  0  0  0  0  0  0  0
    4.1842   14.9123   -7.9194 H   0  0  0  0  0  0  0  0  0  0  0  0
    4.9233   14.0494   -9.3108 H   0  0  0  0  0  0  0  0  0  0  0  0
    4.8351   15.8435   -9.3108 H   0  0  0  0  0  0  0  0  0  0  0  0
    3.3230   12.9076  -10.6168 H   0  0  0  0  0  0  0  0  0  0  0  0
    2.1991   13.9525  -11.5505 H   0  0  0  0  0  0  0  0  0  0  0  0
    3.9608   14.3033  -11.5505 H   0  0  0  0  0  0  0  0  0  0  0  0
   -1.7278   15.1540   -6.2533 H   0  0  0  0  0  0  0  0  0  0  0  0
   -1.0167   15.9320   -7.7079 H   0  0  0  0  0  0  0  0  0  0  0  0
   -1.3555   14.1680   -7.7079 H   0  0  0  0  0  0  0  0  0  0  0  0
    0.8210   16.5747   -5.4368 H   0  0  0  0  0  0  0  0  0  0  0  0
   -0.4730   15.4605   -4.7174 H   0  0  0  0  0  0  0  0  0  0  0  0
    2.5375   15.1808   -4.4977 H   0  0  0  0  0  0  0  0  0  0  0  0
    1.3385   15.5296   -3.1911 H   0  0  0  0  0  0  0  0  0  0  0  0
   -0.0918   13.3050   -2.2408 H   0  0  0  0  0  0  0  0  0  0  0  0
   -0.7881   14.1128   -3.6863 H   0  0  0  0  0  0  0  0  0  0  0  0
   -0.5339   12.3346   -3.6863 H   0  0  0  0  0  0  0  0  0  0  0  0
  1  2  1  0
  2  3  1  0
  3  4  1  0
  4  5  1  0
  5  6  1  0
  6  7  1  0
  7  8  1  0
  7  9  1  0
  2 10  1  0
 10 11  1  0
 11 12  1  0
 12 13  1  0
 13 14  1  6
 13 15  1  0
 15 16  1  0
 16 17  1  0
 17 18  2  0
 18 19  1  0
 19 20  1  0
 20 21  1  0
 21 22  1  0
 22 23  1  0
 22 24  1  0
 24 25  1  0
 24 26  1  0
 19 27  1  0
 27 28  1  6
 27 29  1  0
 29 30  1  0
 30 31  1  0
 31 32  1  1
  7  5  1  0
 31 10  1  0
 31 13  1  0
 27 15  1  0
 24 18  1  0
  1 33  1  0
  1 34  1  0
  1 35  1  0
  2 36  1  1
  3 37  1  0
  3 38  1  0
  4 39  1  0
  4 40  1  0
  5 41  1  1
  8 42  1  0
  8 43  1  0
  8 44  1  0
  9 45  1  0
  9 46  1  0
  9 47  1  0
 10 48  1  6
 11 49  1  0
 11 50  1  0
 12 51  1  0
 12 52  1  0
 14 53  1  0
 14 54  1  0
 14 55  1  0
 15 56  1  1
 16 57  1  0
 16 58  1  0
 17 59  1  0
 19 60  1  1
 20 61  1  0
 20 62  1  0
 21 63  1  0
 21 64  1  0
 22 65  1  6
 23 66  1  0
 25 67  1  0
 25 68  1  0
 25 69  1  0
 26 70  1  0
 26 71  1  0
 26 72  1  0
 28 73  1  0
 28 74  1  0
 28 75  1  0
 29 76  1  0
 29 77  1  0
 30 78  1  0
 30 79  1  0
 32 80  1  0
 32 81  1  0
 32 82  1  0
M  END
>  <meeko>  (11) 
{"is_sidechain": [false], "intermolecular_energy": 2.731, "internal_energy": -0.839}

$$$$
EPH_relaxed_0001_pdb2pqr_Repair_126_r2_0001_out
     RDKit          3D

 82 86  0  0  0  0  0  0  0  0999 V2000
    3.8850   14.5930   -9.6480 C   0  0  0  0  0  0  0  0  0  0  0  0
    2.4610   14.0580   -9.4730 C   0  0  2  0  0  0  0  0  0  0  0  0
    1.5360   14.4790  -10.6330 C   0  0  0  0  0  0  0  0  0  0  0  0
    2.2530   15.2550  -11.7410 C   0  0  0  0  0  0  0  0  0  0  0  0
    1.5920   16.5720  -12.0130 C   0  0  2  0  0  0  0  0  0  0  0  0
    2.4920   17.6810  -12.1310 O   0  0  0  0  0  0  0  0  0  0  0  0
    1.5780   17.7220  -11.0230 C   0  0  0  0  0  0  0  0  0  0  0  0
    2.2390   17.6070   -9.6850 C   0  0  0  0  0  0  0  0  0  0  0  0
    0.5160   18.7680  -11.1560 C   0  0  0  0  0  0  0  0  0  0  0  0
    1.8840   14.5380   -8.1470 C   0  0  1  0  0  0  0  0  0  0  0  0
    0.4630   15.1430   -8.2970 C   0  0  0  0  0  0  0  0  0  0  0  0
   -0.3200   14.7710   -7.0110 C   0  0  0  0  0  0  0  0  0  0  0  0
    0.7620   14.2600   -6.0310 C   0  0  1  0  0  0  0  0  0  0  0  0
    1.3940   15.5510   -5.4230 C   0  0  0  0  0  0  0  0  0  0  0  0
    0.2750   13.2770   -4.9170 C   0  0  2  0  0  0  0  0  0  0  0  0
   -0.7530   13.8620   -3.9330 C   0  0  0  0  0  0  0  0  0  0  0  0
   -0.1750   14.5090   -2.7170 C   0  0  0  0  0  0  0  0  0  0  0  0
    1.0910   14.3680   -2.2840 C   0  0  0  0  0  0  0  0  0  0  0  0
    2.0630   13.4120   -2.9870 C   0  0  1  0  0  0  0  0  0  0  0  0
    2.8070   12.5580   -1.9270 C   0  0  0  0  0  0  0  0  0  0  0  0
    3.4940   13.4110   -0.8650 C   0  0  0  0  0  0  0  0  0  0  0  0
    2.4860   14.3060   -0.1490 C   0  0  2  0  0  0  0  0  0  0  0  0
    1.5950   13.4820    0.6090 O   0  0  0  0  0  0  0  0  0  0  0  0
    1.6690   15.2070   -1.1170 C   0  0  0  0  0  0  0  0  0  0  0  0
    2.5900   16.3000   -1.7140 C   0  0  0  0  0  0  0  0  0  0  0  0
    0.5940   15.9530   -0.2820 C   0  0  0  0  0  0  0  0  0  0  0  0
    1.4440   12.5300   -4.1550 C   0  0  1  0  0  0  0  0  0  0  0  0
    0.8290   11.2230   -3.5680 C   0  0  0  0  0  0  0  0  0  0  0  0
    2.5990   12.0800   -5.1260 C   0  0  0  0  0  0  0  0  0  0  0  0
    2.9520   13.0400   -6.2780 C   0  0  0  0  0  0  0  0  0  0  0  0
    1.6930   13.4820   -7.0300 C   0  0  2  0  0  0  0  0  0  0  0  0
    1.0470   12.2070   -7.6710 C   0  0  0  0  0  0  0  0  0  0  0  0
    4.3369   14.7628   -8.6596 H   0  0  0  0  0  0  0  0  0  0  0  0
    4.4864   13.8595  -10.2051 H   0  0  0  0  0  0  0  0  0  0  0  0
    3.8546   15.5410  -10.2051 H   0  0  0  0  0  0  0  0  0  0  0  0
    2.5178   12.9595   -9.4775 H   0  0  0  0  0  0  0  0  0  0  0  0
    1.0960   13.5720  -11.0731 H   0  0  0  0  0  0  0  0  0  0  0  0
    0.7753   15.1516  -10.2099 H   0  0  0  0  0  0  0  0  0  0  0  0
    3.2937   15.4353  -11.4337 H   0  0  0  0  0  0  0  0  0  0  0  0
    2.2119   14.6544  -12.6616 H   0  0  0  0  0  0  0  0  0  0  0  0
    0.7902   16.0782  -12.5816 H   0  0  0  0  0  0  0  0  0  0  0  0
    1.4876   17.7377   -8.8924 H   0  0  0  0  0  0  0  0  0  0  0  0
    2.7037   16.6145   -9.5897 H   0  0  0  0  0  0  0  0  0  0  0  0
    3.0115   18.3842   -9.5897 H   0  0  0  0  0  0  0  0  0  0  0  0
    0.1901   19.0890  -10.1556 H   0  0  0  0  0  0  0  0  0  0  0  0
    0.9189   19.6318  -11.7051 H   0  0  0  0  0  0  0  0  0  0  0  0
   -0.3416   18.3521  -11.7051 H   0  0  0  0  0  0  0  0  0  0  0  0
    2.6651   15.2558   -7.8563 H   0  0  0  0  0  0  0  0  0  0  0  0
    0.5257   16.2364   -8.3993 H   0  0  0  0  0  0  0  0  0  0  0  0
   -0.0404   14.7511   -9.1931 H   0  0  0  0  0  0  0  0  0  0  0  0
   -0.8320   15.6531   -6.5990 H   0  0  0  0  0  0  0  0  0  0  0  0
   -1.1007   14.0195   -7.2001 H   0  0  0  0  0  0  0  0  0  0  0  0
    1.3648   15.4914   -4.3250 H   0  0  0  0  0  0  0  0  0  0  0  0
    2.4380   15.6408   -5.7577 H   0  0  0  0  0  0  0  0  0  0  0  0
    0.8246   16.4306   -5.7577 H   0  0  0  0  0  0  0  0  0  0  0  0
   -0.2669   12.5151   -5.4965 H   0  0  0  0  0  0  0  0  0  0  0  0
   -1.3465   14.6165   -4.4700 H   0  0  0  0  0  0  0  0  0  0  0  0
   -1.3474   13.0100   -3.5713 H   0  0  0  0  0  0  0  0  0  0  0  0
   -0.8405   15.1552   -2.1258 H   0  0  0  0  0  0  0  0  0  0  0  0
    2.7811   14.0491   -3.5241 H   0  0  0  0  0  0  0  0  0  0  0  0
    2.0794   11.8977   -1.4324 H   0  0  0  0  0  0  0  0  0  0  0  0
    3.5864   11.9832   -2.4488 H   0  0  0  0  0  0  0  0  0  0  0  0
    3.9758   12.7506   -0.1289 H   0  0  0  0  0  0  0  0  0  0  0  0
    4.2429   14.0490   -1.3571 H   0  0  0  0  0  0  0  0  0  0  0  0
    3.0538   14.9840    0.5051 H   0  0  0  0  0  0  0  0  0  0  0  0
    0.9140   13.1490    0.0020 H   0  0  0  0  0  0  0  0  0  0  0  0
    3.0656   16.8644   -0.8984 H   0  0  0  0  0  0  0  0  0  0  0  0
    3.3661   15.8272   -2.3338 H   0  0  0  0  0  0  0  0  0  0  0  0
    1.9924   16.9846   -2.3338 H   0  0  0  0  0  0  0  0  0  0  0  0
    0.7984   15.8112    0.7895 H   0  0  0  0  0  0  0  0  0  0  0  0
    0.6229   17.0261   -0.5219 H   0  0  0  0  0  0  0  0  0  0  0  0
   -0.4012   15.5504   -0.5219 H   0  0  0  0  0  0  0  0  0  0  0  0
    0.8506   11.2689   -2.4692 H   0  0  0  0  0  0  0  0  0  0  0  0
   -0.2114   11.1214   -3.9104 H   0  0  0  0  0  0  0  0  0  0  0  0
    1.4139   10.3566   -3.9104 H   0  0  0  0  0  0  0  0  0  0  0  0
    3.5065   11.9389   -4.5206 H   0  0  0  0  0  0  0  0  0  0  0  0
    2.2247   11.1687   -5.6154 H   0  0  0  0  0  0  0  0  0  0  0  0
    3.4547   13.9273   -5.8655 H   0  0  0  0  0  0  0  0  0  0  0  0
    3.6139   12.5142   -6.9818 H   0  0  0  0  0  0  0  0  0  0  0  0
    0.7040   11.5300   -6.8748 H   0  0  0  0  0  0  0  0  0  0  0  0
    0.1905   12.5038   -8.2942 H   0  0  0  0  0  0  0  0  0  0  0  0
    1.7929   11.6919   -8.2942 H   0  0  0  0  0  0  0  0  0  0  0  0
  1  2  1  0
  2  3  1  0
  3  4  1  0
  4  5  1  0
  5  6  1  0
  6  7  1  0
  7  8  1  0
  7  9  1  0
  2 10  1  0
 10 11  1  0
 11 12  1  0
 12 13  1  0
 13 14  1  1
 13 15  1  0
 15 16  1  0
 16 17  1  0
 17 18  2  0
 18 19  1  0
 19 20  1  0
 20 21  1  0
 21 22  1  0
 22 23  1  0
 22 24  1  0
 24 25  1  0
 24 26  1  0
 19 27  1  0
 27 28  1  1
 27 29  1  0
 29 30  1  0
 30 31  1  0
 31 32  1  6
  7  5  1  0
 31 10  1  0
 31 13  1  0
 27 15  1  0
 24 18  1  0
  1 33  1  0
  1 34  1  0
  1 35  1  0
  2 36  1  1
  3 37  1  0
  3 38  1  0
  4 39  1  0
  4 40  1  0
  5 41  1  6
  8 42  1  0
  8 43  1  0
  8 44  1  0
  9 45  1  0
  9 46  1  0
  9 47  1  0
 10 48  1  1
 11 49  1  0
 11 50  1  0
 12 51  1  0
 12 52  1  0
 14 53  1  0
 14 54  1  0
 14 55  1  0
 15 56  1  6
 16 57  1  0
 16 58  1  0
 17 59  1  0
 19 60  1  6
 20 61  1  0
 20 62  1  0
 21 63  1  0
 21 64  1  0
 22 65  1  1
 23 66  1  0
 25 67  1  0
 25 68  1  0
 25 69  1  0
 26 70  1  0
 26 71  1  0
 26 72  1  0
 28 73  1  0
 28 74  1  0
 28 75  1  0
 29 76  1  0
 29 77  1  0
 30 78  1  0
 30 79  1  0
 32 80  1  0
 32 81  1  0
 32 82  1  0
M  END
>  <meeko>  (12) 
{"is_sidechain": [false], "intermolecular_energy": 2.731, "internal_energy": -0.839}

$$$$
EPH_relaxed_0001_pdb2pqr_Repair_126_r2_0001_out
     RDKit          3D

 82 86  0  0  0  0  0  0  0  0999 V2000
    1.1530    9.3380   -1.6010 C   0  0  0  0  0  0  0  0  0  0  0  0
    0.7100   10.1060   -2.8500 C   0  0  2  0  0  0  0  0  0  0  0  0
    1.8630   10.2910   -3.8570 C   0  0  0  0  0  0  0  0  0  0  0  0
    3.2420    9.9560   -3.2820 C   0  0  0  0  0  0  0  0  0  0  0  0
    4.1780   11.1240   -3.3720 C   0  0  2  0  0  0  0  0  0  0  0  0
    4.1280   11.8370   -4.6140 O   0  0  0  0  0  0  0  0  0  0  0  0
    5.3670   11.1730   -4.3130 C   0  0  0  0  0  0  0  0  0  0  0  0
    5.6840   10.0330   -5.2290 C   0  0  0  0  0  0  0  0  0  0  0  0
    6.4910   12.1090   -3.9980 C   0  0  0  0  0  0  0  0  0  0  0  0
    0.1440   11.4630   -2.4510 C   0  0  1  0  0  0  0  0  0  0  0  0
   -1.1140   11.3450   -1.5500 C   0  0  0  0  0  0  0  0  0  0  0  0
   -1.0630   12.5300   -0.5520 C   0  0  0  0  0  0  0  0  0  0  0  0
    0.0280   13.4690   -1.1170 C   0  0  1  0  0  0  0  0  0  0  0  0
   -0.6870   14.2830   -2.2420 C   0  0  0  0  0  0  0  0  0  0  0  0
    0.7340   14.4070   -0.0850 C   0  0  2  0  0  0  0  0  0  0  0  0
   -0.1890   15.4240    0.6100 C   0  0  0  0  0  0  0  0  0  0  0  0
   -0.3180   16.7430   -0.0770 C   0  0  0  0  0  0  0  0  0  0  0  0
    0.4950   17.2020   -1.0460 C   0  0  0  0  0  0  0  0  0  0  0  0
    1.7340   16.4080   -1.4780 C   0  0  1  0  0  0  0  0  0  0  0  0
    2.9540   17.3620   -1.5730 C   0  0  0  0  0  0  0  0  0  0  0  0
    2.6870   18.5630   -2.4750 C   0  0  0  0  0  0  0  0  0  0  0  0
    1.4830   19.3610   -1.9810 C   0  0  2  0  0  0  0  0  0  0  0  0
    1.8100   19.9540   -0.7200 O   0  0  0  0  0  0  0  0  0  0  0  0
    0.1970   18.5010   -1.8360 C   0  0  0  0  0  0  0  0  0  0  0  0
   -0.3270   18.1070   -3.2390 C   0  0  0  0  0  0  0  0  0  0  0  0
   -0.9030   19.3910   -1.1960 C   0  0  0  0  0  0  0  0  0  0  0  0
    2.0480   15.0990   -0.6320 C   0  0  1  0  0  0  0  0  0  0  0  0
    2.9100   15.4660    0.6150 C   0  0  0  0  0  0  0  0  0  0  0  0
    2.9210   14.1210   -1.5030 C   0  0  0  0  0  0  0  0  0  0  0  0
    2.1630   13.1360   -2.4130 C   0  0  0  0  0  0  0  0  0  0  0  0
    1.0640   12.4060   -1.6360 C   0  0  2  0  0  0  0  0  0  0  0  0
    1.7540   11.5610   -0.5110 C   0  0  0  0  0  0  0  0  0  0  0  0
    0.8365    9.8867   -0.7017 H   0  0  0  0  0  0  0  0  0  0  0  0
    0.6923    8.3391   -1.6022 H   0  0  0  0  0  0  0  0  0  0  0  0
    2.2483    9.2366   -1.6022 H   0  0  0  0  0  0  0  0  0  0  0  0
   -0.0693    9.5096   -3.3469 H   0  0  0  0  0  0  0  0  0  0  0  0
    1.6783    9.6354   -4.7207 H   0  0  0  0  0  0  0  0  0  0  0  0
    1.8801   11.3554   -4.1341 H   0  0  0  0  0  0  0  0  0  0  0  0
    3.1283    9.6706   -2.2258 H   0  0  0  0  0  0  0  0  0  0  0  0
    3.6674    9.1291   -3.8696 H   0  0  0  0  0  0  0  0  0  0  0  0
    4.0837   11.3124   -2.2924 H   0  0  0  0  0  0  0  0  0  0  0  0
    5.9318    9.1420   -4.6334 H   0  0  0  0  0  0  0  0  0  0  0  0
    4.8113    9.8189   -5.8635 H   0  0  0  0  0  0  0  0  0  0  0  0
    6.5420   10.3001   -5.8635 H   0  0  0  0  0  0  0  0  0  0  0  0
    6.5987   12.1987   -2.9070 H   0  0  0  0  0  0  0  0  0  0  0  0
    7.4251   11.7181   -4.4277 H   0  0  0  0  0  0  0  0  0  0  0  0
    6.2756   13.0984   -4.4277 H   0  0  0  0  0  0  0  0  0  0  0  0
   -0.0389   11.8863   -3.4497 H   0  0  0  0  0  0  0  0  0  0  0  0
   -2.0256   11.4049   -2.1627 H   0  0  0  0  0  0  0  0  0  0  0  0
   -1.1300   10.3820   -1.0187 H   0  0  0  0  0  0  0  0  0  0  0  0
   -2.0344   13.0444   -0.5100 H   0  0  0  0  0  0  0  0  0  0  0  0
   -0.8406   12.2020    0.4741 H   0  0  0  0  0  0  0  0  0  0  0  0
   -1.3478   15.0353   -1.7867 H   0  0  0  0  0  0  0  0  0  0  0  0
    0.0664   14.7862   -2.8658 H   0  0  0  0  0  0  0  0  0  0  0  0
   -1.2832   13.6008   -2.8658 H   0  0  0  0  0  0  0  0  0  0  0  0
    1.0469   13.7023    0.6996 H   0  0  0  0  0  0  0  0  0  0  0  0
   -1.1923   14.9787    0.6815 H   0  0  0  0  0  0  0  0  0  0  0  0
    0.2711   15.6339    1.5868 H   0  0  0  0  0  0  0  0  0  0  0  0
   -1.1475   17.3946    0.2352 H   0  0  0  0  0  0  0  0  0  0  0  0
    1.5015   15.9994   -2.4725 H   0  0  0  0  0  0  0  0  0  0  0  0
    3.1969   17.7258   -0.5637 H   0  0  0  0  0  0  0  0  0  0  0  0
    3.7890   16.7946   -2.0099 H   0  0  0  0  0  0  0  0  0  0  0  0
    3.5734   19.2144   -2.4786 H   0  0  0  0  0  0  0  0  0  0  0  0
    2.4730   18.1981   -3.4904 H   0  0  0  0  0  0  0  0  0  0  0  0
    1.2629   20.1296   -2.7366 H   0  0  0  0  0  0  0  0  0  0  0  0
    2.4150   19.3490   -0.2580 H   0  0  0  0  0  0  0  0  0  0  0  0
   -1.2020   17.4491   -3.1321 H   0  0  0  0  0  0  0  0  0  0  0  0
   -0.6153   19.0139   -3.7907 H   0  0  0  0  0  0  0  0  0  0  0  0
    0.4642   17.5782   -3.7907 H   0  0  0  0  0  0  0  0  0  0  0  0
   -0.8305   19.3323   -0.1000 H   0  0  0  0  0  0  0  0  0  0  0  0
   -0.7639   20.4338   -1.5174 H   0  0  0  0  0  0  0  0  0  0  0  0
   -1.8938   19.0373   -1.5174 H   0  0  0  0  0  0  0  0  0  0  0  0
    2.3498   15.2275    1.5311 H   0  0  0  0  0  0  0  0  0  0  0  0
    3.8459   14.8883    0.5967 H   0  0  0  0  0  0  0  0  0  0  0  0
    3.1423   16.5410    0.5967 H   0  0  0  0  0  0  0  0  0  0  0  0
    3.5689   14.7358   -2.1451 H   0  0  0  0  0  0  0  0  0  0  0  0
    3.4554   13.4896   -0.7779 H   0  0  0  0  0  0  0  0  0  0  0  0
    1.7064   13.6929   -3.2445 H   0  0  0  0  0  0  0  0  0  0  0  0
    2.8767   12.3909   -2.7943 H   0  0  0  0  0  0  0  0  0  0  0  0
    1.4445   11.9400    0.4742 H   0  0  0  0  0  0  0  0  0  0  0  0
    1.4552   10.5069   -0.6088 H   0  0  0  0  0  0  0  0  0  0  0  0
    2.8466   11.6430   -0.6088 H   0  0  0  0  0  0  0  0  0  0  0  0
  1  2  1  0
  2  3  1  0
  3  4  1  0
  4  5  1  0
  5  6  1  0
  6  7  1  0
  7  8  1  0
  7  9  1  0
  2 10  1  0
 10 11  1  0
 11 12  1  0
 12 13  1  0
 13 14  1  6
 13 15  1  0
 15 16  1  0
 16 17  1  0
 17 18  2  0
 18 19  1  0
 19 20  1  0
 20 21  1  0
 21 22  1  0
 22 23  1  0
 22 24  1  0
 24 25  1  0
 24 26  1  0
 19 27  1  0
 27 28  1  1
 27 29  1  0
 29 30  1  0
 30 31  1  0
 31 32  1  1
  7  5  1  0
 31 10  1  0
 31 13  1  0
 27 15  1  0
 24 18  1  0
  1 33  1  0
  1 34  1  0
  1 35  1  0
  2 36  1  6
  3 37  1  0
  3 38  1  0
  4 39  1  0
  4 40  1  0
  5 41  1  1
  8 42  1  0
  8 43  1  0
  8 44  1  0
  9 45  1  0
  9 46  1  0
  9 47  1  0
 10 48  1  6
 11 49  1  0
 11 50  1  0
 12 51  1  0
 12 52  1  0
 14 53  1  0
 14 54  1  0
 14 55  1  0
 15 56  1  1
 16 57  1  0
 16 58  1  0
 17 59  1  0
 19 60  1  6
 20 61  1  0
 20 62  1  0
 21 63  1  0
 21 64  1  0
 22 65  1  6
 23 66  1  0
 25 67  1  0
 25 68  1  0
 25 69  1  0
 26 70  1  0
 26 71  1  0
 26 72  1  0
 28 73  1  0
 28 74  1  0
 28 75  1  0
 29 76  1  0
 29 77  1  0
 30 78  1  0
 30 79  1  0
 32 80  1  0
 32 81  1  0
 32 82  1  0
M  END
>  <meeko>  (13) 
{"is_sidechain": [false], "intermolecular_energy": 2.731, "internal_energy": -0.839}

$$$$
EPH_relaxed_0001_pdb2pqr_Repair_126_r2_0001_out
     RDKit          3D

 82 86  0  0  0  0  0  0  0  0999 V2000
    1.2840   17.9260    0.1770 C   0  0  0  0  0  0  0  0  0  0  0  0
    1.9650   17.4310   -1.1010 C   0  0  2  0  0  0  0  0  0  0  0  0
    1.9720   18.5040   -2.2090 C   0  0  0  0  0  0  0  0  0  0  0  0
    1.0370   19.6830   -1.9280 C   0  0  0  0  0  0  0  0  0  0  0  0
    0.0300   19.3530   -0.8690 C   0  0  2  0  0  0  0  0  0  0  0  0
   -0.8760   18.2960   -1.2120 O   0  0  0  0  0  0  0  0  0  0  0  0
   -1.4600   19.5960   -1.0250 C   0  0  0  0  0  0  0  0  0  0  0  0
   -2.0260   20.1940   -2.2740 C   0  0  0  0  0  0  0  0  0  0  0  0
   -2.3000   19.7070    0.2090 C   0  0  0  0  0  0  0  0  0  0  0  0
    1.2740   16.1680   -1.6030 C   0  0  1  0  0  0  0  0  0  0  0  0
    1.0500   16.1810   -3.1390 C   0  0  0  0  0  0  0  0  0  0  0  0
    1.2130   14.7180   -3.6270 C   0  0  0  0  0  0  0  0  0  0  0  0
    1.1950   13.8710   -2.3330 C   0  0  1  0  0  0  0  0  0  0  0  0
   -0.3160   13.7160   -1.9760 C   0  0  0  0  0  0  0  0  0  0  0  0
    1.9170   12.4860   -2.4040 C   0  0  2  0  0  0  0  0  0  0  0  0
    1.3170   11.4880   -3.4090 C   0  0  0  0  0  0  0  0  0  0  0  0
    0.2560   10.5920   -2.8620 C   0  0  0  0  0  0  0  0  0  0  0  0
    0.0010   10.3890   -1.5560 C   0  0  0  0  0  0  0  0  0  0  0  0
    0.8840   11.0210   -0.4730 C   0  0  1  0  0  0  0  0  0  0  0  0
    1.2380    9.9530    0.5950 C   0  0  0  0  0  0  0  0  0  0  0  0
    0.0010    9.2740    1.1750 C   0  0  0  0  0  0  0  0  0  0  0  0
   -0.8210    8.6070    0.0750 C   0  0  2  0  0  0  0  0  0  0  0  0
   -0.0660    7.5200   -0.4710 O   0  0  0  0  0  0  0  0  0  0  0  0
   -1.2280    9.5840   -1.0640 C   0  0  0  0  0  0  0  0  0  0  0  0
   -2.2850   10.5850   -0.5370 C   0  0  0  0  0  0  0  0  0  0  0  0
   -1.9280    8.7570   -2.1750 C   0  0  0  0  0  0  0  0  0  0  0  0
    2.1620   11.8100   -0.9940 C   0  0  1  0  0  0  0  0  0  0  0  0
    3.3580   10.8250   -1.1740 C   0  0  0  0  0  0  0  0  0  0  0  0
    2.6050   12.8510    0.1000 C   0  0  0  0  0  0  0  0  0  0  0  0
    1.9430   14.2410    0.0450 C   0  0  0  0  0  0  0  0  0  0  0  0
    2.0010   14.8200   -1.3720 C   0  0  2  0  0  0  0  0  0  0  0  0
    3.5100   15.0080   -1.7510 C   0  0  0  0  0  0  0  0  0  0  0  0
    1.8214   17.5354    1.0537 H   0  0  0  0  0  0  0  0  0  0  0  0
    1.2986   19.0257    0.1979 H   0  0  0  0  0  0  0  0  0  0  0  0
    0.2425   17.5727    0.1979 H   0  0  0  0  0  0  0  0  0  0  0  0
    3.0128   17.2074   -0.8518 H   0  0  0  0  0  0  0  0  0  0  0  0
    2.9968   18.8901   -2.3123 H   0  0  0  0  0  0  0  0  0  0  0  0
    1.6120   18.0196   -3.1286 H   0  0  0  0  0  0  0  0  0  0  0  0
    1.6373   20.5419   -1.5935 H   0  0  0  0  0  0  0  0  0  0  0  0
    0.4941   19.9180   -2.8554 H   0  0  0  0  0  0  0  0  0  0  0  0
    0.7423   19.6230   -0.0754 H   0  0  0  0  0  0  0  0  0  0  0  0
   -2.7599   20.9694   -2.0093 H   0  0  0  0  0  0  0  0  0  0  0  0
   -1.2148   20.6435   -2.8655 H   0  0  0  0  0  0  0  0  0  0  0  0
   -2.5194   19.4088   -2.8655 H   0  0  0  0  0  0  0  0  0  0  0  0
   -1.6582   19.6222    1.0983 H   0  0  0  0  0  0  0  0  0  0  0  0
   -2.8119   20.6806    0.2178 H   0  0  0  0  0  0  0  0  0  0  0  0
   -3.0472   18.8998    0.2178 H   0  0  0  0  0  0  0  0  0  0  0  0
    0.3551   16.2076   -0.9996 H   0  0  0  0  0  0  0  0  0  0  0  0
    0.0392   16.5475   -3.3714 H   0  0  0  0  0  0  0  0  0  0  0  0
    1.7701   16.8464   -3.6377 H   0  0  0  0  0  0  0  0  0  0  0  0
    0.3812   14.4343   -4.2885 H   0  0  0  0  0  0  0  0  0  0  0  0
    2.1355   14.5724   -4.2082 H   0  0  0  0  0  0  0  0  0  0  0  0
   -0.4350   13.7038   -0.8825 H   0  0  0  0  0  0  0  0  0  0  0  0
   -0.8808   14.5609   -2.3969 H   0  0  0  0  0  0  0  0  0  0  0  0
   -0.6975   12.7740   -2.3969 H   0  0  0  0  0  0  0  0  0  0  0  0
    2.9052   12.7555   -2.8051 H   0  0  0  0  0  0  0  0  0  0  0  0
    0.8815   12.0626   -4.2398 H   0  0  0  0  0  0  0  0  0  0  0  0
    2.1436   10.8295   -3.7142 H   0  0  0  0  0  0  0  0  0  0  0  0
   -0.3704   10.0520   -3.5873 H   0  0  0  0  0  0  0  0  0  0  0  0
    0.2809   11.8196   -0.0164 H   0  0  0  0  0  0  0  0  0  0  0  0
    1.8755    9.1867    0.1298 H   0  0  0  0  0  0  0  0  0  0  0  0
    1.7562   10.4642    1.4197 H   0  0  0  0  0  0  0  0  0  0  0  0
    0.3165    8.5109    1.9017 H   0  0  0  0  0  0  0  0  0  0  0  0
   -0.6215   10.0372    1.6649 H   0  0  0  0  0  0  0  0  0  0  0  0
   -1.7559    8.2511    0.5324 H   0  0  0  0  0  0  0  0  0  0  0  0
   -0.4640    7.2850   -1.3250 H   0  0  0  0  0  0  0  0  0  0  0  0
   -2.2790   10.5793    0.5630 H   0  0  0  0  0  0  0  0  0  0  0  0
   -2.0459   11.5956   -0.8998 H   0  0  0  0  0  0  0  0  0  0  0  0
   -3.2811   10.2913   -0.8998 H   0  0  0  0  0  0  0  0  0  0  0  0
   -2.5731    7.9949   -1.7134 H   0  0  0  0  0  0  0  0  0  0  0  0
   -2.5391    9.4252   -2.7995 H   0  0  0  0  0  0  0  0  0  0  0  0
   -1.1680    8.2647   -2.7995 H   0  0  0  0  0  0  0  0  0  0  0  0
    3.7315   10.5174   -0.1861 H   0  0  0  0  0  0  0  0  0  0  0  0
    3.0220    9.9382   -1.7314 H   0  0  0  0  0  0  0  0  0  0  0  0
    4.1639   11.3248   -1.7314 H   0  0  0  0  0  0  0  0  0  0  0  0
    2.3811   12.4146    1.0846 H   0  0  0  0  0  0  0  0  0  0  0  0
    3.6728   13.0331   -0.0917 H   0  0  0  0  0  0  0  0  0  0  0  0
    0.8912   14.1512    0.3543 H   0  0  0  0  0  0  0  0  0  0  0  0
    2.4871   14.9158    0.7222 H   0  0  0  0  0  0  0  0  0  0  0  0
    4.1119   15.0830   -0.8334 H   0  0  0  0  0  0  0  0  0  0  0  0
    3.8497   14.1452   -2.3428 H   0  0  0  0  0  0  0  0  0  0  0  0
    3.6276   15.9277   -2.3428 H   0  0  0  0  0  0  0  0  0  0  0  0
  1  2  1  0
  2  3  1  0
  3  4  1  0
  4  5  1  0
  5  6  1  0
  6  7  1  0
  7  8  1  0
  7  9  1  0
  2 10  1  0
 10 11  1  0
 11 12  1  0
 12 13  1  0
 13 14  1  1
 13 15  1  0
 15 16  1  0
 16 17  1  0
 17 18  2  0
 18 19  1  0
 19 20  1  0
 20 21  1  0
 21 22  1  0
 22 23  1  0
 22 24  1  0
 24 25  1  0
 24 26  1  0
 19 27  1  0
 27 28  1  6
 27 29  1  0
 29 30  1  0
 30 31  1  0
 31 32  1  6
  7  5  1  0
 31 10  1  0
 31 13  1  0
 27 15  1  0
 24 18  1  0
  1 33  1  0
  1 34  1  0
  1 35  1  0
  2 36  1  1
  3 37  1  0
  3 38  1  0
  4 39  1  0
  4 40  1  0
  5 41  1  1
  8 42  1  0
  8 43  1  0
  8 44  1  0
  9 45  1  0
  9 46  1  0
  9 47  1  0
 10 48  1  1
 11 49  1  0
 11 50  1  0
 12 51  1  0
 12 52  1  0
 14 53  1  0
 14 54  1  0
 14 55  1  0
 15 56  1  6
 16 57  1  0
 16 58  1  0
 17 59  1  0
 19 60  1  1
 20 61  1  0
 20 62  1  0
 21 63  1  0
 21 64  1  0
 22 65  1  1
 23 66  1  0
 25 67  1  0
 25 68  1  0
 25 69  1  0
 26 70  1  0
 26 71  1  0
 26 72  1  0
 28 73  1  0
 28 74  1  0
 28 75  1  0
 29 76  1  0
 29 77  1  0
 30 78  1  0
 30 79  1  0
 32 80  1  0
 32 81  1  0
 32 82  1  0
M  END
>  <meeko>  (14) 
{"is_sidechain": [false], "intermolecular_energy": 2.731, "internal_energy": -0.839}

$$$$
EPH_relaxed_0001_pdb2pqr_Repair_126_r2_0001_out
     RDKit          3D

 82 86  0  0  0  0  0  0  0  0999 V2000
   -2.9370    7.8130   -0.4230 C   0  0  0  0  0  0  0  0  0  0  0  0
   -3.2830    9.2690   -0.0990 C   0  0  2  0  0  0  0  0  0  0  0  0
   -4.7900    9.5560   -0.2530 C   0  0  0  0  0  0  0  0  0  0  0  0
   -5.3480    9.1910   -1.6310 C   0  0  0  0  0  0  0  0  0  0  0  0
   -6.4940    8.2300   -1.5290 C   0  0  2  0  0  0  0  0  0  0  0  0
   -6.1780    6.9890   -0.8860 O   0  0  0  0  0  0  0  0  0  0  0  0
   -6.5460    6.9090   -2.2730 C   0  0  0  0  0  0  0  0  0  0  0  0
   -5.4320    6.4760   -3.1740 C   0  0  0  0  0  0  0  0  0  0  0  0
   -7.8800    6.2710   -2.5060 C   0  0  0  0  0  0  0  0  0  0  0  0
   -2.4800   10.2050   -0.9950 C   0  0  1  0  0  0  0  0  0  0  0  0
   -3.0250   11.6580   -0.9820 C   0  0  0  0  0  0  0  0  0  0  0  0
   -1.7980   12.5970   -1.1090 C   0  0  0  0  0  0  0  0  0  0  0  0
   -0.6350   11.6650   -1.5230 C   0  0  1  0  0  0  0  0  0  0  0  0
   -0.8050   11.4710   -3.0620 C   0  0  0  0  0  0  0  0  0  0  0  0
    0.8050   12.1540   -1.1580 C   0  0  2  0  0  0  0  0  0  0  0  0
    1.2370   13.4690   -1.8290 C   0  0  0  0  0  0  0  0  0  0  0  0
    1.9250   13.3180   -3.1450 C   0  0  0  0  0  0  0  0  0  0  0  0
    2.4400   12.1730   -3.6310 C   0  0  0  0  0  0  0  0  0  0  0  0
    2.4430   10.8910   -2.7890 C   0  0  1  0  0  0  0  0  0  0  0  0
    3.8410   10.2230   -2.8680 C   0  0  0  0  0  0  0  0  0  0  0  0
    4.2930    9.9790   -4.3040 C   0  0  0  0  0  0  0  0  0  0  0  0
    4.3340   11.2860   -5.0920 C   0  0  2  0  0  0  0  0  0  0  0  0
    5.3650   12.1180   -4.5530 O   0  0  0  0  0  0  0  0  0  0  0  0
    2.9820   12.0530   -5.0770 C   0  0  0  0  0  0  0  0  0  0  0  0
    1.9380   11.2850   -5.9250 C   0  0  0  0  0  0  0  0  0  0  0  0
    3.1990   13.4170   -5.7860 C   0  0  0  0  0  0  0  0  0  0  0  0
    1.9210   11.0400   -1.2960 C   0  0  1  0  0  0  0  0  0  0  0  0
    3.0940   11.4690   -0.3620 C   0  0  0  0  0  0  0  0  0  0  0  0
    1.4320    9.6360   -0.7790 C   0  0  0  0  0  0  0  0  0  0  0  0
   -0.0350    9.2610   -1.0660 C   0  0  0  0  0  0  0  0  0  0  0  0
   -0.9800   10.3960   -0.6610 C   0  0  2  0  0  0  0  0  0  0  0  0
   -0.8470   10.6000    0.8870 C   0  0  0  0  0  0  0  0  0  0  0  0
   -2.8034    7.2508    0.5130 H   0  0  0  0  0  0  0  0  0  0  0  0
   -3.7533    7.3634   -1.0074 H   0  0  0  0  0  0  0  0  0  0  0  0
   -2.0057    7.7787   -1.0074 H   0  0  0  0  0  0  0  0  0  0  0  0
   -3.0198    9.4455    0.9544 H   0  0  0  0  0  0  0  0  0  0  0  0
   -5.3336    8.9753    0.5068 H   0  0  0  0  0  0  0  0  0  0  0  0
   -4.9252   10.6405   -0.1283 H   0  0  0  0  0  0  0  0  0  0  0  0
   -5.6953   10.1082   -2.1292 H   0  0  0  0  0  0  0  0  0  0  0  0
   -4.5460    8.7079   -2.2084 H   0  0  0  0  0  0  0  0  0  0  0  0
   -7.2128    9.0585   -1.4460 H   0  0  0  0  0  0  0  0  0  0  0  0
   -4.5772    6.1438   -2.5666 H   0  0  0  0  0  0  0  0  0  0  0  0
   -5.7754    5.6459   -3.8088 H   0  0  0  0  0  0  0  0  0  0  0  0
   -5.1247    7.3201   -3.8088 H   0  0  0  0  0  0  0  0  0  0  0  0
   -8.3524    6.0451   -1.5386 H   0  0  0  0  0  0  0  0  0  0  0  0
   -8.5215    6.9598   -3.0753 H   0  0  0  0  0  0  0  0  0  0  0  0
   -7.7464    5.3393   -3.0753 H   0  0  0  0  0  0  0  0  0  0  0  0
   -2.5872    9.6783   -1.9547 H   0  0  0  0  0  0  0  0  0  0  0  0
   -3.7100   11.8132   -1.8286 H   0  0  0  0  0  0  0  0  0  0  0  0
   -3.5843   11.8618   -0.0570 H   0  0  0  0  0  0  0  0  0  0  0  0
   -1.9737   13.3638   -1.8778 H   0  0  0  0  0  0  0  0  0  0  0  0
   -1.5874   13.1371   -0.1742 H   0  0  0  0  0  0  0  0  0  0  0  0
   -1.5190   10.6562   -3.2522 H   0  0  0  0  0  0  0  0  0  0  0  0
   -1.1834   12.4020   -3.5093 H   0  0  0  0  0  0  0  0  0  0  0  0
    0.1676   11.2181   -3.5093 H   0  0  0  0  0  0  0  0  0  0  0  0
    0.7127   12.3828   -0.0860 H   0  0  0  0  0  0  0  0  0  0  0  0
    0.3374   14.0827   -1.9843 H   0  0  0  0  0  0  0  0  0  0  0  0
    1.9726   13.9283   -1.1523 H   0  0  0  0  0  0  0  0  0  0  0  0
    2.0192   14.2180   -3.7704 H   0  0  0  0  0  0  0  0  0  0  0  0
    1.6875   10.2302   -3.2391 H   0  0  0  0  0  0  0  0  0  0  0  0
    4.5734   10.8788   -2.3745 H   0  0  0  0  0  0  0  0  0  0  0  0
    3.7721    9.2450   -2.3692 H   0  0  0  0  0  0  0  0  0  0  0  0
    5.2984    9.5327   -4.2942 H   0  0  0  0  0  0  0  0  0  0  0  0
    3.5757    9.2996   -4.7875 H   0  0  0  0  0  0  0  0  0  0  0  0
    4.5385   11.0311   -6.1423 H   0  0  0  0  0  0  0  0  0  0  0  0
    5.2470   12.1450   -3.5880 H   0  0  0  0  0  0  0  0  0  0  0  0
    1.2335   10.7667   -5.2579 H   0  0  0  0  0  0  0  0  0  0  0  0
    1.3873   11.9949   -6.5597 H   0  0  0  0  0  0  0  0  0  0  0  0
    2.4518   10.5479   -6.5597 H   0  0  0  0  0  0  0  0  0  0  0  0
    3.3247   14.2069   -5.0308 H   0  0  0  0  0  0  0  0  0  0  0  0
    4.1000   13.3642   -6.4148 H   0  0  0  0  0  0  0  0  0  0  0  0
    2.3261   13.6464   -6.4148 H   0  0  0  0  0  0  0  0  0  0  0  0
    2.7865   11.3565    0.6881 H   0  0  0  0  0  0  0  0  0  0  0  0
    3.9699   10.8330   -0.5577 H   0  0  0  0  0  0  0  0  0  0  0  0
    3.3529   12.5200   -0.5577 H   0  0  0  0  0  0  0  0  0  0  0  0
    2.0685    8.8697   -1.2455 H   0  0  0  0  0  0  0  0  0  0  0  0
    1.5051    9.6921    0.3171 H   0  0  0  0  0  0  0  0  0  0  0  0
   -0.1518    9.0620   -2.1415 H   0  0  0  0  0  0  0  0  0  0  0  0
   -0.2896    8.3662   -0.4791 H   0  0  0  0  0  0  0  0  0  0  0  0
   -1.3754    9.7895    1.4104 H   0  0  0  0  0  0  0  0  0  0  0  0
    0.2162   10.5863    1.1686 H   0  0  0  0  0  0  0  0  0  0  0  0
   -1.2885   11.5674    1.1686 H   0  0  0  0  0  0  0  0  0  0  0  0
  1  2  1  0
  2  3  1  0
  3  4  1  0
  4  5  1  0
  5  6  1  0
  6  7  1  0
  7  8  1  0
  7  9  1  0
  2 10  1  0
 10 11  1  0
 11 12  1  0
 12 13  1  0
 13 14  1  6
 13 15  1  0
 15 16  1  0
 16 17  1  0
 17 18  2  0
 18 19  1  0
 19 20  1  0
 20 21  1  0
 21 22  1  0
 22 23  1  0
 22 24  1  0
 24 25  1  0
 24 26  1  0
 19 27  1  0
 27 28  1  1
 27 29  1  0
 29 30  1  0
 30 31  1  0
 31 32  1  1
  7  5  1  0
 31 10  1  0
 31 13  1  0
 27 15  1  0
 24 18  1  0
  1 33  1  0
  1 34  1  0
  1 35  1  0
  2 36  1  1
  3 37  1  0
  3 38  1  0
  4 39  1  0
  4 40  1  0
  5 41  1  1
  8 42  1  0
  8 43  1  0
  8 44  1  0
  9 45  1  0
  9 46  1  0
  9 47  1  0
 10 48  1  6
 11 49  1  0
 11 50  1  0
 12 51  1  0
 12 52  1  0
 14 53  1  0
 14 54  1  0
 14 55  1  0
 15 56  1  1
 16 57  1  0
 16 58  1  0
 17 59  1  0
 19 60  1  6
 20 61  1  0
 20 62  1  0
 21 63  1  0
 21 64  1  0
 22 65  1  6
 23 66  1  0
 25 67  1  0
 25 68  1  0
 25 69  1  0
 26 70  1  0
 26 71  1  0
 26 72  1  0
 28 73  1  0
 28 74  1  0
 28 75  1  0
 29 76  1  0
 29 77  1  0
 30 78  1  0
 30 79  1  0
 32 80  1  0
 32 81  1  0
 32 82  1  0
M  END
>  <meeko>  (15) 
{"is_sidechain": [false], "intermolecular_energy": 2.731, "internal_energy": -0.839}

$$$$
EPH_relaxed_0001_pdb2pqr_Repair_126_r2_0001_out
     RDKit          3D

 82 86  0  0  0  0  0  0  0  0999 V2000
  -14.4740    5.4890    0.3760 C   0  0  0  0  0  0  0  0  0  0  0  0
  -13.9070    6.9040    0.2390 C   0  0  2  0  0  0  0  0  0  0  0  0
  -15.0030    7.9400   -0.0850 C   0  0  0  0  0  0  0  0  0  0  0  0
  -14.5630    9.3900    0.1330 C   0  0  0  0  0  0  0  0  0  0  0  0
  -15.2830   10.3320   -0.7840 C   0  0  2  0  0  0  0  0  0  0  0  0
  -15.2160    9.9840   -2.1730 O   0  0  0  0  0  0  0  0  0  0  0  0
  -14.5790   11.2150   -1.7970 C   0  0  0  0  0  0  0  0  0  0  0  0
  -13.0900   11.2000   -1.9440 C   0  0  0  0  0  0  0  0  0  0  0  0
  -15.2870   12.4370   -2.2950 C   0  0  0  0  0  0  0  0  0  0  0  0
  -12.8300    6.9310   -0.8400 C   0  0  1  0  0  0  0  0  0  0  0  0
  -13.1850    7.8800   -2.0160 C   0  0  0  0  0  0  0  0  0  0  0  0
  -11.8530    8.5040   -2.5040 C   0  0  0  0  0  0  0  0  0  0  0  0
  -10.7530    7.6540   -1.8270 C   0  0  1  0  0  0  0  0  0  0  0  0
  -10.6270    6.3780   -2.7160 C   0  0  0  0  0  0  0  0  0  0  0  0
   -9.3690    8.3530   -1.6210 C   0  0  2  0  0  0  0  0  0  0  0  0
   -8.6520    8.7740   -2.9150 C   0  0  0  0  0  0  0  0  0  0  0  0
   -7.7330    7.7520   -3.4970 C   0  0  0  0  0  0  0  0  0  0  0  0
   -7.2730    6.6600   -2.8580 C   0  0  0  0  0  0  0  0  0  0  0  0
   -7.5990    6.4170   -1.3790 C   0  0  1  0  0  0  0  0  0  0  0  0
   -6.3060    6.0090   -0.6240 C   0  0  0  0  0  0  0  0  0  0  0  0
   -5.6030    4.8190   -1.2700 C   0  0  0  0  0  0  0  0  0  0  0  0
   -5.2440    5.1200   -2.7220 C   0  0  2  0  0  0  0  0  0  0  0  0
   -4.2500    6.1490   -2.7470 O   0  0  0  0  0  0  0  0  0  0  0  0
   -6.4660    5.5520   -3.5790 C   0  0  0  0  0  0  0  0  0  0  0  0
   -7.4010    4.3370   -3.8030 C   0  0  0  0  0  0  0  0  0  0  0  0
   -5.9440    5.9620   -4.9830 C   0  0  0  0  0  0  0  0  0  0  0  0
   -8.3920    7.5810   -0.6440 C   0  0  1  0  0  0  0  0  0  0  0  0
   -7.3910    8.6400   -0.0880 C   0  0  0  0  0  0  0  0  0  0  0  0
   -9.1440    6.9830    0.6040 C   0  0  0  0  0  0  0  0  0  0  0  0
  -10.5550    6.4160    0.3590 C   0  0  0  0  0  0  0  0  0  0  0  0
  -11.4180    7.4120   -0.4230 C   0  0  2  0  0  0  0  0  0  0  0  0
  -11.5800    8.6980    0.4560 C   0  0  0  0  0  0  0  0  0  0  0  0
  -14.5753    5.2362    1.4417 H   0  0  0  0  0  0  0  0  0  0  0  0
  -15.4608    5.4410   -0.1076 H   0  0  0  0  0  0  0  0  0  0  0  0
  -13.7934    4.7728   -0.1076 H   0  0  0  0  0  0  0  0  0  0  0  0
  -13.4681    7.1796    1.2093 H   0  0  0  0  0  0  0  0  0  0  0  0
  -15.2936    7.8200   -1.1391 H   0  0  0  0  0  0  0  0  0  0  0  0
  -15.8385    7.7504    0.6049 H   0  0  0  0  0  0  0  0  0  0  0  0
  -14.7753    9.6742    1.1742 H   0  0  0  0  0  0  0  0  0  0  0  0
  -13.4864    9.4576   -0.0826 H   0  0  0  0  0  0  0  0  0  0  0  0
  -16.0324   10.5507   -0.0090 H   0  0  0  0  0  0  0  0  0  0  0  0
  -12.6232   11.1953   -0.9479 H   0  0  0  0  0  0  0  0  0  0  0  0
  -12.7851   10.2987   -2.4961 H   0  0  0  0  0  0  0  0  0  0  0  0
  -12.7670   12.0949   -2.4961 H   0  0  0  0  0  0  0  0  0  0  0  0
  -15.6332   13.0346   -1.4389 H   0  0  0  0  0  0  0  0  0  0  0  0
  -14.5968   13.0373   -2.9060 H   0  0  0  0  0  0  0  0  0  0  0  0
  -16.1510   12.1367   -2.9060 H   0  0  0  0  0  0  0  0  0  0  0  0
  -12.8023    5.8623   -1.0992 H   0  0  0  0  0  0  0  0  0  0  0  0
  -13.6587    7.3128   -2.8308 H   0  0  0  0  0  0  0  0  0  0  0  0
  -13.8923    8.6591   -1.6954 H   0  0  0  0  0  0  0  0  0  0  0  0
  -11.7731    8.4414   -3.5993 H   0  0  0  0  0  0  0  0  0  0  0  0
  -11.7732    9.5706   -2.2472 H   0  0  0  0  0  0  0  0  0  0  0  0
  -10.5393    5.4901   -2.0726 H   0  0  0  0  0  0  0  0  0  0  0  0
  -11.5202    6.2839   -3.3511 H   0  0  0  0  0  0  0  0  0  0  0  0
   -9.7326    6.4604   -3.3511 H   0  0  0  0  0  0  0  0  0  0  0  0
   -9.6504    9.2894   -1.1170 H   0  0  0  0  0  0  0  0  0  0  0  0
   -9.4192    9.0088   -3.6675 H   0  0  0  0  0  0  0  0  0  0  0  0
   -8.0200    9.6333   -2.6465 H   0  0  0  0  0  0  0  0  0  0  0  0
   -7.4038    7.9039   -4.5356 H   0  0  0  0  0  0  0  0  0  0  0  0
   -8.3209    5.5873   -1.3591 H   0  0  0  0  0  0  0  0  0  0  0  0
   -5.6159    6.8656   -0.6179 H   0  0  0  0  0  0  0  0  0  0  0  0
   -6.5935    5.7139    0.3959 H   0  0  0  0  0  0  0  0  0  0  0  0
   -4.6825    4.5974   -0.7101 H   0  0  0  0  0  0  0  0  0  0  0  0
   -6.2837    3.9552   -1.2485 H   0  0  0  0  0  0  0  0  0  0  0  0
   -4.8633    4.1890   -3.1674 H   0  0  0  0  0  0  0  0  0  0  0  0
   -4.1360    6.4250   -3.6730 H   0  0  0  0  0  0  0  0  0  0  0  0
   -7.7137    3.9306   -2.8298 H   0  0  0  0  0  0  0  0  0  0  0  0
   -8.2883    4.6566   -4.3691 H   0  0  0  0  0  0  0  0  0  0  0  0
   -6.8648    3.5611   -4.3691 H   0  0  0  0  0  0  0  0  0  0  0  0
   -5.0834    6.6379   -4.8712 H   0  0  0  0  0  0  0  0  0  0  0  0
   -5.6347    5.0629   -5.5361 H   0  0  0  0  0  0  0  0  0  0  0  0
   -6.7442    6.4756   -5.5361 H   0  0  0  0  0  0  0  0  0  0  0  0
   -7.4096    8.6203    1.0117 H   0  0  0  0  0  0  0  0  0  0  0  0
   -6.3760    8.4063   -0.4418 H   0  0  0  0  0  0  0  0  0  0  0  0
   -7.6814    9.6403   -0.4418 H   0  0  0  0  0  0  0  0  0  0  0  0
   -8.5238    6.1691    1.0076 H   0  0  0  0  0  0  0  0  0  0  0  0
   -9.2901    7.8333    1.2864 H   0  0  0  0  0  0  0  0  0  0  0  0
  -10.4726    5.4820   -0.2162 H   0  0  0  0  0  0  0  0  0  0  0  0
  -11.0314    6.2278    1.3325 H   0  0  0  0  0  0  0  0  0  0  0  0
  -11.5452    8.4216    1.5201 H   0  0  0  0  0  0  0  0  0  0  0  0
  -10.7632    9.4001    0.2326 H   0  0  0  0  0  0  0  0  0  0  0  0
  -12.5454    9.1756    0.2326 H   0  0  0  0  0  0  0  0  0  0  0  0
  1  2  1  0
  2  3  1  0
  3  4  1  0
  4  5  1  0
  5  6  1  0
  6  7  1  0
  7  8  1  0
  7  9  1  0
  2 10  1  0
 10 11  1  0
 11 12  1  0
 12 13  1  0
 13 14  1  6
 13 15  1  0
 15 16  1  0
 16 17  1  0
 17 18  2  0
 18 19  1  0
 19 20  1  0
 20 21  1  0
 21 22  1  0
 22 23  1  0
 22 24  1  0
 24 25  1  0
 24 26  1  0
 19 27  1  0
 27 28  1  1
 27 29  1  0
 29 30  1  0
 30 31  1  0
 31 32  1  1
  7  5  1  0
 31 10  1  0
 31 13  1  0
 27 15  1  0
 24 18  1  0
  1 33  1  0
  1 34  1  0
  1 35  1  0
  2 36  1  1
  3 37  1  0
  3 38  1  0
  4 39  1  0
  4 40  1  0
  5 41  1  1
  8 42  1  0
  8 43  1  0
  8 44  1  0
  9 45  1  0
  9 46  1  0
  9 47  1  0
 10 48  1  6
 11 49  1  0
 11 50  1  0
 12 51  1  0
 12 52  1  0
 14 53  1  0
 14 54  1  0
 14 55  1  0
 15 56  1  1
 16 57  1  0
 16 58  1  0
 17 59  1  0
 19 60  1  6
 20 61  1  0
 20 62  1  0
 21 63  1  0
 21 64  1  0
 22 65  1  6
 23 66  1  0
 25 67  1  0
 25 68  1  0
 25 69  1  0
 26 70  1  0
 26 71  1  0
 26 72  1  0
 28 73  1  0
 28 74  1  0
 28 75  1  0
 29 76  1  0
 29 77  1  0
 30 78  1  0
 30 79  1  0
 32 80  1  0
 32 81  1  0
 32 82  1  0
M  END
>  <meeko>  (16) 
{"is_sidechain": [false], "intermolecular_energy": 2.731, "internal_energy": -0.839}

$$$$
EPH_relaxed_0001_pdb2pqr_Repair_126_r2_0001_out
     RDKit          3D

 82 86  0  0  0  0  0  0  0  0999 V2000
   -4.7060    7.3580   -3.1090 C   0  0  0  0  0  0  0  0  0  0  0  0
   -4.2140    7.3130   -1.6590 C   0  0  2  0  0  0  0  0  0  0  0  0
   -5.3500    6.9800   -0.6710 C   0  0  0  0  0  0  0  0  0  0  0  0
   -6.4880    6.1650   -1.2930 C   0  0  0  0  0  0  0  0  0  0  0  0
   -7.8160    6.8330   -1.1030 C   0  0  2  0  0  0  0  0  0  0  0  0
   -8.9300    5.9350   -1.0150 O   0  0  0  0  0  0  0  0  0  0  0  0
   -8.9170    6.8190   -2.1470 C   0  0  0  0  0  0  0  0  0  0  0  0
   -8.7380    6.1230   -3.4600 C   0  0  0  0  0  0  0  0  0  0  0  0
   -9.9670    7.8840   -2.0940 C   0  0  0  0  0  0  0  0  0  0  0  0
   -3.5730    8.6440   -1.2860 C   0  0  1  0  0  0  0  0  0  0  0  0
   -4.1750    9.2560    0.0070 C   0  0  0  0  0  0  0  0  0  0  0  0
   -3.0160    9.9770    0.7420 C   0  0  0  0  0  0  0  0  0  0  0  0
   -1.8750   10.0440   -0.3000 C   0  0  1  0  0  0  0  0  0  0  0  0
   -2.2290   11.2650   -1.2050 C   0  0  0  0  0  0  0  0  0  0  0  0
   -0.4230   10.1510    0.2710 C   0  0  2  0  0  0  0  0  0  0  0  0
   -0.1370   11.4190    1.0930 C   0  0  0  0  0  0  0  0  0  0  0  0
    0.3860   12.5800    0.3130 C   0  0  0  0  0  0  0  0  0  0  0  0
    0.8840   12.5220   -0.9360 C   0  0  0  0  0  0  0  0  0  0  0  0
    1.0490   11.1790   -1.6570 C   0  0  1  0  0  0  0  0  0  0  0  0
    2.4540   11.1110   -2.3120 C   0  0  0  0  0  0  0  0  0  0  0  0
    2.7310   12.3010   -3.2250 C   0  0  0  0  0  0  0  0  0  0  0  0
    2.6150   13.6160   -2.4580 C   0  0  2  0  0  0  0  0  0  0  0  0
    3.6690   13.6820   -1.4930 O   0  0  0  0  0  0  0  0  0  0  0  0
    1.2440   13.7910   -1.7470 C   0  0  0  0  0  0  0  0  0  0  0  0
    0.1350   14.0230   -2.8040 C   0  0  0  0  0  0  0  0  0  0  0  0
    1.3090   15.0880   -0.8960 C   0  0  0  0  0  0  0  0  0  0  0  0
    0.7140    9.8850   -0.7970 C   0  0  1  0  0  0  0  0  0  0  0  0
    1.9760    9.4340   -0.0000 C   0  0  0  0  0  0  0  0  0  0  0  0
    0.3560    8.6990   -1.7700 C   0  0  0  0  0  0  0  0  0  0  0  0
   -1.1170    8.5770   -2.2030 C   0  0  0  0  0  0  0  0  0  0  0  0
   -2.0520    8.6430   -0.9920 C   0  0  2  0  0  0  0  0  0  0  0  0
   -1.7340    7.4140   -0.0740 C   0  0  0  0  0  0  0  0  0  0  0  0
   -5.8014    7.4582   -3.1216 H   0  0  0  0  0  0  0  0  0  0  0  0
   -4.2532    8.2185   -3.6233 H   0  0  0  0  0  0  0  0  0  0  0  0
   -4.4168    6.4297   -3.6233 H   0  0  0  0  0  0  0  0  0  0  0  0
   -3.4675    6.5082   -1.5875 H   0  0  0  0  0  0  0  0  0  0  0  0
   -4.9259    6.4031    0.1641 H   0  0  0  0  0  0  0  0  0  0  0  0
   -5.7819    7.9372   -0.3434 H   0  0  0  0  0  0  0  0  0  0  0  0
   -6.2973    6.0508   -2.3703 H   0  0  0  0  0  0  0  0  0  0  0  0
   -6.5219    5.1859   -0.7928 H   0  0  0  0  0  0  0  0  0  0  0  0
   -7.3499    7.6505   -0.5334 H   0  0  0  0  0  0  0  0  0  0  0  0
   -8.4676    5.0714   -3.2837 H   0  0  0  0  0  0  0  0  0  0  0  0
   -9.6773    6.1693   -4.0306 H   0  0  0  0  0  0  0  0  0  0  0  0
   -7.9376    6.6167   -4.0306 H   0  0  0  0  0  0  0  0  0  0  0  0
  -10.1985    8.1188   -1.0446 H   0  0  0  0  0  0  0  0  0  0  0  0
   -9.5976    8.7886   -2.5992 H   0  0  0  0  0  0  0  0  0  0  0  0
  -10.8767    7.5275   -2.5992 H   0  0  0  0  0  0  0  0  0  0  0  0
   -3.7778    9.2113   -2.2059 H   0  0  0  0  0  0  0  0  0  0  0  0
   -4.9676    9.9750   -0.2476 H   0  0  0  0  0  0  0  0  0  0  0  0
   -4.6214    8.4767    0.6422 H   0  0  0  0  0  0  0  0  0  0  0  0
   -3.3207   10.9882    1.0497 H   0  0  0  0  0  0  0  0  0  0  0  0
   -2.7128    9.4513    1.6594 H   0  0  0  0  0  0  0  0  0  0  0  0
   -2.4797   12.1296   -0.5728 H   0  0  0  0  0  0  0  0  0  0  0  0
   -1.3658   11.5132   -1.8401 H   0  0  0  0  0  0  0  0  0  0  0  0
   -3.0911   11.0130   -1.8401 H   0  0  0  0  0  0  0  0  0  0  0  0
   -0.3890    9.3173    0.9878 H   0  0  0  0  0  0  0  0  0  0  0  0
   -1.0749   11.7293    1.5767 H   0  0  0  0  0  0  0  0  0  0  0  0
    0.6568   11.1479    1.8046 H   0  0  0  0  0  0  0  0  0  0  0  0
    0.3622   13.5658    0.8004 H   0  0  0  0  0  0  0  0  0  0  0  0
    0.2728   11.1552   -2.4360 H   0  0  0  0  0  0  0  0  0  0  0  0
    3.2135   11.0924   -1.5165 H   0  0  0  0  0  0  0  0  0  0  0  0
    2.4917   10.2008   -2.9285 H   0  0  0  0  0  0  0  0  0  0  0  0
    3.7481   12.2116   -3.6344 H   0  0  0  0  0  0  0  0  0  0  0  0
    1.9883   12.3012   -4.0365 H   0  0  0  0  0  0  0  0  0  0  0  0
    2.6956   14.4330   -3.1902 H   0  0  0  0  0  0  0  0  0  0  0  0
    4.4330   13.2040   -1.8580 H   0  0  0  0  0  0  0  0  0  0  0  0
   -0.8199   14.2228   -2.2958 H   0  0  0  0  0  0  0  0  0  0  0  0
    0.4027   14.8846   -3.4333 H   0  0  0  0  0  0  0  0  0  0  0  0
    0.0349   13.1264   -3.4333 H   0  0  0  0  0  0  0  0  0  0  0  0
    1.2959   14.8266    0.1724 H   0  0  0  0  0  0  0  0  0  0  0  0
    2.2356   15.6332   -1.1287 H   0  0  0  0  0  0  0  0  0  0  0  0
    0.4416   15.7231   -1.1287 H   0  0  0  0  0  0  0  0  0  0  0  0
    1.7736    9.5063    1.0788 H   0  0  0  0  0  0  0  0  0  0  0  0
    2.2201    8.3930   -0.2583 H   0  0  0  0  0  0  0  0  0  0  0  0
    2.8246   10.0845   -0.2583 H   0  0  0  0  0  0  0  0  0  0  0  0
    0.9615    8.8209   -2.6802 H   0  0  0  0  0  0  0  0  0  0  0  0
    0.5645    7.7835   -1.1970 H   0  0  0  0  0  0  0  0  0  0  0  0
   -1.3595    9.4011   -2.8901 H   0  0  0  0  0  0  0  0  0  0  0  0
   -1.2567    7.6063   -2.7012 H   0  0  0  0  0  0  0  0  0  0  0  0
   -1.8118    7.7147    0.9812 H   0  0  0  0  0  0  0  0  0  0  0  0
   -2.4530    6.6072   -0.2793 H   0  0  0  0  0  0  0  0  0  0  0  0
   -0.7139    7.0572   -0.2793 H   0  0  0  0  0  0  0  0  0  0  0  0
  1  2  1  0
  2  3  1  0
  3  4  1  0
  4  5  1  0
  5  6  1  0
  6  7  1  0
  7  8  1  0
  7  9  1  0
  2 10  1  0
 10 11  1  0
 11 12  1  0
 12 13  1  0
 13 14  1  6
 13 15  1  0
 15 16  1  0
 16 17  1  0
 17 18  2  0
 18 19  1  0
 19 20  1  0
 20 21  1  0
 21 22  1  0
 22 23  1  0
 22 24  1  0
 24 25  1  0
 24 26  1  0
 19 27  1  0
 27 28  1  1
 27 29  1  0
 29 30  1  0
 30 31  1  0
 31 32  1  1
  7  5  1  0
 31 10  1  0
 31 13  1  0
 27 15  1  0
 24 18  1  0
  1 33  1  0
  1 34  1  0
  1 35  1  0
  2 36  1  6
  3 37  1  0
  3 38  1  0
  4 39  1  0
  4 40  1  0
  5 41  1  1
  8 42  1  0
  8 43  1  0
  8 44  1  0
  9 45  1  0
  9 46  1  0
  9 47  1  0
 10 48  1  6
 11 49  1  0
 11 50  1  0
 12 51  1  0
 12 52  1  0
 14 53  1  0
 14 54  1  0
 14 55  1  0
 15 56  1  1
 16 57  1  0
 16 58  1  0
 17 59  1  0
 19 60  1  6
 20 61  1  0
 20 62  1  0
 21 63  1  0
 21 64  1  0
 22 65  1  6
 23 66  1  0
 25 67  1  0
 25 68  1  0
 25 69  1  0
 26 70  1  0
 26 71  1  0
 26 72  1  0
 28 73  1  0
 28 74  1  0
 28 75  1  0
 29 76  1  0
 29 77  1  0
 30 78  1  0
 30 79  1  0
 32 80  1  0
 32 81  1  0
 32 82  1  0
M  END
>  <meeko>  (17) 
{"is_sidechain": [false], "intermolecular_energy": 2.731, "internal_energy": -0.839}

$$$$
EPH_relaxed_0001_pdb2pqr_Repair_126_r2_0001_out
     RDKit          3D

 82 86  0  0  0  0  0  0  0  0999 V2000
    2.2930   18.7080   -1.2280 C   0  0  0  0  0  0  0  0  0  0  0  0
    0.9340   18.7220   -1.9330 C   0  0  2  0  0  0  0  0  0  0  0  0
   -0.1560   19.4010   -1.0790 C   0  0  0  0  0  0  0  0  0  0  0  0
   -1.4750   18.6240   -1.0350 C   0  0  0  0  0  0  0  0  0  0  0  0
   -1.9450   18.4090    0.3710 C   0  0  2  0  0  0  0  0  0  0  0  0
   -0.9000   18.1550    1.3190 O   0  0  0  0  0  0  0  0  0  0  0  0
   -1.8300   17.0820    1.0980 C   0  0  0  0  0  0  0  0  0  0  0  0
   -1.2280   15.8810    0.4390 C   0  0  0  0  0  0  0  0  0  0  0  0
   -2.7370   16.8210    2.2600 C   0  0  0  0  0  0  0  0  0  0  0  0
    0.5130   17.2990   -2.2800 C   0  0  1  0  0  0  0  0  0  0  0  0
    0.2850   17.0970   -3.8020 C   0  0  0  0  0  0  0  0  0  0  0  0
    0.7420   15.6540   -4.1350 C   0  0  0  0  0  0  0  0  0  0  0  0
    0.9030   14.9680   -2.7580 C   0  0  1  0  0  0  0  0  0  0  0  0
   -0.5440   14.5490   -2.3480 C   0  0  0  0  0  0  0  0  0  0  0  0
    1.8920   13.7580   -2.7000 C   0  0  2  0  0  0  0  0  0  0  0  0
    1.5040   12.5550   -3.5780 C   0  0  0  0  0  0  0  0  0  0  0  0
    0.6510   11.5280   -2.9110 C   0  0  0  0  0  0  0  0  0  0  0  0
    0.4470   11.4210   -1.5850 C   0  0  0  0  0  0  0  0  0  0  0  0
    1.1870   12.3340   -0.5990 C   0  0  1  0  0  0  0  0  0  0  0  0
    1.7550   11.4840    0.5680 C   0  0  0  0  0  0  0  0  0  0  0  0
    0.6860   10.6350    1.2480 C   0  0  0  0  0  0  0  0  0  0  0  0
    0.0130    9.7000    0.2470 C   0  0  2  0  0  0  0  0  0  0  0  0
    0.9720    8.7360   -0.1990 O   0  0  0  0  0  0  0  0  0  0  0  0
   -0.5890   10.4430   -0.9780 C   0  0  0  0  0  0  0  0  0  0  0  0
   -1.8270   11.2610   -0.5340 C   0  0  0  0  0  0  0  0  0  0  0  0
   -1.1100    9.3750   -1.9770 C   0  0  0  0  0  0  0  0  0  0  0  0
    2.2750   13.3040   -1.2340 C   0  0  1  0  0  0  0  0  0  0  0  0
    3.6460   12.5690   -1.3390 C   0  0  0  0  0  0  0  0  0  0  0  0
    2.5000   14.5270   -0.2680 C   0  0  0  0  0  0  0  0  0  0  0  0
    1.5680   15.7400   -0.4540 C   0  0  0  0  0  0  0  0  0  0  0  0
    1.5010   16.1590   -1.9260 C   0  0  2  0  0  0  0  0  0  0  0  0
    2.9380   16.6070   -2.3610 C   0  0  0  0  0  0  0  0  0  0  0  0
    2.1409   18.7096   -0.1386 H   0  0  0  0  0  0  0  0  0  0  0  0
    2.8480   17.8041   -1.5195 H   0  0  0  0  0  0  0  0  0  0  0  0
    2.8665   19.6003   -1.5195 H   0  0  0  0  0  0  0  0  0  0  0  0
    1.0458   19.3112   -2.8551 H   0  0  0  0  0  0  0  0  0  0  0  0
    0.2215   19.5032   -0.0509 H   0  0  0  0  0  0  0  0  0  0  0  0
   -0.3708   20.3739   -1.5453 H   0  0  0  0  0  0  0  0  0  0  0  0
   -2.2412   19.1909   -1.5842 H   0  0  0  0  0  0  0  0  0  0  0  0
   -1.3081   17.6389   -1.4951 H   0  0  0  0  0  0  0  0  0  0  0  0
   -2.7907   19.0957    0.2184 H   0  0  0  0  0  0  0  0  0  0  0  0
   -0.8758   15.1784    1.2086 H   0  0  0  0  0  0  0  0  0  0  0  0
   -1.9857   15.3884   -0.1880 H   0  0  0  0  0  0  0  0  0  0  0  0
   -0.3799   16.1933   -0.1880 H   0  0  0  0  0  0  0  0  0  0  0  0
   -2.1855   16.9797    3.1985 H   0  0  0  0  0  0  0  0  0  0  0  0
   -3.5943   17.5089    2.2177 H   0  0  0  0  0  0  0  0  0  0  0  0
   -3.0976   15.7826    2.2177 H   0  0  0  0  0  0  0  0  0  0  0  0
   -0.3926   17.2188   -1.6608 H   0  0  0  0  0  0  0  0  0  0  0  0
   -0.7804   17.2226   -4.0454 H   0  0  0  0  0  0  0  0  0  0  0  0
    0.8517   17.8358   -4.3877 H   0  0  0  0  0  0  0  0  0  0  0  0
   -0.0167   15.1364   -4.7404 H   0  0  0  0  0  0  0  0  0  0  0  0
    1.6726   15.6360   -4.7213 H   0  0  0  0  0  0  0  0  0  0  0  0
   -0.6222   14.5263   -1.2510 H   0  0  0  0  0  0  0  0  0  0  0  0
   -1.2645   15.2754   -2.7521 H   0  0  0  0  0  0  0  0  0  0  0  0
   -0.7648   13.5500   -2.7521 H   0  0  0  0  0  0  0  0  0  0  0  0
    2.8031   14.1763   -3.1528 H   0  0  0  0  0  0  0  0  0  0  0  0
    0.9566   12.9353   -4.4530 H   0  0  0  0  0  0  0  0  0  0  0  0
    2.4463   12.0485   -3.8339 H   0  0  0  0  0  0  0  0  0  0  0  0
    0.1459   10.7960   -3.5584 H   0  0  0  0  0  0  0  0  0  0  0  0
    0.4352   13.0394   -0.2153 H   0  0  0  0  0  0  0  0  0  0  0  0
    2.5351   10.8175    0.1715 H   0  0  0  0  0  0  0  0  0  0  0  0
    2.1588   12.1776    1.3203 H   0  0  0  0  0  0  0  0  0  0  0  0
    1.1542   10.0351    2.0423 H   0  0  0  0  0  0  0  0  0  0  0  0
   -0.0775   11.3046    1.6708 H   0  0  0  0  0  0  0  0  0  0  0  0
   -0.8285    9.2150    0.7633 H   0  0  0  0  0  0  0  0  0  0  0  0
    0.7930    8.5550   -1.1380 H   0  0  0  0  0  0  0  0  0  0  0  0
   -1.8720   11.2908    0.5647 H   0  0  0  0  0  0  0  0  0  0  0  0
   -1.7490   12.2859   -0.9257 H   0  0  0  0  0  0  0  0  0  0  0  0
   -2.7392   10.7873   -0.9257 H   0  0  0  0  0  0  0  0  0  0  0  0
   -1.5257    8.5229   -1.4191 H   0  0  0  0  0  0  0  0  0  0  0  0
   -1.8940    9.8164   -2.6099 H   0  0  0  0  0  0  0  0  0  0  0  0
   -0.2795    9.0289   -2.6099 H   0  0  0  0  0  0  0  0  0  0  0  0
    4.0300   12.3631   -0.3290 H   0  0  0  0  0  0  0  0  0  0  0  0
    3.5133   11.6211   -1.8811 H   0  0  0  0  0  0  0  0  0  0  0  0
    4.3620   13.2042   -1.8811 H   0  0  0  0  0  0  0  0  0  0  0  0
    2.3729   14.1646    0.7628 H   0  0  0  0  0  0  0  0  0  0  0  0
    3.5076   14.8993   -0.5048 H   0  0  0  0  0  0  0  0  0  0  0  0
    0.5579   15.4740   -0.1092 H   0  0  0  0  0  0  0  0  0  0  0  0
    1.9658   16.5813    0.1325 H   0  0  0  0  0  0  0  0  0  0  0  0
    3.5492   16.7975   -1.4665 H   0  0  0  0  0  0  0  0  0  0  0  0
    3.4042   15.8116   -2.9610 H   0  0  0  0  0  0  0  0  0  0  0  0
    2.8695   17.5264   -2.9610 H   0  0  0  0  0  0  0  0  0  0  0  0
  1  2  1  0
  2  3  1  0
  3  4  1  0
  4  5  1  0
  5  6  1  0
  6  7  1  0
  7  8  1  0
  7  9  1  0
  2 10  1  0
 10 11  1  0
 11 12  1  0
 12 13  1  0
 13 14  1  1
 13 15  1  0
 15 16  1  0
 16 17  1  0
 17 18  2  0
 18 19  1  0
 19 20  1  0
 20 21  1  0
 21 22  1  0
 22 23  1  0
 22 24  1  0
 24 25  1  0
 24 26  1  0
 19 27  1  0
 27 28  1  6
 27 29  1  0
 29 30  1  0
 30 31  1  0
 31 32  1  6
  7  5  1  0
 31 10  1  0
 31 13  1  0
 27 15  1  0
 24 18  1  0
  1 33  1  0
  1 34  1  0
  1 35  1  0
  2 36  1  6
  3 37  1  0
  3 38  1  0
  4 39  1  0
  4 40  1  0
  5 41  1  1
  8 42  1  0
  8 43  1  0
  8 44  1  0
  9 45  1  0
  9 46  1  0
  9 47  1  0
 10 48  1  1
 11 49  1  0
 11 50  1  0
 12 51  1  0
 12 52  1  0
 14 53  1  0
 14 54  1  0
 14 55  1  0
 15 56  1  6
 16 57  1  0
 16 58  1  0
 17 59  1  0
 19 60  1  1
 20 61  1  0
 20 62  1  0
 21 63  1  0
 21 64  1  0
 22 65  1  1
 23 66  1  0
 25 67  1  0
 25 68  1  0
 25 69  1  0
 26 70  1  0
 26 71  1  0
 26 72  1  0
 28 73  1  0
 28 74  1  0
 28 75  1  0
 29 76  1  0
 29 77  1  0
 30 78  1  0
 30 79  1  0
 32 80  1  0
 32 81  1  0
 32 82  1  0
M  END
>  <meeko>  (18) 
{"is_sidechain": [false], "intermolecular_energy": 2.731, "internal_energy": -0.839}

$$$$
EPH_relaxed_0001_pdb2pqr_Repair_126_r2_0001_out
     RDKit          3D

 82 86  0  0  0  0  0  0  0  0999 V2000
    0.9820   10.4250   -5.1980 C   0  0  0  0  0  0  0  0  0  0  0  0
    2.0260   11.5400   -5.0960 C   0  0  2  0  0  0  0  0  0  0  0  0
    3.2950   11.0810   -4.3500 C   0  0  0  0  0  0  0  0  0  0  0  0
    4.5740   11.1970   -5.1830 C   0  0  0  0  0  0  0  0  0  0  0  0
    5.7100   10.4420   -4.5610 C   0  0  2  0  0  0  0  0  0  0  0  0
    5.6700   10.3710   -3.1300 O   0  0  0  0  0  0  0  0  0  0  0  0
    6.7740   11.0940   -3.6970 C   0  0  0  0  0  0  0  0  0  0  0  0
    6.7530   12.5620   -3.4080 C   0  0  0  0  0  0  0  0  0  0  0  0
    8.0920   10.4010   -3.5410 C   0  0  0  0  0  0  0  0  0  0  0  0
    1.4230   12.7550   -4.4000 C   0  0  1  0  0  0  0  0  0  0  0  0
   -0.1250   12.6890   -4.3180 C   0  0  0  0  0  0  0  0  0  0  0  0
   -0.5300   13.3460   -2.9730 C   0  0  0  0  0  0  0  0  0  0  0  0
    0.7530   14.0590   -2.4860 C   0  0  1  0  0  0  0  0  0  0  0  0
    0.7890   15.4040   -3.2770 C   0  0  0  0  0  0  0  0  0  0  0  0
    0.8710   14.2930   -0.9440 C   0  0  2  0  0  0  0  0  0  0  0  0
   -0.2120   15.2020   -0.3380 C   0  0  0  0  0  0  0  0  0  0  0  0
    0.1230   16.6560   -0.3000 C   0  0  0  0  0  0  0  0  0  0  0  0
    1.3510   17.1800   -0.4700 C   0  0  0  0  0  0  0  0  0  0  0  0
    2.5790   16.2740   -0.6310 C   0  0  1  0  0  0  0  0  0  0  0  0
    3.7250   16.7880    0.2790 C   0  0  0  0  0  0  0  0  0  0  0  0
    4.0500   18.2580    0.0370 C   0  0  0  0  0  0  0  0  0  0  0  0
    2.8190   19.1330    0.2630 C   0  0  2  0  0  0  0  0  0  0  0  0
    2.4730   19.0910    1.6510 O   0  0  0  0  0  0  0  0  0  0  0  0
    1.5960   18.7040   -0.5940 C   0  0  0  0  0  0  0  0  0  0  0  0
    1.8630   19.0340   -2.0840 C   0  0  0  0  0  0  0  0  0  0  0  0
    0.3840   19.5760   -0.1670 C   0  0  0  0  0  0  0  0  0  0  0  0
    2.3170   14.7150   -0.4610 C   0  0  1  0  0  0  0  0  0  0  0  0
    2.4170   14.3200    1.0440 C   0  0  0  0  0  0  0  0  0  0  0  0
    3.4530   13.9190   -1.2060 C   0  0  0  0  0  0  0  0  0  0  0  0
    3.2240   13.6150   -2.6990 C   0  0  0  0  0  0  0  0  0  0  0  0
    1.8360   13.0090   -2.9290 C   0  0  2  0  0  0  0  0  0  0  0  0
    1.7780   11.6440   -2.1630 C   0  0  0  0  0  0  0  0  0  0  0  0
    0.6847   10.1075   -4.1876 H   0  0  0  0  0  0  0  0  0  0  0  0
    0.0999   10.7970   -5.7398 H   0  0  0  0  0  0  0  0  0  0  0  0
    1.4112    9.5693   -5.7398 H   0  0  0  0  0  0  0  0  0  0  0  0
    2.3243   11.8085   -6.1202 H   0  0  0  0  0  0  0  0  0  0  0  0
    3.4106   11.6999   -3.4480 H   0  0  0  0  0  0  0  0  0  0  0  0
    3.1610   10.0152   -4.1132 H   0  0  0  0  0  0  0  0  0  0  0  0
    4.3835   10.7911   -6.1875 H   0  0  0  0  0  0  0  0  0  0  0  0
    4.8551   12.2592   -5.2345 H   0  0  0  0  0  0  0  0  0  0  0  0
    5.7740    9.7739   -5.4325 H   0  0  0  0  0  0  0  0  0  0  0  0
    6.7507   12.7214   -2.3196 H   0  0  0  0  0  0  0  0  0  0  0  0
    7.6445   13.0347   -3.8460 H   0  0  0  0  0  0  0  0  0  0  0  0
    5.8484   13.0090   -3.8460 H   0  0  0  0  0  0  0  0  0  0  0  0
    8.3191   10.2816   -2.4713 H   0  0  0  0  0  0  0  0  0  0  0  0
    8.0446    9.4112   -4.0185 H   0  0  0  0  0  0  0  0  0  0  0  0
    8.8806   11.0011   -4.0185 H   0  0  0  0  0  0  0  0  0  0  0  0
    1.8194   13.5530   -5.0451 H   0  0  0  0  0  0  0  0  0  0  0  0
   -0.5727   13.2396   -5.1585 H   0  0  0  0  0  0  0  0  0  0  0  0
   -0.4795   11.6491   -4.3722 H   0  0  0  0  0  0  0  0  0  0  0  0
   -1.3436   14.0707   -3.1241 H   0  0  0  0  0  0  0  0  0  0  0  0
   -0.9010   12.6104   -2.2441 H   0  0  0  0  0  0  0  0  0  0  0  0
    0.8115   16.2454   -2.5688 H   0  0  0  0  0  0  0  0  0  0  0  0
    1.6882   15.4332   -3.9098 H   0  0  0  0  0  0  0  0  0  0  0  0
   -0.1074   15.4813   -3.9098 H   0  0  0  0  0  0  0  0  0  0  0  0
    0.6800   13.2888   -0.5376 H   0  0  0  0  0  0  0  0  0  0  0  0
   -1.1295   15.0802   -0.9325 H   0  0  0  0  0  0  0  0  0  0  0  0
   -0.3209   14.8877    0.7105 H   0  0  0  0  0  0  0  0  0  0  0  0
   -0.7035   17.3586   -0.1177 H   0  0  0  0  0  0  0  0  0  0  0  0
    2.8780   16.3516   -1.6867 H   0  0  0  0  0  0  0  0  0  0  0  0
    3.4245   16.6618    1.3296 H   0  0  0  0  0  0  0  0  0  0  0  0
    4.6265   16.2037    0.0424 H   0  0  0  0  0  0  0  0  0  0  0  0
    4.8455   18.5697    0.7299 H   0  0  0  0  0  0  0  0  0  0  0  0
    4.3796   18.3779   -1.0056 H   0  0  0  0  0  0  0  0  0  0  0  0
    3.0781   20.1547   -0.0514 H   0  0  0  0  0  0  0  0  0  0  0  0
    1.8420   19.8120    1.8190 H   0  0  0  0  0  0  0  0  0  0  0  0
    2.5536   19.8875   -2.1525 H   0  0  0  0  0  0  0  0  0  0  0  0
    2.3107   18.1595   -2.5787 H   0  0  0  0  0  0  0  0  0  0  0  0
    0.9143   19.2893   -2.5787 H   0  0  0  0  0  0  0  0  0  0  0  0
    0.3293   19.6153    0.9309 H   0  0  0  0  0  0  0  0  0  0  0  0
    0.5066   20.5942   -0.5647 H   0  0  0  0  0  0  0  0  0  0  0  0
   -0.5424   19.1361   -0.5647 H   0  0  0  0  0  0  0  0  0  0  0  0
    2.1948   15.1975    1.6689 H   0  0  0  0  0  0  0  0  0  0  0  0
    1.6927   13.5215    1.2624 H   0  0  0  0  0  0  0  0  0  0  0  0
    3.4340   13.9623    1.2624 H   0  0  0  0  0  0  0  0  0  0  0  0
    4.3794   14.5065   -1.1243 H   0  0  0  0  0  0  0  0  0  0  0  0
    3.4856   12.9358   -0.7139 H   0  0  0  0  0  0  0  0  0  0  0  0
    3.3083   14.5493   -3.2734 H   0  0  0  0  0  0  0  0  0  0  0  0
    3.9823   12.8898   -3.0294 H   0  0  0  0  0  0  0  0  0  0  0  0
    1.7860   11.8312   -1.0791 H   0  0  0  0  0  0  0  0  0  0  0  0
    0.8563   11.1092   -2.4360 H   0  0  0  0  0  0  0  0  0  0  0  0
    2.6510   11.0330   -2.4360 H   0  0  0  0  0  0  0  0  0  0  0  0
  1  2  1  0
  2  3  1  0
  3  4  1  0
  4  5  1  0
  5  6  1  0
  6  7  1  0
  7  8  1  0
  7  9  1  0
  2 10  1  0
 10 11  1  0
 11 12  1  0
 12 13  1  0
 13 14  1  6
 13 15  1  0
 15 16  1  0
 16 17  1  0
 17 18  2  0
 18 19  1  0
 19 20  1  0
 20 21  1  0
 21 22  1  0
 22 23  1  0
 22 24  1  0
 24 25  1  0
 24 26  1  0
 19 27  1  0
 27 28  1  1
 27 29  1  0
 29 30  1  0
 30 31  1  0
 31 32  1  1
  7  5  1  0
 31 10  1  0
 31 13  1  0
 27 15  1  0
 24 18  1  0
  1 33  1  0
  1 34  1  0
  1 35  1  0
  2 36  1  6
  3 37  1  0
  3 38  1  0
  4 39  1  0
  4 40  1  0
  5 41  1  6
  8 42  1  0
  8 43  1  0
  8 44  1  0
  9 45  1  0
  9 46  1  0
  9 47  1  0
 10 48  1  6
 11 49  1  0
 11 50  1  0
 12 51  1  0
 12 52  1  0
 14 53  1  0
 14 54  1  0
 14 55  1  0
 15 56  1  1
 16 57  1  0
 16 58  1  0
 17 59  1  0
 19 60  1  6
 20 61  1  0
 20 62  1  0
 21 63  1  0
 21 64  1  0
 22 65  1  6
 23 66  1  0
 25 67  1  0
 25 68  1  0
 25 69  1  0
 26 70  1  0
 26 71  1  0
 26 72  1  0
 28 73  1  0
 28 74  1  0
 28 75  1  0
 29 76  1  0
 29 77  1  0
 30 78  1  0
 30 79  1  0
 32 80  1  0
 32 81  1  0
 32 82  1  0
M  END
>  <meeko>  (19) 
{"is_sidechain": [false], "intermolecular_energy": 2.731, "internal_energy": -0.839}

$$$$
